data_PCOD8258056
_publ_section_title
;
Structure prediction by ZEFSAII (Michael W. Deem and Ramdas Pophale) SiO2 
 PCOD8258056
Probable space group: C M C M
;
_chemical_formula_sum "Si O2"
_cell_formula_units_Z 64
_cell_length_a 9.111822
_cell_length_b 27.212479
_cell_length_c 13.211391
_cell_angle_alpha 90.000000
_cell_angle_beta 90.000000
_cell_angle_gamma 90.000000
_cell_volume 3275.833954
_symmetry_space_group_name_H-M "C M C M"
_symmetry_group_IT_number 63
_symmetry_cell_setting 'orthorhombic'
loop_
_space_group_symop_operation_xyz
x,y,z
-x,-y,1/2+z
x,-y,-z
-x,y,1/2-z
-x,-y,-z
x,y,1/2-z
-x,y,z
x,-y,1/2+z
1/2+x,1/2+y,z
1/2-x,1/2-y,1/2+z
1/2+x,1/2-y,-z
1/2-x,1/2+y,1/2-z
1/2-x,1/2-y,-z
1/2+x,1/2+y,1/2-z
1/2-x,1/2+y,z
1/2+x,1/2-y,1/2+z
loop_
_atom_site_type_symbol
_atom_site_label
_atom_site_fract_x
_atom_site_fract_y
_atom_site_fract_z
Si Si1 0.328360 0.157975 0.250000
Si Si2 0.826508 0.625005 0.637402
Si Si3 0.338926 0.015485 0.888120
Si Si4 0.826615 0.299779 0.531673
Si Si5 0.827331 0.054446 0.250000
O O1 0.500000 0.145058 0.250000
O O2 0.285551 0.187753 0.351859
O O3 0.239679 0.108148 0.250000
O O4 0.780018 0.644353 0.750000
O O5 0.767229 0.569522 0.623386
O O6 0.764589 0.659144 0.546984
O O7 0.000000 0.623867 0.626608
O O8 0.500000 0.014187 0.834133
O O9 0.226453 0.975655 0.846481
O O10 0.365840 0.000000 0.000000
O O11 0.750000 0.250000 0.500000
O O12 0.000000 0.293551 0.519655
O O13 0.000000 0.059676 0.250000
#
# Coordination Sequence:
#
# PCOD8258056 Si02
#       5
#     8  16  16  16   8
#     4  10  22  42  61  82 117 159 206 243 279 356
#     4   9  17  32  56  85 112 144 193 242 283 339
#     4  10  19  35  61  86 113 156 204 242 280 344
#     4  10  22  39  62  88 114 149 193 245 298 347
#     4  12  24  36  55  88 127 159 188 239 303 352
#
# _framework density 19.537008
#
# number of rings (size 3 to 8) (size 9 to 14) (size 15 to 20)
#    0.000    2.000    1.250    2.625    1.750    5.500 
#    0.000    1.250    0.000    0.000    0.000    0.000 
#    0.000    0.000    0.000    0.000    0.000    0.000 
#
# Total GULP energy -396569.345257 kJ/mol
# GULP energy per Si atom -12392.792039 kJ/mol
# Density = 1.949254 g / cm^3
# Si number density = 19.537008 Si / 1000 Ang^3
#
#
#
# Elastic Constant Matrix: (Units=GPa)
#
#
# Indices 1 2 3 4 5 6 
#
# 1 55.6399 61.8094 39.3363 0.0000 0.0000 0.0000
# 2 61.8094 165.0918 82.1870 0.0000 0.0000 0.0000
# 3 39.3363 82.1870 176.9784 0.0000 0.0000 0.0000
# 4 0.0000 0.0000 0.0000 36.7969 0.0000 0.0000
# 5 0.0000 0.0000 0.0000 0.0000 11.7787 0.0000
# 6 0.0000 0.0000 0.0000 0.0000 0.0000 -87.7872
#
#
#
# Elastic Compliance Matrix: (Units=1/GPa)
#
#
# Indices 1 2 3 4 5 6 
#
# 1 0.031290 -0.010734 -0.001970 0.000000 0.000000 0.000000
# 2 -0.010734 0.011561 -0.002983 0.000000 0.000000 0.000000
# 3 -0.001970 -0.002983 0.007474 0.000000 0.000000 0.000000
# 4 0.000000 0.000000 0.000000 0.027176 0.000000 0.000000
# 5 0.000000 0.000000 0.000000 0.000000 0.084899 0.000000
# 6 0.000000 0.000000 0.000000 0.000000 0.000000 -0.011391
#
#
# Mechanical properties :
#
#
# Convention : Reuss Voigt Hill
#
# Bulk Modulus (GPa) = 52.76937 84.93061 68.84999
# Shear Modulus (GPa) = 26.49728 6.44950 16.47339
#
# Velocity S-wave (km/s) = 3.68674 1.81888 2.90692
# Velocity P-wave (km/s) = 6.72245 6.92655 6.82526
#
# Compressibility (1/GPa) = 0.01895039
#
# Stress axis : x y z
#
# Youngs Moduli (GPa) = 31.95951 86.49774 133.80576
#
# Poissons Ratio (x) = 0.92847 0.26358
# Poissons Ratio (y) = 0.34305 0.39914
# Poissons Ratio (z) = 0.06296 0.25802
#
# Static dielectric constant tensor:
#      x y z
#    x 3.152130 0.000000 0.000000 
#    y 0.000000 3.641870 0.000000 
#    z 0.000000 0.000000 4.083540 
# 
# 
# High freq. dielectric constant tensor:
#      x y z
#    x 1.715230 0.000000 0.000000 
#    y 0.000000 1.765650 0.000000 
#    z 0.000000 0.000000 1.786830 
# 
# From -- ./inp_files/27543.got.cif
#   From: 2010.03.12/outbox.cif.g09.slc.cpg/sg63_14_cif.got.tgz:27543.got - 2010.04.10 19:34:48.
