data_PCOD8258455
_publ_section_title
;
Structure prediction by ZEFSAII (Michael W. Deem and Ramdas Pophale) SiO2 
 PCOD8258455
Probable space group: C M C M
;
_chemical_formula_sum "Si O2"
_cell_formula_units_Z 80
_cell_length_a 9.099343
_cell_length_b 28.769267
_cell_length_c 16.851341
_cell_angle_alpha 90.000000
_cell_angle_beta 90.000000
_cell_angle_gamma 90.000000
_cell_volume 4411.368116
_symmetry_space_group_name_H-M "C M C M"
_symmetry_group_IT_number 63
_symmetry_cell_setting 'orthorhombic'
loop_
_space_group_symop_operation_xyz
x,y,z
-x,-y,1/2+z
x,-y,-z
-x,y,1/2-z
-x,-y,-z
x,y,1/2-z
-x,y,z
x,-y,1/2+z
1/2+x,1/2+y,z
1/2-x,1/2-y,1/2+z
1/2+x,1/2-y,-z
1/2-x,1/2+y,1/2-z
1/2-x,1/2-y,-z
1/2+x,1/2+y,1/2-z
1/2-x,1/2+y,z
1/2+x,1/2-y,1/2+z
loop_
_atom_site_type_symbol
_atom_site_label
_atom_site_fract_x
_atom_site_fract_y
_atom_site_fract_z
Si Si1 0.326633 0.235967 0.840901
Si Si2 0.171169 0.643125 0.928631
Si Si3 0.666364 0.434635 0.337361
Si Si4 0.328122 0.825585 0.604105
Si Si5 0.175228 0.491754 0.750000
Si Si6 0.325758 0.113490 0.250000
O O1 0.273667 0.238269 0.750000
O O2 0.500000 0.241880 0.848505
O O3 0.275510 0.187220 0.877833
O O4 0.252197 0.276406 0.891458
O O5 0.260374 0.598083 0.902270
O O6 0.000000 0.633553 0.913814
O O7 0.207217 0.650966 0.020452
O O8 0.667790 0.410070 0.250000
O O9 0.500000 0.446058 0.363924
O O10 0.759148 0.482823 0.328848
O O11 0.500000 0.816032 0.614683
O O12 0.267173 0.859817 0.672273
O O13 0.233612 0.439011 0.750000
O O14 0.000000 0.495354 0.750000
O O15 0.500000 0.112220 0.250000
#
# Coordination Sequence:
#
# PCOD8258455 Si02
#       6
#    16  16  16  16   8   8
#     4  10  20  33  49  75 108 142 180 214 257 314
#     4  10  20  33  53  79 108 144 176 213 262 311
#     4   9  19  34  53  80 107 131 169 215 260 315
#     4  10  20  35  54  77 106 139 182 223 259 305
#     4   9  17  33  58  77  98 135 172 215 268 317
#     4   9  18  35  56  77 100 133 178 225 264 307
#
# _framework density 18.134964
#
# number of rings (size 3 to 8) (size 9 to 14) (size 15 to 20)
#    0.600    1.800    1.000    1.800    0.000    2.400 
#    0.000    3.000    0.000    6.000    0.000    0.000 
#    0.000    0.000    0.000    0.000    0.000    0.000 
#
# Total GULP energy -495925.632999 kJ/mol
# GULP energy per Si atom -12398.140825 kJ/mol
# Density = 1.809369 g / cm^3
# Si number density = 18.134964 Si / 1000 Ang^3
#
#
#
# Elastic Constant Matrix: (Units=GPa)
#
#
# Indices 1 2 3 4 5 6 
#
# 1 54.2753 31.0489 21.9095 0.0000 0.0000 0.0000
# 2 31.0489 93.5686 23.6750 0.0000 0.0000 0.0000
# 3 21.9095 23.6750 71.4939 0.0000 0.0000 0.0000
# 4 0.0000 0.0000 0.0000 12.2022 0.0000 0.0000
# 5 0.0000 0.0000 0.0000 0.0000 17.3746 0.0000
# 6 0.0000 0.0000 0.0000 0.0000 0.0000 23.5580
#
#
#
# Elastic Compliance Matrix: (Units=1/GPa)
#
#
# Indices 1 2 3 4 5 6 
#
# 1 0.024416 -0.006776 -0.005238 0.000000 0.000000 0.000000
# 2 -0.006776 0.013545 -0.002409 0.000000 0.000000 0.000000
# 3 -0.005238 -0.002409 0.016390 0.000000 0.000000 0.000000
# 4 0.000000 0.000000 0.000000 0.081953 0.000000 0.000000
# 5 0.000000 0.000000 0.000000 0.000000 0.057555 0.000000
# 6 0.000000 0.000000 0.000000 0.000000 0.000000 0.042448
#
#
# Mechanical properties :
#
#
# Convention : Reuss Voigt Hill
#
# Bulk Modulus (GPa) = 39.20931 41.40053 40.30492
# Shear Modulus (GPa) = 18.27110 20.14058 19.20584
#
# Velocity S-wave (km/s) = 3.17757 3.33617 3.25784
# Velocity P-wave (km/s) = 5.92709 6.14156 6.03528
#
# Compressibility (1/GPa) = 0.02550415
#
# Stress axis : x y z
#
# Youngs Moduli (GPa) = 40.95728 73.82534 61.01216
#
# Poissons Ratio (x) = 0.50027 0.31960
# Poissons Ratio (y) = 0.27755 0.14697
# Poissons Ratio (z) = 0.21454 0.17784
#
# Static dielectric constant tensor:
#      x y z
#    x 3.175540 0.000000 0.000000 
#    y 0.000000 3.288150 0.000000 
#    z 0.000000 0.000000 3.342630 
# 
# 
# High freq. dielectric constant tensor:
#      x y z
#    x 1.691810 0.000000 0.000000 
#    y 0.000000 1.698320 0.000000 
#    z 0.000000 0.000000 1.697320 
# 
# From -- ./inp_files/40746.got.cif
#   From: 2010.03.12/outbox.cif.g09.slc.cpg/sg63_21_cif.got.tgz:40746.got - 2010.04.10 19:34:48.
