data_PCOD8258741
_publ_section_title
;
Structure prediction by ZEFSAII (Michael W. Deem and Ramdas Pophale) SiO2 
 PCOD8258741
Probable space group: C M C M
;
_chemical_formula_sum "Si O2"
_cell_formula_units_Z 96
_cell_length_a 9.264880
_cell_length_b 19.754720
_cell_length_c 30.069850
_cell_angle_alpha 90.000000
_cell_angle_beta 90.000000
_cell_angle_gamma 90.000000
_cell_volume 5503.537611
_symmetry_space_group_name_H-M "C M C M"
_symmetry_group_IT_number 63
_symmetry_cell_setting 'orthorhombic'
loop_
_space_group_symop_operation_xyz
x,y,z
-x,-y,1/2+z
x,-y,-z
-x,y,1/2-z
-x,-y,-z
x,y,1/2-z
-x,y,z
x,-y,1/2+z
1/2+x,1/2+y,z
1/2-x,1/2-y,1/2+z
1/2+x,1/2-y,-z
1/2-x,1/2+y,1/2-z
1/2-x,1/2-y,-z
1/2+x,1/2+y,1/2-z
1/2-x,1/2+y,z
1/2+x,1/2-y,1/2+z
loop_
_atom_site_type_symbol
_atom_site_label
_atom_site_fract_x
_atom_site_fract_y
_atom_site_fract_z
Si Si1 0.667012 0.450403 0.626960
Si Si2 0.831842 0.450759 0.538850
Si Si3 0.832703 0.204346 0.374602
Si Si4 0.669247 0.443841 0.199630
Si Si5 0.667980 0.810192 0.199527
Si Si6 0.329994 0.794458 0.963647
O O1 0.500000 0.462810 0.616824
O O2 0.752265 0.473574 0.583448
O O3 0.698672 0.372752 0.639044
O O4 0.720152 0.494462 0.668703
O O5 0.775922 0.500000 0.500000
O O6 0.796643 0.373182 0.526199
O O7 0.000000 0.461087 0.547489
O O8 0.787990 0.248325 0.332050
O O9 0.733515 0.226238 0.415821
O O10 0.000000 0.215015 0.387870
O O11 0.714835 0.461950 0.250000
O O12 0.500000 0.431008 0.195907
O O13 0.747272 0.376123 0.183141
O O14 0.710888 0.790539 0.250000
O O15 0.500000 0.826872 0.195818
O O16 0.500000 0.779127 0.964430
O O17 0.250000 0.750000 0.000000
#
# Coordination Sequence:
#
# PCOD8258741 Si02
#       6
#    16  16  16  16  16  16
#     4   9  18  32  50  72  96 124 159 197 237 280
#     4   9  19  35  52  70  94 125 159 195 237 283
#     4   9  18  33  51  71  97 127 161 201 241 283
#     4   9  18  32  49  71 100 130 159 195 240 287
#     4   9  18  32  50  72  97 127 163 200 237 280
#     4  10  20  34  52  73  98 127 160 198 240 287
#
# _framework density 17.443325999999999
#
# number of rings (size 3 to 8) (size 9 to 14) (size 15 to 20)
#    0.000    2.833    0.000    0.500    0.000    4.333 
#    0.000    8.333    0.000    0.000    0.000    9.333 
#    0.000    0.000    0.000    0.000    0.000    0.000 
#
# Total GULP energy -595277.897557 kJ/mol
# GULP energy per Si atom -12401.622866 kJ/mol
# Density = 1.740362 g / cm^3
# Si number density = 17.443326 Si / 1000 Ang^3
#
#
#
# Elastic Constant Matrix: (Units=GPa)
#
#
# Indices 1 2 3 4 5 6 
#
# 1 54.7686 48.9422 57.8181 0.0000 0.0000 0.0000
# 2 48.9422 110.4632 96.0242 0.0000 0.0000 0.0000
# 3 57.8181 96.0242 139.1316 0.0000 0.0000 0.0000
# 4 0.0000 0.0000 0.0000 41.0404 0.0000 0.0000
# 5 0.0000 0.0000 0.0000 0.0000 29.7124 0.0000
# 6 0.0000 0.0000 0.0000 0.0000 0.0000 27.5464
#
#
#
# Elastic Compliance Matrix: (Units=1/GPa)
#
#
# Indices 1 2 3 4 5 6 
#
# 1 0.034611 -0.007079 -0.009497 0.000000 0.000000 0.000000
# 2 -0.007079 0.024077 -0.013676 0.000000 0.000000 0.000000
# 3 -0.009497 -0.013676 0.020573 0.000000 0.000000 0.000000
# 4 0.000000 0.000000 0.000000 0.024366 0.000000 0.000000
# 5 0.000000 0.000000 0.000000 0.000000 0.033656 0.000000
# 6 0.000000 0.000000 0.000000 0.000000 0.000000 0.036302
#
#
# Mechanical properties :
#
#
# Convention : Reuss Voigt Hill
#
# Bulk Modulus (GPa) = 53.31366 78.88138 66.09752
# Shear Modulus (GPa) = 20.80380 26.43175 23.61778
#
# Velocity S-wave (km/s) = 3.45722 3.89690 3.68363
# Velocity P-wave (km/s) = 6.82399 8.09737 7.48780
#
# Compressibility (1/GPa) = 0.01875692
#
# Stress axis : x y z
#
# Youngs Moduli (GPa) = 28.89294 41.53325 48.60810
#
# Poissons Ratio (x) = 0.29400 0.46165
# Poissons Ratio (y) = 0.20452 0.66474
# Poissons Ratio (z) = 0.27441 0.56799
#
# Static dielectric constant tensor:
#      x y z
#    x 3.228280 0.000000 0.000000 
#    y 0.000000 3.321150 0.000000 
#    z 0.000000 0.000000 3.378700 
# 
# 
# High freq. dielectric constant tensor:
#      x y z
#    x 1.671600 0.000000 0.000000 
#    y 0.000000 1.673470 0.000000 
#    z 0.000000 0.000000 1.676360 
# 
# From -- ./inp_files/66956.got.cif
#   From: 2010.03.12/outbox.cif.g09.slc.cpg/sg63_34_cif.got.tgz:66956.got - 2010.04.10 19:34:48.
