data_PCOD8258853
_publ_section_title
;
Structure prediction by ZEFSAII (Michael W. Deem and Ramdas Pophale) SiO2 
 PCOD8258853
Probable space group: C M C M
;
_chemical_formula_sum "Si O2"
_cell_formula_units_Z 96
_cell_length_a 19.448958
_cell_length_b 30.181906
_cell_length_c 8.710259
_cell_angle_alpha 90.000000
_cell_angle_beta 90.000000
_cell_angle_gamma 90.000000
_cell_volume 5112.979714
_symmetry_space_group_name_H-M "C M C M"
_symmetry_group_IT_number 63
_symmetry_cell_setting 'orthorhombic'
loop_
_space_group_symop_operation_xyz
x,y,z
-x,-y,1/2+z
x,-y,-z
-x,y,1/2-z
-x,-y,-z
x,y,1/2-z
-x,y,z
x,-y,1/2+z
1/2+x,1/2+y,z
1/2-x,1/2-y,1/2+z
1/2+x,1/2-y,-z
1/2-x,1/2+y,1/2-z
1/2-x,1/2-y,-z
1/2+x,1/2+y,1/2-z
1/2-x,1/2+y,z
1/2+x,1/2-y,1/2+z
loop_
_atom_site_type_symbol
_atom_site_label
_atom_site_fract_x
_atom_site_fract_y
_atom_site_fract_z
Si Si1 0.421571 0.331087 0.427232
Si Si2 0.788450 0.292002 0.930612
Si Si3 0.700908 0.623179 0.068506
Si Si4 0.422646 0.763613 0.069202
Si Si5 0.425677 0.951699 0.570488
Si Si6 0.789490 0.450996 0.068535
O O1 0.402953 0.322665 0.250000
O O2 0.500000 0.346612 0.446702
O O3 0.374744 0.369326 0.499476
O O4 0.406774 0.286390 0.519924
O O5 0.788240 0.286678 0.750000
O O6 0.750171 0.336550 0.982600
O O7 0.750000 0.250000 0.000000
O O8 0.867147 0.295551 0.989371
O O9 0.696736 0.618186 0.250000
O O10 0.727190 0.577787 0.995410
O O11 0.413684 0.766971 0.250000
O O12 0.500000 0.777425 0.018151
O O13 0.408690 0.955121 0.750000
O O14 0.500000 0.927459 0.544115
O O15 0.361654 0.927863 0.486222
O O16 0.431559 0.000000 0.500000
O O17 0.786419 0.453105 0.250000
O O18 0.783300 0.500000 0.000000
#
# Coordination Sequence:
#
# PCOD8258853 Si02
#       6
#    16  16  16  16  16  16
#     4  10  20  34  55  83 112 144 185 230 275 329
#     4  11  22  35  55  81 112 147 184 229 277 331
#     4  11  23  38  57  83 113 148 188 231 280 335
#     4  10  20  34  53  78 111 151 191 231 277 330
#     4   9  16  28  49  76 105 137 176 222 270 323
#     4  11  22  37  58  82 111 146 186 235 284 337
#
# _framework density 18.775745000000001
#
# number of rings (size 3 to 8) (size 9 to 14) (size 15 to 20)
#    0.000    1.667    1.667    5.000    0.000    5.000 
#    0.000    0.833    0.000    1.500    0.000    0.000 
#    0.000    0.000    0.000    0.000    0.000    0.000 
#
# Total GULP energy -595161.160568 kJ/mol
# GULP energy per Si atom -12399.190845 kJ/mol
# Density = 1.873301 g / cm^3
# Si number density = 18.775745 Si / 1000 Ang^3
#
#
#
# Elastic Constant Matrix: (Units=GPa)
#
#
# Indices 1 2 3 4 5 6 
#
# 1 124.3568 41.9789 46.4540 0.0000 0.0000 0.0000
# 2 41.9789 59.2881 28.9199 0.0000 0.0000 0.0000
# 3 46.4540 28.9199 85.2725 0.0000 0.0000 0.0000
# 4 0.0000 0.0000 0.0000 25.6611 0.0000 0.0000
# 5 0.0000 0.0000 0.0000 0.0000 37.6189 0.0000
# 6 0.0000 0.0000 0.0000 0.0000 0.0000 29.8577
#
#
#
# Elastic Compliance Matrix: (Units=1/GPa)
#
#
# Indices 1 2 3 4 5 6 
#
# 1 0.011744 -0.006224 -0.004287 0.000000 0.000000 0.000000
# 2 -0.006224 0.023509 -0.004582 0.000000 0.000000 0.000000
# 3 -0.004287 -0.004582 0.015616 0.000000 0.000000 0.000000
# 4 0.000000 0.000000 0.000000 0.038970 0.000000 0.000000
# 5 0.000000 0.000000 0.000000 0.000000 0.026582 0.000000
# 6 0.000000 0.000000 0.000000 0.000000 0.000000 0.033492
#
#
# Mechanical properties :
#
#
# Convention : Reuss Voigt Hill
#
# Bulk Modulus (GPa) = 48.34919 55.95811 52.15365
# Shear Modulus (GPa) = 26.73884 28.73186 27.73535
#
# Velocity S-wave (km/s) = 3.77784 3.91610 3.84759
# Velocity P-wave (km/s) = 6.69599 7.09337 6.89754
#
# Compressibility (1/GPa) = 0.02068287
#
# Stress axis : x y z
#
# Youngs Moduli (GPa) = 85.15127 42.53699 64.03493
#
# Poissons Ratio (x) = 0.26476 0.27450
# Poissons Ratio (y) = 0.53000 0.29342
# Poissons Ratio (z) = 0.36502 0.19491
#
# Static dielectric constant tensor:
#      x y z
#    x 3.988590 0.000000 0.000000 
#    y 0.000000 3.071570 0.000000 
#    z 0.000000 0.000000 4.368210 
# 
# 
# High freq. dielectric constant tensor:
#      x y z
#    x 1.745090 0.000000 0.000000 
#    y 0.000000 1.683770 0.000000 
#    z 0.000000 0.000000 1.748320 
# 
# From -- ./inp_files/8654.got.cif
#   From: 2010.03.12/outbox.cif.g09.slc.cpg/sg63_5_cif.got.tgz:8654.got - 2010.04.10 19:34:48.
