data_PCOD8258743
_publ_section_title
;
Structure prediction by ZEFSAII (Michael W. Deem and Ramdas Pophale) SiO2 
 PCOD8258743
Probable space group: C M C M
;
_chemical_formula_sum "Si O2"
_cell_formula_units_Z 96
_cell_length_a 9.038360
_cell_length_b 20.720500
_cell_length_c 28.397701
_cell_angle_alpha 90.000000
_cell_angle_beta 90.000000
_cell_angle_gamma 90.000000
_cell_volume 5318.302655
_symmetry_space_group_name_H-M "C M C M"
_symmetry_group_IT_number 63
_symmetry_cell_setting 'orthorhombic'
loop_
_space_group_symop_operation_xyz
x,y,z
-x,-y,1/2+z
x,-y,-z
-x,y,1/2-z
-x,-y,-z
x,y,1/2-z
-x,y,z
x,-y,1/2+z
1/2+x,1/2+y,z
1/2-x,1/2-y,1/2+z
1/2+x,1/2-y,-z
1/2-x,1/2+y,1/2-z
1/2-x,1/2-y,-z
1/2+x,1/2+y,1/2-z
1/2-x,1/2+y,z
1/2+x,1/2-y,1/2+z
loop_
_atom_site_type_symbol
_atom_site_label
_atom_site_fract_x
_atom_site_fract_y
_atom_site_fract_z
Si Si1 0.669925 0.495213 0.398031
Si Si2 0.324340 0.244412 0.898617
Si Si3 0.826193 0.873434 0.552534
Si Si4 0.175496 0.382396 0.047186
Si Si5 0.668743 0.562565 0.698099
Si Si6 0.324860 0.195305 0.698393
O O1 0.500000 0.478875 0.410651
O O2 0.709830 0.567588 0.412789
O O3 0.773196 0.445324 0.425048
O O4 0.699030 0.491022 0.341822
O O5 0.500000 0.245667 0.899746
O O6 0.262210 0.309045 0.922685
O O7 0.265616 0.181957 0.926795
O O8 0.268643 0.241237 0.844087
O O9 0.741320 0.884774 0.504541
O O10 0.000000 0.867528 0.541940
O O11 0.000000 0.383012 0.043966
O O12 0.702935 0.532960 0.750000
O O13 0.500000 0.586870 0.695575
O O14 0.771224 0.623413 0.687798
O O15 0.267537 0.219432 0.750000
O O16 0.500000 0.192588 0.698138
#
# Coordination Sequence:
#
# PCOD8258743 Si02
#       6
#    16  16  16  16  16  16
#     4  10  20  34  52  74 100 133 166 199 246 298
#     4   9  18  33  51  74 101 129 163 204 246 290
#     4  10  21  36  51  69 101 137 166 200 246 299
#     4  11  21  34  53  75  98 128 170 214 247 284
#     4   9  17  30  49  74 100 125 159 201 241 286
#     4   9  16  29  51  76  99 125 160 201 245 291
#
# _framework density 18.050871000000001
#
# number of rings (size 3 to 8) (size 9 to 14) (size 15 to 20)
#    0.000    2.333    1.667    1.500    0.000    2.667 
#    0.000    2.500    0.000    5.000    0.000    0.000 
#    0.000    6.667    0.000    0.000    0.000    0.000 
#
# Total GULP energy -595033.055979 kJ/mol
# GULP energy per Si atom -12396.522000 kJ/mol
# Density = 1.800979 g / cm^3
# Si number density = 18.050871 Si / 1000 Ang^3
#
#
#
# Elastic Constant Matrix: (Units=GPa)
#
#
# Indices 1 2 3 4 5 6 
#
# 1 27.8733 25.4861 31.3929 0.0000 0.0000 0.0000
# 2 25.4861 100.1203 54.8201 0.0000 0.0000 0.0000
# 3 31.3929 54.8201 152.5213 0.0000 0.0000 0.0000
# 4 0.0000 0.0000 0.0000 6.4915 0.0000 0.0000
# 5 0.0000 0.0000 0.0000 0.0000 16.7340 0.0000
# 6 0.0000 0.0000 0.0000 0.0000 0.0000 19.6204
#
#
#
# Elastic Compliance Matrix: (Units=1/GPa)
#
#
# Indices 1 2 3 4 5 6 
#
# 1 0.052901 -0.009343 -0.007530 0.000000 0.000000 0.000000
# 2 -0.009343 0.014085 -0.003140 0.000000 0.000000 0.000000
# 3 -0.007530 -0.003140 0.009235 0.000000 0.000000 0.000000
# 4 0.000000 0.000000 0.000000 0.154048 0.000000 0.000000
# 5 0.000000 0.000000 0.000000 0.000000 0.059758 0.000000
# 6 0.000000 0.000000 0.000000 0.000000 0.000000 0.050967
#
#
# Mechanical properties :
#
#
# Convention : Reuss Voigt Hill
#
# Bulk Modulus (GPa) = 27.62804 55.99034 41.80919
# Shear Modulus (GPa) = 12.71987 19.82355 16.27171
#
# Velocity S-wave (km/s) = 2.65744 3.31751 3.00565
# Velocity P-wave (km/s) = 4.97543 6.76461 5.93779
#
# Compressibility (1/GPa) = 0.03619511
#
# Stress axis : x y z
#
# Youngs Moduli (GPa) = 18.90341 70.99578 108.28554
#
# Poissons Ratio (x) = 0.66331 0.81542
# Poissons Ratio (y) = 0.17661 0.33997
# Poissons Ratio (z) = 0.14235 0.22290
#
# Static dielectric constant tensor:
#      x y z
#    x 3.168670 0.000000 0.000000 
#    y 0.000000 3.349100 0.000000 
#    z 0.000000 0.000000 3.861930 
# 
# 
# High freq. dielectric constant tensor:
#      x y z
#    x 1.678650 0.000000 0.000000 
#    y 0.000000 1.679060 0.000000 
#    z 0.000000 0.000000 1.721810 
# 
# From -- ./inp_files/66916.got.cif
#   From: 2010.03.12/outbox.cif.g09.slc.cpg/sg63_34_cif.got.tgz:66916.got - 2010.04.10 19:34:48.
