data_PCOD8258825
_publ_section_title
;
Structure prediction by ZEFSAII (Michael W. Deem and Ramdas Pophale) SiO2 
 PCOD8258825
Probable space group: C M C M
;
_chemical_formula_sum "Si O2"
_cell_formula_units_Z 96
_cell_length_a 8.785074
_cell_length_b 20.142705
_cell_length_c 29.712318
_cell_angle_alpha 90.000000
_cell_angle_beta 90.000000
_cell_angle_gamma 90.000000
_cell_volume 5257.747807
_symmetry_space_group_name_H-M "C M C M"
_symmetry_group_IT_number 63
_symmetry_cell_setting 'orthorhombic'
loop_
_space_group_symop_operation_xyz
x,y,z
-x,-y,1/2+z
x,-y,-z
-x,y,1/2-z
-x,-y,-z
x,y,1/2-z
-x,y,z
x,-y,1/2+z
1/2+x,1/2+y,z
1/2-x,1/2-y,1/2+z
1/2+x,1/2-y,-z
1/2-x,1/2+y,1/2-z
1/2-x,1/2-y,-z
1/2+x,1/2+y,1/2-z
1/2-x,1/2+y,z
1/2+x,1/2-y,1/2+z
loop_
_atom_site_type_symbol
_atom_site_label
_atom_site_fract_x
_atom_site_fract_y
_atom_site_fract_z
Si Si1 0.824013 0.687656 0.301564
Si Si2 0.179664 0.551829 0.535201
Si Si3 0.675508 0.448950 0.697439
Si Si4 0.179204 0.557480 0.635988
Si Si5 0.319889 0.201125 0.964014
Si Si6 0.179195 0.803453 0.368849
O O1 0.790033 0.706565 0.250000
O O2 0.725037 0.624713 0.317009
O O3 0.775093 0.750161 0.331224
O O4 0.000000 0.669033 0.308740
O O5 0.255717 0.500000 0.500000
O O6 0.231216 0.534424 0.586017
O O7 0.231546 0.626448 0.523012
O O8 0.000000 0.546519 0.531546
O O9 0.706615 0.459992 0.750000
O O10 0.500000 0.459417 0.684921
O O11 0.777048 0.501575 0.671240
O O12 0.262252 0.625767 0.648809
O O13 0.000000 0.570858 0.637212
O O14 0.500000 0.208328 0.963653
O O15 0.258424 0.219292 0.914852
O O16 0.250000 0.250000 0.000000
O O17 0.000000 0.806846 0.376687
#
# Coordination Sequence:
#
# PCOD8258825 Si02
#       6
#    16  16  16  16  16  16
#     4   9  19  36  56  77 102 135 176 219 263 314
#     4   8  16  32  52  73  98 130 169 210 252 302
#     4  10  21  36  54  77 106 139 174 216 266 316
#     4  10  20  34  54  79 106 138 176 218 263 313
#     4  10  20  34  53  77 105 137 175 220 268 318
#     4  10  20  35  55  78 107 142 178 219 267 317
#
# _framework density 18.258766999999999
#
# number of rings (size 3 to 8) (size 9 to 14) (size 15 to 20)
#    0.000    2.500    0.000    3.000    0.000    4.333 
#    0.000    5.000    0.000   17.000    0.000    0.000 
#    0.000    0.000    0.000    0.000    0.000    0.000 
#
# Total GULP energy -595249.712380 kJ/mol
# GULP energy per Si atom -12401.035675 kJ/mol
# Density = 1.821721 g / cm^3
# Si number density = 18.258767 Si / 1000 Ang^3
#
#
#
# Elastic Constant Matrix: (Units=GPa)
#
#
# Indices 1 2 3 4 5 6 
#
# 1 62.0535 37.2717 37.9071 0.0000 0.0000 0.0000
# 2 37.2717 121.5058 84.9089 0.0000 0.0000 0.0000
# 3 37.9071 84.9089 99.7211 0.0000 0.0000 0.0000
# 4 0.0000 0.0000 0.0000 43.1516 0.0000 0.0000
# 5 0.0000 0.0000 0.0000 0.0000 29.5817 0.0000
# 6 0.0000 0.0000 0.0000 0.0000 0.0000 32.9142
#
#
#
# Elastic Compliance Matrix: (Units=1/GPa)
#
#
# Indices 1 2 3 4 5 6 
#
# 1 0.021215 -0.002154 -0.006231 0.000000 0.000000 0.000000
# 2 -0.002154 0.020540 -0.016671 0.000000 0.000000 0.000000
# 3 -0.006231 -0.016671 0.026591 0.000000 0.000000 0.000000
# 4 0.000000 0.000000 0.000000 0.023174 0.000000 0.000000
# 5 0.000000 0.000000 0.000000 0.000000 0.033805 0.000000
# 6 0.000000 0.000000 0.000000 0.000000 0.000000 0.030382
#
#
# Mechanical properties :
#
#
# Convention : Reuss Voigt Hill
#
# Bulk Modulus (GPa) = 54.83619 67.05064 60.94342
# Shear Modulus (GPa) = 23.59656 29.34234 26.46945
#
# Velocity S-wave (km/s) = 3.59882 4.01312 3.81160
# Velocity P-wave (km/s) = 6.88234 7.63385 7.26782
#
# Compressibility (1/GPa) = 0.01823613
#
# Stress axis : x y z
#
# Youngs Moduli (GPa) = 47.13674 48.68513 37.60682
#
# Poissons Ratio (x) = 0.10484 0.23432
# Poissons Ratio (y) = 0.10151 0.62693
# Poissons Ratio (z) = 0.29370 0.81161
#
# Static dielectric constant tensor:
#      x y z
#    x 3.312570 0.000000 0.000000 
#    y 0.000000 3.467330 0.000000 
#    z 0.000000 0.000000 3.504050 
# 
# 
# High freq. dielectric constant tensor:
#      x y z
#    x 1.703880 0.000000 0.000000 
#    y 0.000000 1.712560 0.000000 
#    z 0.000000 0.000000 1.709200 
# 
# From -- ./inp_files/66954.got.cif
#   From: 2010.03.12/outbox.cif.g09.slc.cpg/sg63_34_cif.got.tgz:66954.got - 2010.04.10 19:34:48.
