data_PCOD8258692
_publ_section_title
;
Structure prediction by ZEFSAII (Michael W. Deem and Ramdas Pophale) SiO2 
 PCOD8258692
Probable space group: C M C M
;
_chemical_formula_sum "Si O2"
_cell_formula_units_Z 80
_cell_length_a 23.202525
_cell_length_b 22.813029
_cell_length_c 9.823123
_cell_angle_alpha 90.000000
_cell_angle_beta 90.000000
_cell_angle_gamma 90.000000
_cell_volume 5199.574245
_symmetry_space_group_name_H-M "C M C M"
_symmetry_group_IT_number 63
_symmetry_cell_setting 'orthorhombic'
loop_
_space_group_symop_operation_xyz
x,y,z
-x,-y,1/2+z
x,-y,-z
-x,y,1/2-z
-x,-y,-z
x,y,1/2-z
-x,y,z
x,-y,1/2+z
1/2+x,1/2+y,z
1/2-x,1/2-y,1/2+z
1/2+x,1/2-y,-z
1/2-x,1/2+y,1/2-z
1/2-x,1/2-y,-z
1/2+x,1/2+y,1/2-z
1/2-x,1/2+y,z
1/2+x,1/2-y,1/2+z
loop_
_atom_site_type_symbol
_atom_site_label
_atom_site_fract_x
_atom_site_fract_y
_atom_site_fract_z
Si Si1 0.620756 0.211310 0.903591
Si Si2 0.326270 0.000000 0.500000
Si Si3 0.716556 0.297142 0.589826
Si Si4 0.905208 0.515774 0.250000
Si Si5 0.500000 0.082596 0.750000
Si Si6 0.000000 0.677246 0.981893
Si Si7 0.500000 0.889644 0.750000
Si Si8 0.719162 0.878547 0.411531
O O1 0.607616 0.194045 0.750000
O O2 0.650124 0.275622 0.916065
O O3 0.662744 0.159048 0.958030
O O4 0.558175 0.215602 0.972148
O O5 0.366334 0.022534 0.381006
O O6 0.287578 0.947049 0.443030
O O7 0.736355 0.300071 0.750000
O O8 0.750000 0.250000 0.500000
O O9 0.727406 0.357980 0.508815
O O10 0.942022 0.456076 0.250000
O O11 0.943905 0.571942 0.250000
O O12 0.500000 0.121764 0.617052
O O13 0.000000 0.654073 0.129506
O O14 0.732158 0.868545 0.250000
#
# Coordination Sequence:
#
# PCOD8258692 Si02
#       8
#    16   8  16   8   4   8   4  16
#     4   9  17  32  51  68  89 122 163 198 241 293
#     4  12  22  33  50  68  96 127 168 214 246 284
#     4   9  18  32  51  72  91 119 157 201 249 298
#     4  11  22  34  44  64  92 132 172 207 238 274
#     4  11  20  32  52  58  86 138 172 197 238 280
#     4  12  20  33  48  68  94 127 162 208 242 281
#     4  11  24  32  40  66  98 126 172 205 238 272
#     4  10  20  34  48  69  95 126 165 201 246 294
#
# _framework density 15.385875
#
# number of rings (size 3 to 8) (size 9 to 14) (size 15 to 20)
#    0.000    1.800    2.000    5.400    1.400    1.600 
#    9.000    0.000    0.000    0.000    0.000    0.000 
#    0.000    0.800    0.000    1.100    0.000    0.900 
#
# Total GULP energy -495586.467226 kJ/mol
# GULP energy per Si atom -12389.661681 kJ/mol
# Density = 1.535086 g / cm^3
# Si number density = 15.385875 Si / 1000 Ang^3
#
#
#
# Elastic Constant Matrix: (Units=GPa)
#
#
# Indices 1 2 3 4 5 6 
#
# 1 79.1091 45.4297 40.9843 0.0000 0.0000 0.0000
# 2 45.4297 65.6632 33.2849 0.0000 0.0000 0.0000
# 3 40.9843 33.2849 115.2545 0.0000 0.0000 0.0000
# 4 0.0000 0.0000 0.0000 27.6144 0.0000 0.0000
# 5 0.0000 0.0000 0.0000 0.0000 23.8285 0.0000
# 6 0.0000 0.0000 0.0000 0.0000 0.0000 25.8907
#
#
#
# Elastic Compliance Matrix: (Units=1/GPa)
#
#
# Indices 1 2 3 4 5 6 
#
# 1 0.022522 -0.013498 -0.004111 0.000000 0.000000 0.000000
# 2 -0.013498 0.025931 -0.002689 0.000000 0.000000 0.000000
# 3 -0.004111 -0.002689 0.010915 0.000000 0.000000 0.000000
# 4 0.000000 0.000000 0.000000 0.036213 0.000000 0.000000
# 5 0.000000 0.000000 0.000000 0.000000 0.041967 0.000000
# 6 0.000000 0.000000 0.000000 0.000000 0.000000 0.038624
#
#
# Mechanical properties :
#
#
# Convention : Reuss Voigt Hill
#
# Bulk Modulus (GPa) = 53.26966 55.49165 54.38065
# Shear Modulus (GPa) = 22.41907 24.82191 23.62049
#
# Velocity S-wave (km/s) = 3.82137 4.02094 3.92242
# Velocity P-wave (km/s) = 7.35990 7.59619 7.47898
#
# Compressibility (1/GPa) = 0.01877241
#
# Stress axis : x y z
#
# Youngs Moduli (GPa) = 44.40092 38.56350 91.62001
#
# Poissons Ratio (x) = 0.52055 0.37661
# Poissons Ratio (y) = 0.59934 0.24635
# Poissons Ratio (z) = 0.18251 0.10369
#
# Static dielectric constant tensor:
#      x y z
#    x 3.132600 0.000000 0.000000 
#    y 0.000000 3.017840 0.000000 
#    z 0.000000 0.000000 3.251740 
# 
# 
# High freq. dielectric constant tensor:
#      x y z
#    x 1.564230 0.000000 0.000000 
#    y 0.000000 1.564640 0.000000 
#    z 0.000000 0.000000 1.607120 
# 
# From -- ./inp_files/10397.got.cif
#   From: 2010.03.12/outbox.cif.g09.slc.cpg/sg63_6_cif.got.tgz:10397.got - 2010.04.10 19:34:48.
