data_PCOD8258834
_publ_section_title
;
Structure prediction by ZEFSAII (Michael W. Deem and Ramdas Pophale) SiO2 
 PCOD8258834
Probable space group: C M C M
;
_chemical_formula_sum "Si O2"
_cell_formula_units_Z 80
_cell_length_a 27.903619
_cell_length_b 17.525985
_cell_length_c 9.226864
_cell_angle_alpha 90.000000
_cell_angle_beta 90.000000
_cell_angle_gamma 90.000000
_cell_volume 4512.290882
_symmetry_space_group_name_H-M "C M C M"
_symmetry_group_IT_number 63
_symmetry_cell_setting 'orthorhombic'
loop_
_space_group_symop_operation_xyz
x,y,z
-x,-y,1/2+z
x,-y,-z
-x,y,1/2-z
-x,-y,-z
x,y,1/2-z
-x,y,z
x,-y,1/2+z
1/2+x,1/2+y,z
1/2-x,1/2-y,1/2+z
1/2+x,1/2-y,-z
1/2-x,1/2+y,1/2-z
1/2-x,1/2-y,-z
1/2+x,1/2+y,1/2-z
1/2-x,1/2+y,z
1/2+x,1/2-y,1/2+z
loop_
_atom_site_type_symbol
_atom_site_label
_atom_site_fract_x
_atom_site_fract_y
_atom_site_fract_z
Si Si1 0.278786 0.314740 0.581333
Si Si2 0.139472 0.293365 0.413781
Si Si3 0.446389 0.262282 0.421909
Si Si4 0.783358 0.422371 0.078089
Si Si5 0.943638 0.931209 0.091283
O O1 0.263319 0.320270 0.750000
O O2 0.250000 0.250000 0.500000
O O3 0.334290 0.289173 0.568852
O O4 0.266383 0.393340 0.497022
O O5 0.122288 0.304860 0.250000
O O6 0.092166 0.296110 0.512615
O O7 0.174666 0.362223 0.457517
O O8 0.442813 0.261059 0.250000
O O9 0.500000 0.237847 0.470664
O O10 0.434777 0.347948 0.479425
O O11 0.775525 0.432860 0.250000
O O12 0.798741 0.500000 0.000000
O O13 0.919818 0.934494 0.250000
O O14 0.000000 0.944886 0.105708
O O15 0.919896 0.000000 0.000000
#
# Coordination Sequence:
#
# PCOD8258834 Si02
#       5
#    16  16  16  16  16
#     4   9  17  31  50  73 100 128 160 198 243 296
#     4   9  19  33  50  74 101 129 164 204 246 295
#     4   9  18  31  47  69  97 131 172 213 251 293
#     4  10  20  34  53  78 104 130 163 203 251 305
#     4   8  14  25  40  59  83 111 147 191 235 278
#
# _framework density 17.729354000000001
#
# number of rings (size 3 to 8) (size 9 to 14) (size 15 to 20)
#    0.000    3.000    0.000    3.600    0.000    6.000 
#    0.000    3.000    0.000    3.000    0.000    0.000 
#    0.000    0.000    0.000    0.000    0.000    0.000 
#
# Total GULP energy -495615.359565 kJ/mol
# GULP energy per Si atom -12390.383989 kJ/mol
# Density = 1.768900 g / cm^3
# Si number density = 17.729354 Si / 1000 Ang^3
#
#
#
# Elastic Constant Matrix: (Units=GPa)
#
#
# Indices 1 2 3 4 5 6 
#
# 1 76.0442 40.0272 43.7725 0.0000 0.0000 0.0000
# 2 40.0272 84.1257 44.4751 0.0000 0.0000 0.0000
# 3 43.7725 44.4751 91.2459 0.0000 0.0000 0.0000
# 4 0.0000 0.0000 0.0000 32.4017 0.0000 0.0000
# 5 0.0000 0.0000 0.0000 0.0000 27.8969 0.0000
# 6 0.0000 0.0000 0.0000 0.0000 0.0000 17.7171
#
#
#
# Elastic Compliance Matrix: (Units=1/GPa)
#
#
# Indices 1 2 3 4 5 6 
#
# 1 0.020222 -0.006053 -0.006751 0.000000 0.000000 0.000000
# 2 -0.006053 0.017825 -0.005785 0.000000 0.000000 0.000000
# 3 -0.006751 -0.005785 0.017017 0.000000 0.000000 0.000000
# 4 0.000000 0.000000 0.000000 0.030863 0.000000 0.000000
# 5 0.000000 0.000000 0.000000 0.000000 0.035846 0.000000
# 6 0.000000 0.000000 0.000000 0.000000 0.000000 0.056443
#
#
# Mechanical properties :
#
#
# Convention : Reuss Voigt Hill
#
# Bulk Modulus (GPa) = 55.90251 56.44061 56.17156
# Shear Modulus (GPa) = 22.58813 23.81253 23.20033
#
# Velocity S-wave (km/s) = 3.57326 3.66883 3.62136
# Velocity P-wave (km/s) = 6.97307 7.06050 7.01692
#
# Compressibility (1/GPa) = 0.01788828
#
# Stress axis : x y z
#
# Youngs Moduli (GPa) = 49.45093 56.10062 58.76341
#
# Poissons Ratio (x) = 0.33957 0.39669
# Poissons Ratio (y) = 0.29932 0.33993
# Poissons Ratio (z) = 0.33383 0.32452
#
# Static dielectric constant tensor:
#      x y z
#    x 3.133630 0.000000 0.000000 
#    y 0.000000 2.985280 0.000000 
#    z 0.000000 0.000000 3.475550 
# 
# 
# High freq. dielectric constant tensor:
#      x y z
#    x 1.657290 0.000000 0.000000 
#    y 0.000000 1.665620 0.000000 
#    z 0.000000 0.000000 1.691170 
# 
# From -- ./inp_files/14048.got.cif
#   From: 2010.03.12/outbox.cif.g09.slc.cpg/sg63_8_cif.got.tgz:14048.got - 2010.04.10 19:34:48.
