data_PCOD8258054
_publ_section_title
;
Structure prediction by ZEFSAII (Michael W. Deem and Ramdas Pophale) SiO2 
 PCOD8258054
Probable space group: C M C M
;
_chemical_formula_sum "Si O2"
_cell_formula_units_Z 112
_cell_length_a 13.409886
_cell_length_b 28.888907
_cell_length_c 13.677514
_cell_angle_alpha 90.000000
_cell_angle_beta 90.000000
_cell_angle_gamma 90.000000
_cell_volume 5298.627201
_symmetry_space_group_name_H-M "C M C M"
_symmetry_group_IT_number 63
_symmetry_cell_setting 'orthorhombic'
loop_
_space_group_symop_operation_xyz
x,y,z
-x,-y,1/2+z
x,-y,-z
-x,y,1/2-z
-x,-y,-z
x,y,1/2-z
-x,y,z
x,-y,1/2+z
1/2+x,1/2+y,z
1/2-x,1/2-y,1/2+z
1/2+x,1/2-y,-z
1/2-x,1/2+y,1/2-z
1/2-x,1/2-y,-z
1/2+x,1/2+y,1/2-z
1/2-x,1/2+y,z
1/2+x,1/2-y,1/2+z
loop_
_atom_site_type_symbol
_atom_site_label
_atom_site_fract_x
_atom_site_fract_y
_atom_site_fract_z
Si Si1 0.616112 0.151001 0.858118
Si Si2 0.117440 0.298821 0.950250
Si Si3 0.766305 0.618950 0.137083
Si Si4 0.387623 0.970120 0.633540
Si Si5 0.232639 0.441489 0.364037
Si Si6 0.381838 0.387580 0.471460
Si Si7 0.618023 0.703948 0.640238
O O1 0.649600 0.167969 0.750000
O O2 0.500000 0.140487 0.860124
O O3 0.666233 0.103070 0.887913
O O4 0.644665 0.190741 0.936332
O O5 0.172675 0.334062 0.878241
O O6 0.154627 0.247190 0.925074
O O7 0.000000 0.304210 0.930605
O O8 0.739068 0.613101 0.250000
O O9 0.833521 0.576498 0.097687
O O10 0.661555 0.618911 0.079958
O O11 0.391405 0.972015 0.750000
O O12 0.500000 0.971263 0.591298
O O13 0.325765 0.014191 0.593309
O O14 0.255309 0.447893 0.250000
O O15 0.337926 0.433811 0.419915
O O16 0.500000 0.391749 0.478189
O O17 0.343940 0.343692 0.407340
O O18 0.661230 0.707821 0.750000
O O19 0.500000 0.702986 0.643148
#
# Coordination Sequence:
#
# PCOD8258054 Si02
#       7
#    16  16  16  16  16  16  16
#     4   9  17  31  53  85 127 163 188 228 292 363
#     4  10  19  35  60  91 123 155 193 239 299 370
#     4  11  23  40  59  86 121 158 201 246 299 362
#     4   9  19  37  63  94 128 161 190 229 291 369
#     4  10  19  36  61  89 119 155 199 245 294 351
#     4  11  24  42  60  81 112 155 210 263 305 345
#     4   9  19  37  62  89 116 151 197 251 306 358
#
# _framework density 21.137550999999998
#
# number of rings (size 3 to 8) (size 9 to 14) (size 15 to 20)
#    0.000    2.143    1.429    1.714    0.000    5.429 
#    0.000    2.857    0.000    5.143    0.000    0.000 
#    0.000    0.000    0.000    0.000    0.000    0.000 
#
# Total GULP energy -694495.877217 kJ/mol
# GULP energy per Si atom -12401.712093 kJ/mol
# Density = 2.108944 g / cm^3
# Si number density = 21.137551 Si / 1000 Ang^3
#
#
#
# Elastic Constant Matrix: (Units=GPa)
#
#
# Indices 1 2 3 4 5 6 
#
# 1 91.9510 53.9034 39.2627 0.0000 0.0000 0.0000
# 2 53.9034 114.2187 38.2577 0.0000 0.0000 0.0000
# 3 39.2627 38.2577 109.8031 0.0000 0.0000 0.0000
# 4 0.0000 0.0000 0.0000 31.1940 0.0000 0.0000
# 5 0.0000 0.0000 0.0000 0.0000 31.4570 0.0000
# 6 0.0000 0.0000 0.0000 0.0000 0.0000 30.1959
#
#
#
# Elastic Compliance Matrix: (Units=1/GPa)
#
#
# Indices 1 2 3 4 5 6 
#
# 1 0.016162 -0.006443 -0.003534 0.000000 0.000000 0.000000
# 2 -0.006443 0.012481 -0.002045 0.000000 0.000000 0.000000
# 3 -0.003534 -0.002045 0.011083 0.000000 0.000000 0.000000
# 4 0.000000 0.000000 0.000000 0.032057 0.000000 0.000000
# 5 0.000000 0.000000 0.000000 0.000000 0.031789 0.000000
# 6 0.000000 0.000000 0.000000 0.000000 0.000000 0.033117
#
#
# Mechanical properties :
#
#
# Convention : Reuss Voigt Hill
#
# Bulk Modulus (GPa) = 63.76847 64.31338 64.04092
# Shear Modulus (GPa) = 30.12759 30.87265 30.50012
#
# Velocity S-wave (km/s) = 3.77943 3.82587 3.80272
# Velocity P-wave (km/s) = 7.01992 7.07167 7.04584
#
# Compressibility (1/GPa) = 0.01568173
#
# Stress axis : x y z
#
# Youngs Moduli (GPa) = 61.87503 80.12280 90.22650
#
# Poissons Ratio (x) = 0.51627 0.31885
# Poissons Ratio (y) = 0.39869 0.18447
# Poissons Ratio (z) = 0.21866 0.16382
#
# Static dielectric constant tensor:
#      x y z
#    x 3.691760 0.000000 0.000000 
#    y 0.000000 3.909980 0.000000 
#    z 0.000000 0.000000 3.907710 
# 
# 
# High freq. dielectric constant tensor:
#      x y z
#    x 1.823670 0.000000 0.000000 
#    y 0.000000 1.821080 0.000000 
#    z 0.000000 0.000000 1.837870 
# 
# From -- ./inp_files/32350.got.cif
#   From: 2010.03.12/outbox.cif.g09.slc.cpg/sg63_17_cif.got.tgz:32350.got - 2010.04.10 19:34:48.
