data_PCOD8258465
_publ_section_title
;
Structure prediction by ZEFSAII (Michael W. Deem and Ramdas Pophale) SiO2 
 PCOD8258465
Probable space group: C M C M
;
_chemical_formula_sum "Si O2"
_cell_formula_units_Z 96
_cell_length_a 8.968668
_cell_length_b 22.288547
_cell_length_c 27.475688
_cell_angle_alpha 90.000000
_cell_angle_beta 90.000000
_cell_angle_gamma 90.000000
_cell_volume 5492.350968
_symmetry_space_group_name_H-M "C M C M"
_symmetry_group_IT_number 63
_symmetry_cell_setting 'orthorhombic'
loop_
_space_group_symop_operation_xyz
x,y,z
-x,-y,1/2+z
x,-y,-z
-x,y,1/2-z
-x,-y,-z
x,y,1/2-z
-x,y,z
x,-y,1/2+z
1/2+x,1/2+y,z
1/2-x,1/2-y,1/2+z
1/2+x,1/2-y,-z
1/2-x,1/2+y,1/2-z
1/2-x,1/2-y,-z
1/2+x,1/2+y,1/2-z
1/2-x,1/2+y,z
1/2+x,1/2-y,1/2+z
loop_
_atom_site_type_symbol
_atom_site_label
_atom_site_fract_x
_atom_site_fract_y
_atom_site_fract_z
Si Si1 0.668260 0.159067 0.646544
Si Si2 0.170331 0.483945 0.356545
Si Si3 0.670657 0.713023 0.938280
Si Si4 0.173167 0.647351 0.750000
Si Si5 0.177432 0.517181 0.750000
Si Si6 0.823416 0.964704 0.548395
Si Si7 0.827464 0.342445 0.973721
O O1 0.500000 0.178069 0.631348
O O2 0.683511 0.087647 0.645035
O O3 0.793167 0.192142 0.615584
O O4 0.709413 0.183338 0.700732
O O5 0.223591 0.511482 0.303180
O O6 0.270022 0.506094 0.401265
O O7 0.000000 0.503478 0.366784
O O8 0.500000 0.699598 0.952162
O O9 0.704588 0.783731 0.941260
O O10 0.776499 0.672822 0.971893
O O11 0.253897 0.582743 0.750000
O O12 0.000000 0.630835 0.750000
O O13 0.000000 0.519779 0.750000
O O14 0.765868 0.896867 0.547848
O O15 0.000000 0.964574 0.548510
O O16 0.764773 0.000000 0.500000
O O17 0.000000 0.360594 0.974569
#
# Coordination Sequence:
#
# PCOD8258465 Si02
#       7
#    16  16  16   8   8  16  16
#     4   9  16  28  49  74  99 129 161 192 231 280
#     4   9  17  30  50  74  99 129 164 198 235 285
#     4  10  20  33  50  72  97 122 153 197 241 280
#     4   7  12  24  43  70  99 124 157 196 228 269
#     4   7  12  26  47  70  95 124 161 202 236 271
#     4  11  23  35  48  71 103 131 156 197 248 289
#     4  10  21  36  52  69  91 125 165 196 230 283
#
# _framework density 17.478853999999998
#
# number of rings (size 3 to 8) (size 9 to 14) (size 15 to 20)
#    0.000    2.667    0.000    4.500    0.000    6.667 
#    0.000    0.833    0.000    4.000    0.000    1.167 
#    0.000    0.000    0.000    0.000    0.000    0.000 
#
# Total GULP energy -594634.135417 kJ/mol
# GULP energy per Si atom -12388.211155 kJ/mol
# Density = 1.743907 g / cm^3
# Si number density = 17.478854 Si / 1000 Ang^3
#
#
#
# Elastic Constant Matrix: (Units=GPa)
#
#
# Indices 1 2 3 4 5 6 
#
# 1 52.3141 26.7397 40.9509 0.0000 0.0000 0.0000
# 2 26.7397 48.3688 41.7096 0.0000 0.0000 0.0000
# 3 40.9509 41.7096 145.5017 0.0000 0.0000 0.0000
# 4 0.0000 0.0000 0.0000 12.1298 0.0000 0.0000
# 5 0.0000 0.0000 0.0000 0.0000 23.9278 0.0000
# 6 0.0000 0.0000 0.0000 0.0000 0.0000 23.7553
#
#
#
# Elastic Compliance Matrix: (Units=1/GPa)
#
#
# Indices 1 2 3 4 5 6 
#
# 1 0.028894 -0.011904 -0.004720 0.000000 0.000000 0.000000
# 2 -0.011904 0.032367 -0.005928 0.000000 0.000000 0.000000
# 3 -0.004720 -0.005928 0.009901 0.000000 0.000000 0.000000
# 4 0.000000 0.000000 0.000000 0.082441 0.000000 0.000000
# 5 0.000000 0.000000 0.000000 0.000000 0.041792 0.000000
# 6 0.000000 0.000000 0.000000 0.000000 0.000000 0.042096
#
#
# Mechanical properties :
#
#
# Convention : Reuss Voigt Hill
#
# Bulk Modulus (GPa) = 38.37484 51.66499 45.01991
# Shear Modulus (GPa) = 17.16553 21.08154 19.12354
#
# Velocity S-wave (km/s) = 3.13721 3.47669 3.31130
# Velocity P-wave (km/s) = 5.92667 6.76308 6.35864
#
# Compressibility (1/GPa) = 0.02605874
#
# Stress axis : x y z
#
# Youngs Moduli (GPa) = 34.60883 30.89552 101.00450
#
# Poissons Ratio (x) = 0.36777 0.47673
# Poissons Ratio (y) = 0.41197 0.59877
# Poissons Ratio (z) = 0.16335 0.18315
#
# Static dielectric constant tensor:
#      x y z
#    x 3.107920 0.000000 0.000000 
#    y 0.000000 2.970190 0.000000 
#    z 0.000000 0.000000 3.898980 
# 
# 
# High freq. dielectric constant tensor:
#      x y z
#    x 1.662710 0.000000 0.000000 
#    y 0.000000 1.639590 0.000000 
#    z 0.000000 0.000000 1.690880 
# 
# From -- ./inp_files/67277.got.cif
#   From: 2010.03.12/outbox.cif.g09.slc.cpg/sg63_34_cif.got.tgz:67277.got - 2010.04.10 19:34:48.
