data_PCOD8258809
_publ_section_title
;
Structure prediction by ZEFSAII (Michael W. Deem and Ramdas Pophale) SiO2 
 PCOD8258809
Probable space group: C M C M
;
_chemical_formula_sum "Si O2"
_cell_formula_units_Z 80
_cell_length_a 8.764638
_cell_length_b 27.047958
_cell_length_c 18.663394
_cell_angle_alpha 90.000000
_cell_angle_beta 90.000000
_cell_angle_gamma 90.000000
_cell_volume 4424.447960
_symmetry_space_group_name_H-M "C M C M"
_symmetry_group_IT_number 63
_symmetry_cell_setting 'orthorhombic'
loop_
_space_group_symop_operation_xyz
x,y,z
-x,-y,1/2+z
x,-y,-z
-x,y,1/2-z
-x,-y,-z
x,y,1/2-z
-x,y,z
x,-y,1/2+z
1/2+x,1/2+y,z
1/2-x,1/2-y,1/2+z
1/2+x,1/2-y,-z
1/2-x,1/2+y,1/2-z
1/2-x,1/2-y,-z
1/2+x,1/2+y,1/2-z
1/2-x,1/2+y,z
1/2+x,1/2-y,1/2+z
loop_
_atom_site_type_symbol
_atom_site_label
_atom_site_fract_x
_atom_site_fract_y
_atom_site_fract_z
Si Si1 0.819759 0.523127 0.106034
Si Si2 0.678281 0.271503 0.609775
Si Si3 0.678341 0.680398 0.961158
Si Si4 0.180238 0.317418 0.750000
Si Si5 0.817592 0.570617 0.250000
Si Si6 0.680299 0.923585 0.464164
O O1 0.750050 0.542533 0.180564
O O2 0.775781 0.465858 0.093598
O O3 0.000000 0.527749 0.106643
O O4 0.760877 0.557796 0.041617
O O5 0.500000 0.271368 0.625701
O O6 0.721195 0.307134 0.543359
O O7 0.731361 0.216070 0.592471
O O8 0.764188 0.289904 0.679552
O O9 0.500000 0.687576 0.947355
O O10 0.728350 0.625086 0.942666
O O11 0.243300 0.373394 0.750000
O O12 0.000000 0.317441 0.750000
O O13 0.000000 0.569107 0.250000
O O14 0.500000 0.912687 0.464463
#
# Coordination Sequence:
#
# PCOD8258809 Si02
#       6
#    16  16  16   8   8  16
#     4   8  15  27  45  70  98 129 166 203 241 296
#     4  10  21  36  53  74 102 135 171 209 252 307
#     4  10  20  34  53  76 101 132 172 216 258 300
#     4  11  21  33  54  81 106 131 162 207 258 303
#     4   9  16  27  46  73 100 125 158 201 246 291
#     4   9  16  29  49  71  97 130 166 205 250 299
#
# _framework density 18.08135
#
# number of rings (size 3 to 8) (size 9 to 14) (size 15 to 20)
#    0.000    2.600    0.000    3.900    0.000    4.000 
#    0.000    3.000    0.000    4.800    0.000    0.000 
#    0.000    0.000    0.000    0.000    0.000    0.000 
#
# Total GULP energy -495991.264577 kJ/mol
# GULP energy per Si atom -12399.781614 kJ/mol
# Density = 1.804020 g / cm^3
# Si number density = 18.081350 Si / 1000 Ang^3
#
#
#
# Elastic Constant Matrix: (Units=GPa)
#
#
# Indices 1 2 3 4 5 6 
#
# 1 41.6034 26.5468 26.5291 0.0000 0.0000 0.0000
# 2 26.5468 141.4982 65.2878 0.0000 0.0000 0.0000
# 3 26.5291 65.2878 128.7469 0.0000 0.0000 0.0000
# 4 0.0000 0.0000 0.0000 15.5502 0.0000 0.0000
# 5 0.0000 0.0000 0.0000 0.0000 18.4132 0.0000
# 6 0.0000 0.0000 0.0000 0.0000 0.0000 29.3249
#
#
#
# Elastic Compliance Matrix: (Units=1/GPa)
#
#
# Indices 1 2 3 4 5 6 
#
# 1 0.028939 -0.003496 -0.004190 0.000000 0.000000 0.000000
# 2 -0.003496 0.009648 -0.004172 0.000000 0.000000 0.000000
# 3 -0.004190 -0.004172 0.010746 0.000000 0.000000 0.000000
# 4 0.000000 0.000000 0.000000 0.064308 0.000000 0.000000
# 5 0.000000 0.000000 0.000000 0.000000 0.054309 0.000000
# 6 0.000000 0.000000 0.000000 0.000000 0.000000 0.034101
#
#
# Mechanical properties :
#
#
# Convention : Reuss Voigt Hill
#
# Bulk Modulus (GPa) = 39.03686 60.95288 49.99487
# Shear Modulus (GPa) = 21.33952 25.55665 23.44808
#
# Velocity S-wave (km/s) = 3.43912 3.76363 3.60503
# Velocity P-wave (km/s) = 6.11609 7.25742 6.71106
#
# Compressibility (1/GPa) = 0.02561682
#
# Stress axis : x y z
#
# Youngs Moduli (GPa) = 34.55513 103.64616 93.05456
#
# Poissons Ratio (x) = 0.36234 0.38993
# Poissons Ratio (y) = 0.12080 0.38825
# Poissons Ratio (z) = 0.14480 0.43244
#
# Static dielectric constant tensor:
#      x y z
#    x 3.033610 0.000000 0.000000 
#    y 0.000000 3.408110 0.000000 
#    z 0.000000 0.000000 3.557730 
# 
# 
# High freq. dielectric constant tensor:
#      x y z
#    x 1.675750 0.000000 0.000000 
#    y 0.000000 1.709010 0.000000 
#    z 0.000000 0.000000 1.692690 
# 
# From -- ./inp_files/40584.got.cif
#   From: 2010.03.12/outbox.cif.g09.slc.cpg/sg63_21_cif.got.tgz:40584.got - 2010.04.10 19:34:48.
