data_PCOD8258961
_publ_section_title
;
Structure prediction by ZEFSAII (Michael W. Deem and Ramdas Pophale) SiO2 
 PCOD8258961
Probable space group: C M C M
;
_chemical_formula_sum "Si O2"
_cell_formula_units_Z 72
_cell_length_a 15.824000
_cell_length_b 27.351671
_cell_length_c 8.887517
_cell_angle_alpha 90.000000
_cell_angle_beta 90.000000
_cell_angle_gamma 90.000000
_cell_volume 3846.631490
_symmetry_space_group_name_H-M "C M C M"
_symmetry_group_IT_number 63
_symmetry_cell_setting 'orthorhombic'
loop_
_space_group_symop_operation_xyz
x,y,z
-x,-y,1/2+z
x,-y,-z
-x,y,1/2-z
-x,-y,-z
x,y,1/2-z
-x,y,z
x,-y,1/2+z
1/2+x,1/2+y,z
1/2-x,1/2-y,1/2+z
1/2+x,1/2-y,-z
1/2-x,1/2+y,1/2-z
1/2-x,1/2-y,-z
1/2+x,1/2+y,1/2-z
1/2-x,1/2+y,z
1/2+x,1/2-y,1/2+z
loop_
_atom_site_type_symbol
_atom_site_label
_atom_site_fract_x
_atom_site_fract_y
_atom_site_fract_z
Si Si1 0.260594 0.802251 0.572571
Si Si2 0.596454 0.859677 0.078717
Si Si3 0.155660 0.894654 0.922075
Si Si4 0.000000 0.053855 0.927511
Si Si5 0.669840 0.051463 0.423268
O O1 0.263410 0.796948 0.750000
O O2 0.250000 0.750000 0.500000
O O3 0.350490 0.821659 0.518333
O O4 0.185264 0.840055 0.527400
O O5 0.629623 0.860092 0.250000
O O6 0.500000 0.842621 0.070996
O O7 0.605339 0.913302 0.008871
O O8 0.123544 0.893987 0.750000
O O9 0.234385 0.930647 0.940457
O O10 0.081541 0.914576 0.027026
O O11 0.000000 0.046249 0.750000
O O12 0.000000 0.000000 0.000000
O O13 0.642974 0.048636 0.250000
O O14 0.660477 0.000000 0.500000
#
# Coordination Sequence:
#
# PCOD8258961 Si02
#       5
#    16  16  16   8  16
#     4  10  21  39  63  86 111 146 185 232 286 338
#     4  10  21  37  57  82 112 146 184 227 275 328
#     4   9  20  38  57  80 111 147 187 232 281 334
#     4  12  24  36  56  84 116 154 192 236 287 340
#     4  10  20  34  55  81 110 148 188 228 277 330
#
# _framework density 18.717676000000001
#
# number of rings (size 3 to 8) (size 9 to 14) (size 15 to 20)
#    0.000    2.000    0.000    5.000    0.000    9.333 
#    2.000    0.000    0.000    0.000    0.000    0.000 
#    0.000    0.000    0.000    0.000    0.000    0.000 
#
# Total GULP energy -446434.727903 kJ/mol
# GULP energy per Si atom -12400.964664 kJ/mol
# Density = 1.867507 g / cm^3
# Si number density = 18.717676 Si / 1000 Ang^3
#
#
#
# Elastic Constant Matrix: (Units=GPa)
#
#
# Indices 1 2 3 4 5 6 
#
# 1 84.1696 50.5274 53.0352 0.0000 0.0000 0.0000
# 2 50.5274 167.6893 64.6694 0.0000 0.0000 0.0000
# 3 53.0352 64.6694 122.1703 0.0000 0.0000 0.0000
# 4 0.0000 0.0000 0.0000 40.0481 0.0000 0.0000
# 5 0.0000 0.0000 0.0000 0.0000 32.3725 0.0000
# 6 0.0000 0.0000 0.0000 0.0000 0.0000 14.9480
#
#
#
# Elastic Compliance Matrix: (Units=1/GPa)
#
#
# Indices 1 2 3 4 5 6 
#
# 1 0.017431 -0.002933 -0.006015 0.000000 0.000000 0.000000
# 2 -0.002933 0.007986 -0.002954 0.000000 0.000000 0.000000
# 3 -0.006015 -0.002954 0.012360 0.000000 0.000000 0.000000
# 4 0.000000 0.000000 0.000000 0.024970 0.000000 0.000000
# 5 0.000000 0.000000 0.000000 0.000000 0.030890 0.000000
# 6 0.000000 0.000000 0.000000 0.000000 0.000000 0.066899
#
#
# Mechanical properties :
#
#
# Convention : Reuss Voigt Hill
#
# Bulk Modulus (GPa) = 71.56019 78.94372 75.25195
# Shear Modulus (GPa) = 26.45525 31.19353 28.82439
#
# Velocity S-wave (km/s) = 3.76358 4.08674 3.92848
# Velocity P-wave (km/s) = 7.56309 8.03344 7.80181
#
# Compressibility (1/GPa) = 0.01397425
#
# Stress axis : x y z
#
# Youngs Moduli (GPa) = 57.36872 125.21196 80.90509
#
# Poissons Ratio (x) = 0.36721 0.48661
# Poissons Ratio (y) = 0.16825 0.23903
# Poissons Ratio (z) = 0.34505 0.36993
#
# Static dielectric constant tensor:
#      x y z
#    x 3.335420 0.000000 0.000000 
#    y 0.000000 3.565700 0.000000 
#    z 0.000000 0.000000 3.607090 
# 
# 
# High freq. dielectric constant tensor:
#      x y z
#    x 1.720600 0.000000 0.000000 
#    y 0.000000 1.730790 0.000000 
#    z 0.000000 0.000000 1.741200 
# 
# From -- ./inp_files/4632.got.cif
#   From: 2010.03.12/outbox.cif.g09.slc.cpg/sg63_3_cif.got.tgz:4632.got - 2010.04.10 19:34:48.
