data_PCOD8258826
_publ_section_title
;
Structure prediction by ZEFSAII (Michael W. Deem and Ramdas Pophale) SiO2 
 PCOD8258826
Probable space group: C M C M
;
_chemical_formula_sum "Si O2"
_cell_formula_units_Z 80
_cell_length_a 12.661933
_cell_length_b 24.543839
_cell_length_c 12.873196
_cell_angle_alpha 90.000000
_cell_angle_beta 90.000000
_cell_angle_gamma 90.000000
_cell_volume 4000.634596
_symmetry_space_group_name_H-M "C M C M"
_symmetry_group_IT_number 63
_symmetry_cell_setting 'orthorhombic'
loop_
_space_group_symop_operation_xyz
x,y,z
-x,-y,1/2+z
x,-y,-z
-x,y,1/2-z
-x,-y,-z
x,y,1/2-z
-x,y,z
x,-y,1/2+z
1/2+x,1/2+y,z
1/2-x,1/2-y,1/2+z
1/2+x,1/2-y,-z
1/2-x,1/2+y,1/2-z
1/2-x,1/2-y,-z
1/2+x,1/2+y,1/2-z
1/2-x,1/2+y,z
1/2+x,1/2-y,1/2+z
loop_
_atom_site_type_symbol
_atom_site_label
_atom_site_fract_x
_atom_site_fract_y
_atom_site_fract_z
Si Si1 0.618796 0.435863 0.581291
Si Si2 0.202126 0.951238 0.132095
Si Si3 0.250535 0.339359 0.634071
Si Si4 0.122864 0.376013 0.445445
Si Si5 0.883359 0.741066 0.629882
O O1 0.500000 0.451957 0.612859
O O2 0.623939 0.426695 0.455766
O O3 0.699362 0.483247 0.618529
O O4 0.650781 0.380787 0.638806
O O5 0.168298 0.935582 0.250000
O O6 0.318440 0.927146 0.107741
O O7 0.204737 0.330473 0.750000
O O8 0.158503 0.365163 0.563939
O O9 0.295676 0.282864 0.584416
O O10 0.152224 0.321356 0.382513
O O11 0.000000 0.390176 0.442608
O O12 0.892413 0.755652 0.750000
O O13 0.000000 0.749054 0.577583
#
# Coordination Sequence:
#
# PCOD8258826 Si02
#       5
#    16  16  16  16  16
#     4  10  21  36  55  81 110 137 168 212 267 322
#     4  10  20  34  53  77 105 138 175 212 253 305
#     4  10  20  34  54  80 107 137 176 220 265 314
#     4  10  21  36  53  75 106 143 182 221 259 304
#     4   9  17  31  54  81 105 133 171 215 265 318
#
# _framework density 19.996827
#
# number of rings (size 3 to 8) (size 9 to 14) (size 15 to 20)
#    0.000    2.200    0.000    3.600    0.000    5.200 
#    0.000    8.000    0.000    8.400    0.000    8.400 
#    0.000    0.000    0.000    0.000    0.000    0.000 
#
# Total GULP energy -495703.728420 kJ/mol
# GULP energy per Si atom -12392.593211 kJ/mol
# Density = 1.995131 g / cm^3
# Si number density = 19.996827 Si / 1000 Ang^3
#
#
#
# Elastic Constant Matrix: (Units=GPa)
#
#
# Indices 1 2 3 4 5 6 
#
# 1 90.2863 58.7618 15.0667 0.0000 0.0000 0.0000
# 2 58.7618 109.7677 12.2273 0.0000 0.0000 0.0000
# 3 15.0667 12.2273 91.1884 0.0000 0.0000 0.0000
# 4 0.0000 0.0000 0.0000 24.0005 0.0000 0.0000
# 5 0.0000 0.0000 0.0000 0.0000 13.8828 0.0000
# 6 0.0000 0.0000 0.0000 0.0000 0.0000 30.5018
#
#
#
# Elastic Compliance Matrix: (Units=1/GPa)
#
#
# Indices 1 2 3 4 5 6 
#
# 1 0.017235 -0.009044 -0.001635 0.000000 0.000000 0.000000
# 2 -0.009044 0.013994 -0.000382 0.000000 0.000000 0.000000
# 3 -0.001635 -0.000382 0.011288 0.000000 0.000000 0.000000
# 4 0.000000 0.000000 0.000000 0.041666 0.000000 0.000000
# 5 0.000000 0.000000 0.000000 0.000000 0.072031 0.000000
# 6 0.000000 0.000000 0.000000 0.000000 0.000000 0.032785
#
#
# Mechanical properties :
#
#
# Convention : Reuss Voigt Hill
#
# Bulk Modulus (GPa) = 49.03312 51.48379 50.25846
# Shear Modulus (GPa) = 22.94417 27.35614 25.15015
#
# Velocity S-wave (km/s) = 3.39099 3.70269 3.55026
# Velocity P-wave (km/s) = 6.31707 6.63941 6.48025
#
# Compressibility (1/GPa) = 0.02039438
#
# Stress axis : x y z
#
# Youngs Moduli (GPa) = 58.02104 71.45712 88.59217
#
# Poissons Ratio (x) = 0.64628 0.14484
# Poissons Ratio (y) = 0.52476 0.03385
# Poissons Ratio (z) = 0.09486 0.02731
#
# Static dielectric constant tensor:
#      x y z
#    x 3.460960 0.000000 0.000000 
#    y 0.000000 3.695980 0.000000 
#    z 0.000000 0.000000 3.638510 
# 
# 
# High freq. dielectric constant tensor:
#      x y z
#    x 1.754850 0.000000 0.000000 
#    y 0.000000 1.783100 0.000000 
#    z 0.000000 0.000000 1.779010 
# 
# From -- ./inp_files/30033.got.cif
#   From: 2010.03.12/outbox.cif.g09.slc.cpg/sg63_16_cif.got.tgz:30033.got - 2010.04.10 19:34:48.
