data_PCOD8258906
_publ_section_title
;
Structure prediction by ZEFSAII (Michael W. Deem and Ramdas Pophale) SiO2 
 PCOD8258906
Probable space group: C M C M
;
_chemical_formula_sum "Si O2"
_cell_formula_units_Z 112
_cell_length_a 23.586831
_cell_length_b 15.107457
_cell_length_c 16.016750
_cell_angle_alpha 90.000000
_cell_angle_beta 90.000000
_cell_angle_gamma 90.000000
_cell_volume 5707.361207
_symmetry_space_group_name_H-M "C M C M"
_symmetry_group_IT_number 63
_symmetry_cell_setting 'orthorhombic'
loop_
_space_group_symop_operation_xyz
x,y,z
-x,-y,1/2+z
x,-y,-z
-x,y,1/2-z
-x,-y,-z
x,y,1/2-z
-x,y,z
x,-y,1/2+z
1/2+x,1/2+y,z
1/2-x,1/2-y,1/2+z
1/2+x,1/2-y,-z
1/2-x,1/2+y,1/2-z
1/2-x,1/2-y,-z
1/2+x,1/2+y,1/2-z
1/2-x,1/2+y,z
1/2+x,1/2-y,1/2+z
loop_
_atom_site_type_symbol
_atom_site_label
_atom_site_fract_x
_atom_site_fract_y
_atom_site_fract_z
Si Si1 0.437228 0.036210 0.651121
Si Si2 0.136199 0.962869 0.153774
Si Si3 0.433187 0.673322 0.941585
Si Si4 0.067091 0.657806 0.157662
Si Si5 0.835172 0.660957 0.654374
Si Si6 0.262856 0.590665 0.958976
Si Si7 0.351170 0.654420 0.087769
O O1 0.441919 0.028022 0.750000
O O2 0.500000 0.061094 0.615248
O O3 0.392084 0.110233 0.625112
O O4 0.417597 0.938670 0.618092
O O5 0.134456 0.938653 0.250000
O O6 0.083126 0.914799 0.109885
O O7 0.193566 0.926018 0.115178
O O8 0.134720 0.067586 0.140678
O O9 0.500000 0.675939 0.951455
O O10 0.408667 0.762156 0.897692
O O11 0.406143 0.671517 0.032230
O O12 0.094200 0.667242 0.250000
O O13 0.000000 0.666399 0.164355
O O14 0.818450 0.634123 0.750000
O O15 0.788750 0.640775 0.584131
O O16 0.844925 0.765867 0.652932
O O17 0.240464 0.500000 0.000000
O O18 0.294141 0.646732 0.031510
#
# Coordination Sequence:
#
# PCOD8258906 Si02
#       7
#    16  16  16  16  16  16  16
#     4   8  16  31  50  75 108 139 167 209 261 306
#     4  10  20  37  58  79 106 139 179 226 276 326
#     4  10  20  34  54  80 108 142 184 226 270 321
#     4   8  14  28  50  75 104 136 172 218 267 308
#     4  11  21  35  58  83 107 142 187 221 254 319
#     4   9  20  38  58  79 105 139 177 226 281 321
#     4  10  22  37  53  76 112 148 173 216 278 328
#
# _framework density 19.62378
#
# number of rings (size 3 to 8) (size 9 to 14) (size 15 to 20)
#    0.000    2.571    0.000    3.857    0.000    3.714 
#    0.000    1.429    0.000   12.429    0.000    0.000 
#    0.000    0.000    0.000    0.000    0.000    0.000 
#
# Total GULP energy -694174.658812 kJ/mol
# GULP energy per Si atom -12395.976050 kJ/mol
# Density = 1.957912 g / cm^3
# Si number density = 19.623780 Si / 1000 Ang^3
#
#
#
# Elastic Constant Matrix: (Units=GPa)
#
#
# Indices 1 2 3 4 5 6 
#
# 1 71.6604 40.6742 15.5809 0.0000 0.0000 0.0000
# 2 40.6742 100.0251 2.4605 0.0000 0.0000 0.0000
# 3 15.5809 2.4605 54.2555 0.0000 0.0000 0.0000
# 4 0.0000 0.0000 0.0000 25.2644 0.0000 0.0000
# 5 0.0000 0.0000 0.0000 0.0000 13.2189 0.0000
# 6 0.0000 0.0000 0.0000 0.0000 0.0000 14.8094
#
#
#
# Elastic Compliance Matrix: (Units=1/GPa)
#
#
# Indices 1 2 3 4 5 6 
#
# 1 0.019532 -0.007813 -0.005255 0.000000 0.000000 0.000000
# 2 -0.007813 0.013134 0.001648 0.000000 0.000000 0.000000
# 3 -0.005255 0.001648 0.019866 0.000000 0.000000 0.000000
# 4 0.000000 0.000000 0.000000 0.039581 0.000000 0.000000
# 5 0.000000 0.000000 0.000000 0.000000 0.075650 0.000000
# 6 0.000000 0.000000 0.000000 0.000000 0.000000 0.067525
#
#
# Mechanical properties :
#
#
# Convention : Reuss Voigt Hill
#
# Bulk Modulus (GPa) = 33.67916 38.15249 35.91583
# Shear Modulus (GPa) = 18.65500 21.80688 20.23094
#
# Velocity S-wave (km/s) = 3.08658 3.33715 3.21431
# Velocity P-wave (km/s) = 5.46830 5.85943 5.66724
#
# Compressibility (1/GPa) = 0.02969195
#
# Stress axis : x y z
#
# Youngs Moduli (GPa) = 51.19799 76.13757 50.33824
#
# Poissons Ratio (x) = 0.59488 0.26452
# Poissons Ratio (y) = 0.40002 -0.08296
# Poissons Ratio (z) = 0.26904 -0.12549
#
# Static dielectric constant tensor:
#      x y z
#    x 3.418870 0.000000 0.000000 
#    y 0.000000 3.818080 0.000000 
#    z 0.000000 0.000000 3.426820 
# 
# 
# High freq. dielectric constant tensor:
#      x y z
#    x 1.744390 0.000000 0.000000 
#    y 0.000000 1.776290 0.000000 
#    z 0.000000 0.000000 1.756120 
# 
# From -- ./inp_files/36923.got.cif
#   From: 2010.03.12/outbox.cif.g09.slc.cpg/sg63_19_cif.got.tgz:36923.got - 2010.04.10 19:34:48.
