data_PCOD8258018
_publ_section_title
;
Structure prediction by ZEFSAII (Michael W. Deem and Ramdas Pophale) SiO2 
 PCOD8258018
Probable space group: C M C M
;
_chemical_formula_sum "Si O2"
_cell_formula_units_Z 96
_cell_length_a 10.832143
_cell_length_b 19.882432
_cell_length_c 24.608588
_cell_angle_alpha 90.000000
_cell_angle_beta 90.000000
_cell_angle_gamma 90.000000
_cell_volume 5299.935519
_symmetry_space_group_name_H-M "C M C M"
_symmetry_group_IT_number 63
_symmetry_cell_setting 'orthorhombic'
loop_
_space_group_symop_operation_xyz
x,y,z
-x,-y,1/2+z
x,-y,-z
-x,y,1/2-z
-x,-y,-z
x,y,1/2-z
-x,y,z
x,-y,1/2+z
1/2+x,1/2+y,z
1/2-x,1/2-y,1/2+z
1/2+x,1/2-y,-z
1/2-x,1/2+y,1/2-z
1/2-x,1/2-y,-z
1/2+x,1/2+y,1/2-z
1/2-x,1/2+y,z
1/2+x,1/2-y,1/2+z
loop_
_atom_site_type_symbol
_atom_site_label
_atom_site_fract_x
_atom_site_fract_y
_atom_site_fract_z
Si Si1 0.643167 0.812056 0.937430
Si Si2 0.241563 0.173227 0.548909
Si Si3 0.356051 0.075323 0.633889
Si Si4 0.000000 0.026920 0.091552
Si Si5 0.500000 0.399557 0.477396
Si Si6 0.741641 0.069394 0.364548
Si Si7 0.134895 0.579383 0.750000
Si Si8 0.862212 0.421442 0.750000
O O1 0.500000 0.808159 0.920958
O O2 0.715433 0.743790 0.920399
O O3 0.706907 0.874350 0.907977
O O4 0.654674 0.819468 0.002569
O O5 0.283476 0.117076 0.590282
O O6 0.116534 0.148983 0.521149
O O7 0.500000 0.092771 0.631718
O O8 0.298372 0.097520 0.693100
O O9 0.341297 0.996040 0.623109
O O10 0.883637 0.047750 0.128301
O O11 0.000000 0.947406 0.076380
O O12 0.000000 0.061331 0.033444
O O13 0.715177 0.098845 0.304059
O O14 0.117208 0.500027 0.750000
O O15 0.000000 0.613563 0.750000
O O16 0.000000 0.387424 0.750000
#
# Coordination Sequence:
#
# PCOD8258018 Si02
#       8
#    16  16  16   8   8  16   8   8
#     4  11  23  37  55  82 112 147 190 232 284 342
#     4  11  22  37  57  80 112 152 185 232 283 341
#     4  10  19  35  58  85 110 140 187 234 281 330
#     4  11  22  35  60  84 116 152 188 232 278 347
#     4  11  20  40  54  80 122 152 185 224 290 344
#     4  11  21  37  59  85 111 148 189 233 283 334
#     4   7  14  30  54  79 107 138 170 223 280 323
#     4   9  18  35  58  83 113 143 183 239 290 327
#
# _framework density 18.113427000000001
#
# number of rings (size 3 to 8) (size 9 to 14) (size 15 to 20)
#    0.000    1.667    4.167    3.000    0.000    1.000 
#    1.500    2.500    0.000    0.500    0.000    0.000 
#    0.000    0.000    0.000    0.000    0.000    0.000 
#
# Total GULP energy -594933.252464 kJ/mol
# GULP energy per Si atom -12394.442760 kJ/mol
# Density = 1.807220 g / cm^3
# Si number density = 18.113427 Si / 1000 Ang^3
#
#
#
# Elastic Constant Matrix: (Units=GPa)
#
#
# Indices 1 2 3 4 5 6 
#
# 1 74.3513 2.9978 23.4707 0.0000 0.0000 0.0000
# 2 2.9978 72.8672 25.9213 0.0000 0.0000 0.0000
# 3 23.4707 25.9213 71.8994 0.0000 0.0000 0.0000
# 4 0.0000 0.0000 0.0000 4.9237 0.0000 0.0000
# 5 0.0000 0.0000 0.0000 0.0000 40.4280 0.0000
# 6 0.0000 0.0000 0.0000 0.0000 0.0000 20.8941
#
#
#
# Elastic Compliance Matrix: (Units=1/GPa)
#
#
# Indices 1 2 3 4 5 6 
#
# 1 0.015101 0.001299 -0.005398 0.000000 0.000000 0.000000
# 2 0.001299 0.015854 -0.006140 0.000000 0.000000 0.000000
# 3 -0.005398 -0.006140 0.017884 0.000000 0.000000 0.000000
# 4 0.000000 0.000000 0.000000 0.203101 0.000000 0.000000
# 5 0.000000 0.000000 0.000000 0.000000 0.024735 0.000000
# 6 0.000000 0.000000 0.000000 0.000000 0.000000 0.047860
#
#
# Mechanical properties :
#
#
# Convention : Reuss Voigt Hill
#
# Bulk Modulus (GPa) = 35.25858 35.98859 35.62358
# Shear Modulus (GPa) = 14.10565 24.36436 19.23501
#
# Velocity S-wave (km/s) = 2.79362 3.67154 3.26225
# Velocity P-wave (km/s) = 5.46932 6.15509 5.82231
#
# Compressibility (1/GPa) = 0.02836189
#
# Stress axis : x y z
#
# Youngs Moduli (GPa) = 66.21960 63.07431 55.91604
#
# Poissons Ratio (x) = -0.08193 0.30183
# Poissons Ratio (y) = -0.08602 0.34332
# Poissons Ratio (z) = 0.35745 0.38727
#
# Static dielectric constant tensor:
#      x y z
#    x 3.321200 0.000000 0.000000 
#    y 0.000000 3.274830 0.000000 
#    z 0.000000 0.000000 3.547080 
# 
# 
# High freq. dielectric constant tensor:
#      x y z
#    x 1.700010 0.000000 0.000000 
#    y 0.000000 1.687500 0.000000 
#    z 0.000000 0.000000 1.699650 
# 
# From -- ./inp_files/52975.got.cif
#   From: 2010.03.12/outbox.cif.g09.slc.cpg/sg63_27_cif.got.tgz:52975.got - 2010.04.10 19:34:48.
