data_PCOD8258420
_publ_section_title
;
Structure prediction by ZEFSAII (Michael W. Deem and Ramdas Pophale) SiO2 
 PCOD8258420
Probable space group: C M C M
;
_chemical_formula_sum "Si O2"
_cell_formula_units_Z 80
_cell_length_a 18.997318
_cell_length_b 32.802036
_cell_length_c 8.505483
_cell_angle_alpha 90.000000
_cell_angle_beta 90.000000
_cell_angle_gamma 90.000000
_cell_volume 5300.197761
_symmetry_space_group_name_H-M "C M C M"
_symmetry_group_IT_number 63
_symmetry_cell_setting 'orthorhombic'
loop_
_space_group_symop_operation_xyz
x,y,z
-x,-y,1/2+z
x,-y,-z
-x,y,1/2-z
-x,-y,-z
x,y,1/2-z
-x,y,z
x,-y,1/2+z
1/2+x,1/2+y,z
1/2-x,1/2-y,1/2+z
1/2+x,1/2-y,-z
1/2-x,1/2+y,1/2-z
1/2-x,1/2-y,-z
1/2+x,1/2+y,1/2-z
1/2-x,1/2+y,z
1/2+x,1/2-y,1/2+z
loop_
_atom_site_type_symbol
_atom_site_label
_atom_site_fract_x
_atom_site_fract_y
_atom_site_fract_z
Si Si1 0.000000 0.327766 0.930076
Si Si2 0.500000 0.741241 0.432552
Si Si3 0.148183 0.229740 0.933686
Si Si4 0.626174 0.875531 0.431995
Si Si5 0.222831 0.313208 0.932496
Si Si6 0.418290 0.956551 0.565418
O O1 0.000000 0.311976 0.750000
O O2 0.068091 0.354958 0.957707
O O3 0.000000 0.289694 0.046177
O O4 0.500000 0.730443 0.250000
O O5 0.431417 0.721721 0.512944
O O6 0.156779 0.221972 0.750000
O O7 0.171046 0.275786 0.977794
O O8 0.197300 0.197728 0.024212
O O9 0.606231 0.871018 0.250000
O O10 0.699825 0.852959 0.468368
O O11 0.629849 0.922957 0.478973
O O12 0.217985 0.323729 0.750000
O O13 0.405003 0.954772 0.750000
O O14 0.500000 0.948660 0.523225
O O15 0.393641 0.000000 0.500000
#
# Coordination Sequence:
#
# PCOD8258420 Si02
#       6
#     8   8  16  16  16  16
#     4  12  22  32  43  63  88 116 154 195 232 266
#     4  12  22  32  48  67  89 118 153 191 232 274
#     4  10  20  33  48  65  90 118 150 189 231 272
#     4  12  22  32  48  67  89 118 153 191 232 274
#     4  10  20  33  48  65  90 118 150 189 231 272
#     4  10  20  33  48  65  90 118 150 189 231 272
#
# _framework density 15.093776
#
# number of rings (size 3 to 8) (size 9 to 14) (size 15 to 20)
#    0.000    1.200    3.000    5.400    0.000    2.400 
#    0.000    0.000    0.000    0.000    0.000    0.000 
#    0.000    0.000    0.000    0.900    0.000   12.600 
#
# Total GULP energy -496216.227137 kJ/mol
# GULP energy per Si atom -12405.405678 kJ/mol
# Density = 1.505942 g / cm^3
# Si number density = 15.093776 Si / 1000 Ang^3
#
#
#
# Elastic Constant Matrix: (Units=GPa)
#
#
# Indices 1 2 3 4 5 6 
#
# 1 83.9263 34.4851 20.3796 0.0000 0.0000 0.0000
# 2 34.4851 84.0342 28.1224 0.0000 0.0000 0.0000
# 3 20.3796 28.1224 74.4235 0.0000 0.0000 0.0000
# 4 0.0000 0.0000 0.0000 24.4129 0.0000 0.0000
# 5 0.0000 0.0000 0.0000 0.0000 23.8109 0.0000
# 6 0.0000 0.0000 0.0000 0.0000 0.0000 22.4834
#
#
#
# Elastic Compliance Matrix: (Units=1/GPa)
#
#
# Indices 1 2 3 4 5 6 
#
# 1 0.014583 -0.005321 -0.001983 0.000000 0.000000 0.000000
# 2 -0.005321 0.015564 -0.004424 0.000000 0.000000 0.000000
# 3 -0.001983 -0.004424 0.015651 0.000000 0.000000 0.000000
# 4 0.000000 0.000000 0.000000 0.040962 0.000000 0.000000
# 5 0.000000 0.000000 0.000000 0.000000 0.041997 0.000000
# 6 0.000000 0.000000 0.000000 0.000000 0.000000 0.044477
#
#
# Mechanical properties :
#
#
# Convention : Reuss Voigt Hill
#
# Bulk Modulus (GPa) = 44.75709 45.37315 45.06512
# Shear Modulus (GPa) = 24.49323 24.76792 24.63057
#
# Velocity S-wave (km/s) = 4.03269 4.05524 4.04398
# Velocity P-wave (km/s) = 7.16942 7.21476 7.19212
#
# Compressibility (1/GPa) = 0.02234283
#
# Stress axis : x y z
#
# Youngs Moduli (GPa) = 68.57286 64.25075 63.89247
#
# Poissons Ratio (x) = 0.34187 0.12668
# Poissons Ratio (y) = 0.36487 0.28267
# Poissons Ratio (z) = 0.13596 0.28425
#
# Static dielectric constant tensor:
#      x y z
#    x 2.818610 0.000000 0.000000 
#    y 0.000000 2.800790 0.000000 
#    z 0.000000 0.000000 2.952880 
# 
# 
# High freq. dielectric constant tensor:
#      x y z
#    x 1.550460 0.000000 0.000000 
#    y 0.000000 1.549260 0.000000 
#    z 0.000000 0.000000 1.599790 
# 
# From -- ./inp_files/6700.got.cif
#   From: 2010.03.12/outbox.cif.g09.slc.cpg/sg63_4_cif.got.tgz:6700.got - 2010.04.10 19:34:48.
