data_PCOD8258953
_publ_section_title
;
Structure prediction by ZEFSAII (Michael W. Deem and Ramdas Pophale) SiO2 
 PCOD8258953
Probable space group: C M C M
;
_chemical_formula_sum "Si O2"
_cell_formula_units_Z 64
_cell_length_a 12.987094
_cell_length_b 8.896107
_cell_length_c 27.956362
_cell_angle_alpha 90.000000
_cell_angle_beta 90.000000
_cell_angle_gamma 90.000000
_cell_volume 3229.926482
_symmetry_space_group_name_H-M "C M C M"
_symmetry_group_IT_number 63
_symmetry_cell_setting 'orthorhombic'
loop_
_space_group_symop_operation_xyz
x,y,z
-x,-y,1/2+z
x,-y,-z
-x,y,1/2-z
-x,-y,-z
x,y,1/2-z
-x,y,z
x,-y,1/2+z
1/2+x,1/2+y,z
1/2-x,1/2-y,1/2+z
1/2+x,1/2-y,-z
1/2-x,1/2+y,1/2-z
1/2-x,1/2-y,-z
1/2+x,1/2+y,1/2-z
1/2-x,1/2+y,z
1/2+x,1/2-y,1/2+z
loop_
_atom_site_type_symbol
_atom_site_label
_atom_site_fract_x
_atom_site_fract_y
_atom_site_fract_z
Si Si1 0.118949 0.280624 0.693486
Si Si2 0.304453 0.722512 0.076774
Si Si3 0.745278 0.472141 0.357492
Si Si4 0.884409 0.335997 0.983825
O O1 0.128478 0.281742 0.750000
O O2 0.179844 0.424897 0.674025
O O3 0.169653 0.126381 0.675006
O O4 0.000000 0.288315 0.677171
O O5 0.326574 0.574204 0.107938
O O6 0.319522 0.868057 0.110126
O O7 0.185039 0.723087 0.059413
O O8 0.377602 0.727435 0.030376
O O9 0.000000 0.340299 0.964377
O O10 0.845073 0.500000 0.000000
#
# Coordination Sequence:
#
# PCOD8258953 Si02
#       4
#    16  16  16  16
#     4  10  22  41  64  89 117 151 190 237 298 359
#     4  10  20  36  54  84 116 149 194 240 281 337
#     4  10  21  37  61  86 119 152 190 245 290 345
#     4  10  20  34  55  78 113 158 196 237 286 335
#
# _framework density 19.814692999999998
#
# number of rings (size 3 to 8) (size 9 to 14) (size 15 to 20)
#    0.000    2.000    2.500    0.750    0.000    6.000 
#    0.000    5.000    0.000   13.500    0.000    0.000 
#    0.000    0.000    0.000    0.000    0.000    0.000 
#
# Total GULP energy -396788.791932 kJ/mol
# GULP energy per Si atom -12399.649748 kJ/mol
# Density = 1.976959 g / cm^3
# Si number density = 19.814693 Si / 1000 Ang^3
#
#
#
# Elastic Constant Matrix: (Units=GPa)
#
#
# Indices 1 2 3 4 5 6 
#
# 1 99.9871 43.6582 37.5976 0.0000 0.0000 0.0000
# 2 43.6582 123.7558 42.8888 0.0000 0.0000 0.0000
# 3 37.5976 42.8888 84.9407 0.0000 0.0000 0.0000
# 4 0.0000 0.0000 0.0000 29.9555 0.0000 0.0000
# 5 0.0000 0.0000 0.0000 0.0000 14.2030 0.0000
# 6 0.0000 0.0000 0.0000 0.0000 0.0000 24.6132
#
#
#
# Elastic Compliance Matrix: (Units=1/GPa)
#
#
# Indices 1 2 3 4 5 6 
#
# 1 0.012923 -0.003123 -0.004143 0.000000 0.000000 0.000000
# 2 -0.003123 0.010549 -0.003944 0.000000 0.000000 0.000000
# 3 -0.004143 -0.003944 0.015598 0.000000 0.000000 0.000000
# 4 0.000000 0.000000 0.000000 0.033383 0.000000 0.000000
# 5 0.000000 0.000000 0.000000 0.000000 0.070408 0.000000
# 6 0.000000 0.000000 0.000000 0.000000 0.000000 0.040629
#
#
# Mechanical properties :
#
#
# Convention : Reuss Voigt Hill
#
# Bulk Modulus (GPa) = 60.06173 61.88585 60.97379
# Shear Modulus (GPa) = 23.64515 26.05693 24.85104
#
# Velocity S-wave (km/s) = 3.45819 3.63027 3.54527
# Velocity P-wave (km/s) = 6.80609 6.99085 6.89909
#
# Compressibility (1/GPa) = 0.01664954
#
# Stress axis : x y z
#
# Youngs Moduli (GPa) = 77.38220 94.79536 64.10942
#
# Poissons Ratio (x) = 0.29605 0.26562
# Poissons Ratio (y) = 0.24167 0.25286
# Poissons Ratio (z) = 0.32061 0.37389
#
# Static dielectric constant tensor:
#      x y z
#    x 3.305600 0.000000 0.000000 
#    y 0.000000 3.745730 0.000000 
#    z 0.000000 0.000000 3.699330 
# 
# 
# High freq. dielectric constant tensor:
#      x y z
#    x 1.746760 0.000000 0.000000 
#    y 0.000000 1.782620 0.000000 
#    z 0.000000 0.000000 1.785450 
# 
# From -- ./inp_files/62342.got.cif
#   From: 2010.03.12/outbox.cif.g09.slc.cpg/sg63_32_cif.got.tgz:62342.got - 2010.04.10 19:34:48.
