data_PCOD8258830
_publ_section_title
;
Structure prediction by ZEFSAII (Michael W. Deem and Ramdas Pophale) SiO2 
 PCOD8258830
Probable space group: C M C M
;
_chemical_formula_sum "Si O2"
_cell_formula_units_Z 104
_cell_length_a 31.753186
_cell_length_b 19.604125
_cell_length_c 9.199902
_cell_angle_alpha 90.000000
_cell_angle_beta 90.000000
_cell_angle_gamma 90.000000
_cell_volume 5726.878529
_symmetry_space_group_name_H-M "C M C M"
_symmetry_group_IT_number 63
_symmetry_cell_setting 'orthorhombic'
loop_
_space_group_symop_operation_xyz
x,y,z
-x,-y,1/2+z
x,-y,-z
-x,y,1/2-z
-x,-y,-z
x,y,1/2-z
-x,y,z
x,-y,1/2+z
1/2+x,1/2+y,z
1/2-x,1/2-y,1/2+z
1/2+x,1/2-y,-z
1/2-x,1/2+y,1/2-z
1/2-x,1/2-y,-z
1/2+x,1/2+y,1/2-z
1/2-x,1/2+y,z
1/2+x,1/2-y,1/2+z
loop_
_atom_site_type_symbol
_atom_site_label
_atom_site_fract_x
_atom_site_fract_y
_atom_site_fract_z
Si Si1 0.500000 0.573793 0.925007
Si Si2 0.900940 0.697823 0.922666
Si Si3 0.769166 0.152964 0.419018
Si Si4 0.951327 0.432901 0.079956
Si Si5 0.072437 0.845217 0.581603
Si Si6 0.693370 0.199934 0.919140
Si Si7 0.153721 0.933123 0.916369
O O1 0.500000 0.566022 0.750000
O O2 0.500000 0.500000 0.000000
O O3 0.459065 0.614937 0.976471
O O4 0.898459 0.699798 0.750000
O O5 0.926811 0.632952 0.980331
O O6 0.924795 0.766800 0.972191
O O7 0.853525 0.692160 0.984661
O O8 0.759463 0.145256 0.250000
O O9 0.724971 0.146663 0.503419
O O10 0.791697 0.224093 0.453206
O O11 0.801300 0.094566 0.473679
O O12 0.943679 0.442870 0.250000
O O13 0.000000 0.421279 0.042437
O O14 0.933809 0.500000 0.000000
O O15 0.057336 0.850785 0.750000
O O16 0.118965 0.875090 0.563045
O O17 0.694168 0.182665 0.750000
O O18 0.157841 0.953974 0.750000
O O19 0.139319 0.000000 0.000000
#
# Coordination Sequence:
#
# PCOD8258830 Si02
#       7
#     8  16  16  16  16  16  16
#     4  12  26  42  56  78 111 148 185 224 271 322
#     4   9  17  32  57  84 106 136 180 221 262 322
#     4   9  17  31  49  73 103 134 170 213 260 307
#     4   9  18  33  54  79 104 135 173 210 257 318
#     4  10  20  37  60  82 106 140 181 227 273 320
#     4   9  16  30  52  76 102 132 170 214 258 308
#     4  10  20  34  53  77 106 140 180 224 267 313
#
# _framework density 18.159980000000001
#
# number of rings (size 3 to 8) (size 9 to 14) (size 15 to 20)
#    0.000    2.462    1.538    1.154    1.077    2.462 
#    0.000    3.077    0.000    3.692    0.000    0.000 
#    0.000    0.000    0.000    0.000    0.000    0.000 
#
# Total GULP energy -644736.470652 kJ/mol
# GULP energy per Si atom -12398.778282 kJ/mol
# Density = 1.811865 g / cm^3
# Si number density = 18.159980 Si / 1000 Ang^3
#
#
#
# Elastic Constant Matrix: (Units=GPa)
#
#
# Indices 1 2 3 4 5 6 
#
# 1 106.3728 59.9243 40.6521 0.0000 0.0000 0.0000
# 2 59.9243 130.3235 44.3881 0.0000 0.0000 0.0000
# 3 40.6521 44.3881 52.4315 0.0000 0.0000 0.0000
# 4 0.0000 0.0000 0.0000 26.4124 0.0000 0.0000
# 5 0.0000 0.0000 0.0000 0.0000 27.6870 0.0000
# 6 0.0000 0.0000 0.0000 0.0000 0.0000 22.4759
#
#
#
# Elastic Compliance Matrix: (Units=1/GPa)
#
#
# Indices 1 2 3 4 5 6 
#
# 1 0.014741 -0.004054 -0.007997 0.000000 0.000000 0.000000
# 2 -0.004054 0.011897 -0.006929 0.000000 0.000000 0.000000
# 3 -0.007997 -0.006929 0.031139 0.000000 0.000000 0.000000
# 4 0.000000 0.000000 0.000000 0.037861 0.000000 0.000000
# 5 0.000000 0.000000 0.000000 0.000000 0.036118 0.000000
# 6 0.000000 0.000000 0.000000 0.000000 0.000000 0.044492
#
#
# Mechanical properties :
#
#
# Convention : Reuss Voigt Hill
#
# Bulk Modulus (GPa) = 50.46158 64.33963 57.40060
# Shear Modulus (GPa) = 22.64352 24.92595 23.78473
#
# Velocity S-wave (km/s) = 3.53497 3.70885 3.62295
# Velocity P-wave (km/s) = 6.67150 7.33805 7.01270
#
# Compressibility (1/GPa) = 0.01981706
#
# Stress axis : x y z
#
# Youngs Moduli (GPa) = 67.83784 84.05213 32.11454
#
# Poissons Ratio (x) = 0.34078 0.25682
# Poissons Ratio (y) = 0.27504 0.22251
# Poissons Ratio (z) = 0.54249 0.58237
#
# Static dielectric constant tensor:
#      x y z
#    x 3.562130 0.000000 0.000000 
#    y 0.000000 3.403750 0.000000 
#    z 0.000000 0.000000 3.134400 
# 
# 
# High freq. dielectric constant tensor:
#      x y z
#    x 1.711520 0.000000 0.000000 
#    y 0.000000 1.698000 0.000000 
#    z 0.000000 0.000000 1.676280 
# 
# From -- ./inp_files/14507.got.cif
#   From: 2010.03.12/outbox.cif.g09.slc.cpg/sg63_8_cif.got.tgz:14507.got - 2010.04.10 19:34:48.
