data_PCOD8258592
_publ_section_title
;
Structure prediction by ZEFSAII (Michael W. Deem and Ramdas Pophale) SiO2 
 PCOD8258592
Probable space group: C M C M
;
_chemical_formula_sum "Si O2"
_cell_formula_units_Z 112
_cell_length_a 20.415760
_cell_length_b 17.569059
_cell_length_c 18.481791
_cell_angle_alpha 90.000000
_cell_angle_beta 90.000000
_cell_angle_gamma 90.000000
_cell_volume 6629.153994
_symmetry_space_group_name_H-M "C M C M"
_symmetry_group_IT_number 63
_symmetry_cell_setting 'orthorhombic'
loop_
_space_group_symop_operation_xyz
x,y,z
-x,-y,1/2+z
x,-y,-z
-x,y,1/2-z
-x,-y,-z
x,y,1/2-z
-x,y,z
x,-y,1/2+z
1/2+x,1/2+y,z
1/2-x,1/2-y,1/2+z
1/2+x,1/2-y,-z
1/2-x,1/2+y,1/2-z
1/2-x,1/2-y,-z
1/2+x,1/2+y,1/2-z
1/2-x,1/2+y,z
1/2+x,1/2-y,1/2+z
loop_
_atom_site_type_symbol
_atom_site_label
_atom_site_fract_x
_atom_site_fract_y
_atom_site_fract_z
Si Si1 0.799185 0.579495 0.926817
Si Si2 0.664733 0.921465 0.912505
Si Si3 0.819923 0.965744 0.168211
Si Si4 0.426682 0.653925 0.667339
Si Si5 0.922981 0.284741 0.558865
Si Si6 0.186288 0.256173 0.447716
Si Si7 0.286081 0.631339 0.331603
O O1 0.850835 0.512466 0.902150
O O2 0.730336 0.559769 0.892325
O O3 0.817459 0.664609 0.902408
O O4 0.792595 0.583728 0.013853
O O5 0.599275 0.870645 0.919195
O O6 0.710385 0.890030 0.848367
O O7 0.795838 0.945443 0.250000
O O8 0.885780 0.921136 0.148603
O O9 0.831432 0.056190 0.162399
O O10 0.418784 0.678146 0.750000
O O11 0.500000 0.630622 0.646946
O O12 0.405277 0.728922 0.624381
O O13 0.881219 0.251935 0.492276
O O14 0.000000 0.286682 0.539765
O O15 0.250000 0.250000 0.500000
O O16 0.185569 0.191603 0.387602
O O17 0.288237 0.664278 0.250000
#
# Coordination Sequence:
#
# PCOD8258592 Si02
#       7
#    16  16  16  16  16  16  16
#     4   9  17  30  50  72 100 134 170 214 260 303
#     4   9  18  33  49  74 102 135 170 210 263 310
#     4   9  18  31  49  77 106 135 171 215 261 311
#     4   9  18  32  50  74 104 138 174 210 259 320
#     4  10  20  34  52  77 109 140 173 219 265 318
#     4  11  19  34  52  77 104 138 176 217 263 307
#     4  10  20  33  52  78 105 134 175 217 260 309
#
# _framework density 16.895067000000001
#
# number of rings (size 3 to 8) (size 9 to 14) (size 15 to 20)
#    0.000    2.429    2.857    0.857    0.000    1.143 
#    0.000    6.429    0.000    3.000    0.000    0.000 
#    0.000   11.429    0.000    0.000    0.000    0.000 
#
# Total GULP energy -693855.326426 kJ/mol
# GULP energy per Si atom -12390.273686 kJ/mol
# Density = 1.685661 g / cm^3
# Si number density = 16.895067 Si / 1000 Ang^3
#
#
#
# Elastic Constant Matrix: (Units=GPa)
#
#
# Indices 1 2 3 4 5 6 
#
# 1 83.0980 60.3660 43.0489 0.0000 0.0000 0.0000
# 2 60.3660 134.3225 59.3333 0.0000 0.0000 0.0000
# 3 43.0489 59.3333 73.1947 0.0000 0.0000 0.0000
# 4 0.0000 0.0000 0.0000 29.2779 0.0000 0.0000
# 5 0.0000 0.0000 0.0000 0.0000 16.9116 0.0000
# 6 0.0000 0.0000 0.0000 0.0000 0.0000 29.1498
#
#
#
# Elastic Compliance Matrix: (Units=1/GPa)
#
#
# Indices 1 2 3 4 5 6 
#
# 1 0.019898 -0.005878 -0.006938 0.000000 0.000000 0.000000
# 2 -0.005878 0.013334 -0.007352 0.000000 0.000000 0.000000
# 3 -0.006938 -0.007352 0.023702 0.000000 0.000000 0.000000
# 4 0.000000 0.000000 0.000000 0.034155 0.000000 0.000000
# 5 0.000000 0.000000 0.000000 0.000000 0.059131 0.000000
# 6 0.000000 0.000000 0.000000 0.000000 0.000000 0.034306
#
#
# Mechanical properties :
#
#
# Convention : Reuss Voigt Hill
#
# Bulk Modulus (GPa) = 60.24539 68.45687 64.35113
# Shear Modulus (GPa) = 21.70188 23.59232 22.64710
#
# Velocity S-wave (km/s) = 3.58789 3.74090 3.66520
# Velocity P-wave (km/s) = 7.27324 7.69844 7.48885
#
# Compressibility (1/GPa) = 0.01659878
#
# Stress axis : x y z
#
# Youngs Moduli (GPa) = 50.25582 74.99837 42.18977
#
# Poissons Ratio (x) = 0.44081 0.29273
# Poissons Ratio (y) = 0.29538 0.31017
# Poissons Ratio (z) = 0.34870 0.55136
#
# Static dielectric constant tensor:
#      x y z
#    x 2.913240 0.000000 0.000000 
#    y 0.000000 3.719460 0.000000 
#    z 0.000000 0.000000 3.159410 
# 
# 
# High freq. dielectric constant tensor:
#      x y z
#    x 1.614540 0.000000 0.000000 
#    y 0.000000 1.671050 0.000000 
#    z 0.000000 0.000000 1.646560 
# 
# From -- ./inp_files/47308.got.cif
#   From: 2010.03.12/outbox.cif.g09.slc.cpg/sg63_24_cif.got.tgz:47308.got - 2010.04.10 19:34:48.
