data_PCOD8258253
_publ_section_title
;
Structure prediction by ZEFSAII (Michael W. Deem and Ramdas Pophale) SiO2 
 PCOD8258253
Probable space group: C M C M
;
_chemical_formula_sum "Si O2"
_cell_formula_units_Z 88
_cell_length_a 26.698077
_cell_length_b 27.220803
_cell_length_c 9.083204
_cell_angle_alpha 90.000000
_cell_angle_beta 90.000000
_cell_angle_gamma 90.000000
_cell_volume 6601.155783
_symmetry_space_group_name_H-M "C M C M"
_symmetry_group_IT_number 63
_symmetry_cell_setting 'orthorhombic'
loop_
_space_group_symop_operation_xyz
x,y,z
-x,-y,1/2+z
x,-y,-z
-x,y,1/2-z
-x,-y,-z
x,y,1/2-z
-x,y,z
x,-y,1/2+z
1/2+x,1/2+y,z
1/2-x,1/2-y,1/2+z
1/2+x,1/2-y,-z
1/2-x,1/2+y,1/2-z
1/2-x,1/2-y,-z
1/2+x,1/2+y,1/2-z
1/2-x,1/2+y,z
1/2+x,1/2-y,1/2+z
loop_
_atom_site_type_symbol
_atom_site_label
_atom_site_fract_x
_atom_site_fract_y
_atom_site_fract_z
Si Si1 0.251264 0.632367 0.413043
Si Si2 0.297321 0.772984 0.921393
Si Si3 0.850627 0.197355 0.087446
Si Si4 0.500000 0.551794 0.077831
Si Si5 0.603448 0.400061 0.923904
Si Si6 0.196862 0.949079 0.075202
O O1 0.244534 0.609007 0.250000
O O2 0.203469 0.667778 0.450886
O O3 0.299027 0.667658 0.411971
O O4 0.259157 0.589484 0.532192
O O5 0.293359 0.761519 0.750000
O O6 0.250000 0.750000 0.000000
O O7 0.347119 0.745698 0.983624
O O8 0.863635 0.216866 0.250000
O O9 0.892507 0.157937 0.034279
O O10 0.500000 0.541655 0.250000
O O11 0.548471 0.582615 0.029635
O O12 0.500000 0.500000 0.000000
O O13 0.614405 0.407470 0.750000
O O14 0.643141 0.432059 0.014624
O O15 0.194272 0.954567 0.250000
O O16 0.211627 0.000000 0.000000
#
# Coordination Sequence:
#
# PCOD8258253 Si02
#       6
#    16  16  16   8  16  16
#     4   8  15  26  36  49  69  89 109 135 164 196
#     4   9  15  22  34  51  70  88 105 128 160 197
#     4   8  14  24  37  51  68  86 104 131 167 205
#     4  10  20  32  44  54  66  86 114 148 187 224
#     4   9  18  31  42  53  68  86 111 145 182 218
#     4  11  20  28  39  52  67  89 115 144 176 210
#
# _framework density 13.331
#
# number of rings (size 3 to 8) (size 9 to 14) (size 15 to 20)
#    0.000    2.909    0.000    4.909    0.000    9.455 
#    0.000    0.000    0.000    0.000    0.000    0.000 
#    0.000    0.000    0.000    0.000    0.000    0.000 
#
# Total GULP energy -545116.892184 kJ/mol
# GULP energy per Si atom -12389.020277 kJ/mol
# Density = 1.330066 g / cm^3
# Si number density = 13.331000 Si / 1000 Ang^3
#
#
#
# Elastic Constant Matrix: (Units=GPa)
#
#
# Indices 1 2 3 4 5 6 
#
# 1 39.1668 48.5026 24.8420 0.0000 0.0000 0.0000
# 2 48.5026 97.2346 53.1694 0.0000 0.0000 0.0000
# 3 24.8420 53.1694 81.0482 0.0000 0.0000 0.0000
# 4 0.0000 0.0000 0.0000 24.6692 0.0000 0.0000
# 5 0.0000 0.0000 0.0000 0.0000 11.8741 0.0000
# 6 0.0000 0.0000 0.0000 0.0000 0.0000 22.6511
#
#
#
# Elastic Compliance Matrix: (Units=1/GPa)
#
#
# Indices 1 2 3 4 5 6 
#
# 1 0.067031 -0.034621 0.002167 0.000000 0.000000 0.000000
# 2 -0.034621 0.033919 -0.011640 0.000000 0.000000 0.000000
# 3 0.002167 -0.011640 0.019310 0.000000 0.000000 0.000000
# 4 0.000000 0.000000 0.000000 0.040536 0.000000 0.000000
# 5 0.000000 0.000000 0.000000 0.000000 0.084217 0.000000
# 6 0.000000 0.000000 0.000000 0.000000 0.000000 0.044148
#
#
# Mechanical properties :
#
#
# Convention : Reuss Voigt Hill
#
# Bulk Modulus (GPa) = 31.18030 52.27526 41.72778
# Shear Modulus (GPa) = 12.88522 17.90126 15.39324
#
# Velocity S-wave (km/s) = 3.11233 3.66844 3.40177
# Velocity P-wave (km/s) = 6.02956 7.56582 6.84095
#
# Compressibility (1/GPa) = 0.03207153
#
# Stress axis : x y z
#
# Youngs Moduli (GPa) = 14.91840 29.48185 51.78579
#
# Poissons Ratio (x) = 1.02070 -0.11221
# Poissons Ratio (y) = 0.51650 0.60279
# Poissons Ratio (z) = -0.03232 0.34317
#
# Static dielectric constant tensor:
#      x y z
#    x 2.679120 0.000000 0.000000 
#    y 0.000000 3.225900 0.000000 
#    z 0.000000 0.000000 2.606110 
# 
# 
# High freq. dielectric constant tensor:
#      x y z
#    x 1.445750 0.000000 0.000000 
#    y 0.000000 1.504960 0.000000 
#    z 0.000000 0.000000 1.515410 
# 
# From -- ./inp_files/14798.got.cif
#   From: 2010.03.12/outbox.cif.g09.slc.cpg/sg63_8_cif.got.tgz:14798.got - 2010.04.10 19:34:48.
