data_PCOD8258843
_publ_section_title
;
Structure prediction by ZEFSAII (Michael W. Deem and Ramdas Pophale) SiO2 
 PCOD8258843
Probable space group: C M C M
;
_chemical_formula_sum "Si O2"
_cell_formula_units_Z 80
_cell_length_a 8.806910
_cell_length_b 25.293131
_cell_length_c 18.885190
_cell_angle_alpha 90.000000
_cell_angle_beta 90.000000
_cell_angle_gamma 90.000000
_cell_volume 4206.757814
_symmetry_space_group_name_H-M "C M C M"
_symmetry_group_IT_number 63
_symmetry_cell_setting 'orthorhombic'
loop_
_space_group_symop_operation_xyz
x,y,z
-x,-y,1/2+z
x,-y,-z
-x,y,1/2-z
-x,-y,-z
x,y,1/2-z
-x,y,z
x,-y,1/2+z
1/2+x,1/2+y,z
1/2-x,1/2-y,1/2+z
1/2+x,1/2-y,-z
1/2-x,1/2+y,1/2-z
1/2-x,1/2-y,-z
1/2+x,1/2+y,1/2-z
1/2-x,1/2+y,z
1/2+x,1/2-y,1/2+z
loop_
_atom_site_type_symbol
_atom_site_label
_atom_site_fract_x
_atom_site_fract_y
_atom_site_fract_z
Si Si1 0.680418 0.893886 0.064434
Si Si2 0.679434 0.774550 0.069926
Si Si3 0.323255 0.192549 0.167492
Si Si4 0.680637 0.913414 0.907582
Si Si5 0.318692 0.982462 0.329998
O O1 0.500000 0.895539 0.063981
O O2 0.738006 0.834577 0.079152
O O3 0.743693 0.932394 0.125644
O O4 0.740699 0.913983 0.988215
O O5 0.500000 0.772924 0.061996
O O6 0.731349 0.742651 0.138833
O O7 0.750000 0.750000 0.000000
O O8 0.291685 0.187217 0.250000
O O9 0.500000 0.200918 0.150302
O O10 0.260591 0.139638 0.130376
O O11 0.500000 0.914616 0.905346
O O12 0.745414 0.964232 0.866197
O O13 0.256109 0.978508 0.250000
O O14 0.500000 0.983233 0.329949
#
# Coordination Sequence:
#
# PCOD8258843 Si02
#       5
#    16  16  16  16  16
#     4   9  17  28  45  68  97 132 169 210 257 309
#     4  11  21  35  54  76 105 141 178 218 263 310
#     4  10  20  34  53  78 107 138 174 216 261 311
#     4   9  15  27  46  69  98 132 168 207 255 308
#     4   9  16  25  40  67 101 132 162 204 259 312
#
# _framework density 19.017019000000001
#
# number of rings (size 3 to 8) (size 9 to 14) (size 15 to 20)
#    0.000    2.400    2.000    1.800    0.000    6.000 
#    0.000    2.000    0.000    0.000    0.000    4.200 
#    0.000    3.200    0.000    0.000    0.000    0.000 
#
# Total GULP energy -495987.383881 kJ/mol
# GULP energy per Si atom -12399.684597 kJ/mol
# Density = 1.897374 g / cm^3
# Si number density = 19.017019 Si / 1000 Ang^3
#
#
#
# Elastic Constant Matrix: (Units=GPa)
#
#
# Indices 1 2 3 4 5 6 
#
# 1 20.0360 19.5558 16.6809 0.0000 0.0000 0.0000
# 2 19.5558 189.3666 104.3771 0.0000 0.0000 0.0000
# 3 16.6809 104.3771 163.8399 0.0000 0.0000 0.0000
# 4 0.0000 0.0000 0.0000 40.7275 0.0000 0.0000
# 5 0.0000 0.0000 0.0000 0.0000 18.5745 0.0000
# 6 0.0000 0.0000 0.0000 0.0000 0.0000 20.6381
#
#
#
# Elastic Compliance Matrix: (Units=1/GPa)
#
#
# Indices 1 2 3 4 5 6 
#
# 1 0.056533 -0.004108 -0.003139 0.000000 0.000000 0.000000
# 2 -0.004108 0.008437 -0.004957 0.000000 0.000000 0.000000
# 3 -0.003139 -0.004957 0.009581 0.000000 0.000000 0.000000
# 4 0.000000 0.000000 0.000000 0.024553 0.000000 0.000000
# 5 0.000000 0.000000 0.000000 0.000000 0.053837 0.000000
# 6 0.000000 0.000000 0.000000 0.000000 0.000000 0.048454
#
#
# Mechanical properties :
#
#
# Convention : Reuss Voigt Hill
#
# Bulk Modulus (GPa) = 19.94260 72.71889 46.33075
# Shear Modulus (GPa) = 20.61709 31.49661 26.05685
#
# Velocity S-wave (km/s) = 3.29620 4.07410 3.70562
# Velocity P-wave (km/s) = 4.99960 7.77515 6.53640
#
# Compressibility (1/GPa) = 0.05014392
#
# Stress axis : x y z
#
# Youngs Moduli (GPa) = 17.68882 118.52367 104.37487
#
# Poissons Ratio (x) = 0.48692 0.32758
# Poissons Ratio (y) = 0.07267 0.51736
# Poissons Ratio (z) = 0.05552 0.58749
#
# Static dielectric constant tensor:
#      x y z
#    x 2.902490 0.000000 0.000000 
#    y 0.000000 3.857710 0.000000 
#    z 0.000000 0.000000 3.679140 
# 
# 
# High freq. dielectric constant tensor:
#      x y z
#    x 1.668810 0.000000 0.000000 
#    y 0.000000 1.756200 0.000000 
#    z 0.000000 0.000000 1.752030 
# 
# From -- ./inp_files/40442.got.cif
#   From: 2010.03.12/outbox.cif.g09.slc.cpg/sg63_21_cif.got.tgz:40442.got - 2010.04.10 19:34:48.
