data_PCOD8258090
_publ_section_title
;
Structure prediction by ZEFSAII (Michael W. Deem and Ramdas Pophale) SiO2 
 PCOD8258090
Probable space group: C M C M
;
_chemical_formula_sum "Si O2"
_cell_formula_units_Z 88
_cell_length_a 7.433838
_cell_length_b 20.073398
_cell_length_c 29.792994
_cell_angle_alpha 90.000000
_cell_angle_beta 90.000000
_cell_angle_gamma 90.000000
_cell_volume 4445.781735
_symmetry_space_group_name_H-M "C M C M"
_symmetry_group_IT_number 63
_symmetry_cell_setting 'orthorhombic'
loop_
_space_group_symop_operation_xyz
x,y,z
-x,-y,1/2+z
x,-y,-z
-x,y,1/2-z
-x,-y,-z
x,y,1/2-z
-x,y,z
x,-y,1/2+z
1/2+x,1/2+y,z
1/2-x,1/2-y,1/2+z
1/2+x,1/2-y,-z
1/2-x,1/2+y,1/2-z
1/2-x,1/2-y,-z
1/2+x,1/2+y,1/2-z
1/2-x,1/2+y,z
1/2+x,1/2-y,1/2+z
loop_
_atom_site_type_symbol
_atom_site_label
_atom_site_fract_x
_atom_site_fract_y
_atom_site_fract_z
Si Si1 0.791274 0.076090 0.373318
Si Si2 0.000000 0.747028 0.799192
Si Si3 0.500000 0.896716 0.326614
Si Si4 0.292196 0.779776 0.868843
Si Si5 0.500000 0.043222 0.301299
Si Si6 0.794212 0.137500 0.895730
Si Si7 0.209130 0.017874 0.547802
O O1 0.766433 0.151434 0.392464
O O2 0.677401 0.068371 0.327608
O O3 0.712313 0.027173 0.411721
O O4 0.000000 0.061250 0.362472
O O5 0.178973 0.772136 0.823580
O O6 0.000000 0.778848 0.750000
O O7 0.000000 0.667122 0.794515
O O8 0.322093 0.895557 0.356928
O O9 0.500000 0.963316 0.297667
O O10 0.500000 0.781199 0.854973
O O11 0.250273 0.716417 0.901715
O O12 0.500000 0.070766 0.250000
O O13 0.000000 0.127126 0.881002
O O14 0.755587 0.096270 0.941584
O O15 0.000000 0.000477 0.544636
O O16 0.301450 0.000000 0.500000
#
# Coordination Sequence:
#
# PCOD8258090 Si02
#       7
#    16   8   8  16   8  16  16
#     4  11  22  40  58  82 117 155 189 240 290 342
#     4  10  21  36  56  82 110 143 193 242 284 338
#     4  10  19  36  58  82 110 147 187 235 282 337
#     4  10  20  36  57  79 110 153 190 229 290 338
#     4  12  25  38  58  86 117 152 193 241 290 343
#     4   9  18  34  58  83 112 150 186 227 281 338
#     4   9  18  35  62  89 114 150 193 234 289 350
#
# _framework density 19.794044
#
# number of rings (size 3 to 8) (size 9 to 14) (size 15 to 20)
#    0.000    2.000    3.636    0.273    0.000    1.455 
#    0.000    2.727    0.000    3.273    0.000    0.000 
#    0.000    0.000    0.000    0.000    0.000    0.000 
#
# Total GULP energy -545331.940466 kJ/mol
# GULP energy per Si atom -12393.907738 kJ/mol
# Density = 1.974899 g / cm^3
# Si number density = 19.794044 Si / 1000 Ang^3
#
#
#
# Elastic Constant Matrix: (Units=GPa)
#
#
# Indices 1 2 3 4 5 6 
#
# 1 93.0792 17.7473 30.1666 0.0000 0.0000 0.0000
# 2 17.7473 132.7059 43.9743 0.0000 0.0000 0.0000
# 3 30.1666 43.9743 112.8749 0.0000 0.0000 0.0000
# 4 0.0000 0.0000 0.0000 13.4442 0.0000 0.0000
# 5 0.0000 0.0000 0.0000 0.0000 12.0945 0.0000
# 6 0.0000 0.0000 0.0000 0.0000 0.0000 16.8652
#
#
#
# Elastic Compliance Matrix: (Units=1/GPa)
#
#
# Indices 1 2 3 4 5 6 
#
# 1 0.011806 -0.000612 -0.002917 0.000000 0.000000 0.000000
# 2 -0.000612 0.008684 -0.003220 0.000000 0.000000 0.000000
# 3 -0.002917 -0.003220 0.010893 0.000000 0.000000 0.000000
# 4 0.000000 0.000000 0.000000 0.074382 0.000000 0.000000
# 5 0.000000 0.000000 0.000000 0.000000 0.082682 0.000000
# 6 0.000000 0.000000 0.000000 0.000000 0.000000 0.059294
#
#
# Mechanical properties :
#
#
# Convention : Reuss Voigt Hill
#
# Bulk Modulus (GPa) = 55.90991 58.04849 56.97920
# Shear Modulus (GPa) = 18.71263 24.93223 21.82243
#
# Velocity S-wave (km/s) = 3.07802 3.55291 3.32396
# Velocity P-wave (km/s) = 6.39839 6.79859 6.60152
#
# Compressibility (1/GPa) = 0.01788592
#
# Stress axis : x y z
#
# Youngs Moduli (GPa) = 84.70597 115.15154 91.80098
#
# Poissons Ratio (x) = 0.07051 0.26774
# Poissons Ratio (y) = 0.05187 0.29556
# Poissons Ratio (z) = 0.24705 0.37074
#
# Static dielectric constant tensor:
#      x y z
#    x 3.619860 0.000000 0.000000 
#    y 0.000000 4.012790 0.000000 
#    z 0.000000 0.000000 3.328580 
# 
# 
# High freq. dielectric constant tensor:
#      x y z
#    x 1.779190 0.000000 0.000000 
#    y 0.000000 1.789610 0.000000 
#    z 0.000000 0.000000 1.727910 
# 
# From -- ./inp_files/71827.got.cif
#   From: 2010.03.12/outbox.cif.g09.slc.cpg/sg63_36_cif.got.tgz:71827.got - 2010.04.10 19:34:48.
