data_PCOD8258416
_publ_section_title
;
Structure prediction by ZEFSAII (Michael W. Deem and Ramdas Pophale) SiO2 
 PCOD8258416
Probable space group: C M C M
;
_chemical_formula_sum "Si O2"
_cell_formula_units_Z 112
_cell_length_a 13.168428
_cell_length_b 16.525450
_cell_length_c 29.590894
_cell_angle_alpha 90.000000
_cell_angle_beta 90.000000
_cell_angle_gamma 90.000000
_cell_volume 6439.398680
_symmetry_space_group_name_H-M "C M C M"
_symmetry_group_IT_number 63
_symmetry_cell_setting 'orthorhombic'
loop_
_space_group_symop_operation_xyz
x,y,z
-x,-y,1/2+z
x,-y,-z
-x,y,1/2-z
-x,-y,-z
x,y,1/2-z
-x,y,z
x,-y,1/2+z
1/2+x,1/2+y,z
1/2-x,1/2-y,1/2+z
1/2+x,1/2-y,-z
1/2-x,1/2+y,1/2-z
1/2-x,1/2-y,-z
1/2+x,1/2+y,1/2-z
1/2-x,1/2+y,z
1/2+x,1/2-y,1/2+z
loop_
_atom_site_type_symbol
_atom_site_label
_atom_site_fract_x
_atom_site_fract_y
_atom_site_fract_z
Si Si1 0.619234 0.248350 0.029493
Si Si2 0.378875 0.988118 0.115499
Si Si3 0.113184 0.761358 0.854625
Si Si4 0.886535 0.654445 0.943095
Si Si5 0.739317 0.144287 0.095132
Si Si6 0.879779 0.391492 0.299827
Si Si7 0.117342 0.911964 0.982765
O O1 0.500000 0.231174 0.036245
O O2 0.680622 0.221639 0.073995
O O3 0.665626 0.195020 0.987291
O O4 0.637513 0.343821 0.021098
O O5 0.500000 0.982901 0.115141
O O6 0.344737 0.079167 0.108610
O O7 0.336139 0.929152 0.075297
O O8 0.337053 0.956151 0.163968
O O9 0.111007 0.719573 0.903475
O O10 0.199022 0.830551 0.859387
O O11 0.147883 0.699232 0.815818
O O12 0.000000 0.795847 0.843958
O O13 0.000000 0.633485 0.958602
O O14 0.819010 0.104697 0.061615
O O15 0.832364 0.406953 0.250000
O O16 0.000000 0.399607 0.297865
O O17 0.000000 0.909766 0.968131
O O18 0.149666 0.000000 0.000000
#
# Coordination Sequence:
#
# PCOD8258416 Si02
#       7
#    16  16  16  16  16  16  16
#     4  10  20  33  47  64  90 129 170 208 238 267
#     4   9  19  31  45  73 102 120 149 193 240 295
#     4   9  17  30  48  70  92 117 157 200 236 274
#     4   8  15  30  47  61  87 121 156 204 240 259
#     4  12  21  28  47  68  98 131 158 191 240 282
#     4   8  15  32  57  75  90 116 148 191 247 297
#     4  10  22  35  44  60  89 128 175 208 226 265
#
# _framework density 17.392928999999999
#
# number of rings (size 3 to 8) (size 9 to 14) (size 15 to 20)
#    0.000    2.571    1.429    3.000    2.000    1.143 
#    0.000    2.857    0.000    0.000    0.000    0.000 
#    0.000    4.571    0.000    0.000    0.000    0.000 
#
# Total GULP energy -693984.546122 kJ/mol
# GULP energy per Si atom -12392.581181 kJ/mol
# Density = 1.735334 g / cm^3
# Si number density = 17.392929 Si / 1000 Ang^3
#
#
#
# Elastic Constant Matrix: (Units=GPa)
#
#
# Indices 1 2 3 4 5 6 
#
# 1 36.1275 28.1428 17.8788 0.0000 0.0000 0.0000
# 2 28.1428 104.0566 40.7855 0.0000 0.0000 0.0000
# 3 17.8788 40.7855 70.5210 0.0000 0.0000 0.0000
# 4 0.0000 0.0000 0.0000 17.1718 0.0000 0.0000
# 5 0.0000 0.0000 0.0000 0.0000 10.1051 0.0000
# 6 0.0000 0.0000 0.0000 0.0000 0.0000 13.8149
#
#
#
# Elastic Compliance Matrix: (Units=1/GPa)
#
#
# Indices 1 2 3 4 5 6 
#
# 1 0.036158 -0.008000 -0.004540 0.000000 0.000000 0.000000
# 2 -0.008000 0.014197 -0.006183 0.000000 0.000000 0.000000
# 3 -0.004540 -0.006183 0.018907 0.000000 0.000000 0.000000
# 4 0.000000 0.000000 0.000000 0.058235 0.000000 0.000000
# 5 0.000000 0.000000 0.000000 0.000000 0.098960 0.000000
# 6 0.000000 0.000000 0.000000 0.000000 0.000000 0.072386
#
#
# Mechanical properties :
#
#
# Convention : Reuss Voigt Hill
#
# Bulk Modulus (GPa) = 31.42990 42.70215 37.06603
# Shear Modulus (GPa) = 14.41361 16.47822 15.44591
#
# Velocity S-wave (km/s) = 2.88185 3.08134 2.98326
# Velocity P-wave (km/s) = 5.40214 6.10445 5.76400
#
# Compressibility (1/GPa) = 0.03181683
#
# Stress axis : x y z
#
# Youngs Moduli (GPa) = 27.65615 70.43724 52.89035
#
# Poissons Ratio (x) = 0.56347 0.24015
# Poissons Ratio (y) = 0.22124 0.32701
# Poissons Ratio (z) = 0.12557 0.43549
#
# Static dielectric constant tensor:
#      x y z
#    x 3.257660 0.000000 0.000000 
#    y 0.000000 3.363460 0.000000 
#    z 0.000000 0.000000 3.254400 
# 
# 
# High freq. dielectric constant tensor:
#      x y z
#    x 1.660780 0.000000 0.000000 
#    y 0.000000 1.667890 0.000000 
#    z 0.000000 0.000000 1.636580 
# 
# From -- ./inp_files/73556.got.cif
#   From: 2010.03.12/outbox.cif.g09.slc.cpg/sg63_37_cif.got.tgz:73556.got - 2010.04.10 19:34:48.
