data_PCOD8258655
_publ_section_title
;
Structure prediction by ZEFSAII (Michael W. Deem and Ramdas Pophale) SiO2 
 PCOD8258655
Probable space group: C M C M
;
_chemical_formula_sum "Si O2"
_cell_formula_units_Z 96
_cell_length_a 9.398388
_cell_length_b 20.388312
_cell_length_c 27.727527
_cell_angle_alpha 90.000000
_cell_angle_beta 90.000000
_cell_angle_gamma 90.000000
_cell_volume 5313.072940
_symmetry_space_group_name_H-M "C M C M"
_symmetry_group_IT_number 63
_symmetry_cell_setting 'orthorhombic'
loop_
_space_group_symop_operation_xyz
x,y,z
-x,-y,1/2+z
x,-y,-z
-x,y,1/2-z
-x,-y,-z
x,y,1/2-z
-x,y,z
x,-y,1/2+z
1/2+x,1/2+y,z
1/2-x,1/2-y,1/2+z
1/2+x,1/2-y,-z
1/2-x,1/2+y,1/2-z
1/2-x,1/2-y,-z
1/2+x,1/2+y,1/2-z
1/2-x,1/2+y,z
1/2+x,1/2-y,1/2+z
loop_
_atom_site_type_symbol
_atom_site_label
_atom_site_fract_x
_atom_site_fract_y
_atom_site_fract_z
Si Si1 0.664609 0.758192 0.951690
Si Si2 0.834787 0.134065 0.611464
Si Si3 0.837909 0.685751 0.304202
Si Si4 0.665437 0.816961 0.305052
Si Si5 0.666869 0.495929 0.445173
Si Si6 0.836110 0.390128 0.896613
O O1 0.500000 0.752889 0.964906
O O2 0.707287 0.701348 0.914675
O O3 0.704424 0.827421 0.928522
O O4 0.750000 0.750000 0.000000
O O5 0.742072 0.130024 0.660412
O O6 0.000000 0.131281 0.625696
O O7 0.793910 0.074977 0.575910
O O8 0.819834 0.658335 0.250000
O O9 0.733715 0.745948 0.313709
O O10 0.802702 0.626664 0.340715
O O11 0.000000 0.710571 0.313585
O O12 0.688353 0.839994 0.250000
O O13 0.500000 0.812538 0.318249
O O14 0.724311 0.500000 0.500000
O O15 0.500000 0.510044 0.443995
O O16 0.740208 0.549504 0.411791
O O17 0.000000 0.409686 0.903809
#
# Coordination Sequence:
#
# PCOD8258655 Si02
#       6
#    16  16  16  16  16  16
#     4  10  20  34  53  79 106 137 181 229 273 321
#     4  10  20  37  57  78 108 146 186 222 267 331
#     4   9  17  33  57  81 108 144 180 217 269 329
#     4  10  20  33  53  84 115 141 176 226 278 321
#     4  10  22  39  58  78 106 147 187 224 270 323
#     4  10  20  35  55  81 110 140 180 225 271 324
#
# _framework density 18.068639000000001
#
# number of rings (size 3 to 8) (size 9 to 14) (size 15 to 20)
#    0.000    2.167    1.667    1.500    0.000    5.333 
#    0.000    0.833    0.000    3.000    0.000    0.000 
#    0.000    0.000    0.000    0.000    0.000    0.000 
#
# Total GULP energy -595304.536689 kJ/mol
# GULP energy per Si atom -12402.177848 kJ/mol
# Density = 1.802751 g / cm^3
# Si number density = 18.068639 Si / 1000 Ang^3
#
#
#
# Elastic Constant Matrix: (Units=GPa)
#
#
# Indices 1 2 3 4 5 6 
#
# 1 69.4815 36.7797 56.9391 0.0000 0.0000 0.0000
# 2 36.7797 60.9088 27.9886 0.0000 0.0000 0.0000
# 3 56.9391 27.9886 121.0465 0.0000 0.0000 0.0000
# 4 0.0000 0.0000 0.0000 29.6323 0.0000 0.0000
# 5 0.0000 0.0000 0.0000 0.0000 34.4029 0.0000
# 6 0.0000 0.0000 0.0000 0.0000 0.0000 30.2342
#
#
#
# Elastic Compliance Matrix: (Units=1/GPa)
#
#
# Indices 1 2 3 4 5 6 
#
# 1 0.030812 -0.013366 -0.011403 0.000000 0.000000 0.000000
# 2 -0.013366 0.024168 0.000699 0.000000 0.000000 0.000000
# 3 -0.011403 0.000699 0.013464 0.000000 0.000000 0.000000
# 4 0.000000 0.000000 0.000000 0.033747 0.000000 0.000000
# 5 0.000000 0.000000 0.000000 0.000000 0.029067 0.000000
# 6 0.000000 0.000000 0.000000 0.000000 0.000000 0.033075
#
#
# Mechanical properties :
#
#
# Convention : Reuss Voigt Hill
#
# Bulk Modulus (GPa) = 49.25287 54.98351 52.11819
# Shear Modulus (GPa) = 22.80589 27.50251 25.15420
#
# Velocity S-wave (km/s) = 3.55657 3.90566 3.73520
# Velocity P-wave (km/s) = 6.64707 7.12989 6.89271
#
# Compressibility (1/GPa) = 0.02030339
#
# Stress axis : x y z
#
# Youngs Moduli (GPa) = 32.45443 41.37737 74.27406
#
# Poissons Ratio (x) = 0.55305 0.84697
# Poissons Ratio (y) = 0.43379 -0.05193
# Poissons Ratio (z) = 0.37009 -0.02893
#
# Static dielectric constant tensor:
#      x y z
#    x 3.311010 0.000000 0.000000 
#    y 0.000000 3.562710 0.000000 
#    z 0.000000 0.000000 3.567020 
# 
# 
# High freq. dielectric constant tensor:
#      x y z
#    x 1.696830 0.000000 0.000000 
#    y 0.000000 1.680470 0.000000 
#    z 0.000000 0.000000 1.715770 
# 
# From -- ./inp_files/66900.got.cif
#   From: 2010.03.12/outbox.cif.g09.slc.cpg/sg63_34_cif.got.tgz:66900.got - 2010.04.10 19:34:48.
