data_PCOD8258511
_publ_section_title
;
Structure prediction by ZEFSAII (Michael W. Deem and Ramdas Pophale) SiO2 
 PCOD8258511
Probable space group: C M C M
;
_chemical_formula_sum "Si O2"
_cell_formula_units_Z 112
_cell_length_a 26.435190
_cell_length_b 16.224858
_cell_length_c 13.773515
_cell_angle_alpha 90.000000
_cell_angle_beta 90.000000
_cell_angle_gamma 90.000000
_cell_volume 5907.559807
_symmetry_space_group_name_H-M "C M C M"
_symmetry_group_IT_number 63
_symmetry_cell_setting 'orthorhombic'
loop_
_space_group_symop_operation_xyz
x,y,z
-x,-y,1/2+z
x,-y,-z
-x,y,1/2-z
-x,-y,-z
x,y,1/2-z
-x,y,z
x,-y,1/2+z
1/2+x,1/2+y,z
1/2-x,1/2-y,1/2+z
1/2+x,1/2-y,-z
1/2-x,1/2+y,1/2-z
1/2-x,1/2-y,-z
1/2+x,1/2+y,1/2-z
1/2-x,1/2+y,z
1/2+x,1/2-y,1/2+z
loop_
_atom_site_type_symbol
_atom_site_label
_atom_site_fract_x
_atom_site_fract_y
_atom_site_fract_z
Si Si1 0.302633 0.395388 0.360451
Si Si2 0.385140 0.937165 0.363186
Si Si3 0.848592 0.805659 0.974722
Si Si4 0.723430 0.416331 0.860379
Si Si5 0.942125 0.293779 0.041842
Si Si6 0.557450 0.100824 0.359040
Si Si7 0.205884 0.365580 0.027370
O O1 0.313725 0.370779 0.250000
O O2 0.347981 0.361371 0.427896
O O3 0.298693 0.492852 0.375377
O O4 0.251058 0.351753 0.395947
O O5 0.371370 0.932975 0.250000
O O6 0.426399 0.866524 0.385097
O O7 0.334530 0.926945 0.425354
O O8 0.407453 0.025595 0.392302
O O9 0.906379 0.786177 0.943660
O O10 0.821181 0.852752 0.886691
O O11 0.819377 0.721090 0.996840
O O12 0.740762 0.401640 0.750000
O O13 0.772490 0.404877 0.928170
O O14 0.933796 0.323120 0.930844
O O15 0.000000 0.268449 0.062519
O O16 0.570600 0.130339 0.250000
O O17 0.500000 0.068791 0.365420
#
# Coordination Sequence:
#
# PCOD8258511 Si02
#       7
#    16  16  16  16  16  16  16
#     4  10  20  35  55  76 100 134 173 210 252 306
#     4  10  20  33  50  74 107 146 182 213 247 293
#     4  10  21  34  53  77 104 136 168 209 259 309
#     4  10  21  37  57  77 102 137 173 212 256 306
#     4  10  21  35  52  77 105 135 174 220 266 309
#     4   9  18  33  52  73 102 143 184 217 251 295
#     4  10  20  33  51  79 111 138 167 207 252 301
#
# _framework density 18.958758
#
# number of rings (size 3 to 8) (size 9 to 14) (size 15 to 20)
#    0.000    2.143    0.000    4.714    0.000   11.714 
#    0.000    5.000    0.000    1.714    0.000    2.000 
#    0.000    0.000    0.000    0.000    0.000    0.000 
#
# Total GULP energy -694467.476607 kJ/mol
# GULP energy per Si atom -12401.204939 kJ/mol
# Density = 1.891561 g / cm^3
# Si number density = 18.958758 Si / 1000 Ang^3
#
#
#
# Elastic Constant Matrix: (Units=GPa)
#
#
# Indices 1 2 3 4 5 6 
#
# 1 109.8527 29.4038 26.7061 0.0000 0.0000 0.0000
# 2 29.4038 51.3469 23.6570 0.0000 0.0000 0.0000
# 3 26.7061 23.6570 96.9067 0.0000 0.0000 0.0000
# 4 0.0000 0.0000 0.0000 23.1569 0.0000 0.0000
# 5 0.0000 0.0000 0.0000 0.0000 19.3560 0.0000
# 6 0.0000 0.0000 0.0000 0.0000 0.0000 24.9228
#
#
#
# Elastic Compliance Matrix: (Units=1/GPa)
#
#
# Indices 1 2 3 4 5 6 
#
# 1 0.010989 -0.005518 -0.001681 0.000000 0.000000 0.000000
# 2 -0.005518 0.024714 -0.004513 0.000000 0.000000 0.000000
# 3 -0.001681 -0.004513 0.011884 0.000000 0.000000 0.000000
# 4 0.000000 0.000000 0.000000 0.043184 0.000000 0.000000
# 5 0.000000 0.000000 0.000000 0.000000 0.051663 0.000000
# 6 0.000000 0.000000 0.000000 0.000000 0.000000 0.040124
#
#
# Mechanical properties :
#
#
# Convention : Reuss Voigt Hill
#
# Bulk Modulus (GPa) = 41.38491 46.40445 43.89468
# Shear Modulus (GPa) = 23.36043 25.37642 24.36843
#
# Velocity S-wave (km/s) = 3.51404 3.66253 3.58905
# Velocity P-wave (km/s) = 6.19200 6.51269 6.35437
#
# Compressibility (1/GPa) = 0.02416340
#
# Stress axis : x y z
#
# Youngs Moduli (GPa) = 91.00129 40.46215 84.14557
#
# Poissons Ratio (x) = 0.22328 0.14147
# Poissons Ratio (y) = 0.50216 0.37972
# Poissons Ratio (z) = 0.15300 0.18259
#
# Static dielectric constant tensor:
#      x y z
#    x 3.506230 0.000000 0.000000 
#    y 0.000000 3.406270 0.000000 
#    z 0.000000 0.000000 3.627000 
# 
# 
# High freq. dielectric constant tensor:
#      x y z
#    x 1.721430 0.000000 0.000000 
#    y 0.000000 1.721110 0.000000 
#    z 0.000000 0.000000 1.747850 
# 
# From -- ./inp_files/37922.got.cif
#   From: 2010.03.12/outbox.cif.g09.slc.cpg/sg63_19_cif.got.tgz:37922.got - 2010.04.10 19:34:48.
