data_PCOD8258393
_publ_section_title
;
Structure prediction by ZEFSAII (Michael W. Deem and Ramdas Pophale) SiO2 
 PCOD8258393
Probable space group: C M C M
;
_chemical_formula_sum "Si O2"
_cell_formula_units_Z 88
_cell_length_a 11.508329
_cell_length_b 15.033488
_cell_length_c 27.282911
_cell_angle_alpha 90.000000
_cell_angle_beta 90.000000
_cell_angle_gamma 90.000000
_cell_volume 4720.225324
_symmetry_space_group_name_H-M "C M C M"
_symmetry_group_IT_number 63
_symmetry_cell_setting 'orthorhombic'
loop_
_space_group_symop_operation_xyz
x,y,z
-x,-y,1/2+z
x,-y,-z
-x,y,1/2-z
-x,-y,-z
x,y,1/2-z
-x,y,z
x,-y,1/2+z
1/2+x,1/2+y,z
1/2-x,1/2-y,1/2+z
1/2+x,1/2-y,-z
1/2-x,1/2+y,1/2-z
1/2-x,1/2-y,-z
1/2+x,1/2+y,1/2-z
1/2-x,1/2+y,z
1/2+x,1/2-y,1/2+z
loop_
_atom_site_type_symbol
_atom_site_label
_atom_site_fract_x
_atom_site_fract_y
_atom_site_fract_z
Si Si1 0.000000 0.936736 0.306705
Si Si2 0.275261 0.177910 0.399474
Si Si3 0.303699 0.496918 0.369034
Si Si4 0.132640 0.398926 0.505979
Si Si5 0.500000 0.463947 0.055655
Si Si6 0.631778 0.156434 0.603468
Si Si7 0.000000 0.208740 0.611573
O O1 0.116468 0.991471 0.320497
O O2 0.000000 0.912156 0.250000
O O3 0.000000 0.848859 0.339385
O O4 0.281622 0.150632 0.456658
O O5 0.167067 0.241575 0.386226
O O6 0.389632 0.229876 0.385414
O O7 0.267107 0.088839 0.366850
O O8 0.384320 0.499538 0.417644
O O9 0.214810 0.414118 0.369650
O O10 0.174379 0.500000 0.500000
O O11 0.143518 0.351297 0.454540
O O12 0.000000 0.396067 0.526250
O O13 0.500000 0.355555 0.062924
O O14 0.500000 0.500000 0.000000
O O15 0.500000 0.140110 0.621417
#
# Coordination Sequence:
#
# PCOD8258393 Si02
#       7
#     8  16  16  16   8  16   8
#     4  10  22  50  74  88 114 151 198 261 328 385
#     4  12  21  37  59  84 129 158 214 259 286 357
#     4  10  23  39  61  92 119 160 205 248 315 366
#     4  10  20  32  50  80 119 179 216 237 279 331
#     4  10  22  38  56  80 126 171 217 257 289 348
#     4  11  23  36  54  87 127 169 212 241 300 349
#     4  10  22  40  63  96 112 165 217 255 302 357
#
# _framework density 18.643177000000001
#
# number of rings (size 3 to 8) (size 9 to 14) (size 15 to 20)
#    0.000    1.636    6.364    0.545    6.364    1.455 
#    0.000    0.909    0.000    0.545    0.000    0.000 
#    0.000    0.000    0.000    0.000    0.000    0.000 
#
# Total GULP energy -545457.807334 kJ/mol
# GULP energy per Si atom -12396.768349 kJ/mol
# Density = 1.860074 g / cm^3
# Si number density = 18.643177 Si / 1000 Ang^3
#
#
#
# Elastic Constant Matrix: (Units=GPa)
#
#
# Indices 1 2 3 4 5 6 
#
# 1 99.7480 44.1550 25.3231 0.0000 0.0000 0.0000
# 2 44.1550 133.7068 23.9682 0.0000 0.0000 0.0000
# 3 25.3231 23.9682 76.4283 0.0000 0.0000 0.0000
# 4 0.0000 0.0000 0.0000 10.8664 0.0000 0.0000
# 5 0.0000 0.0000 0.0000 0.0000 15.6328 0.0000
# 6 0.0000 0.0000 0.0000 0.0000 0.0000 41.1658
#
#
#
# Elastic Compliance Matrix: (Units=1/GPa)
#
#
# Indices 1 2 3 4 5 6 
#
# 1 0.012351 -0.003544 -0.002981 0.000000 0.000000 0.000000
# 2 -0.003544 0.008942 -0.001630 0.000000 0.000000 0.000000
# 3 -0.002981 -0.001630 0.014583 0.000000 0.000000 0.000000
# 4 0.000000 0.000000 0.000000 0.092027 0.000000 0.000000
# 5 0.000000 0.000000 0.000000 0.000000 0.063968 0.000000
# 6 0.000000 0.000000 0.000000 0.000000 0.000000 0.024292
#
#
# Mechanical properties :
#
#
# Convention : Reuss Voigt Hill
#
# Bulk Modulus (GPa) = 51.10983 55.19730 53.15356
# Shear Modulus (GPa) = 20.92102 27.96213 24.44157
#
# Velocity S-wave (km/s) = 3.35353 3.87700 3.62473
# Velocity P-wave (km/s) = 6.51684 7.05075 6.78904
#
# Compressibility (1/GPa) = 0.01956571
#
# Stress axis : x y z
#
# Youngs Moduli (GPa) = 80.96520 111.83546 68.57358
#
# Poissons Ratio (x) = 0.39639 0.20440
# Poissons Ratio (y) = 0.28698 0.11176
# Poissons Ratio (z) = 0.24134 0.18227
#
# Static dielectric constant tensor:
#      x y z
#    x 3.585180 0.000000 0.000000 
#    y 0.000000 3.633180 0.000000 
#    z 0.000000 0.000000 2.930390 
# 
# 
# High freq. dielectric constant tensor:
#      x y z
#    x 1.739380 0.000000 0.000000 
#    y 0.000000 1.737940 0.000000 
#    z 0.000000 0.000000 1.657200 
# 
# From -- ./inp_files/68235.got.cif
#   From: 2010.03.12/outbox.cif.g09.slc.cpg/sg63_35_cif.got.tgz:68235.got - 2010.04.10 19:34:48.
