data_PCOD8258749
_publ_section_title
;
Structure prediction by ZEFSAII (Michael W. Deem and Ramdas Pophale) SiO2 
 PCOD8258749
Probable space group: C M C M
;
_chemical_formula_sum "Si O2"
_cell_formula_units_Z 64
_cell_length_a 8.677660
_cell_length_b 20.487139
_cell_length_c 20.048595
_cell_angle_alpha 90.000000
_cell_angle_beta 90.000000
_cell_angle_gamma 90.000000
_cell_volume 3564.247772
_symmetry_space_group_name_H-M "C M C M"
_symmetry_group_IT_number 63
_symmetry_cell_setting 'orthorhombic'
loop_
_space_group_symop_operation_xyz
x,y,z
-x,-y,1/2+z
x,-y,-z
-x,y,1/2-z
-x,-y,-z
x,y,1/2-z
-x,y,z
x,-y,1/2+z
1/2+x,1/2+y,z
1/2-x,1/2-y,1/2+z
1/2+x,1/2-y,-z
1/2-x,1/2+y,1/2-z
1/2-x,1/2-y,-z
1/2+x,1/2+y,1/2-z
1/2-x,1/2+y,z
1/2+x,1/2-y,1/2+z
loop_
_atom_site_type_symbol
_atom_site_label
_atom_site_fract_x
_atom_site_fract_y
_atom_site_fract_z
Si Si1 0.317399 0.729377 0.929254
Si Si2 0.682581 0.585775 0.944104
Si Si3 0.183013 0.947924 0.589997
Si Si4 0.316983 0.670656 0.174432
O O1 0.500000 0.735490 0.933147
O O2 0.263645 0.654778 0.913600
O O3 0.254357 0.772057 0.869146
O O4 0.250000 0.750000 0.000000
O O5 0.500000 0.583629 0.947510
O O6 0.741005 0.523214 0.900418
O O7 0.746251 0.579297 0.019554
O O8 0.243171 0.899931 0.648142
O O9 0.000000 0.946901 0.589823
O O10 0.259262 0.678734 0.250000
O O11 0.500000 0.675343 0.169135
#
# Coordination Sequence:
#
# PCOD8258749 Si02
#       4
#    16  16  16  16
#     4  11  20  32  52  78 106 135 169 212 257 306
#     4   8  14  25  47  74  98 122 159 212 255 286
#     4   8  13  26  47  72  97 123 161 209 253 291
#     4  10  20  34  52  74 102 136 172 209 256 313
#
# _framework density 17.956104
#
# number of rings (size 3 to 8) (size 9 to 14) (size 15 to 20)
#    0.000    2.750    2.500    2.250    0.000    0.500 
#    0.000    1.250    0.000    9.000    0.000    0.000 
#    0.000    0.000    0.000    0.000    0.000    0.000 
#
# Total GULP energy -396457.428587 kJ/mol
# GULP energy per Si atom -12389.294643 kJ/mol
# Density = 1.791524 g / cm^3
# Si number density = 17.956104 Si / 1000 Ang^3
#
#
#
# Elastic Constant Matrix: (Units=GPa)
#
#
# Indices 1 2 3 4 5 6 
#
# 1 23.1184 28.1166 27.2708 0.0000 0.0000 0.0000
# 2 28.1166 206.4111 101.6563 0.0000 0.0000 0.0000
# 3 27.2708 101.6563 132.8604 0.0000 0.0000 0.0000
# 4 0.0000 0.0000 0.0000 30.2755 0.0000 0.0000
# 5 0.0000 0.0000 0.0000 0.0000 19.9658 0.0000
# 6 0.0000 0.0000 0.0000 0.0000 0.0000 22.1315
#
#
#
# Elastic Compliance Matrix: (Units=1/GPa)
#
#
# Indices 1 2 3 4 5 6 
#
# 1 0.058438 -0.003294 -0.009474 0.000000 0.000000 0.000000
# 2 -0.003294 0.007960 -0.005414 0.000000 0.000000 0.000000
# 3 -0.009474 -0.005414 0.013614 0.000000 0.000000 0.000000
# 4 0.000000 0.000000 0.000000 0.033030 0.000000 0.000000
# 5 0.000000 0.000000 0.000000 0.000000 0.050086 0.000000
# 6 0.000000 0.000000 0.000000 0.000000 0.000000 0.045184
#
#
# Mechanical properties :
#
#
# Convention : Reuss Voigt Hill
#
# Bulk Modulus (GPa) = 22.91142 75.16415 49.03779
# Shear Modulus (GPa) = 19.28814 28.16431 23.72623
#
# Velocity S-wave (km/s) = 3.28103 3.96474 3.63898
# Velocity P-wave (km/s) = 5.20969 7.93156 6.71009
#
# Compressibility (1/GPa) = 0.04364635
#
# Stress axis : x y z
#
# Youngs Moduli (GPa) = 17.11212 125.62950 73.45337
#
# Poissons Ratio (x) = 0.41384 0.69593
# Poissons Ratio (y) = 0.05637 0.39770
# Poissons Ratio (z) = 0.16213 0.68019
#
# Static dielectric constant tensor:
#      x y z
#    x 2.890550 0.000000 0.000000 
#    y 0.000000 4.073600 0.000000 
#    z 0.000000 0.000000 3.347940 
# 
# 
# High freq. dielectric constant tensor:
#      x y z
#    x 1.648340 0.000000 0.000000 
#    y 0.000000 1.721650 0.000000 
#    z 0.000000 0.000000 1.666450 
# 
# From -- ./inp_files/39804.got.cif
#   From: 2010.03.12/outbox.cif.g09.slc.cpg/sg63_20_cif.got.tgz:39804.got - 2010.04.10 19:34:48.
