data_PCOD8258116
_publ_section_title
;
Structure prediction by ZEFSAII (Michael W. Deem and Ramdas Pophale) SiO2 
 PCOD8258116
Probable space group: C M C M
;
_chemical_formula_sum "Si O2"
_cell_formula_units_Z 112
_cell_length_a 17.818201
_cell_length_b 19.243814
_cell_length_c 17.412236
_cell_angle_alpha 90.000000
_cell_angle_beta 90.000000
_cell_angle_gamma 90.000000
_cell_volume 5970.484142
_symmetry_space_group_name_H-M "C M C M"
_symmetry_group_IT_number 63
_symmetry_cell_setting 'orthorhombic'
loop_
_space_group_symop_operation_xyz
x,y,z
-x,-y,1/2+z
x,-y,-z
-x,y,1/2-z
-x,-y,-z
x,y,1/2-z
-x,y,z
x,-y,1/2+z
1/2+x,1/2+y,z
1/2-x,1/2-y,1/2+z
1/2+x,1/2-y,-z
1/2-x,1/2+y,1/2-z
1/2-x,1/2-y,-z
1/2+x,1/2+y,1/2-z
1/2-x,1/2+y,z
1/2+x,1/2-y,1/2+z
loop_
_atom_site_type_symbol
_atom_site_label
_atom_site_fract_x
_atom_site_fract_y
_atom_site_fract_z
Si Si1 0.327287 0.661316 0.531387
Si Si2 0.588411 0.569307 0.840162
Si Si3 0.415590 0.068750 0.050136
Si Si4 0.175109 0.497301 0.663973
Si Si5 0.415916 0.864640 0.334787
Si Si6 0.675051 0.461066 0.922607
Si Si7 0.156864 0.305713 0.029836
O O1 0.366444 0.622975 0.604156
O O2 0.330661 0.619412 0.449205
O O3 0.243001 0.683062 0.553922
O O4 0.365785 0.735233 0.514317
O O5 0.607166 0.584007 0.750000
O O6 0.500000 0.577418 0.855446
O O7 0.613833 0.489785 0.860767
O O8 0.500000 0.095035 0.045581
O O9 0.393272 0.052197 0.137962
O O10 0.362501 0.129495 0.022794
O O11 0.401239 0.000000 0.000000
O O12 0.199321 0.478360 0.750000
O O13 0.146211 0.575642 0.657009
O O14 0.243639 0.483354 0.607271
O O15 0.414219 0.832324 0.250000
O O16 0.500000 0.893618 0.353453
O O17 0.393891 0.804347 0.393489
O O18 0.657134 0.500000 0.000000
#
# Coordination Sequence:
#
# PCOD8258116 Si02
#       7
#    16  16  16  16  16  16  16
#     4  10  23  38  61  83 115 151 197 239 283 347
#     4  10  22  40  62  89 116 147 191 244 303 356
#     4  11  21  34  56  84 114 150 190 237 284 335
#     4  11  20  32  54  83 116 151 189 233 286 337
#     4  10  20  33  52  82 116 148 187 235 284 338
#     4  10  19  36  60  86 111 143 189 243 288 341
#     4  11  21  38  57  83 115 157 196 237 281 345
#
# _framework density 18.758948
#
# number of rings (size 3 to 8) (size 9 to 14) (size 15 to 20)
#    0.000    1.571    2.857    3.429    0.000    6.286 
#    0.000    2.143    0.000    1.714    0.000    0.000 
#    0.000    0.000    0.000    0.000    0.000    0.000 
#
# Total GULP energy -693840.669765 kJ/mol
# GULP energy per Si atom -12390.011960 kJ/mol
# Density = 1.871625 g / cm^3
# Si number density = 18.758948 Si / 1000 Ang^3
#
#
#
# Elastic Constant Matrix: (Units=GPa)
#
#
# Indices 1 2 3 4 5 6 
#
# 1 76.8106 33.7711 40.4738 0.0000 0.0000 0.0000
# 2 33.7711 84.6365 36.9784 0.0000 0.0000 0.0000
# 3 40.4738 36.9784 94.5915 0.0000 0.0000 0.0000
# 4 0.0000 0.0000 0.0000 22.4444 0.0000 0.0000
# 5 0.0000 0.0000 0.0000 0.0000 32.6909 0.0000
# 6 0.0000 0.0000 0.0000 0.0000 0.0000 17.3212
#
#
#
# Elastic Compliance Matrix: (Units=1/GPa)
#
#
# Indices 1 2 3 4 5 6 
#
# 1 0.018214 -0.004658 -0.005972 0.000000 0.000000 0.000000
# 2 -0.004658 0.015440 -0.004043 0.000000 0.000000 0.000000
# 3 -0.005972 -0.004043 0.014708 0.000000 0.000000 0.000000
# 4 0.000000 0.000000 0.000000 0.044554 0.000000 0.000000
# 5 0.000000 0.000000 0.000000 0.000000 0.030590 0.000000
# 6 0.000000 0.000000 0.000000 0.000000 0.000000 0.057733
#
#
# Mechanical properties :
#
#
# Convention : Reuss Voigt Hill
#
# Bulk Modulus (GPa) = 52.58988 53.16502 52.87745
# Shear Modulus (GPa) = 23.04949 24.14565 23.59757
#
# Velocity S-wave (km/s) = 3.50911 3.59158 3.55059
# Velocity P-wave (km/s) = 6.67187 6.75292 6.71252
#
# Compressibility (1/GPa) = 0.01901507
#
# Stress axis : x y z
#
# Youngs Moduli (GPa) = 54.90223 64.76554 67.99147
#
# Poissons Ratio (x) = 0.30170 0.40607
# Poissons Ratio (y) = 0.25575 0.27488
# Poissons Ratio (z) = 0.32790 0.26184
#
# Static dielectric constant tensor:
#      x y z
#    x 3.540720 0.000000 0.000000 
#    y 0.000000 3.543030 0.000000 
#    z 0.000000 0.000000 3.777850 
# 
# 
# High freq. dielectric constant tensor:
#      x y z
#    x 1.736930 0.000000 0.000000 
#    y 0.000000 1.703330 0.000000 
#    z 0.000000 0.000000 1.732180 
# 
# From -- ./inp_files/46059.got.cif
#   From: 2010.03.12/outbox.cif.g09.slc.cpg/sg63_24_cif.got.tgz:46059.got - 2010.04.10 19:34:48.
