data_PCOD8258499
_publ_section_title
;
Structure prediction by ZEFSAII (Michael W. Deem and Ramdas Pophale) SiO2 
 PCOD8258499
Probable space group: C M C M
;
_chemical_formula_sum "Si O2"
_cell_formula_units_Z 96
_cell_length_a 8.883557
_cell_length_b 25.318862
_cell_length_c 24.450061
_cell_angle_alpha 90.000000
_cell_angle_beta 90.000000
_cell_angle_gamma 90.000000
_cell_volume 5499.345709
_symmetry_space_group_name_H-M "C M C M"
_symmetry_group_IT_number 63
_symmetry_cell_setting 'orthorhombic'
loop_
_space_group_symop_operation_xyz
x,y,z
-x,-y,1/2+z
x,-y,-z
-x,y,1/2-z
-x,-y,-z
x,y,1/2-z
-x,y,z
x,-y,1/2+z
1/2+x,1/2+y,z
1/2-x,1/2-y,1/2+z
1/2+x,1/2-y,-z
1/2-x,1/2+y,1/2-z
1/2-x,1/2-y,-z
1/2+x,1/2+y,1/2-z
1/2-x,1/2+y,z
1/2+x,1/2-y,1/2+z
loop_
_atom_site_type_symbol
_atom_site_label
_atom_site_fract_x
_atom_site_fract_y
_atom_site_fract_z
Si Si1 0.672698 0.859309 0.685210
Si Si2 0.169846 0.246874 0.184978
Si Si3 0.678445 0.940907 0.385396
Si Si4 0.665977 0.937511 0.505057
Si Si5 0.822969 0.945500 0.613075
Si Si6 0.172671 0.147076 0.814781
O O1 0.688064 0.863581 0.750000
O O2 0.500000 0.863179 0.666352
O O3 0.739601 0.803965 0.663564
O O4 0.768384 0.906528 0.660105
O O5 0.168966 0.247373 0.250000
O O6 0.251990 0.299248 0.162923
O O7 0.000000 0.245241 0.161864
O O8 0.500000 0.946316 0.379773
O O9 0.721774 0.917295 0.445480
O O10 0.741351 0.902567 0.339469
O O11 0.747939 0.998302 0.375951
O O12 0.500000 0.914697 0.518935
O O13 0.778909 0.921448 0.553583
O O14 0.655839 0.000000 0.500000
O O15 0.000000 0.952159 0.616157
O O16 0.187865 0.142903 0.750000
O O17 0.000000 0.146575 0.833567
#
# Coordination Sequence:
#
# PCOD8258499 Si02
#       6
#    16  16  16  16  16  16
#     4  10  20  34  52  73  99 132 167 203 244 290
#     4   9  17  31  51  73  97 127 165 205 242 286
#     4  10  20  34  52  73  99 132 167 204 246 291
#     4   8  16  32  51  70  94 126 165 204 241 287
#     4  11  21  32  50  75 102 131 163 202 247 295
#     4  10  20  33  50  74 103 133 165 202 244 291
#
# _framework density 17.456623
#
# number of rings (size 3 to 8) (size 9 to 14) (size 15 to 20)
#    0.000    2.333    0.000    4.500    0.000    8.333 
#    0.000    0.000    0.000    1.000    0.000    0.000 
#    0.000    0.000    0.000    0.000    0.000    0.000 
#
# Total GULP energy -595148.010842 kJ/mol
# GULP energy per Si atom -12398.916893 kJ/mol
# Density = 1.741689 g / cm^3
# Si number density = 17.456623 Si / 1000 Ang^3
#
#
#
# Elastic Constant Matrix: (Units=GPa)
#
#
# Indices 1 2 3 4 5 6 
#
# 1 126.4202 53.5251 36.9846 0.0000 0.0000 0.0000
# 2 53.5251 102.0571 35.3109 0.0000 0.0000 0.0000
# 3 36.9846 35.3109 41.2899 0.0000 0.0000 0.0000
# 4 0.0000 0.0000 0.0000 -0.3170 0.0000 0.0000
# 5 0.0000 0.0000 0.0000 0.0000 24.4700 0.0000
# 6 0.0000 0.0000 0.0000 0.0000 0.0000 33.1298
#
#
#
# Elastic Compliance Matrix: (Units=1/GPa)
#
#
# Indices 1 2 3 4 5 6 
#
# 1 0.011545 -0.003518 -0.007333 0.000000 0.000000 0.000000
# 2 -0.003518 0.014988 -0.009667 0.000000 0.000000 0.000000
# 3 -0.007333 -0.009667 0.039054 0.000000 0.000000 0.000000
# 4 0.000000 0.000000 0.000000 -3.154680 0.000000 0.000000
# 5 0.000000 0.000000 0.000000 0.000000 0.040866 0.000000
# 6 0.000000 0.000000 0.000000 0.000000 0.000000 0.030184
#
#
# Mechanical properties :
#
#
# Convention : Reuss Voigt Hill
#
# Bulk Modulus (GPa) = 40.72892 57.93425 49.33159
# Shear Modulus (GPa) = -1.68417 21.05300 9.68442
#
# Velocity S-wave (km/s) = -0.98329 3.47654 2.35791
# Velocity P-wave (km/s) = 4.70032 7.02672 5.97778
#
# Compressibility (1/GPa) = 0.02455258
#
# Stress axis : x y z
#
# Youngs Moduli (GPa) = 86.62014 66.72022 25.60560
#
# Poissons Ratio (x) = 0.23470 0.18775
# Poissons Ratio (y) = 0.30471 0.24752
# Poissons Ratio (z) = 0.63515 0.64497
#
# Static dielectric constant tensor:
#      x y z
#    x 3.427510 0.000000 0.000000 
#    y 0.000000 3.170540 0.000000 
#    z 0.000000 0.000000 3.335180 
# 
# 
# High freq. dielectric constant tensor:
#      x y z
#    x 1.691030 0.000000 0.000000 
#    y 0.000000 1.660560 0.000000 
#    z 0.000000 0.000000 1.653960 
# 
# From -- ./inp_files/59897.got.cif
#   From: 2010.03.12/outbox.cif.g09.slc.cpg/sg63_30_cif.got.tgz:59897.got - 2010.04.10 19:34:48.
