data_PCOD8258196
_publ_section_title
;
Structure prediction by ZEFSAII (Michael W. Deem and Ramdas Pophale) SiO2 
 PCOD8258196
Probable space group: C M C M
;
_chemical_formula_sum "Si O2"
_cell_formula_units_Z 104
_cell_length_a 24.386266
_cell_length_b 33.047324
_cell_length_c 9.112150
_cell_angle_alpha 90.000000
_cell_angle_beta 90.000000
_cell_angle_gamma 90.000000
_cell_volume 7343.489281
_symmetry_space_group_name_H-M "C M C M"
_symmetry_group_IT_number 63
_symmetry_cell_setting 'orthorhombic'
loop_
_space_group_symop_operation_xyz
x,y,z
-x,-y,1/2+z
x,-y,-z
-x,y,1/2-z
-x,-y,-z
x,y,1/2-z
-x,y,z
x,-y,1/2+z
1/2+x,1/2+y,z
1/2-x,1/2-y,1/2+z
1/2+x,1/2-y,-z
1/2-x,1/2+y,1/2-z
1/2-x,1/2-y,-z
1/2+x,1/2+y,1/2-z
1/2-x,1/2+y,z
1/2+x,1/2-y,1/2+z
loop_
_atom_site_type_symbol
_atom_site_label
_atom_site_fract_x
_atom_site_fract_y
_atom_site_fract_z
Si Si1 0.825351 0.271376 0.081091
Si Si2 0.938140 0.838408 0.417882
Si Si3 0.767103 0.189220 0.078271
Si Si4 0.940016 0.756125 0.582926
Si Si5 0.500000 0.459100 0.084217
Si Si6 0.156152 0.882471 0.576598
Si Si7 0.119998 0.043168 0.921876
O O1 0.811371 0.278242 0.250000
O O2 0.806092 0.226528 0.030219
O O3 0.890632 0.275268 0.048850
O O4 0.792828 0.306055 0.993771
O O5 0.916694 0.841774 0.250000
O O6 0.937106 0.791965 0.466772
O O7 0.901128 0.863319 0.528696
O O8 0.000000 0.855767 0.427578
O O9 0.758399 0.188782 0.250000
O O10 0.794644 0.147244 0.026496
O O11 0.931753 0.772849 0.750000
O O12 0.000000 0.734712 0.569466
O O13 0.500000 0.473299 0.250000
O O14 0.558452 0.437106 0.052519
O O15 0.500000 0.500000 0.000000
O O16 0.155906 0.889267 0.750000
O O17 0.162936 0.925666 0.495310
O O18 0.133243 0.038338 0.750000
O O19 0.125892 0.000000 0.000000
#
# Coordination Sequence:
#
# PCOD8258196 Si02
#       7
#    16  16  16  16   8  16  16
#     4   9  16  28  43  60  81 106 136 167 204 244
#     4  10  20  30  40  57  80 104 133 170 210 250
#     4   9  18  30  42  59  80 105 137 170 204 242
#     4   9  16  28  44  60  81 107 135 168 206 249
#     4   8  16  30  46  60  78  98 124 160 198 248
#     4  11  21  33  46  61  80 103 136 171 209 252
#     4  10  20  34  48  63  81 103 131 165 207 251
#
# _framework density 14.162205
#
# number of rings (size 3 to 8) (size 9 to 14) (size 15 to 20)
#    0.000    2.462    1.538    1.385    1.077    3.385 
#    0.000    0.000    0.000    0.000    0.000    0.000 
#    0.000    0.000    0.000    0.000    0.000    0.769 
#
# Total GULP energy -644369.740942 kJ/mol
# GULP energy per Si atom -12391.725787 kJ/mol
# Density = 1.412997 g / cm^3
# Si number density = 14.162205 Si / 1000 Ang^3
#
#
#
# Elastic Constant Matrix: (Units=GPa)
#
#
# Indices 1 2 3 4 5 6 
#
# 1 82.8002 42.4987 29.6752 0.0000 0.0000 0.0000
# 2 42.4987 68.1799 33.5308 0.0000 0.0000 0.0000
# 3 29.6752 33.5308 51.5844 0.0000 0.0000 0.0000
# 4 0.0000 0.0000 0.0000 21.4296 0.0000 0.0000
# 5 0.0000 0.0000 0.0000 0.0000 19.7275 0.0000
# 6 0.0000 0.0000 0.0000 0.0000 0.0000 21.9138
#
#
#
# Elastic Compliance Matrix: (Units=1/GPa)
#
#
# Indices 1 2 3 4 5 6 
#
# 1 0.018479 -0.009246 -0.004620 0.000000 0.000000 0.000000
# 2 -0.009246 0.026186 -0.011702 0.000000 0.000000 0.000000
# 3 -0.004620 -0.011702 0.029650 0.000000 0.000000 0.000000
# 4 0.000000 0.000000 0.000000 0.046664 0.000000 0.000000
# 5 0.000000 0.000000 0.000000 0.000000 0.050691 0.000000
# 6 0.000000 0.000000 0.000000 0.000000 0.000000 0.045633
#
#
# Mechanical properties :
#
#
# Convention : Reuss Voigt Hill
#
# Bulk Modulus (GPa) = 43.14489 45.99709 44.57099
# Shear Modulus (GPa) = 18.10507 19.07151 18.58829
#
# Velocity S-wave (km/s) = 3.57936 3.67365 3.62681
# Velocity P-wave (km/s) = 6.90025 7.10940 7.00560
#
# Compressibility (1/GPa) = 0.02317771
#
# Stress axis : x y z
#
# Youngs Moduli (GPa) = 54.11568 38.18899 33.72670
#
# Poissons Ratio (x) = 0.35311 0.15582
# Poissons Ratio (y) = 0.50037 0.39467
# Poissons Ratio (z) = 0.25003 0.44689
#
# Static dielectric constant tensor:
#      x y z
#    x 3.114480 0.000000 0.000000 
#    y 0.000000 2.554120 0.000000 
#    z 0.000000 0.000000 2.825210 
# 
# 
# High freq. dielectric constant tensor:
#      x y z
#    x 1.518660 0.000000 0.000000 
#    y 0.000000 1.500380 0.000000 
#    z 0.000000 0.000000 1.552750 
# 
# From -- ./inp_files/13104.got.cif
#   From: 2010.03.12/outbox.cif.g09.slc.cpg/sg63_7_cif.got.tgz:13104.got - 2010.04.10 19:34:48.
