data_PCOD8258712
_publ_section_title
;
Structure prediction by ZEFSAII (Michael W. Deem and Ramdas Pophale) SiO2 
 PCOD8258712
Probable space group: C M C M
;
_chemical_formula_sum "Si O2"
_cell_formula_units_Z 104
_cell_length_a 32.017433
_cell_length_b 20.675964
_cell_length_c 8.585219
_cell_angle_alpha 90.000000
_cell_angle_beta 90.000000
_cell_angle_gamma 90.000000
_cell_volume 5683.340219
_symmetry_space_group_name_H-M "C M C M"
_symmetry_group_IT_number 63
_symmetry_cell_setting 'orthorhombic'
loop_
_space_group_symop_operation_xyz
x,y,z
-x,-y,1/2+z
x,-y,-z
-x,y,1/2-z
-x,-y,-z
x,y,1/2-z
-x,y,z
x,-y,1/2+z
1/2+x,1/2+y,z
1/2-x,1/2-y,1/2+z
1/2+x,1/2-y,-z
1/2-x,1/2+y,1/2-z
1/2-x,1/2-y,-z
1/2+x,1/2+y,1/2-z
1/2-x,1/2+y,z
1/2+x,1/2-y,1/2+z
loop_
_atom_site_type_symbol
_atom_site_label
_atom_site_fract_x
_atom_site_fract_y
_atom_site_fract_z
Si Si1 0.342065 0.179228 0.927545
Si Si2 0.285464 0.931398 0.933456
Si Si3 0.455002 0.297002 0.067859
Si Si4 0.437432 0.163548 0.572377
Si Si5 0.363484 0.684879 0.565039
Si Si6 0.305542 0.567592 0.934350
Si Si7 0.000000 0.569948 0.065592
O O1 0.326170 0.181981 0.750000
O O2 0.388406 0.151711 0.939821
O O3 0.313578 0.129807 0.022755
O O4 0.341035 0.251787 0.995785
O O5 0.283701 0.938547 0.750000
O O6 0.239547 0.916600 0.996985
O O7 0.302558 0.000000 0.000000
O O8 0.455476 0.309591 0.250000
O O9 0.500000 0.324518 0.000456
O O10 0.411298 0.325903 0.999616
O O11 0.453760 0.221190 0.034904
O O12 0.450978 0.177237 0.750000
O O13 0.458186 0.100257 0.504038
O O14 0.364373 0.693249 0.750000
O O15 0.337394 0.622985 0.511010
O O16 0.302040 0.563684 0.750000
O O17 0.323006 0.500000 0.000000
O O18 0.000000 0.572782 0.250000
O O19 0.000000 0.500000 0.000000
#
# Coordination Sequence:
#
# PCOD8258712 Si02
#       7
#    16  16  16  16  16  16   8
#     4  10  21  36  55  80 109 140 175 220 269 317
#     4  11  22  37  57  78 104 140 181 223 267 323
#     4   9  16  29  52  78 103 134 170 209 256 310
#     4  10  20  34  51  72 100 131 167 212 260 308
#     4   9  19  34  53  81 111 140 178 221 268 318
#     4  10  20  36  57  79 107 141 178 221 266 322
#     4  12  24  36  50  68  94 132 175 218 261 308
#
# _framework density 18.299097
#
# number of rings (size 3 to 8) (size 9 to 14) (size 15 to 20)
#    0.000    2.000    0.769    4.385    0.000    4.308 
#    0.000    0.000    0.000    0.462    0.000    0.000 
#    0.000    0.000    0.000    0.000    0.000    0.615 
#
# Total GULP energy -644490.284236 kJ/mol
# GULP energy per Si atom -12394.043928 kJ/mol
# Density = 1.825745 g / cm^3
# Si number density = 18.299097 Si / 1000 Ang^3
#
#
#
# Elastic Constant Matrix: (Units=GPa)
#
#
# Indices 1 2 3 4 5 6 
#
# 1 114.9890 78.2596 36.3561 0.0000 0.0000 0.0000
# 2 78.2596 121.3841 36.9471 0.0000 0.0000 0.0000
# 3 36.3561 36.9471 66.5610 0.0000 0.0000 0.0000
# 4 0.0000 0.0000 0.0000 25.8885 0.0000 0.0000
# 5 0.0000 0.0000 0.0000 0.0000 21.9945 0.0000
# 6 0.0000 0.0000 0.0000 0.0000 0.0000 30.6866
#
#
#
# Elastic Compliance Matrix: (Units=1/GPa)
#
#
# Indices 1 2 3 4 5 6 
#
# 1 0.016209 -0.009333 -0.003673 0.000000 0.000000 0.000000
# 2 -0.009333 0.015286 -0.003388 0.000000 0.000000 0.000000
# 3 -0.003673 -0.003388 0.018911 0.000000 0.000000 0.000000
# 4 0.000000 0.000000 0.000000 0.038627 0.000000 0.000000
# 5 0.000000 0.000000 0.000000 0.000000 0.045466 0.000000
# 6 0.000000 0.000000 0.000000 0.000000 0.000000 0.032588
#
#
# Mechanical properties :
#
#
# Convention : Reuss Voigt Hill
#
# Bulk Modulus (GPa) = 56.75608 67.33994 62.04801
# Shear Modulus (GPa) = 24.30158 25.80533 25.05345
#
# Velocity S-wave (km/s) = 3.64816 3.75933 3.70416
# Velocity P-wave (km/s) = 6.98774 7.46478 7.23019
#
# Compressibility (1/GPa) = 0.01761926
#
# Stress axis : x y z
#
# Youngs Moduli (GPa) = 61.69223 65.41736 52.88001
#
# Poissons Ratio (x) = 0.61051 0.19425
# Poissons Ratio (y) = 0.57575 0.17915
# Poissons Ratio (z) = 0.22662 0.22162
#
# Static dielectric constant tensor:
#      x y z
#    x 3.804180 0.000000 0.000000 
#    y 0.000000 3.272670 0.000000 
#    z 0.000000 0.000000 3.460870 
# 
# 
# High freq. dielectric constant tensor:
#      x y z
#    x 1.720300 0.000000 0.000000 
#    y 0.000000 1.689760 0.000000 
#    z 0.000000 0.000000 1.716120 
# 
# From -- ./inp_files/14471.got.cif
#   From: 2010.03.12/outbox.cif.g09.slc.cpg/sg63_8_cif.got.tgz:14471.got - 2010.04.10 19:34:48.
