data_PCOD8258079
_publ_section_title
;
Structure prediction by ZEFSAII (Michael W. Deem and Ramdas Pophale) SiO2 
 PCOD8258079
Probable space group: C M C M
;
_chemical_formula_sum "Si O2"
_cell_formula_units_Z 72
_cell_length_a 14.411982
_cell_length_b 17.110363
_cell_length_c 15.958460
_cell_angle_alpha 90.000000
_cell_angle_beta 90.000000
_cell_angle_gamma 90.000000
_cell_volume 3935.264372
_symmetry_space_group_name_H-M "C M C M"
_symmetry_group_IT_number 63
_symmetry_cell_setting 'orthorhombic'
loop_
_space_group_symop_operation_xyz
x,y,z
-x,-y,1/2+z
x,-y,-z
-x,y,1/2-z
-x,-y,-z
x,y,1/2-z
-x,y,z
x,-y,1/2+z
1/2+x,1/2+y,z
1/2-x,1/2-y,1/2+z
1/2+x,1/2-y,-z
1/2-x,1/2+y,1/2-z
1/2-x,1/2-y,-z
1/2+x,1/2+y,1/2-z
1/2-x,1/2+y,z
1/2+x,1/2-y,1/2+z
loop_
_atom_site_type_symbol
_atom_site_label
_atom_site_fract_x
_atom_site_fract_y
_atom_site_fract_z
Si Si1 0.000000 0.700821 0.039934
Si Si2 0.188048 0.562358 0.343200
Si Si3 0.500000 0.967562 0.593691
Si Si4 0.000000 0.857961 0.350011
Si Si5 0.675165 0.549278 0.581270
Si Si6 0.304085 0.829027 0.503061
O O1 0.000000 0.626435 0.100763
O O2 0.000000 0.777850 0.097724
O O3 0.910165 0.693743 0.979069
O O4 0.183810 0.595831 0.250000
O O5 0.096471 0.508148 0.362005
O O6 0.279642 0.509419 0.352128
O O7 0.195565 0.637079 0.403091
O O8 0.500000 0.000000 0.500000
O O9 0.910105 0.907447 0.375665
O O10 0.000000 0.841919 0.250000
O O11 0.641634 0.500000 0.500000
O O12 0.757722 0.609160 0.558771
O O13 0.250000 0.750000 0.500000
#
# Coordination Sequence:
#
# PCOD8258079 Si02
#       6
#     8  16   8   8  16  16
#     4  10  20  33  56  83 110 136 190 227 282 328
#     4  10  20  34  55  84 113 142 187 236 281 330
#     4  10  19  36  58  82 112 148 184 232 283 345
#     4  12  23  35  54  85 120 146 181 241 287 326
#     4  10  21  38  58  78 109 152 196 225 280 342
#     4  10  19  36  56  80 110 151 184 228 280 343
#
# _framework density 18.296102000000001
#
# number of rings (size 3 to 8) (size 9 to 14) (size 15 to 20)
#    0.000    1.778    2.222    4.667    0.000    3.556 
#    0.000    0.000    0.000    0.000    0.000    3.111 
#    0.000    0.000    0.000    0.000    0.000    0.000 
#
# Total GULP energy -446102.203906 kJ/mol
# GULP energy per Si atom -12391.727886 kJ/mol
# Density = 1.825446 g / cm^3
# Si number density = 18.296102 Si / 1000 Ang^3
#
#
#
# Elastic Constant Matrix: (Units=GPa)
#
#
# Indices 1 2 3 4 5 6 
#
# 1 145.8809 44.8971 42.4389 0.0000 0.0000 0.0000
# 2 44.8971 87.2068 25.2092 0.0000 0.0000 0.0000
# 3 42.4389 25.2092 86.2594 0.0000 0.0000 0.0000
# 4 0.0000 0.0000 0.0000 17.2677 0.0000 0.0000
# 5 0.0000 0.0000 0.0000 0.0000 18.0092 0.0000
# 6 0.0000 0.0000 0.0000 0.0000 0.0000 35.7181
#
#
#
# Elastic Compliance Matrix: (Units=1/GPa)
#
#
# Indices 1 2 3 4 5 6 
#
# 1 0.008946 -0.003641 -0.003337 0.000000 0.000000 0.000000
# 2 -0.003641 0.014007 -0.002302 0.000000 0.000000 0.000000
# 3 -0.003337 -0.002302 0.013908 0.000000 0.000000 0.000000
# 4 0.000000 0.000000 0.000000 0.057912 0.000000 0.000000
# 5 0.000000 0.000000 0.000000 0.000000 0.055527 0.000000
# 6 0.000000 0.000000 0.000000 0.000000 0.000000 0.027997
#
#
# Mechanical properties :
#
#
# Convention : Reuss Voigt Hill
#
# Bulk Modulus (GPa) = 54.64549 60.49304 57.56926
# Shear Modulus (GPa) = 24.63558 27.98579 26.31068
#
# Velocity S-wave (km/s) = 3.67344 3.91526 3.79628
# Velocity P-wave (km/s) = 6.92274 7.31943 7.12385
#
# Compressibility (1/GPa) = 0.01829977
#
# Stress axis : x y z
#
# Youngs Moduli (GPa) = 111.77616 71.39246 71.90247
#
# Poissons Ratio (x) = 0.25995 0.23997
# Poissons Ratio (y) = 0.40700 0.16553
# Poissons Ratio (z) = 0.37305 0.16435
#
# Static dielectric constant tensor:
#      x y z
#    x 4.047950 0.000000 0.000000 
#    y 0.000000 3.599410 0.000000 
#    z 0.000000 0.000000 3.100730 
# 
# 
# High freq. dielectric constant tensor:
#      x y z
#    x 1.732850 0.000000 0.000000 
#    y 0.000000 1.708540 0.000000 
#    z 0.000000 0.000000 1.679260 
# 
# From -- ./inp_files/31515.got.cif
#   From: 2010.03.12/outbox.cif.g09.slc.cpg/sg63_16_cif.got.tgz:31515.got - 2010.04.10 19:34:48.
