data_PCOD8258976
_publ_section_title
;
Structure prediction by ZEFSAII (Michael W. Deem and Ramdas Pophale) SiO2 
 PCOD8258976
Probable space group: C M C M
;
_chemical_formula_sum "Si O2"
_cell_formula_units_Z 96
_cell_length_a 8.607075
_cell_length_b 20.782365
_cell_length_c 26.922100
_cell_angle_alpha 90.000000
_cell_angle_beta 90.000000
_cell_angle_gamma 90.000000
_cell_volume 4815.700713
_symmetry_space_group_name_H-M "C M C M"
_symmetry_group_IT_number 63
_symmetry_cell_setting 'orthorhombic'
loop_
_space_group_symop_operation_xyz
x,y,z
-x,-y,1/2+z
x,-y,-z
-x,y,1/2-z
-x,-y,-z
x,y,1/2-z
-x,y,z
x,-y,1/2+z
1/2+x,1/2+y,z
1/2-x,1/2-y,1/2+z
1/2+x,1/2-y,-z
1/2-x,1/2+y,1/2-z
1/2-x,1/2-y,-z
1/2+x,1/2+y,1/2-z
1/2-x,1/2+y,z
1/2+x,1/2-y,1/2+z
loop_
_atom_site_type_symbol
_atom_site_label
_atom_site_fract_x
_atom_site_fract_y
_atom_site_fract_z
Si Si1 0.817068 0.187836 0.026125
Si Si2 0.682070 0.811134 0.634513
Si Si3 0.314742 0.438321 0.029265
Si Si4 0.319681 0.571693 0.308396
Si Si5 0.815315 0.940461 0.141209
Si Si6 0.814956 0.813016 0.305778
O O1 0.771721 0.183033 0.083204
O O2 0.000000 0.190307 0.021339
O O3 0.750000 0.250000 0.000000
O O4 0.751060 0.125422 0.997639
O O5 0.500000 0.806261 0.623643
O O6 0.716547 0.872170 0.668666
O O7 0.743943 0.747707 0.662572
O O8 0.500000 0.439209 0.029357
O O9 0.249763 0.440461 0.085258
O O10 0.249070 0.500000 0.000000
O O11 0.291982 0.569846 0.250000
O O12 0.500000 0.583291 0.321739
O O13 0.259178 0.504517 0.330870
O O14 0.748508 0.878132 0.169626
O O15 0.000000 0.937245 0.140976
O O16 0.748478 0.807320 0.250000
O O17 0.000000 0.814311 0.304554
#
# Coordination Sequence:
#
# PCOD8258976 Si02
#       6
#    16  16  16  16  16  16
#     4  11  22  37  58  83 111 142 178 224 275 327
#     4  11  22  36  55  79 109 146 184 222 268 323
#     4   9  17  30  51  78 106 138 178 222 265 313
#     4  10  20  34  55  83 111 139 174 220 273 323
#     4   9  16  29  51  78 105 134 175 225 269 310
#     4   9  17  30  50  76 103 134 179 230 269 306
#
# _framework density 19.934792000000002
#
# number of rings (size 3 to 8) (size 9 to 14) (size 15 to 20)
#    0.000    2.167    0.000    4.000    0.000    8.333 
#    0.000    0.000    0.000   15.000    0.000    0.000 
#    0.000    0.000    0.000    0.000    0.000    0.000 
#
# Total GULP energy -595318.925290 kJ/mol
# GULP energy per Si atom -12402.477610 kJ/mol
# Density = 1.988942 g / cm^3
# Si number density = 19.934792 Si / 1000 Ang^3
#
#
#
# Elastic Constant Matrix: (Units=GPa)
#
#
# Indices 1 2 3 4 5 6 
#
# 1 24.4443 19.9841 12.9175 0.0000 0.0000 0.0000
# 2 19.9841 187.7352 75.5415 0.0000 0.0000 0.0000
# 3 12.9175 75.5415 153.2847 0.0000 0.0000 0.0000
# 4 0.0000 0.0000 0.0000 49.3384 0.0000 0.0000
# 5 0.0000 0.0000 0.0000 0.0000 23.4016 0.0000
# 6 0.0000 0.0000 0.0000 0.0000 0.0000 25.8256
#
#
#
# Elastic Compliance Matrix: (Units=1/GPa)
#
#
# Indices 1 2 3 4 5 6 
#
# 1 0.045201 -0.004090 -0.001794 0.000000 0.000000 0.000000
# 2 -0.004090 0.007014 -0.003112 0.000000 0.000000 0.000000
# 3 -0.001794 -0.003112 0.008209 0.000000 0.000000 0.000000
# 4 0.000000 0.000000 0.000000 0.020268 0.000000 0.000000
# 5 0.000000 0.000000 0.000000 0.000000 0.042732 0.000000
# 6 0.000000 0.000000 0.000000 0.000000 0.000000 0.038721
#
#
# Mechanical properties :
#
#
# Convention : Reuss Voigt Hill
#
# Bulk Modulus (GPa) = 23.56681 64.70560 44.13621
# Shear Modulus (GPa) = 25.73599 36.84783 31.29191
#
# Velocity S-wave (km/s) = 3.59696 4.30399 3.96626
# Velocity P-wave (km/s) = 5.39430 7.56493 6.56988
#
# Compressibility (1/GPa) = 0.04243255
#
# Stress axis : x y z
#
# Youngs Moduli (GPa) = 22.12359 142.56652 121.82259
#
# Poissons Ratio (x) = 0.58307 0.21850
# Poissons Ratio (y) = 0.09048 0.37913
# Poissons Ratio (z) = 0.03968 0.44368
#
# Static dielectric constant tensor:
#      x y z
#    x 3.087640 0.000000 0.000000 
#    y 0.000000 3.993900 0.000000 
#    z 0.000000 0.000000 3.725490 
# 
# 
# High freq. dielectric constant tensor:
#      x y z
#    x 1.722880 0.000000 0.000000 
#    y 0.000000 1.798820 0.000000 
#    z 0.000000 0.000000 1.798630 
# 
# From -- ./inp_files/66927.got.cif
#   From: 2010.03.12/outbox.cif.g09.slc.cpg/sg63_34_cif.got.tgz:66927.got - 2010.04.10 19:34:48.
