data_PCOD8258458
_publ_section_title
;
Structure prediction by ZEFSAII (Michael W. Deem and Ramdas Pophale) SiO2 
 PCOD8258458
Probable space group: C M C M
;
_chemical_formula_sum "Si O2"
_cell_formula_units_Z 96
_cell_length_a 16.221854
_cell_length_b 16.530307
_cell_length_c 19.677230
_cell_angle_alpha 90.000000
_cell_angle_beta 90.000000
_cell_angle_gamma 90.000000
_cell_volume 5276.493040
_symmetry_space_group_name_H-M "C M C M"
_symmetry_group_IT_number 63
_symmetry_cell_setting 'orthorhombic'
loop_
_space_group_symop_operation_xyz
x,y,z
-x,-y,1/2+z
x,-y,-z
-x,y,1/2-z
-x,-y,-z
x,y,1/2-z
-x,y,z
x,-y,1/2+z
1/2+x,1/2+y,z
1/2-x,1/2-y,1/2+z
1/2+x,1/2-y,-z
1/2-x,1/2+y,1/2-z
1/2-x,1/2-y,-z
1/2+x,1/2+y,1/2-z
1/2-x,1/2+y,z
1/2+x,1/2-y,1/2+z
loop_
_atom_site_type_symbol
_atom_site_label
_atom_site_fract_x
_atom_site_fract_y
_atom_site_fract_z
Si Si1 0.096650 0.826604 0.826688
Si Si2 0.092939 0.290996 0.926927
Si Si3 0.217778 0.564573 0.444792
Si Si4 0.683082 0.493467 0.826896
Si Si5 0.595096 0.344066 0.328723
Si Si6 0.825938 0.204222 0.036381
O O1 0.117948 0.795010 0.750000
O O2 0.115886 0.922007 0.831376
O O3 0.152549 0.779044 0.883348
O O4 0.000000 0.813980 0.842203
O O5 0.145261 0.371927 0.933132
O O6 0.129517 0.235973 0.866054
O O7 0.000000 0.318501 0.913029
O O8 0.094881 0.233358 0.993999
O O9 0.188071 0.500000 0.500000
O O10 0.236685 0.521756 0.373185
O O11 0.301796 0.609453 0.470144
O O12 0.715196 0.503098 0.750000
O O13 0.641794 0.575915 0.853415
O O14 0.608566 0.328642 0.250000
O O15 0.500000 0.356048 0.348026
O O16 0.750000 0.250000 0.000000
#
# Coordination Sequence:
#
# PCOD8258458 Si02
#       6
#    16  16  16  16  16  16
#     4   9  16  27  47  75 103 131 164 205 257 314
#     4  10  20  33  50  71  97 132 170 207 251 300
#     4  10  20  33  50  70  96 128 165 208 248 289
#     4   9  17  30  49  73 100 128 158 197 249 306
#     4   9  17  30  49  74 102 128 156 195 245 302
#     4   9  18  32  48  69  98 130 165 209 256 303
#
# _framework density 18.193902000000001
#
# number of rings (size 3 to 8) (size 9 to 14) (size 15 to 20)
#    0.000    2.667    0.000    2.000    0.000    3.000 
#    0.000    2.500    0.000   12.000    0.000    0.000 
#    0.000    2.667    0.000    0.000    0.000    0.000 
#
# Total GULP energy -594670.569335 kJ/mol
# GULP energy per Si atom -12388.970194 kJ/mol
# Density = 1.815249 g / cm^3
# Si number density = 18.193902 Si / 1000 Ang^3
#
#
#
# Elastic Constant Matrix: (Units=GPa)
#
#
# Indices 1 2 3 4 5 6 
#
# 1 73.0250 44.4621 57.6184 0.0000 0.0000 0.0000
# 2 44.4621 98.7986 64.9311 0.0000 0.0000 0.0000
# 3 57.6184 64.9311 122.4851 0.0000 0.0000 0.0000
# 4 0.0000 0.0000 0.0000 32.4057 0.0000 0.0000
# 5 0.0000 0.0000 0.0000 0.0000 27.8347 0.0000
# 6 0.0000 0.0000 0.0000 0.0000 0.0000 27.0677
#
#
#
# Elastic Compliance Matrix: (Units=1/GPa)
#
#
# Indices 1 2 3 4 5 6 
#
# 1 0.023304 -0.005038 -0.008292 0.000000 0.000000 0.000000
# 2 -0.005038 0.016622 -0.006442 0.000000 0.000000 0.000000
# 3 -0.008292 -0.006442 0.015480 0.000000 0.000000 0.000000
# 4 0.000000 0.000000 0.000000 0.030859 0.000000 0.000000
# 5 0.000000 0.000000 0.000000 0.000000 0.035926 0.000000
# 6 0.000000 0.000000 0.000000 0.000000 0.000000 0.036944
#
#
# Mechanical properties :
#
#
# Convention : Reuss Voigt Hill
#
# Bulk Modulus (GPa) = 63.04039 69.81463 66.42751
# Shear Modulus (GPa) = 24.51390 25.94809 25.23100
#
# Velocity S-wave (km/s) = 3.67463 3.78060 3.72799
# Velocity P-wave (km/s) = 7.26143 7.58374 7.42433
#
# Compressibility (1/GPa) = 0.01586285
#
# Stress axis : x y z
#
# Youngs Moduli (GPa) = 42.91176 60.15945 64.60097
#
# Poissons Ratio (x) = 0.30308 0.53564
# Poissons Ratio (y) = 0.21619 0.41615
# Poissons Ratio (z) = 0.35581 0.38754
#
# Static dielectric constant tensor:
#      x y z
#    x 3.193350 0.000000 0.000000 
#    y 0.000000 3.271670 0.000000 
#    z 0.000000 0.000000 3.723460 
# 
# 
# High freq. dielectric constant tensor:
#      x y z
#    x 1.684660 0.000000 0.000000 
#    y 0.000000 1.687910 0.000000 
#    z 0.000000 0.000000 1.717240 
# 
# From -- ./inp_files/45779.got.cif
#   From: 2010.03.12/outbox.cif.g09.slc.cpg/sg63_23_cif.got.tgz:45779.got - 2010.04.10 19:34:48.
