data_PCOD8258810
_publ_section_title
;
Structure prediction by ZEFSAII (Michael W. Deem and Ramdas Pophale) SiO2 
 PCOD8258810
Probable space group: C M C M
;
_chemical_formula_sum "Si O2"
_cell_formula_units_Z 120
_cell_length_a 28.059624
_cell_length_b 12.076758
_cell_length_c 20.942786
_cell_angle_alpha 90.000000
_cell_angle_beta 90.000000
_cell_angle_gamma 90.000000
_cell_volume 7096.866994
_symmetry_space_group_name_H-M "C M C M"
_symmetry_group_IT_number 63
_symmetry_cell_setting 'orthorhombic'
loop_
_space_group_symop_operation_xyz
x,y,z
-x,-y,1/2+z
x,-y,-z
-x,y,1/2-z
-x,-y,-z
x,y,1/2-z
-x,y,z
x,-y,1/2+z
1/2+x,1/2+y,z
1/2-x,1/2-y,1/2+z
1/2+x,1/2-y,-z
1/2-x,1/2+y,1/2-z
1/2-x,1/2-y,-z
1/2+x,1/2+y,1/2-z
1/2-x,1/2+y,z
1/2+x,1/2-y,1/2+z
loop_
_atom_site_type_symbol
_atom_site_label
_atom_site_fract_x
_atom_site_fract_y
_atom_site_fract_z
Si Si1 0.337027 0.500000 0.000000
Si Si2 0.868327 0.752452 0.000355
Si Si3 0.682688 0.213569 0.374244
Si Si4 0.718976 0.558746 0.623558
Si Si5 0.888961 0.454059 0.823227
Si Si6 0.444485 0.904266 0.949341
Si Si7 0.776305 0.843108 0.680621
Si Si8 0.674284 0.147529 0.624914
O O1 0.369061 0.612896 0.007091
O O2 0.301900 0.508543 0.940903
O O3 0.829706 0.712016 0.051479
O O4 0.919263 0.709010 0.026654
O O5 0.853493 0.685096 0.937980
O O6 0.687944 0.339154 0.350541
O O7 0.645423 0.151750 0.329103
O O8 0.734701 0.159099 0.371967
O O9 0.707741 0.470299 0.678967
O O10 0.774487 0.590581 0.612414
O O11 0.909255 0.457063 0.750000
O O12 0.929626 0.441715 0.877444
O O13 0.858953 0.565012 0.835462
O O14 0.500000 0.878163 0.948051
O O15 0.431582 0.000000 0.000000
O O16 0.755564 0.813491 0.750000
O O17 0.819024 0.759051 0.665835
#
# Coordination Sequence:
#
# PCOD8258810 Si02
#       8
#     8  16  16  16  16  16  16  16
#     4  10  20  34  53  76 104 134 183 222 262 298
#     4  10  20  36  56  77 104 133 176 225 270 316
#     4   9  21  32  47  72 100 143 179 217 256 302
#     4  10  21  30  48  71 103 144 184 222 250 294
#     4  11  21  35  55  79 109 140 174 215 260 319
#     4  10  21  38  60  84 107 133 163 210 275 334
#     4  11  21  32  44  66 103 145 185 222 254 298
#     4  11  21  32  50  75 106 144 182 221 261 302
#
# _framework density 16.90887
#
# number of rings (size 3 to 8) (size 9 to 14) (size 15 to 20)
#    0.000    1.733    4.000    0.800    1.867    4.533 
#    0.000    0.333    0.000    0.000    0.000    0.000 
#    0.000    0.000    0.000    0.000    0.000    0.000 
#
# Total GULP energy -743430.150879 kJ/mol
# GULP energy per Si atom -12390.502515 kJ/mol
# Density = 1.687038 g / cm^3
# Si number density = 16.908870 Si / 1000 Ang^3
#
#
#
# Elastic Constant Matrix: (Units=GPa)
#
#
# Indices 1 2 3 4 5 6 
#
# 1 69.8922 40.2907 35.5299 0.0000 0.0000 0.0000
# 2 40.2907 115.3970 47.3447 0.0000 0.0000 0.0000
# 3 35.5299 47.3447 106.1394 0.0000 0.0000 0.0000
# 4 0.0000 0.0000 0.0000 12.0122 0.0000 0.0000
# 5 0.0000 0.0000 0.0000 0.0000 15.3431 0.0000
# 6 0.0000 0.0000 0.0000 0.0000 0.0000 17.1303
#
#
#
# Elastic Compliance Matrix: (Units=1/GPa)
#
#
# Indices 1 2 3 4 5 6 
#
# 1 0.019357 -0.005018 -0.004241 0.000000 0.000000 0.000000
# 2 -0.005018 0.011908 -0.003632 0.000000 0.000000 0.000000
# 3 -0.004241 -0.003632 0.012461 0.000000 0.000000 0.000000
# 4 0.000000 0.000000 0.000000 0.083249 0.000000 0.000000
# 5 0.000000 0.000000 0.000000 0.000000 0.065176 0.000000
# 6 0.000000 0.000000 0.000000 0.000000 0.000000 0.058376
#
#
# Mechanical properties :
#
#
# Convention : Reuss Voigt Hill
#
# Bulk Modulus (GPa) = 55.73080 59.75101 57.74091
# Shear Modulus (GPa) = 17.71229 20.11468 18.91348
#
# Velocity S-wave (km/s) = 3.24004 3.45279 3.34811
# Velocity P-wave (km/s) = 6.85771 7.16306 7.01205
#
# Compressibility (1/GPa) = 0.01794340
#
# Stress axis : x y z
#
# Youngs Moduli (GPa) = 51.66187 83.97783 80.24866
#
# Poissons Ratio (x) = 0.42143 0.34034
# Poissons Ratio (y) = 0.25926 0.29145
# Poissons Ratio (z) = 0.21910 0.30499
#
# Static dielectric constant tensor:
#      x y z
#    x 2.881760 0.000000 0.000000 
#    y 0.000000 3.555340 0.000000 
#    z 0.000000 0.000000 3.232350 
# 
# 
# High freq. dielectric constant tensor:
#      x y z
#    x 1.609810 0.000000 0.000000 
#    y 0.000000 1.670760 0.000000 
#    z 0.000000 0.000000 1.657900 
# 
# From -- ./inp_files/58364.got.cif
#   From: 2010.03.12/outbox.cif.g09.slc.cpg/sg63_30_cif.got.tgz:58364.got - 2010.04.10 19:34:48.
