data_PCOD8258745
_publ_section_title
;
Structure prediction by ZEFSAII (Michael W. Deem and Ramdas Pophale) SiO2 
 PCOD8258745
Probable space group: C M C M
;
_chemical_formula_sum "Si O2"
_cell_formula_units_Z 80
_cell_length_a 9.138883
_cell_length_b 18.542590
_cell_length_c 25.474286
_cell_angle_alpha 90.000000
_cell_angle_beta 90.000000
_cell_angle_gamma 90.000000
_cell_volume 4316.835836
_symmetry_space_group_name_H-M "C M C M"
_symmetry_group_IT_number 63
_symmetry_cell_setting 'orthorhombic'
loop_
_space_group_symop_operation_xyz
x,y,z
-x,-y,1/2+z
x,-y,-z
-x,y,1/2-z
-x,-y,-z
x,y,1/2-z
-x,y,z
x,-y,1/2+z
1/2+x,1/2+y,z
1/2-x,1/2-y,1/2+z
1/2+x,1/2-y,-z
1/2-x,1/2+y,1/2-z
1/2-x,1/2-y,-z
1/2+x,1/2+y,1/2-z
1/2-x,1/2+y,z
1/2+x,1/2-y,1/2+z
loop_
_atom_site_type_symbol
_atom_site_label
_atom_site_fract_x
_atom_site_fract_y
_atom_site_fract_z
Si Si1 0.326119 0.422882 0.651476
Si Si2 0.174272 0.331670 0.250000
Si Si3 0.168657 0.818762 0.059486
Si Si4 0.328023 0.325786 0.941493
Si Si5 0.173910 0.166968 0.250000
Si Si6 0.829001 0.914377 0.342611
O O1 0.500000 0.424561 0.652638
O O2 0.270362 0.389418 0.596396
O O3 0.264297 0.374081 0.698845
O O4 0.267984 0.504171 0.657553
O O5 0.229308 0.249076 0.250000
O O6 0.236311 0.369093 0.301585
O O7 0.000000 0.337164 0.250000
O O8 0.259009 0.749266 0.077364
O O9 0.198716 0.883788 0.099221
O O10 0.000000 0.795779 0.059178
O O11 0.217043 0.844659 0.001260
O O12 0.500000 0.316545 0.934980
O O13 0.000000 0.164992 0.250000
O O14 0.000000 0.910704 0.327156
#
# Coordination Sequence:
#
# PCOD8258745 Si02
#       6
#    16   8  16  16   8  16
#     4   9  17  30  50  73  97 128 165 203 243 288
#     4  11  22  35  53  75  98 127 164 202 242 297
#     4   9  18  31  49  75 103 131 166 207 250 293
#     4   9  17  31  51  73  99 134 173 208 242 287
#     4   9  17  29  47  71  94 121 162 204 240 285
#     4  10  20  34  52  74 101 130 161 204 254 297
#
# _framework density 18.532094000000001
#
# number of rings (size 3 to 8) (size 9 to 14) (size 15 to 20)
#    0.000    2.600    0.000    2.100    0.000    4.800 
#    0.000    5.000    0.000    7.200    0.000    7.000 
#    0.000    0.000    0.000    0.000    0.000    0.000 
#
# Total GULP energy -495990.070550 kJ/mol
# GULP energy per Si atom -12399.751764 kJ/mol
# Density = 1.848991 g / cm^3
# Si number density = 18.532094 Si / 1000 Ang^3
#
#
#
# Elastic Constant Matrix: (Units=GPa)
#
#
# Indices 1 2 3 4 5 6 
#
# 1 30.1985 34.7183 29.5657 0.0000 0.0000 0.0000
# 2 34.7183 177.6849 90.6010 0.0000 0.0000 0.0000
# 3 29.5657 90.6010 129.6532 0.0000 0.0000 0.0000
# 4 0.0000 0.0000 0.0000 32.9653 0.0000 0.0000
# 5 0.0000 0.0000 0.0000 0.0000 21.2229 0.0000
# 6 0.0000 0.0000 0.0000 0.0000 0.0000 25.1649
#
#
#
# Elastic Compliance Matrix: (Units=1/GPa)
#
#
# Indices 1 2 3 4 5 6 
#
# 1 0.046022 -0.005657 -0.006542 0.000000 0.000000 0.000000
# 2 -0.005657 0.009439 -0.005306 0.000000 0.000000 0.000000
# 3 -0.006542 -0.005306 0.012912 0.000000 0.000000 0.000000
# 4 0.000000 0.000000 0.000000 0.030335 0.000000 0.000000
# 5 0.000000 0.000000 0.000000 0.000000 0.047119 0.000000
# 6 0.000000 0.000000 0.000000 0.000000 0.000000 0.039738
#
#
# Mechanical properties :
#
#
# Convention : Reuss Voigt Hill
#
# Bulk Modulus (GPa) = 29.97186 71.92295 50.94740
# Shear Modulus (GPa) = 21.58008 28.04740 24.81374
#
# Velocity S-wave (km/s) = 3.41614 3.89453 3.66315
# Velocity P-wave (km/s) = 5.63631 7.68878 6.74112
#
# Compressibility (1/GPa) = 0.03336463
#
# Stress axis : x y z
#
# Youngs Moduli (GPa) = 21.72854 105.94813 77.44582
#
# Poissons Ratio (x) = 0.59932 0.50664
# Poissons Ratio (y) = 0.12291 0.41090
# Poissons Ratio (z) = 0.14215 0.56213
#
# Static dielectric constant tensor:
#      x y z
#    x 3.089880 0.000000 0.000000 
#    y 0.000000 3.581170 0.000000 
#    z 0.000000 0.000000 3.692590 
# 
# 
# High freq. dielectric constant tensor:
#      x y z
#    x 1.679080 0.000000 0.000000 
#    y 0.000000 1.722770 0.000000 
#    z 0.000000 0.000000 1.736150 
# 
# From -- ./inp_files/66647.got.cif
#   From: 2010.03.12/outbox.cif.g09.slc.cpg/sg63_34_cif.got.tgz:66647.got - 2010.04.10 19:34:48.
