data_PCOD8258873
_publ_section_title
;
Structure prediction by ZEFSAII (Michael W. Deem and Ramdas Pophale) SiO2 
 PCOD8258873
Probable space group: C M C M
;
_chemical_formula_sum "Si O2"
_cell_formula_units_Z 88
_cell_length_a 13.377779
_cell_length_b 37.472695
_cell_length_c 9.377812
_cell_angle_alpha 90.000000
_cell_angle_beta 90.000000
_cell_angle_gamma 90.000000
_cell_volume 4701.110587
_symmetry_space_group_name_H-M "C M C M"
_symmetry_group_IT_number 63
_symmetry_cell_setting 'orthorhombic'
loop_
_space_group_symop_operation_xyz
x,y,z
-x,-y,1/2+z
x,-y,-z
-x,y,1/2-z
-x,-y,-z
x,y,1/2-z
-x,y,z
x,-y,1/2+z
1/2+x,1/2+y,z
1/2-x,1/2-y,1/2+z
1/2+x,1/2-y,-z
1/2-x,1/2+y,1/2-z
1/2-x,1/2-y,-z
1/2+x,1/2+y,1/2-z
1/2-x,1/2+y,z
1/2+x,1/2-y,1/2+z
loop_
_atom_site_type_symbol
_atom_site_label
_atom_site_fract_x
_atom_site_fract_y
_atom_site_fract_z
Si Si1 0.110060 0.703377 0.086660
Si Si2 0.382266 0.730374 0.088544
Si Si3 0.696105 0.580356 0.080719
Si Si4 0.500000 0.537079 0.419213
Si Si5 0.791874 0.841302 0.914045
Si Si6 0.387437 0.963599 0.583466
O O1 0.106339 0.715504 0.250000
O O2 0.174518 0.667551 0.067589
O O3 0.000000 0.694208 0.028144
O O4 0.160860 0.736388 0.002134
O O5 0.339037 0.732661 0.250000
O O6 0.500000 0.733635 0.087149
O O7 0.353045 0.692038 0.019053
O O8 0.699053 0.583098 0.250000
O O9 0.599376 0.558129 0.031045
O O10 0.686703 0.620308 0.013392
O O11 0.801031 0.563249 0.027976
O O12 0.500000 0.500000 0.500000
O O13 0.500000 0.530629 0.250000
O O14 0.824159 0.844300 0.750000
O O15 0.372651 0.971751 0.750000
O O16 0.500000 0.948218 0.555058
O O17 0.371800 0.000000 0.500000
#
# Coordination Sequence:
#
# PCOD8258873 Si02
#       6
#    16  16  16   8  16  16
#     4   9  17  29  45  65  89 119 152 186 227 272
#     4   9  17  28  45  66  87 116 153 191 226 264
#     4   9  18  30  47  73  97 120 154 194 235 273
#     4  10  20  34  54  74  96 126 158 196 236 282
#     4   9  17  28  44  67  92 116 148 191 229 265
#     4   9  17  30  49  71  94 120 150 185 225 273
#
# _framework density 18.718979999999998
#
# number of rings (size 3 to 8) (size 9 to 14) (size 15 to 20)
#    0.000    2.909    0.000    1.091    1.273    0.727 
#    0.000    3.636    0.000    4.364    0.000    5.091 
#    0.000    0.000    0.000    0.000    0.000    0.000 
#
# Total GULP energy -545216.211400 kJ/mol
# GULP energy per Si atom -12391.277532 kJ/mol
# Density = 1.867638 g / cm^3
# Si number density = 18.718980 Si / 1000 Ang^3
#
#
#
# Elastic Constant Matrix: (Units=GPa)
#
#
# Indices 1 2 3 4 5 6 
#
# 1 95.2361 54.4011 12.5005 0.0000 0.0000 0.0000
# 2 54.4011 151.9847 30.1810 0.0000 0.0000 0.0000
# 3 12.5005 30.1810 27.0657 0.0000 0.0000 0.0000
# 4 0.0000 0.0000 0.0000 21.2561 0.0000 0.0000
# 5 0.0000 0.0000 0.0000 0.0000 12.6852 0.0000
# 6 0.0000 0.0000 0.0000 0.0000 0.0000 25.6905
#
#
#
# Elastic Compliance Matrix: (Units=1/GPa)
#
#
# Indices 1 2 3 4 5 6 
#
# 1 0.013223 -0.004521 -0.001065 0.000000 0.000000 0.000000
# 2 -0.004521 0.009997 -0.009059 0.000000 0.000000 0.000000
# 3 -0.001065 -0.009059 0.047541 0.000000 0.000000 0.000000
# 4 0.000000 0.000000 0.000000 0.047045 0.000000 0.000000
# 5 0.000000 0.000000 0.000000 0.000000 0.078832 0.000000
# 6 0.000000 0.000000 0.000000 0.000000 0.000000 0.038925
#
#
# Mechanical properties :
#
#
# Convention : Reuss Voigt Hill
#
# Bulk Modulus (GPa) = 24.11442 52.05021 38.08231
# Shear Modulus (GPa) = 17.94183 23.73996 20.84089
#
# Velocity S-wave (km/s) = 3.09930 3.56508 3.34032
# Velocity P-wave (km/s) = 5.07127 6.69424 5.93846
#
# Compressibility (1/GPa) = 0.04146897
#
# Stress axis : x y z
#
# Youngs Moduli (GPa) = 75.62719 100.02994 21.03431
#
# Poissons Ratio (x) = 0.45227 0.02241
# Poissons Ratio (y) = 0.34194 0.19056
# Poissons Ratio (z) = 0.08056 0.90622
#
# Static dielectric constant tensor:
#      x y z
#    x 3.793890 0.000000 0.000000 
#    y 0.000000 3.602090 0.000000 
#    z 0.000000 0.000000 3.326950 
# 
# 
# High freq. dielectric constant tensor:
#      x y z
#    x 1.748010 0.000000 0.000000 
#    y 0.000000 1.724920 0.000000 
#    z 0.000000 0.000000 1.671690 
# 
# From -- ./inp_files/19934.got.cif
#   From: 2010.03.12/outbox.cif.g09.slc.cpg/sg63_10_cif.got.tgz:19934.got - 2010.04.10 19:34:48.
