data_PCOD8258183
_publ_section_title
;
Structure prediction by ZEFSAII (Michael W. Deem and Ramdas Pophale) SiO2 
 PCOD8258183
Probable space group: C M C M
;
_chemical_formula_sum "Si O2"
_cell_formula_units_Z 72
_cell_length_a 10.467353
_cell_length_b 14.621618
_cell_length_c 25.017838
_cell_angle_alpha 90.000000
_cell_angle_beta 90.000000
_cell_angle_gamma 90.000000
_cell_volume 3828.971025
_symmetry_space_group_name_H-M "C M C M"
_symmetry_group_IT_number 63
_symmetry_cell_setting 'orthorhombic'
loop_
_space_group_symop_operation_xyz
x,y,z
-x,-y,1/2+z
x,-y,-z
-x,y,1/2-z
-x,-y,-z
x,y,1/2-z
-x,y,z
x,-y,1/2+z
1/2+x,1/2+y,z
1/2-x,1/2-y,1/2+z
1/2+x,1/2-y,-z
1/2-x,1/2+y,1/2-z
1/2-x,1/2-y,-z
1/2+x,1/2+y,1/2-z
1/2-x,1/2+y,z
1/2+x,1/2-y,1/2+z
loop_
_atom_site_type_symbol
_atom_site_label
_atom_site_fract_x
_atom_site_fract_y
_atom_site_fract_z
Si Si1 0.000000 0.023365 0.311755
Si Si2 0.727949 0.670041 0.071221
Si Si3 0.500000 0.916104 0.188238
Si Si4 0.000000 0.219959 0.356341
Si Si5 0.643996 0.350720 0.454539
Si Si6 0.745033 0.015299 0.626918
O O1 0.000000 0.995944 0.250000
O O2 0.000000 0.132404 0.317965
O O3 0.874278 0.980903 0.338583
O O4 0.622561 0.722287 0.105792
O O5 0.838168 0.743194 0.058412
O O6 0.784538 0.585095 0.103849
O O7 0.666670 0.630888 0.017015
O O8 0.500000 0.941944 0.250000
O O9 0.500000 0.807301 0.181682
O O10 0.374181 0.959239 0.162959
O O11 0.500000 0.378992 0.440040
O O12 0.741891 0.412892 0.421364
#
# Coordination Sequence:
#
# PCOD8258183 Si02
#       6
#     8  16   8   8  16  16
#     4  10  21  39  62  85 109 154 206 254 291 345
#     4  10  22  37  59  91 123 152 192 238 294 366
#     4  12  25  42  60  85 119 160 206 259 305 341
#     4  10  19  39  61  83 115 155 200 240 294 350
#     4  11  21  37  61  91 124 160 191 237 297 365
#     4  11  23  39  62  86 121 156 199 246 299 354
#
# _framework density 18.804008
#
# number of rings (size 3 to 8) (size 9 to 14) (size 15 to 20)
#    0.000    1.333    4.444    1.667    1.556    0.889 
#    0.000    1.111    0.000    1.333    0.000    0.000 
#    0.000    0.000    0.000    0.000    0.000    0.000 
#
# Total GULP energy -446559.374660 kJ/mol
# GULP energy per Si atom -12404.427074 kJ/mol
# Density = 1.876121 g / cm^3
# Si number density = 18.804008 Si / 1000 Ang^3
#
#
#
# Elastic Constant Matrix: (Units=GPa)
#
#
# Indices 1 2 3 4 5 6 
#
# 1 108.6281 32.1805 36.3145 0.0000 0.0000 0.0000
# 2 32.1805 78.8433 26.3065 0.0000 0.0000 0.0000
# 3 36.3145 26.3065 95.6773 0.0000 0.0000 0.0000
# 4 0.0000 0.0000 0.0000 24.4852 0.0000 0.0000
# 5 0.0000 0.0000 0.0000 0.0000 10.4967 0.0000
# 6 0.0000 0.0000 0.0000 0.0000 0.0000 44.4935
#
#
#
# Elastic Compliance Matrix: (Units=1/GPa)
#
#
# Indices 1 2 3 4 5 6 
#
# 1 0.011368 -0.003524 -0.003346 0.000000 0.000000 0.000000
# 2 -0.003524 0.015057 -0.002802 0.000000 0.000000 0.000000
# 3 -0.003346 -0.002802 0.012492 0.000000 0.000000 0.000000
# 4 0.000000 0.000000 0.000000 0.040841 0.000000 0.000000
# 5 0.000000 0.000000 0.000000 0.000000 0.095268 0.000000
# 6 0.000000 0.000000 0.000000 0.000000 0.000000 0.022475
#
#
# Mechanical properties :
#
#
# Convention : Reuss Voigt Hill
#
# Bulk Modulus (GPa) = 51.09069 52.52797 51.80933
# Shear Modulus (GPa) = 22.38442 28.45158 25.41800
#
# Velocity S-wave (km/s) = 3.45397 3.89403 3.68058
# Velocity P-wave (km/s) = 6.56777 6.94356 6.75828
#
# Compressibility (1/GPa) = 0.01957304
#
# Stress axis : x y z
#
# Youngs Moduli (GPa) = 87.96526 66.41606 80.04928
#
# Poissons Ratio (x) = 0.23402 0.26784
# Poissons Ratio (y) = 0.30995 0.22433
# Poissons Ratio (z) = 0.29433 0.18613
#
# Static dielectric constant tensor:
#      x y z
#    x 3.342830 0.000000 0.000000 
#    y 0.000000 3.388490 0.000000 
#    z 0.000000 0.000000 3.397240 
# 
# 
# High freq. dielectric constant tensor:
#      x y z
#    x 1.726780 0.000000 0.000000 
#    y 0.000000 1.736430 0.000000 
#    z 0.000000 0.000000 1.734680 
# 
# From -- ./inp_files/66382.got.cif
#   From: 2010.03.12/outbox.cif.g09.slc.cpg/sg63_34_cif.got.tgz:66382.got - 2010.04.10 19:34:48.
