data_PCOD8258429
_publ_section_title
;
Structure prediction by ZEFSAII (Michael W. Deem and Ramdas Pophale) SiO2 
 PCOD8258429
Probable space group: C M C M
;
_chemical_formula_sum "Si O2"
_cell_formula_units_Z 96
_cell_length_a 9.687411
_cell_length_b 27.907337
_cell_length_c 19.005886
_cell_angle_alpha 90.000000
_cell_angle_beta 90.000000
_cell_angle_gamma 90.000000
_cell_volume 5138.238304
_symmetry_space_group_name_H-M "C M C M"
_symmetry_group_IT_number 63
_symmetry_cell_setting 'orthorhombic'
loop_
_space_group_symop_operation_xyz
x,y,z
-x,-y,1/2+z
x,-y,-z
-x,y,1/2-z
-x,-y,-z
x,y,1/2-z
-x,y,z
x,-y,1/2+z
1/2+x,1/2+y,z
1/2-x,1/2-y,1/2+z
1/2+x,1/2-y,-z
1/2-x,1/2+y,1/2-z
1/2-x,1/2-y,-z
1/2+x,1/2+y,1/2-z
1/2-x,1/2+y,z
1/2+x,1/2-y,1/2+z
loop_
_atom_site_type_symbol
_atom_site_label
_atom_site_fract_x
_atom_site_fract_y
_atom_site_fract_z
Si Si1 0.344747 0.735685 0.328726
Si Si2 0.163627 0.555886 0.094998
Si Si3 0.155020 0.650935 0.167028
Si Si4 0.836197 0.397328 0.045549
Si Si5 0.835300 0.461079 0.170102
Si Si6 0.841671 0.709840 0.962762
O O1 0.298077 0.750791 0.250000
O O2 0.500000 0.715078 0.327566
O O3 0.247275 0.694458 0.361080
O O4 0.334562 0.781772 0.378578
O O5 0.216619 0.601373 0.138999
O O6 0.225851 0.508439 0.131403
O O7 0.000000 0.551823 0.098502
O O8 0.211195 0.564189 0.013974
O O9 0.158273 0.648840 0.250000
O O10 0.000000 0.659009 0.138119
O O11 0.785552 0.416095 0.122117
O O12 0.780988 0.343938 0.026441
O O13 0.000000 0.393738 0.046454
O O14 0.776996 0.456446 0.250000
O O15 0.000000 0.463736 0.172815
O O16 0.000000 0.714397 0.989475
O O17 0.750000 0.750000 0.000000
#
# Coordination Sequence:
#
# PCOD8258429 Si02
#       6
#    16  16  16  16  16  16
#     4   9  18  31  45  63  90 122 154 190 233 278
#     4   9  15  24  39  60  87 115 143 179 223 267
#     4   9  16  26  43  67  92 118 150 188 227 268
#     4   9  17  27  40  59  84 115 148 182 221 266
#     4   9  16  25  38  59  88 118 145 176 220 272
#     4  10  20  33  49  69  93 123 158 194 232 273
#
# _framework density 18.683444999999999
#
# number of rings (size 3 to 8) (size 9 to 14) (size 15 to 20)
#    0.000    2.833    0.000    2.000    0.000    6.667 
#    0.000    3.333    0.000    0.000    0.000    1.167 
#    0.000    6.667    0.000    0.000    0.000    0.000 
#
# Total GULP energy -594793.128132 kJ/mol
# GULP energy per Si atom -12391.523503 kJ/mol
# Density = 1.864092 g / cm^3
# Si number density = 18.683445 Si / 1000 Ang^3
#
#
#
# Elastic Constant Matrix: (Units=GPa)
#
#
# Indices 1 2 3 4 5 6 
#
# 1 25.0956 17.8089 14.4777 0.0000 0.0000 0.0000
# 2 17.8089 113.7793 61.1740 0.0000 0.0000 0.0000
# 3 14.4777 61.1740 100.9436 0.0000 0.0000 0.0000
# 4 0.0000 0.0000 0.0000 36.8805 0.0000 0.0000
# 5 0.0000 0.0000 0.0000 0.0000 11.7572 0.0000
# 6 0.0000 0.0000 0.0000 0.0000 0.0000 15.2915
#
#
#
# Elastic Compliance Matrix: (Units=1/GPa)
#
#
# Indices 1 2 3 4 5 6 
#
# 1 0.045548 -0.005365 -0.003281 0.000000 0.000000 0.000000
# 2 -0.005365 0.013669 -0.007514 0.000000 0.000000 0.000000
# 3 -0.003281 -0.007514 0.014931 0.000000 0.000000 0.000000
# 4 0.000000 0.000000 0.000000 0.027115 0.000000 0.000000
# 5 0.000000 0.000000 0.000000 0.000000 0.085054 0.000000
# 6 0.000000 0.000000 0.000000 0.000000 0.000000 0.065396
#
#
# Mechanical properties :
#
#
# Convention : Reuss Voigt Hill
#
# Bulk Modulus (GPa) = 23.90819 47.41549 35.66184
# Shear Modulus (GPa) = 16.77994 22.54304 19.66149
#
# Velocity S-wave (km/s) = 3.00011 3.47735 3.24751
# Velocity P-wave (km/s) = 4.98248 6.44640 5.76113
#
# Compressibility (1/GPa) = 0.04182667
#
# Stress axis : x y z
#
# Youngs Moduli (GPa) = 21.95490 73.16028 66.97571
#
# Poissons Ratio (x) = 0.39250 0.21977
# Poissons Ratio (y) = 0.11779 0.50326
# Poissons Ratio (z) = 0.07204 0.54973
#
# Static dielectric constant tensor:
#      x y z
#    x 2.966770 0.000000 0.000000 
#    y 0.000000 3.597830 0.000000 
#    z 0.000000 0.000000 3.718990 
# 
# 
# High freq. dielectric constant tensor:
#      x y z
#    x 1.646350 0.000000 0.000000 
#    y 0.000000 1.725920 0.000000 
#    z 0.000000 0.000000 1.746670 
# 
# From -- ./inp_files/42492.got.cif
#   From: 2010.03.12/outbox.cif.g09.slc.cpg/sg63_22_cif.got.tgz:42492.got - 2010.04.10 19:34:48.
