data_PCOD8258365
_publ_section_title
;
Structure prediction by ZEFSAII (Michael W. Deem and Ramdas Pophale) SiO2 
 PCOD8258365
Probable space group: C M C M
;
_chemical_formula_sum "Si O2"
_cell_formula_units_Z 80
_cell_length_a 9.289753
_cell_length_b 18.431466
_cell_length_c 25.554235
_cell_angle_alpha 90.000000
_cell_angle_beta 90.000000
_cell_angle_gamma 90.000000
_cell_volume 4375.492368
_symmetry_space_group_name_H-M "C M C M"
_symmetry_group_IT_number 63
_symmetry_cell_setting 'orthorhombic'
loop_
_space_group_symop_operation_xyz
x,y,z
-x,-y,1/2+z
x,-y,-z
-x,y,1/2-z
-x,-y,-z
x,y,1/2-z
-x,y,z
x,-y,1/2+z
1/2+x,1/2+y,z
1/2-x,1/2-y,1/2+z
1/2+x,1/2-y,-z
1/2-x,1/2+y,1/2-z
1/2-x,1/2-y,-z
1/2+x,1/2+y,1/2-z
1/2-x,1/2+y,z
1/2+x,1/2-y,1/2+z
loop_
_atom_site_type_symbol
_atom_site_label
_atom_site_fract_x
_atom_site_fract_y
_atom_site_fract_z
Si Si1 0.829718 0.674173 0.002425
Si Si2 0.828921 0.419458 0.095586
Si Si3 0.834901 0.165019 0.310505
Si Si4 0.328617 0.171510 0.692348
Si Si5 0.169834 0.582728 0.396773
O O1 0.784270 0.634015 0.055524
O O2 0.000000 0.687217 0.999343
O O3 0.750000 0.750000 0.000000
O O4 0.773986 0.624948 0.954534
O O5 0.766183 0.382536 0.148429
O O6 0.772771 0.501667 0.091648
O O7 0.000000 0.418100 0.096742
O O8 0.817702 0.143864 0.250000
O O9 0.777890 0.246714 0.320402
O O10 0.739799 0.109843 0.343425
O O11 0.000000 0.158152 0.328447
O O12 0.271648 0.147854 0.750000
O O13 0.500000 0.170575 0.692837
O O14 0.000000 0.582179 0.388853
#
# Coordination Sequence:
#
# PCOD8258365 Si02
#       5
#    16  16  16  16  16
#     4  10  20  34  52  73  98 130 168 206 247 296
#     4   9  17  30  48  70  99 131 160 198 247 292
#     4   9  18  33  52  73  99 132 166 198 238 292
#     4   8  14  26  46  70  92 120 163 204 234 277
#     4  10  20  32  49  75 102 127 161 207 253 293
#
# _framework density 18.283656000000001
#
# number of rings (size 3 to 8) (size 9 to 14) (size 15 to 20)
#    0.000    2.800    0.000    3.000    0.000    6.000 
#    0.000    3.000    0.000    3.600    0.000    0.000 
#    0.000    0.000    0.000    0.000    0.000    0.000 
#
# Total GULP energy -495949.197930 kJ/mol
# GULP energy per Si atom -12398.729948 kJ/mol
# Density = 1.824204 g / cm^3
# Si number density = 18.283656 Si / 1000 Ang^3
#
#
#
# Elastic Constant Matrix: (Units=GPa)
#
#
# Indices 1 2 3 4 5 6 
#
# 1 20.4261 35.3164 31.9980 0.0000 0.0000 0.0000
# 2 35.3164 160.0883 82.9075 0.0000 0.0000 0.0000
# 3 31.9980 82.9075 126.8478 0.0000 0.0000 0.0000
# 4 0.0000 0.0000 0.0000 30.7932 0.0000 0.0000
# 5 0.0000 0.0000 0.0000 0.0000 22.5038 0.0000
# 6 0.0000 0.0000 0.0000 0.0000 0.0000 24.9211
#
#
#
# Elastic Compliance Matrix: (Units=1/GPa)
#
#
# Indices 1 2 3 4 5 6 
#
# 1 0.096194 -0.013082 -0.015715 0.000000 0.000000 0.000000
# 2 -0.013082 0.011222 -0.004035 0.000000 0.000000 0.000000
# 3 -0.015715 -0.004035 0.014485 0.000000 0.000000 0.000000
# 4 0.000000 0.000000 0.000000 0.032475 0.000000 0.000000
# 5 0.000000 0.000000 0.000000 0.000000 0.044437 0.000000
# 6 0.000000 0.000000 0.000000 0.000000 0.000000 0.040127
#
#
# Mechanical properties :
#
#
# Convention : Reuss Voigt Hill
#
# Bulk Modulus (GPa) = 17.78191 67.53398 42.65795
# Shear Modulus (GPa) = 15.46322 26.11964 20.79143
#
# Velocity S-wave (km/s) = 2.91132 3.78375 3.37584
# Velocity P-wave (km/s) = 4.58778 7.49040 6.21103
#
# Compressibility (1/GPa) = 0.05623691
#
# Stress axis : x y z
#
# Youngs Moduli (GPa) = 10.39568 89.10996 69.03890
#
# Poissons Ratio (x) = 1.16578 1.08492
# Poissons Ratio (y) = 0.13600 0.27855
# Poissons Ratio (z) = 0.16336 0.35952
#
# Static dielectric constant tensor:
#      x y z
#    x 2.862060 0.000000 0.000000 
#    y 0.000000 3.500440 0.000000 
#    z 0.000000 0.000000 3.635980 
# 
# 
# High freq. dielectric constant tensor:
#      x y z
#    x 1.655210 0.000000 0.000000 
#    y 0.000000 1.716100 0.000000 
#    z 0.000000 0.000000 1.725810 
# 
# From -- ./inp_files/61080.got.cif
#   From: 2010.03.12/outbox.cif.g09.slc.cpg/sg63_31_cif.got.tgz:61080.got - 2010.04.10 19:34:48.
