data_PCOD8258086
_publ_section_title
;
Structure prediction by ZEFSAII (Michael W. Deem and Ramdas Pophale) SiO2 
 PCOD8258086
Probable space group: C M C M
;
_chemical_formula_sum "Si O2"
_cell_formula_units_Z 96
_cell_length_a 18.901922
_cell_length_b 17.996801
_cell_length_c 14.655775
_cell_angle_alpha 90.000000
_cell_angle_beta 90.000000
_cell_angle_gamma 90.000000
_cell_volume 4985.515492
_symmetry_space_group_name_H-M "C M C M"
_symmetry_group_IT_number 63
_symmetry_cell_setting 'orthorhombic'
loop_
_space_group_symop_operation_xyz
x,y,z
-x,-y,1/2+z
x,-y,-z
-x,y,1/2-z
-x,-y,-z
x,y,1/2-z
-x,y,z
x,-y,1/2+z
1/2+x,1/2+y,z
1/2-x,1/2-y,1/2+z
1/2+x,1/2-y,-z
1/2-x,1/2+y,1/2-z
1/2-x,1/2-y,-z
1/2+x,1/2+y,1/2-z
1/2-x,1/2+y,z
1/2+x,1/2-y,1/2+z
loop_
_atom_site_type_symbol
_atom_site_label
_atom_site_fract_x
_atom_site_fract_y
_atom_site_fract_z
Si Si1 0.577779 0.037136 0.094734
Si Si2 0.579689 0.392936 0.250000
Si Si3 0.340506 0.302021 0.561388
Si Si4 0.418804 0.427834 0.047095
Si Si5 0.351171 0.237365 0.750000
Si Si6 0.181426 0.326633 0.573377
Si Si7 0.684334 0.738735 0.750000
Si Si8 0.416973 0.074102 0.750000
O O1 0.500000 0.068036 0.128509
O O2 0.636973 0.098734 0.079083
O O3 0.607425 0.974330 0.163074
O O4 0.563494 0.000000 0.000000
O O5 0.500000 0.357698 0.250000
O O6 0.590036 0.439066 0.343639
O O7 0.643454 0.337147 0.250000
O O8 0.385674 0.353224 0.494320
O O9 0.374525 0.285844 0.661246
O O10 0.265180 0.342945 0.574136
O O11 0.335169 0.220310 0.517151
O O12 0.500000 0.422498 0.019095
O O13 0.383669 0.500000 0.000000
O O14 0.267431 0.223917 0.750000
O O15 0.383297 0.155376 0.750000
O O16 0.158325 0.281546 0.661660
O O17 0.500000 0.087597 0.750000
#
# Coordination Sequence:
#
# PCOD8258086 Si02
#       8
#    16   8  16  16   8  16   8   8
#     4  10  21  36  55  81 113 147 189 238 286 339
#     4  10  20  38  61  86 114 146 186 238 292 342
#     4  10  21  37  56  83 116 154 195 237 288 349
#     4  10  22  40  61  87 119 150 190 243 293 348
#     4  10  22  37  57  83 121 157 194 239 286 344
#     4  10  20  35  57  82 116 150 189 244 289 341
#     4  10  19  36  57  84 116 143 190 242 286 336
#     4  10  21  39  57  81 115 150 190 235 286 344
#
# _framework density 19.255783000000001
#
# number of rings (size 3 to 8) (size 9 to 14) (size 15 to 20)
#    0.000    2.000    1.667    1.500    0.000    3.333 
#    3.000    0.833    0.000    0.000    0.000    0.000 
#    0.000    0.000    0.000    0.000    0.000    0.000 
#
# Total GULP energy -594882.336659 kJ/mol
# GULP energy per Si atom -12393.382014 kJ/mol
# Density = 1.921196 g / cm^3
# Si number density = 19.255783 Si / 1000 Ang^3
#
#
#
# Elastic Constant Matrix: (Units=GPa)
#
#
# Indices 1 2 3 4 5 6 
#
# 1 59.5644 47.6837 24.9847 0.0000 0.0000 0.0000
# 2 47.6837 101.2420 41.1318 0.0000 0.0000 0.0000
# 3 24.9847 41.1318 145.8912 0.0000 0.0000 0.0000
# 4 0.0000 0.0000 0.0000 32.6549 0.0000 0.0000
# 5 0.0000 0.0000 0.0000 0.0000 28.6655 0.0000
# 6 0.0000 0.0000 0.0000 0.0000 0.0000 35.2758
#
#
#
# Elastic Compliance Matrix: (Units=1/GPa)
#
#
# Indices 1 2 3 4 5 6 
#
# 1 0.027128 -0.012298 -0.001179 0.000000 0.000000 0.000000
# 2 -0.012298 0.016730 -0.002611 0.000000 0.000000 0.000000
# 3 -0.001179 -0.002611 0.007792 0.000000 0.000000 0.000000
# 4 0.000000 0.000000 0.000000 0.030623 0.000000 0.000000
# 5 0.000000 0.000000 0.000000 0.000000 0.034885 0.000000
# 6 0.000000 0.000000 0.000000 0.000000 0.000000 0.028348
#
#
# Mechanical properties :
#
#
# Convention : Reuss Voigt Hill
#
# Bulk Modulus (GPa) = 51.34583 59.36646 55.35614
# Shear Modulus (GPa) = 27.14825 32.17907 29.66366
#
# Velocity S-wave (km/s) = 3.75890 4.09239 3.92919
# Velocity P-wave (km/s) = 6.74998 7.29572 7.02815
#
# Compressibility (1/GPa) = 0.01947578
#
# Stress axis : x y z
#
# Youngs Moduli (GPa) = 36.86215 59.77188 128.33163
#
# Poissons Ratio (x) = 0.73509 0.15125
# Poissons Ratio (y) = 0.45334 0.33504
# Poissons Ratio (z) = 0.04344 0.15605
#
# Static dielectric constant tensor:
#      x y z
#    x 3.490700 0.000000 0.000000 
#    y 0.000000 3.441030 0.000000 
#    z 0.000000 0.000000 3.848690 
# 
# 
# High freq. dielectric constant tensor:
#      x y z
#    x 1.741540 0.000000 0.000000 
#    y 0.000000 1.731610 0.000000 
#    z 0.000000 0.000000 1.775240 
# 
# From -- ./inp_files/35455.got.cif
#   From: 2010.03.12/outbox.cif.g09.slc.cpg/sg63_18_cif.got.tgz:35455.got - 2010.04.10 19:34:48.
