data_PCOD8258944
_publ_section_title
;
Structure prediction by ZEFSAII (Michael W. Deem and Ramdas Pophale) SiO2 
 PCOD8258944
Probable space group: C M C M
;
_chemical_formula_sum "Si O2"
_cell_formula_units_Z 104
_cell_length_a 24.359370
_cell_length_b 22.434610
_cell_length_c 9.658781
_cell_angle_alpha 90.000000
_cell_angle_beta 90.000000
_cell_angle_gamma 90.000000
_cell_volume 5278.455875
_symmetry_space_group_name_H-M "C M C M"
_symmetry_group_IT_number 63
_symmetry_cell_setting 'orthorhombic'
loop_
_space_group_symop_operation_xyz
x,y,z
-x,-y,1/2+z
x,-y,-z
-x,y,1/2-z
-x,-y,-z
x,y,1/2-z
-x,y,z
x,-y,1/2+z
1/2+x,1/2+y,z
1/2-x,1/2-y,1/2+z
1/2+x,1/2-y,-z
1/2-x,1/2+y,1/2-z
1/2-x,1/2-y,-z
1/2+x,1/2+y,1/2-z
1/2-x,1/2+y,z
1/2+x,1/2-y,1/2+z
loop_
_atom_site_type_symbol
_atom_site_label
_atom_site_fract_x
_atom_site_fract_y
_atom_site_fract_z
Si Si1 0.718196 0.703012 0.592509
Si Si2 0.642840 0.055891 0.088873
Si Si3 0.407636 0.718380 0.594666
Si Si4 0.733186 0.408696 0.596112
Si Si5 0.559797 0.592689 0.590161
Si Si6 0.648438 0.500000 0.000000
Si Si7 0.060761 0.343696 0.913572
O O1 0.741827 0.698669 0.750000
O O2 0.750000 0.750000 0.500000
O O3 0.657097 0.726610 0.597624
O O4 0.718861 0.638297 0.522315
O O5 0.630585 0.043547 0.250000
O O6 0.706895 0.066415 0.061976
O O7 0.607253 0.111414 0.031016
O O8 0.623020 0.000000 0.000000
O O9 0.431196 0.716240 0.750000
O O10 0.424676 0.656386 0.518002
O O11 0.431597 0.777513 0.519643
O O12 0.732889 0.379531 0.750000
O O13 0.688340 0.461910 0.599153
O O14 0.553878 0.605785 0.750000
O O15 0.500000 0.571175 0.530876
O O16 0.607897 0.544751 0.578067
O O17 0.068729 0.337905 0.750000
O O18 0.000000 0.367610 0.951987
#
# Coordination Sequence:
#
# PCOD8258944 Si02
#       7
#    16  16  16  16  16   8  16
#     4  11  22  37  59  87 119 151 191 241 293 354
#     4  10  21  37  56  83 116 150 192 238 290 350
#     4   9  17  32  54  80 111 145 187 237 290 345
#     4  11  23  38  58  83 118 159 197 239 292 352
#     4  10  20  34  54  83 115 148 195 248 293 343
#     4  12  21  36  56  82 117 160 202 244 290 352
#     4   9  17  31  54  82 111 143 183 236 293 345
#
# _framework density 19.702732000000001
#
# number of rings (size 3 to 8) (size 9 to 14) (size 15 to 20)
#    0.000    1.846    2.308    2.538    0.000    5.846 
#    0.000    0.000    0.000    0.000    0.000    0.000 
#    0.000    0.000    0.000    0.000    0.000    0.000 
#
# Total GULP energy -644365.674719 kJ/mol
# GULP energy per Si atom -12391.647591 kJ/mol
# Density = 1.965789 g / cm^3
# Si number density = 19.702732 Si / 1000 Ang^3
#
#
#
# Elastic Constant Matrix: (Units=GPa)
#
#
# Indices 1 2 3 4 5 6 
#
# 1 133.9814 74.9490 24.3664 0.0000 0.0000 0.0000
# 2 74.9490 147.4453 34.8119 0.0000 0.0000 0.0000
# 3 24.3664 34.8119 64.7192 0.0000 0.0000 0.0000
# 4 0.0000 0.0000 0.0000 28.9705 0.0000 0.0000
# 5 0.0000 0.0000 0.0000 0.0000 16.6555 0.0000
# 6 0.0000 0.0000 0.0000 0.0000 0.0000 30.5713
#
#
#
# Elastic Compliance Matrix: (Units=1/GPa)
#
#
# Indices 1 2 3 4 5 6 
#
# 1 0.010516 -0.005052 -0.001242 0.000000 0.000000 0.000000
# 2 -0.005052 0.010196 -0.003582 0.000000 0.000000 0.000000
# 3 -0.001242 -0.003582 0.017846 0.000000 0.000000 0.000000
# 4 0.000000 0.000000 0.000000 0.034518 0.000000 0.000000
# 5 0.000000 0.000000 0.000000 0.000000 0.060040 0.000000
# 6 0.000000 0.000000 0.000000 0.000000 0.000000 0.032710
#
#
# Mechanical properties :
#
#
# Convention : Reuss Voigt Hill
#
# Bulk Modulus (GPa) = 53.17620 68.26672 60.72146
# Shear Modulus (GPa) = 26.06254 29.37405 27.71830
#
# Velocity S-wave (km/s) = 3.64096 3.86536 3.75484
# Velocity P-wave (km/s) = 6.68755 7.39222 7.04869
#
# Compressibility (1/GPa) = 0.01880541
#
# Stress axis : x y z
#
# Youngs Moduli (GPa) = 95.09586 98.07717 56.03601
#
# Poissons Ratio (x) = 0.49550 0.06957
# Poissons Ratio (y) = 0.48044 0.20073
# Poissons Ratio (z) = 0.11807 0.35134
#
# Static dielectric constant tensor:
#      x y z
#    x 3.818330 0.000000 0.000000 
#    y 0.000000 3.849400 0.000000 
#    z 0.000000 0.000000 3.202180 
# 
# 
# High freq. dielectric constant tensor:
#      x y z
#    x 1.783900 0.000000 0.000000 
#    y 0.000000 1.781010 0.000000 
#    z 0.000000 0.000000 1.712430 
# 
# From -- ./inp_files/12587.got.cif
#   From: 2010.03.12/outbox.cif.g09.slc.cpg/sg63_7_cif.got.tgz:12587.got - 2010.04.10 19:34:48.
