data_PCOD8258541
_publ_section_title
;
Structure prediction by ZEFSAII (Michael W. Deem and Ramdas Pophale) SiO2 
 PCOD8258541
Probable space group: C M C M
;
_chemical_formula_sum "Si O2"
_cell_formula_units_Z 80
_cell_length_a 9.385953
_cell_length_b 33.103278
_cell_length_c 14.266731
_cell_angle_alpha 90.000000
_cell_angle_beta 90.000000
_cell_angle_gamma 90.000000
_cell_volume 4432.756232
_symmetry_space_group_name_H-M "C M C M"
_symmetry_group_IT_number 63
_symmetry_cell_setting 'orthorhombic'
loop_
_space_group_symop_operation_xyz
x,y,z
-x,-y,1/2+z
x,-y,-z
-x,y,1/2-z
-x,-y,-z
x,y,1/2-z
-x,y,z
x,-y,1/2+z
1/2+x,1/2+y,z
1/2-x,1/2-y,1/2+z
1/2+x,1/2-y,-z
1/2-x,1/2+y,1/2-z
1/2-x,1/2-y,-z
1/2+x,1/2+y,1/2-z
1/2-x,1/2+y,z
1/2+x,1/2-y,1/2+z
loop_
_atom_site_type_symbol
_atom_site_label
_atom_site_fract_x
_atom_site_fract_y
_atom_site_fract_z
Si Si1 0.334830 0.809312 0.493004
Si Si2 0.166689 0.756397 0.357076
Si Si3 0.663659 0.967027 0.642853
Si Si4 0.164644 0.598385 0.991429
Si Si5 0.163527 0.044670 0.860266
O O1 0.500000 0.803851 0.468417
O O2 0.247295 0.794244 0.402984
O O3 0.293740 0.784259 0.586164
O O4 0.295461 0.855549 0.513783
O O5 0.217273 0.750744 0.250000
O O6 0.000000 0.765750 0.362214
O O7 0.700192 0.956547 0.750000
O O8 0.500000 0.980388 0.630771
O O9 0.699469 0.927104 0.584404
O O10 0.759173 0.003848 0.605309
O O11 0.261755 0.583247 0.906376
O O12 0.000000 0.593946 0.961964
O O13 0.180044 0.050073 0.750000
O O14 0.000000 0.042394 0.891721
#
# Coordination Sequence:
#
# PCOD8258541 Si02
#       5
#    16  16  16  16  16
#     4   9  19  34  51  75 103 128 160 201 243 291
#     4   9  18  34  55  75  98 130 163 197 241 292
#     4   9  18  33  52  73  98 129 165 204 245 290
#     4  10  20  33  51  75 101 129 162 202 247 291
#     4  10  21  35  50  70  98 133 170 205 243 288
#
# _framework density 18.047460999999998
#
# number of rings (size 3 to 8) (size 9 to 14) (size 15 to 20)
#    0.000    2.600    0.000    1.200    0.000    7.200 
#    0.000    8.000    0.000    0.000    0.000    5.600 
#    0.000    0.000    0.000    0.000    0.000    0.000 
#
# Total GULP energy -496124.951205 kJ/mol
# GULP energy per Si atom -12403.123780 kJ/mol
# Density = 1.800638 g / cm^3
# Si number density = 18.047461 Si / 1000 Ang^3
#
#
#
# Elastic Constant Matrix: (Units=GPa)
#
#
# Indices 1 2 3 4 5 6 
#
# 1 69.8177 50.8849 45.7726 0.0000 0.0000 0.0000
# 2 50.8849 123.0810 52.1265 0.0000 0.0000 0.0000
# 3 45.7726 52.1265 99.8038 0.0000 0.0000 0.0000
# 4 0.0000 0.0000 0.0000 19.7419 0.0000 0.0000
# 5 0.0000 0.0000 0.0000 0.0000 27.7168 0.0000
# 6 0.0000 0.0000 0.0000 0.0000 0.0000 25.6679
#
#
#
# Elastic Compliance Matrix: (Units=1/GPa)
#
#
# Indices 1 2 3 4 5 6 
#
# 1 0.024253 -0.006826 -0.007558 0.000000 0.000000 0.000000
# 2 -0.006826 0.012353 -0.003322 0.000000 0.000000 0.000000
# 3 -0.007558 -0.003322 0.015221 0.000000 0.000000 0.000000
# 4 0.000000 0.000000 0.000000 0.050654 0.000000 0.000000
# 5 0.000000 0.000000 0.000000 0.000000 0.036079 0.000000
# 6 0.000000 0.000000 0.000000 0.000000 0.000000 0.038959
#
#
# Mechanical properties :
#
#
# Convention : Reuss Voigt Hill
#
# Bulk Modulus (GPa) = 60.91487 65.58562 63.25024
# Shear Modulus (GPa) = 22.89358 24.21988 23.55673
#
# Velocity S-wave (km/s) = 3.56549 3.66732 3.61677
# Velocity P-wave (km/s) = 7.12574 7.37237 7.25010
#
# Compressibility (1/GPa) = 0.01641635
#
# Stress axis : x y z
#
# Youngs Moduli (GPa) = 41.23228 80.94895 65.69992
#
# Poissons Ratio (x) = 0.55255 0.49655
# Poissons Ratio (y) = 0.28145 0.21823
# Poissons Ratio (z) = 0.31163 0.26888
#
# Static dielectric constant tensor:
#      x y z
#    x 3.361440 0.000000 0.000000 
#    y 0.000000 3.344560 0.000000 
#    z 0.000000 0.000000 3.399040 
# 
# 
# High freq. dielectric constant tensor:
#      x y z
#    x 1.695440 0.000000 0.000000 
#    y 0.000000 1.695070 0.000000 
#    z 0.000000 0.000000 1.702240 
# 
# From -- ./inp_files/40736.got.cif
#   From: 2010.03.12/outbox.cif.g09.slc.cpg/sg63_21_cif.got.tgz:40736.got - 2010.04.10 19:34:48.
