data_PCOD8258685
_publ_section_title
;
Structure prediction by ZEFSAII (Michael W. Deem and Ramdas Pophale) SiO2 
 PCOD8258685
Probable space group: C M C M
;
_chemical_formula_sum "Si O2"
_cell_formula_units_Z 88
_cell_length_a 12.038276
_cell_length_b 19.897991
_cell_length_c 18.610956
_cell_angle_alpha 90.000000
_cell_angle_beta 90.000000
_cell_angle_gamma 90.000000
_cell_volume 4458.022012
_symmetry_space_group_name_H-M "C M C M"
_symmetry_group_IT_number 63
_symmetry_cell_setting 'orthorhombic'
loop_
_space_group_symop_operation_xyz
x,y,z
-x,-y,1/2+z
x,-y,-z
-x,y,1/2-z
-x,-y,-z
x,y,1/2-z
-x,y,z
x,-y,1/2+z
1/2+x,1/2+y,z
1/2-x,1/2-y,1/2+z
1/2+x,1/2-y,-z
1/2-x,1/2+y,1/2-z
1/2-x,1/2-y,-z
1/2+x,1/2+y,1/2-z
1/2-x,1/2+y,z
1/2+x,1/2-y,1/2+z
loop_
_atom_site_type_symbol
_atom_site_label
_atom_site_fract_x
_atom_site_fract_y
_atom_site_fract_z
Si Si1 0.710054 0.498332 0.918855
Si Si2 0.500000 0.807258 0.169437
Si Si3 0.500000 0.482559 0.670364
Si Si4 0.130616 0.759980 0.334771
Si Si5 0.743518 0.650578 0.072769
Si Si6 0.285328 0.858319 0.410049
Si Si7 0.000000 0.836828 0.622018
O O1 0.607373 0.511595 0.867643
O O2 0.769942 0.426838 0.904518
O O3 0.792332 0.560738 0.905530
O O4 0.664269 0.500000 0.000000
O O5 0.500000 0.836568 0.250000
O O6 0.606280 0.830808 0.126909
O O7 0.500000 0.726851 0.174139
O O8 0.500000 0.511632 0.750000
O O9 0.500000 0.401888 0.672342
O O10 0.155841 0.758531 0.250000
O O11 0.192743 0.696799 0.370592
O O12 0.177919 0.828739 0.368848
O O13 0.000000 0.755615 0.350730
O O14 0.610492 0.662878 0.072663
O O15 0.785337 0.666348 0.992571
#
# Coordination Sequence:
#
# PCOD8258685 Si02
#       7
#    16   8   8  16  16  16   8
#     4   9  21  41  59  89 122 158 200 253 301 353
#     4  12  25  40  60  88 125 160 203 254 305 357
#     4  10  20  33  60  91 118 161 202 245 300 359
#     4  11  25  41  61  90 128 164 202 250 305 363
#     4  10  22  41  67  91 120 161 208 252 299 361
#     4  11  24  40  65  90 122 160 203 253 306 363
#     4  10  21  37  63  91 122 153 204 253 301 348
#
# _framework density 19.739695999999999
#
# number of rings (size 3 to 8) (size 9 to 14) (size 15 to 20)
#    0.000    1.636    1.818    1.636    3.818    5.818 
#    1.636    1.364    0.000    0.000    0.000    0.000 
#    0.000    0.000    0.000    0.000    0.000    0.000 
#
# Total GULP energy -545596.148627 kJ/mol
# GULP energy per Si atom -12399.912469 kJ/mol
# Density = 1.969477 g / cm^3
# Si number density = 19.739696 Si / 1000 Ang^3
#
#
#
# Elastic Constant Matrix: (Units=GPa)
#
#
# Indices 1 2 3 4 5 6 
#
# 1 87.7450 37.8975 32.5044 0.0000 0.0000 0.0000
# 2 37.8975 120.8096 39.3949 0.0000 0.0000 0.0000
# 3 32.5044 39.3949 109.9499 0.0000 0.0000 0.0000
# 4 0.0000 0.0000 0.0000 20.8268 0.0000 0.0000
# 5 0.0000 0.0000 0.0000 0.0000 44.2562 0.0000
# 6 0.0000 0.0000 0.0000 0.0000 0.0000 14.6426
#
#
#
# Elastic Compliance Matrix: (Units=1/GPa)
#
#
# Indices 1 2 3 4 5 6 
#
# 1 0.013951 -0.003433 -0.002895 0.000000 0.000000 0.000000
# 2 -0.003433 0.010217 -0.002646 0.000000 0.000000 0.000000
# 3 -0.002895 -0.002646 0.010899 0.000000 0.000000 0.000000
# 4 0.000000 0.000000 0.000000 0.048015 0.000000 0.000000
# 5 0.000000 0.000000 0.000000 0.000000 0.022596 0.000000
# 6 0.000000 0.000000 0.000000 0.000000 0.000000 0.068294
#
#
# Mechanical properties :
#
#
# Convention : Reuss Voigt Hill
#
# Bulk Modulus (GPa) = 58.40759 59.78867 59.09813
# Shear Modulus (GPa) = 25.30037 29.85897 27.57967
#
# Velocity S-wave (km/s) = 3.58397 3.89348 3.74193
# Velocity P-wave (km/s) = 6.83956 7.11102 6.97661
#
# Compressibility (1/GPa) = 0.01712106
#
# Stress axis : x y z
#
# Youngs Moduli (GPa) = 71.67691 97.87492 91.75300
#
# Poissons Ratio (x) = 0.33597 0.26558
# Poissons Ratio (y) = 0.24604 0.24278
# Poissons Ratio (z) = 0.20747 0.25898
#
# Static dielectric constant tensor:
#      x y z
#    x 3.069990 0.000000 0.000000 
#    y 0.000000 3.873320 0.000000 
#    z 0.000000 0.000000 3.582030 
# 
# 
# High freq. dielectric constant tensor:
#      x y z
#    x 1.757190 0.000000 0.000000 
#    y 0.000000 1.783590 0.000000 
#    z 0.000000 0.000000 1.774880 
# 
# From -- ./inp_files/42320.got.cif
#   From: 2010.03.12/outbox.cif.g09.slc.cpg/sg63_22_cif.got.tgz:42320.got - 2010.04.10 19:34:48.
