data_PCOD8258484
_publ_section_title
;
Structure prediction by ZEFSAII (Michael W. Deem and Ramdas Pophale) SiO2 
 PCOD8258484
Probable space group: C M C M
;
_chemical_formula_sum "Si O2"
_cell_formula_units_Z 80
_cell_length_a 9.377044
_cell_length_b 20.718654
_cell_length_c 24.248633
_cell_angle_alpha 90.000000
_cell_angle_beta 90.000000
_cell_angle_gamma 90.000000
_cell_volume 4711.017876
_symmetry_space_group_name_H-M "C M C M"
_symmetry_group_IT_number 63
_symmetry_cell_setting 'orthorhombic'
loop_
_space_group_symop_operation_xyz
x,y,z
-x,-y,1/2+z
x,-y,-z
-x,y,1/2-z
-x,-y,-z
x,y,1/2-z
-x,y,z
x,-y,1/2+z
1/2+x,1/2+y,z
1/2-x,1/2-y,1/2+z
1/2+x,1/2-y,-z
1/2-x,1/2+y,1/2-z
1/2-x,1/2-y,-z
1/2+x,1/2+y,1/2-z
1/2-x,1/2+y,z
1/2+x,1/2-y,1/2+z
loop_
_atom_site_type_symbol
_atom_site_label
_atom_site_fract_x
_atom_site_fract_y
_atom_site_fract_z
Si Si1 0.332015 0.310177 0.975518
Si Si2 0.333320 0.560943 0.969039
Si Si3 0.660027 0.008859 0.750000
Si Si4 0.661807 0.144644 0.250000
Si Si5 0.664753 0.358553 0.855867
Si Si6 0.663352 0.492264 0.352876
O O1 0.500000 0.301099 0.985366
O O2 0.298018 0.318107 0.910601
O O3 0.250000 0.250000 0.000000
O O4 0.270201 0.372202 0.008308
O O5 0.500000 0.560764 0.983329
O O6 0.304002 0.554093 0.904226
O O7 0.261442 0.500000 0.000000
O O8 0.500000 0.035681 0.750000
O O9 0.739057 0.034994 0.804039
O O10 0.665806 0.932099 0.750000
O O11 0.500000 0.170998 0.250000
O O12 0.741403 0.169110 0.305239
O O13 0.500000 0.350310 0.839322
O O14 0.698897 0.433640 0.868286
O O15 0.500000 0.486894 0.333909
#
# Coordination Sequence:
#
# PCOD8258484 Si02
#       6
#    16  16   8   8  16  16
#     4  10  20  33  50  73 102 133 163 200 247 294
#     4   9  15  28  51  75  95 121 162 206 238 272
#     4   9  17  27  39  64 103 132 149 185 247 302
#     4   9  17  27  43  68  97 126 155 195 245 288
#     4   9  16  28  47  70  95 124 160 199 238 286
#     4   9  15  26  48  72  92 119 162 206 238 276
#
# _framework density 16.981468
#
# number of rings (size 3 to 8) (size 9 to 14) (size 15 to 20)
#    0.000    2.800    2.000    0.600    0.000    3.200 
#    0.000    1.000    0.000    2.400    0.000    1.400 
#    0.000    0.000    0.000    0.000    0.000    0.000 
#
# Total GULP energy -495900.617174 kJ/mol
# GULP energy per Si atom -12397.515429 kJ/mol
# Density = 1.694282 g / cm^3
# Si number density = 16.981468 Si / 1000 Ang^3
#
#
#
# Elastic Constant Matrix: (Units=GPa)
#
#
# Indices 1 2 3 4 5 6 
#
# 1 78.0709 35.5090 68.5827 0.0000 0.0000 0.0000
# 2 35.5090 86.1540 61.3613 0.0000 0.0000 0.0000
# 3 68.5827 61.3613 133.2438 0.0000 0.0000 0.0000
# 4 0.0000 0.0000 0.0000 17.6576 0.0000 0.0000
# 5 0.0000 0.0000 0.0000 0.0000 20.5609 0.0000
# 6 0.0000 0.0000 0.0000 0.0000 0.0000 18.9308
#
#
#
# Elastic Compliance Matrix: (Units=1/GPa)
#
#
# Indices 1 2 3 4 5 6 
#
# 1 0.023527 -0.001595 -0.011375 0.000000 0.000000 0.000000
# 2 -0.001595 0.017381 -0.007183 0.000000 0.000000 0.000000
# 3 -0.011375 -0.007183 0.016668 0.000000 0.000000 0.000000
# 4 0.000000 0.000000 0.000000 0.056633 0.000000 0.000000
# 5 0.000000 0.000000 0.000000 0.000000 0.048636 0.000000
# 6 0.000000 0.000000 0.000000 0.000000 0.000000 0.052824
#
#
# Mechanical properties :
#
#
# Convention : Reuss Voigt Hill
#
# Bulk Modulus (GPa) = 57.90760 69.81941 63.86351
# Shear Modulus (GPa) = 19.10355 20.23089 19.66722
#
# Velocity S-wave (km/s) = 3.35769 3.45534 3.40686
# Velocity P-wave (km/s) = 7.01474 7.55801 7.29144
#
# Compressibility (1/GPa) = 0.01726889
#
# Stress axis : x y z
#
# Youngs Moduli (GPa) = 42.50418 57.53567 59.99543
#
# Poissons Ratio (x) = 0.09178 0.68246
# Poissons Ratio (y) = 0.06780 0.43095
# Poissons Ratio (z) = 0.48349 0.41328
#
# Static dielectric constant tensor:
#      x y z
#    x 3.025970 0.000000 0.000000 
#    y 0.000000 2.846070 0.000000 
#    z 0.000000 0.000000 3.296550 
# 
# 
# High freq. dielectric constant tensor:
#      x y z
#    x 1.632280 0.000000 0.000000 
#    y 0.000000 1.609540 0.000000 
#    z 0.000000 0.000000 1.670570 
# 
# From -- ./inp_files/59538.got.cif
#   From: 2010.03.12/outbox.cif.g09.slc.cpg/sg63_30_cif.got.tgz:59538.got - 2010.04.10 19:34:48.
