data_PCOD8258019
_publ_section_title
;
Structure prediction by ZEFSAII (Michael W. Deem and Ramdas Pophale) SiO2 
 PCOD8258019
Probable space group: C M C M
;
_chemical_formula_sum "Si O2"
_cell_formula_units_Z 112
_cell_length_a 15.435109
_cell_length_b 29.790364
_cell_length_c 13.702882
_cell_angle_alpha 90.000000
_cell_angle_beta 90.000000
_cell_angle_gamma 90.000000
_cell_volume 6300.825156
_symmetry_space_group_name_H-M "C M C M"
_symmetry_group_IT_number 63
_symmetry_cell_setting 'orthorhombic'
loop_
_space_group_symop_operation_xyz
x,y,z
-x,-y,1/2+z
x,-y,-z
-x,y,1/2-z
-x,-y,-z
x,y,1/2-z
-x,y,z
x,-y,1/2+z
1/2+x,1/2+y,z
1/2-x,1/2-y,1/2+z
1/2+x,1/2-y,-z
1/2-x,1/2+y,1/2-z
1/2-x,1/2-y,-z
1/2+x,1/2+y,1/2-z
1/2-x,1/2+y,z
1/2+x,1/2-y,1/2+z
loop_
_atom_site_type_symbol
_atom_site_label
_atom_site_fract_x
_atom_site_fract_y
_atom_site_fract_z
Si Si1 0.247093 0.480125 0.360304
Si Si2 0.901539 0.082045 0.861092
Si Si3 0.813015 0.433743 0.955288
Si Si4 0.796246 0.147591 0.994433
Si Si5 0.599960 0.710473 0.363180
Si Si6 0.500000 0.947322 0.518145
Si Si7 0.000000 0.626347 0.636169
Si Si8 0.657000 0.809985 0.364208
O O1 0.214244 0.472247 0.250000
O O2 0.346142 0.463620 0.373248
O O3 0.242649 0.532557 0.387777
O O4 0.186220 0.450989 0.431856
O O5 0.894733 0.099813 0.750000
O O6 0.866459 0.120385 0.932185
O O7 0.000000 0.070471 0.889450
O O8 0.913668 0.433146 0.921267
O O9 0.769792 0.385169 0.948263
O O10 0.744690 0.180336 0.922362
O O11 0.843333 0.176208 0.075876
O O12 0.619872 0.702007 0.250000
O O13 0.500000 0.701936 0.387330
O O14 0.623261 0.761018 0.392869
O O15 0.500000 0.921384 0.415759
O O16 0.500000 0.000000 0.500000
O O17 0.084603 0.654181 0.604374
O O18 0.000000 0.617146 0.750000
O O19 0.677401 0.813546 0.250000
#
# Coordination Sequence:
#
# PCOD8258019 Si02
#       8
#    16  16  16  16  16   8   8  16
#     4   9  18  34  51  69  98 136 177 217 261 312
#     4   9  18  33  53  77 105 136 173 222 273 323
#     4  10  21  34  49  76 104 136 176 222 264 317
#     4  11  20  33  54  80 111 139 175 218 277 326
#     4  10  21  37  56  79 109 143 185 229 269 319
#     4  12  20  36  50  74 116 141 170 220 269 314
#     4  10  20  34  58  86 110 140 177 226 279 321
#     4  10  19  35  58  85 111 138 176 225 275 325
#
# _framework density 17.775449999999999
#
# number of rings (size 3 to 8) (size 9 to 14) (size 15 to 20)
#    0.000    2.000    3.571    1.286    0.000    1.714 
#    0.000    6.786    0.000    1.714    0.000    0.500 
#    0.000    0.000    0.000    0.000    0.000    0.000 
#
# Total GULP energy -694411.037056 kJ/mol
# GULP energy per Si atom -12400.197090 kJ/mol
# Density = 1.773499 g / cm^3
# Si number density = 17.775450 Si / 1000 Ang^3
#
#
#
# Elastic Constant Matrix: (Units=GPa)
#
#
# Indices 1 2 3 4 5 6 
#
# 1 132.3604 59.7951 45.8167 0.0000 0.0000 0.0000
# 2 59.7951 119.0702 49.0444 0.0000 0.0000 0.0000
# 3 45.8167 49.0444 65.3988 0.0000 0.0000 0.0000
# 4 0.0000 0.0000 0.0000 30.8268 0.0000 0.0000
# 5 0.0000 0.0000 0.0000 0.0000 27.4093 0.0000
# 6 0.0000 0.0000 0.0000 0.0000 0.0000 30.5396
#
#
#
# Elastic Compliance Matrix: (Units=1/GPa)
#
#
# Indices 1 2 3 4 5 6 
#
# 1 0.010822 -0.003345 -0.005073 0.000000 0.000000 0.000000
# 2 -0.003345 0.013186 -0.007545 0.000000 0.000000 0.000000
# 3 -0.005073 -0.007545 0.024503 0.000000 0.000000 0.000000
# 4 0.000000 0.000000 0.000000 0.032439 0.000000 0.000000
# 5 0.000000 0.000000 0.000000 0.000000 0.036484 0.000000
# 6 0.000000 0.000000 0.000000 0.000000 0.000000 0.032744
#
#
# Mechanical properties :
#
#
# Convention : Reuss Voigt Hill
#
# Bulk Modulus (GPa) = 60.29640 69.57133 64.93386
# Shear Modulus (GPa) = 26.64750 28.56669 27.60709
#
# Velocity S-wave (km/s) = 3.87605 4.01320 3.94522
# Velocity P-wave (km/s) = 7.35027 7.79091 7.57380
#
# Compressibility (1/GPa) = 0.01658474
#
# Stress axis : x y z
#
# Youngs Moduli (GPa) = 92.40020 75.83745 40.81087
#
# Poissons Ratio (x) = 0.25369 0.20705
# Poissons Ratio (y) = 0.30910 0.30792
# Poissons Ratio (z) = 0.46877 0.57220
#
# Static dielectric constant tensor:
#      x y z
#    x 3.467420 0.000000 0.000000 
#    y 0.000000 3.264290 0.000000 
#    z 0.000000 0.000000 3.160430 
# 
# 
# High freq. dielectric constant tensor:
#      x y z
#    x 1.696530 0.000000 0.000000 
#    y 0.000000 1.685450 0.000000 
#    z 0.000000 0.000000 1.669290 
# 
# From -- ./inp_files/32631.got.cif
#   From: 2010.03.12/outbox.cif.g09.slc.cpg/sg63_17_cif.got.tgz:32631.got - 2010.04.10 19:34:48.
