data_PCOD8258510
_publ_section_title
;
Structure prediction by ZEFSAII (Michael W. Deem and Ramdas Pophale) SiO2 
 PCOD8258510
Probable space group: C M C M
;
_chemical_formula_sum "Si O2"
_cell_formula_units_Z 64
_cell_length_a 24.092064
_cell_length_b 13.402636
_cell_length_c 8.804661
_cell_angle_alpha 90.000000
_cell_angle_beta 90.000000
_cell_angle_gamma 90.000000
_cell_volume 2843.000069
_symmetry_space_group_name_H-M "C M C M"
_symmetry_group_IT_number 63
_symmetry_cell_setting 'orthorhombic'
loop_
_space_group_symop_operation_xyz
x,y,z
-x,-y,1/2+z
x,-y,-z
-x,y,1/2-z
-x,-y,-z
x,y,1/2-z
-x,y,z
x,-y,1/2+z
1/2+x,1/2+y,z
1/2-x,1/2-y,1/2+z
1/2+x,1/2-y,-z
1/2-x,1/2+y,1/2-z
1/2-x,1/2-y,-z
1/2+x,1/2+y,1/2-z
1/2-x,1/2+y,z
1/2+x,1/2-y,1/2+z
loop_
_atom_site_type_symbol
_atom_site_label
_atom_site_fract_x
_atom_site_fract_y
_atom_site_fract_z
Si Si1 0.215155 0.106223 0.069944
Si Si2 0.938799 0.698668 0.928081
Si Si3 0.330125 0.200296 0.428412
Si Si4 0.936817 0.906798 0.416830
O O1 0.208440 0.104724 0.250000
O O2 0.277886 0.134434 0.019662
O O3 0.173438 0.188485 0.000548
O O4 0.200240 0.000000 0.000000
O O5 0.931550 0.684822 0.750000
O O6 0.000000 0.657329 0.979239
O O7 0.886754 0.645541 0.012472
O O8 0.933859 0.813665 0.971810
O O9 0.332320 0.210962 0.250000
O O10 0.909654 0.884724 0.250000
O O11 0.000000 0.937672 0.387652
O O12 0.906116 0.000000 0.500000
#
# Coordination Sequence:
#
# PCOD8258510 Si02
#       4
#    16  16  16  16
#     4  10  21  38  61  87 114 145 183 231 284 335
#     4  10  20  33  50  74 106 144 183 224 272 326
#     4  10  21  37  58  85 115 147 186 231 278 332
#     4   9  16  26  40  59  87 125 169 214 258 309
#
# _framework density 22.511430000000001
#
# number of rings (size 3 to 8) (size 9 to 14) (size 15 to 20)
#    0.000    2.250    0.000    3.000    0.000    8.500 
#    0.000    5.000    0.000    0.750    0.000    0.000 
#    0.000    0.000    0.000    0.000    0.000    0.000 
#
# Total GULP energy -396603.533922 kJ/mol
# GULP energy per Si atom -12393.860435 kJ/mol
# Density = 2.246019 g / cm^3
# Si number density = 22.511430 Si / 1000 Ang^3
#
#
#
# Elastic Constant Matrix: (Units=GPa)
#
#
# Indices 1 2 3 4 5 6 
#
# 1 149.8495 -0.0950 41.9904 0.0000 0.0000 0.0000
# 2 -0.0950 29.9435 9.4197 0.0000 0.0000 0.0000
# 3 41.9904 9.4197 84.1926 0.0000 0.0000 0.0000
# 4 0.0000 0.0000 0.0000 22.6494 0.0000 0.0000
# 5 0.0000 0.0000 0.0000 0.0000 37.0355 0.0000
# 6 0.0000 0.0000 0.0000 0.0000 0.0000 3.9500
#
#
#
# Elastic Compliance Matrix: (Units=1/GPa)
#
#
# Indices 1 2 3 4 5 6 
#
# 1 0.007806 0.001295 -0.004038 0.000000 0.000000 0.000000
# 2 0.001295 0.034829 -0.004543 0.000000 0.000000 0.000000
# 3 -0.004038 -0.004543 0.014400 0.000000 0.000000 0.000000
# 4 0.000000 0.000000 0.000000 0.044151 0.000000 0.000000
# 5 0.000000 0.000000 0.000000 0.000000 0.027001 0.000000
# 6 0.000000 0.000000 0.000000 0.000000 0.000000 0.253163
#
#
# Mechanical properties :
#
#
# Convention : Reuss Voigt Hill
#
# Bulk Modulus (GPa) = 23.54958 40.73508 32.14233
# Shear Modulus (GPa) = 12.19286 26.90502 19.54894
#
# Velocity S-wave (km/s) = 2.32982 3.46088 2.95006
# Velocity P-wave (km/s) = 4.20967 5.83993 5.09048
#
# Compressibility (1/GPa) = 0.04246360
#
# Stress axis : x y z
#
# Youngs Moduli (GPa) = 128.11191 28.71133 69.44606
#
# Poissons Ratio (x) = -0.03718 0.28042
# Poissons Ratio (y) = -0.16591 0.31547
# Poissons Ratio (z) = 0.51730 0.13043
#
# Static dielectric constant tensor:
#      x y z
#    x 4.829110 0.000000 0.000000 
#    y 0.000000 3.529470 0.000000 
#    z 0.000000 0.000000 4.195620 
# 
# 
# High freq. dielectric constant tensor:
#      x y z
#    x 1.917390 0.000000 0.000000 
#    y 0.000000 1.832250 0.000000 
#    z 0.000000 0.000000 1.894960 
# 
# From -- ./inp_files/9628.got.cif
#   From: 2010.03.12/outbox.cif.g09.slc.cpg/sg63_5_cif.got.tgz:9628.got - 2010.04.10 19:34:48.
