data_PCOD8258744
_publ_section_title
;
Structure prediction by ZEFSAII (Michael W. Deem and Ramdas Pophale) SiO2 
 PCOD8258744
Probable space group: C M C M
;
_chemical_formula_sum "Si O2"
_cell_formula_units_Z 80
_cell_length_a 18.160576
_cell_length_b 25.705102
_cell_length_c 9.422464
_cell_angle_alpha 90.000000
_cell_angle_beta 90.000000
_cell_angle_gamma 90.000000
_cell_volume 4398.589542
_symmetry_space_group_name_H-M "C M C M"
_symmetry_group_IT_number 63
_symmetry_cell_setting 'orthorhombic'
loop_
_space_group_symop_operation_xyz
x,y,z
-x,-y,1/2+z
x,-y,-z
-x,y,1/2-z
-x,-y,-z
x,y,1/2-z
-x,y,z
x,-y,1/2+z
1/2+x,1/2+y,z
1/2-x,1/2-y,1/2+z
1/2+x,1/2-y,-z
1/2-x,1/2+y,1/2-z
1/2-x,1/2-y,-z
1/2+x,1/2+y,1/2-z
1/2-x,1/2+y,z
1/2+x,1/2-y,1/2+z
loop_
_atom_site_type_symbol
_atom_site_label
_atom_site_fract_x
_atom_site_fract_y
_atom_site_fract_z
Si Si1 0.336032 0.845304 0.417300
Si Si2 0.331682 0.652429 0.918139
Si Si3 0.413803 0.754739 0.584895
Si Si4 0.915532 0.450400 0.085567
Si Si5 0.914372 0.050816 0.584945
O O1 0.343110 0.835109 0.250000
O O2 0.252101 0.842913 0.470487
O O3 0.383645 0.802861 0.497369
O O4 0.366976 0.901453 0.459709
O O5 0.336464 0.650426 0.750000
O O6 0.375792 0.702468 0.974469
O O7 0.368695 0.599686 0.976891
O O8 0.395449 0.763549 0.750000
O O9 0.500000 0.749206 0.558296
O O10 0.906281 0.463485 0.250000
O O11 0.000000 0.438009 0.046438
O O12 0.885973 0.500000 0.000000
O O13 0.897583 0.041024 0.750000
O O14 0.000000 0.062898 0.559296
O O15 0.888605 0.000000 0.500000
#
# Coordination Sequence:
#
# PCOD8258744 Si02
#       5
#    16  16  16  16  16
#     4  10  20  34  52  74 101 130 161 202 251 296
#     4   9  18  33  52  73  99 132 166 200 244 296
#     4  10  20  34  53  75  98 128 167 204 239 289
#     4   9  18  32  49  69  94 125 160 196 236 284
#     4   9  17  31  51  73  99 132 169 207 245 288
#
# _framework density 18.187647999999999
#
# number of rings (size 3 to 8) (size 9 to 14) (size 15 to 20)
#    0.000    2.600    0.000    1.800    0.000    5.200 
#    0.000    4.000    0.000    2.400    0.000    0.000 
#    0.000    0.000    0.000    0.000    0.000    0.000 
#
# Total GULP energy -496089.836179 kJ/mol
# GULP energy per Si atom -12402.245904 kJ/mol
# Density = 1.814625 g / cm^3
# Si number density = 18.187648 Si / 1000 Ang^3
#
#
#
# Elastic Constant Matrix: (Units=GPa)
#
#
# Indices 1 2 3 4 5 6 
#
# 1 112.0109 82.3958 38.6858 0.0000 0.0000 0.0000
# 2 82.3958 169.2876 59.3432 0.0000 0.0000 0.0000
# 3 38.6858 59.3432 42.1727 0.0000 0.0000 0.0000
# 4 0.0000 0.0000 0.0000 32.9796 0.0000 0.0000
# 5 0.0000 0.0000 0.0000 0.0000 21.3205 0.0000
# 6 0.0000 0.0000 0.0000 0.0000 0.0000 22.0638
#
#
#
# Elastic Compliance Matrix: (Units=1/GPa)
#
#
# Indices 1 2 3 4 5 6 
#
# 1 0.014834 -0.004835 -0.006804 0.000000 0.000000 0.000000
# 2 -0.004835 0.013233 -0.014186 0.000000 0.000000 0.000000
# 3 -0.006804 -0.014186 0.049915 0.000000 0.000000 0.000000
# 4 0.000000 0.000000 0.000000 0.030322 0.000000 0.000000
# 5 0.000000 0.000000 0.000000 0.000000 0.046903 0.000000
# 6 0.000000 0.000000 0.000000 0.000000 0.000000 0.045323
#
#
# Mechanical properties :
#
#
# Convention : Reuss Voigt Hill
#
# Bulk Modulus (GPa) = 37.97578 76.03564 57.00571
# Shear Modulus (GPa) = 19.16013 24.80920 21.98466
#
# Velocity S-wave (km/s) = 3.24924 3.69734 3.48051
# Velocity P-wave (km/s) = 5.91625 7.75397 6.89660
#
# Compressibility (1/GPa) = 0.02633257
#
# Stress axis : x y z
#
# Youngs Moduli (GPa) = 67.41097 75.56770 20.03398
#
# Poissons Ratio (x) = 0.36537 0.13632
# Poissons Ratio (y) = 0.32593 0.28420
# Poissons Ratio (z) = 0.45869 1.07199
#
# Static dielectric constant tensor:
#      x y z
#    x 3.479640 0.000000 0.000000 
#    y 0.000000 3.549660 0.000000 
#    z 0.000000 0.000000 3.139380 
# 
# 
# High freq. dielectric constant tensor:
#      x y z
#    x 1.711650 0.000000 0.000000 
#    y 0.000000 1.718710 0.000000 
#    z 0.000000 0.000000 1.675690 
# 
# From -- ./inp_files/6404.got.cif
#   From: 2010.03.12/outbox.cif.g09.slc.cpg/sg63_4_cif.got.tgz:6404.got - 2010.04.10 19:34:48.
