data_PCOD8258108
_publ_section_title
;
Structure prediction by ZEFSAII (Michael W. Deem and Ramdas Pophale) SiO2 
 PCOD8258108
Probable space group: C M C M
;
_chemical_formula_sum "Si O2"
_cell_formula_units_Z 88
_cell_length_a 30.575367
_cell_length_b 14.734177
_cell_length_c 10.490375
_cell_angle_alpha 90.000000
_cell_angle_beta 90.000000
_cell_angle_gamma 90.000000
_cell_volume 4725.944037
_symmetry_space_group_name_H-M "C M C M"
_symmetry_group_IT_number 63
_symmetry_cell_setting 'orthorhombic'
loop_
_space_group_symop_operation_xyz
x,y,z
-x,-y,1/2+z
x,-y,-z
-x,y,1/2-z
-x,-y,-z
x,y,1/2-z
-x,y,z
x,-y,1/2+z
1/2+x,1/2+y,z
1/2-x,1/2-y,1/2+z
1/2+x,1/2-y,-z
1/2-x,1/2+y,1/2-z
1/2-x,1/2-y,-z
1/2+x,1/2+y,1/2-z
1/2-x,1/2+y,z
1/2+x,1/2-y,1/2+z
loop_
_atom_site_type_symbol
_atom_site_label
_atom_site_fract_x
_atom_site_fract_y
_atom_site_fract_z
Si Si1 0.402064 0.000000 0.000000
Si Si2 0.447814 0.064966 0.250000
Si Si3 0.254299 0.324878 0.106151
Si Si4 0.449798 0.443277 0.250000
Si Si5 0.599037 0.500000 0.500000
Si Si6 0.153334 0.826494 0.477195
Si Si7 0.160909 0.641710 0.892884
Si Si8 0.904340 0.239153 0.750000
O O1 0.370789 0.087789 0.987807
O O2 0.432344 0.988526 0.876086
O O3 0.500000 0.070059 0.250000
O O4 0.427718 0.164659 0.250000
O O5 0.253614 0.284250 0.250000
O O6 0.301692 0.369566 0.080480
O O7 0.211888 0.390992 0.090481
O O8 0.250000 0.250000 0.000000
O O9 0.500000 0.467583 0.250000
O O10 0.429821 0.487404 0.375564
O O11 0.442641 0.335529 0.250000
O O12 0.627765 0.412018 0.532227
O O13 0.160481 0.750648 0.585738
O O14 0.126281 0.772728 0.371262
O O15 0.144681 0.621427 0.750000
#
# Coordination Sequence:
#
# PCOD8258108 Si02
#       8
#     8   8  16   8   8  16  16   8
#     4  12  23  41  64  84 116 156 192 243 303 350
#     4  12  25  42  62  88 114 148 198 253 302 353
#     4   9  18  33  56  85 120 156 192 236 277 334
#     4  10  21  40  59  86 115 145 194 244 294 354
#     4  10  23  35  62  86 112 158 186 237 297 340
#     4  10  19  36  59  85 121 152 195 231 283 343
#     4  10  21  36  58  86 119 156 194 234 285 341
#     4  10  19  36  63  84 107 155 194 235 289 343
#
# _framework density 18.620618
#
# number of rings (size 3 to 8) (size 9 to 14) (size 15 to 20)
#    0.000    1.818    3.636    0.818    1.273    0.727 
#    0.000    0.000    0.000    1.091    0.000    0.000 
#    0.000    0.000    0.000    0.000    0.000    0.000 
#
# Total GULP energy -545256.770373 kJ/mol
# GULP energy per Si atom -12392.199327 kJ/mol
# Density = 1.857824 g / cm^3
# Si number density = 18.620618 Si / 1000 Ang^3
#
#
#
# Elastic Constant Matrix: (Units=GPa)
#
#
# Indices 1 2 3 4 5 6 
#
# 1 148.1150 47.8824 45.0473 0.0000 0.0000 0.0000
# 2 47.8824 80.3368 22.8698 0.0000 0.0000 0.0000
# 3 45.0473 22.8698 103.2416 0.0000 0.0000 0.0000
# 4 0.0000 0.0000 0.0000 12.4892 0.0000 0.0000
# 5 0.0000 0.0000 0.0000 0.0000 -29.8414 0.0000
# 6 0.0000 0.0000 0.0000 0.0000 0.0000 13.6776
#
#
#
# Elastic Compliance Matrix: (Units=1/GPa)
#
#
# Indices 1 2 3 4 5 6 
#
# 1 0.009143 -0.004604 -0.002969 0.000000 0.000000 0.000000
# 2 -0.004604 0.015604 -0.001448 0.000000 0.000000 0.000000
# 3 -0.002969 -0.001448 0.011302 0.000000 0.000000 0.000000
# 4 0.000000 0.000000 0.000000 0.080069 0.000000 0.000000
# 5 0.000000 0.000000 0.000000 0.000000 -0.033510 0.000000
# 6 0.000000 0.000000 0.000000 0.000000 0.000000 0.073112
#
#
# Mechanical properties :
#
#
# Convention : Reuss Voigt Hill
#
# Bulk Modulus (GPa) = 55.53448 62.58803 59.06126
# Shear Modulus (GPa) = 27.81411 13.65801 20.73606
#
# Velocity S-wave (km/s) = 3.86907 2.71124 3.34070
# Velocity P-wave (km/s) = 7.06035 6.59441 6.83135
#
# Compressibility (1/GPa) = 0.01800683
#
# Stress axis : x y z
#
# Youngs Moduli (GPa) = 109.37267 64.08682 88.47709
#
# Poissons Ratio (x) = 0.29506 0.26273
# Poissons Ratio (y) = 0.50356 0.12808
# Poissons Ratio (z) = 0.32478 0.09277
#
# Static dielectric constant tensor:
#      x y z
#    x 3.786410 0.000000 0.000000 
#    y 0.000000 3.137820 0.000000 
#    z 0.000000 0.000000 3.440120 
# 
# 
# High freq. dielectric constant tensor:
#      x y z
#    x 1.738440 0.000000 0.000000 
#    y 0.000000 1.695970 0.000000 
#    z 0.000000 0.000000 1.734050 
# 
# From -- ./inp_files/24944.got.cif
#   From: 2010.03.12/outbox.cif.g09.slc.cpg/sg63_13_cif.got.tgz:24944.got - 2010.04.10 19:34:48.
