data_PCOD8258171
_publ_section_title
;
Structure prediction by ZEFSAII (Michael W. Deem and Ramdas Pophale) SiO2 
 PCOD8258171
Probable space group: C M C M
;
_chemical_formula_sum "Si O2"
_cell_formula_units_Z 88
_cell_length_a 27.130417
_cell_length_b 12.530241
_cell_length_c 14.122753
_cell_angle_alpha 90.000000
_cell_angle_beta 90.000000
_cell_angle_gamma 90.000000
_cell_volume 4801.039252
_symmetry_space_group_name_H-M "C M C M"
_symmetry_group_IT_number 63
_symmetry_cell_setting 'orthorhombic'
loop_
_space_group_symop_operation_xyz
x,y,z
-x,-y,1/2+z
x,-y,-z
-x,y,1/2-z
-x,-y,-z
x,y,1/2-z
-x,y,z
x,-y,1/2+z
1/2+x,1/2+y,z
1/2-x,1/2-y,1/2+z
1/2+x,1/2-y,-z
1/2-x,1/2+y,1/2-z
1/2-x,1/2-y,-z
1/2+x,1/2+y,1/2-z
1/2-x,1/2+y,z
1/2+x,1/2-y,1/2+z
loop_
_atom_site_type_symbol
_atom_site_label
_atom_site_fract_x
_atom_site_fract_y
_atom_site_fract_z
Si Si1 0.055106 0.796723 0.544865
Si Si2 0.114745 0.496230 0.750000
Si Si3 0.311547 0.328636 0.750000
Si Si4 0.943422 0.592977 0.075312
Si Si5 0.584695 0.241927 0.750000
Si Si6 0.212655 0.998636 0.602796
Si Si7 0.780658 0.588694 0.750000
Si Si8 0.880409 0.000000 0.500000
O O1 0.073888 0.701221 0.477192
O O2 0.054054 0.762391 0.654724
O O3 0.087845 0.899565 0.528671
O O4 0.000000 0.827232 0.515346
O O5 0.094543 0.431635 0.659612
O O6 0.097160 0.617339 0.750000
O O7 0.174877 0.501119 0.750000
O O8 0.370726 0.327505 0.750000
O O9 0.288980 0.384554 0.843421
O O10 0.300088 0.205968 0.750000
O O11 0.000000 0.601925 0.112932
O O12 0.939689 0.500000 0.000000
O O13 0.155386 0.034646 0.587974
O O14 0.238870 0.000000 0.500000
O O15 0.245245 0.080894 0.660125
#
# Coordination Sequence:
#
# PCOD8258171 Si02
#       8
#    16   8   8  16   8  16   8   8
#     4  11  22  37  61  93 121 155 206 251 294 359
#     4  11  22  37  60  86 126 161 198 248 297 359
#     4  10  19  38  61  82 118 146 197 243 292 356
#     4  10  21  37  58  89 126 158 194 245 303 361
#     4  11  18  35  60  90 114 157 201 246 297 344
#     4   9  20  41  60  83 116 155 190 240 302 355
#     4  10  23  38  57  94 115 148 202 255 283 351
#     4  10  21  42  62  82 118 164 197 240 306 354
#
# _framework density 18.329364000000002
#
# number of rings (size 3 to 8) (size 9 to 14) (size 15 to 20)
#    0.545    1.273    3.636    0.818    0.000    2.182 
#    6.545    1.818    0.000    2.182    0.000    0.000 
#    0.000    0.000    0.000    0.000    0.000    0.000 
#
# Total GULP energy -545119.822560 kJ/mol
# GULP energy per Si atom -12389.086876 kJ/mol
# Density = 1.828765 g / cm^3
# Si number density = 18.329364 Si / 1000 Ang^3
#
#
#
# Elastic Constant Matrix: (Units=GPa)
#
#
# Indices 1 2 3 4 5 6 
#
# 1 91.0264 34.9028 46.5008 0.0000 0.0000 0.0000
# 2 34.9028 66.0442 44.0445 0.0000 0.0000 0.0000
# 3 46.5008 44.0445 136.9282 0.0000 0.0000 0.0000
# 4 0.0000 0.0000 0.0000 18.6949 0.0000 0.0000
# 5 0.0000 0.0000 0.0000 0.0000 -55.6374 0.0000
# 6 0.0000 0.0000 0.0000 0.0000 0.0000 19.9492
#
#
#
# Elastic Compliance Matrix: (Units=1/GPa)
#
#
# Indices 1 2 3 4 5 6 
#
# 1 0.014800 -0.005690 -0.003196 0.000000 0.000000 0.000000
# 2 -0.005690 0.021464 -0.004972 0.000000 0.000000 0.000000
# 3 -0.003196 -0.004972 0.009988 0.000000 0.000000 0.000000
# 4 0.000000 0.000000 0.000000 0.053491 0.000000 0.000000
# 5 0.000000 0.000000 0.000000 0.000000 -0.017974 0.000000
# 6 0.000000 0.000000 0.000000 0.000000 0.000000 0.050127
#
#
# Mechanical properties :
#
#
# Convention : Reuss Voigt Hill
#
# Bulk Modulus (GPa) = 53.94823 60.54390 57.24606
# Shear Modulus (GPa) = 30.15839 7.83804 18.99821
#
# Velocity S-wave (km/s) = 4.06070 2.07015 3.22295
# Velocity P-wave (km/s) = 7.17512 6.23031 6.71934
#
# Compressibility (1/GPa) = 0.01853629
#
# Stress axis : x y z
#
# Youngs Moduli (GPa) = 67.56623 46.58913 100.12398
#
# Poissons Ratio (x) = 0.26511 0.31998
# Poissons Ratio (y) = 0.38448 0.49779
# Poissons Ratio (z) = 0.21593 0.23163
#
# Static dielectric constant tensor:
#      x y z
#    x 3.512100 0.000000 0.000000 
#    y 0.000000 3.227090 0.000000 
#    z 0.000000 0.000000 3.522070 
# 
# 
# High freq. dielectric constant tensor:
#      x y z
#    x 1.711950 0.000000 0.000000 
#    y 0.000000 1.700080 0.000000 
#    z 0.000000 0.000000 1.714730 
# 
# From -- ./inp_files/37834.got.cif
#   From: 2010.03.12/outbox.cif.g09.slc.cpg/sg63_19_cif.got.tgz:37834.got - 2010.04.10 19:34:48.
