data_PCOD8258274
_publ_section_title
;
Structure prediction by ZEFSAII (Michael W. Deem and Ramdas Pophale) SiO2 
 PCOD8258274
Probable space group: C M C M
;
_chemical_formula_sum "Si O2"
_cell_formula_units_Z 128
_cell_length_a 18.097642
_cell_length_b 23.067890
_cell_length_c 17.961134
_cell_angle_alpha 90.000000
_cell_angle_beta 90.000000
_cell_angle_gamma 90.000000
_cell_volume 7498.313908
_symmetry_space_group_name_H-M "C M C M"
_symmetry_group_IT_number 63
_symmetry_cell_setting 'orthorhombic'
loop_
_space_group_symop_operation_xyz
x,y,z
-x,-y,1/2+z
x,-y,-z
-x,y,1/2-z
-x,-y,-z
x,y,1/2-z
-x,y,z
x,-y,1/2+z
1/2+x,1/2+y,z
1/2-x,1/2-y,1/2+z
1/2+x,1/2-y,-z
1/2-x,1/2+y,1/2-z
1/2-x,1/2-y,-z
1/2+x,1/2+y,1/2-z
1/2-x,1/2+y,z
1/2+x,1/2-y,1/2+z
loop_
_atom_site_type_symbol
_atom_site_label
_atom_site_fract_x
_atom_site_fract_y
_atom_site_fract_z
Si Si1 0.916246 0.668639 0.331832
Si Si2 0.326397 0.541319 0.433421
Si Si3 0.671346 0.863675 0.459475
Si Si4 0.171768 0.447415 0.166205
Si Si5 0.413885 0.762111 0.974383
Si Si6 0.346501 0.638124 0.962621
Si Si7 0.669212 0.068495 0.104318
Si Si8 0.847769 0.055954 0.666282
O O1 0.907641 0.696468 0.250000
O O2 0.893870 0.717683 0.390883
O O3 0.863201 0.613169 0.335885
O O4 0.000000 0.647619 0.346557
O O5 0.294322 0.500000 0.500000
O O6 0.372192 0.592816 0.472864
O O7 0.257899 0.569261 0.389201
O O8 0.376154 0.502674 0.376378
O O9 0.648062 0.890571 0.380026
O O10 0.629755 0.802458 0.467286
O O11 0.758681 0.852298 0.465395
O O12 0.644726 0.909671 0.522302
O O13 0.140009 0.442770 0.250000
O O14 0.139497 0.504409 0.124825
O O15 0.259974 0.450475 0.167953
O O16 0.500000 0.766827 0.992600
O O17 0.388686 0.696396 0.981468
O O18 0.370519 0.612738 0.881527
O O19 0.880794 0.060512 0.750000
#
# Coordination Sequence:
#
# PCOD8258274 Si02
#       8
#    16  16  16  16  16  16  16  16
#     4   9  18  30  40  55  84 117 146 179 218 256
#     4   8  14  25  43  66  91 113 133 167 215 258
#     4   9  17  29  45  64  89 116 144 180 218 254
#     4   9  15  24  42  67  91 113 140 176 216 257
#     4  10  20  32  46  62  82 114 153 187 217 250
#     4   9  16  28  47  67  86 114 147 176 211 256
#     4   9  14  24  43  64  84 111 142 170 209 260
#     4   8  14  24  42  70  96 112 131 169 218 262
#
# _framework density 17.070504
#
# number of rings (size 3 to 8) (size 9 to 14) (size 15 to 20)
#    0.000    3.125    0.000    3.375    0.000    1.000 
#    0.000    0.625    0.000   10.125    0.000    0.000 
#    0.000    0.000    0.000    0.000    0.000    0.000 
#
# Total GULP energy -793091.744119 kJ/mol
# GULP energy per Si atom -12392.058502 kJ/mol
# Density = 1.703165 g / cm^3
# Si number density = 17.070504 Si / 1000 Ang^3
#
#
#
# Elastic Constant Matrix: (Units=GPa)
#
#
# Indices 1 2 3 4 5 6 
#
# 1 16.4351 12.5953 8.3831 0.0000 0.0000 0.0000
# 2 12.5953 107.5992 42.0195 0.0000 0.0000 0.0000
# 3 8.3831 42.0195 94.7109 0.0000 0.0000 0.0000
# 4 0.0000 0.0000 0.0000 18.6096 0.0000 0.0000
# 5 0.0000 0.0000 0.0000 0.0000 10.1104 0.0000
# 6 0.0000 0.0000 0.0000 0.0000 0.0000 8.4650
#
#
#
# Elastic Compliance Matrix: (Units=1/GPa)
#
#
# Indices 1 2 3 4 5 6 
#
# 1 0.067533 -0.006738 -0.002988 0.000000 0.000000 0.000000
# 2 -0.006738 0.011914 -0.004689 0.000000 0.000000 0.000000
# 3 -0.002988 -0.004689 0.012903 0.000000 0.000000 0.000000
# 4 0.000000 0.000000 0.000000 0.053736 0.000000 0.000000
# 5 0.000000 0.000000 0.000000 0.000000 0.098908 0.000000
# 6 0.000000 0.000000 0.000000 0.000000 0.000000 0.118133
#
#
# Mechanical properties :
#
#
# Convention : Reuss Voigt Hill
#
# Bulk Modulus (GPa) = 15.74324 38.30454 27.02389
# Shear Modulus (GPa) = 12.10268 17.82018 14.96143
#
# Velocity S-wave (km/s) = 2.66556 3.23447 2.96370
# Velocity P-wave (km/s) = 4.32621 6.03629 5.25133
#
# Compressibility (1/GPa) = 0.06351932
#
# Stress axis : x y z
#
# Youngs Moduli (GPa) = 14.80747 83.93655 77.49932
#
# Poissons Ratio (x) = 0.56560 0.23157
# Poissons Ratio (y) = 0.09978 0.36341
# Poissons Ratio (z) = 0.04424 0.39360
#
# Static dielectric constant tensor:
#      x y z
#    x 2.719670 0.000000 0.000000 
#    y 0.000000 3.186470 0.000000 
#    z 0.000000 0.000000 3.434920 
# 
# 
# High freq. dielectric constant tensor:
#      x y z
#    x 1.606190 0.000000 0.000000 
#    y 0.000000 1.655840 0.000000 
#    z 0.000000 0.000000 1.657470 
# 
# From -- ./inp_files/47540.got.cif
#   From: 2010.03.12/outbox.cif.g09.slc.cpg/sg63_24_cif.got.tgz:47540.got - 2010.04.10 19:34:48.
