data_PCOD8258154
_publ_section_title
;
Structure prediction by ZEFSAII (Michael W. Deem and Ramdas Pophale) SiO2 
 PCOD8258154
Probable space group: C M C M
;
_chemical_formula_sum "Si O2"
_cell_formula_units_Z 96
_cell_length_a 19.757804
_cell_length_b 16.612028
_cell_length_c 14.500717
_cell_angle_alpha 90.000000
_cell_angle_beta 90.000000
_cell_angle_gamma 90.000000
_cell_volume 4759.384634
_symmetry_space_group_name_H-M "C M C M"
_symmetry_group_IT_number 63
_symmetry_cell_setting 'orthorhombic'
loop_
_space_group_symop_operation_xyz
x,y,z
-x,-y,1/2+z
x,-y,-z
-x,y,1/2-z
-x,-y,-z
x,y,1/2-z
-x,y,z
x,-y,1/2+z
1/2+x,1/2+y,z
1/2-x,1/2-y,1/2+z
1/2+x,1/2-y,-z
1/2-x,1/2+y,1/2-z
1/2-x,1/2-y,-z
1/2+x,1/2+y,1/2-z
1/2-x,1/2+y,z
1/2+x,1/2-y,1/2+z
loop_
_atom_site_type_symbol
_atom_site_label
_atom_site_fract_x
_atom_site_fract_y
_atom_site_fract_z
Si Si1 0.925540 0.686008 0.859642
Si Si2 0.301462 0.624185 0.854170
Si Si3 0.576094 0.512313 0.892810
Si Si4 0.711062 0.186569 0.356546
Si Si5 0.859636 0.843816 0.646831
Si Si6 0.823514 0.589099 0.524268
O O1 0.923000 0.681631 0.750000
O O2 0.908571 0.776397 0.897306
O O3 0.872935 0.622316 0.898007
O O4 0.000000 0.664761 0.896512
O O5 0.277386 0.603147 0.750000
O O6 0.376826 0.588441 0.869118
O O7 0.304072 0.719621 0.867168
O O8 0.251363 0.586894 0.930065
O O9 0.500000 0.525981 0.852553
O O10 0.608479 0.431850 0.851468
O O11 0.571351 0.500000 0.000000
O O12 0.698967 0.158463 0.250000
O O13 0.785175 0.162286 0.397041
O O14 0.665002 0.139473 0.429807
O O15 0.846418 0.814600 0.750000
O O16 0.845780 0.500000 0.500000
#
# Coordination Sequence:
#
# PCOD8258154 Si02
#       6
#    16  16  16  16  16  16
#     4  10  22  40  63  89 117 154 203 260 313 361
#     4  11  22  39  61  87 124 166 208 253 304 367
#     4  11  24  37  55  89 129 168 206 249 308 375
#     4  10  22  39  62  91 123 162 208 253 302 366
#     4  10  19  37  61  85 115 154 206 256 300 356
#     4  12  24  38  63  92 122 156 202 256 315 365
#
# _framework density 20.170674999999999
#
# number of rings (size 3 to 8) (size 9 to 14) (size 15 to 20)
#    0.000    1.333    1.667    4.500    2.333    5.000 
#    0.000    0.000    0.000    1.500    0.000    0.000 
#    0.000    0.000    0.000    0.000    0.000    0.000 
#
# Total GULP energy -594988.427153 kJ/mol
# GULP energy per Si atom -12395.592232 kJ/mol
# Density = 2.012477 g / cm^3
# Si number density = 20.170675 Si / 1000 Ang^3
#
#
#
# Elastic Constant Matrix: (Units=GPa)
#
#
# Indices 1 2 3 4 5 6 
#
# 1 108.3870 51.3702 16.1935 0.0000 0.0000 0.0000
# 2 51.3702 96.4426 21.1622 0.0000 0.0000 0.0000
# 3 16.1935 21.1622 73.8106 0.0000 0.0000 0.0000
# 4 0.0000 0.0000 0.0000 27.8641 0.0000 0.0000
# 5 0.0000 0.0000 0.0000 0.0000 20.5465 0.0000
# 6 0.0000 0.0000 0.0000 0.0000 0.0000 32.1168
#
#
#
# Elastic Compliance Matrix: (Units=1/GPa)
#
#
# Indices 1 2 3 4 5 6 
#
# 1 0.012396 -0.006409 -0.000882 0.000000 0.000000 0.000000
# 2 -0.006409 0.014379 -0.002716 0.000000 0.000000 0.000000
# 3 -0.000882 -0.002716 0.014521 0.000000 0.000000 0.000000
# 4 0.000000 0.000000 0.000000 0.035888 0.000000 0.000000
# 5 0.000000 0.000000 0.000000 0.000000 0.048670 0.000000
# 6 0.000000 0.000000 0.000000 0.000000 0.000000 0.031136
#
#
# Mechanical properties :
#
#
# Convention : Reuss Voigt Hill
#
# Bulk Modulus (GPa) = 46.99250 50.67687 48.83469
# Shear Modulus (GPa) = 27.15950 28.76642 27.96296
#
# Velocity S-wave (km/s) = 3.67343 3.78054 3.72737
# Velocity P-wave (km/s) = 6.42963 6.65095 6.54123
#
# Compressibility (1/GPa) = 0.02127999
#
# Stress axis : x y z
#
# Youngs Moduli (GPa) = 80.67442 69.54760 68.86810
#
# Poissons Ratio (x) = 0.44573 0.06074
# Poissons Ratio (y) = 0.51704 0.18707
# Poissons Ratio (z) = 0.07115 0.18892
#
# Static dielectric constant tensor:
#      x y z
#    x 3.782060 0.000000 0.000000 
#    y 0.000000 3.727630 0.000000 
#    z 0.000000 0.000000 3.812290 
# 
# 
# High freq. dielectric constant tensor:
#      x y z
#    x 1.772600 0.000000 0.000000 
#    y 0.000000 1.784960 0.000000 
#    z 0.000000 0.000000 1.797980 
# 
# From -- ./inp_files/35294.got.cif
#   From: 2010.03.12/outbox.cif.g09.slc.cpg/sg63_18_cif.got.tgz:35294.got - 2010.04.10 19:34:48.
