data_PCOD8258840
_publ_section_title
;
Structure prediction by ZEFSAII (Michael W. Deem and Ramdas Pophale) SiO2 
 PCOD8258840
Probable space group: C M C M
;
_chemical_formula_sum "Si O2"
_cell_formula_units_Z 96
_cell_length_a 19.296173
_cell_length_b 30.662189
_cell_length_c 8.803502
_cell_angle_alpha 90.000000
_cell_angle_beta 90.000000
_cell_angle_gamma 90.000000
_cell_volume 5208.705554
_symmetry_space_group_name_H-M "C M C M"
_symmetry_group_IT_number 63
_symmetry_cell_setting 'orthorhombic'
loop_
_space_group_symop_operation_xyz
x,y,z
-x,-y,1/2+z
x,-y,-z
-x,y,1/2-z
-x,-y,-z
x,y,1/2-z
-x,y,z
x,-y,1/2+z
1/2+x,1/2+y,z
1/2-x,1/2-y,1/2+z
1/2+x,1/2-y,-z
1/2-x,1/2+y,1/2-z
1/2-x,1/2-y,-z
1/2+x,1/2+y,1/2-z
1/2-x,1/2+y,z
1/2+x,1/2-y,1/2+z
loop_
_atom_site_type_symbol
_atom_site_label
_atom_site_fract_x
_atom_site_fract_y
_atom_site_fract_z
Si Si1 0.417687 0.788696 0.918243
Si Si2 0.320109 0.045943 0.929408
Si Si3 0.080837 0.614216 0.427053
Si Si4 0.418222 0.383194 0.076365
Si Si5 0.582410 0.704089 0.418605
Si Si6 0.825602 0.045994 0.429595
O O1 0.387262 0.781546 0.750000
O O2 0.500000 0.785719 0.911158
O O3 0.396996 0.836803 0.977490
O O4 0.387020 0.750352 0.023696
O O5 0.311882 0.040790 0.750000
O O6 0.377923 0.081336 0.966981
O O7 0.247420 0.061202 0.000669
O O8 0.343648 0.000000 0.000000
O O9 0.098405 0.606709 0.250000
O O10 0.000000 0.606391 0.456955
O O11 0.395880 0.390722 0.250000
O O12 0.500000 0.387849 0.054538
O O13 0.392769 0.335150 0.026617
O O14 0.383501 0.418724 0.968734
O O15 0.611403 0.695643 0.250000
O O16 0.500000 0.706507 0.417670
O O17 0.818374 0.041077 0.250000
O O18 0.848956 0.000000 0.500000
#
# Coordination Sequence:
#
# PCOD8258840 Si02
#       6
#    16  16  16  16  16  16
#     4   8  14  26  45  69  99 135 170 205 248 298
#     4  11  22  37  56  76 101 134 173 212 255 309
#     4   9  18  33  53  78 107 137 172 214 258 302
#     4  10  20  34  53  78 107 137 171 211 254 299
#     4   9  16  26  43  70 103 136 170 208 249 295
#     4  11  22  38  58  77 101 133 171 211 254 307
#
# _framework density 18.430682999999998
#
# number of rings (size 3 to 8) (size 9 to 14) (size 15 to 20)
#    0.000    2.333    0.000    6.000    0.000    4.667 
#    0.000    1.667    0.000    1.000    0.000    0.000 
#    0.000    0.000    0.000    0.000    0.000    0.000 
#
# Total GULP energy -595148.892920 kJ/mol
# GULP energy per Si atom -12398.935269 kJ/mol
# Density = 1.838873 g / cm^3
# Si number density = 18.430683 Si / 1000 Ang^3
#
#
#
# Elastic Constant Matrix: (Units=GPa)
#
#
# Indices 1 2 3 4 5 6 
#
# 1 38.5602 46.1898 35.6293 0.0000 0.0000 0.0000
# 2 46.1898 130.0395 62.6222 0.0000 0.0000 0.0000
# 3 35.6293 62.6222 138.7528 0.0000 0.0000 0.0000
# 4 0.0000 0.0000 0.0000 35.3657 0.0000 0.0000
# 5 0.0000 0.0000 0.0000 0.0000 23.3416 0.0000
# 6 0.0000 0.0000 0.0000 0.0000 0.0000 -6.1764
#
#
#
# Elastic Compliance Matrix: (Units=1/GPa)
#
#
# Indices 1 2 3 4 5 6 
#
# 1 0.048772 -0.014429 -0.006012 0.000000 0.000000 0.000000
# 2 -0.014429 0.014094 -0.002656 0.000000 0.000000 0.000000
# 3 -0.006012 -0.002656 0.009949 0.000000 0.000000 0.000000
# 4 0.000000 0.000000 0.000000 0.028276 0.000000 0.000000
# 5 0.000000 0.000000 0.000000 0.000000 0.042842 0.000000
# 6 0.000000 0.000000 0.000000 0.000000 0.000000 -0.161906
#
#
# Mechanical properties :
#
#
# Convention : Reuss Voigt Hill
#
# Bulk Modulus (GPa) = 37.56201 66.24835 51.90518
# Shear Modulus (GPa) = 134.79082 21.36693 78.07888
#
# Velocity S-wave (km/s) = 8.56112 3.40856 6.51579
# Velocity P-wave (km/s) = 10.86959 7.17730 9.21037
#
# Compressibility (1/GPa) = 0.02662264
#
# Stress axis : x y z
#
# Youngs Moduli (GPa) = 20.50360 70.95223 100.50803
#
# Poissons Ratio (x) = 1.02375 0.60424
# Poissons Ratio (y) = 0.29584 0.26694
# Poissons Ratio (z) = 0.12326 0.18844
#
# Static dielectric constant tensor:
#      x y z
#    x 2.968440 0.000000 0.000000 
#    y 0.000000 3.582900 0.000000 
#    z 0.000000 0.000000 3.535410 
# 
# 
# High freq. dielectric constant tensor:
#      x y z
#    x 1.668330 0.000000 0.000000 
#    y 0.000000 1.729120 0.000000 
#    z 0.000000 0.000000 1.724600 
# 
# From -- ./inp_files/8613.got.cif
#   From: 2010.03.12/outbox.cif.g09.slc.cpg/sg63_5_cif.got.tgz:8613.got - 2010.04.10 19:34:48.
