data_PCOD8258674
_publ_section_title
;
Structure prediction by ZEFSAII (Michael W. Deem and Ramdas Pophale) SiO2 
 PCOD8258674
Probable space group: C M C M
;
_chemical_formula_sum "Si O2"
_cell_formula_units_Z 96
_cell_length_a 22.085913
_cell_length_b 13.843606
_cell_length_c 14.939024
_cell_angle_alpha 90.000000
_cell_angle_beta 90.000000
_cell_angle_gamma 90.000000
_cell_volume 4567.586834
_symmetry_space_group_name_H-M "C M C M"
_symmetry_group_IT_number 63
_symmetry_cell_setting 'orthorhombic'
loop_
_space_group_symop_operation_xyz
x,y,z
-x,-y,1/2+z
x,-y,-z
-x,y,1/2-z
-x,-y,-z
x,y,1/2-z
-x,y,z
x,-y,1/2+z
1/2+x,1/2+y,z
1/2-x,1/2-y,1/2+z
1/2+x,1/2-y,-z
1/2-x,1/2+y,1/2-z
1/2-x,1/2-y,-z
1/2+x,1/2+y,1/2-z
1/2-x,1/2+y,z
1/2+x,1/2-y,1/2+z
loop_
_atom_site_type_symbol
_atom_site_label
_atom_site_fract_x
_atom_site_fract_y
_atom_site_fract_z
Si Si1 0.567675 0.148712 0.514404
Si Si2 0.153106 0.241803 0.909286
Si Si3 0.153901 0.018511 0.595244
Si Si4 0.932230 0.755100 0.250000
Si Si5 0.770915 0.407905 0.648095
Si Si6 0.432855 0.483871 0.250000
Si Si7 0.399570 0.008979 0.354529
O O1 0.500000 0.191844 0.521255
O O2 0.616595 0.236400 0.501422
O O3 0.583987 0.097474 0.608674
O O4 0.569695 0.079684 0.426917
O O5 0.170126 0.131268 0.892271
O O6 0.106063 0.281949 0.834259
O O7 0.213893 0.306195 0.901201
O O8 0.104373 0.980627 0.664469
O O9 0.123228 0.000000 0.500000
O O10 0.214892 0.956729 0.598632
O O11 0.937873 0.869525 0.250000
O O12 0.000000 0.710297 0.250000
O O13 0.752640 0.386961 0.750000
O O14 0.827144 0.480690 0.641050
O O15 0.500000 0.530170 0.250000
O O16 0.421839 0.023411 0.250000
#
# Coordination Sequence:
#
# PCOD8258674 Si02
#       7
#    16  16  16   8  16   8  16
#     4  10  20  33  55  86 121 161 207 253 301 363
#     4  10  21  37  57  90 125 155 205 259 302 360
#     4  11  24  40  66  96 120 162 205 252 317 372
#     4   9  16  31  58  88 117 152 194 254 311 345
#     4  10  20  37  60  89 127 158 199 252 308 373
#     4   9  20  41  64  90 123 154 202 258 301 355
#     4   9  19  34  53  83 124 167 196 246 308 369
#
# _framework density 21.017662000000001
#
# number of rings (size 3 to 8) (size 9 to 14) (size 15 to 20)
#    0.000    2.167    1.667    1.500    5.833    3.000 
#    0.000    0.000    1.833    0.000    0.000    0.000 
#    0.000    1.333    0.000    0.000    0.000    0.000 
#
# Total GULP energy -594916.304429 kJ/mol
# GULP energy per Si atom -12394.089676 kJ/mol
# Density = 2.096983 g / cm^3
# Si number density = 21.017662 Si / 1000 Ang^3
#
#
#
# Elastic Constant Matrix: (Units=GPa)
#
#
# Indices 1 2 3 4 5 6 
#
# 1 123.2334 36.0636 38.7996 0.0000 0.0000 0.0000
# 2 36.0636 54.0973 21.0532 0.0000 0.0000 0.0000
# 3 38.7996 21.0532 119.4469 0.0000 0.0000 0.0000
# 4 0.0000 0.0000 0.0000 27.4396 0.0000 0.0000
# 5 0.0000 0.0000 0.0000 0.0000 16.7957 0.0000
# 6 0.0000 0.0000 0.0000 0.0000 0.0000 22.5454
#
#
#
# Elastic Compliance Matrix: (Units=1/GPa)
#
#
# Indices 1 2 3 4 5 6 
#
# 1 0.010675 -0.006191 -0.002376 0.000000 0.000000 0.000000
# 2 -0.006191 0.023438 -0.002120 0.000000 0.000000 0.000000
# 3 -0.002376 -0.002120 0.009517 0.000000 0.000000 0.000000
# 4 0.000000 0.000000 0.000000 0.036444 0.000000 0.000000
# 5 0.000000 0.000000 0.000000 0.000000 0.059539 0.000000
# 6 0.000000 0.000000 0.000000 0.000000 0.000000 0.044355
#
#
# Mechanical properties :
#
#
# Convention : Reuss Voigt Hill
#
# Bulk Modulus (GPa) = 44.93409 54.29003 49.61206
# Shear Modulus (GPa) = 23.50055 26.74688 25.12372
#
# Velocity S-wave (km/s) = 3.34748 3.57121 3.46115
# Velocity P-wave (km/s) = 6.03046 6.54916 6.29515
#
# Compressibility (1/GPa) = 0.02225482
#
# Stress axis : x y z
#
# Youngs Moduli (GPa) = 93.67937 42.66626 105.07076
#
# Poissons Ratio (x) = 0.26417 0.24966
# Poissons Ratio (y) = 0.58001 0.22274
# Poissons Ratio (z) = 0.22260 0.09045
#
# Static dielectric constant tensor:
#      x y z
#    x 3.773030 0.000000 0.000000 
#    y 0.000000 3.567390 0.000000 
#    z 0.000000 0.000000 4.035250 
# 
# 
# High freq. dielectric constant tensor:
#      x y z
#    x 1.818460 0.000000 0.000000 
#    y 0.000000 1.795470 0.000000 
#    z 0.000000 0.000000 1.822350 
# 
# From -- ./inp_files/35425.got.cif
#   From: 2010.03.12/outbox.cif.g09.slc.cpg/sg63_18_cif.got.tgz:35425.got - 2010.04.10 19:34:48.
