data_PCOD8258106
_publ_section_title
;
Structure prediction by ZEFSAII (Michael W. Deem and Ramdas Pophale) SiO2 
 PCOD8258106
Probable space group: C M C M
;
_chemical_formula_sum "Si O2"
_cell_formula_units_Z 72
_cell_length_a 25.217616
_cell_length_b 17.208885
_cell_length_c 8.737862
_cell_angle_alpha 90.000000
_cell_angle_beta 90.000000
_cell_angle_gamma 90.000000
_cell_volume 3791.944228
_symmetry_space_group_name_H-M "C M C M"
_symmetry_group_IT_number 63
_symmetry_cell_setting 'orthorhombic'
loop_
_space_group_symop_operation_xyz
x,y,z
-x,-y,1/2+z
x,-y,-z
-x,y,1/2-z
-x,-y,-z
x,y,1/2-z
-x,y,z
x,-y,1/2+z
1/2+x,1/2+y,z
1/2-x,1/2-y,1/2+z
1/2+x,1/2-y,-z
1/2-x,1/2+y,1/2-z
1/2-x,1/2-y,-z
1/2+x,1/2+y,1/2-z
1/2-x,1/2+y,z
1/2+x,1/2-y,1/2+z
loop_
_atom_site_type_symbol
_atom_site_label
_atom_site_fract_x
_atom_site_fract_y
_atom_site_fract_z
Si Si1 0.059601 0.367741 0.577436
Si Si2 0.410228 0.694372 0.570064
Si Si3 0.500000 0.586564 0.067010
Si Si4 0.344478 0.924169 0.074415
Si Si5 0.192225 0.741940 0.567399
O O1 0.080917 0.380223 0.750000
O O2 0.062744 0.276858 0.534606
O O3 0.092897 0.421764 0.462760
O O4 0.000000 0.396243 0.560016
O O5 0.407537 0.675808 0.750000
O O6 0.446370 0.629272 0.489615
O O7 0.350055 0.696167 0.501729
O O8 0.500000 0.583955 0.250000
O O9 0.500000 0.500000 0.000000
O O10 0.332581 0.930962 0.250000
O O11 0.322037 0.844151 0.007926
O O12 0.317363 0.000000 0.000000
O O13 0.191710 0.749766 0.750000
O O14 0.250000 0.750000 0.500000
#
# Coordination Sequence:
#
# PCOD8258106 Si02
#       5
#    16  16   8  16  16
#     4   9  17  31  52  77 106 143 181 216 262 320
#     4  10  19  36  59  84 114 149 190 237 288 346
#     4  12  24  38  58  86 121 158 197 246 300 358
#     4  10  21  35  52  77 108 141 179 222 272 324
#     4  10  21  38  60  87 112 146 194 241 290 349
#
# _framework density 18.987621000000001
#
# number of rings (size 3 to 8) (size 9 to 14) (size 15 to 20)
#    0.000    2.000    1.111    3.000    0.000    4.444 
#    0.000    1.111    0.000    2.667    0.000    0.000 
#    0.000    0.000    0.000    0.000    0.000    0.000 
#
# Total GULP energy -446238.863868 kJ/mol
# GULP energy per Si atom -12395.523996 kJ/mol
# Density = 1.894440 g / cm^3
# Si number density = 18.987621 Si / 1000 Ang^3
#
#
#
# Elastic Constant Matrix: (Units=GPa)
#
#
# Indices 1 2 3 4 5 6 
#
# 1 133.1710 45.7402 45.2964 0.0000 0.0000 0.0000
# 2 45.7402 101.4159 39.9289 0.0000 0.0000 0.0000
# 3 45.2964 39.9289 91.5921 0.0000 0.0000 0.0000
# 4 0.0000 0.0000 0.0000 31.3130 0.0000 0.0000
# 5 0.0000 0.0000 0.0000 0.0000 33.9852 0.0000
# 6 0.0000 0.0000 0.0000 0.0000 0.0000 15.4497
#
#
#
# Elastic Compliance Matrix: (Units=1/GPa)
#
#
# Indices 1 2 3 4 5 6 
#
# 1 0.009735 -0.003012 -0.003501 0.000000 0.000000 0.000000
# 2 -0.003012 0.012835 -0.004106 0.000000 0.000000 0.000000
# 3 -0.003501 -0.004106 0.014439 0.000000 0.000000 0.000000
# 4 0.000000 0.000000 0.000000 0.031936 0.000000 0.000000
# 5 0.000000 0.000000 0.000000 0.000000 0.029425 0.000000
# 6 0.000000 0.000000 0.000000 0.000000 0.000000 0.064726
#
#
# Mechanical properties :
#
#
# Convention : Reuss Voigt Hill
#
# Bulk Modulus (GPa) = 63.40652 65.34555 64.37604
# Shear Modulus (GPa) = 26.37258 29.16381 27.76819
#
# Velocity S-wave (km/s) = 3.73089 3.92336 3.82833
# Velocity P-wave (km/s) = 7.21287 7.41709 7.31569
#
# Compressibility (1/GPa) = 0.01577125
#
# Stress axis : x y z
#
# Youngs Moduli (GPa) = 102.72711 77.90939 69.25502
#
# Poissons Ratio (x) = 0.23466 0.24247
# Poissons Ratio (y) = 0.30941 0.28436
# Poissons Ratio (z) = 0.35966 0.31989
#
# Static dielectric constant tensor:
#      x y z
#    x 3.472590 0.000000 0.000000 
#    y 0.000000 3.634530 0.000000 
#    z 0.000000 0.000000 3.577010 
# 
# 
# High freq. dielectric constant tensor:
#      x y z
#    x 1.729430 0.000000 0.000000 
#    y 0.000000 1.729730 0.000000 
#    z 0.000000 0.000000 1.746310 
# 
# From -- ./inp_files/9871.got.cif
#   From: 2010.03.12/outbox.cif.g09.slc.cpg/sg63_5_cif.got.tgz:9871.got - 2010.04.10 19:34:48.
