data_PCOD8258547
_publ_section_title
;
Structure prediction by ZEFSAII (Michael W. Deem and Ramdas Pophale) SiO2 
 PCOD8258547
Probable space group: C M C M
;
_chemical_formula_sum "Si O2"
_cell_formula_units_Z 96
_cell_length_a 9.115217
_cell_length_b 30.891191
_cell_length_c 18.503923
_cell_angle_alpha 90.000000
_cell_angle_beta 90.000000
_cell_angle_gamma 90.000000
_cell_volume 5210.332961
_symmetry_space_group_name_H-M "C M C M"
_symmetry_group_IT_number 63
_symmetry_cell_setting 'orthorhombic'
loop_
_space_group_symop_operation_xyz
x,y,z
-x,-y,1/2+z
x,-y,-z
-x,y,1/2-z
-x,-y,-z
x,y,1/2-z
-x,y,z
x,-y,1/2+z
1/2+x,1/2+y,z
1/2-x,1/2-y,1/2+z
1/2+x,1/2-y,-z
1/2-x,1/2+y,1/2-z
1/2-x,1/2-y,-z
1/2+x,1/2+y,1/2-z
1/2-x,1/2+y,z
1/2+x,1/2-y,1/2+z
loop_
_atom_site_type_symbol
_atom_site_label
_atom_site_fract_x
_atom_site_fract_y
_atom_site_fract_z
Si Si1 0.665676 0.498654 0.414102
Si Si2 0.334131 0.660762 0.335865
Si Si3 0.329125 0.913558 0.080531
Si Si4 0.829166 0.839934 0.333954
Si Si5 0.828910 0.416120 0.588044
Si Si6 0.162153 0.256831 0.664254
O O1 0.668693 0.500000 0.500000
O O2 0.500000 0.498612 0.384087
O O3 0.746656 0.455403 0.386990
O O4 0.749285 0.540562 0.383457
O O5 0.326067 0.658290 0.250000
O O6 0.500000 0.654836 0.363852
O O7 0.231582 0.623955 0.367505
O O8 0.276289 0.707323 0.364187
O O9 0.500000 0.919724 0.095949
O O10 0.271769 0.871092 0.119638
O O11 0.296253 0.908232 0.995965
O O12 0.791761 0.846533 0.250000
O O13 0.788978 0.791242 0.359789
O O14 0.000000 0.849631 0.348608
O O15 0.000000 0.421462 0.603674
O O16 0.154039 0.257496 0.750000
O O17 0.000000 0.267465 0.633198
#
# Coordination Sequence:
#
# PCOD8258547 Si02
#       6
#    16  16  16  16  16  16
#     4   9  17  31  52  74  97 129 166 202 244 294
#     4  10  20  33  51  76 102 128 163 206 249 294
#     4  10  20  33  51  76 103 131 165 204 245 291
#     4   9  18  33  53  76 101 131 167 205 246 293
#     4  10  20  34  52  74 101 132 166 203 244 293
#     4   8  15  30  51  72  96 129 166 201 242 294
#
# _framework density 18.424925999999999
#
# number of rings (size 3 to 8) (size 9 to 14) (size 15 to 20)
#    0.000    2.667    0.000    3.000    0.000    6.000 
#    0.000    3.333    0.000    5.000    0.000    0.000 
#    0.000    0.000    0.000    0.000    0.000    0.000 
#
# Total GULP energy -595175.605590 kJ/mol
# GULP energy per Si atom -12399.491783 kJ/mol
# Density = 1.838299 g / cm^3
# Si number density = 18.424926 Si / 1000 Ang^3
#
#
#
# Elastic Constant Matrix: (Units=GPa)
#
#
# Indices 1 2 3 4 5 6 
#
# 1 118.5873 72.5520 29.7496 0.0000 0.0000 0.0000
# 2 72.5520 150.8520 29.4769 0.0000 0.0000 0.0000
# 3 29.7496 29.4769 21.7801 0.0000 0.0000 0.0000
# 4 0.0000 0.0000 0.0000 29.4957 0.0000 0.0000
# 5 0.0000 0.0000 0.0000 0.0000 24.7110 0.0000
# 6 0.0000 0.0000 0.0000 0.0000 0.0000 41.7642
#
#
#
# Elastic Compliance Matrix: (Units=1/GPa)
#
#
# Indices 1 2 3 4 5 6 
#
# 1 0.014587 -0.004245 -0.014179 0.000000 0.000000 0.000000
# 2 -0.004245 0.010248 -0.008071 0.000000 0.000000 0.000000
# 3 -0.014179 -0.008071 0.076204 0.000000 0.000000 0.000000
# 4 0.000000 0.000000 0.000000 0.033903 0.000000 0.000000
# 5 0.000000 0.000000 0.000000 0.000000 0.040468 0.000000
# 6 0.000000 0.000000 0.000000 0.000000 0.000000 0.023944
#
#
# Mechanical properties :
#
#
# Convention : Reuss Voigt Hill
#
# Bulk Modulus (GPa) = 20.81237 61.64182 41.22709
# Shear Modulus (GPa) = 18.63173 29.82358 24.22766
#
# Velocity S-wave (km/s) = 3.18342 4.02761 3.63014
# Velocity P-wave (km/s) = 4.98323 7.42679 6.32415
#
# Compressibility (1/GPa) = 0.04804835
#
# Stress axis : x y z
#
# Youngs Moduli (GPa) = 68.55588 97.58348 13.12266
#
# Poissons Ratio (x) = 0.41422 0.18607
# Poissons Ratio (y) = 0.29100 0.10591
# Poissons Ratio (z) = 0.97207 0.78760
#
# Static dielectric constant tensor:
#      x y z
#    x 3.568640 0.000000 0.000000 
#    y 0.000000 3.643490 0.000000 
#    z 0.000000 0.000000 2.953650 
# 
# 
# High freq. dielectric constant tensor:
#      x y z
#    x 1.725410 0.000000 0.000000 
#    y 0.000000 1.731560 0.000000 
#    z 0.000000 0.000000 1.668100 
# 
# From -- ./inp_files/51250.got.cif
#   From: 2010.03.12/outbox.cif.g09.slc.cpg/sg63_26_cif.got.tgz:51250.got - 2010.04.10 19:34:48.
