data_PCOD8258320
_publ_section_title
;
Structure prediction by ZEFSAII (Michael W. Deem and Ramdas Pophale) SiO2 
 PCOD8258320
Probable space group: C M C M
;
_chemical_formula_sum "Si O2"
_cell_formula_units_Z 96
_cell_length_a 32.107640
_cell_length_b 18.850992
_cell_length_c 8.790132
_cell_angle_alpha 90.000000
_cell_angle_beta 90.000000
_cell_angle_gamma 90.000000
_cell_volume 5320.322896
_symmetry_space_group_name_H-M "C M C M"
_symmetry_group_IT_number 63
_symmetry_cell_setting 'orthorhombic'
loop_
_space_group_symop_operation_xyz
x,y,z
-x,-y,1/2+z
x,-y,-z
-x,y,1/2-z
-x,-y,-z
x,y,1/2-z
-x,y,z
x,-y,1/2+z
1/2+x,1/2+y,z
1/2-x,1/2-y,1/2+z
1/2+x,1/2-y,-z
1/2-x,1/2+y,1/2-z
1/2-x,1/2-y,-z
1/2+x,1/2+y,1/2-z
1/2-x,1/2+y,z
1/2+x,1/2-y,1/2+z
loop_
_atom_site_type_symbol
_atom_site_label
_atom_site_fract_x
_atom_site_fract_y
_atom_site_fract_z
Si Si1 0.872840 0.717491 0.573944
Si Si2 0.333015 0.927765 0.071843
Si Si3 0.672155 0.342492 0.428377
Si Si4 0.244196 0.074171 0.069640
Si Si5 0.409990 0.424466 0.428108
Si Si6 0.453631 0.297848 0.573553
O O1 0.863939 0.734800 0.750000
O O2 0.866064 0.634534 0.539524
O O3 0.840585 0.762893 0.474099
O O4 0.920426 0.736712 0.528950
O O5 0.324967 0.939288 0.250000
O O6 0.289678 0.907278 0.993078
O O7 0.351360 0.000000 0.000000
O O8 0.681380 0.345463 0.250000
O O9 0.713398 0.363352 0.519695
O O10 0.635344 0.395936 0.477563
O O11 0.245485 0.067970 0.250000
O O12 0.228063 0.000000 0.000000
O O13 0.418838 0.500000 0.500000
O O14 0.413179 0.432495 0.250000
O O15 0.445100 0.369732 0.482110
O O16 0.449729 0.317019 0.750000
O O17 0.500000 0.270182 0.532940
#
# Coordination Sequence:
#
# PCOD8258320 Si02
#       6
#    16  16  16  16  16  16
#     4   9  19  35  54  76 100 128 163 203 248 297
#     4  10  20  35  54  75 100 129 163 203 247 297
#     4  10  20  33  50  73 101 135 173 210 248 289
#     4  11  21  33  50  72 101 136 173 211 248 288
#     4  10  20  32  48  71 100 135 172 208 244 284
#     4   9  18  34  55  76  98 126 161 202 248 296
#
# _framework density 18.044018000000001
#
# number of rings (size 3 to 8) (size 9 to 14) (size 15 to 20)
#    0.000    2.167    0.000    4.500    0.000    6.000 
#    0.000    0.000    0.000    0.500    0.000    0.000 
#    0.000    0.000    0.000    0.000    0.000    0.667 
#
# Total GULP energy -595299.092824 kJ/mol
# GULP energy per Si atom -12402.064434 kJ/mol
# Density = 1.800295 g / cm^3
# Si number density = 18.044018 Si / 1000 Ang^3
#
#
#
# Elastic Constant Matrix: (Units=GPa)
#
#
# Indices 1 2 3 4 5 6 
#
# 1 89.4807 72.2187 39.5369 0.0000 0.0000 0.0000
# 2 72.2187 124.7984 46.9444 0.0000 0.0000 0.0000
# 3 39.5369 46.9444 89.0497 0.0000 0.0000 0.0000
# 4 0.0000 0.0000 0.0000 28.2166 0.0000 0.0000
# 5 0.0000 0.0000 0.0000 0.0000 20.4262 0.0000
# 6 0.0000 0.0000 0.0000 0.0000 0.0000 13.9660
#
#
#
# Elastic Compliance Matrix: (Units=1/GPa)
#
#
# Indices 1 2 3 4 5 6 
#
# 1 0.021956 -0.011274 -0.003805 0.000000 0.000000 0.000000
# 2 -0.011274 0.015784 -0.003315 0.000000 0.000000 0.000000
# 3 -0.003805 -0.003315 0.014667 0.000000 0.000000 0.000000
# 4 0.000000 0.000000 0.000000 0.035440 0.000000 0.000000
# 5 0.000000 0.000000 0.000000 0.000000 0.048957 0.000000
# 6 0.000000 0.000000 0.000000 0.000000 0.000000 0.071602
#
#
# Mechanical properties :
#
#
# Convention : Reuss Voigt Hill
#
# Bulk Modulus (GPa) = 64.02782 68.96986 66.49884
# Shear Modulus (GPa) = 19.96792 22.16368 21.06580
#
# Velocity S-wave (km/s) = 3.33020 3.50853 3.42053
# Velocity P-wave (km/s) = 7.09565 7.39724 7.24801
#
# Compressibility (1/GPa) = 0.01561821
#
# Stress axis : x y z
#
# Youngs Moduli (GPa) = 45.54530 63.35382 68.18189
#
# Poissons Ratio (x) = 0.71428 0.25941
# Poissons Ratio (y) = 0.51350 0.22605
# Poissons Ratio (z) = 0.17329 0.21004
#
# Static dielectric constant tensor:
#      x y z
#    x 3.323270 0.000000 0.000000 
#    y 0.000000 3.330500 0.000000 
#    z 0.000000 0.000000 3.421060 
# 
# 
# High freq. dielectric constant tensor:
#      x y z
#    x 1.685240 0.000000 0.000000 
#    y 0.000000 1.688320 0.000000 
#    z 0.000000 0.000000 1.709280 
# 
# From -- ./inp_files/12412.got.cif
#   From: 2010.03.12/outbox.cif.g09.slc.cpg/sg63_7_cif.got.tgz:12412.got - 2010.04.10 19:34:48.
