data_PCOD8258247
_publ_section_title
;
Structure prediction by ZEFSAII (Michael W. Deem and Ramdas Pophale) SiO2 
 PCOD8258247
Probable space group: C M C M
;
_chemical_formula_sum "Si O2"
_cell_formula_units_Z 112
_cell_length_a 28.124354
_cell_length_b 12.319299
_cell_length_c 15.460059
_cell_angle_alpha 90.000000
_cell_angle_beta 90.000000
_cell_angle_gamma 90.000000
_cell_volume 5356.482603
_symmetry_space_group_name_H-M "C M C M"
_symmetry_group_IT_number 63
_symmetry_cell_setting 'orthorhombic'
loop_
_space_group_symop_operation_xyz
x,y,z
-x,-y,1/2+z
x,-y,-z
-x,y,1/2-z
-x,-y,-z
x,y,1/2-z
-x,y,z
x,-y,1/2+z
1/2+x,1/2+y,z
1/2-x,1/2-y,1/2+z
1/2+x,1/2-y,-z
1/2-x,1/2+y,1/2-z
1/2-x,1/2-y,-z
1/2+x,1/2+y,1/2-z
1/2-x,1/2+y,z
1/2+x,1/2-y,1/2+z
loop_
_atom_site_type_symbol
_atom_site_label
_atom_site_fract_x
_atom_site_fract_y
_atom_site_fract_z
Si Si1 0.803030 0.952223 0.148424
Si Si2 0.055040 0.159569 0.654534
Si Si3 0.865723 0.601407 0.937873
Si Si4 0.894891 0.044148 0.404975
Si Si5 0.297556 0.966174 0.652925
Si Si6 0.556267 0.749599 0.030713
Si Si7 0.801890 0.257531 0.959327
O O1 0.803205 0.922790 0.250000
O O2 0.819228 0.849523 0.090871
O O3 0.839696 0.050767 0.126668
O O4 0.750809 0.982724 0.114262
O O5 0.064901 0.214954 0.750000
O O6 0.070632 0.232934 0.571414
O O7 0.000000 0.134756 0.642348
O O8 0.080403 0.043071 0.657697
O O9 0.840694 0.555094 0.851162
O O10 0.921243 0.635546 0.935395
O O11 0.856214 0.500000 0.000000
O O12 0.839433 0.714010 0.965194
O O13 0.922415 0.158546 0.404426
O O14 0.899293 0.000000 0.500000
O O15 0.287609 0.934021 0.750000
O O16 0.307738 0.854280 0.607398
O O17 0.500000 0.755970 0.043267
O O18 0.750000 0.250000 0.000000
#
# Coordination Sequence:
#
# PCOD8258247 Si02
#       7
#    16  16  16  16  16  16  16
#     4  11  23  36  56  87 120 159 203 244 300 366
#     4   9  17  32  54  82 117 152 190 246 311 370
#     4  10  22  40  60  86 113 159 206 253 303 353
#     4  10  20  31  53  82 118 155 195 245 303 366
#     4  10  23  40  57  84 121 159 199 247 303 359
#     4  10  21  38  60  89 119 157 208 259 310 365
#     4  11  21  36  62  85 118 156 201 247 294 366
#
# _framework density 20.909243
#
# number of rings (size 3 to 8) (size 9 to 14) (size 15 to 20)
#    0.000    1.857    1.429    3.000    4.000    2.000 
#    0.000    4.286    0.000    2.143    0.000    0.000 
#    0.000    0.000    0.000    0.000    0.000    0.000 
#
# Total GULP energy -693860.918500 kJ/mol
# GULP energy per Si atom -12390.373545 kJ/mol
# Density = 2.086165 g / cm^3
# Si number density = 20.909243 Si / 1000 Ang^3
#
#
#
# Elastic Constant Matrix: (Units=GPa)
#
#
# Indices 1 2 3 4 5 6 
#
# 1 112.2456 36.9847 18.9717 0.0000 0.0000 0.0000
# 2 36.9847 51.4302 15.2892 0.0000 0.0000 0.0000
# 3 18.9717 15.2892 45.2292 0.0000 0.0000 0.0000
# 4 0.0000 0.0000 0.0000 13.3917 0.0000 0.0000
# 5 0.0000 0.0000 0.0000 0.0000 26.6054 0.0000
# 6 0.0000 0.0000 0.0000 0.0000 0.0000 33.2325
#
#
#
# Elastic Compliance Matrix: (Units=1/GPa)
#
#
# Indices 1 2 3 4 5 6 
#
# 1 0.011893 -0.007859 -0.002332 0.000000 0.000000 0.000000
# 2 -0.007859 0.026810 -0.005766 0.000000 0.000000 0.000000
# 3 -0.002332 -0.005766 0.025037 0.000000 0.000000 0.000000
# 4 0.000000 0.000000 0.000000 0.074673 0.000000 0.000000
# 5 0.000000 0.000000 0.000000 0.000000 0.037586 0.000000
# 6 0.000000 0.000000 0.000000 0.000000 0.000000 0.030091
#
#
# Mechanical properties :
#
#
# Convention : Reuss Voigt Hill
#
# Bulk Modulus (GPa) = 31.42173 39.04403 35.23288
# Shear Modulus (GPa) = 20.11166 23.82324 21.96745
#
# Velocity S-wave (km/s) = 3.10474 3.37911 3.24483
# Velocity P-wave (km/s) = 5.28326 5.82564 5.56107
#
# Compressibility (1/GPa) = 0.03182511
#
# Stress axis : x y z
#
# Youngs Moduli (GPa) = 84.08502 37.29995 39.94112
#
# Poissons Ratio (x) = 0.29315 0.09313
# Poissons Ratio (y) = 0.66084 0.23031
# Poissons Ratio (z) = 0.19607 0.21508
#
# Static dielectric constant tensor:
#      x y z
#    x 4.024780 0.000000 0.000000 
#    y 0.000000 3.806830 0.000000 
#    z 0.000000 0.000000 3.824670 
# 
# 
# High freq. dielectric constant tensor:
#      x y z
#    x 1.828700 0.000000 0.000000 
#    y 0.000000 1.798640 0.000000 
#    z 0.000000 0.000000 1.805510 
# 
# From -- ./inp_files/38593.got.cif
#   From: 2010.03.12/outbox.cif.g09.slc.cpg/sg63_20_cif.got.tgz:38593.got - 2010.04.10 19:34:48.
