data_PCOD8258860
_publ_section_title
;
Structure prediction by ZEFSAII (Michael W. Deem and Ramdas Pophale) SiO2 
 PCOD8258860
Probable space group: C M C M
;
_chemical_formula_sum "Si O2"
_cell_formula_units_Z 96
_cell_length_a 9.012582
_cell_length_b 25.081911
_cell_length_c 23.084632
_cell_angle_alpha 90.000000
_cell_angle_beta 90.000000
_cell_angle_gamma 90.000000
_cell_volume 5218.345230
_symmetry_space_group_name_H-M "C M C M"
_symmetry_group_IT_number 63
_symmetry_cell_setting 'orthorhombic'
loop_
_space_group_symop_operation_xyz
x,y,z
-x,-y,1/2+z
x,-y,-z
-x,y,1/2-z
-x,-y,-z
x,y,1/2-z
-x,y,z
x,-y,1/2+z
1/2+x,1/2+y,z
1/2-x,1/2-y,1/2+z
1/2+x,1/2-y,-z
1/2-x,1/2+y,1/2-z
1/2-x,1/2-y,-z
1/2+x,1/2+y,1/2-z
1/2-x,1/2+y,z
1/2+x,1/2-y,1/2+z
loop_
_atom_site_type_symbol
_atom_site_label
_atom_site_fract_x
_atom_site_fract_y
_atom_site_fract_z
Si Si1 0.324140 0.105644 0.631021
Si Si2 0.327677 0.309078 0.558296
Si Si3 0.327314 0.485702 0.065089
Si Si4 0.324095 0.945362 0.250000
Si Si5 0.326982 0.409454 0.635095
Si Si6 0.173113 0.798421 0.425515
Si Si7 0.175821 0.566312 0.250000
O O1 0.500000 0.109395 0.628942
O O2 0.269077 0.065110 0.582102
O O3 0.265873 0.085575 0.693452
O O4 0.256512 0.163593 0.619592
O O5 0.500000 0.294978 0.566709
O O6 0.281478 0.362571 0.591385
O O7 0.231523 0.261227 0.584567
O O8 0.291142 0.317668 0.490707
O O9 0.500000 0.470634 0.070316
O O10 0.283793 0.534840 0.105815
O O11 0.284917 0.500000 0.000000
O O12 0.500000 0.947819 0.250000
O O13 0.261736 0.005701 0.250000
O O14 0.500000 0.406928 0.649895
O O15 0.235139 0.402718 0.693873
O O16 0.000000 0.800167 0.411849
O O17 0.000000 0.567888 0.250000
#
# Coordination Sequence:
#
# PCOD8258860 Si02
#       7
#    16  16  16   8  16  16   8
#     4  11  21  36  56  79 109 146 188 226 271 326
#     4   9  19  37  59  82 112 147 181 222 273 329
#     4  10  20  34  53  80 113 143 174 222 278 328
#     4   9  20  37  54  75 108 147 184 228 273 317
#     4  10  20  35  56  81 109 144 186 224 269 328
#     4  10  20  36  58  85 114 143 180 226 276 326
#     4  11  21  37  56  77 110 147 186 232 275 317
#
# _framework density 18.396636000000001
#
# number of rings (size 3 to 8) (size 9 to 14) (size 15 to 20)
#    0.000    2.000    1.667    2.250    0.000    4.333 
#    0.000    4.167    0.000    2.000    0.000    0.000 
#    0.000    0.000    0.000    0.000    0.000    0.000 
#
# Total GULP energy -595430.074565 kJ/mol
# GULP energy per Si atom -12404.793220 kJ/mol
# Density = 1.835476 g / cm^3
# Si number density = 18.396636 Si / 1000 Ang^3
#
#
#
# Elastic Constant Matrix: (Units=GPa)
#
#
# Indices 1 2 3 4 5 6 
#
# 1 56.3463 28.8246 23.1942 0.0000 0.0000 0.0000
# 2 28.8246 73.5991 13.0158 0.0000 0.0000 0.0000
# 3 23.1942 13.0158 71.1393 0.0000 0.0000 0.0000
# 4 0.0000 0.0000 0.0000 30.0979 0.0000 0.0000
# 5 0.0000 0.0000 0.0000 0.0000 24.6074 0.0000
# 6 0.0000 0.0000 0.0000 0.0000 0.0000 34.7219
#
#
#
# Elastic Compliance Matrix: (Units=1/GPa)
#
#
# Indices 1 2 3 4 5 6 
#
# 1 0.024814 -0.008565 -0.006523 0.000000 0.000000 0.000000
# 2 -0.008565 0.016998 -0.000318 0.000000 0.000000 0.000000
# 3 -0.006523 -0.000318 0.016242 0.000000 0.000000 0.000000
# 4 0.000000 0.000000 0.000000 0.033225 0.000000 0.000000
# 5 0.000000 0.000000 0.000000 0.000000 0.040638 0.000000
# 6 0.000000 0.000000 0.000000 0.000000 0.000000 0.028800
#
#
# Mechanical properties :
#
#
# Convention : Reuss Voigt Hill
#
# Bulk Modulus (GPa) = 36.70732 36.79486 36.75109
# Shear Modulus (GPa) = 24.92417 26.95544 25.93980
#
# Velocity S-wave (km/s) = 3.68478 3.83199 3.75911
# Velocity P-wave (km/s) = 6.17253 6.29470 6.23391
#
# Compressibility (1/GPa) = 0.02724253
#
# Stress axis : x y z
#
# Youngs Moduli (GPa) = 40.29992 58.83202 61.56927
#
# Poissons Ratio (x) = 0.50387 0.40164
# Poissons Ratio (y) = 0.34515 0.01955
# Poissons Ratio (z) = 0.26289 0.01868
#
# Static dielectric constant tensor:
#      x y z
#    x 3.270210 0.000000 0.000000 
#    y 0.000000 3.377060 0.000000 
#    z 0.000000 0.000000 3.431130 
# 
# 
# High freq. dielectric constant tensor:
#      x y z
#    x 1.707500 0.000000 0.000000 
#    y 0.000000 1.714440 0.000000 
#    z 0.000000 0.000000 1.711930 
# 
# From -- ./inp_files/60023.got.cif
#   From: 2010.03.12/outbox.cif.g09.slc.cpg/sg63_31_cif.got.tgz:60023.got - 2010.04.10 19:34:48.
