data_PCOD8258157
_publ_section_title
;
Structure prediction by ZEFSAII (Michael W. Deem and Ramdas Pophale) SiO2 
 PCOD8258157
Probable space group: C M C M
;
_chemical_formula_sum "Si O2"
_cell_formula_units_Z 80
_cell_length_a 24.519999
_cell_length_b 9.369751
_cell_length_c 18.243838
_cell_angle_alpha 90.000000
_cell_angle_beta 90.000000
_cell_angle_gamma 90.000000
_cell_volume 4191.454007
_symmetry_space_group_name_H-M "C M C M"
_symmetry_group_IT_number 63
_symmetry_cell_setting 'orthorhombic'
loop_
_space_group_symop_operation_xyz
x,y,z
-x,-y,1/2+z
x,-y,-z
-x,y,1/2-z
-x,-y,-z
x,y,1/2-z
-x,y,z
x,-y,1/2+z
1/2+x,1/2+y,z
1/2-x,1/2-y,1/2+z
1/2+x,1/2-y,-z
1/2-x,1/2+y,1/2-z
1/2-x,1/2-y,-z
1/2+x,1/2+y,1/2-z
1/2-x,1/2+y,z
1/2+x,1/2-y,1/2+z
loop_
_atom_site_type_symbol
_atom_site_label
_atom_site_fract_x
_atom_site_fract_y
_atom_site_fract_z
Si Si1 0.215630 0.440086 0.578852
Si Si2 0.409650 0.793644 0.167352
Si Si3 0.090526 0.569931 0.075657
Si Si4 0.284867 0.219800 0.834068
Si Si5 0.500000 0.613226 0.094557
Si Si6 0.500000 0.298139 0.072536
O O1 0.235864 0.500000 0.500000
O O2 0.153693 0.383525 0.570442
O O3 0.252183 0.309601 0.605798
O O4 0.221445 0.555914 0.642899
O O5 0.429647 0.798805 0.250000
O O6 0.347997 0.738135 0.159717
O O7 0.445097 0.679160 0.125509
O O8 0.418119 0.953400 0.138309
O O9 0.054018 0.708118 0.092608
O O10 0.070413 0.500000 0.000000
O O11 0.263793 0.238616 0.750000
O O12 0.500000 0.446175 0.117432
O O13 0.500000 0.649308 0.009906
#
# Coordination Sequence:
#
# PCOD8258157 Si02
#       6
#    16  16  16  16   8   8
#     4  10  21  36  58  87 116 148 192 240 279 331
#     4  10  21  38  59  82 113 154 191 228 282 344
#     4  10  19  37  62  85 112 146 193 236 279 334
#     4  10  21  38  58  84 116 153 189 230 288 346
#     4  11  22  37  55  86 115 148 184 234 288 344
#     4  11  22  36  58  85 114 144 187 237 289 330
#
# _framework density 19.086454
#
# number of rings (size 3 to 8) (size 9 to 14) (size 15 to 20)
#    0.000    1.800    2.000    2.400    0.000    2.400 
#    3.600    2.000    0.000    0.000    0.000    0.000 
#    0.000    0.000    0.000    0.000    0.000    0.000 
#
# Total GULP energy -496018.631058 kJ/mol
# GULP energy per Si atom -12400.465776 kJ/mol
# Density = 1.904301 g / cm^3
# Si number density = 19.086454 Si / 1000 Ang^3
#
#
#
# Elastic Constant Matrix: (Units=GPa)
#
#
# Indices 1 2 3 4 5 6 
#
# 1 78.6987 47.6722 22.0971 0.0000 0.0000 0.0000
# 2 47.6722 97.6390 18.3253 0.0000 0.0000 0.0000
# 3 22.0971 18.3253 72.4176 0.0000 0.0000 0.0000
# 4 0.0000 0.0000 0.0000 28.5560 0.0000 0.0000
# 5 0.0000 0.0000 0.0000 0.0000 34.6632 0.0000
# 6 0.0000 0.0000 0.0000 0.0000 0.0000 31.5309
#
#
#
# Elastic Compliance Matrix: (Units=1/GPa)
#
#
# Indices 1 2 3 4 5 6 
#
# 1 0.018898 -0.008551 -0.003603 0.000000 0.000000 0.000000
# 2 -0.008551 0.014621 -0.001091 0.000000 0.000000 0.000000
# 3 -0.003603 -0.001091 0.015184 0.000000 0.000000 0.000000
# 4 0.000000 0.000000 0.000000 0.035019 0.000000 0.000000
# 5 0.000000 0.000000 0.000000 0.000000 0.028849 0.000000
# 6 0.000000 0.000000 0.000000 0.000000 0.000000 0.031715
#
#
# Mechanical properties :
#
#
# Convention : Reuss Voigt Hill
#
# Bulk Modulus (GPa) = 45.01453 47.21605 46.11529
# Shear Modulus (GPa) = 28.06154 29.66073 28.86113
#
# Velocity S-wave (km/s) = 3.83852 3.94638 3.89283
# Velocity P-wave (km/s) = 6.57886 6.74959 6.66477
#
# Compressibility (1/GPa) = 0.02221505
#
# Stress axis : x y z
#
# Youngs Moduli (GPa) = 52.91591 68.39276 65.85824
#
# Poissons Ratio (x) = 0.58481 0.23726
# Poissons Ratio (y) = 0.45247 0.07184
# Poissons Ratio (z) = 0.19064 0.07461
#
# Static dielectric constant tensor:
#      x y z
#    x 3.505580 0.000000 0.000000 
#    y 0.000000 3.768330 0.000000 
#    z 0.000000 0.000000 3.618430 
# 
# 
# High freq. dielectric constant tensor:
#      x y z
#    x 1.745770 0.000000 0.000000 
#    y 0.000000 1.734830 0.000000 
#    z 0.000000 0.000000 1.747860 
# 
# From -- ./inp_files/57252.got.cif
#   From: 2010.03.12/outbox.cif.g09.slc.cpg/sg63_29_cif.got.tgz:57252.got - 2010.04.10 19:34:48.
