data_PCOD8258193
_publ_section_title
;
Structure prediction by ZEFSAII (Michael W. Deem and Ramdas Pophale) SiO2 
 PCOD8258193
Probable space group: C M C M
;
_chemical_formula_sum "Si O2"
_cell_formula_units_Z 72
_cell_length_a 14.312819
_cell_length_b 9.608794
_cell_length_c 26.556780
_cell_angle_alpha 90.000000
_cell_angle_beta 90.000000
_cell_angle_gamma 90.000000
_cell_volume 3652.325520
_symmetry_space_group_name_H-M "C M C M"
_symmetry_group_IT_number 63
_symmetry_cell_setting 'orthorhombic'
loop_
_space_group_symop_operation_xyz
x,y,z
-x,-y,1/2+z
x,-y,-z
-x,y,1/2-z
-x,-y,-z
x,y,1/2-z
-x,y,z
x,-y,1/2+z
1/2+x,1/2+y,z
1/2-x,1/2-y,1/2+z
1/2+x,1/2-y,-z
1/2-x,1/2+y,1/2-z
1/2-x,1/2-y,-z
1/2+x,1/2+y,1/2-z
1/2-x,1/2+y,z
1/2+x,1/2-y,1/2+z
loop_
_atom_site_type_symbol
_atom_site_label
_atom_site_fract_x
_atom_site_fract_y
_atom_site_fract_z
Si Si1 0.299475 0.674246 0.306084
Si Si2 0.699180 0.604938 0.868883
Si Si3 0.500000 0.266224 0.559776
Si Si4 0.500000 0.289391 0.669863
Si Si5 0.310366 0.858177 0.469985
Si Si6 0.500000 0.454684 0.109281
O O1 0.269407 0.625959 0.250000
O O2 0.297942 0.550098 0.346320
O O3 0.224872 0.787250 0.325084
O O4 0.403198 0.744619 0.301519
O O5 0.772917 0.616229 0.913868
O O6 0.594761 0.637658 0.890643
O O7 0.500000 0.206616 0.616848
O O8 0.411566 0.210099 0.530454
O O9 0.500000 0.436361 0.562002
O O10 0.500000 0.456831 0.661150
O O11 0.250000 0.750000 0.500000
O O12 0.314118 0.000000 0.500000
#
# Coordination Sequence:
#
# PCOD8258193 Si02
#       6
#    16  16   8   8  16   8
#     4  11  21  37  64  90 117 158 201 247 306 363
#     4  11  21  41  58  88 123 153 200 253 296 355
#     4  10  19  42  59  87 120 160 198 246 293 363
#     4   8  17  37  61  82 117 155 195 238 295 363
#     4  12  24  39  64  92 121 164 204 251 305 366
#     4   8  18  35  62  78 115 161 186 244 306 339
#
# _framework density 19.713466
#
# number of rings (size 3 to 8) (size 9 to 14) (size 15 to 20)
#    0.667    0.889    2.222    4.000    0.000    0.889 
#    0.000    8.333    0.000    0.000    0.000    0.000 
#    0.000    0.000    0.000    0.000    0.000    0.000 
#
# Total GULP energy -446183.182805 kJ/mol
# GULP energy per Si atom -12393.977300 kJ/mol
# Density = 1.966860 g / cm^3
# Si number density = 19.713466 Si / 1000 Ang^3
#
#
#
# Elastic Constant Matrix: (Units=GPa)
#
#
# Indices 1 2 3 4 5 6 
#
# 1 161.8369 58.2994 38.0407 0.0000 0.0000 0.0000
# 2 58.2994 73.6108 28.8444 0.0000 0.0000 0.0000
# 3 38.0407 28.8444 102.9125 0.0000 0.0000 0.0000
# 4 0.0000 0.0000 0.0000 35.0734 0.0000 0.0000
# 5 0.0000 0.0000 0.0000 0.0000 14.6812 0.0000
# 6 0.0000 0.0000 0.0000 0.0000 0.0000 30.3531
#
#
#
# Elastic Compliance Matrix: (Units=1/GPa)
#
#
# Indices 1 2 3 4 5 6 
#
# 1 0.008838 -0.006425 -0.001466 0.000000 0.000000 0.000000
# 2 -0.006425 0.019932 -0.003212 0.000000 0.000000 0.000000
# 3 -0.001466 -0.003212 0.011159 0.000000 0.000000 0.000000
# 4 0.000000 0.000000 0.000000 0.028512 0.000000 0.000000
# 5 0.000000 0.000000 0.000000 0.000000 0.068114 0.000000
# 6 0.000000 0.000000 0.000000 0.000000 0.000000 0.032946
#
#
# Mechanical properties :
#
#
# Convention : Reuss Voigt Hill
#
# Bulk Modulus (GPa) = 56.42199 65.41435 60.91817
# Shear Modulus (GPa) = 25.30170 30.23324 27.76747
#
# Velocity S-wave (km/s) = 3.58645 3.92041 3.75714
# Velocity P-wave (km/s) = 6.77003 7.33127 7.05623
#
# Compressibility (1/GPa) = 0.01772359
#
# Stress axis : x y z
#
# Youngs Moduli (GPa) = 113.14323 50.16970 89.61329
#
# Poissons Ratio (x) = 0.32236 0.13138
# Poissons Ratio (y) = 0.72700 0.28780
# Poissons Ratio (z) = 0.16588 0.16112
#
# Static dielectric constant tensor:
#      x y z
#    x 3.808410 0.000000 0.000000 
#    y 0.000000 3.335900 0.000000 
#    z 0.000000 0.000000 3.506080 
# 
# 
# High freq. dielectric constant tensor:
#      x y z
#    x 1.782340 0.000000 0.000000 
#    y 0.000000 1.738550 0.000000 
#    z 0.000000 0.000000 1.768320 
# 
# From -- ./inp_files/69103.got.cif
#   From: 2010.03.12/outbox.cif.g09.slc.cpg/sg63_35_cif.got.tgz:69103.got - 2010.04.10 19:34:48.
