data_PCOD8258375
_publ_section_title
;
Structure prediction by ZEFSAII (Michael W. Deem and Ramdas Pophale) SiO2 
 PCOD8258375
Probable space group: C M C M
;
_chemical_formula_sum "Si O2"
_cell_formula_units_Z 96
_cell_length_a 23.274526
_cell_length_b 25.400924
_cell_length_c 9.191277
_cell_angle_alpha 90.000000
_cell_angle_beta 90.000000
_cell_angle_gamma 90.000000
_cell_volume 5433.832098
_symmetry_space_group_name_H-M "C M C M"
_symmetry_group_IT_number 63
_symmetry_cell_setting 'orthorhombic'
loop_
_space_group_symop_operation_xyz
x,y,z
-x,-y,1/2+z
x,-y,-z
-x,y,1/2-z
-x,-y,-z
x,y,1/2-z
-x,y,z
x,-y,1/2+z
1/2+x,1/2+y,z
1/2-x,1/2-y,1/2+z
1/2+x,1/2-y,-z
1/2-x,1/2+y,1/2-z
1/2-x,1/2-y,-z
1/2+x,1/2+y,1/2-z
1/2-x,1/2+y,z
1/2+x,1/2-y,1/2+z
loop_
_atom_site_type_symbol
_atom_site_label
_atom_site_fract_x
_atom_site_fract_y
_atom_site_fract_z
Si Si1 0.875290 0.656972 0.579047
Si Si2 0.748183 0.805298 0.419560
Si Si3 0.566073 0.948229 0.420128
Si Si4 0.566725 0.250164 0.415657
Si Si5 0.066068 0.945444 0.920986
Si Si6 0.367662 0.354094 0.079428
O O1 0.884287 0.661070 0.750000
O O2 0.809177 0.663991 0.533419
O O3 0.896148 0.600366 0.522055
O O4 0.915285 0.701167 0.511375
O O5 0.748975 0.791628 0.250000
O O6 0.750000 0.750000 0.500000
O O7 0.800958 0.843747 0.458946
O O8 0.574075 0.957301 0.250000
O O9 0.500000 0.936898 0.460912
O O10 0.589183 0.000000 0.500000
O O11 0.583949 0.237838 0.250000
O O12 0.500000 0.260967 0.434316
O O13 0.598637 0.302181 0.470522
O O14 0.077720 0.952008 0.750000
O O15 0.000000 0.928717 0.950975
O O16 0.109160 0.902348 0.985421
O O17 0.080133 0.000000 0.000000
O O18 0.377131 0.366241 0.250000
#
# Coordination Sequence:
#
# PCOD8258375 Si02
#       6
#    16  16  16  16  16  16
#     4  10  20  34  53  77 105 137 174 219 267 313
#     4  10  20  35  55  77 105 143 181 218 261 314
#     4   9  18  33  52  74 101 133 169 210 259 310
#     4  10  20  32  49  76 108 140 174 215 265 319
#     4  10  21  37  58  83 109 140 179 223 272 325
#     4  10  20  35  54  77 108 144 179 218 265 319
#
# _framework density 17.667090000000002
#
# number of rings (size 3 to 8) (size 9 to 14) (size 15 to 20)
#    0.000    2.167    1.667    1.500    0.000    4.667 
#    0.000    2.500    0.000    2.000    0.000    0.000 
#    0.000    0.000    0.000    0.000    0.000    0.000 
#
# Total GULP energy -595319.234284 kJ/mol
# GULP energy per Si atom -12402.484048 kJ/mol
# Density = 1.762688 g / cm^3
# Si number density = 17.667090 Si / 1000 Ang^3
#
#
#
# Elastic Constant Matrix: (Units=GPa)
#
#
# Indices 1 2 3 4 5 6 
#
# 1 79.0294 56.6811 25.9602 0.0000 0.0000 0.0000
# 2 56.6811 141.6099 49.5452 0.0000 0.0000 0.0000
# 3 25.9602 49.5452 48.6164 0.0000 0.0000 0.0000
# 4 0.0000 0.0000 0.0000 36.9166 0.0000 0.0000
# 5 0.0000 0.0000 0.0000 0.0000 24.2945 0.0000
# 6 0.0000 0.0000 0.0000 0.0000 0.0000 17.1058
#
#
#
# Elastic Compliance Matrix: (Units=1/GPa)
#
#
# Indices 1 2 3 4 5 6 
#
# 1 0.018135 -0.006016 -0.003553 0.000000 0.000000 0.000000
# 2 -0.006016 0.012970 -0.010006 0.000000 0.000000 0.000000
# 3 -0.003553 -0.010006 0.032663 0.000000 0.000000 0.000000
# 4 0.000000 0.000000 0.000000 0.027088 0.000000 0.000000
# 5 0.000000 0.000000 0.000000 0.000000 0.041162 0.000000
# 6 0.000000 0.000000 0.000000 0.000000 0.000000 0.058460
#
#
# Mechanical properties :
#
#
# Convention : Reuss Voigt Hill
#
# Bulk Modulus (GPa) = 40.61815 59.29208 49.95512
# Shear Modulus (GPa) = 21.02304 24.80134 22.91219
#
# Velocity S-wave (km/s) = 3.45331 3.75082 3.60514
# Velocity P-wave (km/s) = 6.24029 7.23822 6.75770
#
# Compressibility (1/GPa) = 0.02461954
#
# Stress axis : x y z
#
# Youngs Moduli (GPa) = 55.14118 77.09975 30.61526
#
# Poissons Ratio (x) = 0.46381 0.10878
# Poissons Ratio (y) = 0.33171 0.30633
# Poissons Ratio (z) = 0.19593 0.77144
#
# Static dielectric constant tensor:
#      x y z
#    x 3.471720 0.000000 0.000000 
#    y 0.000000 3.344530 0.000000 
#    z 0.000000 0.000000 3.206960 
# 
# 
# High freq. dielectric constant tensor:
#      x y z
#    x 1.686830 0.000000 0.000000 
#    y 0.000000 1.683910 0.000000 
#    z 0.000000 0.000000 1.679500 
# 
# From -- ./inp_files/8605.got.cif
#   From: 2010.03.12/outbox.cif.g09.slc.cpg/sg63_5_cif.got.tgz:8605.got - 2010.04.10 19:34:48.
