data_PCOD8258200
_publ_section_title
;
Structure prediction by ZEFSAII (Michael W. Deem and Ramdas Pophale) SiO2 
 PCOD8258200
Probable space group: C M C M
;
_chemical_formula_sum "Si O2"
_cell_formula_units_Z 88
_cell_length_a 30.401029
_cell_length_b 17.672954
_cell_length_c 9.147833
_cell_angle_alpha 90.000000
_cell_angle_beta 90.000000
_cell_angle_gamma 90.000000
_cell_volume 4914.911005
_symmetry_space_group_name_H-M "C M C M"
_symmetry_group_IT_number 63
_symmetry_cell_setting 'orthorhombic'
loop_
_space_group_symop_operation_xyz
x,y,z
-x,-y,1/2+z
x,-y,-z
-x,y,1/2-z
-x,-y,-z
x,y,1/2-z
-x,y,z
x,-y,1/2+z
1/2+x,1/2+y,z
1/2-x,1/2-y,1/2+z
1/2+x,1/2-y,-z
1/2-x,1/2+y,1/2-z
1/2-x,1/2-y,-z
1/2+x,1/2+y,1/2-z
1/2-x,1/2+y,z
1/2+x,1/2-y,1/2+z
loop_
_atom_site_type_symbol
_atom_site_label
_atom_site_fract_x
_atom_site_fract_y
_atom_site_fract_z
Si Si1 0.330491 0.072565 0.920116
Si Si2 0.908089 0.634242 0.084024
Si Si3 0.876404 0.198448 0.917950
Si Si4 0.500000 0.922825 0.581531
Si Si5 0.550021 0.421289 0.422357
Si Si6 0.204169 0.262052 0.077646
O O1 0.330264 0.055643 0.750000
O O2 0.306489 0.150767 0.959319
O O3 0.380143 0.080781 0.977690
O O4 0.308020 0.000000 0.000000
O O5 0.898572 0.608031 0.250000
O O6 0.899395 0.721834 0.063634
O O7 0.958256 0.626375 0.036866
O O8 0.863289 0.181632 0.750000
O O9 0.912272 0.137502 0.975551
O O10 0.831689 0.202324 0.013935
O O11 0.500000 0.943119 0.750000
O O12 0.500000 0.000000 0.500000
O O13 0.560623 0.500000 0.500000
O O14 0.553703 0.433239 0.250000
O O15 0.500000 0.393845 0.462298
O O16 0.207618 0.247672 0.250000
O O17 0.250000 0.250000 0.000000
#
# Coordination Sequence:
#
# PCOD8258200 Si02
#       6
#    16  16  16   8  16  16
#     4  10  20  34  53  76 101 130 166 206 249 301
#     4   9  18  31  48  70  97 132 170 209 248 291
#     4   9  18  33  54  77 102 135 175 215 259 311
#     4  10  20  30  42  64  95 130 166 202 241 282
#     4   9  18  32  52  78 108 143 181 223 268 318
#     4  10  21  37  57  80 106 134 169 215 265 317
#
# _framework density 17.904698
#
# number of rings (size 3 to 8) (size 9 to 14) (size 15 to 20)
#    0.000    2.545    0.000    1.636    1.273    5.091 
#    0.000    0.909    0.000    0.000    0.000    0.000 
#    0.000    0.000    0.000    0.000    0.000    0.000 
#
# Total GULP energy -545389.692091 kJ/mol
# GULP energy per Si atom -12395.220275 kJ/mol
# Density = 1.786395 g / cm^3
# Si number density = 17.904698 Si / 1000 Ang^3
#
#
#
# Elastic Constant Matrix: (Units=GPa)
#
#
# Indices 1 2 3 4 5 6 
#
# 1 145.8875 57.5252 60.7123 0.0000 0.0000 0.0000
# 2 57.5252 87.5707 47.2861 0.0000 0.0000 0.0000
# 3 60.7123 47.2861 72.2269 0.0000 0.0000 0.0000
# 4 0.0000 0.0000 0.0000 31.8233 0.0000 0.0000
# 5 0.0000 0.0000 0.0000 0.0000 28.1841 0.0000
# 6 0.0000 0.0000 0.0000 0.0000 0.0000 19.4966
#
#
#
# Elastic Compliance Matrix: (Units=1/GPa)
#
#
# Indices 1 2 3 4 5 6 
#
# 1 0.011202 -0.003518 -0.007113 0.000000 0.000000 0.000000
# 2 -0.003518 0.018768 -0.009331 0.000000 0.000000 0.000000
# 3 -0.007113 -0.009331 0.025933 0.000000 0.000000 0.000000
# 4 0.000000 0.000000 0.000000 0.031424 0.000000 0.000000
# 5 0.000000 0.000000 0.000000 0.000000 0.035481 0.000000
# 6 0.000000 0.000000 0.000000 0.000000 0.000000 0.051291
#
#
# Mechanical properties :
#
#
# Convention : Reuss Voigt Hill
#
# Bulk Modulus (GPa) = 62.57582 70.74803 66.66192
# Shear Modulus (GPa) = 22.79483 25.24489 24.01986
#
# Velocity S-wave (km/s) = 3.57195 3.75902 3.66668
# Velocity P-wave (km/s) = 7.21367 7.64459 7.43225
#
# Compressibility (1/GPa) = 0.01598061
#
# Stress axis : x y z
#
# Youngs Moduli (GPa) = 89.27167 53.28114 38.56094
#
# Poissons Ratio (x) = 0.18742 0.27429
# Poissons Ratio (y) = 0.31402 0.35980
# Poissons Ratio (z) = 0.63499 0.49715
#
# Static dielectric constant tensor:
#      x y z
#    x 3.426600 0.000000 0.000000 
#    y 0.000000 3.351780 0.000000 
#    z 0.000000 0.000000 3.320350 
# 
# 
# High freq. dielectric constant tensor:
#      x y z
#    x 1.690010 0.000000 0.000000 
#    y 0.000000 1.690250 0.000000 
#    z 0.000000 0.000000 1.692120 
# 
# From -- ./inp_files/14146.got.cif
#   From: 2010.03.12/outbox.cif.g09.slc.cpg/sg63_8_cif.got.tgz:14146.got - 2010.04.10 19:34:48.
