data_PCOD8258173
_publ_section_title
;
Structure prediction by ZEFSAII (Michael W. Deem and Ramdas Pophale) SiO2 
 PCOD8258173
Probable space group: C M C M
;
_chemical_formula_sum "Si O2"
_cell_formula_units_Z 80
_cell_length_a 10.214629
_cell_length_b 16.716348
_cell_length_c 22.064013
_cell_angle_alpha 90.000000
_cell_angle_beta 90.000000
_cell_angle_gamma 90.000000
_cell_volume 3767.458750
_symmetry_space_group_name_H-M "C M C M"
_symmetry_group_IT_number 63
_symmetry_cell_setting 'orthorhombic'
loop_
_space_group_symop_operation_xyz
x,y,z
-x,-y,1/2+z
x,-y,-z
-x,y,1/2-z
-x,-y,-z
x,y,1/2-z
-x,y,z
x,-y,1/2+z
1/2+x,1/2+y,z
1/2-x,1/2-y,1/2+z
1/2+x,1/2-y,-z
1/2-x,1/2+y,1/2-z
1/2-x,1/2-y,-z
1/2+x,1/2+y,1/2-z
1/2-x,1/2+y,z
1/2+x,1/2-y,1/2+z
loop_
_atom_site_type_symbol
_atom_site_label
_atom_site_fract_x
_atom_site_fract_y
_atom_site_fract_z
Si Si1 0.000000 0.104181 0.319687
Si Si2 0.500000 0.974365 0.865180
Si Si3 0.280492 0.678558 0.680580
Si Si4 0.783197 0.500000 0.500000
Si Si5 0.000000 0.399275 0.468352
Si Si6 0.000000 0.301945 0.678841
Si Si7 0.215216 0.988712 0.366135
Si Si8 0.500000 0.224555 0.635319
O O1 0.871904 0.051781 0.330512
O O2 0.000000 0.134844 0.250000
O O3 0.000000 0.179242 0.365944
O O4 0.500000 0.878423 0.864951
O O5 0.638008 0.003832 0.836708
O O6 0.500000 0.015719 0.930639
O O7 0.306182 0.659074 0.750000
O O8 0.369331 0.753524 0.661120
O O9 0.331409 0.601789 0.643977
O O10 0.128191 0.695444 0.670091
O O11 0.699358 0.503285 0.438327
O O12 0.864474 0.414386 0.503784
O O13 0.000000 0.315925 0.431681
O O14 0.000000 0.326655 0.750000
#
# Coordination Sequence:
#
# PCOD8258173 Si02
#       8
#     8   8  16   8   8   8  16   8
#     4  12  27  42  58  93 142 165 190 260 328 364
#     4  10  19  38  62  91 113 160 214 257 290 366
#     4  11  21  37  59  88 122 165 210 251 310 377
#     4   9  18  39  70  88 118 158 214 266 300 360
#     4   9  18  38  66  92 121 156 203 271 315 343
#     4  10  23  37  55  84 129 169 196 252 317 365
#     4  11  22  41  68  91 122 167 211 255 310 369
#     4  12  21  40  62  93 118 165 205 257 308 369
#
# _framework density 21.234472
#
# number of rings (size 3 to 8) (size 9 to 14) (size 15 to 20)
#    0.000    1.400    4.000    3.900    0.000    4.400 
#    0.000    1.000   13.200    0.000    0.000    0.000 
#    0.000    0.000    0.000    0.000    0.000    0.000 
#
# Total GULP energy -495573.692563 kJ/mol
# GULP energy per Si atom -12389.342314 kJ/mol
# Density = 2.118614 g / cm^3
# Si number density = 21.234472 Si / 1000 Ang^3
#
#
#
# Elastic Constant Matrix: (Units=GPa)
#
#
# Indices 1 2 3 4 5 6 
#
# 1 81.7679 21.7861 14.1842 0.0000 0.0000 0.0000
# 2 21.7861 133.7788 21.8468 0.0000 0.0000 0.0000
# 3 14.1842 21.8468 51.5569 0.0000 0.0000 0.0000
# 4 0.0000 0.0000 0.0000 31.2604 0.0000 0.0000
# 5 0.0000 0.0000 0.0000 0.0000 29.9430 0.0000
# 6 0.0000 0.0000 0.0000 0.0000 0.0000 25.9817
#
#
#
# Elastic Compliance Matrix: (Units=1/GPa)
#
#
# Indices 1 2 3 4 5 6 
#
# 1 0.013181 -0.001670 -0.002919 0.000000 0.000000 0.000000
# 2 -0.001670 0.008242 -0.003033 0.000000 0.000000 0.000000
# 3 -0.002919 -0.003033 0.021484 0.000000 0.000000 0.000000
# 4 0.000000 0.000000 0.000000 0.031989 0.000000 0.000000
# 5 0.000000 0.000000 0.000000 0.000000 0.033397 0.000000
# 6 0.000000 0.000000 0.000000 0.000000 0.000000 0.038489
#
#
# Mechanical properties :
#
#
# Convention : Reuss Voigt Hill
#
# Bulk Modulus (GPa) = 36.14806 42.52642 39.33724
# Shear Modulus (GPa) = 29.19755 31.38946 30.29351
#
# Velocity S-wave (km/s) = 3.71213 3.84895 3.78116
# Velocity P-wave (km/s) = 5.95260 6.31055 6.13419
#
# Compressibility (1/GPa) = 0.02766400
#
# Stress axis : x y z
#
# Youngs Moduli (GPa) = 75.86699 121.32524 46.54554
#
# Poissons Ratio (x) = 0.20260 0.13585
# Poissons Ratio (y) = 0.12669 0.14118
# Poissons Ratio (z) = 0.22143 0.36800
#
# Static dielectric constant tensor:
#      x y z
#    x 4.186200 0.000000 0.000000 
#    y 0.000000 3.871600 0.000000 
#    z 0.000000 0.000000 3.614450 
# 
# 
# High freq. dielectric constant tensor:
#      x y z
#    x 1.839350 0.000000 0.000000 
#    y 0.000000 1.831120 0.000000 
#    z 0.000000 0.000000 1.812580 
# 
# From -- ./inp_files/61230.got.cif
#   From: 2010.03.12/outbox.cif.g09.slc.cpg/sg63_31_cif.got.tgz:61230.got - 2010.04.10 19:34:48.
