data_PCOD8258014
_publ_section_title
;
Structure prediction by ZEFSAII (Michael W. Deem and Ramdas Pophale) SiO2 
 PCOD8258014
Probable space group: C M C M
;
_chemical_formula_sum "Si O2"
_cell_formula_units_Z 112
_cell_length_a 23.005034
_cell_length_b 12.232744
_cell_length_c 19.855809
_cell_angle_alpha 90.000000
_cell_angle_beta 90.000000
_cell_angle_gamma 90.000000
_cell_volume 5587.716367
_symmetry_space_group_name_H-M "C M C M"
_symmetry_group_IT_number 63
_symmetry_cell_setting 'orthorhombic'
loop_
_space_group_symop_operation_xyz
x,y,z
-x,-y,1/2+z
x,-y,-z
-x,y,1/2-z
-x,-y,-z
x,y,1/2-z
-x,y,z
x,-y,1/2+z
1/2+x,1/2+y,z
1/2-x,1/2-y,1/2+z
1/2+x,1/2-y,-z
1/2-x,1/2+y,1/2-z
1/2-x,1/2-y,-z
1/2+x,1/2+y,1/2-z
1/2-x,1/2+y,z
1/2+x,1/2-y,1/2+z
loop_
_atom_site_type_symbol
_atom_site_label
_atom_site_fract_x
_atom_site_fract_y
_atom_site_fract_z
Si Si1 0.681837 0.880090 0.513075
Si Si2 0.249916 0.777581 0.104328
Si Si3 0.933883 0.576184 0.417788
Si Si4 0.935906 0.783593 0.174172
Si Si5 0.664797 0.440597 0.330346
Si Si6 0.932275 0.368822 0.171894
Si Si7 0.150406 0.818970 0.673603
O O1 0.700100 0.803917 0.450774
O O2 0.706832 0.818887 0.579286
O O3 0.611692 0.897801 0.521806
O O4 0.709922 0.000000 0.500000
O O5 0.217581 0.886507 0.128624
O O6 0.285290 0.732025 0.167960
O O7 0.930357 0.674167 0.366647
O O8 0.914210 0.469559 0.375816
O O9 0.000000 0.564616 0.446748
O O10 0.921045 0.749636 0.250000
O O11 0.892214 0.874780 0.148537
O O12 0.000000 0.834955 0.167759
O O13 0.677553 0.439959 0.250000
O O14 0.652829 0.561251 0.360466
O O15 0.915217 0.394506 0.250000
O O16 0.898302 0.262570 0.143438
O O17 0.000000 0.343762 0.165970
O O18 0.133363 0.838818 0.750000
#
# Coordination Sequence:
#
# PCOD8258014 Si02
#       7
#    16  16  16  16  16  16  16
#     4  11  23  37  56  79 106 149 195 234 282 333
#     4  11  22  39  55  76 113 150 191 238 279 334
#     4  10  19  35  58  84 113 144 187 238 286 338
#     4   9  17  31  55  86 115 142 176 225 285 339
#     4  10  20  36  59  86 114 146 187 231 280 337
#     4   9  18  33  55  85 119 151 182 226 289 351
#     4  10  21  36  56  82 111 144 183 229 281 340
#
# _framework density 20.043966000000001
#
# number of rings (size 3 to 8) (size 9 to 14) (size 15 to 20)
#    0.000    2.000    1.429    2.571    0.000    2.571 
#    0.000    5.000    0.000    0.000    0.000    2.000 
#    0.000    0.000    0.000    0.000    0.000    0.000 
#
# Total GULP energy -694038.820630 kJ/mol
# GULP energy per Si atom -12393.550368 kJ/mol
# Density = 1.999835 g / cm^3
# Si number density = 20.043966 Si / 1000 Ang^3
#
#
#
# Elastic Constant Matrix: (Units=GPa)
#
#
# Indices 1 2 3 4 5 6 
#
# 1 113.0232 68.9355 37.7430 0.0000 0.0000 0.0000
# 2 68.9355 140.9022 26.9649 0.0000 0.0000 0.0000
# 3 37.7430 26.9649 40.7646 0.0000 0.0000 0.0000
# 4 0.0000 0.0000 0.0000 18.6494 0.0000 0.0000
# 5 0.0000 0.0000 0.0000 0.0000 16.2808 0.0000
# 6 0.0000 0.0000 0.0000 0.0000 0.0000 23.7597
#
#
#
# Elastic Compliance Matrix: (Units=1/GPa)
#
#
# Indices 1 2 3 4 5 6 
#
# 1 0.016034 -0.005729 -0.011056 0.000000 0.000000 0.000000
# 2 -0.005729 0.010172 -0.001425 0.000000 0.000000 0.000000
# 3 -0.011056 -0.001425 0.035710 0.000000 0.000000 0.000000
# 4 0.000000 0.000000 0.000000 0.053621 0.000000 0.000000
# 5 0.000000 0.000000 0.000000 0.000000 0.061422 0.000000
# 6 0.000000 0.000000 0.000000 0.000000 0.000000 0.042088
#
#
# Mechanical properties :
#
#
# Convention : Reuss Voigt Hill
#
# Bulk Modulus (GPa) = 39.21965 62.44187 50.83076
# Shear Modulus (GPa) = 18.94186 22.47441 20.70814
#
# Velocity S-wave (km/s) = 3.07745 3.35215 3.21773
# Velocity P-wave (km/s) = 5.67775 6.79725 6.26257
#
# Compressibility (1/GPa) = 0.02549742
#
# Stress axis : x y z
#
# Youngs Moduli (GPa) = 62.36821 98.30426 28.00330
#
# Poissons Ratio (x) = 0.56315 0.30960
# Poissons Ratio (y) = 0.35728 0.03990
# Poissons Ratio (z) = 0.68954 0.14007
#
# Static dielectric constant tensor:
#      x y z
#    x 3.786250 0.000000 0.000000 
#    y 0.000000 3.854650 0.000000 
#    z 0.000000 0.000000 3.523430 
# 
# 
# High freq. dielectric constant tensor:
#      x y z
#    x 1.785000 0.000000 0.000000 
#    y 0.000000 1.790550 0.000000 
#    z 0.000000 0.000000 1.765680 
# 
# From -- ./inp_files/57639.got.cif
#   From: 2010.03.12/outbox.cif.g09.slc.cpg/sg63_29_cif.got.tgz:57639.got - 2010.04.10 19:34:48.
