data_PCOD8258704
_publ_section_title
;
Structure prediction by ZEFSAII (Michael W. Deem and Ramdas Pophale) SiO2 
 PCOD8258704
Probable space group: C M C M
;
_chemical_formula_sum "Si O2"
_cell_formula_units_Z 112
_cell_length_a 15.679479
_cell_length_b 30.588818
_cell_length_c 13.600751
_cell_angle_alpha 90.000000
_cell_angle_beta 90.000000
_cell_angle_gamma 90.000000
_cell_volume 6523.147713
_symmetry_space_group_name_H-M "C M C M"
_symmetry_group_IT_number 63
_symmetry_cell_setting 'orthorhombic'
loop_
_space_group_symop_operation_xyz
x,y,z
-x,-y,1/2+z
x,-y,-z
-x,y,1/2-z
-x,-y,-z
x,y,1/2-z
-x,y,z
x,-y,1/2+z
1/2+x,1/2+y,z
1/2-x,1/2-y,1/2+z
1/2+x,1/2-y,-z
1/2-x,1/2+y,1/2-z
1/2-x,1/2-y,-z
1/2+x,1/2+y,1/2-z
1/2-x,1/2+y,z
1/2+x,1/2-y,1/2+z
loop_
_atom_site_type_symbol
_atom_site_label
_atom_site_fract_x
_atom_site_fract_y
_atom_site_fract_z
Si Si1 0.000000 0.517232 0.365360
Si Si2 0.342948 0.154917 0.474030
Si Si3 0.253666 0.432829 0.974120
Si Si4 0.183327 0.507266 0.863071
Si Si5 0.401519 0.782592 0.362590
Si Si6 0.401364 0.607294 0.363733
Si Si7 0.000000 0.615588 0.133738
Si Si8 0.305763 0.696216 0.136491
O O1 0.083458 0.488832 0.395646
O O2 0.000000 0.566200 0.411496
O O3 0.000000 0.524466 0.250000
O O4 0.290073 0.112249 0.502198
O O5 0.378816 0.174908 0.574399
O O6 0.418084 0.142342 0.400819
O O7 0.281914 0.189917 0.421826
O O8 0.207132 0.456564 0.882205
O O9 0.350623 0.424713 0.938258
O O10 0.245868 0.462793 0.071505
O O11 0.197158 0.519794 0.750000
O O12 0.379424 0.793931 0.250000
O O13 0.500000 0.770520 0.374851
O O14 0.349106 0.740745 0.400540
O O15 0.384841 0.593859 0.250000
O O16 0.500000 0.603196 0.391378
O O17 0.371730 0.656848 0.381491
O O18 0.000000 0.614398 0.250000
O O19 0.281394 0.699560 0.250000
#
# Coordination Sequence:
#
# PCOD8258704 Si02
#       8
#     8  16  16  16  16  16   8  16
#     4   9  18  32  52  71  95 137 177 210 250 293
#     4  11  20  33  49  76 104 132 166 210 260 302
#     4  10  21  32  52  75  99 132 167 209 256 308
#     4  10  20  35  50  71 101 136 174 210 247 297
#     4  10  20  34  50  71 103 140 174 207 246 297
#     4   9  17  32  55  81 104 126 162 213 260 302
#     4  11  20  31  50  76 104 131 164 214 263 304
#     4   9  18  32  53  77 101 132 170 209 252 302
#
# _framework density 17.169625
#
# number of rings (size 3 to 8) (size 9 to 14) (size 15 to 20)
#    0.000    2.143    2.143    1.714    0.000    5.143 
#    0.000    1.429    0.000    1.286    0.000    0.000 
#    0.000    0.000    0.000    0.000    0.000    0.000 
#
# Total GULP energy -694241.510882 kJ/mol
# GULP energy per Si atom -12397.169837 kJ/mol
# Density = 1.713055 g / cm^3
# Si number density = 17.169625 Si / 1000 Ang^3
#
#
#
# Elastic Constant Matrix: (Units=GPa)
#
#
# Indices 1 2 3 4 5 6 
#
# 1 100.5742 31.8806 46.7893 0.0000 0.0000 0.0000
# 2 31.8806 71.2700 43.8251 0.0000 0.0000 0.0000
# 3 46.7893 43.8251 91.9197 0.0000 0.0000 0.0000
# 4 0.0000 0.0000 0.0000 27.2921 0.0000 0.0000
# 5 0.0000 0.0000 0.0000 0.0000 26.0776 0.0000
# 6 0.0000 0.0000 0.0000 0.0000 0.0000 20.8931
#
#
#
# Elastic Compliance Matrix: (Units=1/GPa)
#
#
# Indices 1 2 3 4 5 6 
#
# 1 0.013344 -0.002536 -0.005584 0.000000 0.000000 0.000000
# 2 -0.002536 0.020333 -0.008403 0.000000 0.000000 0.000000
# 3 -0.005584 -0.008403 0.017728 0.000000 0.000000 0.000000
# 4 0.000000 0.000000 0.000000 0.036641 0.000000 0.000000
# 5 0.000000 0.000000 0.000000 0.000000 0.038347 0.000000
# 6 0.000000 0.000000 0.000000 0.000000 0.000000 0.047863
#
#
# Mechanical properties :
#
#
# Convention : Reuss Voigt Hill
#
# Bulk Modulus (GPa) = 54.46808 56.52823 55.49815
# Shear Modulus (GPa) = 23.42788 24.27047 23.84917
#
# Velocity S-wave (km/s) = 3.69792 3.76383 3.73102
# Velocity P-wave (km/s) = 7.07285 7.20301 7.13823
#
# Compressibility (1/GPa) = 0.01835938
#
# Stress axis : x y z
#
# Youngs Moduli (GPa) = 74.93828 49.18146 56.40856
#
# Poissons Ratio (x) = 0.12471 0.31496
# Poissons Ratio (y) = 0.19003 0.47403
# Poissons Ratio (z) = 0.41842 0.41329
#
# Static dielectric constant tensor:
#      x y z
#    x 3.298620 0.000000 0.000000 
#    y 0.000000 3.174860 0.000000 
#    z 0.000000 0.000000 3.073520 
# 
# 
# High freq. dielectric constant tensor:
#      x y z
#    x 1.663260 0.000000 0.000000 
#    y 0.000000 1.657580 0.000000 
#    z 0.000000 0.000000 1.653950 
# 
# From -- ./inp_files/32613.got.cif
#   From: 2010.03.12/outbox.cif.g09.slc.cpg/sg63_17_cif.got.tgz:32613.got - 2010.04.10 19:34:48.
