data_PCOD8258226
_publ_section_title
;
Structure prediction by ZEFSAII (Michael W. Deem and Ramdas Pophale) SiO2 
 PCOD8258226
Probable space group: C M C M
;
_chemical_formula_sum "Si O2"
_cell_formula_units_Z 96
_cell_length_a 10.492077
_cell_length_b 19.417008
_cell_length_c 26.160299
_cell_angle_alpha 90.000000
_cell_angle_beta 90.000000
_cell_angle_gamma 90.000000
_cell_volume 5329.500192
_symmetry_space_group_name_H-M "C M C M"
_symmetry_group_IT_number 63
_symmetry_cell_setting 'orthorhombic'
loop_
_space_group_symop_operation_xyz
x,y,z
-x,-y,1/2+z
x,-y,-z
-x,y,1/2-z
-x,-y,-z
x,y,1/2-z
-x,y,z
x,-y,1/2+z
1/2+x,1/2+y,z
1/2-x,1/2-y,1/2+z
1/2+x,1/2-y,-z
1/2-x,1/2+y,1/2-z
1/2-x,1/2-y,-z
1/2+x,1/2+y,1/2-z
1/2-x,1/2+y,z
1/2+x,1/2-y,1/2+z
loop_
_atom_site_type_symbol
_atom_site_label
_atom_site_fract_x
_atom_site_fract_y
_atom_site_fract_z
Si Si1 0.737047 0.423328 0.501138
Si Si2 0.645002 0.679736 0.360653
Si Si3 0.635119 0.713655 0.472817
Si Si4 0.150657 0.684624 0.806371
Si Si5 0.355440 0.074354 0.392293
Si Si6 0.852449 0.417291 0.391754
O O1 0.676878 0.500000 0.500000
O O2 0.629604 0.368080 0.515387
O O3 0.843556 0.420360 0.546051
O O4 0.793030 0.400933 0.446797
O O5 0.500000 0.650415 0.352139
O O6 0.649007 0.724164 0.412568
O O7 0.683273 0.735341 0.317780
O O8 0.750655 0.619504 0.361909
O O9 0.500000 0.745062 0.491548
O O10 0.750000 0.750000 0.500000
O O11 0.206244 0.667432 0.750000
O O12 0.209995 0.631928 0.848251
O O13 0.000000 0.674293 0.806432
O O14 0.500000 0.097130 0.377875
O O15 0.329759 0.996079 0.374962
O O16 0.000000 0.400634 0.397779
#
# Coordination Sequence:
#
# PCOD8258226 Si02
#       6
#    16  16  16  16  16  16
#     4   9  17  29  46  69  98 129 158 187 226 279
#     4   9  18  32  48  67  93 123 155 193 234 274
#     4  10  20  31  45  68  97 127 157 192 232 275
#     4   9  17  30  49  69  88 118 162 204 238 276
#     4   9  17  29  48  74 100 126 155 186 229 286
#     4   9  16  28  46  69  97 125 156 196 236 274
#
# _framework density 18.012947
#
# number of rings (size 3 to 8) (size 9 to 14) (size 15 to 20)
#    0.000    2.833    0.000    1.500    0.000    7.000 
#    0.000    3.333    0.000    2.500    0.000    0.000 
#    0.000    0.000    0.000    0.000    0.000    0.000 
#
# Total GULP energy -594776.273210 kJ/mol
# GULP energy per Si atom -12391.172359 kJ/mol
# Density = 1.797195 g / cm^3
# Si number density = 18.012947 Si / 1000 Ang^3
#
#
#
# Elastic Constant Matrix: (Units=GPa)
#
#
# Indices 1 2 3 4 5 6 
#
# 1 78.8838 31.9195 15.3918 0.0000 0.0000 0.0000
# 2 31.9195 74.1960 44.1171 0.0000 0.0000 0.0000
# 3 15.3918 44.1171 98.8545 0.0000 0.0000 0.0000
# 4 0.0000 0.0000 0.0000 25.8845 0.0000 0.0000
# 5 0.0000 0.0000 0.0000 0.0000 11.7480 0.0000
# 6 0.0000 0.0000 0.0000 0.0000 0.0000 21.9792
#
#
#
# Elastic Compliance Matrix: (Units=1/GPa)
#
#
# Indices 1 2 3 4 5 6 
#
# 1 0.015391 -0.007073 0.000760 0.000000 0.000000 0.000000
# 2 -0.007073 0.021597 -0.008537 0.000000 0.000000 0.000000
# 3 0.000760 -0.008537 0.013807 0.000000 0.000000 0.000000
# 4 0.000000 0.000000 0.000000 0.038633 0.000000 0.000000
# 5 0.000000 0.000000 0.000000 0.000000 0.085121 0.000000
# 6 0.000000 0.000000 0.000000 0.000000 0.000000 0.045498
#
#
# Mechanical properties :
#
#
# Convention : Reuss Voigt Hill
#
# Bulk Modulus (GPa) = 47.40436 48.31010 47.85723
# Shear Modulus (GPa) = 19.47209 22.62274 21.04741
#
# Velocity S-wave (km/s) = 3.29143 3.54773 3.42198
# Velocity P-wave (km/s) = 6.38895 6.60755 6.49917
#
# Compressibility (1/GPa) = 0.02109510
#
# Stress axis : x y z
#
# Youngs Moduli (GPa) = 64.97469 46.30304 72.42491
#
# Poissons Ratio (x) = 0.32751 -0.05506
# Poissons Ratio (y) = 0.45958 0.61829
# Poissons Ratio (z) = -0.04940 0.39529
#
# Static dielectric constant tensor:
#      x y z
#    x 3.070760 0.000000 0.000000 
#    y 0.000000 3.524790 0.000000 
#    z 0.000000 0.000000 3.373570 
# 
# 
# High freq. dielectric constant tensor:
#      x y z
#    x 1.664010 0.000000 0.000000 
#    y 0.000000 1.705290 0.000000 
#    z 0.000000 0.000000 1.678070 
# 
# From -- ./inp_files/68315.got.cif
#   From: 2010.03.12/outbox.cif.g09.slc.cpg/sg63_35_cif.got.tgz:68315.got - 2010.04.10 19:34:48.
