data_PCOD8258742
_publ_section_title
;
Structure prediction by ZEFSAII (Michael W. Deem and Ramdas Pophale) SiO2 
 PCOD8258742
Probable space group: C M C M
;
_chemical_formula_sum "Si O2"
_cell_formula_units_Z 96
_cell_length_a 8.709695
_cell_length_b 28.356681
_cell_length_c 20.693217
_cell_angle_alpha 90.000000
_cell_angle_beta 90.000000
_cell_angle_gamma 90.000000
_cell_volume 5110.770232
_symmetry_space_group_name_H-M "C M C M"
_symmetry_group_IT_number 63
_symmetry_cell_setting 'orthorhombic'
loop_
_space_group_symop_operation_xyz
x,y,z
-x,-y,1/2+z
x,-y,-z
-x,y,1/2-z
-x,-y,-z
x,y,1/2-z
-x,y,z
x,-y,1/2+z
1/2+x,1/2+y,z
1/2-x,1/2-y,1/2+z
1/2+x,1/2-y,-z
1/2-x,1/2+y,1/2-z
1/2-x,1/2-y,-z
1/2+x,1/2+y,1/2-z
1/2-x,1/2+y,z
1/2+x,1/2-y,1/2+z
loop_
_atom_site_type_symbol
_atom_site_label
_atom_site_fract_x
_atom_site_fract_y
_atom_site_fract_z
Si Si1 0.681699 0.258849 0.824682
Si Si2 0.822906 0.928999 0.898204
Si Si3 0.330733 0.145205 0.324634
Si Si4 0.679948 0.115602 0.977782
Si Si5 0.680973 0.714669 0.946693
Si Si6 0.669927 0.018554 0.927323
O O1 0.730872 0.248001 0.750000
O O2 0.500000 0.258634 0.830569
O O3 0.743468 0.308826 0.851228
O O4 0.751637 0.221167 0.874442
O O5 0.775712 0.900864 0.834002
O O6 0.000000 0.923496 0.915740
O O7 0.784801 0.984534 0.887865
O O8 0.718198 0.903766 0.951576
O O9 0.353703 0.152557 0.250000
O O10 0.500000 0.140716 0.357343
O O11 0.500000 0.128103 0.973805
O O12 0.781991 0.160966 0.964478
O O13 0.721623 0.073491 0.926759
O O14 0.500000 0.722522 0.945471
O O15 0.750000 0.750000 0.000000
O O16 0.500000 0.014018 0.897108
O O17 0.669113 0.000000 0.000000
#
# Coordination Sequence:
#
# PCOD8258742 Si02
#       6
#    16  16  16  16  16  16
#     4  10  21  38  58  79 106 140 178 218 264 320
#     4  11  20  30  49  76 106 135 165 206 256 308
#     4  10  20  34  52  73  99 133 172 211 253 304
#     4  10  20  35  53  74 103 136 172 212 256 306
#     4  12  24  37  55  80 111 142 178 223 269 315
#     4   8  16  31  50  71  97 131 166 201 245 302
#
# _framework density 18.783861999999999
#
# number of rings (size 3 to 8) (size 9 to 14) (size 15 to 20)
#    0.000    1.833    0.000    6.500    0.000    5.667 
#    0.000    0.000    0.000    1.000    0.000    7.000 
#    0.000    0.000    0.000    0.000    0.000    0.000 
#
# Total GULP energy -594929.584608 kJ/mol
# GULP energy per Si atom -12394.366346 kJ/mol
# Density = 1.874111 g / cm^3
# Si number density = 18.783862 Si / 1000 Ang^3
#
#
#
# Elastic Constant Matrix: (Units=GPa)
#
#
# Indices 1 2 3 4 5 6 
#
# 1 97.5830 34.4050 27.1020 0.0000 0.0000 0.0000
# 2 34.4050 115.6786 28.3435 0.0000 0.0000 0.0000
# 3 27.1020 28.3435 49.8338 0.0000 0.0000 0.0000
# 4 0.0000 0.0000 0.0000 25.2899 0.0000 0.0000
# 5 0.0000 0.0000 0.0000 0.0000 23.8756 0.0000
# 6 0.0000 0.0000 0.0000 0.0000 0.0000 34.4780
#
#
#
# Elastic Compliance Matrix: (Units=1/GPa)
#
#
# Indices 1 2 3 4 5 6 
#
# 1 0.012623 -0.002408 -0.005495 0.000000 0.000000 0.000000
# 2 -0.002408 0.010504 -0.004665 0.000000 0.000000 0.000000
# 3 -0.005495 -0.004665 0.025708 0.000000 0.000000 0.000000
# 4 0.000000 0.000000 0.000000 0.039541 0.000000 0.000000
# 5 0.000000 0.000000 0.000000 0.000000 0.041884 0.000000
# 6 0.000000 0.000000 0.000000 0.000000 0.000000 0.029004
#
#
# Mechanical properties :
#
#
# Convention : Reuss Voigt Hill
#
# Bulk Modulus (GPa) = 42.19539 49.19959 45.69749
# Shear Modulus (GPa) = 26.00110 28.27838 27.13974
#
# Velocity S-wave (km/s) = 3.72455 3.88424 3.80523
# Velocity P-wave (km/s) = 6.40381 6.80924 6.60963
#
# Compressibility (1/GPa) = 0.02369927
#
# Stress axis : x y z
#
# Youngs Moduli (GPa) = 79.22131 95.20468 38.89778
#
# Poissons Ratio (x) = 0.22923 0.21376
# Poissons Ratio (y) = 0.19075 0.18144
# Poissons Ratio (z) = 0.43536 0.44409
#
# Static dielectric constant tensor:
#      x y z
#    x 3.596040 0.000000 0.000000 
#    y 0.000000 3.913100 0.000000 
#    z 0.000000 0.000000 3.227910 
# 
# 
# High freq. dielectric constant tensor:
#      x y z
#    x 1.741920 0.000000 0.000000 
#    y 0.000000 1.733690 0.000000 
#    z 0.000000 0.000000 1.692100 
# 
# From -- ./inp_files/51344.got.cif
#   From: 2010.03.12/outbox.cif.g09.slc.cpg/sg63_26_cif.got.tgz:51344.got - 2010.04.10 19:34:48.
