data_PCOD8258738
_publ_section_title
;
Structure prediction by ZEFSAII (Michael W. Deem and Ramdas Pophale) SiO2 
 PCOD8258738
Probable space group: C M C M
;
_chemical_formula_sum "Si O2"
_cell_formula_units_Z 112
_cell_length_a 14.988370
_cell_length_b 27.161353
_cell_length_c 15.087046
_cell_angle_alpha 90.000000
_cell_angle_beta 90.000000
_cell_angle_gamma 90.000000
_cell_volume 6142.002937
_symmetry_space_group_name_H-M "C M C M"
_symmetry_group_IT_number 63
_symmetry_cell_setting 'orthorhombic'
loop_
_space_group_symop_operation_xyz
x,y,z
-x,-y,1/2+z
x,-y,-z
-x,y,1/2-z
-x,-y,-z
x,y,1/2-z
-x,y,z
x,-y,1/2+z
1/2+x,1/2+y,z
1/2-x,1/2-y,1/2+z
1/2+x,1/2-y,-z
1/2-x,1/2+y,1/2-z
1/2-x,1/2-y,-z
1/2+x,1/2+y,1/2-z
1/2-x,1/2+y,z
1/2+x,1/2-y,1/2+z
loop_
_atom_site_type_symbol
_atom_site_label
_atom_site_fract_x
_atom_site_fract_y
_atom_site_fract_z
Si Si1 0.745084 0.448231 0.148623
Si Si2 0.100204 0.190644 0.066660
Si Si3 0.899959 0.912222 0.012886
Si Si4 0.897521 0.702299 0.000274
Si Si5 0.205715 0.057055 0.350242
Si Si6 0.273913 0.839128 0.651490
Si Si7 0.398119 0.874813 0.148285
O O1 0.720163 0.437003 0.250000
O O2 0.663633 0.428788 0.091231
O O3 0.759188 0.506444 0.132611
O O4 0.836571 0.421097 0.121770
O O5 0.123609 0.240814 0.016424
O O6 0.172542 0.181077 0.143201
O O7 0.000000 0.192968 0.108093
O O8 0.106884 0.146827 0.995049
O O9 0.000000 0.928693 0.036711
O O10 0.875032 0.938260 0.919740
O O11 0.872293 0.671677 0.912332
O O12 0.000000 0.693814 0.026109
O O13 0.838878 0.685889 0.082475
O O14 0.166388 0.058647 0.250000
O O15 0.274836 0.101951 0.364724
O O16 0.307764 0.826486 0.750000
O O17 0.382791 0.858515 0.250000
O O18 0.500000 0.891442 0.132565
#
# Coordination Sequence:
#
# PCOD8258738 Si02
#       7
#    16  16  16  16  16  16  16
#     4  10  20  34  52  74 103 134 164 206 255 300
#     4   9  19  35  53  73 100 133 168 209 255 295
#     4  10  20  34  52  73 100 135 170 205 247 297
#     4  10  20  35  54  76 105 136 166 207 253 298
#     4   9  19  34  51  73 101 133 168 207 250 293
#     4  10  20  34  53  76 103 135 170 206 246 298
#     4   9  18  33  54  78 100 127 167 211 255 301
#
# _framework density 18.235094
#
# number of rings (size 3 to 8) (size 9 to 14) (size 15 to 20)
#    0.000    2.429    0.000    2.571    0.000    2.857 
#    0.000    8.571    0.000    8.571    0.000    0.000 
#    0.000    0.000    0.000    0.000    0.000    0.000 
#
# Total GULP energy -694327.903243 kJ/mol
# GULP energy per Si atom -12398.712558 kJ/mol
# Density = 1.819359 g / cm^3
# Si number density = 18.235094 Si / 1000 Ang^3
#
#
#
# Elastic Constant Matrix: (Units=GPa)
#
#
# Indices 1 2 3 4 5 6 
#
# 1 81.4231 53.1711 52.3391 0.0000 0.0000 0.0000
# 2 53.1711 131.4504 53.8304 0.0000 0.0000 0.0000
# 3 52.3391 53.8304 97.3373 0.0000 0.0000 0.0000
# 4 0.0000 0.0000 0.0000 19.7064 0.0000 0.0000
# 5 0.0000 0.0000 0.0000 0.0000 21.1066 0.0000
# 6 0.0000 0.0000 0.0000 0.0000 0.0000 23.1973
#
#
#
# Elastic Compliance Matrix: (Units=1/GPa)
#
#
# Indices 1 2 3 4 5 6 
#
# 1 0.021049 -0.005015 -0.008545 0.000000 0.000000 0.000000
# 2 -0.005015 0.011030 -0.003403 0.000000 0.000000 0.000000
# 3 -0.008545 -0.003403 0.016750 0.000000 0.000000 0.000000
# 4 0.000000 0.000000 0.000000 0.050745 0.000000 0.000000
# 5 0.000000 0.000000 0.000000 0.000000 0.047379 0.000000
# 6 0.000000 0.000000 0.000000 0.000000 0.000000 0.043108
#
#
# Mechanical properties :
#
#
# Convention : Reuss Voigt Hill
#
# Bulk Modulus (GPa) = 67.10052 69.87688 68.48870
# Shear Modulus (GPa) = 21.83840 22.86006 22.34923
#
# Velocity S-wave (km/s) = 3.46439 3.54451 3.50468
# Velocity P-wave (km/s) = 7.27187 7.42661 7.34965
#
# Compressibility (1/GPa) = 0.01490301
#
# Stress axis : x y z
#
# Youngs Moduli (GPa) = 47.50786 90.66519 59.70093
#
# Poissons Ratio (x) = 0.45469 0.51013
# Poissons Ratio (y) = 0.23826 0.20316
# Poissons Ratio (z) = 0.40595 0.30854
#
# Static dielectric constant tensor:
#      x y z
#    x 3.332220 0.000000 0.000000 
#    y 0.000000 3.589370 0.000000 
#    z 0.000000 0.000000 3.318420 
# 
# 
# High freq. dielectric constant tensor:
#      x y z
#    x 1.696100 0.000000 0.000000 
#    y 0.000000 1.717910 0.000000 
#    z 0.000000 0.000000 1.701730 
# 
# From -- ./inp_files/32496.got.cif
#   From: 2010.03.12/outbox.cif.g09.slc.cpg/sg63_17_cif.got.tgz:32496.got - 2010.04.10 19:34:48.
