data_PCOD8258652
_publ_section_title
;
Structure prediction by ZEFSAII (Michael W. Deem and Ramdas Pophale) SiO2 
 PCOD8258652
Probable space group: C M C M
;
_chemical_formula_sum "Si O2"
_cell_formula_units_Z 96
_cell_length_a 9.218729
_cell_length_b 22.528337
_cell_length_c 23.325774
_cell_angle_alpha 90.000000
_cell_angle_beta 90.000000
_cell_angle_gamma 90.000000
_cell_volume 4844.358176
_symmetry_space_group_name_H-M "C M C M"
_symmetry_group_IT_number 63
_symmetry_cell_setting 'orthorhombic'
loop_
_space_group_symop_operation_xyz
x,y,z
-x,-y,1/2+z
x,-y,-z
-x,y,1/2-z
-x,-y,-z
x,y,1/2-z
-x,y,z
x,-y,1/2+z
1/2+x,1/2+y,z
1/2-x,1/2-y,1/2+z
1/2+x,1/2-y,-z
1/2-x,1/2+y,1/2-z
1/2-x,1/2-y,-z
1/2+x,1/2+y,1/2-z
1/2-x,1/2+y,z
1/2+x,1/2-y,1/2+z
loop_
_atom_site_type_symbol
_atom_site_label
_atom_site_fract_x
_atom_site_fract_y
_atom_site_fract_z
Si Si1 0.328146 0.566115 0.683669
Si Si2 0.336531 0.161710 0.314923
Si Si3 0.835828 0.460187 0.874869
Si Si4 0.668019 0.879762 0.976884
Si Si5 0.166274 0.354045 0.100996
Si Si6 0.831070 0.781252 0.912644
O O1 0.276734 0.563462 0.750000
O O2 0.500000 0.566946 0.679914
O O3 0.269647 0.511118 0.647087
O O4 0.266439 0.625434 0.653665
O O5 0.290827 0.170975 0.250000
O O6 0.500000 0.184492 0.326913
O O7 0.326768 0.092347 0.329123
O O8 0.222068 0.199518 0.350174
O O9 0.782994 0.435348 0.937178
O O10 0.000000 0.485577 0.879017
O O11 0.500000 0.866512 0.963431
O O12 0.751291 0.819316 0.961267
O O13 0.692220 0.894802 0.044057
O O14 0.206200 0.287887 0.081026
O O15 0.000000 0.357973 0.121567
O O16 0.000000 0.794116 0.918502
#
# Coordination Sequence:
#
# PCOD8258652 Si02
#       6
#    16  16  16  16  16  16
#     4  11  25  41  56  78 109 145 183 224 272 322
#     4   9  18  33  54  79 107 144 187 227 272 326
#     4   9  18  35  59  82 105 137 178 223 270 323
#     4   9  19  37  60  85 111 141 179 221 269 325
#     4  10  22  39  58  80 109 147 186 222 263 319
#     4  10  20  33  53  83 114 144 179 222 274 322
#
# _framework density 19.816866999999998
#
# number of rings (size 3 to 8) (size 9 to 14) (size 15 to 20)
#    0.000    2.333    0.000    3.000    0.000    8.333 
#    0.000    6.667    0.000    0.000    0.000    0.000 
#    0.000    0.000    0.000    0.000    0.000    0.000 
#
# Total GULP energy -595139.845000 kJ/mol
# GULP energy per Si atom -12398.746771 kJ/mol
# Density = 1.977176 g / cm^3
# Si number density = 19.816867 Si / 1000 Ang^3
#
#
#
# Elastic Constant Matrix: (Units=GPa)
#
#
# Indices 1 2 3 4 5 6 
#
# 1 71.8989 41.8065 38.0773 0.0000 0.0000 0.0000
# 2 41.8065 55.7713 32.1635 0.0000 0.0000 0.0000
# 3 38.0773 32.1635 100.9944 0.0000 0.0000 0.0000
# 4 0.0000 0.0000 0.0000 16.6155 0.0000 0.0000
# 5 0.0000 0.0000 0.0000 0.0000 27.9029 0.0000
# 6 0.0000 0.0000 0.0000 0.0000 0.0000 34.4661
#
#
#
# Elastic Compliance Matrix: (Units=1/GPa)
#
#
# Indices 1 2 3 4 5 6 
#
# 1 0.026182 -0.017068 -0.004436 0.000000 0.000000 0.000000
# 2 -0.017068 0.033091 -0.004103 0.000000 0.000000 0.000000
# 3 -0.004436 -0.004103 0.012881 0.000000 0.000000 0.000000
# 4 0.000000 0.000000 0.000000 0.060185 0.000000 0.000000
# 5 0.000000 0.000000 0.000000 0.000000 0.035839 0.000000
# 6 0.000000 0.000000 0.000000 0.000000 0.000000 0.029014
#
#
# Mechanical properties :
#
#
# Convention : Reuss Voigt Hill
#
# Bulk Modulus (GPa) = 47.75642 50.30657 49.03150
# Shear Modulus (GPa) = 19.57827 23.57140 21.57484
#
# Velocity S-wave (km/s) = 3.14659 3.45260 3.30314
# Velocity P-wave (km/s) = 6.11168 6.42921 6.27245
#
# Compressibility (1/GPa) = 0.02093959
#
# Stress axis : x y z
#
# Youngs Moduli (GPa) = 38.19419 30.21953 77.63584
#
# Poissons Ratio (x) = 0.51579 0.34436
# Poissons Ratio (y) = 0.65191 0.31857
# Poissons Ratio (z) = 0.16941 0.12400
#
# Static dielectric constant tensor:
#      x y z
#    x 3.513070 0.000000 0.000000 
#    y 0.000000 3.475700 0.000000 
#    z 0.000000 0.000000 3.813470 
# 
# 
# High freq. dielectric constant tensor:
#      x y z
#    x 1.763130 0.000000 0.000000 
#    y 0.000000 1.763920 0.000000 
#    z 0.000000 0.000000 1.784080 
# 
# From -- ./inp_files/59832.got.cif
#   From: 2010.03.12/outbox.cif.g09.slc.cpg/sg63_30_cif.got.tgz:59832.got - 2010.04.10 19:34:48.
