data_PCOD8258012
_publ_section_title
;
Structure prediction by ZEFSAII (Michael W. Deem and Ramdas Pophale) SiO2 
 PCOD8258012
Probable space group: C M C M
;
_chemical_formula_sum "Si O2"
_cell_formula_units_Z 96
_cell_length_a 9.104307
_cell_length_b 24.756798
_cell_length_c 23.445644
_cell_angle_alpha 90.000000
_cell_angle_beta 90.000000
_cell_angle_gamma 90.000000
_cell_volume 5284.495511
_symmetry_space_group_name_H-M "C M C M"
_symmetry_group_IT_number 63
_symmetry_cell_setting 'orthorhombic'
loop_
_space_group_symop_operation_xyz
x,y,z
-x,-y,1/2+z
x,-y,-z
-x,y,1/2-z
-x,-y,-z
x,y,1/2-z
-x,y,z
x,-y,1/2+z
1/2+x,1/2+y,z
1/2-x,1/2-y,1/2+z
1/2+x,1/2-y,-z
1/2-x,1/2+y,1/2-z
1/2-x,1/2-y,-z
1/2+x,1/2+y,1/2-z
1/2-x,1/2+y,z
1/2+x,1/2-y,1/2+z
loop_
_atom_site_type_symbol
_atom_site_label
_atom_site_fract_x
_atom_site_fract_y
_atom_site_fract_z
Si Si1 0.826869 0.230394 0.557046
Si Si2 0.167362 0.139696 0.250000
Si Si3 0.326831 0.972532 0.750000
Si Si4 0.173943 0.483645 0.370493
Si Si5 0.169810 0.815163 0.628753
Si Si6 0.329989 0.606468 0.565910
Si Si7 0.829439 0.077110 0.437116
O O1 0.750000 0.250000 0.500000
O O2 0.770118 0.265257 0.610140
O O3 0.783478 0.168735 0.568808
O O4 0.000000 0.237087 0.549275
O O5 0.268798 0.087918 0.250000
O O6 0.199539 0.176607 0.304567
O O7 0.000000 0.118812 0.250000
O O8 0.500000 0.968054 0.750000
O O9 0.271587 0.003844 0.806245
O O10 0.234771 0.425057 0.387380
O O11 0.234773 0.528018 0.413867
O O12 0.000000 0.483402 0.374818
O O13 0.219050 0.868285 0.594460
O O14 0.000000 0.802008 0.615459
O O15 0.500000 0.598966 0.581108
O O16 0.295935 0.582742 0.503668
O O17 0.000000 0.064739 0.425283
#
# Coordination Sequence:
#
# PCOD8258012 Si02
#       7
#    16   8   8  16  16  16  16
#     4  11  22  38  60  85 114 150 190 235 284 340
#     4  10  20  36  61  86 113 149 194 232 274 341
#     4  10  22  38  55  80 115 147 186 238 288 331
#     4  11  23  37  55  83 114 147 189 236 283 336
#     4  10  20  36  58  88 117 148 189 233 281 336
#     4  10  22  39  56  80 114 152 187 226 279 338
#     4  10  19  35  58  83 116 149 180 228 282 337
#
# _framework density 18.166350000000001
#
# number of rings (size 3 to 8) (size 9 to 14) (size 15 to 20)
#    0.000    1.667    3.333    1.500    0.000    6.000 
#    0.000    0.833    0.000    5.000    0.000    0.000 
#    0.000    0.000    0.000    0.000    0.000    0.000 
#
# Total GULP energy -595427.092397 kJ/mol
# GULP energy per Si atom -12404.731092 kJ/mol
# Density = 1.812500 g / cm^3
# Si number density = 18.166350 Si / 1000 Ang^3
#
#
#
# Elastic Constant Matrix: (Units=GPa)
#
#
# Indices 1 2 3 4 5 6 
#
# 1 48.4808 51.4003 29.7593 0.0000 0.0000 0.0000
# 2 51.4003 134.8555 57.4451 0.0000 0.0000 0.0000
# 3 29.7593 57.4451 101.0812 0.0000 0.0000 0.0000
# 4 0.0000 0.0000 0.0000 19.2801 0.0000 0.0000
# 5 0.0000 0.0000 0.0000 0.0000 27.2729 0.0000
# 6 0.0000 0.0000 0.0000 0.0000 0.0000 36.4170
#
#
#
# Elastic Compliance Matrix: (Units=1/GPa)
#
#
# Indices 1 2 3 4 5 6 
#
# 1 0.035610 -0.012016 -0.003655 0.000000 0.000000 0.000000
# 2 -0.012016 0.013838 -0.004327 0.000000 0.000000 0.000000
# 3 -0.003655 -0.004327 0.013428 0.000000 0.000000 0.000000
# 4 0.000000 0.000000 0.000000 0.051867 0.000000 0.000000
# 5 0.000000 0.000000 0.000000 0.000000 0.036666 0.000000
# 6 0.000000 0.000000 0.000000 0.000000 0.000000 0.027460
#
#
# Mechanical properties :
#
#
# Convention : Reuss Voigt Hill
#
# Bulk Modulus (GPa) = 43.70522 62.40297 53.05410
# Shear Modulus (GPa) = 22.07592 26.31487 24.19540
#
# Velocity S-wave (km/s) = 3.48977 3.81011 3.65345
# Velocity P-wave (km/s) = 6.35205 7.33358 6.86039
#
# Compressibility (1/GPa) = 0.02288056
#
# Stress axis : x y z
#
# Youngs Moduli (GPa) = 28.08233 72.26370 74.47033
#
# Poissons Ratio (x) = 0.86829 0.27221
# Poissons Ratio (y) = 0.33742 0.32222
# Poissons Ratio (z) = 0.10265 0.31267
#
# Static dielectric constant tensor:
#      x y z
#    x 3.331740 0.000000 0.000000 
#    y 0.000000 3.411060 0.000000 
#    z 0.000000 0.000000 3.531110 
# 
# 
# High freq. dielectric constant tensor:
#      x y z
#    x 1.702090 0.000000 0.000000 
#    y 0.000000 1.704300 0.000000 
#    z 0.000000 0.000000 1.708530 
# 
# From -- ./inp_files/60038.got.cif
#   From: 2010.03.12/outbox.cif.g09.slc.cpg/sg63_31_cif.got.tgz:60038.got - 2010.04.10 19:34:48.
