data_PCOD8258255
_publ_section_title
;
Structure prediction by ZEFSAII (Michael W. Deem and Ramdas Pophale) SiO2 
 PCOD8258255
Probable space group: C M C M
;
_chemical_formula_sum "Si O2"
_cell_formula_units_Z 88
_cell_length_a 27.780678
_cell_length_b 25.094088
_cell_length_c 9.314022
_cell_angle_alpha 90.000000
_cell_angle_beta 90.000000
_cell_angle_gamma 90.000000
_cell_volume 6493.091407
_symmetry_space_group_name_H-M "C M C M"
_symmetry_group_IT_number 63
_symmetry_cell_setting 'orthorhombic'
loop_
_space_group_symop_operation_xyz
x,y,z
-x,-y,1/2+z
x,-y,-z
-x,y,1/2-z
-x,-y,-z
x,y,1/2-z
-x,y,z
x,-y,1/2+z
1/2+x,1/2+y,z
1/2-x,1/2-y,1/2+z
1/2+x,1/2-y,-z
1/2-x,1/2+y,1/2-z
1/2-x,1/2-y,-z
1/2+x,1/2+y,1/2-z
1/2-x,1/2+y,z
1/2+x,1/2-y,1/2+z
loop_
_atom_site_type_symbol
_atom_site_label
_atom_site_fract_x
_atom_site_fract_y
_atom_site_fract_z
Si Si1 0.861043 0.279278 0.091040
Si Si2 0.741091 0.195154 0.919668
Si Si3 0.053230 0.250878 0.582908
Si Si4 0.000000 0.054968 0.918063
Si Si5 0.174622 0.158501 0.085833
Si Si6 0.414458 0.367629 0.417395
O O1 0.880693 0.289711 0.250000
O O2 0.815800 0.318769 0.058519
O O3 0.841505 0.219477 0.076645
O O4 0.906293 0.288852 0.987179
O O5 0.753305 0.200477 0.750000
O O6 0.750000 0.250000 0.000000
O O7 0.775530 0.151327 0.995588
O O8 0.056566 0.261268 0.750000
O O9 0.062230 0.189280 0.545606
O O10 0.000000 0.266147 0.525606
O O11 0.047387 0.087657 0.962364
O O12 0.000000 0.043595 0.750000
O O13 0.000000 0.000000 0.000000
O O14 0.182425 0.139925 0.250000
O O15 0.133543 0.122535 0.011161
O O16 0.400863 0.370797 0.250000
#
# Coordination Sequence:
#
# PCOD8258255 Si02
#       6
#    16  16  16   8  16  16
#     4   8  15  23  30  44  64  83 103 127 156 190
#     4   9  15  23  33  46  65  85 105 127 156 193
#     4   9  15  23  35  48  61  81 109 137 164 196
#     4  10  20  32  44  56  70  88 110 138 176 220
#     4   9  16  24  35  51  66  80 102 128 159 197
#     4   9  16  28  41  51  65  83 105 132 166 208
#
# _framework density 13.552867000000001
#
# number of rings (size 3 to 8) (size 9 to 14) (size 15 to 20)
#    0.000    3.091    0.909    2.182    0.000    6.182 
#    0.000    0.000    0.000    0.000    0.000    0.000 
#    0.000    0.000    0.000    0.000    0.000    0.000 
#
# Total GULP energy -545183.252746 kJ/mol
# GULP energy per Si atom -12390.528471 kJ/mol
# Density = 1.352202 g / cm^3
# Si number density = 13.552867 Si / 1000 Ang^3
#
#
#
# Elastic Constant Matrix: (Units=GPa)
#
#
# Indices 1 2 3 4 5 6 
#
# 1 137.0908 30.0484 69.6613 0.0000 0.0000 0.0000
# 2 30.0484 19.0478 18.4717 0.0000 0.0000 0.0000
# 3 69.6613 18.4717 80.5746 0.0000 0.0000 0.0000
# 4 0.0000 0.0000 0.0000 11.1544 0.0000 0.0000
# 5 0.0000 0.0000 0.0000 0.0000 28.3644 0.0000
# 6 0.0000 0.0000 0.0000 0.0000 0.0000 8.8017
#
#
#
# Elastic Compliance Matrix: (Units=1/GPa)
#
#
# Indices 1 2 3 4 5 6 
#
# 1 0.015752 -0.014971 -0.010186 0.000000 0.000000 0.000000
# 2 -0.014971 0.081736 -0.005795 0.000000 0.000000 0.000000
# 3 -0.010186 -0.005795 0.022546 0.000000 0.000000 0.000000
# 4 0.000000 0.000000 0.000000 0.089650 0.000000 0.000000
# 5 0.000000 0.000000 0.000000 0.000000 0.035255 0.000000
# 6 0.000000 0.000000 0.000000 0.000000 0.000000 0.113614
#
#
# Mechanical properties :
#
#
# Convention : Reuss Voigt Hill
#
# Bulk Modulus (GPa) = 17.20291 52.56401 34.88346
# Shear Modulus (GPa) = 11.36792 17.56624 14.46708
#
# Velocity S-wave (km/s) = 2.89932 3.60408 3.27074
# Velocity P-wave (km/s) = 4.89171 7.49585 6.32916
#
# Compressibility (1/GPa) = 0.05812971
#
# Stress axis : x y z
#
# Youngs Moduli (GPa) = 63.48422 12.23456 44.35372
#
# Poissons Ratio (x) = 0.18316 0.45180
# Poissons Ratio (y) = 0.95041 0.25702
# Poissons Ratio (z) = 0.64668 0.07090
#
# Static dielectric constant tensor:
#      x y z
#    x 3.255250 0.000000 0.000000 
#    y 0.000000 2.096040 0.000000 
#    z 0.000000 0.000000 2.805250 
# 
# 
# High freq. dielectric constant tensor:
#      x y z
#    x 1.532760 0.000000 0.000000 
#    y 0.000000 1.422230 0.000000 
#    z 0.000000 0.000000 1.527560 
# 
# From -- ./inp_files/13220.got.cif
#   From: 2010.03.12/outbox.cif.g09.slc.cpg/sg63_7_cif.got.tgz:13220.got - 2010.04.10 19:34:48.
