data_PCOD8258593
_publ_section_title
;
Structure prediction by ZEFSAII (Michael W. Deem and Ramdas Pophale) SiO2 
 PCOD8258593
Probable space group: C M C M
;
_chemical_formula_sum "Si O2"
_cell_formula_units_Z 72
_cell_length_a 25.320800
_cell_length_b 14.124756
_cell_length_c 10.320631
_cell_angle_alpha 90.000000
_cell_angle_beta 90.000000
_cell_angle_gamma 90.000000
_cell_volume 3691.174933
_symmetry_space_group_name_H-M "C M C M"
_symmetry_group_IT_number 63
_symmetry_cell_setting 'orthorhombic'
loop_
_space_group_symop_operation_xyz
x,y,z
-x,-y,1/2+z
x,-y,-z
-x,y,1/2-z
-x,-y,-z
x,y,1/2-z
-x,y,z
x,-y,1/2+z
1/2+x,1/2+y,z
1/2-x,1/2-y,1/2+z
1/2+x,1/2-y,-z
1/2-x,1/2+y,1/2-z
1/2-x,1/2-y,-z
1/2+x,1/2+y,1/2-z
1/2-x,1/2+y,z
1/2+x,1/2-y,1/2+z
loop_
_atom_site_type_symbol
_atom_site_label
_atom_site_fract_x
_atom_site_fract_y
_atom_site_fract_z
Si Si1 0.104431 0.073751 0.608620
Si Si2 0.685469 0.774363 0.109158
Si Si3 0.599616 0.785013 0.898577
Si Si4 0.500000 0.915255 0.600828
Si Si5 0.720745 0.398562 0.037622
O O1 0.084058 0.039646 0.750000
O O2 0.080735 0.177139 0.575832
O O3 0.167806 0.081769 0.618939
O O4 0.085115 0.000000 0.500000
O O5 0.657185 0.776538 0.250000
O O6 0.704588 0.666616 0.085250
O O7 0.646955 0.811794 0.996039
O O8 0.735960 0.842764 0.120019
O O9 0.619661 0.796006 0.750000
O O10 0.551202 0.853024 0.927835
O O11 0.500000 0.951581 0.750000
O O12 0.500000 0.000000 0.500000
O O13 0.745431 0.500000 0.000000
#
# Coordination Sequence:
#
# PCOD8258593 Si02
#       5
#    16  16  16   8  16
#     4   9  17  31  52  77 105 138 171 203 246 304
#     4  10  20  33  52  78 105 136 179 222 255 300
#     4   9  20  38  56  74 103 138 170 212 270 324
#     4  10  22  42  63  80 100 134 177 220 269 320
#     4   9  19  32  48  72 107 145 174 206 254 306
#
# _framework density 19.505983000000001
#
# number of rings (size 3 to 8) (size 9 to 14) (size 15 to 20)
#    0.000    2.667    0.000    0.667    0.000   16.000 
#    0.000    2.778    0.000    0.000    0.000    0.000 
#    0.000    0.000    0.000    0.000    0.000    0.000 
#
# Total GULP energy -446176.403388 kJ/mol
# GULP energy per Si atom -12393.788983 kJ/mol
# Density = 1.946159 g / cm^3
# Si number density = 19.505983 Si / 1000 Ang^3
#
#
#
# Elastic Constant Matrix: (Units=GPa)
#
#
# Indices 1 2 3 4 5 6 
#
# 1 60.2906 40.2846 45.8404 0.0000 0.0000 0.0000
# 2 40.2846 130.5643 61.5884 0.0000 0.0000 0.0000
# 3 45.8404 61.5884 147.1381 0.0000 0.0000 0.0000
# 4 0.0000 0.0000 0.0000 22.5093 0.0000 0.0000
# 5 0.0000 0.0000 0.0000 0.0000 18.4923 0.0000
# 6 0.0000 0.0000 0.0000 0.0000 0.0000 26.4744
#
#
#
# Elastic Compliance Matrix: (Units=1/GPa)
#
#
# Indices 1 2 3 4 5 6 
#
# 1 0.023945 -0.004821 -0.005442 0.000000 0.000000 0.000000
# 2 -0.004821 0.010514 -0.002899 0.000000 0.000000 0.000000
# 3 -0.005442 -0.002899 0.009705 0.000000 0.000000 0.000000
# 4 0.000000 0.000000 0.000000 0.044426 0.000000 0.000000
# 5 0.000000 0.000000 0.000000 0.000000 0.054076 0.000000
# 6 0.000000 0.000000 0.000000 0.000000 0.000000 0.037772
#
#
# Mechanical properties :
#
#
# Convention : Reuss Voigt Hill
#
# Bulk Modulus (GPa) = 56.05246 70.37998 63.21622
# Shear Modulus (GPa) = 23.50611 26.18051 24.84331
#
# Velocity S-wave (km/s) = 3.47518 3.66755 3.57266
# Velocity P-wave (km/s) = 6.70082 7.35487 7.03545
#
# Compressibility (1/GPa) = 0.01784043
#
# Stress axis : x y z
#
# Youngs Moduli (GPa) = 41.76157 95.11106 103.03725
#
# Poissons Ratio (x) = 0.45854 0.56074
# Poissons Ratio (y) = 0.20134 0.29870
# Poissons Ratio (z) = 0.22727 0.27572
#
# Static dielectric constant tensor:
#      x y z
#    x 3.265050 0.000000 0.000000 
#    y 0.000000 3.721310 0.000000 
#    z 0.000000 0.000000 3.615900 
# 
# 
# High freq. dielectric constant tensor:
#      x y z
#    x 1.727360 0.000000 0.000000 
#    y 0.000000 1.760500 0.000000 
#    z 0.000000 0.000000 1.761040 
# 
# From -- ./inp_files/11748.got.cif
#   From: 2010.03.12/outbox.cif.g09.slc.cpg/sg63_6_cif.got.tgz:11748.got - 2010.04.10 19:34:48.
