data_PCOD8258509
_publ_section_title
;
Structure prediction by ZEFSAII (Michael W. Deem and Ramdas Pophale) SiO2 
 PCOD8258509
Probable space group: C M C M
;
_chemical_formula_sum "Si O2"
_cell_formula_units_Z 96
_cell_length_a 14.185695
_cell_length_b 23.241388
_cell_length_c 16.542067
_cell_angle_alpha 90.000000
_cell_angle_beta 90.000000
_cell_angle_gamma 90.000000
_cell_volume 5453.840775
_symmetry_space_group_name_H-M "C M C M"
_symmetry_group_IT_number 63
_symmetry_cell_setting 'orthorhombic'
loop_
_space_group_symop_operation_xyz
x,y,z
-x,-y,1/2+z
x,-y,-z
-x,y,1/2-z
-x,-y,-z
x,y,1/2-z
-x,y,z
x,-y,1/2+z
1/2+x,1/2+y,z
1/2-x,1/2-y,1/2+z
1/2+x,1/2-y,-z
1/2-x,1/2+y,1/2-z
1/2-x,1/2-y,-z
1/2+x,1/2+y,1/2-z
1/2-x,1/2+y,z
1/2+x,1/2-y,1/2+z
loop_
_atom_site_type_symbol
_atom_site_label
_atom_site_fract_x
_atom_site_fract_y
_atom_site_fract_z
Si Si1 0.894698 0.434849 0.838936
Si Si2 0.390130 0.722453 0.656829
Si Si3 0.894082 0.946114 0.940386
Si Si4 0.389979 0.167949 0.453658
Si Si5 0.779648 0.130847 0.946617
Si Si6 0.734411 0.520271 0.840005
O O1 0.884069 0.406315 0.750000
O O2 0.864011 0.388929 0.904744
O O3 0.836653 0.492727 0.845792
O O4 0.000000 0.455164 0.855423
O O5 0.356172 0.730435 0.750000
O O6 0.500000 0.707681 0.655460
O O7 0.368165 0.779104 0.605119
O O8 0.337310 0.670101 0.614715
O O9 0.000000 0.927356 0.916956
O O10 0.840553 0.970200 0.861807
O O11 0.843054 0.889202 0.976782
O O12 0.896086 0.000000 0.000000
O O13 0.500000 0.169352 0.482812
O O14 0.315650 0.165626 0.527905
O O15 0.756066 0.072993 0.899832
O O16 0.709823 0.541975 0.750000
#
# Coordination Sequence:
#
# PCOD8258509 Si02
#       6
#    16  16  16  16  16  16
#     4   9  17  31  51  76 106 139 176 218 259 306
#     4  10  21  37  57  80 104 136 181 228 271 316
#     4   9  18  32  49  71 102 138 173 214 263 312
#     4  10  20  34  55  80 107 140 178 222 270 319
#     4  11  20  34  53  80 108 139 173 224 271 322
#     4  10  20  33  50  74 106 143 178 213 260 317
#
# _framework density 17.602274000000001
#
# number of rings (size 3 to 8) (size 9 to 14) (size 15 to 20)
#    0.000    2.167    1.667    2.000    0.000    3.667 
#    0.000    1.667    0.000    1.500    0.000    0.000 
#    0.000    0.000    0.000    0.000    0.000    0.000 
#
# Total GULP energy -594934.772094 kJ/mol
# GULP energy per Si atom -12394.474419 kJ/mol
# Density = 1.756221 g / cm^3
# Si number density = 17.602274 Si / 1000 Ang^3
#
#
#
# Elastic Constant Matrix: (Units=GPa)
#
#
# Indices 1 2 3 4 5 6 
#
# 1 80.6500 31.8608 37.9981 0.0000 0.0000 0.0000
# 2 31.8608 67.4042 34.2979 0.0000 0.0000 0.0000
# 3 37.9981 34.2979 80.9515 0.0000 0.0000 0.0000
# 4 0.0000 0.0000 0.0000 40.5297 0.0000 0.0000
# 5 0.0000 0.0000 0.0000 0.0000 28.6099 0.0000
# 6 0.0000 0.0000 0.0000 0.0000 0.0000 23.3705
#
#
#
# Elastic Compliance Matrix: (Units=1/GPa)
#
#
# Indices 1 2 3 4 5 6 
#
# 1 0.017207 -0.005130 -0.005904 0.000000 0.000000 0.000000
# 2 -0.005130 0.020442 -0.006253 0.000000 0.000000 0.000000
# 3 -0.005904 -0.006253 0.017774 0.000000 0.000000 0.000000
# 4 0.000000 0.000000 0.000000 0.024673 0.000000 0.000000
# 5 0.000000 0.000000 0.000000 0.000000 0.034953 0.000000
# 6 0.000000 0.000000 0.000000 0.000000 0.000000 0.042789
#
#
# Mechanical properties :
#
#
# Convention : Reuss Voigt Hill
#
# Bulk Modulus (GPa) = 47.96117 48.59104 48.27610
# Shear Modulus (GPa) = 25.08004 26.82527 25.95265
#
# Velocity S-wave (km/s) = 3.77877 3.90804 3.84395
# Velocity P-wave (km/s) = 6.80772 6.93026 6.86927
#
# Compressibility (1/GPa) = 0.02085020
#
# Stress axis : x y z
#
# Youngs Moduli (GPa) = 58.11531 48.91779 56.26308
#
# Poissons Ratio (x) = 0.25093 0.33216
# Poissons Ratio (y) = 0.29810 0.35183
# Poissons Ratio (z) = 0.34309 0.30590
#
# Static dielectric constant tensor:
#      x y z
#    x 3.386120 0.000000 0.000000 
#    y 0.000000 3.175780 0.000000 
#    z 0.000000 0.000000 3.318060 
# 
# 
# High freq. dielectric constant tensor:
#      x y z
#    x 1.685200 0.000000 0.000000 
#    y 0.000000 1.672740 0.000000 
#    z 0.000000 0.000000 1.673990 
# 
# From -- ./inp_files/31851.got.cif
#   From: 2010.03.12/outbox.cif.g09.slc.cpg/sg63_16_cif.got.tgz:31851.got - 2010.04.10 19:34:48.
