data_PCOD8258575
_publ_section_title
;
Structure prediction by ZEFSAII (Michael W. Deem and Ramdas Pophale) SiO2 
 PCOD8258575
Probable space group: C M C M
;
_chemical_formula_sum "Si O2"
_cell_formula_units_Z 112
_cell_length_a 29.515701
_cell_length_b 13.232166
_cell_length_c 14.436502
_cell_angle_alpha 90.000000
_cell_angle_beta 90.000000
_cell_angle_gamma 90.000000
_cell_volume 5638.271934
_symmetry_space_group_name_H-M "C M C M"
_symmetry_group_IT_number 63
_symmetry_cell_setting 'orthorhombic'
loop_
_space_group_symop_operation_xyz
x,y,z
-x,-y,1/2+z
x,-y,-z
-x,y,1/2-z
-x,-y,-z
x,y,1/2-z
-x,y,z
x,-y,1/2+z
1/2+x,1/2+y,z
1/2-x,1/2-y,1/2+z
1/2+x,1/2-y,-z
1/2-x,1/2+y,1/2-z
1/2-x,1/2-y,-z
1/2+x,1/2+y,1/2-z
1/2-x,1/2+y,z
1/2+x,1/2-y,1/2+z
loop_
_atom_site_type_symbol
_atom_site_label
_atom_site_fract_x
_atom_site_fract_y
_atom_site_fract_z
Si Si1 0.552206 0.237264 0.023117
Si Si2 0.826800 0.500176 0.645638
Si Si3 0.447546 0.634126 0.150350
Si Si4 0.278458 0.507943 0.644269
Si Si5 0.948850 0.917865 0.141826
Si Si6 0.357975 0.848948 0.997575
Si Si7 0.207720 0.172251 0.005153
O O1 0.500000 0.203833 0.044829
O O2 0.573252 0.324090 0.088955
O O3 0.558300 0.274218 0.918223
O O4 0.588465 0.147427 0.030411
O O5 0.846137 0.488945 0.750000
O O6 0.774643 0.528917 0.647806
O O7 0.831255 0.395986 0.589191
O O8 0.853595 0.587360 0.591644
O O9 0.426965 0.666507 0.250000
O O10 0.500000 0.605958 0.163578
O O11 0.425576 0.526425 0.117300
O O12 0.298042 0.506111 0.750000
O O13 0.288402 0.400731 0.594705
O O14 0.297905 0.603057 0.586736
O O15 0.945937 0.896430 0.250000
O O16 0.000000 0.916130 0.103566
O O17 0.338396 0.736825 0.015231
O O18 0.250000 0.250000 0.000000
#
# Coordination Sequence:
#
# PCOD8258575 Si02
#       7
#    16  16  16  16  16  16  16
#     4  10  20  33  52  75 103 145 193 232 273 323
#     4  10  21  39  62  86 109 142 189 232 280 345
#     4   8  14  27  47  69  95 131 178 228 272 319
#     4  10  21  37  60  89 120 151 183 222 276 342
#     4   8  14  27  47  69  95 131 178 228 272 319
#     4  11  22  38  59  84 114 148 185 235 285 329
#     4  11  19  37  60  87 121 149 182 229 280 332
#
# _framework density 19.864242000000001
#
# number of rings (size 3 to 8) (size 9 to 14) (size 15 to 20)
#    0.000    2.286    2.857    2.143    0.000    4.571 
#    5.143    1.429    0.000    0.857    0.000    0.000 
#    0.000    0.000    0.000    0.000    0.000    0.000 
#
# Total GULP energy -693838.885483 kJ/mol
# GULP energy per Si atom -12389.980098 kJ/mol
# Density = 1.981903 g / cm^3
# Si number density = 19.864242 Si / 1000 Ang^3
#
#
#
# Elastic Constant Matrix: (Units=GPa)
#
#
# Indices 1 2 3 4 5 6 
#
# 1 53.9383 15.6604 1.2779 0.0000 0.0000 0.0000
# 2 15.6604 85.0098 32.7906 0.0000 0.0000 0.0000
# 3 1.2779 32.7906 110.0707 0.0000 0.0000 0.0000
# 4 0.0000 0.0000 0.0000 8.3624 0.0000 0.0000
# 5 0.0000 0.0000 0.0000 0.0000 13.2087 0.0000
# 6 0.0000 0.0000 0.0000 0.0000 0.0000 21.5783
#
#
#
# Elastic Compliance Matrix: (Units=1/GPa)
#
#
# Indices 1 2 3 4 5 6 
#
# 1 0.019677 -0.003996 0.000962 0.000000 0.000000 0.000000
# 2 -0.003996 0.014102 -0.004155 0.000000 0.000000 0.000000
# 3 0.000962 -0.004155 0.010312 0.000000 0.000000 0.000000
# 4 0.000000 0.000000 0.000000 0.119582 0.000000 0.000000
# 5 0.000000 0.000000 0.000000 0.000000 0.075707 0.000000
# 6 0.000000 0.000000 0.000000 0.000000 0.000000 0.046343
#
#
# Mechanical properties :
#
#
# Convention : Reuss Voigt Hill
#
# Bulk Modulus (GPa) = 33.65479 38.71961 36.18720
# Shear Modulus (GPa) = 16.12876 21.91589 19.02232
#
# Velocity S-wave (km/s) = 2.85256 3.32517 3.09789
# Velocity P-wave (km/s) = 5.27529 5.85464 5.57250
#
# Compressibility (1/GPa) = 0.02971345
#
# Stress axis : x y z
#
# Youngs Moduli (GPa) = 50.82047 70.91166 96.97816
#
# Poissons Ratio (x) = 0.28336 -0.09329
# Poissons Ratio (y) = 0.20308 0.40291
# Poissons Ratio (z) = -0.04889 0.29462
#
# Static dielectric constant tensor:
#      x y z
#    x 3.357500 0.000000 0.000000 
#    y 0.000000 3.509850 0.000000 
#    z 0.000000 0.000000 3.864550 
# 
# 
# High freq. dielectric constant tensor:
#      x y z
#    x 1.744840 0.000000 0.000000 
#    y 0.000000 1.762220 0.000000 
#    z 0.000000 0.000000 1.782270 
# 
# From -- ./inp_files/38519.got.cif
#   From: 2010.03.12/outbox.cif.g09.slc.cpg/sg63_20_cif.got.tgz:38519.got - 2010.04.10 19:34:48.
