data_PCOD8258803
_publ_section_title
;
Structure prediction by ZEFSAII (Michael W. Deem and Ramdas Pophale) SiO2 
 PCOD8258803
Probable space group: C M C M
;
_chemical_formula_sum "Si O2"
_cell_formula_units_Z 64
_cell_length_a 19.071959
_cell_length_b 8.419943
_cell_length_c 20.937753
_cell_angle_alpha 90.000000
_cell_angle_beta 90.000000
_cell_angle_gamma 90.000000
_cell_volume 3362.285039
_symmetry_space_group_name_H-M "C M C M"
_symmetry_group_IT_number 63
_symmetry_cell_setting 'orthorhombic'
loop_
_space_group_symop_operation_xyz
x,y,z
-x,-y,1/2+z
x,-y,-z
-x,y,1/2-z
-x,-y,-z
x,y,1/2-z
-x,y,z
x,-y,1/2+z
1/2+x,1/2+y,z
1/2-x,1/2-y,1/2+z
1/2+x,1/2-y,-z
1/2-x,1/2+y,1/2-z
1/2-x,1/2-y,-z
1/2+x,1/2+y,1/2-z
1/2-x,1/2+y,z
1/2+x,1/2-y,1/2+z
loop_
_atom_site_type_symbol
_atom_site_label
_atom_site_fract_x
_atom_site_fract_y
_atom_site_fract_z
Si Si1 0.722613 0.516993 0.600062
Si Si2 0.419979 0.091030 0.581660
Si Si3 0.340697 0.812209 0.541338
Si Si4 0.669929 0.234804 0.825397
O O1 0.668454 0.629330 0.561120
O O2 0.766536 0.404897 0.551149
O O3 0.677337 0.412757 0.648853
O O4 0.770637 0.622461 0.645724
O O5 0.500000 0.116629 0.560906
O O6 0.365476 0.177501 0.532465
O O7 0.405441 0.166483 0.650967
O O8 0.401099 0.902719 0.582407
O O9 0.673201 0.232053 0.750000
#
# Coordination Sequence:
#
# PCOD8258803 Si02
#       4
#    16  16  16  16
#     4   9  19  33  54  83 105 126 161 212 269 310
#     4  10  21  35  52  73 102 141 176 207 245 297
#     4   9  18  33  54  79 107 129 162 213 264 307
#     4  10  20  34  53  75 103 135 167 207 252 304
#
# _framework density 19.034673000000002
#
# number of rings (size 3 to 8) (size 9 to 14) (size 15 to 20)
#    0.000    2.500    0.000    2.250    0.000   19.500 
#    0.000    5.000    0.000    0.000    0.000    0.000 
#    0.000    0.000    0.000    0.000    0.000    0.000 
#
# Total GULP energy -396549.885141 kJ/mol
# GULP energy per Si atom -12392.183911 kJ/mol
# Density = 1.899135 g / cm^3
# Si number density = 19.034673 Si / 1000 Ang^3
#
#
#
# Elastic Constant Matrix: (Units=GPa)
#
#
# Indices 1 2 3 4 5 6 
#
# 1 81.0478 17.0512 30.9021 0.0000 0.0000 0.0000
# 2 17.0512 79.2857 19.0897 0.0000 0.0000 0.0000
# 3 30.9021 19.0897 62.4570 0.0000 0.0000 0.0000
# 4 0.0000 0.0000 0.0000 23.8358 0.0000 0.0000
# 5 0.0000 0.0000 0.0000 0.0000 16.0371 0.0000
# 6 0.0000 0.0000 0.0000 0.0000 0.0000 14.9859
#
#
#
# Elastic Compliance Matrix: (Units=1/GPa)
#
#
# Indices 1 2 3 4 5 6 
#
# 1 0.015392 -0.001594 -0.007128 0.000000 0.000000 0.000000
# 2 -0.001594 0.013780 -0.003423 0.000000 0.000000 0.000000
# 3 -0.007128 -0.003423 0.020584 0.000000 0.000000 0.000000
# 4 0.000000 0.000000 0.000000 0.041954 0.000000 0.000000
# 5 0.000000 0.000000 0.000000 0.000000 0.062355 0.000000
# 6 0.000000 0.000000 0.000000 0.000000 0.000000 0.066730
#
#
# Mechanical properties :
#
#
# Convention : Reuss Voigt Hill
#
# Bulk Modulus (GPa) = 39.26954 39.65292 39.46123
# Shear Modulus (GPa) = 19.71824 21.35492 20.53658
#
# Velocity S-wave (km/s) = 3.22205 3.35311 3.28823
# Velocity P-wave (km/s) = 5.87516 5.98901 5.93236
#
# Compressibility (1/GPa) = 0.02546503
#
# Stress axis : x y z
#
# Youngs Moduli (GPa) = 64.97068 72.57124 48.58120
#
# Poissons Ratio (x) = 0.11567 0.34630
# Poissons Ratio (y) = 0.10355 0.16630
# Poissons Ratio (z) = 0.46312 0.24842
#
# Static dielectric constant tensor:
#      x y z
#    x 3.281340 0.000000 0.000000 
#    y 0.000000 3.799090 0.000000 
#    z 0.000000 0.000000 3.368320 
# 
# 
# High freq. dielectric constant tensor:
#      x y z
#    x 1.711320 0.000000 0.000000 
#    y 0.000000 1.746450 0.000000 
#    z 0.000000 0.000000 1.731220 
# 
# From -- ./inp_files/63430.got.cif
#   From: 2010.03.12/outbox.cif.g09.slc.cpg/sg63_32_cif.got.tgz:63430.got - 2010.04.10 19:34:48.
