data_PCOD8258435
_publ_section_title
;
Structure prediction by ZEFSAII (Michael W. Deem and Ramdas Pophale) SiO2 
 PCOD8258435
Probable space group: C M C M
;
_chemical_formula_sum "Si O2"
_cell_formula_units_Z 96
_cell_length_a 17.471839
_cell_length_b 28.395685
_cell_length_c 9.404375
_cell_angle_alpha 90.000000
_cell_angle_beta 90.000000
_cell_angle_gamma 90.000000
_cell_volume 4665.744010
_symmetry_space_group_name_H-M "C M C M"
_symmetry_group_IT_number 63
_symmetry_cell_setting 'orthorhombic'
loop_
_space_group_symop_operation_xyz
x,y,z
-x,-y,1/2+z
x,-y,-z
-x,y,1/2-z
-x,-y,-z
x,y,1/2-z
-x,y,z
x,-y,1/2+z
1/2+x,1/2+y,z
1/2-x,1/2-y,1/2+z
1/2+x,1/2-y,-z
1/2-x,1/2+y,1/2-z
1/2-x,1/2-y,-z
1/2+x,1/2+y,1/2-z
1/2-x,1/2+y,z
1/2+x,1/2-y,1/2+z
loop_
_atom_site_type_symbol
_atom_site_label
_atom_site_fract_x
_atom_site_fract_y
_atom_site_fract_z
Si Si1 0.345465 0.959562 0.095070
Si Si2 0.085587 0.386580 0.908139
Si Si3 0.821889 0.299408 0.909025
Si Si4 0.177807 0.861347 0.586468
Si Si5 0.086285 0.228144 0.087147
Si Si6 0.831445 0.043440 0.909578
O O1 0.384785 0.958688 0.250000
O O2 0.256546 0.969585 0.111212
O O3 0.356043 0.910128 0.017032
O O4 0.385440 0.000000 0.000000
O O5 0.097958 0.407671 0.750000
O O6 0.102011 0.331213 0.906494
O O7 0.000000 0.395135 0.962226
O O8 0.801751 0.281134 0.750000
O O9 0.751549 0.331226 0.967226
O O10 0.844700 0.255313 0.006783
O O11 0.192098 0.877670 0.750000
O O12 0.104059 0.827456 0.575203
O O13 0.160059 0.906850 0.490634
O O14 0.089705 0.244865 0.250000
O O15 0.000000 0.236659 0.026450
O O16 0.868366 0.046764 0.750000
O O17 0.869201 0.000000 0.000000
#
# Coordination Sequence:
#
# PCOD8258435 Si02
#       6
#    16  16  16  16  16  16
#     4  10  20  33  50  71  98 134 175 221 271 323
#     4  10  20  33  49  70 100 138 179 224 272 319
#     4  10  20  35  56  80 107 144 189 231 271 319
#     4  10  20  36  59  84 112 147 186 230 276 325
#     4  10  22  38  56  82 116 150 183 225 280 335
#     4  10  20  34  56  85 114 143 179 226 277 329
#
# _framework density 20.575496000000001
#
# number of rings (size 3 to 8) (size 9 to 14) (size 15 to 20)
#    0.000    2.000    1.667    2.000    0.000    5.000 
#    0.000    0.000    0.000    0.500    0.000    0.000 
#    0.000    0.000    0.000    0.000    0.000    0.000 
#
# Total GULP energy -594905.650029 kJ/mol
# GULP energy per Si atom -12393.867709 kJ/mol
# Density = 2.052867 g / cm^3
# Si number density = 20.575496 Si / 1000 Ang^3
#
#
#
# Elastic Constant Matrix: (Units=GPa)
#
#
# Indices 1 2 3 4 5 6 
#
# 1 32.9472 11.3205 9.2555 0.0000 0.0000 0.0000
# 2 11.3205 110.6123 59.5571 0.0000 0.0000 0.0000
# 3 9.2555 59.5571 112.6447 0.0000 0.0000 0.0000
# 4 0.0000 0.0000 0.0000 35.7523 0.0000 0.0000
# 5 0.0000 0.0000 0.0000 0.0000 17.7892 0.0000
# 6 0.0000 0.0000 0.0000 0.0000 0.0000 16.8629
#
#
#
# Elastic Compliance Matrix: (Units=1/GPa)
#
#
# Indices 1 2 3 4 5 6 
#
# 1 0.031581 -0.002565 -0.001239 0.000000 0.000000 0.000000
# 2 -0.002565 0.012847 -0.006582 0.000000 0.000000 0.000000
# 3 -0.001239 -0.006582 0.012459 0.000000 0.000000 0.000000
# 4 0.000000 0.000000 0.000000 0.027970 0.000000 0.000000
# 5 0.000000 0.000000 0.000000 0.000000 0.056214 0.000000
# 6 0.000000 0.000000 0.000000 0.000000 0.000000 0.059302
#
#
# Mechanical properties :
#
#
# Convention : Reuss Voigt Hill
#
# Bulk Modulus (GPa) = 27.68854 46.27449 36.98151
# Shear Modulus (GPa) = 21.44248 25.81896 23.63072
#
# Velocity S-wave (km/s) = 3.23172 3.54622 3.39261
# Velocity P-wave (km/s) = 5.23561 6.26949 5.77573
#
# Compressibility (1/GPa) = 0.03611603
#
# Stress axis : x y z
#
# Youngs Moduli (GPa) = 31.66472 77.84014 80.26314
#
# Poissons Ratio (x) = 0.19968 0.09941
# Poissons Ratio (y) = 0.08123 0.52826
# Poissons Ratio (z) = 0.03922 0.51231
#
# Static dielectric constant tensor:
#      x y z
#    x 3.396700 0.000000 0.000000 
#    y 0.000000 3.575570 0.000000 
#    z 0.000000 0.000000 3.933720 
# 
# 
# High freq. dielectric constant tensor:
#      x y z
#    x 1.772510 0.000000 0.000000 
#    y 0.000000 1.801950 0.000000 
#    z 0.000000 0.000000 1.803630 
# 
# From -- ./inp_files/8593.got.cif
#   From: 2010.03.12/outbox.cif.g09.slc.cpg/sg63_5_cif.got.tgz:8593.got - 2010.04.10 19:34:48.
