data_PCOD8258917
_publ_section_title
;
Structure prediction by ZEFSAII (Michael W. Deem and Ramdas Pophale) SiO2 
 PCOD8258917
Probable space group: C M C M
;
_chemical_formula_sum "Si O2"
_cell_formula_units_Z 88
_cell_length_a 19.846636
_cell_length_b 24.425755
_cell_length_c 9.094598
_cell_angle_alpha 90.000000
_cell_angle_beta 90.000000
_cell_angle_gamma 90.000000
_cell_volume 4408.779801
_symmetry_space_group_name_H-M "C M C M"
_symmetry_group_IT_number 63
_symmetry_cell_setting 'orthorhombic'
loop_
_space_group_symop_operation_xyz
x,y,z
-x,-y,1/2+z
x,-y,-z
-x,y,1/2-z
-x,-y,-z
x,y,1/2-z
-x,y,z
x,-y,1/2+z
1/2+x,1/2+y,z
1/2-x,1/2-y,1/2+z
1/2+x,1/2-y,-z
1/2-x,1/2+y,1/2-z
1/2-x,1/2-y,-z
1/2+x,1/2+y,1/2-z
1/2-x,1/2+y,z
1/2+x,1/2-y,1/2+z
loop_
_atom_site_type_symbol
_atom_site_label
_atom_site_fract_x
_atom_site_fract_y
_atom_site_fract_z
Si Si1 0.500000 0.939750 0.426806
Si Si2 0.892418 0.054563 0.576923
Si Si3 0.074124 0.160785 0.417126
Si Si4 0.738897 0.052442 0.920370
Si Si5 0.822942 0.253334 0.074812
Si Si6 0.874908 0.367883 0.077724
O O1 0.500000 0.947335 0.250000
O O2 0.563573 0.903980 0.486026
O O3 0.500000 0.000000 0.500000
O O4 0.903390 0.048972 0.750000
O O5 0.930736 0.107405 0.518422
O O6 0.814995 0.063089 0.530026
O O7 0.921432 0.000000 0.500000
O O8 0.090436 0.143239 0.250000
O O9 0.131876 0.201780 0.474228
O O10 0.000000 0.189044 0.425274
O O11 0.733883 0.039717 0.750000
O O12 0.695751 0.104672 0.966155
O O13 0.707598 0.000000 0.000000
O O14 0.812356 0.256171 0.250000
O O15 0.866282 0.305945 0.018615
O O16 0.750000 0.250000 0.000000
O O17 0.886868 0.365850 0.250000
#
# Coordination Sequence:
#
# PCOD8258917 Si02
#       6
#     8  16  16  16  16  16
#     4  10  20  34  54  80 112 150 191 232 281 340
#     4  10  20  35  57  82 111 145 183 228 279 336
#     4  10  22  38  57  82 112 145 184 231 282 337
#     4   9  17  30  49  75 105 137 176 222 270 321
#     4  10  21  38  60  84 112 146 191 241 289 342
#     4   9  18  32  53  78 106 143 185 227 274 334
#
# _framework density 19.960170999999999
#
# number of rings (size 3 to 8) (size 9 to 14) (size 15 to 20)
#    0.000    2.364    0.000    2.182    1.273    3.636 
#    0.000    1.818    0.000    0.000    0.000    0.000 
#    0.000    0.000    0.000    0.000    0.000    0.000 
#
# Total GULP energy -545410.222812 kJ/mol
# GULP energy per Si atom -12395.686882 kJ/mol
# Density = 1.991474 g / cm^3
# Si number density = 19.960171 Si / 1000 Ang^3
#
#
#
# Elastic Constant Matrix: (Units=GPa)
#
#
# Indices 1 2 3 4 5 6 
#
# 1 113.2678 62.0536 29.5058 0.0000 0.0000 0.0000
# 2 62.0536 152.5141 39.6376 0.0000 0.0000 0.0000
# 3 29.5058 39.6376 45.7246 0.0000 0.0000 0.0000
# 4 0.0000 0.0000 0.0000 30.2261 0.0000 0.0000
# 5 0.0000 0.0000 0.0000 0.0000 22.3060 0.0000
# 6 0.0000 0.0000 0.0000 0.0000 0.0000 61.4707
#
#
#
# Elastic Compliance Matrix: (Units=1/GPa)
#
#
# Indices 1 2 3 4 5 6 
#
# 1 0.012053 -0.003721 -0.004552 0.000000 0.000000 0.000000
# 2 -0.003721 0.009612 -0.005932 0.000000 0.000000 0.000000
# 3 -0.004552 -0.005932 0.029949 0.000000 0.000000 0.000000
# 4 0.000000 0.000000 0.000000 0.033084 0.000000 0.000000
# 5 0.000000 0.000000 0.000000 0.000000 0.044831 0.000000
# 6 0.000000 0.000000 0.000000 0.000000 0.000000 0.016268
#
#
# Mechanical properties :
#
#
# Convention : Reuss Voigt Hill
#
# Bulk Modulus (GPa) = 43.09327 63.76672 53.43000
# Shear Modulus (GPa) = 27.48128 34.82119 31.15123
#
# Velocity S-wave (km/s) = 3.71456 4.18129 3.95482
# Velocity P-wave (km/s) = 6.32722 7.43823 6.90511
#
# Compressibility (1/GPa) = 0.02320548
#
# Stress axis : x y z
#
# Youngs Moduli (GPa) = 82.96730 104.03351 33.38955
#
# Poissons Ratio (x) = 0.38710 0.15199
# Poissons Ratio (y) = 0.30871 0.19805
# Poissons Ratio (z) = 0.37768 0.61708
#
# Static dielectric constant tensor:
#      x y z
#    x 3.787980 0.000000 0.000000 
#    y 0.000000 4.094440 0.000000 
#    z 0.000000 0.000000 3.323920 
# 
# 
# High freq. dielectric constant tensor:
#      x y z
#    x 1.789450 0.000000 0.000000 
#    y 0.000000 1.786490 0.000000 
#    z 0.000000 0.000000 1.747480 
# 
# From -- ./inp_files/8224.got.cif
#   From: 2010.03.12/outbox.cif.g09.slc.cpg/sg63_5_cif.got.tgz:8224.got - 2010.04.10 19:34:48.
