data_PCOD8258654
_publ_section_title
;
Structure prediction by ZEFSAII (Michael W. Deem and Ramdas Pophale) SiO2 
 PCOD8258654
Probable space group: C M C M
;
_chemical_formula_sum "Si O2"
_cell_formula_units_Z 80
_cell_length_a 14.887326
_cell_length_b 28.326027
_cell_length_c 8.953677
_cell_angle_alpha 90.000000
_cell_angle_beta 90.000000
_cell_angle_gamma 90.000000
_cell_volume 3775.754831
_symmetry_space_group_name_H-M "C M C M"
_symmetry_group_IT_number 63
_symmetry_cell_setting 'orthorhombic'
loop_
_space_group_symop_operation_xyz
x,y,z
-x,-y,1/2+z
x,-y,-z
-x,y,1/2-z
-x,-y,-z
x,y,1/2-z
-x,y,z
x,-y,1/2+z
1/2+x,1/2+y,z
1/2-x,1/2-y,1/2+z
1/2+x,1/2-y,-z
1/2-x,1/2+y,1/2-z
1/2-x,1/2-y,-z
1/2+x,1/2+y,1/2-z
1/2-x,1/2+y,z
1/2+x,1/2-y,1/2+z
loop_
_atom_site_type_symbol
_atom_site_label
_atom_site_fract_x
_atom_site_fract_y
_atom_site_fract_z
Si Si1 0.400716 0.326279 0.089832
Si Si2 0.663479 0.770809 0.577291
Si Si3 0.104048 0.373144 0.573448
Si Si4 0.772963 0.547828 0.572549
Si Si5 0.894478 0.914560 0.578122
O O1 0.348418 0.332538 0.250000
O O2 0.500000 0.345239 0.114912
O O3 0.407578 0.271120 0.046591
O O4 0.362146 0.360650 0.961484
O O5 0.683648 0.778374 0.750000
O O6 0.750000 0.750000 0.500000
O O7 0.628487 0.820482 0.512942
O O8 0.121300 0.377711 0.750000
O O9 0.166263 0.409392 0.485488
O O10 0.000000 0.383100 0.535866
O O11 0.811996 0.500000 0.500000
O O12 0.778364 0.544895 0.750000
O O13 0.668377 0.552177 0.522533
O O14 0.870950 0.923096 0.750000
O O15 0.000000 0.924869 0.547271
#
# Coordination Sequence:
#
# PCOD8258654 Si02
#       5
#    16  16  16  16  16
#     4   9  17  31  52  79 113 153 194 232 275 335
#     4  10  20  33  53  83 119 159 199 241 292 348
#     4  10  22  42  66  91 123 164 210 260 311 363
#     4  12  26  44  66  90 118 154 200 256 316 377
#     4  10  21  38  61  91 127 164 202 247 302 366
#
# _framework density 21.187815000000001
#
# number of rings (size 3 to 8) (size 9 to 14) (size 15 to 20)
#    0.000    1.800    0.000    4.200    0.000    9.600 
#    0.000    0.000    0.000    3.600    0.000    0.000 
#    0.000    0.000    0.000    0.000    0.000    0.000 
#
# Total GULP energy -495561.826282 kJ/mol
# GULP energy per Si atom -12389.045657 kJ/mol
# Density = 2.113959 g / cm^3
# Si number density = 21.187815 Si / 1000 Ang^3
#
#
#
# Elastic Constant Matrix: (Units=GPa)
#
#
# Indices 1 2 3 4 5 6 
#
# 1 93.3042 31.9239 46.3788 0.0000 0.0000 0.0000
# 2 31.9239 113.1822 45.7489 0.0000 0.0000 0.0000
# 3 46.3788 45.7489 98.4463 0.0000 0.0000 0.0000
# 4 0.0000 0.0000 0.0000 34.7021 0.0000 0.0000
# 5 0.0000 0.0000 0.0000 0.0000 31.8786 0.0000
# 6 0.0000 0.0000 0.0000 0.0000 0.0000 26.3928
#
#
#
# Elastic Compliance Matrix: (Units=1/GPa)
#
#
# Indices 1 2 3 4 5 6 
#
# 1 0.014228 -0.001605 -0.005957 0.000000 0.000000 0.000000
# 2 -0.001605 0.011060 -0.004383 0.000000 0.000000 0.000000
# 3 -0.005957 -0.004383 0.015001 0.000000 0.000000 0.000000
# 4 0.000000 0.000000 0.000000 0.028817 0.000000 0.000000
# 5 0.000000 0.000000 0.000000 0.000000 0.031369 0.000000
# 6 0.000000 0.000000 0.000000 0.000000 0.000000 0.037889
#
#
# Mechanical properties :
#
#
# Convention : Reuss Voigt Hill
#
# Bulk Modulus (GPa) = 60.98361 61.44844 61.21602
# Shear Modulus (GPa) = 29.81147 30.65344 30.23246
#
# Velocity S-wave (km/s) = 3.75508 3.80774 3.78150
# Velocity P-wave (km/s) = 6.90259 6.95677 6.92973
#
# Compressibility (1/GPa) = 0.01639785
#
# Stress axis : x y z
#
# Youngs Moduli (GPa) = 70.28458 90.41698 66.66154
#
# Poissons Ratio (x) = 0.14514 0.39709
# Poissons Ratio (y) = 0.11283 0.29220
# Poissons Ratio (z) = 0.41868 0.39633
#
# Static dielectric constant tensor:
#      x y z
#    x 3.504930 0.000000 0.000000 
#    y 0.000000 29.608820 0.000000 
#    z 0.000000 0.000000 3.838020 
# 
# 
# High freq. dielectric constant tensor:
#      x y z
#    x 1.822710 0.000000 0.000000 
#    y 0.000000 1.840680 0.000000 
#    z 0.000000 0.000000 1.821810 
# 
# From -- ./inp_files/6355.got.cif
#   From: 2010.03.12/outbox.cif.g09.slc.cpg/sg63_4_cif.got.tgz:6355.got - 2010.04.10 19:34:48.
