data_PCOD8258246
_publ_section_title
;
Structure prediction by ZEFSAII (Michael W. Deem and Ramdas Pophale) SiO2 
 PCOD8258246
Probable space group: C M C M
;
_chemical_formula_sum "Si O2"
_cell_formula_units_Z 96
_cell_length_a 21.995999
_cell_length_b 10.169080
_cell_length_c 26.480929
_cell_angle_alpha 90.000000
_cell_angle_beta 90.000000
_cell_angle_gamma 90.000000
_cell_volume 5923.229664
_symmetry_space_group_name_H-M "C M C M"
_symmetry_group_IT_number 63
_symmetry_cell_setting 'orthorhombic'
loop_
_space_group_symop_operation_xyz
x,y,z
-x,-y,1/2+z
x,-y,-z
-x,y,1/2-z
-x,-y,-z
x,y,1/2-z
-x,y,z
x,-y,1/2+z
1/2+x,1/2+y,z
1/2-x,1/2-y,1/2+z
1/2+x,1/2-y,-z
1/2-x,1/2+y,1/2-z
1/2-x,1/2-y,-z
1/2+x,1/2+y,1/2-z
1/2-x,1/2+y,z
1/2+x,1/2-y,1/2+z
loop_
_atom_site_type_symbol
_atom_site_label
_atom_site_fract_x
_atom_site_fract_y
_atom_site_fract_z
Si Si1 0.931207 0.157010 0.612895
Si Si2 0.930554 0.960364 0.806685
Si Si3 0.120557 0.891024 0.905421
Si Si4 0.126594 0.394371 0.565137
Si Si5 0.069324 0.653735 0.959323
Si Si6 0.740533 0.377207 0.965400
O O1 0.894267 0.292337 0.608073
O O2 0.000000 0.178044 0.593276
O O3 0.930454 0.110737 0.671695
O O4 0.899476 0.040206 0.579667
O O5 0.904014 0.957142 0.750000
O O6 0.887787 0.873621 0.844275
O O7 0.000000 0.906950 0.807838
O O8 0.073542 0.791296 0.930966
O O9 0.188266 0.856218 0.923579
O O10 0.096876 0.536638 0.575222
O O11 0.106859 0.337636 0.510966
O O12 0.199074 0.408753 0.566274
O O13 0.000000 0.621065 0.971967
O O14 0.722300 0.500000 0.000000
O O15 0.750000 0.250000 0.000000
#
# Coordination Sequence:
#
# PCOD8258246 Si02
#       6
#    16  16  16  16  16  16
#     4   9  18  32  52  79  99 124 166 217 262 298
#     4   8  16  33  56  80 101 121 159 221 281 313
#     4  10  20  31  52  78  98 129 173 213 253 299
#     4  11  20  33  46  69 103 147 173 192 242 302
#     4  11  20  32  47  70 107 140 169 204 244 300
#     4  12  21  35  48  69 106 142 179 202 235 297
#
# _framework density 16.207374000000002
#
# number of rings (size 3 to 8) (size 9 to 14) (size 15 to 20)
#    1.000    0.833    3.333    4.000    0.000    0.000 
#    0.000    1.667    0.000    2.000    0.000    2.333 
#    0.000    0.000    0.000    0.000    0.000    0.000 
#
# Total GULP energy -594809.323188 kJ/mol
# GULP energy per Si atom -12391.860900 kJ/mol
# Density = 1.617049 g / cm^3
# Si number density = 16.207374 Si / 1000 Ang^3
#
#
#
# Elastic Constant Matrix: (Units=GPa)
#
#
# Indices 1 2 3 4 5 6 
#
# 1 103.0356 14.5201 39.7714 0.0000 0.0000 0.0000
# 2 14.5201 60.1787 20.3924 0.0000 0.0000 0.0000
# 3 39.7714 20.3924 76.7252 0.0000 0.0000 0.0000
# 4 0.0000 0.0000 0.0000 14.7826 0.0000 0.0000
# 5 0.0000 0.0000 0.0000 0.0000 21.9073 0.0000
# 6 0.0000 0.0000 0.0000 0.0000 0.0000 23.3705
#
#
#
# Elastic Compliance Matrix: (Units=1/GPa)
#
#
# Indices 1 2 3 4 5 6 
#
# 1 0.012175 -0.000878 -0.006078 0.000000 0.000000 0.000000
# 2 -0.000878 0.018325 -0.004415 0.000000 0.000000 0.000000
# 3 -0.006078 -0.004415 0.017358 0.000000 0.000000 0.000000
# 4 0.000000 0.000000 0.000000 0.067647 0.000000 0.000000
# 5 0.000000 0.000000 0.000000 0.000000 0.045647 0.000000
# 6 0.000000 0.000000 0.000000 0.000000 0.000000 0.042789
#
#
# Mechanical properties :
#
#
# Convention : Reuss Voigt Hill
#
# Bulk Modulus (GPa) = 39.81616 43.25637 41.53627
# Shear Modulus (GPa) = 21.27158 23.02910 22.15034
#
# Velocity S-wave (km/s) = 3.62672 3.77358 3.70088
# Velocity P-wave (km/s) = 6.49288 6.76267 6.62915
#
# Compressibility (1/GPa) = 0.02511543
#
# Stress axis : x y z
#
# Youngs Moduli (GPa) = 82.13485 54.56944 57.61190
#
# Poissons Ratio (x) = 0.04792 0.35015
# Poissons Ratio (y) = 0.07212 0.25438
# Poissons Ratio (z) = 0.49919 0.24095
#
# Static dielectric constant tensor:
#      x y z
#    x 3.079180 0.000000 0.000000 
#    y 0.000000 3.099620 0.000000 
#    z 0.000000 0.000000 2.736200 
# 
# 
# High freq. dielectric constant tensor:
#      x y z
#    x 1.630100 0.000000 0.000000 
#    y 0.000000 1.622210 0.000000 
#    z 0.000000 0.000000 1.578310 
# 
# From -- ./inp_files/70445.got.cif
#   From: 2010.03.12/outbox.cif.g09.slc.cpg/sg63_36_cif.got.tgz:70445.got - 2010.04.10 19:34:48.
