data_PCOD8258477
_publ_section_title
;
Structure prediction by ZEFSAII (Michael W. Deem and Ramdas Pophale) SiO2 
 PCOD8258477
Probable space group: C M C M
;
_chemical_formula_sum "Si O2"
_cell_formula_units_Z 96
_cell_length_a 28.497810
_cell_length_b 20.861551
_cell_length_c 8.960592
_cell_angle_alpha 90.000000
_cell_angle_beta 90.000000
_cell_angle_gamma 90.000000
_cell_volume 5327.148259
_symmetry_space_group_name_H-M "C M C M"
_symmetry_group_IT_number 63
_symmetry_cell_setting 'orthorhombic'
loop_
_space_group_symop_operation_xyz
x,y,z
-x,-y,1/2+z
x,-y,-z
-x,y,1/2-z
-x,-y,-z
x,y,1/2-z
-x,y,z
x,-y,1/2+z
1/2+x,1/2+y,z
1/2-x,1/2-y,1/2+z
1/2+x,1/2-y,-z
1/2-x,1/2+y,1/2-z
1/2-x,1/2-y,-z
1/2+x,1/2+y,1/2-z
1/2-x,1/2+y,z
1/2+x,1/2-y,1/2+z
loop_
_atom_site_type_symbol
_atom_site_label
_atom_site_fract_x
_atom_site_fract_y
_atom_site_fract_z
Si Si1 0.785633 0.559522 0.422837
Si Si2 0.285065 0.201476 0.423823
Si Si3 0.885691 0.298806 0.076051
Si Si4 0.885941 0.559501 0.922673
Si Si5 0.944464 0.191220 0.921188
Si Si6 0.944110 0.063170 0.081512
O O1 0.756914 0.500000 0.500000
O O2 0.791477 0.543692 0.250000
O O3 0.763113 0.629893 0.446672
O O4 0.835633 0.562262 0.501090
O O5 0.289926 0.217764 0.250000
O O6 0.250000 0.250000 0.500000
O O7 0.336032 0.208774 0.495722
O O8 0.877924 0.284362 0.250000
O O9 0.908255 0.370034 0.052984
O O10 0.923021 0.250489 0.008725
O O11 0.880696 0.543311 0.750000
O O12 0.914584 0.500000 0.000000
O O13 0.928270 0.192634 0.750000
O O14 0.000000 0.196169 0.936507
O O15 0.925747 0.125355 0.993552
O O16 0.924567 0.065046 0.250000
O O17 0.000000 0.061482 0.081853
O O18 0.924161 0.000000 0.000000
#
# Coordination Sequence:
#
# PCOD8258477 Si02
#       6
#    16  16  16  16  16  16
#     4   9  16  26  43  67  93 121 155 195 236 278
#     4  10  20  33  50  73 100 130 163 199 241 289
#     4  10  20  33  50  73 100 130 163 200 244 292
#     4   9  16  26  43  67  93 121 155 196 239 282
#     4  10  20  33  50  73 100 130 164 202 245 292
#     4   9  16  27  45  69  96 125 159 200 242 284
#
# _framework density 18.020900000000001
#
# number of rings (size 3 to 8) (size 9 to 14) (size 15 to 20)
#    0.000    2.500    0.000    4.000    0.000    7.000 
#    0.000    0.000    0.000    1.500    0.000    4.667 
#    0.000    0.000    0.000    0.000    0.000    0.000 
#
# Total GULP energy -594790.501009 kJ/mol
# GULP energy per Si atom -12391.468771 kJ/mol
# Density = 1.797988 g / cm^3
# Si number density = 18.020900 Si / 1000 Ang^3
#
#
#
# Elastic Constant Matrix: (Units=GPa)
#
#
# Indices 1 2 3 4 5 6 
#
# 1 18.3751 28.6800 23.9433 0.0000 0.0000 0.0000
# 2 28.6800 177.3247 95.0450 0.0000 0.0000 0.0000
# 3 23.9433 95.0450 162.6041 0.0000 0.0000 0.0000
# 4 0.0000 0.0000 0.0000 39.9308 0.0000 0.0000
# 5 0.0000 0.0000 0.0000 0.0000 21.8886 0.0000
# 6 0.0000 0.0000 0.0000 0.0000 0.0000 22.4797
#
#
#
# Elastic Compliance Matrix: (Units=1/GPa)
#
#
# Indices 1 2 3 4 5 6 
#
# 1 0.076461 -0.009221 -0.005869 0.000000 0.000000 0.000000
# 2 -0.009221 0.009324 -0.004092 0.000000 0.000000 0.000000
# 3 -0.005869 -0.004092 0.009406 0.000000 0.000000 0.000000
# 4 0.000000 0.000000 0.000000 0.025043 0.000000 0.000000
# 5 0.000000 0.000000 0.000000 0.000000 0.045686 0.000000
# 6 0.000000 0.000000 0.000000 0.000000 0.000000 0.044485
#
#
# Mechanical properties :
#
#
# Convention : Reuss Voigt Hill
#
# Bulk Modulus (GPa) = 17.59729 72.62672 45.11200
# Shear Modulus (GPa) = 18.67677 30.90220 24.78948
#
# Velocity S-wave (km/s) = 3.22280 4.14550 3.71293
# Velocity P-wave (km/s) = 4.86156 7.95629 6.59307
#
# Compressibility (1/GPa) = 0.05682694
#
# Stress axis : x y z
#
# Youngs Moduli (GPa) = 13.07854 107.24742 106.31263
#
# Poissons Ratio (x) = 0.98891 0.62396
# Poissons Ratio (y) = 0.12059 0.43508
# Poissons Ratio (z) = 0.07676 0.43890
#
# Static dielectric constant tensor:
#      x y z
#    x 2.641570 0.000000 0.000000 
#    y 0.000000 4.657980 0.000000 
#    z 0.000000 0.000000 3.599520 
# 
# 
# High freq. dielectric constant tensor:
#      x y z
#    x 1.619790 0.000000 0.000000 
#    y 0.000000 1.728380 0.000000 
#    z 0.000000 0.000000 1.722630 
# 
# From -- ./inp_files/12339.got.cif
#   From: 2010.03.12/outbox.cif.g09.slc.cpg/sg63_7_cif.got.tgz:12339.got - 2010.04.10 19:34:48.
