data_PCOD8258185
_publ_section_title
;
Structure prediction by ZEFSAII (Michael W. Deem and Ramdas Pophale) SiO2 
 PCOD8258185
Probable space group: C M C M
;
_chemical_formula_sum "Si O2"
_cell_formula_units_Z 64
_cell_length_a 12.933358
_cell_length_b 12.278436
_cell_length_c 18.138915
_cell_angle_alpha 90.000000
_cell_angle_beta 90.000000
_cell_angle_gamma 90.000000
_cell_volume 2880.485250
_symmetry_space_group_name_H-M "C M C M"
_symmetry_group_IT_number 63
_symmetry_cell_setting 'orthorhombic'
loop_
_space_group_symop_operation_xyz
x,y,z
-x,-y,1/2+z
x,-y,-z
-x,y,1/2-z
-x,-y,-z
x,y,1/2-z
-x,y,z
x,-y,1/2+z
1/2+x,1/2+y,z
1/2-x,1/2-y,1/2+z
1/2+x,1/2-y,-z
1/2-x,1/2+y,1/2-z
1/2-x,1/2-y,-z
1/2+x,1/2+y,1/2-z
1/2-x,1/2+y,z
1/2+x,1/2-y,1/2+z
loop_
_atom_site_type_symbol
_atom_site_label
_atom_site_fract_x
_atom_site_fract_y
_atom_site_fract_z
Si Si1 0.886581 0.956854 0.418200
Si Si2 0.382925 0.107654 0.407815
Si Si3 0.181071 0.163967 0.334872
Si Si4 0.175564 0.363961 0.071354
O O1 0.876103 0.054836 0.360451
O O2 0.000000 0.903193 0.408633
O O3 0.868950 0.000000 0.500000
O O4 0.797530 0.867842 0.406749
O O5 0.500000 0.145547 0.391270
O O6 0.304972 0.151791 0.345858
O O7 0.342693 0.158324 0.484996
O O8 0.380904 0.976307 0.408413
O O9 0.157017 0.185727 0.250000
O O10 0.131467 0.264007 0.381103
#
# Coordination Sequence:
#
# PCOD8258185 Si02
#       4
#    16  16  16  16
#     4  10  21  39  63  89 118 157 205 251 297 355
#     4  10  21  39  63  89 119 158 205 250 296 358
#     4  11  24  40  59  90 128 160 197 249 311 365
#     4  10  19  39  62  92 117 159 201 251 303 354
#
# _framework density 22.218478999999999
#
# number of rings (size 3 to 8) (size 9 to 14) (size 15 to 20)
#    0.000    1.750    5.000    2.250    0.000    8.000 
#    0.000    0.000    0.000    0.000    0.000    0.000 
#    0.000    0.000    0.000    0.000    0.000    0.000 
#
# Total GULP energy -396755.585255 kJ/mol
# GULP energy per Si atom -12398.612039 kJ/mol
# Density = 2.216791 g / cm^3
# Si number density = 22.218479 Si / 1000 Ang^3
#
#
#
# Elastic Constant Matrix: (Units=GPa)
#
#
# Indices 1 2 3 4 5 6 
#
# 1 102.1846 -14.8418 -5.0989 0.0000 0.0000 0.0000
# 2 -14.8418 43.1437 19.4271 0.0000 0.0000 0.0000
# 3 -5.0989 19.4271 96.4382 0.0000 0.0000 0.0000
# 4 0.0000 0.0000 0.0000 27.6387 0.0000 0.0000
# 5 0.0000 0.0000 0.0000 0.0000 -2.0036 0.0000
# 6 0.0000 0.0000 0.0000 0.0000 0.0000 -0.3870
#
#
#
# Elastic Compliance Matrix: (Units=1/GPa)
#
#
# Indices 1 2 3 4 5 6 
#
# 1 0.010304 0.003628 -0.000186 0.000000 0.000000 0.000000
# 2 0.003628 0.026768 -0.005201 0.000000 0.000000 0.000000
# 3 -0.000186 -0.005201 0.011407 0.000000 0.000000 0.000000
# 4 0.000000 0.000000 0.000000 0.036181 0.000000 0.000000
# 5 0.000000 0.000000 0.000000 0.000000 -0.499110 0.000000
# 6 0.000000 0.000000 0.000000 0.000000 0.000000 -2.584281
#
#
# Mechanical properties :
#
#
# Convention : Reuss Voigt Hill
#
# Bulk Modulus (GPa) = 22.24054 26.74881 24.49468
# Shear Modulus (GPa) = -1.67773 21.20164 9.76196
#
# Velocity S-wave (km/s) = -0.86991 3.09242 2.09837
# Velocity P-wave (km/s) = 3.00378 4.98155 4.11330
#
# Compressibility (1/GPa) = 0.04496293
#
# Stress axis : x y z
#
# Youngs Moduli (GPa) = 97.05027 37.35764 87.66462
#
# Poissons Ratio (x) = -0.13555 0.01632
# Poissons Ratio (y) = -0.35214 0.45590
# Poissons Ratio (z) = 0.01806 0.19428
#
# Static dielectric constant tensor:
#      x y z
#    x 4.085790 0.000000 0.000000 
#    y 0.000000 3.860940 0.000000 
#    z 0.000000 0.000000 3.586500 
# 
# 
# High freq. dielectric constant tensor:
#      x y z
#    x 1.878400 0.000000 0.000000 
#    y 0.000000 1.875280 0.000000 
#    z 0.000000 0.000000 1.837480 
# 
# From -- ./inp_files/43657.got.cif
#   From: 2010.03.12/outbox.cif.g09.slc.cpg/sg63_22_cif.got.tgz:43657.got - 2010.04.10 19:34:48.
