data_PCOD8258881
_publ_section_title
;
Structure prediction by ZEFSAII (Michael W. Deem and Ramdas Pophale) SiO2 
 PCOD8258881
Probable space group: C M C M
;
_chemical_formula_sum "Si O2"
_cell_formula_units_Z 64
_cell_length_a 15.035069
_cell_length_b 29.504576
_cell_length_c 8.956100
_cell_angle_alpha 90.000000
_cell_angle_beta 90.000000
_cell_angle_gamma 90.000000
_cell_volume 3972.955837
_symmetry_space_group_name_H-M "C M C M"
_symmetry_group_IT_number 63
_symmetry_cell_setting 'orthorhombic'
loop_
_space_group_symop_operation_xyz
x,y,z
-x,-y,1/2+z
x,-y,-z
-x,y,1/2-z
-x,-y,-z
x,y,1/2-z
-x,y,z
x,-y,1/2+z
1/2+x,1/2+y,z
1/2-x,1/2-y,1/2+z
1/2+x,1/2-y,-z
1/2-x,1/2+y,1/2-z
1/2-x,1/2-y,-z
1/2+x,1/2+y,1/2-z
1/2-x,1/2+y,z
1/2+x,1/2-y,1/2+z
loop_
_atom_site_type_symbol
_atom_site_label
_atom_site_fract_x
_atom_site_fract_y
_atom_site_fract_z
Si Si1 0.899128 0.361020 0.574551
Si Si2 0.209414 0.707249 0.918790
Si Si3 0.735801 0.388896 0.081434
Si Si4 0.602699 0.453669 0.924904
O O1 0.881526 0.359988 0.750000
O O2 0.878199 0.310826 0.506948
O O3 0.832259 0.397647 0.497656
O O4 0.000000 0.374749 0.536599
O O5 0.182983 0.720551 0.750000
O O6 0.280954 0.665641 0.918672
O O7 0.250000 0.750000 0.000000
O O8 0.738388 0.408110 0.250000
O O9 0.657388 0.411844 0.989626
O O10 0.619163 0.457512 0.750000
O O11 0.500000 0.444808 0.964162
O O12 0.636328 0.500000 0.000000
#
# Coordination Sequence:
#
# PCOD8258881 Si02
#       4
#    16  16  16  16
#     4   9  17  30  50  73  98 131 168 204 246 299
#     4   9  18  30  48  71  99 133 168 209 253 298
#     4   9  19  32  50  74 101 134 169 210 253 300
#     4  10  20  34  54  78 104 135 171 211 257 310
#
# _framework density 16.108913000000001
#
# number of rings (size 3 to 8) (size 9 to 14) (size 15 to 20)
#    1.500    1.250    0.000    2.250    0.000    3.500 
#    0.000    1.250    0.000    2.250    0.000    0.000 
#    0.000    0.000    0.000    0.000    0.000    0.000 
#
# Total GULP energy -396450.904835 kJ/mol
# GULP energy per Si atom -12389.090776 kJ/mol
# Density = 1.607225 g / cm^3
# Si number density = 16.108913 Si / 1000 Ang^3
#
#
#
# Elastic Constant Matrix: (Units=GPa)
#
#
# Indices 1 2 3 4 5 6 
#
# 1 86.6924 38.0664 55.4660 0.0000 0.0000 0.0000
# 2 38.0664 59.2251 36.5580 0.0000 0.0000 0.0000
# 3 55.4660 36.5580 117.4205 0.0000 0.0000 0.0000
# 4 0.0000 0.0000 0.0000 31.0355 0.0000 0.0000
# 5 0.0000 0.0000 0.0000 0.0000 26.6939 0.0000
# 6 0.0000 0.0000 0.0000 0.0000 0.0000 23.4049
#
#
#
# Elastic Compliance Matrix: (Units=1/GPa)
#
#
# Indices 1 2 3 4 5 6 
#
# 1 0.019436 -0.008449 -0.006550 0.000000 0.000000 0.000000
# 2 -0.008449 0.024574 -0.003660 0.000000 0.000000 0.000000
# 3 -0.006550 -0.003660 0.012750 0.000000 0.000000 0.000000
# 4 0.000000 0.000000 0.000000 0.032221 0.000000 0.000000
# 5 0.000000 0.000000 0.000000 0.000000 0.037462 0.000000
# 6 0.000000 0.000000 0.000000 0.000000 0.000000 0.042726
#
#
# Mechanical properties :
#
#
# Convention : Reuss Voigt Hill
#
# Bulk Modulus (GPa) = 51.43572 58.16876 54.80224
# Shear Modulus (GPa) = 23.47759 25.11001 24.29380
#
# Velocity S-wave (km/s) = 3.82177 3.95240 3.88764
# Velocity P-wave (km/s) = 7.17453 7.55094 7.36514
#
# Compressibility (1/GPa) = 0.01944174
#
# Stress axis : x y z
#
# Youngs Moduli (GPa) = 51.45114 40.69268 78.43014
#
# Poissons Ratio (x) = 0.34381 0.51375
# Poissons Ratio (y) = 0.43470 0.28706
# Poissons Ratio (z) = 0.33703 0.14894
#
# Static dielectric constant tensor:
#      x y z
#    x 2.857630 0.000000 0.000000 
#    y 0.000000 2.782960 0.000000 
#    z 0.000000 0.000000 3.235310 
# 
# 
# High freq. dielectric constant tensor:
#      x y z
#    x 1.599380 0.000000 0.000000 
#    y 0.000000 1.591400 0.000000 
#    z 0.000000 0.000000 1.644670 
# 
# From -- ./inp_files/4846.got.cif
#   From: 2010.03.12/outbox.cif.g09.slc.cpg/sg63_3_cif.got.tgz:4846.got - 2010.04.10 19:34:48.
