data_PCOD8258269
_publ_section_title
;
Structure prediction by ZEFSAII (Michael W. Deem and Ramdas Pophale) SiO2 
 PCOD8258269
Probable space group: C M C M
;
_chemical_formula_sum "Si O2"
_cell_formula_units_Z 128
_cell_length_a 23.911994
_cell_length_b 17.921715
_cell_length_c 18.368080
_cell_angle_alpha 90.000000
_cell_angle_beta 90.000000
_cell_angle_gamma 90.000000
_cell_volume 7871.529402
_symmetry_space_group_name_H-M "C M C M"
_symmetry_group_IT_number 63
_symmetry_cell_setting 'orthorhombic'
loop_
_space_group_symop_operation_xyz
x,y,z
-x,-y,1/2+z
x,-y,-z
-x,y,1/2-z
-x,-y,-z
x,y,1/2-z
-x,y,z
x,-y,1/2+z
1/2+x,1/2+y,z
1/2-x,1/2-y,1/2+z
1/2+x,1/2-y,-z
1/2-x,1/2+y,1/2-z
1/2-x,1/2-y,-z
1/2+x,1/2+y,1/2-z
1/2-x,1/2+y,z
1/2+x,1/2-y,1/2+z
loop_
_atom_site_type_symbol
_atom_site_label
_atom_site_fract_x
_atom_site_fract_y
_atom_site_fract_z
Si Si1 0.064772 0.489995 0.332811
Si Si2 0.126095 0.724838 0.334411
Si Si3 0.804094 0.861933 0.169720
Si Si4 0.136265 0.379326 0.081465
Si Si5 0.194735 0.260901 0.331370
Si Si6 0.246576 0.476514 0.422435
Si Si7 0.064389 0.371917 0.935964
Si Si8 0.233125 0.373888 0.834693
O O1 0.080682 0.512800 0.250000
O O2 0.100006 0.418122 0.355745
O O3 0.080092 0.557022 0.386782
O O4 0.000000 0.468898 0.338532
O O5 0.108301 0.718748 0.250000
O O6 0.144109 0.809401 0.353839
O O7 0.075021 0.701736 0.386916
O O8 0.176190 0.668572 0.353377
O O9 0.815524 0.895011 0.250000
O O10 0.748938 0.812360 0.172751
O O11 0.796605 0.930384 0.114900
O O12 0.151151 0.296547 0.111394
O O13 0.191634 0.426748 0.066166
O O14 0.101942 0.371886 0.007531
O O15 0.168360 0.256488 0.250000
O O16 0.214109 0.178452 0.357833
O O17 0.270685 0.500000 0.500000
O O18 0.232161 0.548818 0.376204
O O19 0.000000 0.373713 0.960273
O O20 0.236984 0.391854 0.750000
#
# Coordination Sequence:
#
# PCOD8258269 Si02
#       8
#    16  16  16  16  16  16  16  16
#     4  10  20  32  45  61  83 115 157 199 229 256
#     4   9  17  31  49  65  85 117 153 185 222 267
#     4   8  16  30  45  63  88 116 146 183 223 261
#     4  11  20  31  45  63  91 124 154 183 223 269
#     4   8  16  30  47  66  87 115 151 187 221 262
#     4  11  20  27  41  66  93 121 151 178 211 264
#     4  11  22  33  45  64  91 120 152 193 233 262
#     4   9  17  30  47  67  91 118 150 187 223 261
#
# _framework density 16.261134999999999
#
# number of rings (size 3 to 8) (size 9 to 14) (size 15 to 20)
#    0.000    2.375    0.000    5.625    0.000    5.250 
#    0.000    3.750    0.000    0.000    0.000    0.000 
#    0.000    5.500    0.000   11.625    0.000    0.000 
#
# Total GULP energy -793436.522058 kJ/mol
# GULP energy per Si atom -12397.445657 kJ/mol
# Density = 1.622412 g / cm^3
# Si number density = 16.261135 Si / 1000 Ang^3
#
#
#
# Elastic Constant Matrix: (Units=GPa)
#
#
# Indices 1 2 3 4 5 6 
#
# 1 42.2841 23.3111 32.2514 0.0000 0.0000 0.0000
# 2 23.3111 63.0279 37.6826 0.0000 0.0000 0.0000
# 3 32.2514 37.6826 80.5438 0.0000 0.0000 0.0000
# 4 0.0000 0.0000 0.0000 19.1837 0.0000 0.0000
# 5 0.0000 0.0000 0.0000 0.0000 22.8153 0.0000
# 6 0.0000 0.0000 0.0000 0.0000 0.0000 23.7231
#
#
#
# Elastic Compliance Matrix: (Units=1/GPa)
#
#
# Indices 1 2 3 4 5 6 
#
# 1 0.035867 -0.006496 -0.011323 0.000000 0.000000 0.000000
# 2 -0.006496 0.023204 -0.008255 0.000000 0.000000 0.000000
# 3 -0.011323 -0.008255 0.020812 0.000000 0.000000 0.000000
# 4 0.000000 0.000000 0.000000 0.052128 0.000000 0.000000
# 5 0.000000 0.000000 0.000000 0.000000 0.043830 0.000000
# 6 0.000000 0.000000 0.000000 0.000000 0.000000 0.042153
#
#
# Mechanical properties :
#
#
# Convention : Reuss Voigt Hill
#
# Bulk Modulus (GPa) = 36.05520 41.37177 38.71349
# Shear Modulus (GPa) = 17.89640 19.31844 18.60742
#
# Velocity S-wave (km/s) = 3.32107 3.45050 3.38640
# Velocity P-wave (km/s) = 6.07674 6.43210 6.25694
#
# Compressibility (1/GPa) = 0.02773525
#
# Stress axis : x y z
#
# Youngs Moduli (GPa) = 27.88077 43.09624 48.05031
#
# Poissons Ratio (x) = 0.27995 0.54406
# Poissons Ratio (y) = 0.18111 0.39665
# Poissons Ratio (z) = 0.31569 0.35575
#
# Static dielectric constant tensor:
#      x y z
#    x 2.905440 0.000000 0.000000 
#    y 0.000000 3.167110 0.000000 
#    z 0.000000 0.000000 3.314290 
# 
# 
# High freq. dielectric constant tensor:
#      x y z
#    x 1.588790 0.000000 0.000000 
#    y 0.000000 1.611480 0.000000 
#    z 0.000000 0.000000 1.636810 
# 
# From -- ./inp_files/48408.got.cif
#   From: 2010.03.12/outbox.cif.g09.slc.cpg/sg63_25_cif.got.tgz:48408.got - 2010.04.10 19:34:48.
