data_PCOD8258696
_publ_section_title
;
Structure prediction by ZEFSAII (Michael W. Deem and Ramdas Pophale) SiO2 
 PCOD8258696
Probable space group: C M C M
;
_chemical_formula_sum "Si O2"
_cell_formula_units_Z 120
_cell_length_a 27.980814
_cell_length_b 27.089883
_cell_length_c 9.131058
_cell_angle_alpha 90.000000
_cell_angle_beta 90.000000
_cell_angle_gamma 90.000000
_cell_volume 6921.314365
_symmetry_space_group_name_H-M "C M C M"
_symmetry_group_IT_number 63
_symmetry_cell_setting 'orthorhombic'
loop_
_space_group_symop_operation_xyz
x,y,z
-x,-y,1/2+z
x,-y,-z
-x,y,1/2-z
-x,-y,-z
x,y,1/2-z
-x,y,z
x,-y,1/2+z
1/2+x,1/2+y,z
1/2-x,1/2-y,1/2+z
1/2+x,1/2-y,-z
1/2-x,1/2+y,1/2-z
1/2-x,1/2-y,-z
1/2+x,1/2+y,1/2-z
1/2-x,1/2+y,z
1/2+x,1/2-y,1/2+z
loop_
_atom_site_type_symbol
_atom_site_label
_atom_site_fract_x
_atom_site_fract_y
_atom_site_fract_z
Si Si1 0.336421 0.949980 0.920829
Si Si2 0.000000 0.551188 0.579127
Si Si3 0.055027 0.276797 0.421600
Si Si4 0.783839 0.712620 0.918514
Si Si5 0.861250 0.763262 0.077312
Si Si6 0.798087 0.142724 0.583509
Si Si7 0.224679 0.950851 0.580711
Si Si8 0.909438 0.614904 0.578501
O O1 0.348574 0.954787 0.750000
O O2 0.280494 0.942004 0.948588
O O3 0.363116 0.902629 0.988601
O O4 0.354193 0.000000 0.000000
O O5 0.000000 0.500000 0.500000
O O6 0.046636 0.580841 0.531303
O O7 0.000000 0.541630 0.750000
O O8 0.060540 0.266308 0.250000
O O9 0.084980 0.236062 0.513447
O O10 0.075697 0.330029 0.464477
O O11 0.000000 0.273002 0.469768
O O12 0.790654 0.728221 0.750000
O O13 0.757522 0.659858 0.929763
O O14 0.750000 0.750000 0.000000
O O15 0.834836 0.716156 0.999959
O O16 0.860834 0.754857 0.250000
O O17 0.834731 0.814191 0.034418
O O18 0.809167 0.127415 0.750000
O O19 0.805295 0.095425 0.481018
O O20 0.212706 0.956811 0.750000
O O21 0.206863 0.000000 0.500000
O O22 0.897401 0.611228 0.750000
#
# Coordination Sequence:
#
# PCOD8258696 Si02
#       8
#    16   8  16  16  16  16  16  16
#     4  10  21  35  49  70  95 125 165 209 253 301
#     4  10  20  34  50  68  88 114 156 210 265 316
#     4  10  21  38  56  74  99 133 172 214 267 324
#     4   9  17  30  48  73 102 134 168 207 253 298
#     4  10  21  35  52  76 104 134 171 215 260 310
#     4   9  19  34  51  73 103 136 169 207 251 300
#     4  10  21  35  52  74 103 136 169 206 247 297
#     4  10  20  35  52  68  91 124 162 209 263 315
#
# _framework density 17.337748000000001
#
# number of rings (size 3 to 8) (size 9 to 14) (size 15 to 20)
#    0.000    2.267    0.667    2.800    1.867    7.200 
#    0.000    0.000    0.000    0.000    0.000    0.000 
#    0.000    0.533    0.000    1.733    0.000    2.533 
#
# Total GULP energy -743914.024921 kJ/mol
# GULP energy per Si atom -12398.567082 kJ/mol
# Density = 1.729829 g / cm^3
# Si number density = 17.337748 Si / 1000 Ang^3
#
#
#
# Elastic Constant Matrix: (Units=GPa)
#
#
# Indices 1 2 3 4 5 6 
#
# 1 78.6495 47.2583 42.6619 0.0000 0.0000 0.0000
# 2 47.2583 92.5799 56.6073 0.0000 0.0000 0.0000
# 3 42.6619 56.6073 90.6081 0.0000 0.0000 0.0000
# 4 0.0000 0.0000 0.0000 28.5714 0.0000 0.0000
# 5 0.0000 0.0000 0.0000 0.0000 27.1468 0.0000
# 6 0.0000 0.0000 0.0000 0.0000 0.0000 15.1172
#
#
#
# Elastic Compliance Matrix: (Units=1/GPa)
#
#
# Indices 1 2 3 4 5 6 
#
# 1 0.019553 -0.007042 -0.004807 0.000000 0.000000 0.000000
# 2 -0.007042 0.020014 -0.009188 0.000000 0.000000 0.000000
# 3 -0.004807 -0.009188 0.019040 0.000000 0.000000 0.000000
# 4 0.000000 0.000000 0.000000 0.035000 0.000000 0.000000
# 5 0.000000 0.000000 0.000000 0.000000 0.036837 0.000000
# 6 0.000000 0.000000 0.000000 0.000000 0.000000 0.066150
#
#
# Mechanical properties :
#
#
# Convention : Reuss Voigt Hill
#
# Bulk Modulus (GPa) = 60.48380 61.65473 61.06927
# Shear Modulus (GPa) = 20.47669 21.85442 21.16556
#
# Velocity S-wave (km/s) = 3.44036 3.55422 3.49775
# Velocity P-wave (km/s) = 7.12340 7.24441 7.18416
#
# Compressibility (1/GPa) = 0.01653335
#
# Stress axis : x y z
#
# Youngs Moduli (GPa) = 51.14174 49.96448 52.52047
#
# Poissons Ratio (x) = 0.35185 0.25247
# Poissons Ratio (y) = 0.36014 0.48257
# Poissons Ratio (z) = 0.24584 0.45908
#
# Static dielectric constant tensor:
#      x y z
#    x -0.145370 0.000000 0.000000 
#    y 0.000000 3.078570 0.000000 
#    z 0.000000 0.000000 3.247690 
# 
# 
# High freq. dielectric constant tensor:
#      x y z
#    x 1.645830 0.000000 0.000000 
#    y 0.000000 1.653340 0.000000 
#    z 0.000000 0.000000 1.676740 
# 
# From -- ./inp_files/13152.got.cif
#   From: 2010.03.12/outbox.cif.g09.slc.cpg/sg63_7_cif.got.tgz:13152.got - 2010.04.10 19:34:48.
