data_PCOD8258144
_publ_section_title
;
Structure prediction by ZEFSAII (Michael W. Deem and Ramdas Pophale) SiO2 
 PCOD8258144
Probable space group: C M C M
;
_chemical_formula_sum "Si O2"
_cell_formula_units_Z 72
_cell_length_a 13.776727
_cell_length_b 30.643655
_cell_length_c 9.661361
_cell_angle_alpha 90.000000
_cell_angle_beta 90.000000
_cell_angle_gamma 90.000000
_cell_volume 4078.729713
_symmetry_space_group_name_H-M "C M C M"
_symmetry_group_IT_number 63
_symmetry_cell_setting 'orthorhombic'
loop_
_space_group_symop_operation_xyz
x,y,z
-x,-y,1/2+z
x,-y,-z
-x,y,1/2-z
-x,-y,-z
x,y,1/2-z
-x,y,z
x,-y,1/2+z
1/2+x,1/2+y,z
1/2-x,1/2-y,1/2+z
1/2+x,1/2-y,-z
1/2-x,1/2+y,1/2-z
1/2-x,1/2-y,-z
1/2+x,1/2+y,1/2-z
1/2-x,1/2+y,z
1/2+x,1/2-y,1/2+z
loop_
_atom_site_type_symbol
_atom_site_label
_atom_site_fract_x
_atom_site_fract_y
_atom_site_fract_z
Si Si1 0.388913 0.743548 0.091938
Si Si2 0.614855 0.957906 0.250000
Si Si3 0.385060 0.456333 0.250000
Si Si4 0.734190 0.683869 0.911100
Si Si5 0.749715 0.463578 0.750000
Si Si6 0.750456 0.415457 0.035937
O O1 0.372842 0.728396 0.250000
O O2 0.500000 0.754753 0.060895
O O3 0.329570 0.787446 0.060351
O O4 0.356449 0.704301 0.992643
O O5 0.500000 0.957252 0.250000
O O6 0.654329 0.933447 0.386074
O O7 0.652551 0.007573 0.250000
O O8 0.500000 0.457063 0.250000
O O9 0.344943 0.505605 0.250000
O O10 0.346799 0.431183 0.385704
O O11 0.706893 0.681680 0.750000
O O12 0.755893 0.636412 0.970481
O O13 0.748200 0.432759 0.618361
#
# Coordination Sequence:
#
# PCOD8258144 Si02
#       6
#    16   8   8  16   8  16
#     4   9  20  36  57  82 108 139 177 221 271 325
#     4  10  20  38  60  81 108 146 186 223 274 330
#     4  10  20  38  58  79 108 146 190 229 274 328
#     4  10  19  37  57  79 109 145 179 219 270 318
#     4  10  22  36  56  80 116 144 180 230 278 324
#     4  10  21  37  56  85 109 146 185 226 274 322
#
# _framework density 17.652555
#
# number of rings (size 3 to 8) (size 9 to 14) (size 15 to 20)
#    0.000    2.444    2.222    2.667    1.556    5.778 
#    0.000    0.000    0.000    0.000    0.000    0.000 
#    0.000    0.000    0.000    0.000    0.000    0.000 
#
# Total GULP energy -446459.210699 kJ/mol
# GULP energy per Si atom -12401.644742 kJ/mol
# Density = 1.761238 g / cm^3
# Si number density = 17.652555 Si / 1000 Ang^3
#
#
#
# Elastic Constant Matrix: (Units=GPa)
#
#
# Indices 1 2 3 4 5 6 
#
# 1 148.8427 48.2899 53.9102 0.0000 0.0000 0.0000
# 2 48.2899 145.3918 80.7716 0.0000 0.0000 0.0000
# 3 53.9102 80.7716 126.5459 0.0000 0.0000 0.0000
# 4 0.0000 0.0000 0.0000 28.1993 0.0000 0.0000
# 5 0.0000 0.0000 0.0000 0.0000 19.8857 0.0000
# 6 0.0000 0.0000 0.0000 0.0000 0.0000 9.1342
#
#
#
# Elastic Compliance Matrix: (Units=1/GPa)
#
#
# Indices 1 2 3 4 5 6 
#
# 1 0.008076 -0.001195 -0.002678 0.000000 0.000000 0.000000
# 2 -0.001195 0.010833 -0.006406 0.000000 0.000000 0.000000
# 3 -0.002678 -0.006406 0.013132 0.000000 0.000000 0.000000
# 4 0.000000 0.000000 0.000000 0.035462 0.000000 0.000000
# 5 0.000000 0.000000 0.000000 0.000000 0.050287 0.000000
# 6 0.000000 0.000000 0.000000 0.000000 0.000000 0.109478
#
#
# Mechanical properties :
#
#
# Convention : Reuss Voigt Hill
#
# Bulk Modulus (GPa) = 87.07437 87.41376 87.24407
# Shear Modulus (GPa) = 19.86856 27.29775 23.58316
#
# Velocity S-wave (km/s) = 3.35854 3.93668 3.65905
# Velocity P-wave (km/s) = 8.02954 8.38390 8.20864
#
# Compressibility (1/GPa) = 0.01148444
#
# Stress axis : x y z
#
# Youngs Moduli (GPa) = 123.82307 92.30639 76.15051
#
# Poissons Ratio (x) = 0.11027 0.20393
# Poissons Ratio (y) = 0.14792 0.48781
# Poissons Ratio (z) = 0.33160 0.59130
#
# Static dielectric constant tensor:
#      x y z
#    x 3.152830 0.000000 0.000000 
#    y 0.000000 3.303590 0.000000 
#    z 0.000000 0.000000 3.347980 
# 
# 
# High freq. dielectric constant tensor:
#      x y z
#    x 1.671600 0.000000 0.000000 
#    y 0.000000 1.687490 0.000000 
#    z 0.000000 0.000000 1.690090 
# 
# From -- ./inp_files/4951.got.cif
#   From: 2010.03.12/outbox.cif.g09.slc.cpg/sg63_3_cif.got.tgz:4951.got - 2010.04.10 19:34:48.
