data_PCOD8258855
_publ_section_title
;
Structure prediction by ZEFSAII (Michael W. Deem and Ramdas Pophale) SiO2 
 PCOD8258855
Probable space group: C M C M
;
_chemical_formula_sum "Si O2"
_cell_formula_units_Z 112
_cell_length_a 10.085082
_cell_length_b 20.538570
_cell_length_c 29.361132
_cell_angle_alpha 90.000000
_cell_angle_beta 90.000000
_cell_angle_gamma 90.000000
_cell_volume 6081.664129
_symmetry_space_group_name_H-M "C M C M"
_symmetry_group_IT_number 63
_symmetry_cell_setting 'orthorhombic'
loop_
_space_group_symop_operation_xyz
x,y,z
-x,-y,1/2+z
x,-y,-z
-x,y,1/2-z
-x,-y,-z
x,y,1/2-z
-x,y,z
x,-y,1/2+z
1/2+x,1/2+y,z
1/2-x,1/2-y,1/2+z
1/2+x,1/2-y,-z
1/2-x,1/2+y,1/2-z
1/2-x,1/2-y,-z
1/2+x,1/2+y,1/2-z
1/2-x,1/2+y,z
1/2+x,1/2-y,1/2+z
loop_
_atom_site_type_symbol
_atom_site_label
_atom_site_fract_x
_atom_site_fract_y
_atom_site_fract_z
Si Si1 0.346811 0.572337 0.299201
Si Si2 0.853779 0.207782 0.698838
Si Si3 0.652364 0.234819 0.876206
Si Si4 0.845036 0.124991 0.108110
Si Si5 0.156112 0.002886 0.052879
Si Si6 0.647539 0.908177 0.104148
Si Si7 0.748693 0.069267 0.800438
O O1 0.280533 0.591077 0.250000
O O2 0.500000 0.590097 0.296418
O O3 0.280492 0.610354 0.341893
O O4 0.332975 0.495571 0.308225
O O5 0.829030 0.232557 0.750000
O O6 0.741979 0.240859 0.668400
O O7 0.849098 0.129537 0.696504
O O8 0.000000 0.228827 0.681811
O O9 0.500000 0.236075 0.859721
O O10 0.684110 0.299915 0.906262
O O11 0.680488 0.168689 0.904201
O O12 0.793180 0.073634 0.070586
O O13 0.000000 0.111980 0.112469
O O14 0.000000 0.990450 0.061896
O O15 0.239290 0.947434 0.078228
O O16 0.189939 0.000000 0.000000
O O17 0.500000 0.924447 0.085307
O O18 0.643664 0.923291 0.158376
O O19 0.678927 0.068640 0.750000
#
# Coordination Sequence:
#
# PCOD8258855 Si02
#       7
#    16  16  16  16  16  16  16
#     4   9  15  23  42  73 102 130 170 216 257 294
#     4   9  17  28  44  69 103 141 179 218 257 297
#     4   9  19  33  50  73 103 140 175 208 253 310
#     4   9  17  32  52  75 104 135 170 215 258 303
#     4  10  21  38  61  84 102 127 170 223 272 315
#     4  10  20  34  53  79 109 141 174 210 256 311
#     4   9  16  27  46  73 105 140 176 212 252 299
#
# _framework density 18.416013
#
# number of rings (size 3 to 8) (size 9 to 14) (size 15 to 20)
#    0.000    2.714    1.429    0.429    0.000    5.429 
#    0.000    5.714    0.000    0.000    0.000    0.000 
#    0.000    0.000    0.000    0.000    0.000    0.000 
#
# Total GULP energy -693741.248980 kJ/mol
# GULP energy per Si atom -12388.236589 kJ/mol
# Density = 1.837410 g / cm^3
# Si number density = 18.416013 Si / 1000 Ang^3
#
#
#
# Elastic Constant Matrix: (Units=GPa)
#
#
# Indices 1 2 3 4 5 6 
#
# 1 71.2223 38.7232 35.3621 0.0000 0.0000 0.0000
# 2 38.7232 122.9219 56.9001 0.0000 0.0000 0.0000
# 3 35.3621 56.9001 94.0772 0.0000 0.0000 0.0000
# 4 0.0000 0.0000 0.0000 14.4158 0.0000 0.0000
# 5 0.0000 0.0000 0.0000 0.0000 17.3649 0.0000
# 6 0.0000 0.0000 0.0000 0.0000 0.0000 19.8826
#
#
#
# Elastic Compliance Matrix: (Units=1/GPa)
#
#
# Indices 1 2 3 4 5 6 
#
# 1 0.018337 -0.003592 -0.004720 0.000000 0.000000 0.000000
# 2 -0.003592 0.012002 -0.005909 0.000000 0.000000 0.000000
# 3 -0.004720 -0.005909 0.015978 0.000000 0.000000 0.000000
# 4 0.000000 0.000000 0.000000 0.069368 0.000000 0.000000
# 5 0.000000 0.000000 0.000000 0.000000 0.057587 0.000000
# 6 0.000000 0.000000 0.000000 0.000000 0.000000 0.050295
#
#
# Mechanical properties :
#
#
# Convention : Reuss Voigt Hill
#
# Bulk Modulus (GPa) = 55.94455 61.13246 58.53851
# Shear Modulus (GPa) = 19.38227 20.81506 20.09867
#
# Velocity S-wave (km/s) = 3.24770 3.36560 3.30717
# Velocity P-wave (km/s) = 6.67140 6.95488 6.81461
#
# Compressibility (1/GPa) = 0.01787484
#
# Stress axis : x y z
#
# Youngs Moduli (GPa) = 54.53493 83.31994 62.58690
#
# Poissons Ratio (x) = 0.29925 0.29543
# Poissons Ratio (y) = 0.19586 0.36983
# Poissons Ratio (z) = 0.25742 0.49234
#
# Static dielectric constant tensor:
#      x y z
#    x 3.026230 0.000000 0.000000 
#    y 0.000000 3.515450 0.000000 
#    z 0.000000 0.000000 3.395570 
# 
# 
# High freq. dielectric constant tensor:
#      x y z
#    x 1.678690 0.000000 0.000000 
#    y 0.000000 1.718970 0.000000 
#    z 0.000000 0.000000 1.691120 
# 
# From -- ./inp_files/68593.got.cif
#   From: 2010.03.12/outbox.cif.g09.slc.cpg/sg63_35_cif.got.tgz:68593.got - 2010.04.10 19:34:48.
