data_PCOD8258633
_publ_section_title
;
Structure prediction by ZEFSAII (Michael W. Deem and Ramdas Pophale) SiO2 
 PCOD8258633
Probable space group: C M C M
;
_chemical_formula_sum "Si O2"
_cell_formula_units_Z 96
_cell_length_a 22.636905
_cell_length_b 8.790892
_cell_length_c 22.150955
_cell_angle_alpha 90.000000
_cell_angle_beta 90.000000
_cell_angle_gamma 90.000000
_cell_volume 4408.008747
_symmetry_space_group_name_H-M "C M C M"
_symmetry_group_IT_number 63
_symmetry_cell_setting 'orthorhombic'
loop_
_space_group_symop_operation_xyz
x,y,z
-x,-y,1/2+z
x,-y,-z
-x,y,1/2-z
-x,-y,-z
x,y,1/2-z
-x,y,z
x,-y,1/2+z
1/2+x,1/2+y,z
1/2-x,1/2-y,1/2+z
1/2+x,1/2-y,-z
1/2-x,1/2+y,1/2-z
1/2-x,1/2-y,-z
1/2+x,1/2+y,1/2-z
1/2-x,1/2+y,z
1/2+x,1/2-y,1/2+z
loop_
_atom_site_type_symbol
_atom_site_label
_atom_site_fract_x
_atom_site_fract_y
_atom_site_fract_z
Si Si1 0.367593 0.625907 0.117599
Si Si2 0.433919 0.619838 0.679830
Si Si3 0.206723 0.357151 0.320285
Si Si4 0.659156 0.162272 0.980012
Si Si5 0.822790 0.310065 0.821361
Si Si6 0.716646 0.601877 0.558562
O O1 0.424693 0.535298 0.141756
O O2 0.345199 0.735892 0.170987
O O3 0.384950 0.725947 0.057595
O O4 0.316466 0.500905 0.107857
O O5 0.424899 0.580600 0.750000
O O6 0.500000 0.680866 0.666999
O O7 0.387472 0.750259 0.659602
O O8 0.219768 0.373057 0.250000
O O9 0.187154 0.520797 0.346601
O O10 0.270455 0.298754 0.350295
O O11 0.713236 0.142951 0.930566
O O12 0.680063 0.244515 0.041893
O O13 0.630954 0.000000 0.000000
O O14 0.815113 0.307164 0.750000
O O15 0.721605 0.500000 0.500000
#
# Coordination Sequence:
#
# PCOD8258633 Si02
#       6
#    16  16  16  16  16  16
#     4  11  21  31  57  85 115 156 194 232 285 349
#     4  10  22  41  60  79 111 156 202 242 281 337
#     4  10  20  33  52  87 124 148 180 233 293 352
#     4   9  18  33  51  78 118 154 185 234 289 346
#     4   9  19  35  52  75 113 151 185 228 283 340
#     4   8  17  33  49  76 115 151 185 225 280 347
#
# _framework density 21.77854
#
# number of rings (size 3 to 8) (size 9 to 14) (size 15 to 20)
#    0.000    2.500    0.000    2.500    4.667    4.000 
#    0.000    0.833    0.000    8.000    0.000    0.000 
#    0.000    0.000    0.000    0.000    0.000    0.000 
#
# Total GULP energy -595007.704556 kJ/mol
# GULP energy per Si atom -12395.993845 kJ/mol
# Density = 2.172897 g / cm^3
# Si number density = 21.778540 Si / 1000 Ang^3
#
#
#
# Elastic Constant Matrix: (Units=GPa)
#
#
# Indices 1 2 3 4 5 6 
#
# 1 99.5848 60.7389 23.2775 0.0000 0.0000 0.0000
# 2 60.7389 169.7761 41.0575 0.0000 0.0000 0.0000
# 3 23.2775 41.0575 53.5284 0.0000 0.0000 0.0000
# 4 0.0000 0.0000 0.0000 45.8889 0.0000 0.0000
# 5 0.0000 0.0000 0.0000 0.0000 19.9478 0.0000
# 6 0.0000 0.0000 0.0000 0.0000 0.0000 23.5938
#
#
#
# Elastic Compliance Matrix: (Units=1/GPa)
#
#
# Indices 1 2 3 4 5 6 
#
# 1 0.013130 -0.004072 -0.002586 0.000000 0.000000 0.000000
# 2 -0.004072 0.008494 -0.004745 0.000000 0.000000 0.000000
# 3 -0.002586 -0.004745 0.023446 0.000000 0.000000 0.000000
# 4 0.000000 0.000000 0.000000 0.021792 0.000000 0.000000
# 5 0.000000 0.000000 0.000000 0.000000 0.050131 0.000000
# 6 0.000000 0.000000 0.000000 0.000000 0.000000 0.042384
#
#
# Mechanical properties :
#
#
# Convention : Reuss Voigt Hill
#
# Bulk Modulus (GPa) = 44.91580 63.67080 54.29330
# Shear Modulus (GPa) = 26.37084 31.07379 28.72232
#
# Velocity S-wave (km/s) = 3.48352 3.78141 3.63552
# Velocity P-wave (km/s) = 6.07030 6.95445 6.52737
#
# Compressibility (1/GPa) = 0.02226388
#
# Stress axis : x y z
#
# Youngs Moduli (GPa) = 76.16298 117.72692 42.65184
#
# Poissons Ratio (x) = 0.47936 0.11032
# Poissons Ratio (y) = 0.31012 0.20237
# Poissons Ratio (z) = 0.19699 0.55857
#
# Static dielectric constant tensor:
#      x y z
#    x 3.499920 0.000000 0.000000 
#    y 0.000000 4.405590 0.000000 
#    z 0.000000 0.000000 4.335060 
# 
# 
# High freq. dielectric constant tensor:
#      x y z
#    x 1.776270 0.000000 0.000000 
#    y 0.000000 1.881500 0.000000 
#    z 0.000000 0.000000 1.892550 
# 
# From -- ./inp_files/70612.got.cif
#   From: 2010.03.12/outbox.cif.g09.slc.cpg/sg63_36_cif.got.tgz:70612.got - 2010.04.10 19:34:48.
