data_PCOD8258914
_publ_section_title
;
Structure prediction by ZEFSAII (Michael W. Deem and Ramdas Pophale) SiO2 
 PCOD8258914
Probable space group: C M C M
;
_chemical_formula_sum "Si O2"
_cell_formula_units_Z 96
_cell_length_a 8.758460
_cell_length_b 19.629755
_cell_length_c 29.392047
_cell_angle_alpha 90.000000
_cell_angle_beta 90.000000
_cell_angle_gamma 90.000000
_cell_volume 5053.269534
_symmetry_space_group_name_H-M "C M C M"
_symmetry_group_IT_number 63
_symmetry_cell_setting 'orthorhombic'
loop_
_space_group_symop_operation_xyz
x,y,z
-x,-y,1/2+z
x,-y,-z
-x,y,1/2-z
-x,-y,-z
x,y,1/2-z
-x,y,z
x,-y,1/2+z
1/2+x,1/2+y,z
1/2-x,1/2-y,1/2+z
1/2+x,1/2-y,-z
1/2-x,1/2+y,1/2-z
1/2-x,1/2-y,-z
1/2+x,1/2+y,1/2-z
1/2-x,1/2+y,z
1/2+x,1/2-y,1/2+z
loop_
_atom_site_type_symbol
_atom_site_label
_atom_site_fract_x
_atom_site_fract_y
_atom_site_fract_z
Si Si1 0.178404 0.192775 0.530979
Si Si2 0.173895 0.425695 0.519825
Si Si3 0.318556 0.013054 0.301152
Si Si4 0.681128 0.762209 0.377926
Si Si5 0.681391 0.138975 0.699599
Si Si6 0.178967 0.613379 0.378843
O O1 0.250000 0.250000 0.500000
O O2 0.209515 0.120495 0.508070
O O3 0.256033 0.195610 0.579792
O O4 0.000000 0.205948 0.536059
O O5 0.197249 0.500000 0.500000
O O6 0.214435 0.423607 0.573324
O O7 0.000000 0.400334 0.512334
O O8 0.264609 0.033586 0.250000
O O9 0.500000 0.013494 0.303383
O O10 0.258860 0.936932 0.313254
O O11 0.253657 0.066160 0.338323
O O12 0.500000 0.761191 0.380201
O O13 0.744113 0.803457 0.334301
O O14 0.739078 0.685521 0.376733
O O15 0.739404 0.158367 0.750000
O O16 0.500000 0.137757 0.698172
O O17 0.000000 0.625842 0.372548
#
# Coordination Sequence:
#
# PCOD8258914 Si02
#       6
#    16  16  16  16  16  16
#     4  12  24  40  60  82 113 150 190 234 282 335
#     4  10  22  38  58  84 114 149 189 230 278 338
#     4   8  15  30  53  80 108 141 184 232 277 324
#     4  11  22  35  57  84 114 150 186 229 282 336
#     4   8  16  32  55  83 111 142 186 232 272 324
#     4  10  20  34  54  80 112 145 184 231 276 330
#
# _framework density 18.997601
#
# number of rings (size 3 to 8) (size 9 to 14) (size 15 to 20)
#    0.000    2.167    1.667    3.000    2.333    1.000 
#    0.000    0.000    0.000    1.500    0.000    4.667 
#    0.000    0.000    0.000    0.000    0.000    0.000 
#
# Total GULP energy -595126.863591 kJ/mol
# GULP energy per Si atom -12398.476325 kJ/mol
# Density = 1.895436 g / cm^3
# Si number density = 18.997601 Si / 1000 Ang^3
#
#
#
# Elastic Constant Matrix: (Units=GPa)
#
#
# Indices 1 2 3 4 5 6 
#
# 1 45.6627 33.4993 39.1073 0.0000 0.0000 0.0000
# 2 33.4993 111.3927 85.3540 0.0000 0.0000 0.0000
# 3 39.1073 85.3540 167.0451 0.0000 0.0000 0.0000
# 4 0.0000 0.0000 0.0000 45.5011 0.0000 0.0000
# 5 0.0000 0.0000 0.0000 0.0000 16.7889 0.0000
# 6 0.0000 0.0000 0.0000 0.0000 0.0000 22.2918
#
#
#
# Elastic Compliance Matrix: (Units=1/GPa)
#
#
# Indices 1 2 3 4 5 6 
#
# 1 0.029576 -0.005898 -0.003910 0.000000 0.000000 0.000000
# 2 -0.005898 0.015930 -0.006759 0.000000 0.000000 0.000000
# 3 -0.003910 -0.006759 0.010355 0.000000 0.000000 0.000000
# 4 0.000000 0.000000 0.000000 0.021977 0.000000 0.000000
# 5 0.000000 0.000000 0.000000 0.000000 0.059563 0.000000
# 6 0.000000 0.000000 0.000000 0.000000 0.000000 0.044860
#
#
# Mechanical properties :
#
#
# Convention : Reuss Voigt Hill
#
# Bulk Modulus (GPa) = 44.00148 71.11351 57.55750
# Shear Modulus (GPa) = 22.42447 27.99236 25.20841
#
# Velocity S-wave (km/s) = 3.43940 3.84274 3.64665
# Velocity P-wave (km/s) = 6.24376 7.56327 6.93497
#
# Compressibility (1/GPa) = 0.02272651
#
# Stress axis : x y z
#
# Youngs Moduli (GPa) = 33.81169 62.77528 96.56851
#
# Poissons Ratio (x) = 0.37025 0.37761
# Poissons Ratio (y) = 0.19942 0.65268
# Poissons Ratio (z) = 0.13221 0.42428
#
# Static dielectric constant tensor:
#      x y z
#    x 3.249870 0.000000 0.000000 
#    y 0.000000 3.536780 0.000000 
#    z 0.000000 0.000000 3.864910 
# 
# 
# High freq. dielectric constant tensor:
#      x y z
#    x 1.703390 0.000000 0.000000 
#    y 0.000000 1.744990 0.000000 
#    z 0.000000 0.000000 1.753890 
# 
# From -- ./inp_files/66885.got.cif
#   From: 2010.03.12/outbox.cif.g09.slc.cpg/sg63_34_cif.got.tgz:66885.got - 2010.04.10 19:34:48.
