data_PCOD8258288
_publ_section_title
;
Structure prediction by ZEFSAII (Michael W. Deem and Ramdas Pophale) SiO2 
 PCOD8258288
Probable space group: C M C M
;
_chemical_formula_sum "Si O2"
_cell_formula_units_Z 96
_cell_length_a 9.021537
_cell_length_b 28.469673
_cell_length_c 21.707137
_cell_angle_alpha 90.000000
_cell_angle_beta 90.000000
_cell_angle_gamma 90.000000
_cell_volume 5575.265590
_symmetry_space_group_name_H-M "C M C M"
_symmetry_group_IT_number 63
_symmetry_cell_setting 'orthorhombic'
loop_
_space_group_symop_operation_xyz
x,y,z
-x,-y,1/2+z
x,-y,-z
-x,y,1/2-z
-x,-y,-z
x,y,1/2-z
-x,y,z
x,-y,1/2+z
1/2+x,1/2+y,z
1/2-x,1/2-y,1/2+z
1/2+x,1/2-y,-z
1/2-x,1/2+y,1/2-z
1/2-x,1/2-y,-z
1/2+x,1/2+y,1/2-z
1/2-x,1/2+y,z
1/2+x,1/2-y,1/2+z
loop_
_atom_site_type_symbol
_atom_site_label
_atom_site_fract_x
_atom_site_fract_y
_atom_site_fract_z
Si Si1 0.826896 0.241657 0.750000
Si Si2 0.677392 0.637280 0.750000
Si Si3 0.827125 0.427191 0.153215
Si Si4 0.825675 0.898263 0.595103
Si Si5 0.329682 0.829013 0.818438
Si Si6 0.165653 0.981426 0.682047
Si Si7 0.673621 0.946753 0.487234
O O1 0.754207 0.190203 0.750000
O O2 0.787683 0.273270 0.810844
O O3 0.000000 0.232582 0.750000
O O4 0.500000 0.634435 0.750000
O O5 0.736534 0.613532 0.812525
O O6 0.780905 0.476353 0.182605
O O7 0.787741 0.429641 0.081231
O O8 0.000000 0.418779 0.164841
O O9 0.770546 0.850834 0.627945
O O10 0.774880 0.941687 0.636908
O O11 0.752241 0.907591 0.529197
O O12 0.000000 0.894374 0.586897
O O13 0.305517 0.852336 0.750000
O O14 0.500000 0.835211 0.838502
O O15 0.160469 0.959369 0.750000
O O16 0.000000 0.998493 0.662621
O O17 0.500000 0.945751 0.501022
O O18 0.733686 0.000000 0.500000
#
# Coordination Sequence:
#
# PCOD8258288 Si02
#       7
#     8   8  16  16  16  16  16
#     4   7  16  35  58  81 102 133 170 209 262 327
#     4  11  21  37  60  81 106 133 164 215 276 321
#     4  11  22  35  52  76 103 135 183 221 251 303
#     4  11  21  31  50  78 110 142 174 215 263 307
#     4   8  16  33  55  79 104 134 173 208 252 314
#     4  10  20  32  46  70 106 144 174 207 256 308
#     4  10  21  37  52  69 101 148 189 218 250 298
#
# _framework density 17.218910999999999
#
# number of rings (size 3 to 8) (size 9 to 14) (size 15 to 20)
#    0.500    1.667    2.500    1.750    0.000    3.333 
#    0.000    1.667    0.000    1.000    0.000    0.000 
#    0.000    0.000    0.000    0.000    0.000    0.000 
#
# Total GULP energy -594826.320340 kJ/mol
# GULP energy per Si atom -12392.215007 kJ/mol
# Density = 1.717972 g / cm^3
# Si number density = 17.218911 Si / 1000 Ang^3
#
#
#
# Elastic Constant Matrix: (Units=GPa)
#
#
# Indices 1 2 3 4 5 6 
#
# 1 64.2393 40.3775 46.3852 0.0000 0.0000 0.0000
# 2 40.3775 111.8201 53.6296 0.0000 0.0000 0.0000
# 3 46.3852 53.6296 108.6560 0.0000 0.0000 0.0000
# 4 0.0000 0.0000 0.0000 4.5788 0.0000 0.0000
# 5 0.0000 0.0000 0.0000 0.0000 25.1272 0.0000
# 6 0.0000 0.0000 0.0000 0.0000 0.0000 19.1348
#
#
#
# Elastic Compliance Matrix: (Units=1/GPa)
#
#
# Indices 1 2 3 4 5 6 
#
# 1 0.024476 -0.005014 -0.007974 0.000000 0.000000 0.000000
# 2 -0.005014 0.012743 -0.004149 0.000000 0.000000 0.000000
# 3 -0.007974 -0.004149 0.014656 0.000000 0.000000 0.000000
# 4 0.000000 0.000000 0.000000 0.218400 0.000000 0.000000
# 5 0.000000 0.000000 0.000000 0.000000 0.039798 0.000000
# 6 0.000000 0.000000 0.000000 0.000000 0.000000 0.052261
#
#
# Mechanical properties :
#
#
# Convention : Reuss Voigt Hill
#
# Bulk Modulus (GPa) = 56.81690 62.83335 59.82512
# Shear Modulus (GPa) = 12.42313 19.38968 15.90641
#
# Velocity S-wave (km/s) = 2.68896 3.35934 3.04266
# Velocity P-wave (km/s) = 6.53522 7.18449 6.86753
#
# Compressibility (1/GPa) = 0.01760040
#
# Stress axis : x y z
#
# Youngs Moduli (GPa) = 40.85631 78.47166 68.23323
#
# Poissons Ratio (x) = 0.39343 0.54411
# Poissons Ratio (y) = 0.20484 0.28313
# Poissons Ratio (z) = 0.32580 0.32562
#
# Static dielectric constant tensor:
#      x y z
#    x 3.111530 0.000000 0.000000 
#    y 0.000000 3.210640 0.000000 
#    z 0.000000 0.000000 3.316010 
# 
# 
# High freq. dielectric constant tensor:
#      x y z
#    x 1.663040 0.000000 0.000000 
#    y 0.000000 1.641130 0.000000 
#    z 0.000000 0.000000 1.660010 
# 
# From -- ./inp_files/60268.got.cif
#   From: 2010.03.12/outbox.cif.g09.slc.cpg/sg63_31_cif.got.tgz:60268.got - 2010.04.10 19:34:48.
