data_PCOD8258241
_publ_section_title
;
Structure prediction by ZEFSAII (Michael W. Deem and Ramdas Pophale) SiO2 
 PCOD8258241
Probable space group: C M C M
;
_chemical_formula_sum "Si O2"
_cell_formula_units_Z 96
_cell_length_a 7.775073
_cell_length_b 28.507673
_cell_length_c 23.082043
_cell_angle_alpha 90.000000
_cell_angle_beta 90.000000
_cell_angle_gamma 90.000000
_cell_volume 5116.117257
_symmetry_space_group_name_H-M "C M C M"
_symmetry_group_IT_number 63
_symmetry_cell_setting 'orthorhombic'
loop_
_space_group_symop_operation_xyz
x,y,z
-x,-y,1/2+z
x,-y,-z
-x,y,1/2-z
-x,-y,-z
x,y,1/2-z
-x,y,z
x,-y,1/2+z
1/2+x,1/2+y,z
1/2-x,1/2-y,1/2+z
1/2+x,1/2-y,-z
1/2-x,1/2+y,1/2-z
1/2-x,1/2-y,-z
1/2+x,1/2+y,1/2-z
1/2-x,1/2+y,z
1/2+x,1/2-y,1/2+z
loop_
_atom_site_type_symbol
_atom_site_label
_atom_site_fract_x
_atom_site_fract_y
_atom_site_fract_z
Si Si1 0.196651 0.303606 0.001896
Si Si2 0.000000 0.745798 0.181815
Si Si3 0.307013 0.050449 0.992158
Si Si4 0.801815 0.178962 0.183377
Si Si5 0.809734 0.119396 0.080072
Si Si6 0.500000 0.351903 0.180926
Si Si7 0.799065 0.374789 0.399833
O O1 0.307292 0.331805 0.955113
O O2 0.000000 0.309108 0.982798
O O3 0.250000 0.250000 0.000000
O O4 0.224017 0.325849 0.065621
O O5 0.174032 0.719756 0.160961
O O6 0.000000 0.798427 0.158499
O O7 0.000000 0.747882 0.250000
O O8 0.500000 0.039559 0.973214
O O9 0.310706 0.079540 0.052499
O O10 0.229627 0.082903 0.941196
O O11 0.210764 0.000000 0.000000
O O12 0.765749 0.166148 0.250000
O O13 0.761341 0.131882 0.146478
O O14 0.000000 0.195451 0.174009
O O15 0.000000 0.098104 0.076873
O O16 0.500000 0.357866 0.250000
O O17 0.324986 0.375252 0.156107
O O18 0.000000 0.381219 0.381480
#
# Coordination Sequence:
#
# PCOD8258241 Si02
#       7
#    16   8  16  16  16   8  16
#     4  10  21  32  48  74 107 146 176 221 279 321
#     4   9  20  34  50  73 100 146 192 220 261 304
#     4   9  19  37  59  83 109 136 172 223 280 338
#     4   9  19  34  50  72 106 144 183 225 263 311
#     4  10  20  31  49  78 105 137 177 212 265 326
#     4  11  24  38  57  81 109 150 196 236 268 314
#     4   9  21  38  55  81 112 143 182 229 281 333
#
# _framework density 18.764229
#
# number of rings (size 3 to 8) (size 9 to 14) (size 15 to 20)
#    0.000    2.500    0.000    2.000   10.500    1.333 
#    0.000    1.667    0.000    1.000    0.000    2.333 
#    0.000    0.000    0.000    0.000    0.000    0.000 
#
# Total GULP energy -594839.868865 kJ/mol
# GULP energy per Si atom -12392.497268 kJ/mol
# Density = 1.872152 g / cm^3
# Si number density = 18.764229 Si / 1000 Ang^3
#
#
#
# Elastic Constant Matrix: (Units=GPa)
#
#
# Indices 1 2 3 4 5 6 
#
# 1 84.9013 26.6471 43.5785 0.0000 0.0000 0.0000
# 2 26.6471 131.3214 47.0077 0.0000 0.0000 0.0000
# 3 43.5785 47.0077 94.4667 0.0000 0.0000 0.0000
# 4 0.0000 0.0000 0.0000 16.6160 0.0000 0.0000
# 5 0.0000 0.0000 0.0000 0.0000 27.1722 0.0000
# 6 0.0000 0.0000 0.0000 0.0000 0.0000 16.0002
#
#
#
# Elastic Compliance Matrix: (Units=1/GPa)
#
#
# Indices 1 2 3 4 5 6 
#
# 1 0.015487 -0.000712 -0.006790 0.000000 0.000000 0.000000
# 2 -0.000712 0.009298 -0.004298 0.000000 0.000000 0.000000
# 3 -0.006790 -0.004298 0.015857 0.000000 0.000000 0.000000
# 4 0.000000 0.000000 0.000000 0.060183 0.000000 0.000000
# 5 0.000000 0.000000 0.000000 0.000000 0.036802 0.000000
# 6 0.000000 0.000000 0.000000 0.000000 0.000000 0.062499
#
#
# Mechanical properties :
#
#
# Convention : Reuss Voigt Hill
#
# Bulk Modulus (GPa) = 58.68108 60.57288 59.62698
# Shear Modulus (GPa) = 21.79528 24.85478 23.32503
#
# Velocity S-wave (km/s) = 3.41182 3.64343 3.52953
# Velocity P-wave (km/s) = 6.84554 7.07464 6.96104
#
# Compressibility (1/GPa) = 0.01704127
#
# Stress axis : x y z
#
# Youngs Moduli (GPa) = 64.56992 107.54993 63.06378
#
# Poissons Ratio (x) = 0.07658 0.42821
# Poissons Ratio (y) = 0.04597 0.27107
# Poissons Ratio (z) = 0.43843 0.46229
#
# Static dielectric constant tensor:
#      x y z
#    x 3.527570 0.000000 0.000000 
#    y 0.000000 5.199560 0.000000 
#    z 0.000000 0.000000 3.531300 
# 
# 
# High freq. dielectric constant tensor:
#      x y z
#    x 1.736140 0.000000 0.000000 
#    y 0.000000 1.704920 0.000000 
#    z 0.000000 0.000000 1.713390 
# 
# From -- ./inp_files/60341.got.cif
#   From: 2010.03.12/outbox.cif.g09.slc.cpg/sg63_31_cif.got.tgz:60341.got - 2010.04.10 19:34:48.
