data_PCOD8258662
_publ_section_title
;
Structure prediction by ZEFSAII (Michael W. Deem and Ramdas Pophale) SiO2 
 PCOD8258662
Probable space group: C M C M
;
_chemical_formula_sum "Si O2"
_cell_formula_units_Z 80
_cell_length_a 7.772274
_cell_length_b 23.184702
_cell_length_c 24.380944
_cell_angle_alpha 90.000000
_cell_angle_beta 90.000000
_cell_angle_gamma 90.000000
_cell_volume 4393.393850
_symmetry_space_group_name_H-M "C M C M"
_symmetry_group_IT_number 63
_symmetry_cell_setting 'orthorhombic'
loop_
_space_group_symop_operation_xyz
x,y,z
-x,-y,1/2+z
x,-y,-z
-x,y,1/2-z
-x,-y,-z
x,y,1/2-z
-x,y,z
x,-y,1/2+z
1/2+x,1/2+y,z
1/2-x,1/2-y,1/2+z
1/2+x,1/2-y,-z
1/2-x,1/2+y,1/2-z
1/2-x,1/2-y,-z
1/2+x,1/2+y,1/2-z
1/2-x,1/2+y,z
1/2+x,1/2-y,1/2+z
loop_
_atom_site_type_symbol
_atom_site_label
_atom_site_fract_x
_atom_site_fract_y
_atom_site_fract_z
Si Si1 0.000000 0.132281 0.184989
Si Si2 0.800067 0.815073 0.509317
Si Si3 0.000000 0.002611 0.315006
Si Si4 0.805838 0.692639 0.124422
Si Si5 0.308617 0.076258 0.812856
Si Si6 0.200531 0.826336 0.389601
O O1 0.826136 0.162880 0.165446
O O2 0.000000 0.133391 0.250000
O O3 0.000000 0.067161 0.161272
O O4 0.750000 0.750000 0.500000
O O5 0.701940 0.837229 0.563752
O O6 0.752068 0.846826 0.452003
O O7 0.000000 0.821400 0.522122
O O8 0.170891 0.969623 0.336144
O O9 0.000000 0.005522 0.250000
O O10 0.751521 0.759581 0.119796
O O11 0.000000 0.685434 0.147157
O O12 0.264831 0.092101 0.750000
O O13 0.500000 0.049299 0.817576
O O14 0.305801 0.135159 0.847224
O O15 0.000000 0.835798 0.378699
#
# Coordination Sequence:
#
# PCOD8258662 Si02
#       6
#     8  16   8  16  16  16
#     4  11  24  40  59  79 109 153 186 223 275 331
#     4   9  16  29  51  79 110 146 184 222 263 325
#     4   9  20  40  57  73 103 143 191 232 269 320
#     4  10  21  36  54  82 115 147 184 223 272 327
#     4  10  20  33  54  81 106 139 182 229 277 328
#     4   9  18  31  53  84 115 144 176 220 279 324
#
# _framework density 18.209156
#
# number of rings (size 3 to 8) (size 9 to 14) (size 15 to 20)
#    0.000    2.400    2.000    1.800    1.400    3.600 
#    0.000    4.000    0.000    2.400    0.000    2.800 
#    0.000    0.000    0.000    0.000    0.000    0.000 
#
# Total GULP energy -495727.327020 kJ/mol
# GULP energy per Si atom -12393.183176 kJ/mol
# Density = 1.816771 g / cm^3
# Si number density = 18.209156 Si / 1000 Ang^3
#
#
#
# Elastic Constant Matrix: (Units=GPa)
#
#
# Indices 1 2 3 4 5 6 
#
# 1 115.3782 52.5486 41.3863 0.0000 0.0000 0.0000
# 2 52.5486 78.3523 37.0627 0.0000 0.0000 0.0000
# 3 41.3863 37.0627 84.7263 0.0000 0.0000 0.0000
# 4 0.0000 0.0000 0.0000 2.4718 0.0000 0.0000
# 5 0.0000 0.0000 0.0000 0.0000 26.8466 0.0000
# 6 0.0000 0.0000 0.0000 0.0000 0.0000 18.8168
#
#
#
# Elastic Compliance Matrix: (Units=1/GPa)
#
#
# Indices 1 2 3 4 5 6 
#
# 1 0.013146 -0.007287 -0.003234 0.000000 0.000000 0.000000
# 2 -0.007287 0.020132 -0.005247 0.000000 0.000000 0.000000
# 3 -0.003234 -0.005247 0.015678 0.000000 0.000000 0.000000
# 4 0.000000 0.000000 0.000000 0.404556 0.000000 0.000000
# 5 0.000000 0.000000 0.000000 0.000000 0.037249 0.000000
# 6 0.000000 0.000000 0.000000 0.000000 0.000000 0.053144
#
#
# Mechanical properties :
#
#
# Convention : Reuss Voigt Hill
#
# Bulk Modulus (GPa) = 57.40561 60.05021 58.72791
# Shear Modulus (GPa) = 8.60221 19.45766 14.02994
#
# Velocity S-wave (km/s) = 2.17586 3.27244 2.77878
# Velocity P-wave (km/s) = 6.15683 6.87954 6.52820
#
# Compressibility (1/GPa) = 0.01741990
#
# Stress axis : x y z
#
# Youngs Moduli (GPa) = 76.06926 49.67214 63.78519
#
# Poissons Ratio (x) = 0.36196 0.20627
# Poissons Ratio (y) = 0.55431 0.33469
# Poissons Ratio (z) = 0.24599 0.26064
#
# Static dielectric constant tensor:
#      x y z
#    x 3.517570 0.000000 0.000000 
#    y 0.000000 3.123980 0.000000 
#    z 0.000000 0.000000 3.604430 
# 
# 
# High freq. dielectric constant tensor:
#      x y z
#    x 1.719760 0.000000 0.000000 
#    y 0.000000 1.660890 0.000000 
#    z 0.000000 0.000000 1.703530 
# 
# From -- ./inp_files/59486.got.cif
#   From: 2010.03.12/outbox.cif.g09.slc.cpg/sg63_30_cif.got.tgz:59486.got - 2010.04.10 19:34:48.
