data_PCOD8258537
_publ_section_title
;
Structure prediction by ZEFSAII (Michael W. Deem and Ramdas Pophale) SiO2 
 PCOD8258537
Probable space group: C M C M
;
_chemical_formula_sum "Si O2"
_cell_formula_units_Z 72
_cell_length_a 32.285164
_cell_length_b 13.149790
_cell_length_c 9.130543
_cell_angle_alpha 90.000000
_cell_angle_beta 90.000000
_cell_angle_gamma 90.000000
_cell_volume 3876.309274
_symmetry_space_group_name_H-M "C M C M"
_symmetry_group_IT_number 63
_symmetry_cell_setting 'orthorhombic'
loop_
_space_group_symop_operation_xyz
x,y,z
-x,-y,1/2+z
x,-y,-z
-x,y,1/2-z
-x,-y,-z
x,y,1/2-z
-x,y,z
x,-y,1/2+z
1/2+x,1/2+y,z
1/2-x,1/2-y,1/2+z
1/2+x,1/2-y,-z
1/2-x,1/2+y,1/2-z
1/2-x,1/2-y,-z
1/2+x,1/2+y,1/2-z
1/2-x,1/2+y,z
1/2+x,1/2-y,1/2+z
loop_
_atom_site_type_symbol
_atom_site_label
_atom_site_fract_x
_atom_site_fract_y
_atom_site_fract_z
Si Si1 0.846777 0.589222 0.089807
Si Si2 0.586420 0.200372 0.580379
Si Si3 0.361434 0.395983 0.576191
Si Si4 0.209343 0.783155 0.414846
Si Si5 0.500000 0.108919 0.920311
O O1 0.858278 0.548520 0.250000
O O2 0.816932 0.682905 0.100356
O O3 0.823885 0.500000 0.000000
O O4 0.889144 0.615639 0.008733
O O5 0.595119 0.181223 0.750000
O O6 0.602714 0.313507 0.539017
O O7 0.538651 0.181751 0.538503
O O8 0.376168 0.500000 0.500000
O O9 0.355893 0.410690 0.750000
O O10 0.316914 0.365111 0.507384
O O11 0.219304 0.824828 0.250000
O O12 0.250000 0.750000 0.500000
O O13 0.500000 0.081778 0.750000
O O14 0.500000 0.000000 0.000000
#
# Coordination Sequence:
#
# PCOD8258537 Si02
#       5
#    16  16  16  16   8
#     4  10  20  33  51  74 101 133 168 206 252 305
#     4   9  19  35  54  76 105 138 173 213 258 310
#     4  10  20  36  57  78 103 140 181 222 268 317
#     4  10  21  36  53  76 105 136 173 218 262 310
#     4  10  20  34  53  80 110 140 173 212 261 316
#
# _framework density 18.574369999999998
#
# number of rings (size 3 to 8) (size 9 to 14) (size 15 to 20)
#    0.000    2.222    0.000    2.667    0.000    7.111 
#    0.000    2.778    0.000    0.000    0.000    0.000 
#    0.000    0.000    0.000    0.000    0.000    0.000 
#
# Total GULP energy -446250.360620 kJ/mol
# GULP energy per Si atom -12395.843351 kJ/mol
# Density = 1.853209 g / cm^3
# Si number density = 18.574370 Si / 1000 Ang^3
#
#
#
# Elastic Constant Matrix: (Units=GPa)
#
#
# Indices 1 2 3 4 5 6 
#
# 1 108.7168 26.7356 44.0712 0.0000 0.0000 0.0000
# 2 26.7356 92.7485 50.2334 0.0000 0.0000 0.0000
# 3 44.0712 50.2334 121.1423 0.0000 0.0000 0.0000
# 4 0.0000 0.0000 0.0000 35.9270 0.0000 0.0000
# 5 0.0000 0.0000 0.0000 0.0000 21.5158 0.0000
# 6 0.0000 0.0000 0.0000 0.0000 0.0000 12.2522
#
#
#
# Elastic Compliance Matrix: (Units=1/GPa)
#
#
# Indices 1 2 3 4 5 6 
#
# 1 0.010907 -0.001283 -0.003436 0.000000 0.000000 0.000000
# 2 -0.001283 0.014056 -0.005362 0.000000 0.000000 0.000000
# 3 -0.003436 -0.005362 0.011728 0.000000 0.000000 0.000000
# 4 0.000000 0.000000 0.000000 0.027834 0.000000 0.000000
# 5 0.000000 0.000000 0.000000 0.000000 0.046477 0.000000
# 6 0.000000 0.000000 0.000000 0.000000 0.000000 0.081618
#
#
# Mechanical properties :
#
#
# Convention : Reuss Voigt Hill
#
# Bulk Modulus (GPa) = 60.49873 62.74310 61.62092
# Shear Modulus (GPa) = 22.90529 27.37683 25.14106
#
# Velocity S-wave (km/s) = 3.51546 3.84331 3.68303
# Velocity P-wave (km/s) = 7.00855 7.31761 7.16475
#
# Compressibility (1/GPa) = 0.01652927
#
# Stress axis : x y z
#
# Youngs Moduli (GPa) = 91.68843 71.14606 85.26669
#
# Poissons Ratio (x) = 0.09129 0.29295
# Poissons Ratio (y) = 0.11764 0.45716
# Poissons Ratio (z) = 0.31501 0.38145
#
# Static dielectric constant tensor:
#      x y z
#    x 4.046090 0.000000 0.000000 
#    y 0.000000 3.495580 0.000000 
#    z 0.000000 0.000000 3.850860 
# 
# 
# High freq. dielectric constant tensor:
#      x y z
#    x 1.708460 0.000000 0.000000 
#    y 0.000000 1.720360 0.000000 
#    z 0.000000 0.000000 1.737120 
# 
# From -- ./inp_files/13884.got.cif
#   From: 2010.03.12/outbox.cif.g09.slc.cpg/sg63_7_cif.got.tgz:13884.got - 2010.04.10 19:34:48.
