data_PCOD8258351
_publ_section_title
;
Structure prediction by ZEFSAII (Michael W. Deem and Ramdas Pophale) SiO2 
 PCOD8258351
Probable space group: C M C M
;
_chemical_formula_sum "Si O2"
_cell_formula_units_Z 112
_cell_length_a 9.461559
_cell_length_b 25.118346
_cell_length_c 27.301196
_cell_angle_alpha 90.000000
_cell_angle_beta 90.000000
_cell_angle_gamma 90.000000
_cell_volume 6488.367095
_symmetry_space_group_name_H-M "C M C M"
_symmetry_group_IT_number 63
_symmetry_cell_setting 'orthorhombic'
loop_
_space_group_symop_operation_xyz
x,y,z
-x,-y,1/2+z
x,-y,-z
-x,y,1/2-z
-x,-y,-z
x,y,1/2-z
-x,y,z
x,-y,1/2+z
1/2+x,1/2+y,z
1/2-x,1/2-y,1/2+z
1/2+x,1/2-y,-z
1/2-x,1/2+y,1/2-z
1/2-x,1/2-y,-z
1/2+x,1/2+y,1/2-z
1/2-x,1/2+y,z
1/2+x,1/2-y,1/2+z
loop_
_atom_site_type_symbol
_atom_site_label
_atom_site_fract_x
_atom_site_fract_y
_atom_site_fract_z
Si Si1 0.662637 0.165487 0.508039
Si Si2 0.336266 0.311188 0.914095
Si Si3 0.167950 0.992584 0.196192
Si Si4 0.344645 0.947631 0.530683
Si Si5 0.835878 0.696275 0.615946
Si Si6 0.165574 0.126886 0.807230
Si Si7 0.166305 0.075259 0.118763
O O1 0.500000 0.183747 0.502321
O O2 0.750831 0.194253 0.464975
O O3 0.682268 0.102264 0.504562
O O4 0.719463 0.180326 0.561894
O O5 0.500000 0.316914 0.929057
O O6 0.312158 0.259925 0.879779
O O7 0.286751 0.362546 0.881913
O O8 0.231973 0.001675 0.250000
O O9 0.210684 0.933405 0.177547
O O10 0.000000 0.995133 0.198332
O O11 0.229861 0.041011 0.163682
O O12 0.500000 0.942037 0.555353
O O13 0.223914 0.952714 0.570596
O O14 0.334368 0.000000 0.500000
O O15 0.749660 0.667992 0.658889
O O16 0.000000 0.680850 0.622182
O O17 0.202138 0.136931 0.750000
O O18 0.000000 0.135869 0.816299
O O19 0.000000 0.069687 0.118789
#
# Coordination Sequence:
#
# PCOD8258351 Si02
#       7
#    16  16  16  16  16  16  16
#     4   9  18  31  46  67  95 130 167 195 228 280
#     4   9  18  32  47  70 101 127 156 198 236 273
#     4   8  15  30  51  72  93 118 152 195 238 282
#     4   9  18  30  43  63  95 129 157 189 231 280
#     4  10  20  32  49  72  98 127 161 198 237 282
#     4   9  19  35  52  71  94 120 155 197 238 282
#     4   9  17  30  49  70  93 121 154 193 235 276
#
# _framework density 17.261662000000001
#
# number of rings (size 3 to 8) (size 9 to 14) (size 15 to 20)
#    0.000    3.000    0.000    1.286    2.000    1.714 
#    0.000    0.714    0.000    3.857    0.000    0.000 
#    0.000    0.000    0.000    0.000    0.000    0.000 
#
# Total GULP energy -694017.006595 kJ/mol
# GULP energy per Si atom -12393.160832 kJ/mol
# Density = 1.722237 g / cm^3
# Si number density = 17.261662 Si / 1000 Ang^3
#
#
#
# Elastic Constant Matrix: (Units=GPa)
#
#
# Indices 1 2 3 4 5 6 
#
# 1 30.9003 38.7553 39.2780 0.0000 0.0000 0.0000
# 2 38.7553 109.5294 74.3397 0.0000 0.0000 0.0000
# 3 39.2780 74.3397 102.1945 0.0000 0.0000 0.0000
# 4 0.0000 0.0000 0.0000 32.0096 0.0000 0.0000
# 5 0.0000 0.0000 0.0000 0.0000 25.3250 0.0000
# 6 0.0000 0.0000 0.0000 0.0000 0.0000 21.6033
#
#
#
# Elastic Compliance Matrix: (Units=1/GPa)
#
#
# Indices 1 2 3 4 5 6 
#
# 1 0.071767 -0.013179 -0.017996 0.000000 0.000000 0.000000
# 2 -0.013179 0.020454 -0.009813 0.000000 0.000000 0.000000
# 3 -0.017996 -0.009813 0.023841 0.000000 0.000000 0.000000
# 4 0.000000 0.000000 0.000000 0.031241 0.000000 0.000000
# 5 0.000000 0.000000 0.000000 0.000000 0.039487 0.000000
# 6 0.000000 0.000000 0.000000 0.000000 0.000000 0.046289
#
#
# Mechanical properties :
#
#
# Convention : Reuss Voigt Hill
#
# Bulk Modulus (GPa) = 29.33959 60.81892 45.07926
# Shear Modulus (GPa) = 15.31780 21.80430 18.56105
#
# Velocity S-wave (km/s) = 2.98214 3.55796 3.28270
# Velocity P-wave (km/s) = 5.37507 7.22418 6.36711
#
# Compressibility (1/GPa) = 0.03408363
#
# Stress axis : x y z
#
# Youngs Moduli (GPa) = 13.93393 48.89075 41.94511
#
# Poissons Ratio (x) = 0.64434 0.75486
# Poissons Ratio (y) = 0.18364 0.41162
# Poissons Ratio (z) = 0.25076 0.47978
#
# Static dielectric constant tensor:
#      x y z
#    x 3.121510 0.000000 0.000000 
#    y 0.000000 3.462210 0.000000 
#    z 0.000000 0.000000 3.223330 
# 
# 
# High freq. dielectric constant tensor:
#      x y z
#    x 1.647580 0.000000 0.000000 
#    y 0.000000 1.680410 0.000000 
#    z 0.000000 0.000000 1.649130 
# 
# From -- ./inp_files/53188.got.cif
#   From: 2010.03.12/outbox.cif.g09.slc.cpg/sg63_27_cif.got.tgz:53188.got - 2010.04.10 19:34:48.
