data_PCOD8258206
_publ_section_title
;
Structure prediction by ZEFSAII (Michael W. Deem and Ramdas Pophale) SiO2 
 PCOD8258206
Probable space group: C M C M
;
_chemical_formula_sum "Si O2"
_cell_formula_units_Z 112
_cell_length_a 23.848083
_cell_length_b 16.114276
_cell_length_c 14.613906
_cell_angle_alpha 90.000000
_cell_angle_beta 90.000000
_cell_angle_gamma 90.000000
_cell_volume 5616.045037
_symmetry_space_group_name_H-M "C M C M"
_symmetry_group_IT_number 63
_symmetry_cell_setting 'orthorhombic'
loop_
_space_group_symop_operation_xyz
x,y,z
-x,-y,1/2+z
x,-y,-z
-x,y,1/2-z
-x,-y,-z
x,y,1/2-z
-x,y,z
x,-y,1/2+z
1/2+x,1/2+y,z
1/2-x,1/2-y,1/2+z
1/2+x,1/2-y,-z
1/2-x,1/2+y,1/2-z
1/2-x,1/2-y,-z
1/2+x,1/2+y,1/2-z
1/2-x,1/2+y,z
1/2+x,1/2-y,1/2+z
loop_
_atom_site_type_symbol
_atom_site_label
_atom_site_fract_x
_atom_site_fract_y
_atom_site_fract_z
Si Si1 0.937857 0.655103 0.147051
Si Si2 0.120488 0.317189 0.145510
Si Si3 0.439586 0.976834 0.101175
Si Si4 0.275480 0.711885 0.144191
Si Si5 0.846367 0.217587 0.642060
Si Si6 0.659428 0.593011 0.481185
Si Si7 0.935675 0.147756 0.356398
O O1 0.943696 0.685983 0.250000
O O2 0.914955 0.560181 0.148285
O O3 0.893267 0.718518 0.102540
O O4 0.000000 0.660309 0.099634
O O5 0.114807 0.341863 0.250000
O O6 0.104461 0.401833 0.094947
O O7 0.183640 0.289410 0.120728
O O8 0.077665 0.243513 0.120321
O O9 0.500000 0.951897 0.147610
O O10 0.453690 0.000000 0.000000
O O11 0.284568 0.684920 0.250000
O O12 0.212608 0.738097 0.124354
O O13 0.291507 0.636235 0.077825
O O14 0.853110 0.194778 0.750000
O O15 0.850521 0.136067 0.579780
O O16 0.679268 0.500000 0.500000
O O17 0.602224 0.590561 0.421672
O O18 0.921427 0.129536 0.250000
O O19 0.000000 0.128330 0.378495
#
# Coordination Sequence:
#
# PCOD8258206 Si02
#       7
#    16  16  16  16  16  16  16
#     4   9  19  36  55  76 108 151 191 228 277 341
#     4   9  17  32  55  79 106 143 186 234 288 342
#     4  10  20  30  46  80 117 146 180 228 283 342
#     4   9  20  41  63  83 113 152 195 243 294 351
#     4  10  22  41  61  82 115 157 198 239 289 354
#     4  11  23  38  60  88 117 150 191 245 301 349
#     4   9  19  36  60  87 115 152 195 241 297 356
#
# _framework density 19.942858999999999
#
# number of rings (size 3 to 8) (size 9 to 14) (size 15 to 20)
#    0.000    2.429    0.000    2.571    4.000    3.429 
#    2.571    0.000    0.000    1.714    0.000    0.000 
#    0.000    0.000    0.000    0.000    0.000    0.000 
#
# Total GULP energy -694019.521071 kJ/mol
# GULP energy per Si atom -12393.205733 kJ/mol
# Density = 1.989747 g / cm^3
# Si number density = 19.942859 Si / 1000 Ang^3
#
#
#
# Elastic Constant Matrix: (Units=GPa)
#
#
# Indices 1 2 3 4 5 6 
#
# 1 107.1129 48.6173 36.1425 0.0000 0.0000 0.0000
# 2 48.6173 134.9213 43.8807 0.0000 0.0000 0.0000
# 3 36.1425 43.8807 75.5730 0.0000 0.0000 0.0000
# 4 0.0000 0.0000 0.0000 27.2100 0.0000 0.0000
# 5 0.0000 0.0000 0.0000 0.0000 23.2690 0.0000
# 6 0.0000 0.0000 0.0000 0.0000 0.0000 12.5958
#
#
#
# Elastic Compliance Matrix: (Units=1/GPa)
#
#
# Indices 1 2 3 4 5 6 
#
# 1 0.012070 -0.003047 -0.004003 0.000000 0.000000 0.000000
# 2 -0.003047 0.009907 -0.004295 0.000000 0.000000 0.000000
# 3 -0.004003 -0.004295 0.017640 0.000000 0.000000 0.000000
# 4 0.000000 0.000000 0.000000 0.036751 0.000000 0.000000
# 5 0.000000 0.000000 0.000000 0.000000 0.042976 0.000000
# 6 0.000000 0.000000 0.000000 0.000000 0.000000 0.079391
#
#
# Mechanical properties :
#
#
# Convention : Reuss Voigt Hill
#
# Bulk Modulus (GPa) = 59.07848 63.87648 61.47748
# Shear Modulus (GPa) = 22.01991 25.21274 23.61632
#
# Velocity S-wave (km/s) = 3.32648 3.55949 3.44495
# Velocity P-wave (km/s) = 6.66649 6.99947 6.83501
#
# Compressibility (1/GPa) = 0.01692664
#
# Stress axis : x y z
#
# Youngs Moduli (GPa) = 82.85159 100.94277 56.68818
#
# Poissons Ratio (x) = 0.30761 0.22692
# Poissons Ratio (y) = 0.25248 0.24346
# Poissons Ratio (z) = 0.33165 0.43353
#
# Static dielectric constant tensor:
#      x y z
#    x 3.812950 0.000000 0.000000 
#    y 0.000000 3.434660 0.000000 
#    z 0.000000 0.000000 3.693850 
# 
# 
# High freq. dielectric constant tensor:
#      x y z
#    x 1.774150 0.000000 0.000000 
#    y 0.000000 1.751440 0.000000 
#    z 0.000000 0.000000 1.786740 
# 
# From -- ./inp_files/36950.got.cif
#   From: 2010.03.12/outbox.cif.g09.slc.cpg/sg63_19_cif.got.tgz:36950.got - 2010.04.10 19:34:48.
