data_PCOD8258519
_publ_section_title
;
Structure prediction by ZEFSAII (Michael W. Deem and Ramdas Pophale) SiO2 
 PCOD8258519
Probable space group: C M C M
;
_chemical_formula_sum "Si O2"
_cell_formula_units_Z 104
_cell_length_a 20.807256
_cell_length_b 28.296686
_cell_length_c 8.847658
_cell_angle_alpha 90.000000
_cell_angle_beta 90.000000
_cell_angle_gamma 90.000000
_cell_volume 5209.292133
_symmetry_space_group_name_H-M "C M C M"
_symmetry_group_IT_number 63
_symmetry_cell_setting 'orthorhombic'
loop_
_space_group_symop_operation_xyz
x,y,z
-x,-y,1/2+z
x,-y,-z
-x,y,1/2-z
-x,-y,-z
x,y,1/2-z
-x,y,z
x,-y,1/2+z
1/2+x,1/2+y,z
1/2-x,1/2-y,1/2+z
1/2+x,1/2-y,-z
1/2-x,1/2+y,1/2-z
1/2-x,1/2-y,-z
1/2+x,1/2+y,1/2-z
1/2-x,1/2+y,z
1/2+x,1/2-y,1/2+z
loop_
_atom_site_type_symbol
_atom_site_label
_atom_site_fract_x
_atom_site_fract_y
_atom_site_fract_z
Si Si1 0.000000 0.550641 0.928077
Si Si2 0.925456 0.307738 0.426455
Si Si3 0.573006 0.456602 0.414885
Si Si4 0.364870 0.620807 0.427479
Si Si5 0.573886 0.707860 0.927283
Si Si6 0.118427 0.398107 0.927760
Si Si7 0.749068 0.551545 0.427176
O O1 0.000000 0.545925 0.750000
O O2 0.000000 0.500000 0.000000
O O3 0.062839 0.577645 0.978546
O O4 0.908915 0.309806 0.250000
O O5 0.909795 0.256079 0.488014
O O6 0.879443 0.343782 0.517220
O O7 0.000000 0.320839 0.456061
O O8 0.609140 0.500000 0.500000
O O9 0.605415 0.448091 0.250000
O O10 0.500000 0.471068 0.388096
O O11 0.574581 0.410511 0.520464
O O12 0.363976 0.630381 0.250000
O O13 0.373569 0.670549 0.511948
O O14 0.303613 0.589968 0.483871
O O15 0.584031 0.714924 0.750000
O O16 0.500000 0.692352 0.962148
O O17 0.104307 0.400178 0.750000
O O18 0.183130 0.425436 0.970661
O O19 0.741481 0.500000 0.500000
O O20 0.741521 0.544478 0.250000
#
# Coordination Sequence:
#
# PCOD8258519 Si02
#       7
#     8  16  16  16  16  16  16
#     4  12  24  38  58  90 124 154 192 240 293 350
#     4  10  20  36  60  91 123 153 190 238 294 353
#     4  10  20  33  50  75 106 140 183 235 291 350
#     4  11  22  37  56  80 112 150 195 243 292 345
#     4  10  21  37  59  88 120 154 196 244 296 351
#     4  11  22  39  62  88 119 155 194 238 292 350
#     4  10  24  42  60  84 115 155 199 243 290 348
#
# _framework density 19.964324999999999
#
# number of rings (size 3 to 8) (size 9 to 14) (size 15 to 20)
#    0.000    1.538    0.769    4.385    0.000    9.231 
#    0.000    0.769    0.000    0.000    0.000    0.000 
#    0.000    0.000    0.000    0.000    0.000    0.000 
#
# Total GULP energy -644690.809521 kJ/mol
# GULP energy per Si atom -12397.900183 kJ/mol
# Density = 1.991889 g / cm^3
# Si number density = 19.964325 Si / 1000 Ang^3
#
#
#
# Elastic Constant Matrix: (Units=GPa)
#
#
# Indices 1 2 3 4 5 6 
#
# 1 84.9242 55.0221 42.1911 0.0000 0.0000 0.0000
# 2 55.0221 136.9478 47.7642 0.0000 0.0000 0.0000
# 3 42.1911 47.7642 99.1238 0.0000 0.0000 0.0000
# 4 0.0000 0.0000 0.0000 43.5617 0.0000 0.0000
# 5 0.0000 0.0000 0.0000 0.0000 14.2327 0.0000
# 6 0.0000 0.0000 0.0000 0.0000 0.0000 108.3898
#
#
#
# Elastic Compliance Matrix: (Units=1/GPa)
#
#
# Indices 1 2 3 4 5 6 
#
# 1 0.017730 -0.005399 -0.004945 0.000000 0.000000 0.000000
# 2 -0.005399 0.010421 -0.002724 0.000000 0.000000 0.000000
# 3 -0.004945 -0.002724 0.013506 0.000000 0.000000 0.000000
# 4 0.000000 0.000000 0.000000 0.022956 0.000000 0.000000
# 5 0.000000 0.000000 0.000000 0.000000 0.070261 0.000000
# 6 0.000000 0.000000 0.000000 0.000000 0.000000 0.009226
#
#
# Mechanical properties :
#
#
# Convention : Reuss Voigt Hill
#
# Bulk Modulus (GPa) = 64.42599 67.88342 66.15470
# Shear Modulus (GPa) = 28.50504 44.97140 36.73822
#
# Velocity S-wave (km/s) = 3.78272 4.75129 4.29440
# Velocity P-wave (km/s) = 7.17072 8.01099 7.60247
#
# Compressibility (1/GPa) = 0.01552169
#
# Stress axis : x y z
#
# Youngs Moduli (GPa) = 56.40251 95.95996 74.04305
#
# Poissons Ratio (x) = 0.51805 0.36615
# Poissons Ratio (y) = 0.30449 0.20167
# Poissons Ratio (z) = 0.27892 0.26136
#
# Static dielectric constant tensor:
#      x y z
#    x 3.564620 0.000000 0.000000 
#    y 0.000000 3.756370 0.000000 
#    z 0.000000 0.000000 3.784450 
# 
# 
# High freq. dielectric constant tensor:
#      x y z
#    x 1.757010 0.000000 0.000000 
#    y 0.000000 1.791750 0.000000 
#    z 0.000000 0.000000 1.793330 
# 
# From -- ./inp_files/8751.got.cif
#   From: 2010.03.12/outbox.cif.g09.slc.cpg/sg63_5_cif.got.tgz:8751.got - 2010.04.10 19:34:48.
