data_PCOD8258279
_publ_section_title
;
Structure prediction by ZEFSAII (Michael W. Deem and Ramdas Pophale) SiO2 
 PCOD8258279
Probable space group: C M C M
;
_chemical_formula_sum "Si O2"
_cell_formula_units_Z 80
_cell_length_a 18.373926
_cell_length_b 25.518257
_cell_length_c 9.805708
_cell_angle_alpha 90.000000
_cell_angle_beta 90.000000
_cell_angle_gamma 90.000000
_cell_volume 4597.607858
_symmetry_space_group_name_H-M "C M C M"
_symmetry_group_IT_number 63
_symmetry_cell_setting 'orthorhombic'
loop_
_space_group_symop_operation_xyz
x,y,z
-x,-y,1/2+z
x,-y,-z
-x,y,1/2-z
-x,-y,-z
x,y,1/2-z
-x,y,z
x,-y,1/2+z
1/2+x,1/2+y,z
1/2-x,1/2-y,1/2+z
1/2+x,1/2-y,-z
1/2-x,1/2+y,1/2-z
1/2-x,1/2-y,-z
1/2+x,1/2+y,1/2-z
1/2-x,1/2+y,z
1/2+x,1/2-y,1/2+z
loop_
_atom_site_type_symbol
_atom_site_label
_atom_site_fract_x
_atom_site_fract_y
_atom_site_fract_z
Si Si1 0.850591 0.161715 0.589151
Si Si2 0.813608 0.659341 0.588336
Si Si3 0.416489 0.747983 0.093186
Si Si4 0.177986 0.544637 0.902225
Si Si5 0.850989 0.043590 0.600173
O O1 0.859299 0.173593 0.750000
O O2 0.768015 0.172298 0.538192
O O3 0.903593 0.197969 0.501565
O O4 0.873626 0.102089 0.555211
O O5 0.811794 0.655240 0.750000
O O6 0.868183 0.703981 0.536125
O O7 0.840813 0.602232 0.536052
O O8 0.395839 0.734793 0.250000
O O9 0.500000 0.765220 0.081935
O O10 0.145419 0.537158 0.750000
O O11 0.264439 0.539608 0.895707
O O12 0.144170 0.500000 0.000000
O O13 0.882648 0.031800 0.750000
O O14 0.884840 0.000000 0.500000
#
# Coordination Sequence:
#
# PCOD8258279 Si02
#       5
#    16  16  16  16  16
#     4   9  17  30  48  68  90 117 148 182 221 263
#     4   8  15  29  47  66  90 119 149 181 218 262
#     4  10  20  32  46  65  89 118 152 187 222 262
#     4   8  13  23  40  62  88 114 140 174 215 257
#     4   8  14  24  40  64  90 113 138 172 216 261
#
# _framework density 17.400352999999999
#
# number of rings (size 3 to 8) (size 9 to 14) (size 15 to 20)
#    0.000    3.400    0.000    3.000    0.000    1.200 
#    0.000    4.000    0.000    1.200    0.000    0.000 
#    0.000    0.000    0.000    0.000    0.000    0.000 
#
# Total GULP energy -495759.139583 kJ/mol
# GULP energy per Si atom -12393.978490 kJ/mol
# Density = 1.736075 g / cm^3
# Si number density = 17.400353 Si / 1000 Ang^3
#
#
#
# Elastic Constant Matrix: (Units=GPa)
#
#
# Indices 1 2 3 4 5 6 
#
# 1 32.9750 21.5526 14.9140 0.0000 0.0000 0.0000
# 2 21.5526 117.7206 52.8739 0.0000 0.0000 0.0000
# 3 14.9140 52.8739 60.6611 0.0000 0.0000 0.0000
# 4 0.0000 0.0000 0.0000 32.5145 0.0000 0.0000
# 5 0.0000 0.0000 0.0000 0.0000 13.4157 0.0000
# 6 0.0000 0.0000 0.0000 0.0000 0.0000 3.8503
#
#
#
# Elastic Compliance Matrix: (Units=1/GPa)
#
#
# Indices 1 2 3 4 5 6 
#
# 1 0.035352 -0.004221 -0.005012 0.000000 0.000000 0.000000
# 2 -0.004221 0.014464 -0.011569 0.000000 0.000000 0.000000
# 3 -0.005012 -0.011569 0.027801 0.000000 0.000000 0.000000
# 4 0.000000 0.000000 0.000000 0.030756 0.000000 0.000000
# 5 0.000000 0.000000 0.000000 0.000000 0.074540 0.000000
# 6 0.000000 0.000000 0.000000 0.000000 0.000000 0.259717
#
#
# Mechanical properties :
#
#
# Convention : Reuss Voigt Hill
#
# Bulk Modulus (GPa) = 27.76869 43.33754 35.55312
# Shear Modulus (GPa) = 10.07580 18.09051 14.08316
#
# Velocity S-wave (km/s) = 2.40897 3.22788 2.84801
# Velocity P-wave (km/s) = 4.87143 6.23317 5.59390
#
# Compressibility (1/GPa) = 0.03601178
#
# Stress axis : x y z
#
# Youngs Moduli (GPa) = 28.28700 69.13815 35.96937
#
# Poissons Ratio (x) = 0.29183 0.18029
# Poissons Ratio (y) = 0.11940 0.41614
# Poissons Ratio (z) = 0.14179 0.79988
#
# Static dielectric constant tensor:
#      x y z
#    x 2.833010 0.000000 0.000000 
#    y 0.000000 3.544780 0.000000 
#    z 0.000000 0.000000 3.249080 
# 
# 
# High freq. dielectric constant tensor:
#      x y z
#    x 1.625540 0.000000 0.000000 
#    y 0.000000 1.683630 0.000000 
#    z 0.000000 0.000000 1.651420 
# 
# From -- ./inp_files/6346.got.cif
#   From: 2010.03.12/outbox.cif.g09.slc.cpg/sg63_4_cif.got.tgz:6346.got - 2010.04.10 19:34:48.
