data_PCOD8258698
_publ_section_title
;
Structure prediction by ZEFSAII (Michael W. Deem and Ramdas Pophale) SiO2 
 PCOD8258698
Probable space group: C M C M
;
_chemical_formula_sum "Si O2"
_cell_formula_units_Z 80
_cell_length_a 8.711595
_cell_length_b 20.568798
_cell_length_c 27.803971
_cell_angle_alpha 90.000000
_cell_angle_beta 90.000000
_cell_angle_gamma 90.000000
_cell_volume 4982.111203
_symmetry_space_group_name_H-M "C M C M"
_symmetry_group_IT_number 63
_symmetry_cell_setting 'orthorhombic'
loop_
_space_group_symop_operation_xyz
x,y,z
-x,-y,1/2+z
x,-y,-z
-x,y,1/2-z
-x,-y,-z
x,y,1/2-z
-x,y,z
x,-y,1/2+z
1/2+x,1/2+y,z
1/2-x,1/2-y,1/2+z
1/2+x,1/2-y,-z
1/2-x,1/2+y,1/2-z
1/2-x,1/2-y,-z
1/2+x,1/2+y,1/2-z
1/2-x,1/2+y,z
1/2+x,1/2-y,1/2+z
loop_
_atom_site_type_symbol
_atom_site_label
_atom_site_fract_x
_atom_site_fract_y
_atom_site_fract_z
Si Si1 0.181955 0.073952 0.547298
Si Si2 0.324434 0.755893 0.303733
Si Si3 0.825830 0.827333 0.889119
Si Si4 0.180030 0.197581 0.607786
Si Si5 0.819460 0.438077 0.944978
O O1 0.236675 0.133836 0.579998
O O2 0.237671 0.087036 0.493254
O O3 0.000000 0.064992 0.547824
O O4 0.259547 0.009456 0.568964
O O5 0.255530 0.749698 0.250000
O O6 0.500000 0.779810 0.301771
O O7 0.315408 0.685727 0.331244
O O8 0.227711 0.808065 0.335526
O O9 0.762647 0.761453 0.915097
O O10 0.722090 0.889080 0.902004
O O11 0.000000 0.840019 0.905941
O O12 0.000000 0.206965 0.602638
O O13 0.000000 0.440484 0.953384
#
# Coordination Sequence:
#
# PCOD8258698 Si02
#       5
#    16  16  16  16  16
#     4  10  20  34  50  68  98 133 163 193 239 289
#     4   8  16  31  51  73  96 125 157 193 242 290
#     4   9  18  32  50  71  98 128 159 196 241 286
#     4   9  18  31  49  75  97 123 161 200 236 280
#     4  11  21  32  49  71  97 128 167 201 235 281
#
# _framework density 16.057449999999999
#
# number of rings (size 3 to 8) (size 9 to 14) (size 15 to 20)
#    1.200    1.400    0.000    4.200    0.000    4.400 
#    0.000    0.000    0.000    1.200    0.000    2.800 
#    0.000    0.000    0.000    0.000    0.000    0.000 
#
# Total GULP energy -495611.713582 kJ/mol
# GULP energy per Si atom -12390.292840 kJ/mol
# Density = 1.602090 g / cm^3
# Si number density = 16.057450 Si / 1000 Ang^3
#
#
#
# Elastic Constant Matrix: (Units=GPa)
#
#
# Indices 1 2 3 4 5 6 
#
# 1 46.2401 27.3769 12.2837 0.0000 0.0000 0.0000
# 2 27.3769 78.8593 31.4996 0.0000 0.0000 0.0000
# 3 12.2837 31.4996 54.1568 0.0000 0.0000 0.0000
# 4 0.0000 0.0000 0.0000 10.1581 0.0000 0.0000
# 5 0.0000 0.0000 0.0000 0.0000 23.0953 0.0000
# 6 0.0000 0.0000 0.0000 0.0000 0.0000 28.1846
#
#
#
# Elastic Compliance Matrix: (Units=1/GPa)
#
#
# Indices 1 2 3 4 5 6 
#
# 1 0.027254 -0.009108 -0.000884 0.000000 0.000000 0.000000
# 2 -0.009108 0.019563 -0.009312 0.000000 0.000000 0.000000
# 3 -0.000884 -0.009312 0.024082 0.000000 0.000000 0.000000
# 4 0.000000 0.000000 0.000000 0.098443 0.000000 0.000000
# 5 0.000000 0.000000 0.000000 0.000000 0.043299 0.000000
# 6 0.000000 0.000000 0.000000 0.000000 0.000000 0.035480
#
#
# Mechanical properties :
#
#
# Convention : Reuss Voigt Hill
#
# Bulk Modulus (GPa) = 30.97038 35.73074 33.35056
# Shear Modulus (GPa) = 16.80711 19.49401 18.15056
#
# Velocity S-wave (km/s) = 3.23876 3.48805 3.36572
# Velocity P-wave (km/s) = 5.77193 6.20662 5.99322
#
# Compressibility (1/GPa) = 0.03228892
#
# Stress axis : x y z
#
# Youngs Moduli (GPa) = 36.69217 51.11771 41.52511
#
# Poissons Ratio (x) = 0.46560 0.03670
# Poissons Ratio (y) = 0.33421 0.38670
# Poissons Ratio (z) = 0.03243 0.47603
#
# Static dielectric constant tensor:
#      x y z
#    x 3.062550 0.000000 0.000000 
#    y 0.000000 2.956010 0.000000 
#    z 0.000000 0.000000 2.936870 
# 
# 
# High freq. dielectric constant tensor:
#      x y z
#    x 1.631530 0.000000 0.000000 
#    y 0.000000 1.602320 0.000000 
#    z 0.000000 0.000000 1.593600 
# 
# From -- ./inp_files/71969.got.cif
#   From: 2010.03.12/outbox.cif.g09.slc.cpg/sg63_36_cif.got.tgz:71969.got - 2010.04.10 19:34:48.
