data_PCOD8258080
_publ_section_title
;
Structure prediction by ZEFSAII (Michael W. Deem and Ramdas Pophale) SiO2 
 PCOD8258080
Probable space group: C M C M
;
_chemical_formula_sum "Si O2"
_cell_formula_units_Z 112
_cell_length_a 13.961861
_cell_length_b 14.796659
_cell_length_c 26.892904
_cell_angle_alpha 90.000000
_cell_angle_beta 90.000000
_cell_angle_gamma 90.000000
_cell_volume 5555.775354
_symmetry_space_group_name_H-M "C M C M"
_symmetry_group_IT_number 63
_symmetry_cell_setting 'orthorhombic'
loop_
_space_group_symop_operation_xyz
x,y,z
-x,-y,1/2+z
x,-y,-z
-x,y,1/2-z
-x,-y,-z
x,y,1/2-z
-x,y,z
x,-y,1/2+z
1/2+x,1/2+y,z
1/2-x,1/2-y,1/2+z
1/2+x,1/2-y,-z
1/2-x,1/2+y,1/2-z
1/2-x,1/2-y,-z
1/2+x,1/2+y,1/2-z
1/2-x,1/2+y,z
1/2+x,1/2-y,1/2+z
loop_
_atom_site_type_symbol
_atom_site_label
_atom_site_fract_x
_atom_site_fract_y
_atom_site_fract_z
Si Si1 0.261717 0.900546 0.505095
Si Si2 0.603317 0.806317 0.062287
Si Si3 0.731588 0.129613 0.849795
Si Si4 0.893391 0.921134 0.077946
Si Si5 0.146970 0.880738 0.595970
Si Si6 0.743318 0.676995 0.193334
Si Si7 0.392730 0.030796 0.307285
O O1 0.334400 0.822994 0.487237
O O2 0.162708 0.898973 0.473076
O O3 0.245270 0.881956 0.563509
O O4 0.309091 0.000000 0.500000
O O5 0.500000 0.851953 0.054973
O O6 0.655462 0.852401 0.107757
O O7 0.586168 0.701336 0.073732
O O8 0.835210 0.112352 0.873922
O O9 0.746729 0.214723 0.813401
O O10 0.687242 0.042179 0.823493
O O11 0.000000 0.877181 0.075775
O O12 0.909611 0.027955 0.085570
O O13 0.168315 0.866325 0.654391
O O14 0.709126 0.656988 0.250000
O O15 0.847116 0.630542 0.183604
O O16 0.409081 0.012710 0.250000
O O17 0.500000 0.024277 0.332480
#
# Coordination Sequence:
#
# PCOD8258080 Si02
#       7
#    16  16  16  16  16  16  16
#     4   9  20  35  53  80 116 151 192 238 290 350
#     4  10  20  33  54  83 114 150 188 231 289 357
#     4  10  20  37  57  85 119 153 188 247 301 354
#     4  10  20  35  58  85 113 151 197 239 292 357
#     4  10  19  36  56  80 115 149 194 244 292 349
#     4  10  21  37  60  84 113 153 196 246 301 355
#     4  10  20  36  60  86 112 152 202 245 295 361
#
# _framework density 20.159202000000001
#
# number of rings (size 3 to 8) (size 9 to 14) (size 15 to 20)
#    0.000    2.143    1.429    1.714    0.000    4.000 
#    0.000    0.714    0.000   11.571    0.000    0.000 
#    0.000    0.000    0.000    0.000    0.000    0.000 
#
# Total GULP energy -693851.722555 kJ/mol
# GULP energy per Si atom -12390.209331 kJ/mol
# Density = 2.011332 g / cm^3
# Si number density = 20.159202 Si / 1000 Ang^3
#
#
#
# Elastic Constant Matrix: (Units=GPa)
#
#
# Indices 1 2 3 4 5 6 
#
# 1 114.0485 45.5324 33.0955 0.0000 0.0000 0.0000
# 2 45.5324 69.5875 25.8434 0.0000 0.0000 0.0000
# 3 33.0955 25.8434 93.2274 0.0000 0.0000 0.0000
# 4 0.0000 0.0000 0.0000 24.5960 0.0000 0.0000
# 5 0.0000 0.0000 0.0000 0.0000 -50.1547 0.0000
# 6 0.0000 0.0000 0.0000 0.0000 0.0000 12.9626
#
#
#
# Elastic Compliance Matrix: (Units=1/GPa)
#
#
# Indices 1 2 3 4 5 6 
#
# 1 0.012327 -0.007180 -0.002386 0.000000 0.000000 0.000000
# 2 -0.007180 0.020201 -0.003051 0.000000 0.000000 0.000000
# 3 -0.002386 -0.003051 0.012419 0.000000 0.000000 0.000000
# 4 0.000000 0.000000 0.000000 0.040657 0.000000 0.000000
# 5 0.000000 0.000000 0.000000 0.000000 -0.019938 0.000000
# 6 0.000000 0.000000 0.000000 0.000000 0.000000 0.077145
#
#
# Mechanical properties :
#
#
# Convention : Reuss Voigt Hill
#
# Bulk Modulus (GPa) = 50.72494 53.97844 52.35169
# Shear Modulus (GPa) = 28.63423 8.97357 18.80390
#
# Velocity S-wave (km/s) = 3.77291 2.11211 3.05744
# Velocity P-wave (km/s) = 6.64806 5.72558 6.20399
#
# Compressibility (1/GPa) = 0.01971417
#
# Stress axis : x y z
#
# Youngs Moduli (GPa) = 81.12324 49.50164 80.52037
#
# Poissons Ratio (x) = 0.35541 0.19210
# Poissons Ratio (y) = 0.58244 0.24568
# Poissons Ratio (z) = 0.19354 0.15104
#
# Static dielectric constant tensor:
#      x y z
#    x 3.494320 0.000000 0.000000 
#    y 0.000000 3.870200 0.000000 
#    z 0.000000 0.000000 3.669660 
# 
# 
# High freq. dielectric constant tensor:
#      x y z
#    x 1.769680 0.000000 0.000000 
#    y 0.000000 1.792900 0.000000 
#    z 0.000000 0.000000 1.781230 
# 
# From -- ./inp_files/69428.got.cif
#   From: 2010.03.12/outbox.cif.g09.slc.cpg/sg63_35_cif.got.tgz:69428.got - 2010.04.10 19:34:48.
