data_PCOD8258227
_publ_section_title
;
Structure prediction by ZEFSAII (Michael W. Deem and Ramdas Pophale) SiO2 
 PCOD8258227
Probable space group: C M C M
;
_chemical_formula_sum "Si O2"
_cell_formula_units_Z 96
_cell_length_a 18.415902
_cell_length_b 18.432086
_cell_length_c 16.748004
_cell_angle_alpha 90.000000
_cell_angle_beta 90.000000
_cell_angle_gamma 90.000000
_cell_volume 5685.000919
_symmetry_space_group_name_H-M "C M C M"
_symmetry_group_IT_number 63
_symmetry_cell_setting 'orthorhombic'
loop_
_space_group_symop_operation_xyz
x,y,z
-x,-y,1/2+z
x,-y,-z
-x,y,1/2-z
-x,-y,-z
x,y,1/2-z
-x,y,z
x,-y,1/2+z
1/2+x,1/2+y,z
1/2-x,1/2-y,1/2+z
1/2+x,1/2-y,-z
1/2-x,1/2+y,1/2-z
1/2-x,1/2-y,-z
1/2+x,1/2+y,1/2-z
1/2-x,1/2+y,z
1/2+x,1/2-y,1/2+z
loop_
_atom_site_type_symbol
_atom_site_label
_atom_site_fract_x
_atom_site_fract_y
_atom_site_fract_z
Si Si1 0.417478 0.700389 0.512696
Si Si2 0.805625 0.565357 0.656219
Si Si3 0.341555 0.086431 0.418680
Si Si4 0.799176 0.080856 0.983184
Si Si5 0.416568 0.147702 0.566152
Si Si6 0.081864 0.709310 0.161614
O O1 0.500000 0.674497 0.499061
O O2 0.365457 0.633269 0.496969
O O3 0.399506 0.768824 0.456238
O O4 0.403330 0.723677 0.603721
O O5 0.787465 0.558527 0.750000
O O6 0.841928 0.492549 0.620694
O O7 0.732085 0.585190 0.607561
O O8 0.865971 0.627672 0.641635
O O9 0.262826 0.103677 0.454506
O O10 0.399251 0.094770 0.491030
O O11 0.361311 0.144203 0.350631
O O12 0.827312 0.000000 0.000000
O O13 0.500000 0.137436 0.590502
O O14 0.091894 0.740268 0.250000
O O15 0.000000 0.679279 0.146911
#
# Coordination Sequence:
#
# PCOD8258227 Si02
#       6
#    16  16  16  16  16  16
#     4   9  18  33  51  69  90 117 151 193 237 277
#     4  10  20  31  45  69  98 126 154 186 225 267
#     4   9  17  30  47  66  95 129 159 187 218 263
#     4   9  19  34  50  68  90 117 152 195 235 275
#     4   9  18  31  47  69  96 125 157 190 222 263
#     4   9  17  28  44  70 100 126 153 186 224 266
#
# _framework density 16.886541000000001
#
# number of rings (size 3 to 8) (size 9 to 14) (size 15 to 20)
#    0.000    2.833    0.000    3.500    0.000    9.333 
#    0.000    0.000    0.000    4.000    0.000    0.000 
#    0.000    0.000    0.000    0.000    0.000    0.000 
#
# Total GULP energy -594957.531654 kJ/mol
# GULP energy per Si atom -12394.948576 kJ/mol
# Density = 1.684811 g / cm^3
# Si number density = 16.886541 Si / 1000 Ang^3
#
#
#
# Elastic Constant Matrix: (Units=GPa)
#
#
# Indices 1 2 3 4 5 6 
#
# 1 92.7066 68.6008 33.4561 0.0000 0.0000 0.0000
# 2 68.6008 89.5943 33.3321 0.0000 0.0000 0.0000
# 3 33.4561 33.3321 72.3171 0.0000 0.0000 0.0000
# 4 0.0000 0.0000 0.0000 10.7456 0.0000 0.0000
# 5 0.0000 0.0000 0.0000 0.0000 15.5095 0.0000
# 6 0.0000 0.0000 0.0000 0.0000 0.0000 31.5305
#
#
#
# Elastic Compliance Matrix: (Units=1/GPa)
#
#
# Indices 1 2 3 4 5 6 
#
# 1 0.025556 -0.018309 -0.003384 0.000000 0.000000 0.000000
# 2 -0.018309 0.026588 -0.003785 0.000000 0.000000 0.000000
# 3 -0.003384 -0.003785 0.017138 0.000000 0.000000 0.000000
# 4 0.000000 0.000000 0.000000 0.093061 0.000000 0.000000
# 5 0.000000 0.000000 0.000000 0.000000 0.064477 0.000000
# 6 0.000000 0.000000 0.000000 0.000000 0.000000 0.031715
#
#
# Mechanical properties :
#
#
# Convention : Reuss Voigt Hill
#
# Bulk Modulus (GPa) = 54.56461 58.37733 56.47097
# Shear Modulus (GPa) = 15.84282 19.50572 17.67427
#
# Velocity S-wave (km/s) = 3.06631 3.40237 3.23870
# Velocity P-wave (km/s) = 6.70217 7.07674 6.89200
#
# Compressibility (1/GPa) = 0.01832690
#
# Stress axis : x y z
#
# Youngs Moduli (GPa) = 39.12943 37.61052 58.34974
#
# Poissons Ratio (x) = 0.68861 0.19747
# Poissons Ratio (y) = 0.71642 0.22084
# Poissons Ratio (z) = 0.13242 0.14234
#
# Static dielectric constant tensor:
#      x y z
#    x 3.048670 0.000000 0.000000 
#    y 0.000000 3.017320 0.000000 
#    z 0.000000 0.000000 3.142740 
# 
# 
# High freq. dielectric constant tensor:
#      x y z
#    x 1.641340 0.000000 0.000000 
#    y 0.000000 1.639240 0.000000 
#    z 0.000000 0.000000 1.637890 
# 
# From -- ./inp_files/45733.got.cif
#   From: 2010.03.12/outbox.cif.g09.slc.cpg/sg63_23_cif.got.tgz:45733.got - 2010.04.10 19:34:48.
