data_PCOD8258848
_publ_section_title
;
Structure prediction by ZEFSAII (Michael W. Deem and Ramdas Pophale) SiO2 
 PCOD8258848
Probable space group: C M C M
;
_chemical_formula_sum "Si O2"
_cell_formula_units_Z 72
_cell_length_a 12.280292
_cell_length_b 16.903627
_cell_length_c 19.383082
_cell_angle_alpha 90.000000
_cell_angle_beta 90.000000
_cell_angle_gamma 90.000000
_cell_volume 4023.568760
_symmetry_space_group_name_H-M "C M C M"
_symmetry_group_IT_number 63
_symmetry_cell_setting 'orthorhombic'
loop_
_space_group_symop_operation_xyz
x,y,z
-x,-y,1/2+z
x,-y,-z
-x,y,1/2-z
-x,-y,-z
x,y,1/2-z
-x,y,z
x,-y,1/2+z
1/2+x,1/2+y,z
1/2-x,1/2-y,1/2+z
1/2+x,1/2-y,-z
1/2-x,1/2+y,1/2-z
1/2-x,1/2-y,-z
1/2+x,1/2+y,1/2-z
1/2-x,1/2+y,z
1/2+x,1/2-y,1/2+z
loop_
_atom_site_type_symbol
_atom_site_label
_atom_site_fract_x
_atom_site_fract_y
_atom_site_fract_z
Si Si1 0.126257 0.182438 0.120619
Si Si2 0.229422 0.652905 0.862503
Si Si3 0.872984 0.455264 0.250000
Si Si4 0.876220 0.091375 0.517170
Si Si5 0.123391 0.224965 0.750000
Si Si6 0.258108 0.121899 0.250000
O O1 0.154302 0.274854 0.112783
O O2 0.158600 0.141023 0.049516
O O3 0.187374 0.138486 0.182363
O O4 0.000000 0.172995 0.137139
O O5 0.153967 0.593659 0.818934
O O6 0.326406 0.687114 0.817555
O O7 0.285667 0.608320 0.925584
O O8 0.799362 0.532979 0.250000
O O9 0.000000 0.477196 0.250000
O O10 0.000000 0.113666 0.540551
O O11 0.870135 0.000000 0.500000
O O12 0.138660 0.319470 0.750000
O O13 0.000000 0.201087 0.750000
#
# Coordination Sequence:
#
# PCOD8258848 Si02
#       6
#    16  16   8  16   8   8
#     4  10  20  35  56  79 105 139 178 219 263 314
#     4  10  20  34  54  77 105 140 177 216 261 315
#     4  11  22  36  55  78 106 138 171 213 263 313
#     4  10  20  34  53  78 109 142 177 221 268 312
#     4   9  18  32  51  74 100 132 173 217 259 309
#     4  10  20  34  54  78 104 136 172 216 264 312
#
# _framework density 17.894563000000002
#
# number of rings (size 3 to 8) (size 9 to 14) (size 15 to 20)
#    0.000    2.000    0.000    4.667    0.000    0.000 
#    0.000    5.556    0.000   16.000    0.000    0.000 
#    0.000    0.000    0.000    0.000    0.000    0.000 
#
# Total GULP energy -446429.198254 kJ/mol
# GULP energy per Si atom -12400.811063 kJ/mol
# Density = 1.785383 g / cm^3
# Si number density = 17.894563 Si / 1000 Ang^3
#
#
#
# Elastic Constant Matrix: (Units=GPa)
#
#
# Indices 1 2 3 4 5 6 
#
# 1 81.2597 27.8573 43.1549 0.0000 0.0000 0.0000
# 2 27.8573 106.9476 40.7049 0.0000 0.0000 0.0000
# 3 43.1549 40.7049 107.8378 0.0000 0.0000 0.0000
# 4 0.0000 0.0000 0.0000 38.9932 0.0000 0.0000
# 5 0.0000 0.0000 0.0000 0.0000 8.8109 0.0000
# 6 0.0000 0.0000 0.0000 0.0000 0.0000 24.9896
#
#
#
# Elastic Compliance Matrix: (Units=1/GPa)
#
#
# Indices 1 2 3 4 5 6 
#
# 1 0.015993 -0.002020 -0.005638 0.000000 0.000000 0.000000
# 2 -0.002020 0.011174 -0.003409 0.000000 0.000000 0.000000
# 3 -0.005638 -0.003409 0.012816 0.000000 0.000000 0.000000
# 4 0.000000 0.000000 0.000000 0.025646 0.000000 0.000000
# 5 0.000000 0.000000 0.000000 0.000000 0.113496 0.000000
# 6 0.000000 0.000000 0.000000 0.000000 0.000000 0.040017
#
#
# Mechanical properties :
#
#
# Convention : Reuss Voigt Hill
#
# Bulk Modulus (GPa) = 56.02555 57.71995 56.87275
# Shear Modulus (GPa) = 20.22447 26.84725 23.53586
#
# Velocity S-wave (km/s) = 3.36549 3.87758 3.63057
# Velocity P-wave (km/s) = 6.81753 7.23692 7.03036
#
# Compressibility (1/GPa) = 0.01784900
#
# Stress axis : x y z
#
# Youngs Moduli (GPa) = 62.52869 89.49169 78.02634
#
# Poissons Ratio (x) = 0.18078 0.43987
# Poissons Ratio (y) = 0.12631 0.26603
# Poissons Ratio (z) = 0.35251 0.30512
#
# Static dielectric constant tensor:
#      x y z
#    x 3.264990 0.000000 0.000000 
#    y 0.000000 3.395880 0.000000 
#    z 0.000000 0.000000 3.168800 
# 
# 
# High freq. dielectric constant tensor:
#      x y z
#    x 1.693850 0.000000 0.000000 
#    y 0.000000 1.703820 0.000000 
#    z 0.000000 0.000000 1.697770 
# 
# From -- ./inp_files/41940.got.cif
#   From: 2010.03.12/outbox.cif.g09.slc.cpg/sg63_21_cif.got.tgz:41940.got - 2010.04.10 19:34:48.
