data_PCOD8258111
_publ_section_title
;
Structure prediction by ZEFSAII (Michael W. Deem and Ramdas Pophale) SiO2 
 PCOD8258111
Probable space group: C M C M
;
_chemical_formula_sum "Si O2"
_cell_formula_units_Z 80
_cell_length_a 11.501606
_cell_length_b 21.646974
_cell_length_c 16.851295
_cell_angle_alpha 90.000000
_cell_angle_beta 90.000000
_cell_angle_gamma 90.000000
_cell_volume 4195.550600
_symmetry_space_group_name_H-M "C M C M"
_symmetry_group_IT_number 63
_symmetry_cell_setting 'orthorhombic'
loop_
_space_group_symop_operation_xyz
x,y,z
-x,-y,1/2+z
x,-y,-z
-x,y,1/2-z
-x,-y,-z
x,y,1/2-z
-x,y,z
x,-y,1/2+z
1/2+x,1/2+y,z
1/2-x,1/2-y,1/2+z
1/2+x,1/2-y,-z
1/2-x,1/2+y,1/2-z
1/2-x,1/2-y,-z
1/2+x,1/2+y,1/2-z
1/2-x,1/2+y,z
1/2+x,1/2-y,1/2+z
loop_
_atom_site_type_symbol
_atom_site_label
_atom_site_fract_x
_atom_site_fract_y
_atom_site_fract_z
Si Si1 0.288168 0.831991 0.064694
Si Si2 0.500000 0.886277 0.341250
Si Si3 0.000000 0.481234 0.591761
Si Si4 0.133913 0.070206 0.476655
Si Si5 0.366484 0.778078 0.598373
Si Si6 0.291591 0.096410 0.340802
O O1 0.383978 0.857891 0.123122
O O2 0.209645 0.783087 0.112677
O O3 0.207540 0.887692 0.035748
O O4 0.354227 0.799687 0.992241
O O5 0.500000 0.869578 0.250000
O O6 0.500000 0.959566 0.352549
O O7 0.000000 0.500000 0.500000
O O8 0.888440 0.440018 0.609757
O O9 0.170334 0.082437 0.385182
O O10 0.000000 0.088665 0.485304
O O11 0.157341 0.000000 0.500000
O O12 0.500000 0.762713 0.617182
O O13 0.320808 0.830955 0.657703
O O14 0.284078 0.073811 0.250000
#
# Coordination Sequence:
#
# PCOD8258111 Si02
#       6
#    16   8   8  16  16  16
#     4  10  21  37  59  85 117 159 203 243 293 351
#     4  12  24  38  58  90 126 156 188 247 317 359
#     4  12  22  38  64  88 118 154 204 253 299 363
#     4  10  21  38  61  87 116 156 205 249 290 356
#     4  10  19  36  60  82 114 156 206 246 283 350
#     4  11  22  36  58  90 120 152 194 251 317 361
#
# _framework density 19.067820999999999
#
# number of rings (size 3 to 8) (size 9 to 14) (size 15 to 20)
#    0.000    1.400    2.000    5.700    0.000    1.200 
#    1.800    0.000    0.000    3.000    0.000    0.000 
#    0.000    0.000    0.000    0.000    0.000    0.000 
#
# Total GULP energy -496169.836642 kJ/mol
# GULP energy per Si atom -12404.245916 kJ/mol
# Density = 1.902442 g / cm^3
# Si number density = 19.067821 Si / 1000 Ang^3
#
#
#
# Elastic Constant Matrix: (Units=GPa)
#
#
# Indices 1 2 3 4 5 6 
#
# 1 135.9293 67.9858 52.1803 0.0000 0.0000 0.0000
# 2 67.9858 115.9323 36.1947 0.0000 0.0000 0.0000
# 3 52.1803 36.1947 118.5643 0.0000 0.0000 0.0000
# 4 0.0000 0.0000 0.0000 22.9572 0.0000 0.0000
# 5 0.0000 0.0000 0.0000 0.0000 -4.3766 0.0000
# 6 0.0000 0.0000 0.0000 0.0000 0.0000 -12.9933
#
#
#
# Elastic Compliance Matrix: (Units=1/GPa)
#
#
# Indices 1 2 3 4 5 6 
#
# 1 0.011477 -0.005697 -0.003312 0.000000 0.000000 0.000000
# 2 -0.005697 0.012362 -0.001267 0.000000 0.000000 0.000000
# 3 -0.003312 -0.001267 0.010279 0.000000 0.000000 0.000000
# 4 0.000000 0.000000 0.000000 0.043559 0.000000 0.000000
# 5 0.000000 0.000000 0.000000 0.000000 -0.228486 0.000000
# 6 0.000000 0.000000 0.000000 0.000000 0.000000 -0.076962
#
#
# Mechanical properties :
#
#
# Convention : Reuss Voigt Hill
#
# Bulk Modulus (GPa) = 73.70858 75.90527 74.80692
# Shear Modulus (GPa) = -24.66722 15.38846 -4.63938
#
# Velocity S-wave (km/s) = -3.60065 2.84392 -1.56153
# Velocity P-wave (km/s) = 4.63182 7.11887 6.00550
#
# Compressibility (1/GPa) = 0.01356694
#
# Stress axis : x y z
#
# Youngs Moduli (GPa) = 87.12757 80.89424 97.28922
#
# Poissons Ratio (x) = 0.46082 0.32224
# Poissons Ratio (y) = 0.49633 0.12323
# Poissons Ratio (z) = 0.28858 0.10247
#
# Static dielectric constant tensor:
#      x y z
#    x 3.544640 0.000000 0.000000 
#    y 0.000000 3.701130 0.000000 
#    z 0.000000 0.000000 3.274970 
# 
# 
# High freq. dielectric constant tensor:
#      x y z
#    x 1.750970 0.000000 0.000000 
#    y 0.000000 1.754600 0.000000 
#    z 0.000000 0.000000 1.723490 
# 
# From -- ./inp_files/42178.got.cif
#   From: 2010.03.12/outbox.cif.g09.slc.cpg/sg63_22_cif.got.tgz:42178.got - 2010.04.10 19:34:48.
