data_PCOD8258774
_publ_section_title
;
Structure prediction by ZEFSAII (Michael W. Deem and Ramdas Pophale) SiO2 
 PCOD8258774
Probable space group: C M C M
;
_chemical_formula_sum "Si O2"
_cell_formula_units_Z 80
_cell_length_a 26.776885
_cell_length_b 18.507639
_cell_length_c 8.501848
_cell_angle_alpha 90.000000
_cell_angle_beta 90.000000
_cell_angle_gamma 90.000000
_cell_volume 4213.319656
_symmetry_space_group_name_H-M "C M C M"
_symmetry_group_IT_number 63
_symmetry_cell_setting 'orthorhombic'
loop_
_space_group_symop_operation_xyz
x,y,z
-x,-y,1/2+z
x,-y,-z
-x,y,1/2-z
-x,-y,-z
x,y,1/2-z
-x,y,z
x,-y,1/2+z
1/2+x,1/2+y,z
1/2-x,1/2-y,1/2+z
1/2+x,1/2-y,-z
1/2-x,1/2+y,1/2-z
1/2-x,1/2-y,-z
1/2+x,1/2+y,1/2-z
1/2-x,1/2+y,z
1/2+x,1/2-y,1/2+z
loop_
_atom_site_type_symbol
_atom_site_label
_atom_site_fract_x
_atom_site_fract_y
_atom_site_fract_z
Si Si1 0.106066 0.784497 0.567432
Si Si2 0.849689 0.576509 0.564556
Si Si3 0.943782 0.349029 0.566583
Si Si4 0.941573 0.076587 0.932402
Si Si5 0.200534 0.714565 0.066435
O O1 0.119298 0.776312 0.750000
O O2 0.063353 0.727169 0.521524
O O3 0.087786 0.864481 0.531926
O O4 0.155363 0.769229 0.466266
O O5 0.830370 0.500000 0.500000
O O6 0.853877 0.573850 0.750000
O O7 0.904736 0.591925 0.495210
O O8 0.810086 0.637626 0.515432
O O9 0.934134 0.335655 0.750000
O O10 0.000000 0.376867 0.534322
O O11 0.927374 0.082389 0.750000
O O12 0.000000 0.088370 0.959997
O O13 0.924198 0.000000 0.000000
O O14 0.206501 0.700803 0.250000
O O15 0.250000 0.750000 0.000000
#
# Coordination Sequence:
#
# PCOD8258774 Si02
#       5
#    16  16  16  16  16
#     4  11  21  34  54  80 109 143 183 226 273 325
#     4  11  22  38  59  84 114 148 184 224 272 323
#     4  10  20  34  53  79 111 148 188 228 270 318
#     4  10  20  34  52  76 108 146 185 226 274 326
#     4  11  22  40  63  86 111 141 180 225 274 325
#
# _framework density 18.987404000000002
#
# number of rings (size 3 to 8) (size 9 to 14) (size 15 to 20)
#    0.000    1.400    0.000    9.600    0.000    5.600 
#    0.000    1.000    0.000    0.000    0.000    0.000 
#    0.000    0.000    0.000    0.000    0.000    0.000 
#
# Total GULP energy -496179.870257 kJ/mol
# GULP energy per Si atom -12404.496756 kJ/mol
# Density = 1.894419 g / cm^3
# Si number density = 18.987404 Si / 1000 Ang^3
#
#
#
# Elastic Constant Matrix: (Units=GPa)
#
#
# Indices 1 2 3 4 5 6 
#
# 1 91.3927 43.1237 26.7985 0.0000 0.0000 0.0000
# 2 43.1237 127.9641 26.1423 0.0000 0.0000 0.0000
# 3 26.7985 26.1423 90.0612 0.0000 0.0000 0.0000
# 4 0.0000 0.0000 0.0000 36.6144 0.0000 0.0000
# 5 0.0000 0.0000 0.0000 0.0000 30.6754 0.0000
# 6 0.0000 0.0000 0.0000 0.0000 0.0000 17.5996
#
#
#
# Elastic Compliance Matrix: (Units=1/GPa)
#
#
# Indices 1 2 3 4 5 6 
#
# 1 0.013691 -0.004020 -0.002907 0.000000 0.000000 0.000000
# 2 -0.004020 0.009488 -0.001558 0.000000 0.000000 0.000000
# 3 -0.002907 -0.001558 0.012421 0.000000 0.000000 0.000000
# 4 0.000000 0.000000 0.000000 0.027312 0.000000 0.000000
# 5 0.000000 0.000000 0.000000 0.000000 0.032599 0.000000
# 6 0.000000 0.000000 0.000000 0.000000 0.000000 0.056819
#
#
# Mechanical properties :
#
#
# Convention : Reuss Voigt Hill
#
# Bulk Modulus (GPa) = 53.67729 55.72744 54.70236
# Shear Modulus (GPa) = 28.48850 31.20145 29.84498
#
# Velocity S-wave (km/s) = 3.87769 4.05813 3.96893
# Velocity P-wave (km/s) = 6.95557 7.16737 7.06227
#
# Compressibility (1/GPa) = 0.01862985
#
# Stress axis : x y z
#
# Youngs Moduli (GPa) = 73.04059 105.39987 80.51037
#
# Poissons Ratio (x) = 0.42370 0.23404
# Poissons Ratio (y) = 0.29362 0.12542
# Poissons Ratio (z) = 0.21233 0.16420
#
# Static dielectric constant tensor:
#      x y z
#    x 3.312170 0.000000 0.000000 
#    y 0.000000 3.275020 0.000000 
#    z 0.000000 0.000000 3.691920 
# 
# 
# High freq. dielectric constant tensor:
#      x y z
#    x 1.721790 0.000000 0.000000 
#    y 0.000000 1.740510 0.000000 
#    z 0.000000 0.000000 1.761130 
# 
# From -- ./inp_files/12053.got.cif
#   From: 2010.03.12/outbox.cif.g09.slc.cpg/sg63_7_cif.got.tgz:12053.got - 2010.04.10 19:34:48.
