data_PCOD8258909
_publ_section_title
;
Structure prediction by ZEFSAII (Michael W. Deem and Ramdas Pophale) SiO2 
 PCOD8258909
Probable space group: C M C M
;
_chemical_formula_sum "Si O2"
_cell_formula_units_Z 104
_cell_length_a 19.911579
_cell_length_b 32.062461
_cell_length_c 8.852894
_cell_angle_alpha 90.000000
_cell_angle_beta 90.000000
_cell_angle_gamma 90.000000
_cell_volume 5651.813463
_symmetry_space_group_name_H-M "C M C M"
_symmetry_group_IT_number 63
_symmetry_cell_setting 'orthorhombic'
loop_
_space_group_symop_operation_xyz
x,y,z
-x,-y,1/2+z
x,-y,-z
-x,y,1/2-z
-x,-y,-z
x,y,1/2-z
-x,y,z
x,-y,1/2+z
1/2+x,1/2+y,z
1/2-x,1/2-y,1/2+z
1/2+x,1/2-y,-z
1/2-x,1/2+y,1/2-z
1/2-x,1/2-y,-z
1/2+x,1/2+y,1/2-z
1/2-x,1/2+y,z
1/2+x,1/2-y,1/2+z
loop_
_atom_site_type_symbol
_atom_site_label
_atom_site_fract_x
_atom_site_fract_y
_atom_site_fract_z
Si Si1 0.577309 0.821007 0.924314
Si Si2 0.805884 0.633142 0.929360
Si Si3 0.124425 0.920838 0.421690
Si Si4 0.677272 0.660136 0.072646
Si Si5 0.000000 0.043773 0.076631
Si Si6 0.076172 0.765591 0.576564
Si Si7 0.764302 0.457724 0.421667
O O1 0.597331 0.826429 0.750000
O O2 0.500000 0.832506 0.953029
O O3 0.619625 0.852559 0.027597
O O4 0.591548 0.773513 0.970894
O O5 0.793035 0.636226 0.750000
O O6 0.797019 0.585092 0.986117
O O7 0.754663 0.664432 0.018140
O O8 0.098038 0.920488 0.250000
O O9 0.149379 0.875599 0.465604
O O10 0.183849 0.954495 0.440063
O O11 0.065305 0.930597 0.535216
O O12 0.673816 0.648840 0.250000
O O13 0.632390 0.700390 0.036483
O O14 0.000000 0.034488 0.250000
O O15 0.000000 0.000000 0.000000
O O16 0.083378 0.751394 0.750000
O O17 0.000000 0.782711 0.547626
O O18 0.790536 0.500000 0.500000
O O19 0.786325 0.462304 0.250000
#
# Coordination Sequence:
#
# PCOD8258909 Si02
#       7
#    16  16  16  16   8  16  16
#     4  10  21  37  58  84 109 136 176 222 269 325
#     4  10  21  37  56  80 111 144 179 219 267 327
#     4  10  21  36  51  73 104 140 181 226 276 328
#     4  10  20  34  54  80 109 143 184 229 273 317
#     4  12  24  36  50  70  98 136 184 234 284 334
#     4   9  19  35  54  77 108 146 185 224 269 324
#     4   9  19  34  54  78 104 134 172 214 261 317
#
# _framework density 18.401174000000001
#
# number of rings (size 3 to 8) (size 9 to 14) (size 15 to 20)
#    0.000    2.154    0.000    3.923    1.077    7.692 
#    0.000    0.000    0.000    0.462    0.000    0.000 
#    0.000    0.000    0.000    0.000    0.000    0.000 
#
# Total GULP energy -644724.817229 kJ/mol
# GULP energy per Si atom -12398.554177 kJ/mol
# Density = 1.835929 g / cm^3
# Si number density = 18.401174 Si / 1000 Ang^3
#
#
#
# Elastic Constant Matrix: (Units=GPa)
#
#
# Indices 1 2 3 4 5 6 
#
# 1 86.9838 51.0357 34.9494 0.0000 0.0000 0.0000
# 2 51.0357 86.3942 36.4514 0.0000 0.0000 0.0000
# 3 34.9494 36.4514 83.9608 0.0000 0.0000 0.0000
# 4 0.0000 0.0000 0.0000 32.8851 0.0000 0.0000
# 5 0.0000 0.0000 0.0000 0.0000 30.3470 0.0000
# 6 0.0000 0.0000 0.0000 0.0000 0.0000 18.0744
#
#
#
# Elastic Compliance Matrix: (Units=1/GPa)
#
#
# Indices 1 2 3 4 5 6 
#
# 1 0.018446 -0.009374 -0.003609 0.000000 0.000000 0.000000
# 2 -0.009374 0.018934 -0.004318 0.000000 0.000000 0.000000
# 3 -0.003609 -0.004318 0.015287 0.000000 0.000000 0.000000
# 4 0.000000 0.000000 0.000000 0.030409 0.000000 0.000000
# 5 0.000000 0.000000 0.000000 0.000000 0.032952 0.000000
# 6 0.000000 0.000000 0.000000 0.000000 0.000000 0.055327
#
#
# Mechanical properties :
#
#
# Convention : Reuss Voigt Hill
#
# Bulk Modulus (GPa) = 55.35336 55.80131 55.57734
# Shear Modulus (GPa) = 23.58707 25.25480 24.42093
#
# Velocity S-wave (km/s) = 3.58414 3.70869 3.64695
# Velocity P-wave (km/s) = 6.87567 6.98068 6.92837
#
# Compressibility (1/GPa) = 0.01806575
#
# Stress axis : x y z
#
# Youngs Moduli (GPa) = 54.21083 52.81365 65.41427
#
# Poissons Ratio (x) = 0.49509 0.23606
# Poissons Ratio (y) = 0.50819 0.28247
# Poissons Ratio (z) = 0.19563 0.22806
#
# Static dielectric constant tensor:
#      x y z
#    x 3.442960 0.000000 0.000000 
#    y 0.000000 3.433580 0.000000 
#    z 0.000000 0.000000 3.364310 
# 
# 
# High freq. dielectric constant tensor:
#      x y z
#    x 1.704610 0.000000 0.000000 
#    y 0.000000 1.704840 0.000000 
#    z 0.000000 0.000000 1.722730 
# 
# From -- ./inp_files/9109.got.cif
#   From: 2010.03.12/outbox.cif.g09.slc.cpg/sg63_5_cif.got.tgz:9109.got - 2010.04.10 19:34:48.
