data_PCOD8258380
_publ_section_title
;
Structure prediction by ZEFSAII (Michael W. Deem and Ramdas Pophale) SiO2 
 PCOD8258380
Probable space group: C M C M
;
_chemical_formula_sum "Si O2"
_cell_formula_units_Z 112
_cell_length_a 13.447420
_cell_length_b 31.399760
_cell_length_c 13.938646
_cell_angle_alpha 90.000000
_cell_angle_beta 90.000000
_cell_angle_gamma 90.000000
_cell_volume 5885.534182
_symmetry_space_group_name_H-M "C M C M"
_symmetry_group_IT_number 63
_symmetry_cell_setting 'orthorhombic'
loop_
_space_group_symop_operation_xyz
x,y,z
-x,-y,1/2+z
x,-y,-z
-x,y,1/2-z
-x,-y,-z
x,y,1/2-z
-x,y,z
x,-y,1/2+z
1/2+x,1/2+y,z
1/2-x,1/2-y,1/2+z
1/2+x,1/2-y,-z
1/2-x,1/2+y,1/2-z
1/2-x,1/2-y,-z
1/2+x,1/2+y,1/2-z
1/2-x,1/2+y,z
1/2+x,1/2-y,1/2+z
loop_
_atom_site_type_symbol
_atom_site_label
_atom_site_fract_x
_atom_site_fract_y
_atom_site_fract_z
Si Si1 0.678882 0.432343 0.142142
Si Si2 0.789059 0.708667 0.135537
Si Si3 0.612581 0.658547 0.853988
Si Si4 0.116013 0.774347 0.000033
Si Si5 0.888008 0.620477 0.141307
Si Si6 0.699588 0.047416 0.477773
Si Si7 0.610464 0.475701 0.860834
O O1 0.717795 0.433336 0.250000
O O2 0.613133 0.391111 0.119818
O O3 0.612878 0.473738 0.118806
O O4 0.779335 0.431008 0.079993
O O5 0.800004 0.719335 0.250000
O O6 0.868122 0.733320 0.068105
O O7 0.810628 0.658484 0.117840
O O8 0.679457 0.723424 0.098725
O O9 0.665101 0.666549 0.750000
O O10 0.500000 0.674281 0.846140
O O11 0.661019 0.686155 0.938191
O O12 0.000000 0.777991 0.971883
O O13 0.872228 0.605425 0.250000
O O14 0.875577 0.577831 0.078003
O O15 0.000000 0.637637 0.125241
O O16 0.805194 0.047179 0.422275
O O17 0.656276 0.000000 0.500000
O O18 0.632007 0.465550 0.750000
O O19 0.500000 0.459401 0.889481
#
# Coordination Sequence:
#
# PCOD8258380 Si02
#       7
#    16  16  16  16  16  16  16
#     4   9  17  28  43  66  98 134 167 201 248 309
#     4  10  21  37  57  82 112 146 184 223 264 319
#     4   9  16  26  43  68  97 129 167 210 254 305
#     4  10  20  34  55  83 112 142 178 221 268 315
#     4  10  21  38  59  79 101 134 178 226 274 325
#     4  10  20  32  50  73  99 131 173 224 272 318
#     4   9  17  29  45  67  98 134 169 206 254 316
#
# _framework density 19.029709
#
# number of rings (size 3 to 8) (size 9 to 14) (size 15 to 20)
#    0.000    2.429    0.000    2.571    0.000    7.429 
#    0.000    0.714    0.000    1.286    0.000    0.000 
#    0.000    0.000    0.000    0.000    0.000    0.000 
#
# Total GULP energy -693887.017935 kJ/mol
# GULP energy per Si atom -12390.839606 kJ/mol
# Density = 1.898640 g / cm^3
# Si number density = 19.029709 Si / 1000 Ang^3
#
#
#
# Elastic Constant Matrix: (Units=GPa)
#
#
# Indices 1 2 3 4 5 6 
#
# 1 68.8660 24.6561 29.9742 0.0000 0.0000 0.0000
# 2 24.6561 73.1820 32.0435 0.0000 0.0000 0.0000
# 3 29.9742 32.0435 77.2340 0.0000 0.0000 0.0000
# 4 0.0000 0.0000 0.0000 30.4883 0.0000 0.0000
# 5 0.0000 0.0000 0.0000 0.0000 22.4955 0.0000
# 6 0.0000 0.0000 0.0000 0.0000 0.0000 21.2040
#
#
#
# Elastic Compliance Matrix: (Units=1/GPa)
#
#
# Indices 1 2 3 4 5 6 
#
# 1 0.018268 -0.003728 -0.005543 0.000000 0.000000 0.000000
# 2 -0.003728 0.017459 -0.005797 0.000000 0.000000 0.000000
# 3 -0.005543 -0.005797 0.017504 0.000000 0.000000 0.000000
# 4 0.000000 0.000000 0.000000 0.032799 0.000000 0.000000
# 5 0.000000 0.000000 0.000000 0.000000 0.044453 0.000000
# 6 0.000000 0.000000 0.000000 0.000000 0.000000 0.047161
#
#
# Mechanical properties :
#
#
# Convention : Reuss Voigt Hill
#
# Bulk Modulus (GPa) = 43.29828 43.62550 43.46189
# Shear Modulus (GPa) = 23.20418 23.67811 23.44114
#
# Velocity S-wave (km/s) = 3.49573 3.53125 3.51353
# Velocity P-wave (km/s) = 6.25267 6.29293 6.27283
#
# Compressibility (1/GPa) = 0.02309560
#
# Stress axis : x y z
#
# Youngs Moduli (GPa) = 54.73958 57.27830 57.12984
#
# Poissons Ratio (x) = 0.21351 0.31669
# Poissons Ratio (y) = 0.20405 0.33116
# Poissons Ratio (z) = 0.30344 0.33202
#
# Static dielectric constant tensor:
#      x y z
#    x 3.146140 0.000000 0.000000 
#    y 0.000000 3.437520 0.000000 
#    z 0.000000 0.000000 3.751900 
# 
# 
# High freq. dielectric constant tensor:
#      x y z
#    x 1.703490 0.000000 0.000000 
#    y 0.000000 1.736370 0.000000 
#    z 0.000000 0.000000 1.749540 
# 
# From -- ./inp_files/32529.got.cif
#   From: 2010.03.12/outbox.cif.g09.slc.cpg/sg63_17_cif.got.tgz:32529.got - 2010.04.10 19:34:48.
