data_PCOD8258520
_publ_section_title
;
Structure prediction by ZEFSAII (Michael W. Deem and Ramdas Pophale) SiO2 
 PCOD8258520
Probable space group: C M C M
;
_chemical_formula_sum "Si O2"
_cell_formula_units_Z 80
_cell_length_a 8.653920
_cell_length_b 25.947483
_cell_length_c 18.487403
_cell_angle_alpha 90.000000
_cell_angle_beta 90.000000
_cell_angle_gamma 90.000000
_cell_volume 4151.299054
_symmetry_space_group_name_H-M "C M C M"
_symmetry_group_IT_number 63
_symmetry_cell_setting 'orthorhombic'
loop_
_space_group_symop_operation_xyz
x,y,z
-x,-y,1/2+z
x,-y,-z
-x,y,1/2-z
-x,-y,-z
x,y,1/2-z
-x,y,z
x,-y,1/2+z
1/2+x,1/2+y,z
1/2-x,1/2-y,1/2+z
1/2+x,1/2-y,-z
1/2-x,1/2+y,1/2-z
1/2-x,1/2-y,-z
1/2+x,1/2+y,1/2-z
1/2-x,1/2+y,z
1/2+x,1/2-y,1/2+z
loop_
_atom_site_type_symbol
_atom_site_label
_atom_site_fract_x
_atom_site_fract_y
_atom_site_fract_z
Si Si1 0.815692 0.654304 0.168685
Si Si2 0.682941 0.846181 0.332939
Si Si3 0.183947 0.558443 0.079361
Si Si4 0.683285 0.944742 0.082782
Si Si5 0.682580 0.747711 0.920449
O O1 0.750302 0.657462 0.250000
O O2 0.748381 0.602491 0.131683
O O3 0.754172 0.703513 0.124590
O O4 0.000000 0.653465 0.169220
O O5 0.733799 0.840034 0.250000
O O6 0.500000 0.840556 0.342489
O O7 0.742004 0.902002 0.360646
O O8 0.765998 0.803688 0.380531
O O9 0.241721 0.501892 0.105837
O O10 0.000000 0.560616 0.080740
O O11 0.243644 0.568800 0.997771
O O12 0.500000 0.945345 0.081351
O O13 0.500000 0.749296 0.925868
O O14 0.750000 0.750000 0.000000
#
# Coordination Sequence:
#
# PCOD8258520 Si02
#       5
#    16  16  16  16  16
#     4   9  17  28  44  69  99 127 157 199 250 298
#     4  10  20  33  50  75 107 138 167 202 247 301
#     4   8  13  23  41  65  96 131 164 201 246 292
#     4   8  14  25  42  67  99 133 166 201 242 288
#     4  11  22  36  54  74  98 130 170 213 256 304
#
# _framework density 19.271076999999998
#
# number of rings (size 3 to 8) (size 9 to 14) (size 15 to 20)
#    0.000    2.800    0.000    3.600    0.000    5.200 
#    0.000    4.000    0.000    0.000    0.000   12.600 
#    0.000    0.000    0.000    0.000    0.000    0.000 
#
# Total GULP energy -495839.931886 kJ/mol
# GULP energy per Si atom -12395.998297 kJ/mol
# Density = 1.922722 g / cm^3
# Si number density = 19.271077 Si / 1000 Ang^3
#
#
#
# Elastic Constant Matrix: (Units=GPa)
#
#
# Indices 1 2 3 4 5 6 
#
# 1 19.9530 21.3086 23.2692 0.0000 0.0000 0.0000
# 2 21.3086 166.3641 93.2037 0.0000 0.0000 0.0000
# 3 23.2692 93.2037 160.6419 0.0000 0.0000 0.0000
# 4 0.0000 0.0000 0.0000 33.2525 0.0000 0.0000
# 5 0.0000 0.0000 0.0000 0.0000 18.4693 0.0000
# 6 0.0000 0.0000 0.0000 0.0000 0.0000 20.1463
#
#
#
# Elastic Compliance Matrix: (Units=1/GPa)
#
#
# Indices 1 2 3 4 5 6 
#
# 1 0.062346 -0.004335 -0.006516 0.000000 0.000000 0.000000
# 2 -0.004335 0.009207 -0.004714 0.000000 0.000000 0.000000
# 3 -0.006516 -0.004714 0.009904 0.000000 0.000000 0.000000
# 4 0.000000 0.000000 0.000000 0.030073 0.000000 0.000000
# 5 0.000000 0.000000 0.000000 0.000000 0.054144 0.000000
# 6 0.000000 0.000000 0.000000 0.000000 0.000000 0.049637
#
#
# Mechanical properties :
#
#
# Convention : Reuss Voigt Hill
#
# Bulk Modulus (GPa) = 19.86985 69.16911 44.51948
# Shear Modulus (GPa) = 18.99577 28.31879 23.65728
#
# Velocity S-wave (km/s) = 3.14301 3.83756 3.50752
# Velocity P-wave (km/s) = 4.84814 7.45697 6.28931
#
# Compressibility (1/GPa) = 0.05032751
#
# Stress axis : x y z
#
# Youngs Moduli (GPa) = 16.03944 108.61128 100.97076
#
# Poissons Ratio (x) = 0.47086 0.65789
# Poissons Ratio (y) = 0.06954 0.47597
# Poissons Ratio (z) = 0.10451 0.51199
#
# Static dielectric constant tensor:
#      x y z
#    x 2.910900 0.000000 0.000000 
#    y 0.000000 3.970530 0.000000 
#    z 0.000000 0.000000 3.670830 
# 
# 
# High freq. dielectric constant tensor:
#      x y z
#    x 1.682500 0.000000 0.000000 
#    y 0.000000 1.771130 0.000000 
#    z 0.000000 0.000000 1.756690 
# 
# From -- ./inp_files/40729.got.cif
#   From: 2010.03.12/outbox.cif.g09.slc.cpg/sg63_21_cif.got.tgz:40729.got - 2010.04.10 19:34:48.
