data_PCOD8258965
_publ_section_title
;
Structure prediction by ZEFSAII (Michael W. Deem and Ramdas Pophale) SiO2 
 PCOD8258965
Probable space group: C M C M
;
_chemical_formula_sum "Si O2"
_cell_formula_units_Z 80
_cell_length_a 24.829584
_cell_length_b 9.653162
_cell_length_c 17.596259
_cell_angle_alpha 90.000000
_cell_angle_beta 90.000000
_cell_angle_gamma 90.000000
_cell_volume 4217.541685
_symmetry_space_group_name_H-M "C M C M"
_symmetry_group_IT_number 63
_symmetry_cell_setting 'orthorhombic'
loop_
_space_group_symop_operation_xyz
x,y,z
-x,-y,1/2+z
x,-y,-z
-x,y,1/2-z
-x,-y,-z
x,y,1/2-z
-x,y,z
x,-y,1/2+z
1/2+x,1/2+y,z
1/2-x,1/2-y,1/2+z
1/2+x,1/2-y,-z
1/2-x,1/2+y,1/2-z
1/2-x,1/2-y,-z
1/2+x,1/2+y,1/2-z
1/2-x,1/2+y,z
1/2+x,1/2-y,1/2+z
loop_
_atom_site_type_symbol
_atom_site_label
_atom_site_fract_x
_atom_site_fract_y
_atom_site_fract_z
Si Si1 0.288166 0.803390 0.337102
Si Si2 0.911858 0.013805 0.087466
Si Si3 0.910723 0.305297 0.162053
Si Si4 0.500000 0.673423 0.660170
Si Si5 0.500000 0.015623 0.339913
Si Si6 0.712798 0.518410 0.087018
O O1 0.279152 0.758852 0.250000
O O2 0.349372 0.852746 0.350247
O O3 0.275155 0.675833 0.391587
O O4 0.248481 0.926285 0.357763
O O5 0.925352 0.168634 0.114538
O O6 0.849290 0.978270 0.100839
O O7 0.946104 0.903471 0.134169
O O8 0.928109 0.000000 0.000000
O O9 0.922743 0.270638 0.250000
O O10 0.947248 0.431895 0.132377
O O11 0.500000 0.678708 0.750000
O O12 0.500000 0.829549 0.625504
O O13 0.500000 0.027245 0.250000
O O14 0.730119 0.500000 0.000000
#
# Coordination Sequence:
#
# PCOD8258965 Si02
#       6
#    16  16  16   8   8  16
#     4  10  20  34  55  82 108 139 183 229 272 325
#     4  10  21  37  56  79 107 141 182 223 264 321
#     4   9  18  35  56  76 104 144 180 213 267 333
#     4  11  22  35  55  82 107 135 176 227 274 314
#     4   9  19  35  54  78 106 135 172 217 266 318
#     4  10  21  37  56  79 110 147 183 223 276 332
#
# _framework density 18.968397
#
# number of rings (size 3 to 8) (size 9 to 14) (size 15 to 20)
#    0.000    2.200    0.000    2.700    0.000    4.800 
#    0.000    4.000    0.000    0.000    0.000    0.000 
#    0.000    0.000    0.000    0.000    0.000    0.000 
#
# Total GULP energy -496128.768602 kJ/mol
# GULP energy per Si atom -12403.219215 kJ/mol
# Density = 1.892522 g / cm^3
# Si number density = 18.968397 Si / 1000 Ang^3
#
#
#
# Elastic Constant Matrix: (Units=GPa)
#
#
# Indices 1 2 3 4 5 6 
#
# 1 95.8627 64.9711 32.3241 0.0000 0.0000 0.0000
# 2 64.9711 113.2779 31.7268 0.0000 0.0000 0.0000
# 3 32.3241 31.7268 65.5572 0.0000 0.0000 0.0000
# 4 0.0000 0.0000 0.0000 23.8983 0.0000 0.0000
# 5 0.0000 0.0000 0.0000 0.0000 21.3855 0.0000
# 6 0.0000 0.0000 0.0000 0.0000 0.0000 45.0982
#
#
#
# Elastic Compliance Matrix: (Units=1/GPa)
#
#
# Indices 1 2 3 4 5 6 
#
# 1 0.018157 -0.009146 -0.004526 0.000000 0.000000 0.000000
# 2 -0.009146 0.014819 -0.002662 0.000000 0.000000 0.000000
# 3 -0.004526 -0.002662 0.018774 0.000000 0.000000 0.000000
# 4 0.000000 0.000000 0.000000 0.041844 0.000000 0.000000
# 5 0.000000 0.000000 0.000000 0.000000 0.046761 0.000000
# 6 0.000000 0.000000 0.000000 0.000000 0.000000 0.022174
#
#
# Mechanical properties :
#
#
# Convention : Reuss Voigt Hill
#
# Bulk Modulus (GPa) = 52.40845 59.19354 55.80099
# Shear Modulus (GPa) = 24.80684 27.78813 26.29748
#
# Velocity S-wave (km/s) = 3.62027 3.83164 3.72746
# Velocity P-wave (km/s) = 6.72045 7.13088 6.92871
#
# Compressibility (1/GPa) = 0.01908089
#
# Stress axis : x y z
#
# Youngs Moduli (GPa) = 55.07655 67.47966 53.26539
#
# Poissons Ratio (x) = 0.61718 0.24108
# Poissons Ratio (y) = 0.50374 0.14180
# Poissons Ratio (z) = 0.24928 0.17965
#
# Static dielectric constant tensor:
#      x y z
#    x 3.558410 0.000000 0.000000 
#    y 0.000000 3.491810 0.000000 
#    z 0.000000 0.000000 3.448030 
# 
# 
# High freq. dielectric constant tensor:
#      x y z
#    x 1.746410 0.000000 0.000000 
#    y 0.000000 1.735700 0.000000 
#    z 0.000000 0.000000 1.734000 
# 
# From -- ./inp_files/48834.got.cif
#   From: 2010.03.12/outbox.cif.g09.slc.cpg/sg63_25_cif.got.tgz:48834.got - 2010.04.10 19:34:48.
