data_PCOD8258151
_publ_section_title
;
Structure prediction by ZEFSAII (Michael W. Deem and Ramdas Pophale) SiO2 
 PCOD8258151
Probable space group: C M C M
;
_chemical_formula_sum "Si O2"
_cell_formula_units_Z 52
_cell_length_a 30.745859
_cell_length_b 16.801374
_cell_length_c 5.164645
_cell_angle_alpha 90.000000
_cell_angle_beta 90.000000
_cell_angle_gamma 90.000000
_cell_volume 2667.914488
_symmetry_space_group_name_H-M "C M C M"
_symmetry_group_IT_number 63
_symmetry_cell_setting 'orthorhombic'
loop_
_space_group_symop_operation_xyz
x,y,z
-x,-y,1/2+z
x,-y,-z
-x,y,1/2-z
-x,-y,-z
x,y,1/2-z
-x,y,z
x,-y,1/2+z
1/2+x,1/2+y,z
1/2-x,1/2-y,1/2+z
1/2+x,1/2-y,-z
1/2-x,1/2+y,1/2-z
1/2-x,1/2-y,-z
1/2+x,1/2+y,1/2-z
1/2-x,1/2+y,z
1/2+x,1/2-y,1/2+z
loop_
_atom_site_type_symbol
_atom_site_label
_atom_site_fract_x
_atom_site_fract_y
_atom_site_fract_z
Si Si1 0.780102 0.165017 0.750000
Si Si2 0.092572 0.279354 0.250000
Si Si3 0.307039 0.239444 0.750000
Si Si4 0.000000 0.055691 0.750000
Si Si5 0.948655 0.451623 0.250000
Si Si6 0.349144 0.549838 0.750000
Si Si7 0.920733 0.822951 0.250000
O O1 0.727453 0.165884 0.750000
O O2 0.799122 0.207322 0.498971
O O3 0.797944 0.074072 0.750000
O O4 0.144311 0.293106 0.250000
O O5 0.072329 0.365703 0.250000
O O6 0.075495 0.232092 0.498877
O O7 0.042134 0.110906 0.750000
O O8 0.000000 0.000000 0.500000
O O9 0.932708 0.500000 0.500000
O O10 0.000000 0.440019 0.250000
O O11 0.362212 0.500000 0.500000
O O12 0.374683 0.632765 0.750000
#
# Coordination Sequence:
#
# PCOD8258151 Si02
#       7
#     8   8   8   4   8   8   8
#     4  10  20  36  57  85 115 157 200 241 298 351
#     4  12  22  40  66  95 120 157 206 260 291 370
#     4  10  19  37  60  84 117 149 197 253 294 350
#     4  12  26  46  60  86 132 172 204 262 320 354
#     4  10  23  42  63  90 122 155 188 239 316 371
#     4  12  22  37  57  85 125 163 205 251 293 351
#     4  12  25  39  63  92 121 164 216 247 302 362
#
# _framework density 19.490880000000001
#
# number of rings (size 3 to 8) (size 9 to 14) (size 15 to 20)
#    0.000    0.923    3.077    4.615    2.154    0.000 
#    0.000    1.538    0.000    0.000    0.000    0.000 
#    0.000    0.000    0.000    0.000    0.000    0.000 
#
# Total GULP energy -322452.166419 kJ/mol
# GULP energy per Si atom -12402.006401 kJ/mol
# Density = 1.944652 g / cm^3
# Si number density = 19.490880 Si / 1000 Ang^3
#
#
#
# Elastic Constant Matrix: (Units=GPa)
#
#
# Indices 1 2 3 4 5 6 
#
# 1 82.4227 56.6858 42.0640 0.0000 0.0000 0.0000
# 2 56.6858 147.6644 83.2616 0.0000 0.0000 0.0000
# 3 42.0640 83.2616 198.2455 0.0000 0.0000 0.0000
# 4 0.0000 0.0000 0.0000 39.1823 0.0000 0.0000
# 5 0.0000 0.0000 0.0000 0.0000 19.6999 0.0000
# 6 0.0000 0.0000 0.0000 0.0000 0.0000 38.5167
#
#
#
# Elastic Compliance Matrix: (Units=1/GPa)
#
#
# Indices 1 2 3 4 5 6 
#
# 1 0.016670 -0.005772 -0.001113 0.000000 0.000000 0.000000
# 2 -0.005772 0.010872 -0.003341 0.000000 0.000000 0.000000
# 3 -0.001113 -0.003341 0.006684 0.000000 0.000000 0.000000
# 4 0.000000 0.000000 0.000000 0.025522 0.000000 0.000000
# 5 0.000000 0.000000 0.000000 0.000000 0.050762 0.000000
# 6 0.000000 0.000000 0.000000 0.000000 0.000000 0.025963
#
#
# Mechanical properties :
#
#
# Convention : Reuss Voigt Hill
#
# Bulk Modulus (GPa) = 72.60400 88.03949 80.32174
# Shear Modulus (GPa) = 30.95679 35.90120 33.42899
#
# Velocity S-wave (km/s) = 3.98963 4.29645 4.14588
# Velocity P-wave (km/s) = 7.65206 8.35944 8.01356
#
# Compressibility (1/GPa) = 0.01377335
#
# Stress axis : x y z
#
# Youngs Moduli (GPa) = 59.98762 91.98018 149.61574
#
# Poissons Ratio (x) = 0.53089 0.16652
# Poissons Ratio (y) = 0.34624 0.49993
# Poissons Ratio (z) = 0.06676 0.30735
#
# Static dielectric constant tensor:
#      x y z
#    x 3.816870 0.000000 0.000000 
#    y 0.000000 3.472740 0.000000 
#    z 0.000000 0.000000 3.844240 
# 
# 
# High freq. dielectric constant tensor:
#      x y z
#    x 1.763560 0.000000 0.000000 
#    y 0.000000 1.749670 0.000000 
#    z 0.000000 0.000000 1.787550 
# 
# From -- ./inp_files/1330.got.cif
#   From: 2010.03.12/outbox.cif.g09.slc.cpg/sg63_1_cif.got.tgz:1330.got - 2010.04.10 19:34:48.
