data_PCOD8258622
_publ_section_title
;
Structure prediction by ZEFSAII (Michael W. Deem and Ramdas Pophale) SiO2 
 PCOD8258622
Probable space group: C M C M
;
_chemical_formula_sum "Si O2"
_cell_formula_units_Z 88
_cell_length_a 17.810090
_cell_length_b 28.515814
_cell_length_c 9.377670
_cell_angle_alpha 90.000000
_cell_angle_beta 90.000000
_cell_angle_gamma 90.000000
_cell_volume 4762.629890
_symmetry_space_group_name_H-M "C M C M"
_symmetry_group_IT_number 63
_symmetry_cell_setting 'orthorhombic'
loop_
_space_group_symop_operation_xyz
x,y,z
-x,-y,1/2+z
x,-y,-z
-x,y,1/2-z
-x,-y,-z
x,y,1/2-z
-x,y,z
x,-y,1/2+z
1/2+x,1/2+y,z
1/2-x,1/2-y,1/2+z
1/2+x,1/2-y,-z
1/2-x,1/2+y,1/2-z
1/2-x,1/2-y,-z
1/2+x,1/2+y,1/2-z
1/2-x,1/2+y,z
1/2+x,1/2-y,1/2+z
loop_
_atom_site_type_symbol
_atom_site_label
_atom_site_fract_x
_atom_site_fract_y
_atom_site_fract_z
Si Si1 0.913565 0.047115 0.915777
Si Si2 0.636892 0.885384 0.586276
Si Si3 0.500000 0.048881 0.081391
Si Si4 0.691750 0.720582 0.088080
Si Si5 0.083740 0.300603 0.086708
Si Si6 0.806670 0.886011 0.585143
O O1 0.894128 0.039489 0.750000
O O2 0.000000 0.062092 0.936322
O O3 0.861397 0.086848 0.980606
O O4 0.895387 0.000000 0.000000
O O5 0.620944 0.873219 0.750000
O O6 0.574633 0.922688 0.533023
O O7 0.633801 0.836770 0.501653
O O8 0.721340 0.905058 0.565678
O O9 0.500000 0.039205 0.250000
O O10 0.500000 0.000000 0.000000
O O11 0.720640 0.719656 0.250000
O O12 0.612388 0.747218 0.072528
O O13 0.685363 0.667619 0.033312
O O14 0.750000 0.750000 0.000000
O O15 0.086405 0.317163 0.250000
O O16 0.000000 0.301803 0.024888
O O17 0.832012 0.891798 0.750000
#
# Coordination Sequence:
#
# PCOD8258622 Si02
#       6
#    16  16   8  16  16  16
#     4  10  22  41  64  88 115 149 189 235 290 351
#     4  10  20  36  57  81 109 147 192 235 284 339
#     4  10  22  38  56  78 110 146 188 240 287 336
#     4  10  20  34  54  81 114 151 189 231 278 330
#     4  10  20  33  52  80 111 147 192 233 274 330
#     4  10  21  36  58  88 119 152 191 237 288 343
#
# _framework density 18.477187000000001
#
# number of rings (size 3 to 8) (size 9 to 14) (size 15 to 20)
#    0.000    2.000    2.727    0.545    0.000    4.727 
#    0.000    3.636    0.000    0.000    0.000    0.000 
#    0.000    0.000    0.000    0.000    0.000    0.000 
#
# Total GULP energy -545618.337038 kJ/mol
# GULP energy per Si atom -12400.416751 kJ/mol
# Density = 1.843513 g / cm^3
# Si number density = 18.477187 Si / 1000 Ang^3
#
#
#
# Elastic Constant Matrix: (Units=GPa)
#
#
# Indices 1 2 3 4 5 6 
#
# 1 96.3756 64.7067 53.6897 0.0000 0.0000 0.0000
# 2 64.7067 133.6018 64.0677 0.0000 0.0000 0.0000
# 3 53.6897 64.0677 84.1670 0.0000 0.0000 0.0000
# 4 0.0000 0.0000 0.0000 34.8016 0.0000 0.0000
# 5 0.0000 0.0000 0.0000 0.0000 29.0806 0.0000
# 6 0.0000 0.0000 0.0000 0.0000 0.0000 31.7091
#
#
#
# Elastic Compliance Matrix: (Units=1/GPa)
#
#
# Indices 1 2 3 4 5 6 
#
# 1 0.018041 -0.005070 -0.007649 0.000000 0.000000 0.000000
# 2 -0.005070 0.013212 -0.006823 0.000000 0.000000 0.000000
# 3 -0.007649 -0.006823 0.021955 0.000000 0.000000 0.000000
# 4 0.000000 0.000000 0.000000 0.028734 0.000000 0.000000
# 5 0.000000 0.000000 0.000000 0.000000 0.034387 0.000000
# 6 0.000000 0.000000 0.000000 0.000000 0.000000 0.031537
#
#
# Mechanical properties :
#
#
# Convention : Reuss Voigt Hill
#
# Bulk Modulus (GPa) = 70.80445 75.45253 73.12849
# Shear Modulus (GPa) = 26.08800 27.89692 26.99246
#
# Velocity S-wave (km/s) = 3.76161 3.88983 3.82626
# Velocity P-wave (km/s) = 7.56765 7.81656 7.69311
#
# Compressibility (1/GPa) = 0.01412341
#
# Stress axis : x y z
#
# Youngs Moduli (GPa) = 55.42864 75.68680 45.54852
#
# Poissons Ratio (x) = 0.38370 0.34842
# Poissons Ratio (y) = 0.28100 0.31079
# Poissons Ratio (z) = 0.42400 0.51644
#
# Static dielectric constant tensor:
#      x y z
#    x 3.617210 0.000000 0.000000 
#    y 0.000000 3.467650 0.000000 
#    z 0.000000 0.000000 3.334820 
# 
# 
# High freq. dielectric constant tensor:
#      x y z
#    x 1.723940 0.000000 0.000000 
#    y 0.000000 1.712190 0.000000 
#    z 0.000000 0.000000 1.715100 
# 
# From -- ./inp_files/6851.got.cif
#   From: 2010.03.12/outbox.cif.g09.slc.cpg/sg63_4_cif.got.tgz:6851.got - 2010.04.10 19:34:48.
