data_PCOD8258126
_publ_section_title
;
Structure prediction by ZEFSAII (Michael W. Deem and Ramdas Pophale) SiO2 
 PCOD8258126
Probable space group: C M C M
;
_chemical_formula_sum "Si O2"
_cell_formula_units_Z 72
_cell_length_a 22.648353
_cell_length_b 19.038431
_cell_length_c 9.037457
_cell_angle_alpha 90.000000
_cell_angle_beta 90.000000
_cell_angle_gamma 90.000000
_cell_volume 3896.853003
_symmetry_space_group_name_H-M "C M C M"
_symmetry_group_IT_number 63
_symmetry_cell_setting 'orthorhombic'
loop_
_space_group_symop_operation_xyz
x,y,z
-x,-y,1/2+z
x,-y,-z
-x,y,1/2-z
-x,-y,-z
x,y,1/2-z
-x,y,z
x,-y,1/2+z
1/2+x,1/2+y,z
1/2-x,1/2-y,1/2+z
1/2+x,1/2-y,-z
1/2-x,1/2+y,1/2-z
1/2-x,1/2-y,-z
1/2+x,1/2+y,1/2-z
1/2-x,1/2+y,z
1/2+x,1/2-y,1/2+z
loop_
_atom_site_type_symbol
_atom_site_label
_atom_site_fract_x
_atom_site_fract_y
_atom_site_fract_z
Si Si1 0.000000 0.925449 0.076445
Si Si2 0.892663 0.826704 0.074826
Si Si3 0.728322 0.320640 0.923581
Si Si4 0.565684 0.825532 0.573965
Si Si5 0.332782 0.926141 0.577421
O O1 0.942087 0.882647 0.027985
O O2 0.000000 0.937400 0.250000
O O3 0.000000 0.000000 0.000000
O O4 0.881324 0.826609 0.250000
O O5 0.913186 0.750425 0.017969
O O6 0.833013 0.847448 0.991114
O O7 0.722039 0.306241 0.750000
O O8 0.774833 0.381515 0.957452
O O9 0.750000 0.250000 0.000000
O O10 0.565704 0.824323 0.750000
O O11 0.500000 0.841497 0.512995
O O12 0.610104 0.884878 0.513726
O O13 0.340668 0.939346 0.750000
O O14 0.326731 0.000000 0.500000
#
# Coordination Sequence:
#
# PCOD8258126 Si02
#       5
#     8  16  16  16  16
#     4  10  22  38  60  86 119 158 192 239 296 349
#     4  10  19  36  61  86 111 149 196 236 283 341
#     4  11  22  37  59  86 115 150 192 239 287 340
#     4   9  16  32  59  84 108 144 190 231 272 334
#     4  10  22  38  56  82 115 149 185 231 284 335
#
# _framework density 18.476448000000001
#
# number of rings (size 3 to 8) (size 9 to 14) (size 15 to 20)
#    0.000    2.000    3.333    0.667    0.000    4.000 
#    0.000    4.444    0.000    1.333    0.000    0.000 
#    0.000    0.000    0.000    0.000    0.000    0.000 
#
# Total GULP energy -446458.247221 kJ/mol
# GULP energy per Si atom -12401.617978 kJ/mol
# Density = 1.843439 g / cm^3
# Si number density = 18.476448 Si / 1000 Ang^3
#
#
#
# Elastic Constant Matrix: (Units=GPa)
#
#
# Indices 1 2 3 4 5 6 
#
# 1 189.9814 87.5492 61.8207 0.0000 0.0000 0.0000
# 2 87.5492 167.0993 59.0555 0.0000 0.0000 0.0000
# 3 61.8207 59.0555 48.0824 0.0000 0.0000 0.0000
# 4 0.0000 0.0000 0.0000 32.9989 0.0000 0.0000
# 5 0.0000 0.0000 0.0000 0.0000 29.9226 0.0000
# 6 0.0000 0.0000 0.0000 0.0000 0.0000 21.7924
#
#
#
# Elastic Compliance Matrix: (Units=1/GPa)
#
#
# Indices 1 2 3 4 5 6 
#
# 1 0.009168 -0.001127 -0.010404 0.000000 0.000000 0.000000
# 2 -0.001127 0.010713 -0.011709 0.000000 0.000000 0.000000
# 3 -0.010404 -0.011709 0.048557 0.000000 0.000000 0.000000
# 4 0.000000 0.000000 0.000000 0.030304 0.000000 0.000000
# 5 0.000000 0.000000 0.000000 0.000000 0.033420 0.000000
# 6 0.000000 0.000000 0.000000 0.000000 0.000000 0.045888
#
#
# Mechanical properties :
#
#
# Convention : Reuss Voigt Hill
#
# Bulk Modulus (GPa) = 45.54317 91.33486 68.43902
# Shear Modulus (GPa) = 21.56574 30.05862 25.81218
#
# Velocity S-wave (km/s) = 3.42014 4.03781 3.74174
# Velocity P-wave (km/s) = 6.34817 8.44269 7.46921
#
# Compressibility (1/GPa) = 0.02195719
#
# Stress axis : x y z
#
# Youngs Moduli (GPa) = 109.06913 93.34452 20.59454
#
# Poissons Ratio (x) = 0.10516 0.21428
# Poissons Ratio (y) = 0.12288 0.24115
# Poissons Ratio (z) = 1.13481 1.09301
#
# Static dielectric constant tensor:
#      x y z
#    x 2.170740 0.000000 0.000000 
#    y 0.000000 3.328280 0.000000 
#    z 0.000000 0.000000 3.163070 
# 
# 
# High freq. dielectric constant tensor:
#      x y z
#    x 1.737840 0.000000 0.000000 
#    y 0.000000 1.717580 0.000000 
#    z 0.000000 0.000000 1.689740 
# 
# From -- ./inp_files/7814.got.cif
#   From: 2010.03.12/outbox.cif.g09.slc.cpg/sg63_4_cif.got.tgz:7814.got - 2010.04.10 19:34:48.
