data_PCOD8258480
_publ_section_title
;
Structure prediction by ZEFSAII (Michael W. Deem and Ramdas Pophale) SiO2 
 PCOD8258480
Probable space group: C M C M
;
_chemical_formula_sum "Si O2"
_cell_formula_units_Z 96
_cell_length_a 9.125083
_cell_length_b 31.053290
_cell_length_c 18.156587
_cell_angle_alpha 90.000000
_cell_angle_beta 90.000000
_cell_angle_gamma 90.000000
_cell_volume 5144.920371
_symmetry_space_group_name_H-M "C M C M"
_symmetry_group_IT_number 63
_symmetry_cell_setting 'orthorhombic'
loop_
_space_group_symop_operation_xyz
x,y,z
-x,-y,1/2+z
x,-y,-z
-x,y,1/2-z
-x,-y,-z
x,y,1/2-z
-x,y,z
x,-y,1/2+z
1/2+x,1/2+y,z
1/2-x,1/2-y,1/2+z
1/2+x,1/2-y,-z
1/2-x,1/2+y,1/2-z
1/2-x,1/2-y,-z
1/2+x,1/2+y,1/2-z
1/2-x,1/2+y,z
1/2+x,1/2-y,1/2+z
loop_
_atom_site_type_symbol
_atom_site_label
_atom_site_fract_x
_atom_site_fract_y
_atom_site_fract_z
Si Si1 0.834297 0.754168 0.837911
Si Si2 0.167887 0.499154 0.586690
Si Si3 0.665354 0.670757 0.662281
Si Si4 0.834523 0.337662 0.837660
Si Si5 0.671240 0.577235 0.164507
Si Si6 0.829956 0.586397 0.834951
O O1 0.833082 0.754231 0.750000
O O2 0.754008 0.711676 0.868833
O O3 0.749870 0.795974 0.868812
O O4 0.000000 0.754841 0.867842
O O5 0.187904 0.500000 0.500000
O O6 0.273488 0.463492 0.619660
O O7 0.217643 0.545069 0.618381
O O8 0.000000 0.489163 0.609371
O O9 0.668629 0.671662 0.750000
O O10 0.500000 0.672950 0.632249
O O11 0.739755 0.626915 0.633836
O O12 0.833887 0.336315 0.750000
O O13 0.753163 0.380448 0.865734
O O14 0.000000 0.337583 0.868349
O O15 0.707211 0.569491 0.250000
O O16 0.500000 0.583870 0.151061
O O17 0.792043 0.577007 0.750000
O O18 0.000000 0.597476 0.845126
#
# Coordination Sequence:
#
# PCOD8258480 Si02
#       6
#    16  16  16  16  16  16
#     4   9  15  23  37  60  93 128 158 191 234 282
#     4  10  21  36  53  73  97 127 164 205 250 299
#     4   9  16  25  39  62  92 124 158 195 235 280
#     4   9  16  26  42  65  94 127 161 197 238 283
#     4  10  20  33  50  73 100 130 165 204 246 292
#     4   9  17  30  48  69  94 125 160 198 241 287
#
# _framework density 18.659179999999999
#
# number of rings (size 3 to 8) (size 9 to 14) (size 15 to 20)
#    0.000    2.667    0.000    2.500    0.000    8.667 
#    0.000    1.667    0.000    0.000    0.000    1.167 
#    0.000    0.000    0.000    0.000    0.000    0.000 
#
# Total GULP energy -595260.593897 kJ/mol
# GULP energy per Si atom -12401.262373 kJ/mol
# Density = 1.861671 g / cm^3
# Si number density = 18.659180 Si / 1000 Ang^3
#
#
#
# Elastic Constant Matrix: (Units=GPa)
#
#
# Indices 1 2 3 4 5 6 
#
# 1 144.0823 98.1057 26.7625 0.0000 0.0000 0.0000
# 2 98.1057 182.2736 33.8264 0.0000 0.0000 0.0000
# 3 26.7625 33.8264 27.1738 0.0000 0.0000 0.0000
# 4 0.0000 0.0000 0.0000 -2.2997 0.0000 0.0000
# 5 0.0000 0.0000 0.0000 0.0000 12.9402 0.0000
# 6 0.0000 0.0000 0.0000 0.0000 0.0000 43.5731
#
#
#
# Elastic Compliance Matrix: (Units=1/GPa)
#
#
# Indices 1 2 3 4 5 6 
#
# 1 0.011393 -0.005266 -0.004665 0.000000 0.000000 0.000000
# 2 -0.005266 0.009569 -0.006725 0.000000 0.000000 0.000000
# 3 -0.004665 -0.006725 0.049765 0.000000 0.000000 0.000000
# 4 0.000000 0.000000 0.000000 -0.434841 0.000000 0.000000
# 5 0.000000 0.000000 0.000000 0.000000 0.077279 0.000000
# 6 0.000000 0.000000 0.000000 0.000000 0.000000 0.022950
#
#
# Mechanical properties :
#
#
# Convention : Reuss Voigt Hill
#
# Bulk Modulus (GPa) = 26.72704 74.54655 50.63679
# Shear Modulus (GPa) = -22.92499 23.83172 0.45336
#
# Velocity S-wave (km/s) = -3.50897 3.57769 0.49346
# Velocity P-wave (km/s) = 1.43605 7.55678 5.24608
#
# Compressibility (1/GPa) = 0.03741530
#
# Stress axis : x y z
#
# Youngs Moduli (GPa) = 87.77527 104.50728 20.09428
#
# Poissons Ratio (x) = 0.55036 0.09374
# Poissons Ratio (y) = 0.46225 0.13513
# Poissons Ratio (z) = 0.40945 0.70279
#
# Static dielectric constant tensor:
#      x y z
#    x 3.567920 0.000000 0.000000 
#    y 0.000000 3.621190 0.000000 
#    z 0.000000 0.000000 2.789140 
# 
# 
# High freq. dielectric constant tensor:
#      x y z
#    x 1.734690 0.000000 0.000000 
#    y 0.000000 1.742780 0.000000 
#    z 0.000000 0.000000 1.656190 
# 
# From -- ./inp_files/51365.got.cif
#   From: 2010.03.12/outbox.cif.g09.slc.cpg/sg63_26_cif.got.tgz:51365.got - 2010.04.10 19:34:48.
