data_PCOD8258348
_publ_section_title
;
Structure prediction by ZEFSAII (Michael W. Deem and Ramdas Pophale) SiO2 
 PCOD8258348
Probable space group: C M C M
;
_chemical_formula_sum "Si O2"
_cell_formula_units_Z 64
_cell_length_a 9.578442
_cell_length_b 48.542798
_cell_length_c 7.696538
_cell_angle_alpha 90.000000
_cell_angle_beta 90.000000
_cell_angle_gamma 90.000000
_cell_volume 3578.615982
_symmetry_space_group_name_H-M "C M C M"
_symmetry_group_IT_number 63
_symmetry_cell_setting 'orthorhombic'
loop_
_space_group_symop_operation_xyz
x,y,z
-x,-y,1/2+z
x,-y,-z
-x,y,1/2-z
-x,-y,-z
x,y,1/2-z
-x,y,z
x,-y,1/2+z
1/2+x,1/2+y,z
1/2-x,1/2-y,1/2+z
1/2+x,1/2-y,-z
1/2-x,1/2+y,1/2-z
1/2-x,1/2-y,-z
1/2+x,1/2+y,1/2-z
1/2-x,1/2+y,z
1/2+x,1/2-y,1/2+z
loop_
_atom_site_type_symbol
_atom_site_label
_atom_site_fract_x
_atom_site_fract_y
_atom_site_fract_z
Si Si1 0.165782 0.569533 0.250000
Si Si2 0.334431 0.970378 0.443651
Si Si3 0.347722 0.724999 0.546790
Si Si4 0.833972 0.165060 0.556251
Si Si5 0.833679 0.125577 0.250000
O O1 0.213816 0.552791 0.420748
O O2 0.251600 0.597341 0.250000
O O3 0.000000 0.575273 0.250000
O O4 0.280251 0.962773 0.250000
O O5 0.500000 0.972456 0.445057
O O6 0.272237 0.000000 0.500000
O O7 0.367851 0.723342 0.750000
O O8 0.500000 0.729823 0.459395
O O9 0.250000 0.750000 0.500000
O O10 0.283239 0.695352 0.489362
O O11 0.775397 0.158110 0.750000
O O12 0.783400 0.142080 0.420901
O O13 0.000000 0.166099 0.562487
O O14 0.000000 0.120571 0.250000
#
# Coordination Sequence:
#
# PCOD8258348 Si02
#       5
#     8  16  16  16   8
#     4  10  20  32  48  76 106 126 157 206 247 281
#     4   9  15  26  47  74 101 129 161 197 238 286
#     4   9  18  31  48  73 100 124 158 205 253 300
#     4   8  16  32  51  70  93 125 169 210 237 282
#     4  10  20  34  54  72  92 134 177 200 235 291
#
# _framework density 17.88401
#
# number of rings (size 3 to 8) (size 9 to 14) (size 15 to 20)
#    0.000    3.000    1.250    1.500    1.750    1.500 
#    0.000    1.250    0.000    2.250    0.000    0.000 
#    0.000    0.000    0.000    0.000    0.000    0.000 
#
# Total GULP energy -396527.179491 kJ/mol
# GULP energy per Si atom -12391.474359 kJ/mol
# Density = 1.784331 g / cm^3
# Si number density = 17.884010 Si / 1000 Ang^3
#
#
#
# Elastic Constant Matrix: (Units=GPa)
#
#
# Indices 1 2 3 4 5 6 
#
# 1 34.6703 47.6954 25.2830 0.0000 0.0000 0.0000
# 2 47.6954 184.9058 89.9472 0.0000 0.0000 0.0000
# 3 25.2830 89.9472 136.6377 0.0000 0.0000 0.0000
# 4 0.0000 0.0000 0.0000 33.9304 0.0000 0.0000
# 5 0.0000 0.0000 0.0000 0.0000 11.4290 0.0000
# 6 0.0000 0.0000 0.0000 0.0000 0.0000 30.5468
#
#
#
# Elastic Compliance Matrix: (Units=1/GPa)
#
#
# Indices 1 2 3 4 5 6 
#
# 1 0.044801 -0.011068 -0.001004 0.000000 0.000000 0.000000
# 2 -0.011068 0.010690 -0.004989 0.000000 0.000000 0.000000
# 3 -0.001004 -0.004989 0.010789 0.000000 0.000000 0.000000
# 4 0.000000 0.000000 0.000000 0.029472 0.000000 0.000000
# 5 0.000000 0.000000 0.000000 0.000000 0.087497 0.000000
# 6 0.000000 0.000000 0.000000 0.000000 0.000000 0.032737
#
#
# Mechanical properties :
#
#
# Convention : Reuss Voigt Hill
#
# Bulk Modulus (GPa) = 31.09664 75.78498 53.44081
# Shear Modulus (GPa) = 19.16982 28.06712 23.61847
#
# Velocity S-wave (km/s) = 3.27754 3.96586 3.63801
# Velocity P-wave (km/s) = 5.63460 7.96483 6.89881
#
# Compressibility (1/GPa) = 0.03215782
#
# Stress axis : x y z
#
# Youngs Moduli (GPa) = 22.32092 93.54532 92.68926
#
# Poissons Ratio (x) = 1.03534 0.09306
# Poissons Ratio (y) = 0.24704 0.46244
# Poissons Ratio (z) = 0.02241 0.46671
#
# Static dielectric constant tensor:
#      x y z
#    x 2.693660 0.000000 0.000000 
#    y 0.000000 2.112000 0.000000 
#    z 0.000000 0.000000 3.243100 
# 
# 
# High freq. dielectric constant tensor:
#      x y z
#    x 1.627840 0.000000 0.000000 
#    y 0.000000 1.697310 0.000000 
#    z 0.000000 0.000000 1.706590 
# 
# From -- ./inp_files/3178.got.cif
#   From: 2010.03.12/outbox.cif.g09.slc.cpg/sg63_2_cif.got.tgz:3178.got - 2010.04.10 19:34:48.
