data_PCOD8258497
_publ_section_title
;
Structure prediction by ZEFSAII (Michael W. Deem and Ramdas Pophale) SiO2 
 PCOD8258497
Probable space group: C M C M
;
_chemical_formula_sum "Si O2"
_cell_formula_units_Z 96
_cell_length_a 9.603896
_cell_length_b 28.199273
_cell_length_c 20.480213
_cell_angle_alpha 90.000000
_cell_angle_beta 90.000000
_cell_angle_gamma 90.000000
_cell_volume 5546.510374
_symmetry_space_group_name_H-M "C M C M"
_symmetry_group_IT_number 63
_symmetry_cell_setting 'orthorhombic'
loop_
_space_group_symop_operation_xyz
x,y,z
-x,-y,1/2+z
x,-y,-z
-x,y,1/2-z
-x,-y,-z
x,y,1/2-z
-x,y,z
x,-y,1/2+z
1/2+x,1/2+y,z
1/2-x,1/2-y,1/2+z
1/2+x,1/2-y,-z
1/2-x,1/2+y,1/2-z
1/2-x,1/2-y,-z
1/2+x,1/2+y,1/2-z
1/2-x,1/2+y,z
1/2+x,1/2-y,1/2+z
loop_
_atom_site_type_symbol
_atom_site_label
_atom_site_fract_x
_atom_site_fract_y
_atom_site_fract_z
Si Si1 0.840262 0.857026 0.030979
Si Si2 0.851124 0.610239 0.174675
Si Si3 0.834882 0.493797 0.674405
Si Si4 0.162694 0.965659 0.059195
Si Si5 0.838073 0.725355 0.943478
Si Si6 0.845495 0.820807 0.613030
O O1 0.805425 0.911933 0.038518
O O2 0.736641 0.824433 0.075502
O O3 0.000000 0.845632 0.049954
O O4 0.807892 0.842704 0.957015
O O5 0.879126 0.603407 0.250000
O O6 0.790850 0.559453 0.151577
O O7 0.753484 0.655164 0.165190
O O8 0.000000 0.620219 0.139928
O O9 0.793026 0.504469 0.750000
O O10 0.749290 0.527258 0.625624
O O11 0.000000 0.501510 0.665241
O O12 0.000000 0.973887 0.074192
O O13 0.211235 0.000000 0.000000
O O14 0.830912 0.763512 0.884377
O O15 0.000000 0.717237 0.963825
O O16 0.750000 0.750000 0.000000
O O17 0.000000 0.835937 0.632676
#
# Coordination Sequence:
#
# PCOD8258497 Si02
#       6
#    16  16  16  16  16  16
#     4   9  18  31  46  68  97 124 153 191 233 278
#     4   9  18  31  46  66  92 121 153 190 232 277
#     4   9  19  35  51  69  97 131 166 202 239 286
#     4  10  20  33  50  74 103 130 159 202 250 291
#     4   9  17  29  45  66  92 121 152 185 226 278
#     4   9  17  29  46  68  93 120 150 186 230 278
#
# _framework density 17.30818
#
# number of rings (size 3 to 8) (size 9 to 14) (size 15 to 20)
#    0.000    2.833    0.000    3.500    0.000    7.000 
#    0.000    1.667    0.000    1.000    0.000    0.000 
#    0.000    0.000    0.000    0.000    0.000    0.000 
#
# Total GULP energy -594711.053385 kJ/mol
# GULP energy per Si atom -12389.813612 kJ/mol
# Density = 1.726879 g / cm^3
# Si number density = 17.308180 Si / 1000 Ang^3
#
#
#
# Elastic Constant Matrix: (Units=GPa)
#
#
# Indices 1 2 3 4 5 6 
#
# 1 82.0311 57.8875 28.3182 0.0000 0.0000 0.0000
# 2 57.8875 126.0566 30.1681 0.0000 0.0000 0.0000
# 3 28.3182 30.1681 43.3054 0.0000 0.0000 0.0000
# 4 0.0000 0.0000 0.0000 22.1131 0.0000 0.0000
# 5 0.0000 0.0000 0.0000 0.0000 26.5458 0.0000
# 6 0.0000 0.0000 0.0000 0.0000 0.0000 30.9588
#
#
#
# Elastic Compliance Matrix: (Units=1/GPa)
#
#
# Indices 1 2 3 4 5 6 
#
# 1 0.020141 -0.007317 -0.008073 0.000000 0.000000 0.000000
# 2 -0.007317 0.012178 -0.003699 0.000000 0.000000 0.000000
# 3 -0.008073 -0.003699 0.030948 0.000000 0.000000 0.000000
# 4 0.000000 0.000000 0.000000 0.045222 0.000000 0.000000
# 5 0.000000 0.000000 0.000000 0.000000 0.037671 0.000000
# 6 0.000000 0.000000 0.000000 0.000000 0.000000 0.032301
#
#
# Mechanical properties :
#
#
# Convention : Reuss Voigt Hill
#
# Bulk Modulus (GPa) = 39.85888 53.79340 46.82614
# Shear Modulus (GPa) = 22.22197 24.92483 23.57340
#
# Velocity S-wave (km/s) = 3.58704 3.79893 3.69451
# Velocity P-wave (km/s) = 6.34309 7.09857 6.73144
#
# Compressibility (1/GPa) = 0.02508851
#
# Stress axis : x y z
#
# Youngs Moduli (GPa) = 49.65022 82.11319 32.31224
#
# Poissons Ratio (x) = 0.60082 0.26086
# Poissons Ratio (y) = 0.36329 0.11953
# Poissons Ratio (z) = 0.40084 0.30375
#
# Static dielectric constant tensor:
#      x y z
#    x 3.307100 0.000000 0.000000 
#    y 0.000000 3.638950 0.000000 
#    z 0.000000 0.000000 2.861500 
# 
# 
# High freq. dielectric constant tensor:
#      x y z
#    x 1.675660 0.000000 0.000000 
#    y 0.000000 1.674140 0.000000 
#    z 0.000000 0.000000 1.625170 
# 
# From -- ./inp_files/51390.got.cif
#   From: 2010.03.12/outbox.cif.g09.slc.cpg/sg63_26_cif.got.tgz:51390.got - 2010.04.10 19:34:48.
