data_PCOD8258167
_publ_section_title
;
Structure prediction by ZEFSAII (Michael W. Deem and Ramdas Pophale) SiO2 
 PCOD8258167
Probable space group: C M C M
;
_chemical_formula_sum "Si O2"
_cell_formula_units_Z 76
_cell_length_a 10.985540
_cell_length_b 27.211826
_cell_length_c 14.000238
_cell_angle_alpha 90.000000
_cell_angle_beta 90.000000
_cell_angle_gamma 90.000000
_cell_volume 4185.183589
_symmetry_space_group_name_H-M "C M C M"
_symmetry_group_IT_number 63
_symmetry_cell_setting 'orthorhombic'
loop_
_space_group_symop_operation_xyz
x,y,z
-x,-y,1/2+z
x,-y,-z
-x,y,1/2-z
-x,-y,-z
x,y,1/2-z
-x,y,z
x,-y,1/2+z
1/2+x,1/2+y,z
1/2-x,1/2-y,1/2+z
1/2+x,1/2-y,-z
1/2-x,1/2+y,1/2-z
1/2-x,1/2-y,-z
1/2+x,1/2+y,1/2-z
1/2-x,1/2+y,z
1/2+x,1/2-y,1/2+z
loop_
_atom_site_type_symbol
_atom_site_label
_atom_site_fract_x
_atom_site_fract_y
_atom_site_fract_z
Si Si1 0.000000 0.505606 0.750000
Si Si2 0.500000 0.950184 0.558896
Si Si3 0.143781 0.871238 0.397478
Si Si4 0.142957 0.790979 0.250000
Si Si5 0.644189 0.818428 0.750000
Si Si6 0.730168 0.110087 0.410639
Si Si7 0.860458 0.949127 0.750000
Si Si8 0.240858 0.945854 0.250000
O O1 0.000000 0.465664 0.832279
O O2 0.882979 0.540381 0.750000
O O3 0.617709 0.916978 0.537507
O O4 0.500000 0.000000 0.500000
O O5 0.182919 0.820658 0.345018
O O6 0.182156 0.868617 0.507595
O O7 0.212200 0.915922 0.345742
O O8 0.000000 0.879877 0.388363
O O9 0.200946 0.736579 0.250000
O O10 0.000000 0.784250 0.250000
O O11 0.500000 0.818884 0.750000
O O12 0.689242 0.844477 0.654048
O O13 0.800368 0.070908 0.346260
O O14 0.000000 0.933443 0.750000
O O15 0.846008 0.007246 0.750000
#
# Coordination Sequence:
#
# PCOD8258167 Si02
#       8
#     4   8  16   8   8  16   8   8
#     4  12  20  38  56  76 116 152 198 222 282 332
#     4  12  22  36  52  80 118 152 190 226 278 329
#     4  10  21  38  56  85 113 146 191 230 286 346
#     4   8  18  37  62  80 108 146 182 234 295 343
#     4  10  19  38  59  83 111 143 190 242 287 338
#     4  11  22  35  57  83 113 149 189 235 274 336
#     4  11  22  35  52  80 112 153 186 219 275 323
#     4  11  21  37  58  80 114 155 185 239 269 334
#
# _framework density 18.159299000000001
#
# number of rings (size 3 to 8) (size 9 to 14) (size 15 to 20)
#    0.000    1.474    3.158    4.105    0.000    0.842 
#    0.000    2.105    0.000    0.000   38.316    0.000 
#    0.000    0.000    0.000    0.000    0.000    0.000 
#
# Total GULP energy -471263.005187 kJ/mol
# GULP energy per Si atom -12401.658031 kJ/mol
# Density = 1.811797 g / cm^3
# Si number density = 18.159299 Si / 1000 Ang^3
#
#
#
# Elastic Constant Matrix: (Units=GPa)
#
#
# Indices 1 2 3 4 5 6 
#
# 1 84.3879 20.5532 10.1427 0.0000 0.0000 0.0000
# 2 20.5532 127.1873 37.2330 0.0000 0.0000 0.0000
# 3 10.1427 37.2330 103.3659 0.0000 0.0000 0.0000
# 4 0.0000 0.0000 0.0000 10.7628 0.0000 0.0000
# 5 0.0000 0.0000 0.0000 0.0000 32.9154 0.0000
# 6 0.0000 0.0000 0.0000 0.0000 0.0000 20.3328
#
#
#
# Elastic Compliance Matrix: (Units=1/GPa)
#
#
# Indices 1 2 3 4 5 6 
#
# 1 0.012364 -0.001836 -0.000552 0.000000 0.000000 0.000000
# 2 -0.001836 0.009062 -0.003084 0.000000 0.000000 0.000000
# 3 -0.000552 -0.003084 0.010839 0.000000 0.000000 0.000000
# 4 0.000000 0.000000 0.000000 0.092913 0.000000 0.000000
# 5 0.000000 0.000000 0.000000 0.000000 0.030381 0.000000
# 6 0.000000 0.000000 0.000000 0.000000 0.000000 0.049182
#
#
# Mechanical properties :
#
#
# Convention : Reuss Voigt Hill
#
# Bulk Modulus (GPa) = 46.90259 50.08879 48.49569
# Shear Modulus (GPa) = 22.44251 29.26967 25.85609
#
# Velocity S-wave (km/s) = 3.51931 4.01911 3.77749
# Velocity P-wave (km/s) = 6.51141 7.01289 6.76680
#
# Compressibility (1/GPa) = 0.02132079
#
# Stress axis : x y z
#
# Youngs Moduli (GPa) = 80.88244 110.35095 92.25626
#
# Poissons Ratio (x) = 0.20265 0.05090
# Poissons Ratio (y) = 0.14854 0.28452
# Poissons Ratio (z) = 0.04462 0.34032
#
# Static dielectric constant tensor:
#      x y z
#    x 3.345080 0.000000 0.000000 
#    y 0.000000 3.523650 0.000000 
#    z 0.000000 0.000000 3.288550 
# 
# 
# High freq. dielectric constant tensor:
#      x y z
#    x 1.701000 0.000000 0.000000 
#    y 0.000000 1.704380 0.000000 
#    z 0.000000 0.000000 1.709560 
# 
# From -- ./inp_files/29840.got.cif
#   From: 2010.03.12/outbox.cif.g09.slc.cpg/sg63_15_cif.got.tgz:29840.got - 2010.04.10 19:34:48.
