data_PCOD8258814
_publ_section_title
;
Structure prediction by ZEFSAII (Michael W. Deem and Ramdas Pophale) SiO2 
 PCOD8258814
Probable space group: C M C M
;
_chemical_formula_sum "Si O2"
_cell_formula_units_Z 96
_cell_length_a 8.798220
_cell_length_b 27.482716
_cell_length_c 22.564802
_cell_angle_alpha 90.000000
_cell_angle_beta 90.000000
_cell_angle_gamma 90.000000
_cell_volume 5456.146143
_symmetry_space_group_name_H-M "C M C M"
_symmetry_group_IT_number 63
_symmetry_cell_setting 'orthorhombic'
loop_
_space_group_symop_operation_xyz
x,y,z
-x,-y,1/2+z
x,-y,-z
-x,y,1/2-z
-x,-y,-z
x,y,1/2-z
-x,y,z
x,-y,1/2+z
1/2+x,1/2+y,z
1/2-x,1/2-y,1/2+z
1/2+x,1/2-y,-z
1/2-x,1/2+y,1/2-z
1/2-x,1/2-y,-z
1/2+x,1/2+y,1/2-z
1/2-x,1/2+y,z
1/2+x,1/2-y,1/2+z
loop_
_atom_site_type_symbol
_atom_site_label
_atom_site_fract_x
_atom_site_fract_y
_atom_site_fract_z
Si Si1 0.325181 0.397769 0.957933
Si Si2 0.175980 0.199590 0.984155
Si Si3 0.819061 0.625358 0.750000
Si Si4 0.680531 0.358510 0.369569
Si Si5 0.825440 0.972229 0.865712
Si Si6 0.321017 0.053690 0.934392
Si Si7 0.821077 0.487110 0.250000
O O1 0.500000 0.404440 0.979610
O O2 0.306855 0.416295 0.889881
O O3 0.279922 0.341033 0.966183
O O4 0.216971 0.429681 0.999592
O O5 0.226837 0.181681 0.918667
O O6 0.000000 0.209794 0.984488
O O7 0.250000 0.250000 0.000000
O O8 0.749382 0.654807 0.694290
O O9 0.761950 0.568771 0.750000
O O10 0.000000 0.629238 0.750000
O O11 0.500000 0.365408 0.366700
O O12 0.760736 0.408895 0.385654
O O13 0.731912 0.982180 0.806636
O O14 0.000000 0.984371 0.852176
O O15 0.763894 0.003540 0.920668
O O16 0.500000 0.046566 0.926870
O O17 0.000000 0.485982 0.250000
#
# Coordination Sequence:
#
# PCOD8258814 Si02
#       7
#    16  16   8  16  16  16   8
#     4   9  20  36  52  74 102 134 173 213 254 311
#     4   9  19  36  57  81 105 131 169 218 270 317
#     4  11  21  33  51  78 110 141 174 217 262 303
#     4  10  20  34  53  76 106 143 178 212 255 314
#     4  11  21  34  52  71  99 142 182 210 248 303
#     4  11  20  30  47  75 107 137 171 212 256 301
#     4  11  23  35  49  74 108 141 178 221 258 299
#
# _framework density 17.594836999999998
#
# number of rings (size 3 to 8) (size 9 to 14) (size 15 to 20)
#    0.000    1.833    1.667    4.500    0.000    7.333 
#    0.000    0.000    0.000    1.000    0.000    1.167 
#    0.000    0.000    0.000    0.000    0.000    0.000 
#
# Total GULP energy -594999.459137 kJ/mol
# GULP energy per Si atom -12395.822065 kJ/mol
# Density = 1.755479 g / cm^3
# Si number density = 17.594837 Si / 1000 Ang^3
#
#
#
# Elastic Constant Matrix: (Units=GPa)
#
#
# Indices 1 2 3 4 5 6 
#
# 1 61.6047 28.7110 32.4024 0.0000 0.0000 0.0000
# 2 28.7110 104.4566 58.4108 0.0000 0.0000 0.0000
# 3 32.4024 58.4108 91.2796 0.0000 0.0000 0.0000
# 4 0.0000 0.0000 0.0000 18.8400 0.0000 0.0000
# 5 0.0000 0.0000 0.0000 0.0000 28.5247 0.0000
# 6 0.0000 0.0000 0.0000 0.0000 0.0000 25.3587
#
#
#
# Elastic Compliance Matrix: (Units=1/GPa)
#
#
# Indices 1 2 3 4 5 6 
#
# 1 0.020344 -0.002419 -0.005674 0.000000 0.000000 0.000000
# 2 -0.002419 0.015195 -0.008865 0.000000 0.000000 0.000000
# 3 -0.005674 -0.008865 0.018642 0.000000 0.000000 0.000000
# 4 0.000000 0.000000 0.000000 0.053079 0.000000 0.000000
# 5 0.000000 0.000000 0.000000 0.000000 0.035057 0.000000
# 6 0.000000 0.000000 0.000000 0.000000 0.000000 0.039434
#
#
# Mechanical properties :
#
#
# Convention : Reuss Voigt Hill
#
# Bulk Modulus (GPa) = 49.34339 55.15435 52.24887
# Shear Modulus (GPa) = 22.47966 23.73244 23.10605
#
# Velocity S-wave (km/s) = 3.57827 3.67663 3.62778
# Velocity P-wave (km/s) = 6.72139 7.03124 6.87806
#
# Compressibility (1/GPa) = 0.02026614
#
# Stress axis : x y z
#
# Youngs Moduli (GPa) = 49.15408 65.80906 53.64168
#
# Poissons Ratio (x) = 0.15920 0.30435
# Poissons Ratio (y) = 0.11891 0.47553
# Poissons Ratio (z) = 0.27889 0.58340
#
# Static dielectric constant tensor:
#      x y z
#    x 3.274780 0.000000 0.000000 
#    y 0.000000 -10.934710 0.000000 
#    z 0.000000 0.000000 3.321980 
# 
# 
# High freq. dielectric constant tensor:
#      x y z
#    x 1.689520 0.000000 0.000000 
#    y 0.000000 1.649330 0.000000 
#    z 0.000000 0.000000 1.678030 
# 
# From -- ./inp_files/60311.got.cif
#   From: 2010.03.12/outbox.cif.g09.slc.cpg/sg63_31_cif.got.tgz:60311.got - 2010.04.10 19:34:48.
