data_PCOD8258648
_publ_section_title
;
Structure prediction by ZEFSAII (Michael W. Deem and Ramdas Pophale) SiO2 
 PCOD8258648
Probable space group: C M C M
;
_chemical_formula_sum "Si O2"
_cell_formula_units_Z 96
_cell_length_a 19.427005
_cell_length_b 30.364595
_cell_length_c 8.883022
_cell_angle_alpha 90.000000
_cell_angle_beta 90.000000
_cell_angle_gamma 90.000000
_cell_volume 5240.033730
_symmetry_space_group_name_H-M "C M C M"
_symmetry_group_IT_number 63
_symmetry_cell_setting 'orthorhombic'
loop_
_space_group_symop_operation_xyz
x,y,z
-x,-y,1/2+z
x,-y,-z
-x,y,1/2-z
-x,-y,-z
x,y,1/2-z
-x,y,z
x,-y,1/2+z
1/2+x,1/2+y,z
1/2-x,1/2-y,1/2+z
1/2+x,1/2-y,-z
1/2-x,1/2+y,1/2-z
1/2-x,1/2-y,-z
1/2+x,1/2+y,1/2-z
1/2-x,1/2+y,z
1/2+x,1/2-y,1/2+z
loop_
_atom_site_type_symbol
_atom_site_label
_atom_site_fract_x
_atom_site_fract_y
_atom_site_fract_z
Si Si1 0.708024 0.452766 0.073901
Si Si2 0.074360 0.952382 0.926278
Si Si3 0.077787 0.669739 0.422979
Si Si4 0.302329 0.126992 0.924229
Si Si5 0.209986 0.209518 0.573077
Si Si6 0.577889 0.737844 0.072974
O O1 0.696445 0.459134 0.250000
O O2 0.771635 0.420862 0.039090
O O3 0.723336 0.500000 0.000000
O O4 0.639436 0.428886 0.005096
O O5 0.088912 0.956837 0.750000
O O6 0.000000 0.928472 0.954267
O O7 0.071021 0.000000 0.000000
O O8 0.091800 0.682122 0.250000
O O9 0.128743 0.631301 0.476913
O O10 0.092984 0.712312 0.523661
O O11 0.000000 0.652790 0.446117
O O12 0.322138 0.131386 0.750000
O O13 0.247479 0.164295 0.970130
O O14 0.206935 0.217194 0.750000
O O15 0.250000 0.250000 0.500000
O O16 0.132167 0.206051 0.509161
O O17 0.589383 0.734541 0.250000
O O18 0.500000 0.723991 0.027869
#
# Coordination Sequence:
#
# PCOD8258648 Si02
#       6
#    16  16  16  16  16  16
#     4  10  20  35  54  77 104 137 177 221 269 319
#     4   9  16  27  46  72  99 129 167 211 258 307
#     4  10  20  33  53  81 107 135 175 219 261 311
#     4  10  22  37  54  78 108 141 176 215 267 322
#     4  11  21  34  53  78 107 140 177 218 263 314
#     4  10  20  34  52  75 107 146 182 218 263 313
#
# _framework density 18.320492999999999
#
# number of rings (size 3 to 8) (size 9 to 14) (size 15 to 20)
#    0.000    2.000    1.667    3.500    0.000    5.000 
#    0.000    0.833    0.000    5.500    0.000    0.000 
#    0.000    0.000    0.000    0.000    0.000    0.000 
#
# Total GULP energy -595070.923985 kJ/mol
# GULP energy per Si atom -12397.310916 kJ/mol
# Density = 1.827879 g / cm^3
# Si number density = 18.320493 Si / 1000 Ang^3
#
#
#
# Elastic Constant Matrix: (Units=GPa)
#
#
# Indices 1 2 3 4 5 6 
#
# 1 133.2980 44.4330 58.1630 0.0000 0.0000 0.0000
# 2 44.4330 65.9255 36.1629 0.0000 0.0000 0.0000
# 3 58.1630 36.1629 95.4023 0.0000 0.0000 0.0000
# 4 0.0000 0.0000 0.0000 21.9019 0.0000 0.0000
# 5 0.0000 0.0000 0.0000 0.0000 37.2586 0.0000
# 6 0.0000 0.0000 0.0000 0.0000 0.0000 22.6959
#
#
#
# Elastic Compliance Matrix: (Units=1/GPa)
#
#
# Indices 1 2 3 4 5 6 
#
# 1 0.011333 -0.004858 -0.005067 0.000000 0.000000 0.000000
# 2 -0.004858 0.021233 -0.005087 0.000000 0.000000 0.000000
# 3 -0.005067 -0.005087 0.015500 0.000000 0.000000 0.000000
# 4 0.000000 0.000000 0.000000 0.045658 0.000000 0.000000
# 5 0.000000 0.000000 0.000000 0.000000 0.026839 0.000000
# 6 0.000000 0.000000 0.000000 0.000000 0.000000 0.044061
#
#
# Mechanical properties :
#
#
# Convention : Reuss Voigt Hill
#
# Bulk Modulus (GPa) = 55.43093 63.57150 59.50121
# Shear Modulus (GPa) = 24.91748 26.76239 25.83994
#
# Velocity S-wave (km/s) = 3.69194 3.82617 3.75966
# Velocity P-wave (km/s) = 6.96389 7.36848 7.16904
#
# Compressibility (1/GPa) = 0.01804047
#
# Stress axis : x y z
#
# Youngs Moduli (GPa) = 88.24143 47.09579 64.51816
#
# Poissons Ratio (x) = 0.22880 0.32694
# Poissons Ratio (y) = 0.42870 0.32819
# Poissons Ratio (z) = 0.44716 0.23956
#
# Static dielectric constant tensor:
#      x y z
#    x 3.885210 0.000000 0.000000 
#    y 0.000000 3.005610 0.000000 
#    z 0.000000 0.000000 3.499100 
# 
# 
# High freq. dielectric constant tensor:
#      x y z
#    x 1.724420 0.000000 0.000000 
#    y 0.000000 1.663790 0.000000 
#    z 0.000000 0.000000 1.725470 
# 
# From -- ./inp_files/8575.got.cif
#   From: 2010.03.12/outbox.cif.g09.slc.cpg/sg63_5_cif.got.tgz:8575.got - 2010.04.10 19:34:48.
