data_PCOD8258871
_publ_section_title
;
Structure prediction by ZEFSAII (Michael W. Deem and Ramdas Pophale) SiO2 
 PCOD8258871
Probable space group: C M C M
;
_chemical_formula_sum "Si O2"
_cell_formula_units_Z 104
_cell_length_a 20.789732
_cell_length_b 9.028654
_cell_length_c 29.541319
_cell_angle_alpha 90.000000
_cell_angle_beta 90.000000
_cell_angle_gamma 90.000000
_cell_volume 5545.002973
_symmetry_space_group_name_H-M "C M C M"
_symmetry_group_IT_number 63
_symmetry_cell_setting 'orthorhombic'
loop_
_space_group_symop_operation_xyz
x,y,z
-x,-y,1/2+z
x,-y,-z
-x,y,1/2-z
-x,-y,-z
x,y,1/2-z
-x,y,z
x,-y,1/2+z
1/2+x,1/2+y,z
1/2-x,1/2-y,1/2+z
1/2+x,1/2-y,-z
1/2-x,1/2+y,1/2-z
1/2-x,1/2-y,-z
1/2+x,1/2+y,1/2-z
1/2-x,1/2+y,z
1/2+x,1/2-y,1/2+z
loop_
_atom_site_type_symbol
_atom_site_label
_atom_site_fract_x
_atom_site_fract_y
_atom_site_fract_z
Si Si1 0.686391 0.754739 0.056380
Si Si2 0.693570 0.002873 0.301867
Si Si3 0.306362 0.689457 0.157300
Si Si4 0.426809 0.490623 0.356975
Si Si5 0.254306 0.000000 0.500000
Si Si6 0.072978 0.696169 0.302339
Si Si7 0.427664 0.421225 0.955240
O O1 0.710939 0.750233 0.107596
O O2 0.713409 0.616492 0.028170
O O3 0.609617 0.731688 0.054691
O O4 0.701676 0.913442 0.035721
O O5 0.708919 0.037014 0.250000
O O6 0.692493 0.827179 0.308800
O O7 0.750203 0.075355 0.330784
O O8 0.623521 0.068045 0.315397
O O9 0.375960 0.611341 0.160649
O O10 0.500000 0.541193 0.344672
O O11 0.410380 0.335697 0.333636
O O12 0.420328 0.471049 0.411478
O O13 0.080652 0.744379 0.250000
O O14 0.000000 0.639559 0.311556
O O15 0.500000 0.372163 0.964283
O O16 0.399561 0.500000 0.000000
#
# Coordination Sequence:
#
# PCOD8258871 Si02
#       7
#    16  16  16  16   8  16  16
#     4  10  20  36  53  80 103 141 176 221 269 320
#     4  11  23  38  56  80 110 147 184 225 275 328
#     4  11  22  36  55  80 110 144 181 229 271 323
#     4   9  19  35  57  82 109 144 185 226 272 327
#     4  10  20  34  54  74 108 136 174 220 266 322
#     4   9  19  37  58  81 109 141 181 227 274 327
#     4   9  17  33  55  78 106 140 179 219 263 316
#
# _framework density 18.755624999999998
#
# number of rings (size 3 to 8) (size 9 to 14) (size 15 to 20)
#    0.000    2.154    0.769    2.308    0.000    4.308 
#    2.769    0.385    0.000    0.000    0.000    0.000 
#    0.000    0.000    0.000    0.000    0.000    0.000 
#
# Total GULP energy -644692.657318 kJ/mol
# GULP energy per Si atom -12397.935718 kJ/mol
# Density = 1.871294 g / cm^3
# Si number density = 18.755625 Si / 1000 Ang^3
#
#
#
# Elastic Constant Matrix: (Units=GPa)
#
#
# Indices 1 2 3 4 5 6 
#
# 1 96.6068 41.0116 30.6690 0.0000 0.0000 0.0000
# 2 41.0116 81.0641 17.2615 0.0000 0.0000 0.0000
# 3 30.6690 17.2615 68.0673 0.0000 0.0000 0.0000
# 4 0.0000 0.0000 0.0000 31.9540 0.0000 0.0000
# 5 0.0000 0.0000 0.0000 0.0000 25.8828 0.0000
# 6 0.0000 0.0000 0.0000 0.0000 0.0000 21.9880
#
#
#
# Elastic Compliance Matrix: (Units=1/GPa)
#
#
# Indices 1 2 3 4 5 6 
#
# 1 0.014623 -0.006337 -0.004982 0.000000 0.000000 0.000000
# 2 -0.006337 0.015786 -0.001148 0.000000 0.000000 0.000000
# 3 -0.004982 -0.001148 0.017227 0.000000 0.000000 0.000000
# 4 0.000000 0.000000 0.000000 0.031295 0.000000 0.000000
# 5 0.000000 0.000000 0.000000 0.000000 0.038636 0.000000
# 6 0.000000 0.000000 0.000000 0.000000 0.000000 0.045479
#
#
# Mechanical properties :
#
#
# Convention : Reuss Voigt Hill
#
# Bulk Modulus (GPa) = 44.04737 47.06918 45.55828
# Shear Modulus (GPa) = 25.56920 26.41803 25.99362
#
# Velocity S-wave (km/s) = 3.69627 3.75712 3.72682
# Velocity P-wave (km/s) = 6.46161 6.63112 6.54692
#
# Compressibility (1/GPa) = 0.02270283
#
# Stress axis : x y z
#
# Youngs Moduli (GPa) = 68.38544 63.34531 58.04840
#
# Poissons Ratio (x) = 0.40144 0.28917
# Poissons Ratio (y) = 0.43338 0.06664
# Poissons Ratio (z) = 0.34067 0.07272
#
# Static dielectric constant tensor:
#      x y z
#    x 3.653340 0.000000 0.000000 
#    y 0.000000 3.221960 0.000000 
#    z 0.000000 0.000000 3.600390 
# 
# 
# High freq. dielectric constant tensor:
#      x y z
#    x 1.742180 0.000000 0.000000 
#    y 0.000000 1.705840 0.000000 
#    z 0.000000 0.000000 1.739790 
# 
# From -- ./inp_files/70366.got.cif
#   From: 2010.03.12/outbox.cif.g09.slc.cpg/sg63_36_cif.got.tgz:70366.got - 2010.04.10 19:34:48.
