data_PCOD8258621
_publ_section_title
;
Structure prediction by ZEFSAII (Michael W. Deem and Ramdas Pophale) SiO2 
 PCOD8258621
Probable space group: C M C M
;
_chemical_formula_sum "Si O2"
_cell_formula_units_Z 96
_cell_length_a 8.901294
_cell_length_b 25.126733
_cell_length_c 23.464009
_cell_angle_alpha 90.000000
_cell_angle_beta 90.000000
_cell_angle_gamma 90.000000
_cell_volume 5247.970523
_symmetry_space_group_name_H-M "C M C M"
_symmetry_group_IT_number 63
_symmetry_cell_setting 'orthorhombic'
loop_
_space_group_symop_operation_xyz
x,y,z
-x,-y,1/2+z
x,-y,-z
-x,y,1/2-z
-x,-y,-z
x,y,1/2-z
-x,y,z
x,-y,1/2+z
1/2+x,1/2+y,z
1/2-x,1/2-y,1/2+z
1/2+x,1/2-y,-z
1/2-x,1/2+y,1/2-z
1/2-x,1/2-y,-z
1/2+x,1/2+y,1/2-z
1/2-x,1/2+y,z
1/2+x,1/2-y,1/2+z
loop_
_atom_site_type_symbol
_atom_site_label
_atom_site_fract_x
_atom_site_fract_y
_atom_site_fract_z
Si Si1 0.176351 0.809024 0.060012
Si Si2 0.823810 0.405814 0.863481
Si Si3 0.172249 0.004305 0.065513
Si Si4 0.672981 0.598254 0.640737
Si Si5 0.176302 0.555777 0.750000
Si Si6 0.175889 0.689127 0.056756
Si Si7 0.177910 0.940311 0.750000
O O1 0.225798 0.846361 0.112332
O O2 0.228661 0.748715 0.073559
O O3 0.000000 0.813147 0.051009
O O4 0.248387 0.829998 0.001620
O O5 0.781638 0.454117 0.904628
O O6 0.777079 0.350256 0.892582
O O7 0.732920 0.408514 0.804995
O O8 0.000000 0.408802 0.850185
O O9 0.000000 0.023658 0.071738
O O10 0.195745 0.947346 0.094099
O O11 0.220011 0.000000 0.000000
O O12 0.500000 0.600656 0.661048
O O13 0.778749 0.589300 0.694697
O O14 0.260826 0.499915 0.750000
O O15 0.000000 0.544755 0.750000
O O16 0.000000 0.687053 0.045980
O O17 0.000000 0.943916 0.750000
#
# Coordination Sequence:
#
# PCOD8258621 Si02
#       7
#    16  16  16  16   8  16   8
#     4   9  18  35  59  84 111 148 188 224 269 324
#     4  11  22  36  55  81 112 146 183 228 280 329
#     4  10  20  33  52  80 111 143 180 225 272 327
#     4  10  20  35  56  80 109 145 186 227 267 322
#     4  12  24  38  57  80 109 145 182 226 280 333
#     4   9  19  35  56  84 116 147 182 226 275 324
#     4  12  24  40  59  78 105 145 190 232 274 331
#
# _framework density 18.292786
#
# number of rings (size 3 to 8) (size 9 to 14) (size 15 to 20)
#    0.000    1.833    1.667    3.000    0.000    3.667 
#    0.000    0.833    0.000    5.000    0.000    0.000 
#    0.000    0.000    0.000    0.000    0.000    0.000 
#
# Total GULP energy -595377.254785 kJ/mol
# GULP energy per Si atom -12403.692808 kJ/mol
# Density = 1.825115 g / cm^3
# Si number density = 18.292786 Si / 1000 Ang^3
#
#
#
# Elastic Constant Matrix: (Units=GPa)
#
#
# Indices 1 2 3 4 5 6 
#
# 1 73.0851 40.3192 49.1602 0.0000 0.0000 0.0000
# 2 40.3192 100.9665 60.1796 0.0000 0.0000 0.0000
# 3 49.1602 60.1796 140.5378 0.0000 0.0000 0.0000
# 4 0.0000 0.0000 0.0000 29.9718 0.0000 0.0000
# 5 0.0000 0.0000 0.0000 0.0000 31.8460 0.0000
# 6 0.0000 0.0000 0.0000 0.0000 0.0000 24.4702
#
#
#
# Elastic Compliance Matrix: (Units=1/GPa)
#
#
# Indices 1 2 3 4 5 6 
#
# 1 0.019626 -0.005029 -0.004712 0.000000 0.000000 0.000000
# 2 -0.005029 0.014587 -0.004487 0.000000 0.000000 0.000000
# 3 -0.004712 -0.004487 0.010685 0.000000 0.000000 0.000000
# 4 0.000000 0.000000 0.000000 0.033365 0.000000 0.000000
# 5 0.000000 0.000000 0.000000 0.000000 0.031401 0.000000
# 6 0.000000 0.000000 0.000000 0.000000 0.000000 0.040866
#
#
# Mechanical properties :
#
#
# Convention : Reuss Voigt Hill
#
# Bulk Modulus (GPa) = 60.81776 68.21195 64.51485
# Shear Modulus (GPa) = 27.10506 28.25297 27.67901
#
# Velocity S-wave (km/s) = 3.85351 3.93426 3.89409
# Velocity P-wave (km/s) = 7.28824 7.61629 7.45407
#
# Compressibility (1/GPa) = 0.01644257
#
# Stress axis : x y z
#
# Youngs Moduli (GPa) = 50.95156 68.55404 93.58764
#
# Poissons Ratio (x) = 0.34476 0.44097
# Poissons Ratio (y) = 0.25624 0.41994
# Poissons Ratio (z) = 0.24008 0.30761
#
# Static dielectric constant tensor:
#      x y z
#    x 3.344550 0.000000 0.000000 
#    y 0.000000 3.591300 0.000000 
#    z 0.000000 0.000000 3.457870 
# 
# 
# High freq. dielectric constant tensor:
#      x y z
#    x 1.707030 0.000000 0.000000 
#    y 0.000000 1.709940 0.000000 
#    z 0.000000 0.000000 1.711980 
# 
# From -- ./inp_files/60000.got.cif
#   From: 2010.03.12/outbox.cif.g09.slc.cpg/sg63_30_cif.got.tgz:60000.got - 2010.04.10 19:34:48.
