data_PCOD8258460
_publ_section_title
;
Structure prediction by ZEFSAII (Michael W. Deem and Ramdas Pophale) SiO2 
 PCOD8258460
Probable space group: C M C M
;
_chemical_formula_sum "Si O2"
_cell_formula_units_Z 96
_cell_length_a 19.960796
_cell_length_b 30.489831
_cell_length_c 9.037868
_cell_angle_alpha 90.000000
_cell_angle_beta 90.000000
_cell_angle_gamma 90.000000
_cell_volume 5500.458184
_symmetry_space_group_name_H-M "C M C M"
_symmetry_group_IT_number 63
_symmetry_cell_setting 'orthorhombic'
loop_
_space_group_symop_operation_xyz
x,y,z
-x,-y,1/2+z
x,-y,-z
-x,y,1/2-z
-x,-y,-z
x,y,1/2-z
-x,y,z
x,-y,1/2+z
1/2+x,1/2+y,z
1/2-x,1/2-y,1/2+z
1/2+x,1/2-y,-z
1/2-x,1/2+y,1/2-z
1/2-x,1/2-y,-z
1/2+x,1/2+y,1/2-z
1/2-x,1/2+y,z
1/2+x,1/2-y,1/2+z
loop_
_atom_site_type_symbol
_atom_site_label
_atom_site_fract_x
_atom_site_fract_y
_atom_site_fract_z
Si Si1 0.574023 0.635836 0.426635
Si Si2 0.921651 0.631842 0.076442
Si Si3 0.323552 0.198048 0.923062
Si Si4 0.920340 0.543149 0.917670
Si Si5 0.420520 0.540547 0.412184
Si Si6 0.687172 0.299250 0.577139
O O1 0.572037 0.633620 0.250000
O O2 0.500000 0.648277 0.486391
O O3 0.596065 0.587703 0.486768
O O4 0.625771 0.671941 0.483218
O O5 0.906723 0.629306 0.250000
O O6 0.000000 0.639411 0.044236
O O7 0.882349 0.672386 0.005639
O O8 0.896009 0.586596 0.003352
O O9 0.326569 0.187112 0.750000
O O10 0.333565 0.249427 0.955501
O O11 0.251538 0.184462 0.986892
O O12 0.892699 0.544248 0.750000
O O13 0.000000 0.541257 0.917625
O O14 0.891606 0.500000 0.000000
O O15 0.388051 0.500000 0.500000
O O16 0.388248 0.538485 0.250000
O O17 0.500000 0.535320 0.402242
O O18 0.701840 0.306652 0.750000
#
# Coordination Sequence:
#
# PCOD8258460 Si02
#       6
#    16  16  16  16  16  16
#     4   8  14  26  46  71  94 118 153 194 231 271
#     4  10  20  33  50  73 100 129 162 201 244 289
#     4  10  20  33  50  71  95 124 159 200 244 292
#     4   9  16  27  45  70 100 131 162 196 236 284
#     4   8  13  22  38  61  89 118 147 180 219 265
#     4   9  18  33  52  70  91 124 163 199 238 290
#
# _framework density 17.453092000000002
#
# number of rings (size 3 to 8) (size 9 to 14) (size 15 to 20)
#    0.000    3.000    0.000    2.500    0.000    4.333 
#    0.000    2.500    0.000    2.500    0.000    4.667 
#    0.000    0.000    0.000    0.000    0.000    0.000 
#
# Total GULP energy -595002.311197 kJ/mol
# GULP energy per Si atom -12395.881483 kJ/mol
# Density = 1.741337 g / cm^3
# Si number density = 17.453092 Si / 1000 Ang^3
#
#
#
# Elastic Constant Matrix: (Units=GPa)
#
#
# Indices 1 2 3 4 5 6 
#
# 1 75.7666 67.6729 40.8286 0.0000 0.0000 0.0000
# 2 67.6729 122.8898 54.0446 0.0000 0.0000 0.0000
# 3 40.8286 54.0446 94.8250 0.0000 0.0000 0.0000
# 4 0.0000 0.0000 0.0000 31.7834 0.0000 0.0000
# 5 0.0000 0.0000 0.0000 0.0000 21.3004 0.0000
# 6 0.0000 0.0000 0.0000 0.0000 0.0000 4.5327
#
#
#
# Elastic Compliance Matrix: (Units=1/GPa)
#
#
# Indices 1 2 3 4 5 6 
#
# 1 0.027191 -0.013111 -0.004235 0.000000 0.000000 0.000000
# 2 -0.013111 0.017181 -0.004147 0.000000 0.000000 0.000000
# 3 -0.004235 -0.004147 0.014733 0.000000 0.000000 0.000000
# 4 0.000000 0.000000 0.000000 0.031463 0.000000 0.000000
# 5 0.000000 0.000000 0.000000 0.000000 0.046948 0.000000
# 6 0.000000 0.000000 0.000000 0.000000 0.000000 0.220620
#
#
# Mechanical properties :
#
#
# Convention : Reuss Voigt Hill
#
# Bulk Modulus (GPa) = 62.03984 68.73040 65.38512
# Shear Modulus (GPa) = 12.30029 20.25231 16.27630
#
# Velocity S-wave (km/s) = 2.65762 3.41014 3.05712
# Velocity P-wave (km/s) = 6.71126 7.41424 7.07149
#
# Compressibility (1/GPa) = 0.01611868
#
# Stress axis : x y z
#
# Youngs Moduli (GPa) = 36.77677 58.20334 67.87573
#
# Poissons Ratio (x) = 0.76311 0.28746
# Poissons Ratio (y) = 0.48218 0.28148
# Poissons Ratio (z) = 0.15575 0.24137
#
# Static dielectric constant tensor:
#      x y z
#    x 2.976800 0.000000 0.000000 
#    y 0.000000 3.467830 0.000000 
#    z 0.000000 0.000000 3.286690 
# 
# 
# High freq. dielectric constant tensor:
#      x y z
#    x 1.633390 0.000000 0.000000 
#    y 0.000000 1.686680 0.000000 
#    z 0.000000 0.000000 1.665690 
# 
# From -- ./inp_files/8508.got.cif
#   From: 2010.03.12/outbox.cif.g09.slc.cpg/sg63_5_cif.got.tgz:8508.got - 2010.04.10 19:34:48.
