data_PCOD8258424
_publ_section_title
;
Structure prediction by ZEFSAII (Michael W. Deem and Ramdas Pophale) SiO2 
 PCOD8258424
Probable space group: C M C M
;
_chemical_formula_sum "Si O2"
_cell_formula_units_Z 96
_cell_length_a 9.883838
_cell_length_b 20.516597
_cell_length_c 29.287937
_cell_angle_alpha 90.000000
_cell_angle_beta 90.000000
_cell_angle_gamma 90.000000
_cell_volume 5939.087559
_symmetry_space_group_name_H-M "C M C M"
_symmetry_group_IT_number 63
_symmetry_cell_setting 'orthorhombic'
loop_
_space_group_symop_operation_xyz
x,y,z
-x,-y,1/2+z
x,-y,-z
-x,y,1/2-z
-x,-y,-z
x,y,1/2-z
-x,y,z
x,-y,1/2+z
1/2+x,1/2+y,z
1/2-x,1/2-y,1/2+z
1/2+x,1/2-y,-z
1/2-x,1/2+y,1/2-z
1/2-x,1/2-y,-z
1/2+x,1/2+y,1/2-z
1/2-x,1/2+y,z
1/2+x,1/2-y,1/2+z
loop_
_atom_site_type_symbol
_atom_site_label
_atom_site_fract_x
_atom_site_fract_y
_atom_site_fract_z
Si Si1 0.658001 0.060968 0.026133
Si Si2 0.152631 0.148366 0.800754
Si Si3 0.155337 0.355962 0.119035
Si Si4 0.154565 0.506942 0.377722
Si Si5 0.659156 0.807609 0.481037
Si Si6 0.349215 0.506395 0.300350
O O1 0.500000 0.060215 0.014421
O O2 0.686694 0.053367 0.079670
O O3 0.715283 0.129009 0.007757
O O4 0.726980 0.000000 0.000000
O O5 0.194356 0.174240 0.750000
O O6 0.253746 0.174194 0.840056
O O7 0.160088 0.070987 0.799986
O O8 0.000000 0.171442 0.812299
O O9 0.188806 0.432024 0.109784
O O10 0.185522 0.316411 0.072894
O O11 0.000000 0.347899 0.134009
O O12 0.244369 0.535195 0.336629
O O13 0.000000 0.513043 0.362284
O O14 0.500000 0.794671 0.490610
O O15 0.750000 0.750000 0.500000
O O16 0.312468 0.533224 0.250000
O O17 0.500000 0.528746 0.314112
#
# Coordination Sequence:
#
# PCOD8258424 Si02
#       6
#    16  16  16  16  16  16
#     4   9  15  28  49  68  88 118 154 188 224 266
#     4   8  14  24  38  58  86 118 147 176 217 270
#     4   9  16  26  42  64  88 115 148 186 224 262
#     4   9  15  24  43  67  85 109 150 192 223 256
#     4  10  20  33  48  67  93 124 156 190 230 276
#     4   8  14  24  36  54  87 124 146 168 217 277
#
# _framework density 16.164097999999999
#
# number of rings (size 3 to 8) (size 9 to 14) (size 15 to 20)
#    0.000    3.167    1.667    1.000    0.000    1.333 
#    0.000    4.167    0.000    1.000    0.000    1.167 
#    0.000    1.333    0.000    0.000    0.000    0.000 
#
# Total GULP energy -594884.775870 kJ/mol
# GULP energy per Si atom -12393.432831 kJ/mol
# Density = 1.612731 g / cm^3
# Si number density = 16.164098 Si / 1000 Ang^3
#
#
#
# Elastic Constant Matrix: (Units=GPa)
#
#
# Indices 1 2 3 4 5 6 
#
# 1 80.3155 35.1405 75.9781 0.0000 0.0000 0.0000
# 2 35.1405 62.2585 47.9204 0.0000 0.0000 0.0000
# 3 75.9781 47.9204 123.2527 0.0000 0.0000 0.0000
# 4 0.0000 0.0000 0.0000 12.1867 0.0000 0.0000
# 5 0.0000 0.0000 0.0000 0.0000 28.7277 0.0000
# 6 0.0000 0.0000 0.0000 0.0000 0.0000 16.1332
#
#
#
# Elastic Compliance Matrix: (Units=1/GPa)
#
#
# Indices 1 2 3 4 5 6 
#
# 1 0.030525 -0.003918 -0.017293 0.000000 0.000000 0.000000
# 2 -0.003918 0.023425 -0.006692 0.000000 0.000000 0.000000
# 3 -0.017293 -0.006692 0.021375 0.000000 0.000000 0.000000
# 4 0.000000 0.000000 0.000000 0.082056 0.000000 0.000000
# 5 0.000000 0.000000 0.000000 0.000000 0.034810 0.000000
# 6 0.000000 0.000000 0.000000 0.000000 0.000000 0.061984
#
#
# Mechanical properties :
#
#
# Convention : Reuss Voigt Hill
#
# Bulk Modulus (GPa) = 51.23595 64.87828 58.05712
# Shear Modulus (GPa) = 15.79843 18.52871 17.16357
#
# Velocity S-wave (km/s) = 3.12970 3.38936 3.26211
# Velocity P-wave (km/s) = 6.69524 7.45261 7.08405
#
# Compressibility (1/GPa) = 0.01951754
#
# Stress axis : x y z
#
# Youngs Moduli (GPa) = 32.76055 42.69033 46.78269
#
# Poissons Ratio (x) = 0.16728 0.80902
# Poissons Ratio (y) = 0.12837 0.31307
# Poissons Ratio (z) = 0.56653 0.28568
#
# Static dielectric constant tensor:
#      x y z
#    x 3.021990 0.000000 0.000000 
#    y 0.000000 2.629950 0.000000 
#    z 0.000000 0.000000 3.347870 
# 
# 
# High freq. dielectric constant tensor:
#      x y z
#    x 1.606620 0.000000 0.000000 
#    y 0.000000 1.564580 0.000000 
#    z 0.000000 0.000000 1.634820 
# 
# From -- ./inp_files/68536.got.cif
#   From: 2010.03.12/outbox.cif.g09.slc.cpg/sg63_35_cif.got.tgz:68536.got - 2010.04.10 19:34:48.
