data_PCOD8258936
_publ_section_title
;
Structure prediction by ZEFSAII (Michael W. Deem and Ramdas Pophale) SiO2 
 PCOD8258936
Probable space group: C M C M
;
_chemical_formula_sum "Si O2"
_cell_formula_units_Z 88
_cell_length_a 27.635421
_cell_length_b 18.992598
_cell_length_c 8.903451
_cell_angle_alpha 90.000000
_cell_angle_beta 90.000000
_cell_angle_gamma 90.000000
_cell_volume 4673.140451
_symmetry_space_group_name_H-M "C M C M"
_symmetry_group_IT_number 63
_symmetry_cell_setting 'orthorhombic'
loop_
_space_group_symop_operation_xyz
x,y,z
-x,-y,1/2+z
x,-y,-z
-x,y,1/2-z
-x,-y,-z
x,y,1/2-z
-x,y,z
x,-y,1/2+z
1/2+x,1/2+y,z
1/2-x,1/2-y,1/2+z
1/2+x,1/2-y,-z
1/2-x,1/2+y,1/2-z
1/2-x,1/2-y,-z
1/2+x,1/2+y,1/2-z
1/2-x,1/2+y,z
1/2+x,1/2-y,1/2+z
loop_
_atom_site_type_symbol
_atom_site_label
_atom_site_fract_x
_atom_site_fract_y
_atom_site_fract_z
Si Si1 0.944462 0.201140 0.075800
Si Si2 0.500000 0.924542 0.926893
Si Si3 0.782899 0.075365 0.575300
Si Si4 0.592657 0.163076 0.427286
Si Si5 0.824431 0.423923 0.074623
Si Si6 0.624063 0.424744 0.575261
O O1 0.940029 0.222165 0.250000
O O2 0.921936 0.124611 0.045127
O O3 0.000000 0.198783 0.022930
O O4 0.915039 0.257088 0.977866
O O5 0.500000 0.933720 0.750000
O O6 0.452984 0.882637 0.982208
O O7 0.500000 0.000000 0.000000
O O8 0.794541 0.069103 0.750000
O O9 0.729628 0.108078 0.548316
O O10 0.828045 0.114401 0.494766
O O11 0.781975 0.000000 0.500000
O O12 0.599269 0.160161 0.250000
O O13 0.640421 0.133188 0.503985
O O14 0.835436 0.433517 0.250000
O O15 0.831868 0.500000 0.000000
O O16 0.613468 0.500000 0.500000
O O17 0.633291 0.436629 0.750000
#
# Coordination Sequence:
#
# PCOD8258936 Si02
#       6
#    16   8  16  16  16  16
#     4  10  22  40  59  79 108 147 184 224 278 332
#     4  10  22  36  52  78 107 138 181 226 267 314
#     4   9  17  31  53  80 111 144 179 222 273 324
#     4  11  22  37  55  79 110 145 187 229 274 327
#     4  10  20  34  54  82 113 147 187 228 272 323
#     4  10  20  35  58  86 112 140 180 224 272 332
#
# _framework density 18.831019000000001
#
# number of rings (size 3 to 8) (size 9 to 14) (size 15 to 20)
#    0.000    2.000    0.909    3.818    0.000    6.909 
#    0.000    0.909    0.000    0.000    0.000    0.000 
#    0.000    0.000    0.000    0.000    0.000    0.000 
#
# Total GULP energy -545499.645321 kJ/mol
# GULP energy per Si atom -12397.719212 kJ/mol
# Density = 1.878816 g / cm^3
# Si number density = 18.831019 Si / 1000 Ang^3
#
#
#
# Elastic Constant Matrix: (Units=GPa)
#
#
# Indices 1 2 3 4 5 6 
#
# 1 123.2177 52.9639 55.3812 0.0000 0.0000 0.0000
# 2 52.9639 87.9144 45.0819 0.0000 0.0000 0.0000
# 3 55.3812 45.0819 103.3181 0.0000 0.0000 0.0000
# 4 0.0000 0.0000 0.0000 29.1214 0.0000 0.0000
# 5 0.0000 0.0000 0.0000 0.0000 22.5315 0.0000
# 6 0.0000 0.0000 0.0000 0.0000 0.0000 16.8460
#
#
#
# Elastic Compliance Matrix: (Units=1/GPa)
#
#
# Indices 1 2 3 4 5 6 
#
# 1 0.012288 -0.005186 -0.004324 0.000000 0.000000 0.000000
# 2 -0.005186 0.016842 -0.004569 0.000000 0.000000 0.000000
# 3 -0.004324 -0.004569 0.013990 0.000000 0.000000 0.000000
# 4 0.000000 0.000000 0.000000 0.034339 0.000000 0.000000
# 5 0.000000 0.000000 0.000000 0.000000 0.044382 0.000000
# 6 0.000000 0.000000 0.000000 0.000000 0.000000 0.059361
#
#
# Mechanical properties :
#
#
# Convention : Reuss Voigt Hill
#
# Bulk Modulus (GPa) = 66.83306 69.03381 67.93343
# Shear Modulus (GPa) = 23.32652 24.43465 23.88059
#
# Velocity S-wave (km/s) = 3.52338 3.60609 3.56497
# Velocity P-wave (km/s) = 7.21943 7.35376 7.28691
#
# Compressibility (1/GPa) = 0.01496265
#
# Stress axis : x y z
#
# Youngs Moduli (GPa) = 81.37878 59.37600 71.47771
#
# Poissons Ratio (x) = 0.30790 0.30908
# Poissons Ratio (y) = 0.42200 0.32659
# Poissons Ratio (z) = 0.35189 0.27130
#
# Static dielectric constant tensor:
#      x y z
#    x 4.239270 0.000000 0.000000 
#    y 0.000000 3.145990 0.000000 
#    z 0.000000 0.000000 3.594120 
# 
# 
# High freq. dielectric constant tensor:
#      x y z
#    x 1.749460 0.000000 0.000000 
#    y 0.000000 1.703230 0.000000 
#    z 0.000000 0.000000 1.743510 
# 
# From -- ./inp_files/10209.got.cif
#   From: 2010.03.12/outbox.cif.g09.slc.cpg/sg63_6_cif.got.tgz:10209.got - 2010.04.10 19:34:48.
