data_PCOD8258556
_publ_section_title
;
Structure prediction by ZEFSAII (Michael W. Deem and Ramdas Pophale) SiO2 
 PCOD8258556
Probable space group: C M C M
;
_chemical_formula_sum "Si O2"
_cell_formula_units_Z 96
_cell_length_a 9.415478
_cell_length_b 24.849242
_cell_length_c 23.289692
_cell_angle_alpha 90.000000
_cell_angle_beta 90.000000
_cell_angle_gamma 90.000000
_cell_volume 5449.030812
_symmetry_space_group_name_H-M "C M C M"
_symmetry_group_IT_number 63
_symmetry_cell_setting 'orthorhombic'
loop_
_space_group_symop_operation_xyz
x,y,z
-x,-y,1/2+z
x,-y,-z
-x,y,1/2-z
-x,-y,-z
x,y,1/2-z
-x,y,z
x,-y,1/2+z
1/2+x,1/2+y,z
1/2-x,1/2-y,1/2+z
1/2+x,1/2-y,-z
1/2-x,1/2+y,1/2-z
1/2-x,1/2-y,-z
1/2+x,1/2+y,1/2-z
1/2-x,1/2+y,z
1/2+x,1/2-y,1/2+z
loop_
_atom_site_type_symbol
_atom_site_label
_atom_site_fract_x
_atom_site_fract_y
_atom_site_fract_z
Si Si1 0.163301 0.931737 0.816152
Si Si2 0.836571 0.695473 0.996368
Si Si3 0.336770 0.747962 0.316503
Si Si4 0.834916 0.944060 0.185155
Si Si5 0.164480 0.656974 0.121077
Si Si6 0.335664 0.856672 0.379049
O O1 0.196970 0.917825 0.750000
O O2 0.263816 0.897363 0.856964
O O3 0.000000 0.917518 0.829516
O O4 0.194544 0.993832 0.829207
O O5 0.783446 0.660650 0.942277
O O6 0.000000 0.712158 0.987388
O O7 0.750000 0.750000 0.000000
O O8 0.815457 0.659219 0.052653
O O9 0.301746 0.741067 0.250000
O O10 0.500000 0.733024 0.330111
O O11 0.235674 0.709196 0.351751
O O12 0.304449 0.808938 0.334353
O O13 0.783653 0.931410 0.250000
O O14 0.750252 0.908975 0.139548
O O15 0.000000 0.930654 0.179164
O O16 0.000000 0.656619 0.138656
O O17 0.500000 0.872650 0.379437
#
# Coordination Sequence:
#
# PCOD8258556 Si02
#       6
#    16  16  16  16  16  16
#     4   9  19  37  58  78 105 143 180 214 261 321
#     4  10  21  37  55  76 105 142 182 220 260 310
#     4  10  20  33  51  76 106 140 175 212 260 321
#     4   9  19  36  57  81 108 138 175 220 267 314
#     4  11  22  34  52  80 108 136 176 223 268 309
#     4  10  20  35  55  78 105 140 180 217 261 317
#
# _framework density 17.617812000000001
#
# number of rings (size 3 to 8) (size 9 to 14) (size 15 to 20)
#    0.000    2.167    1.667    2.500    0.000    6.333 
#    0.000    2.500    0.000    5.000    0.000    0.000 
#    0.000    0.000    0.000    0.000    0.000    0.000 
#
# Total GULP energy -595339.144541 kJ/mol
# GULP energy per Si atom -12402.898845 kJ/mol
# Density = 1.757771 g / cm^3
# Si number density = 17.617812 Si / 1000 Ang^3
#
#
#
# Elastic Constant Matrix: (Units=GPa)
#
#
# Indices 1 2 3 4 5 6 
#
# 1 78.2656 50.5721 44.8123 0.0000 0.0000 0.0000
# 2 50.5721 84.7129 39.1506 0.0000 0.0000 0.0000
# 3 44.8123 39.1506 86.6388 0.0000 0.0000 0.0000
# 4 0.0000 0.0000 0.0000 27.1354 0.0000 0.0000
# 5 0.0000 0.0000 0.0000 0.0000 29.0958 0.0000
# 6 0.0000 0.0000 0.0000 0.0000 0.0000 35.7918
#
#
#
# Elastic Compliance Matrix: (Units=1/GPa)
#
#
# Indices 1 2 3 4 5 6 
#
# 1 0.024173 -0.010936 -0.007561 0.000000 0.000000 0.000000
# 2 -0.010936 0.019869 -0.003322 0.000000 0.000000 0.000000
# 3 -0.007561 -0.003322 0.016954 0.000000 0.000000 0.000000
# 4 0.000000 0.000000 0.000000 0.036852 0.000000 0.000000
# 5 0.000000 0.000000 0.000000 0.000000 0.034369 0.000000
# 6 0.000000 0.000000 0.000000 0.000000 0.000000 0.027939
#
#
# Mechanical properties :
#
#
# Convention : Reuss Voigt Hill
#
# Bulk Modulus (GPa) = 57.61255 57.63191 57.62223
# Shear Modulus (GPa) = 23.85725 26.07674 24.96700
#
# Velocity S-wave (km/s) = 3.68388 3.85143 3.76858
# Velocity P-wave (km/s) = 7.13210 7.24992 7.19125
#
# Compressibility (1/GPa) = 0.01735733
#
# Stress axis : x y z
#
# Youngs Moduli (GPa) = 41.36874 50.33086 58.98338
#
# Poissons Ratio (x) = 0.55044 0.44597
# Poissons Ratio (y) = 0.45243 0.19592
# Poissons Ratio (z) = 0.31279 0.16718
#
# Static dielectric constant tensor:
#      x y z
#    x 3.245140 0.000000 0.000000 
#    y 0.000000 3.137860 0.000000 
#    z 0.000000 0.000000 3.463710 
# 
# 
# High freq. dielectric constant tensor:
#      x y z
#    x 1.680670 0.000000 0.000000 
#    y 0.000000 1.678760 0.000000 
#    z 0.000000 0.000000 1.685680 
# 
# From -- ./inp_files/59909.got.cif
#   From: 2010.03.12/outbox.cif.g09.slc.cpg/sg63_30_cif.got.tgz:59909.got - 2010.04.10 19:34:48.
