data_PCOD8258627
_publ_section_title
;
Structure prediction by ZEFSAII (Michael W. Deem and Ramdas Pophale) SiO2 
 PCOD8258627
Probable space group: C M C M
;
_chemical_formula_sum "Si O2"
_cell_formula_units_Z 80
_cell_length_a 11.018137
_cell_length_b 34.228241
_cell_length_c 11.772211
_cell_angle_alpha 90.000000
_cell_angle_beta 90.000000
_cell_angle_gamma 90.000000
_cell_volume 4439.670988
_symmetry_space_group_name_H-M "C M C M"
_symmetry_group_IT_number 63
_symmetry_cell_setting 'orthorhombic'
loop_
_space_group_symop_operation_xyz
x,y,z
-x,-y,1/2+z
x,-y,-z
-x,y,1/2-z
-x,-y,-z
x,y,1/2-z
-x,y,z
x,-y,1/2+z
1/2+x,1/2+y,z
1/2-x,1/2-y,1/2+z
1/2+x,1/2-y,-z
1/2-x,1/2+y,1/2-z
1/2-x,1/2-y,-z
1/2+x,1/2+y,1/2-z
1/2-x,1/2+y,z
1/2+x,1/2-y,1/2+z
loop_
_atom_site_type_symbol
_atom_site_label
_atom_site_fract_x
_atom_site_fract_y
_atom_site_fract_z
Si Si1 0.855885 0.883220 0.881258
Si Si2 0.742990 0.816439 0.036684
Si Si3 0.861039 0.917374 0.250000
Si Si4 0.860657 0.356514 0.250000
Si Si5 0.360500 0.542474 0.513153
Si Si6 0.136882 0.746110 0.370565
O O1 0.817855 0.878157 0.750000
O O2 0.000000 0.879760 0.897355
O O3 0.793322 0.850707 0.958152
O O4 0.806616 0.925104 0.926651
O O5 0.653100 0.831734 0.134839
O O6 0.851173 0.791370 0.091521
O O7 0.671913 0.785121 0.963484
O O8 0.752871 0.886299 0.250000
O O9 0.843351 0.944490 0.358156
O O10 0.000000 0.899147 0.250000
O O11 0.000000 0.373933 0.250000
O O12 0.295811 0.500000 0.500000
O O13 0.500000 0.537669 0.479162
O O14 0.208346 0.739812 0.250000
O O15 0.000000 0.738198 0.344397
#
# Coordination Sequence:
#
# PCOD8258627 Si02
#       6
#    16  16   8   8  16  16
#     4  10  20  33  52  81 116 150 186 235 293 347
#     4  11  21  37  54  78 109 148 186 232 282 347
#     4  10  20  36  60  88 115 152 195 239 292 347
#     4  12  24  38  58  86 117 154 195 241 290 341
#     4   9  18  31  52  84 117 147 185 236 289 340
#     4  10  21  36  56  78 102 137 184 237 286 337
#
# _framework density 18.019352999999999
#
# number of rings (size 3 to 8) (size 9 to 14) (size 15 to 20)
#    0.000    1.800    3.000    1.800    1.400    0.800 
#    0.000    0.000    0.000    0.600    0.000    0.000 
#    0.000    0.000    0.000    0.000    0.000    0.000 
#
# Total GULP energy -495527.931722 kJ/mol
# GULP energy per Si atom -12388.198293 kJ/mol
# Density = 1.797834 g / cm^3
# Si number density = 18.019353 Si / 1000 Ang^3
#
#
#
# Elastic Constant Matrix: (Units=GPa)
#
#
# Indices 1 2 3 4 5 6 
#
# 1 65.0691 36.1714 27.9094 0.0000 0.0000 0.0000
# 2 36.1714 131.8809 54.9143 0.0000 0.0000 0.0000
# 3 27.9094 54.9143 133.9588 0.0000 0.0000 0.0000
# 4 0.0000 0.0000 0.0000 24.8035 0.0000 0.0000
# 5 0.0000 0.0000 0.0000 0.0000 -16.6896 0.0000
# 6 0.0000 0.0000 0.0000 0.0000 0.0000 7.4140
#
#
#
# Elastic Compliance Matrix: (Units=1/GPa)
#
#
# Indices 1 2 3 4 5 6 
#
# 1 0.018635 -0.004214 -0.002155 0.000000 0.000000 0.000000
# 2 -0.004214 0.010096 -0.003261 0.000000 0.000000 0.000000
# 3 -0.002155 -0.003261 0.009251 0.000000 0.000000 0.000000
# 4 0.000000 0.000000 0.000000 0.040317 0.000000 0.000000
# 5 0.000000 0.000000 0.000000 0.000000 -0.059918 0.000000
# 6 0.000000 0.000000 0.000000 0.000000 0.000000 0.134880
#
#
# Mechanical properties :
#
#
# Convention : Reuss Voigt Hill
#
# Bulk Modulus (GPa) = 53.41177 63.21103 58.31140
# Shear Modulus (GPa) = 27.97032 17.23316 22.60174
#
# Velocity S-wave (km/s) = 3.94412 3.09588 3.54546
# Velocity P-wave (km/s) = 7.10261 6.92351 7.01363
#
# Compressibility (1/GPa) = 0.01872246
#
# Stress axis : x y z
#
# Youngs Moduli (GPa) = 53.66241 99.04818 108.09966
#
# Poissons Ratio (x) = 0.41736 0.23297
# Poissons Ratio (y) = 0.22612 0.35250
# Poissons Ratio (z) = 0.11565 0.32298
#
# Static dielectric constant tensor:
#      x y z
#    x 3.019260 0.000000 0.000000 
#    y 0.000000 3.576430 0.000000 
#    z 0.000000 0.000000 4.572610 
# 
# 
# High freq. dielectric constant tensor:
#      x y z
#    x 1.650460 0.000000 0.000000 
#    y 0.000000 1.703730 0.000000 
#    z 0.000000 0.000000 1.727060 
# 
# From -- ./inp_files/17894.got.cif
#   From: 2010.03.12/outbox.cif.g09.slc.cpg/sg63_9_cif.got.tgz:17894.got - 2010.04.10 19:34:48.
