data_PCOD8258829
_publ_section_title
;
Structure prediction by ZEFSAII (Michael W. Deem and Ramdas Pophale) SiO2 
 PCOD8258829
Probable space group: C M C M
;
_chemical_formula_sum "Si O2"
_cell_formula_units_Z 96
_cell_length_a 8.857009
_cell_length_b 20.732701
_cell_length_c 26.950816
_cell_angle_alpha 90.000000
_cell_angle_beta 90.000000
_cell_angle_gamma 90.000000
_cell_volume 4948.970778
_symmetry_space_group_name_H-M "C M C M"
_symmetry_group_IT_number 63
_symmetry_cell_setting 'orthorhombic'
loop_
_space_group_symop_operation_xyz
x,y,z
-x,-y,1/2+z
x,-y,-z
-x,y,1/2-z
-x,-y,-z
x,y,1/2-z
-x,y,z
x,-y,1/2+z
1/2+x,1/2+y,z
1/2-x,1/2-y,1/2+z
1/2+x,1/2-y,-z
1/2-x,1/2+y,1/2-z
1/2-x,1/2-y,-z
1/2+x,1/2+y,1/2-z
1/2-x,1/2+y,z
1/2+x,1/2-y,1/2+z
loop_
_atom_site_type_symbol
_atom_site_label
_atom_site_fract_x
_atom_site_fract_y
_atom_site_fract_z
Si Si1 0.820355 0.689127 0.694069
Si Si2 0.678529 0.688154 0.474642
Si Si3 0.179159 0.059746 0.193965
Si Si4 0.324690 0.932975 0.025279
Si Si5 0.323672 0.060012 0.859224
Si Si6 0.179748 0.185523 0.362012
O O1 0.756366 0.688465 0.750000
O O2 0.764179 0.625689 0.665581
O O3 0.755355 0.751240 0.665387
O O4 0.000000 0.691717 0.694614
O O5 0.500000 0.695705 0.476307
O O6 0.750000 0.750000 0.500000
O O7 0.725109 0.623365 0.502422
O O8 0.738660 0.684497 0.418319
O O9 0.242488 0.058643 0.250000
O O10 0.243346 0.123022 0.166480
O O11 0.000000 0.060823 0.194151
O O12 0.233190 0.997751 0.164766
O O13 0.500000 0.916932 0.016143
O O14 0.286529 0.937604 0.082965
O O15 0.278059 0.000000 0.000000
O O16 0.500000 0.049469 0.849142
O O17 0.000000 0.186041 0.360791
#
# Coordination Sequence:
#
# PCOD8258829 Si02
#       6
#    16  16  16  16  16  16
#     4   9  16  28  49  74  98 128 169 213 253 300
#     4  11  22  36  56  80 109 144 182 226 274 330
#     4  10  20  34  54  80 108 137 172 217 265 314
#     4  10  21  37  56  79 109 144 183 229 278 326
#     4  10  20  34  53  77 106 139 175 217 264 317
#     4   9  18  33  52  75 103 135 172 214 261 313
#
# _framework density 19.397971999999999
#
# number of rings (size 3 to 8) (size 9 to 14) (size 15 to 20)
#    0.000    2.167    0.000    3.500    0.000    6.667 
#    0.000    0.833    0.000    1.000    0.000    0.000 
#    0.000    0.000    0.000    0.000    0.000    0.000 
#
# Total GULP energy -595338.545853 kJ/mol
# GULP energy per Si atom -12402.886372 kJ/mol
# Density = 1.935382 g / cm^3
# Si number density = 19.397972 Si / 1000 Ang^3
#
#
#
# Elastic Constant Matrix: (Units=GPa)
#
#
# Indices 1 2 3 4 5 6 
#
# 1 27.0635 26.2805 27.3561 0.0000 0.0000 0.0000
# 2 26.2805 180.6143 85.5660 0.0000 0.0000 0.0000
# 3 27.3561 85.5660 157.5030 0.0000 0.0000 0.0000
# 4 0.0000 0.0000 0.0000 39.5357 0.0000 0.0000
# 5 0.0000 0.0000 0.0000 0.0000 3.3458 0.0000
# 6 0.0000 0.0000 0.0000 0.0000 0.0000 30.2203
#
#
#
# Elastic Compliance Matrix: (Units=1/GPa)
#
#
# Indices 1 2 3 4 5 6 
#
# 1 0.046860 -0.003989 -0.005972 0.000000 0.000000 0.000000
# 2 -0.003989 0.007795 -0.003542 0.000000 0.000000 0.000000
# 3 -0.005972 -0.003542 0.009311 0.000000 0.000000 0.000000
# 4 0.000000 0.000000 0.000000 0.025294 0.000000 0.000000
# 5 0.000000 0.000000 0.000000 0.000000 0.298886 0.000000
# 6 0.000000 0.000000 0.000000 0.000000 0.000000 0.033090
#
#
# Mechanical properties :
#
#
# Convention : Reuss Voigt Hill
#
# Bulk Modulus (GPa) = 27.05629 71.50957 49.28293
# Shear Modulus (GPa) = 10.85631 29.68556 20.27093
#
# Velocity S-wave (km/s) = 2.36828 3.91620 3.23616
# Velocity P-wave (km/s) = 4.63213 7.57584 6.27893
#
# Compressibility (1/GPa) = 0.03695998
#
# Stress axis : x y z
#
# Youngs Moduli (GPa) = 21.33997 128.28530 107.40557
#
# Poissons Ratio (x) = 0.51178 0.64140
# Poissons Ratio (y) = 0.08513 0.38042
# Poissons Ratio (z) = 0.12744 0.45438
#
# Static dielectric constant tensor:
#      x y z
#    x 3.109340 0.000000 0.000000 
#    y 0.000000 3.707000 0.000000 
#    z 0.000000 0.000000 3.633470 
# 
# 
# High freq. dielectric constant tensor:
#      x y z
#    x 1.711210 0.000000 0.000000 
#    y 0.000000 1.775230 0.000000 
#    z 0.000000 0.000000 1.777650 
# 
# From -- ./inp_files/66901.got.cif
#   From: 2010.03.12/outbox.cif.g09.slc.cpg/sg63_34_cif.got.tgz:66901.got - 2010.04.10 19:34:48.
