data_PCOD8258807
_publ_section_title
;
Structure prediction by ZEFSAII (Michael W. Deem and Ramdas Pophale) SiO2 
 PCOD8258807
Probable space group: C M C M
;
_chemical_formula_sum "Si O2"
_cell_formula_units_Z 80
_cell_length_a 18.751041
_cell_length_b 25.792813
_cell_length_c 9.040393
_cell_angle_alpha 90.000000
_cell_angle_beta 90.000000
_cell_angle_gamma 90.000000
_cell_volume 4372.314602
_symmetry_space_group_name_H-M "C M C M"
_symmetry_group_IT_number 63
_symmetry_cell_setting 'orthorhombic'
loop_
_space_group_symop_operation_xyz
x,y,z
-x,-y,1/2+z
x,-y,-z
-x,y,1/2-z
-x,-y,-z
x,y,1/2-z
-x,y,z
x,-y,1/2+z
1/2+x,1/2+y,z
1/2-x,1/2-y,1/2+z
1/2+x,1/2-y,-z
1/2-x,1/2+y,1/2-z
1/2-x,1/2-y,-z
1/2+x,1/2+y,1/2-z
1/2-x,1/2+y,z
1/2+x,1/2-y,1/2+z
loop_
_atom_site_type_symbol
_atom_site_label
_atom_site_fract_x
_atom_site_fract_y
_atom_site_fract_z
Si Si1 0.661909 0.447090 0.576126
Si Si2 0.326138 0.052222 0.422629
Si Si3 0.915190 0.247837 0.083186
Si Si4 0.082634 0.350796 0.577142
Si Si5 0.915277 0.145848 0.581313
O O1 0.636115 0.500000 0.500000
O O2 0.648682 0.451805 0.750000
O O3 0.744238 0.436087 0.537605
O O4 0.614979 0.401137 0.512712
O O5 0.337498 0.044053 0.250000
O O6 0.373254 0.099942 0.481148
O O7 0.353310 0.000000 0.500000
O O8 0.885433 0.244247 0.250000
O O9 0.000000 0.247472 0.082021
O O10 0.887635 0.300676 0.008543
O O11 0.886220 0.199152 0.989796
O O12 0.095222 0.340869 0.750000
O O13 0.000000 0.361139 0.541762
O O14 0.888341 0.142714 0.750000
O O15 0.000000 0.143420 0.573173
#
# Coordination Sequence:
#
# PCOD8258807 Si02
#       5
#    16  16  16  16  16
#     4  10  20  35  53  72  98 131 166 203 244 291
#     4   9  19  34  51  72  99 132 167 203 245 291
#     4   9  17  30  49  74 102 130 161 199 244 291
#     4   9  17  31  51  74 101 132 165 202 244 289
#     4  10  20  34  53  76 100 127 161 201 245 293
#
# _framework density 18.296945999999998
#
# number of rings (size 3 to 8) (size 9 to 14) (size 15 to 20)
#    0.000    2.600    0.000    1.800    0.000    6.000 
#    0.000    1.000    0.000    0.000    0.000    0.000 
#    0.000    0.000    0.000    0.000    0.000    0.000 
#
# Total GULP energy -496085.760611 kJ/mol
# GULP energy per Si atom -12402.144015 kJ/mol
# Density = 1.825530 g / cm^3
# Si number density = 18.296946 Si / 1000 Ang^3
#
#
#
# Elastic Constant Matrix: (Units=GPa)
#
#
# Indices 1 2 3 4 5 6 
#
# 1 28.1231 40.3005 27.7105 0.0000 0.0000 0.0000
# 2 40.3005 170.7664 71.8799 0.0000 0.0000 0.0000
# 3 27.7105 71.8799 101.6965 0.0000 0.0000 0.0000
# 4 0.0000 0.0000 0.0000 41.6181 0.0000 0.0000
# 5 0.0000 0.0000 0.0000 0.0000 18.1900 0.0000
# 6 0.0000 0.0000 0.0000 0.0000 0.0000 -7.2950
#
#
#
# Elastic Compliance Matrix: (Units=1/GPa)
#
#
# Indices 1 2 3 4 5 6 
#
# 1 0.058839 -0.010160 -0.008851 0.000000 0.000000 0.000000
# 2 -0.010160 0.010090 -0.004364 0.000000 0.000000 0.000000
# 3 -0.008851 -0.004364 0.015329 0.000000 0.000000 0.000000
# 4 0.000000 0.000000 0.000000 0.024028 0.000000 0.000000
# 5 0.000000 0.000000 0.000000 0.000000 0.054975 0.000000
# 6 0.000000 0.000000 0.000000 0.000000 0.000000 -0.137081
#
#
# Mechanical properties :
#
#
# Convention : Reuss Voigt Hill
#
# Bulk Modulus (GPa) = 26.66061 64.48531 45.57296
# Shear Modulus (GPa) = 58.52473 21.21563 39.87018
#
# Velocity S-wave (km/s) = 5.66176 3.40886 4.67311
# Velocity P-wave (km/s) = 7.57254 7.12840 7.35382
#
# Compressibility (1/GPa) = 0.03750851
#
# Stress axis : x y z
#
# Youngs Moduli (GPa) = 16.99559 99.10373 65.23487
#
# Poissons Ratio (x) = 1.00690 0.57742
# Poissons Ratio (y) = 0.17268 0.28466
# Poissons Ratio (z) = 0.15043 0.43245
#
# Static dielectric constant tensor:
#      x y z
#    x 3.119690 0.000000 0.000000 
#    y 0.000000 3.581080 0.000000 
#    z 0.000000 0.000000 3.522020 
# 
# 
# High freq. dielectric constant tensor:
#      x y z
#    x 1.676760 0.000000 0.000000 
#    y 0.000000 1.723890 0.000000 
#    z 0.000000 0.000000 1.717670 
# 
# From -- ./inp_files/6399.got.cif
#   From: 2010.03.12/outbox.cif.g09.slc.cpg/sg63_4_cif.got.tgz:6399.got - 2010.04.10 19:34:48.
