data_PCOD8258314
_publ_section_title
;
Structure prediction by ZEFSAII (Michael W. Deem and Ramdas Pophale) SiO2 
 PCOD8258314
Probable space group: C M C M
;
_chemical_formula_sum "Si O2"
_cell_formula_units_Z 80
_cell_length_a 9.349019
_cell_length_b 26.959293
_cell_length_c 18.094460
_cell_angle_alpha 90.000000
_cell_angle_beta 90.000000
_cell_angle_gamma 90.000000
_cell_volume 4560.580941
_symmetry_space_group_name_H-M "C M C M"
_symmetry_group_IT_number 63
_symmetry_cell_setting 'orthorhombic'
loop_
_space_group_symop_operation_xyz
x,y,z
-x,-y,1/2+z
x,-y,-z
-x,y,1/2-z
-x,-y,-z
x,y,1/2-z
-x,y,z
x,-y,1/2+z
1/2+x,1/2+y,z
1/2-x,1/2-y,1/2+z
1/2+x,1/2-y,-z
1/2-x,1/2+y,1/2-z
1/2-x,1/2-y,-z
1/2+x,1/2+y,1/2-z
1/2-x,1/2+y,z
1/2+x,1/2-y,1/2+z
loop_
_atom_site_type_symbol
_atom_site_label
_atom_site_fract_x
_atom_site_fract_y
_atom_site_fract_z
Si Si1 0.331779 0.212698 0.166561
Si Si2 0.834347 0.945426 0.469483
Si Si3 0.335183 0.087696 0.666621
Si Si4 0.334371 0.140958 0.039619
Si Si5 0.662270 0.805640 0.390445
O O1 0.279556 0.202310 0.250000
O O2 0.500000 0.220789 0.162540
O O3 0.287146 0.165443 0.117059
O O4 0.264818 0.262479 0.135283
O O5 0.764124 0.943318 0.388425
O O6 0.760342 0.907583 0.526345
O O7 0.000000 0.931184 0.462629
O O8 0.811479 0.000000 0.500000
O O9 0.299983 0.071018 0.750000
O O10 0.500000 0.076847 0.646060
O O11 0.304871 0.146146 0.658947
O O12 0.500000 0.124509 0.039765
O O13 0.307400 0.181576 0.975880
O O14 0.500000 0.787708 0.379084
#
# Coordination Sequence:
#
# PCOD8258314 Si02
#       5
#    16  16  16  16  16
#     4  10  20  32  47  71 102 133 166 204 244 287
#     4  10  21  36  54  76 100 127 163 208 255 300
#     4   9  18  33  53  78 105 131 163 203 246 295
#     4   9  19  35  52  70  96 131 169 207 245 293
#     4   9  17  30  49  72  99 131 164 198 239 290
#
# _framework density 17.541625
#
# number of rings (size 3 to 8) (size 9 to 14) (size 15 to 20)
#    0.000    2.600    0.000    3.000    0.000    7.200 
#    0.000    1.000    0.000    3.600    0.000    0.000 
#    0.000    0.000    0.000    0.000    0.000    0.000 
#
# Total GULP energy -496035.639993 kJ/mol
# GULP energy per Si atom -12400.891000 kJ/mol
# Density = 1.750170 g / cm^3
# Si number density = 17.541625 Si / 1000 Ang^3
#
#
#
# Elastic Constant Matrix: (Units=GPa)
#
#
# Indices 1 2 3 4 5 6 
#
# 1 83.6849 64.2855 57.9341 0.0000 0.0000 0.0000
# 2 64.2855 91.2919 67.9165 0.0000 0.0000 0.0000
# 3 57.9341 67.9165 117.1626 0.0000 0.0000 0.0000
# 4 0.0000 0.0000 0.0000 16.5267 0.0000 0.0000
# 5 0.0000 0.0000 0.0000 0.0000 16.8682 0.0000
# 6 0.0000 0.0000 0.0000 0.0000 0.0000 32.3100
#
#
#
# Elastic Compliance Matrix: (Units=1/GPa)
#
#
# Indices 1 2 3 4 5 6 
#
# 1 0.027113 -0.016032 -0.004113 0.000000 0.000000 0.000000
# 2 -0.016032 0.028740 -0.008732 0.000000 0.000000 0.000000
# 3 -0.004113 -0.008732 0.015631 0.000000 0.000000 0.000000
# 4 0.000000 0.000000 0.000000 0.060508 0.000000 0.000000
# 5 0.000000 0.000000 0.000000 0.000000 0.059283 0.000000
# 6 0.000000 0.000000 0.000000 0.000000 0.000000 0.030950
#
#
# Mechanical properties :
#
#
# Convention : Reuss Voigt Hill
#
# Bulk Modulus (GPa) = 72.84246 74.71239 73.77743
# Shear Modulus (GPa) = 17.57126 19.94120 18.75623
#
# Velocity S-wave (km/s) = 3.16838 3.37529 3.27347
# Velocity P-wave (km/s) = 7.41623 7.60750 7.51248
#
# Compressibility (1/GPa) = 0.01372826
#
# Stress axis : x y z
#
# Youngs Moduli (GPa) = 36.88310 34.79521 63.97610
#
# Poissons Ratio (x) = 0.55784 0.26314
# Poissons Ratio (y) = 0.59131 0.55865
# Poissons Ratio (z) = 0.15170 0.30384
#
# Static dielectric constant tensor:
#      x y z
#    x 3.251250 0.000000 0.000000 
#    y 0.000000 3.012690 0.000000 
#    z 0.000000 0.000000 3.868330 
# 
# 
# High freq. dielectric constant tensor:
#      x y z
#    x 1.677150 0.000000 0.000000 
#    y 0.000000 1.658710 0.000000 
#    z 0.000000 0.000000 1.685610 
# 
# From -- ./inp_files/40425.got.cif
#   From: 2010.03.12/outbox.cif.g09.slc.cpg/sg63_21_cif.got.tgz:40425.got - 2010.04.10 19:34:48.
