data_PCOD8258697
_publ_section_title
;
Structure prediction by ZEFSAII (Michael W. Deem and Ramdas Pophale) SiO2 
 PCOD8258697
Probable space group: C M C M
;
_chemical_formula_sum "Si O2"
_cell_formula_units_Z 112
_cell_length_a 29.792324
_cell_length_b 16.831672
_cell_length_c 13.375137
_cell_angle_alpha 90.000000
_cell_angle_beta 90.000000
_cell_angle_gamma 90.000000
_cell_volume 6707.024318
_symmetry_space_group_name_H-M "C M C M"
_symmetry_group_IT_number 63
_symmetry_cell_setting 'orthorhombic'
loop_
_space_group_symop_operation_xyz
x,y,z
-x,-y,1/2+z
x,-y,-z
-x,y,1/2-z
-x,-y,-z
x,y,1/2-z
-x,y,z
x,-y,1/2+z
1/2+x,1/2+y,z
1/2-x,1/2-y,1/2+z
1/2+x,1/2-y,-z
1/2-x,1/2+y,1/2-z
1/2-x,1/2-y,-z
1/2+x,1/2+y,1/2-z
1/2-x,1/2+y,z
1/2+x,1/2-y,1/2+z
loop_
_atom_site_type_symbol
_atom_site_label
_atom_site_fract_x
_atom_site_fract_y
_atom_site_fract_z
Si Si1 0.883825 0.341860 0.987543
Si Si2 0.449551 0.867827 0.360844
Si Si3 0.217484 0.085936 0.963958
Si Si4 0.449943 0.951099 0.631213
Si Si5 0.193463 0.631001 0.865724
Si Si6 0.667875 0.282843 0.135732
Si Si7 0.236606 0.202984 0.139802
O O1 0.920395 0.311144 0.068007
O O2 0.845459 0.387649 0.053113
O O3 0.908107 0.401780 0.911288
O O4 0.868889 0.263917 0.928085
O O5 0.429086 0.864548 0.250000
O O6 0.500000 0.836353 0.360174
O O7 0.446366 0.957439 0.405417
O O8 0.261933 0.081196 0.894524
O O9 0.176384 0.127803 0.904784
O O10 0.227959 0.134119 0.063282
O O11 0.201492 0.000000 0.000000
O O12 0.446027 0.949829 0.750000
O O13 0.500000 0.918429 0.600231
O O14 0.180692 0.609304 0.750000
O O15 0.202188 0.724987 0.875621
O O16 0.651704 0.287701 0.250000
O O17 0.713693 0.235025 0.123273
O O18 0.231378 0.166373 0.250000
#
# Coordination Sequence:
#
# PCOD8258697 Si02
#       7
#    16  16  16  16  16  16  16
#     4  12  18  29  51  71  95 130 170 197 242 286
#     4   9  19  34  49  68  99 134 165 199 239 284
#     4  11  20  34  52  70  93 128 165 200 243 291
#     4   9  19  34  49  69  98 132 166 200 241 286
#     4  10  20  34  50  68  96 128 164 207 243 283
#     4  10  20  35  51  69  97 126 160 203 245 284
#     4   9  17  34  52  66  90 128 164 195 239 292
#
# _framework density 16.698910999999999
#
# number of rings (size 3 to 8) (size 9 to 14) (size 15 to 20)
#    0.000    2.000    2.857    4.714    0.000    3.429 
#    0.000    0.000    0.000    0.000    0.000    0.000 
#    0.000    2.286    0.000    3.429    0.000    0.000 
#
# Total GULP energy -694123.624202 kJ/mol
# GULP energy per Si atom -12395.064718 kJ/mol
# Density = 1.666090 g / cm^3
# Si number density = 16.698911 Si / 1000 Ang^3
#
#
#
# Elastic Constant Matrix: (Units=GPa)
#
#
# Indices 1 2 3 4 5 6 
#
# 1 78.7719 30.0050 44.8631 0.0000 0.0000 0.0000
# 2 30.0050 60.0179 50.3319 0.0000 0.0000 0.0000
# 3 44.8631 50.3319 91.1259 0.0000 0.0000 0.0000
# 4 0.0000 0.0000 0.0000 23.5833 0.0000 0.0000
# 5 0.0000 0.0000 0.0000 0.0000 35.2288 0.0000
# 6 0.0000 0.0000 0.0000 0.0000 0.0000 33.2288
#
#
#
# Elastic Compliance Matrix: (Units=1/GPa)
#
#
# Indices 1 2 3 4 5 6 
#
# 1 0.017909 -0.002905 -0.007213 0.000000 0.000000 0.000000
# 2 -0.002905 0.031510 -0.015974 0.000000 0.000000 0.000000
# 3 -0.007213 -0.015974 0.023348 0.000000 0.000000 0.000000
# 4 0.000000 0.000000 0.000000 0.042403 0.000000 0.000000
# 5 0.000000 0.000000 0.000000 0.000000 0.028386 0.000000
# 6 0.000000 0.000000 0.000000 0.000000 0.000000 0.030094
#
#
# Mechanical properties :
#
#
# Convention : Reuss Voigt Hill
#
# Bulk Modulus (GPa) = 48.58116 53.36840 50.97478
# Shear Modulus (GPa) = 21.48747 25.38923 23.43835
#
# Velocity S-wave (km/s) = 3.59103 3.90348 3.75051
# Velocity P-wave (km/s) = 6.80805 7.23497 7.02475
#
# Compressibility (1/GPa) = 0.02058411
#
# Stress axis : x y z
#
# Youngs Moduli (GPa) = 55.83737 31.73610 42.83085
#
# Poissons Ratio (x) = 0.09219 0.30892
# Poissons Ratio (y) = 0.16219 0.68418
# Poissons Ratio (z) = 0.40273 0.50695
#
# Static dielectric constant tensor:
#      x y z
#    x 3.105360 0.000000 0.000000 
#    y 0.000000 2.830920 0.000000 
#    z 0.000000 0.000000 3.548850 
# 
# 
# High freq. dielectric constant tensor:
#      x y z
#    x 1.625020 0.000000 0.000000 
#    y 0.000000 1.589620 0.000000 
#    z 0.000000 0.000000 1.680560 
# 
# From -- ./inp_files/38711.got.cif
#   From: 2010.03.12/outbox.cif.g09.slc.cpg/sg63_20_cif.got.tgz:38711.got - 2010.04.10 19:34:48.
