data_PCOD8258979
_publ_section_title
;
Structure prediction by ZEFSAII (Michael W. Deem and Ramdas Pophale) SiO2 
 PCOD8258979
Probable space group: C M C M
;
_chemical_formula_sum "Si O2"
_cell_formula_units_Z 96
_cell_length_a 9.353145
_cell_length_b 24.532556
_cell_length_c 23.475899
_cell_angle_alpha 90.000000
_cell_angle_beta 90.000000
_cell_angle_gamma 90.000000
_cell_volume 5386.698875
_symmetry_space_group_name_H-M "C M C M"
_symmetry_group_IT_number 63
_symmetry_cell_setting 'orthorhombic'
loop_
_space_group_symop_operation_xyz
x,y,z
-x,-y,1/2+z
x,-y,-z
-x,y,1/2-z
-x,-y,-z
x,y,1/2-z
-x,y,z
x,-y,1/2+z
1/2+x,1/2+y,z
1/2-x,1/2-y,1/2+z
1/2+x,1/2-y,-z
1/2-x,1/2+y,1/2-z
1/2-x,1/2-y,-z
1/2+x,1/2+y,1/2-z
1/2-x,1/2+y,z
1/2+x,1/2-y,1/2+z
loop_
_atom_site_type_symbol
_atom_site_label
_atom_site_fract_x
_atom_site_fract_y
_atom_site_fract_z
Si Si1 0.334889 0.162863 0.936174
Si Si2 0.337336 0.775961 0.250000
Si Si3 0.334170 0.270336 0.871477
Si Si4 0.164171 0.030312 0.057987
Si Si5 0.666375 0.140373 0.064829
Si Si6 0.835363 0.927234 0.129129
Si Si7 0.331969 0.386867 0.250000
O O1 0.500000 0.153495 0.921095
O O2 0.278898 0.217882 0.906589
O O3 0.251110 0.111264 0.912903
O O4 0.308272 0.167628 0.003378
O O5 0.500000 0.797455 0.250000
O O6 0.306962 0.739000 0.195189
O O7 0.237101 0.827881 0.250000
O O8 0.500000 0.281857 0.885080
O O9 0.242004 0.322449 0.888282
O O10 0.267682 0.080596 0.067666
O O11 0.000000 0.050448 0.054559
O O12 0.187819 0.989686 0.111053
O O13 0.207613 0.000000 0.000000
O O14 0.500000 0.135764 0.079568
O O15 0.782900 0.920462 0.194258
O O16 0.000000 0.910247 0.122504
O O17 0.500000 0.377687 0.250000
#
# Coordination Sequence:
#
# PCOD8258979 Si02
#       7
#    16   8  16  16  16  16   8
#     4  10  20  34  55  83 113 144 179 225 276 326
#     4  10  20  36  59  82 107 145 188 226 270 331
#     4  10  21  37  56  80 111 147 186 225 273 335
#     4  10  20  36  57  79 107 147 188 226 271 328
#     4  11  23  36  54  83 115 148 184 229 281 328
#     4  10  20  34  55  83 111 141 180 224 275 329
#     4  10  20  34  55  84 113 139 174 228 282 325
#
# _framework density 17.821676
#
# number of rings (size 3 to 8) (size 9 to 14) (size 15 to 20)
#    0.000    1.833    3.333    1.000    0.000    3.000 
#    0.000    0.833    0.000    3.000    0.000    0.000 
#    0.000    0.000    0.000    0.000    0.000    0.000 
#
# Total GULP energy -595393.350807 kJ/mol
# GULP energy per Si atom -12404.028142 kJ/mol
# Density = 1.778111 g / cm^3
# Si number density = 17.821676 Si / 1000 Ang^3
#
#
#
# Elastic Constant Matrix: (Units=GPa)
#
#
# Indices 1 2 3 4 5 6 
#
# 1 63.3676 50.5593 38.5171 0.0000 0.0000 0.0000
# 2 50.5593 104.1334 47.2652 0.0000 0.0000 0.0000
# 3 38.5171 47.2652 104.6098 0.0000 0.0000 0.0000
# 4 0.0000 0.0000 0.0000 21.3789 0.0000 0.0000
# 5 0.0000 0.0000 0.0000 0.0000 17.9075 0.0000
# 6 0.0000 0.0000 0.0000 0.0000 0.0000 33.0606
#
#
#
# Elastic Compliance Matrix: (Units=1/GPa)
#
#
# Indices 1 2 3 4 5 6 
#
# 1 0.027851 -0.011156 -0.005214 0.000000 0.000000 0.000000
# 2 -0.011156 0.016549 -0.003370 0.000000 0.000000 0.000000
# 3 -0.005214 -0.003370 0.013002 0.000000 0.000000 0.000000
# 4 0.000000 0.000000 0.000000 0.046775 0.000000 0.000000
# 5 0.000000 0.000000 0.000000 0.000000 0.055843 0.000000
# 6 0.000000 0.000000 0.000000 0.000000 0.000000 0.030247
#
#
# Mechanical properties :
#
#
# Convention : Reuss Voigt Hill
#
# Bulk Modulus (GPa) = 55.79608 60.53268 58.16438
# Shear Modulus (GPa) = 21.21156 23.52068 22.36612
#
# Velocity S-wave (km/s) = 3.45369 3.63682 3.54643
# Velocity P-wave (km/s) = 6.87604 7.18852 7.03401
#
# Compressibility (1/GPa) = 0.01792241
#
# Stress axis : x y z
#
# Youngs Moduli (GPa) = 35.90506 60.42701 76.91270
#
# Poissons Ratio (x) = 0.67410 0.40105
# Poissons Ratio (y) = 0.40055 0.25917
# Poissons Ratio (z) = 0.18722 0.20362
#
# Static dielectric constant tensor:
#      x y z
#    x 3.299020 0.000000 0.000000 
#    y 0.000000 3.168400 0.000000 
#    z 0.000000 0.000000 3.513090 
# 
# 
# High freq. dielectric constant tensor:
#      x y z
#    x 1.688590 0.000000 0.000000 
#    y 0.000000 1.682850 0.000000 
#    z 0.000000 0.000000 1.694990 
# 
# From -- ./inp_files/59980.got.cif
#   From: 2010.03.12/outbox.cif.g09.slc.cpg/sg63_30_cif.got.tgz:59980.got - 2010.04.10 19:34:48.
