data_PCOD8258702
_publ_section_title
;
Structure prediction by ZEFSAII (Michael W. Deem and Ramdas Pophale) SiO2 
 PCOD8258702
Probable space group: C M C M
;
_chemical_formula_sum "Si O2"
_cell_formula_units_Z 104
_cell_length_a 19.913783
_cell_length_b 32.199908
_cell_length_c 8.814216
_cell_angle_alpha 90.000000
_cell_angle_beta 90.000000
_cell_angle_gamma 90.000000
_cell_volume 5651.869040
_symmetry_space_group_name_H-M "C M C M"
_symmetry_group_IT_number 63
_symmetry_cell_setting 'orthorhombic'
loop_
_space_group_symop_operation_xyz
x,y,z
-x,-y,1/2+z
x,-y,-z
-x,y,1/2-z
-x,-y,-z
x,y,1/2-z
-x,y,z
x,-y,1/2+z
1/2+x,1/2+y,z
1/2-x,1/2-y,1/2+z
1/2+x,1/2-y,-z
1/2-x,1/2+y,1/2-z
1/2-x,1/2-y,-z
1/2+x,1/2+y,1/2-z
1/2-x,1/2+y,z
1/2+x,1/2-y,1/2+z
loop_
_atom_site_type_symbol
_atom_site_label
_atom_site_fract_x
_atom_site_fract_y
_atom_site_fract_z
Si Si1 0.500000 0.956123 0.572296
Si Si2 0.734308 0.542187 0.928201
Si Si3 0.922852 0.726694 0.072372
Si Si4 0.828289 0.339304 0.424874
Si Si5 0.423846 0.313425 0.923091
Si Si6 0.639644 0.077047 0.426969
Si Si7 0.182606 0.132069 0.576027
O O1 0.500000 0.961341 0.750000
O O2 0.564963 0.931763 0.516552
O O3 0.500000 0.000000 0.500000
O O4 0.732296 0.537003 0.750000
O O5 0.696464 0.584563 0.978071
O O6 0.702662 0.500000 0.000000
O O7 0.811014 0.546746 0.981656
O O8 0.909960 0.719863 0.250000
O O9 0.000000 0.713882 0.029922
O O10 0.867181 0.701854 0.976800
O O11 0.910664 0.774577 0.032504
O O12 0.846242 0.349191 0.250000
O O13 0.851927 0.375020 0.536371
O O14 0.747353 0.337578 0.442289
O O15 0.408760 0.300277 0.750000
O O16 0.500000 0.329255 0.940541
O O17 0.376394 0.351251 0.970490
O O18 0.651389 0.068929 0.250000
O O19 0.158808 0.131846 0.750000
#
# Coordination Sequence:
#
# PCOD8258702 Si02
#       7
#     8  16  16  16  16  16  16
#     4  10  22  34  46  66  94 130 176 224 268 318
#     4  10  20  35  55  80 107 137 176 219 264 318
#     4  10  21  36  55  78 107 146 187 224 266 320
#     4  10  21  36  53  78 108 140 181 227 271 316
#     4  10  21  37  58  84 110 137 174 218 265 320
#     4  10  20  34  50  71 101 138 178 224 272 320
#     4   9  20  37  56  80 110 141 177 217 264 323
#
# _framework density 18.400991999999999
#
# number of rings (size 3 to 8) (size 9 to 14) (size 15 to 20)
#    0.000    2.154    0.000    3.692    1.077    8.615 
#    0.000    0.000    0.000    0.462    0.000    0.000 
#    0.000    0.000    0.000    0.000    0.000    0.000 
#
# Total GULP energy -644703.905650 kJ/mol
# GULP energy per Si atom -12398.152032 kJ/mol
# Density = 1.835911 g / cm^3
# Si number density = 18.400992 Si / 1000 Ang^3
#
#
#
# Elastic Constant Matrix: (Units=GPa)
#
#
# Indices 1 2 3 4 5 6 
#
# 1 84.1937 48.9817 34.4819 0.0000 0.0000 0.0000
# 2 48.9817 89.6064 28.8877 0.0000 0.0000 0.0000
# 3 34.4819 28.8877 54.4250 0.0000 0.0000 0.0000
# 4 0.0000 0.0000 0.0000 36.8421 0.0000 0.0000
# 5 0.0000 0.0000 0.0000 0.0000 29.5142 0.0000
# 6 0.0000 0.0000 0.0000 0.0000 0.0000 20.1531
#
#
#
# Elastic Compliance Matrix: (Units=1/GPa)
#
#
# Indices 1 2 3 4 5 6 
#
# 1 0.020131 -0.008315 -0.008341 0.000000 0.000000 0.000000
# 2 -0.008315 0.016898 -0.003701 0.000000 0.000000 0.000000
# 3 -0.008341 -0.003701 0.025623 0.000000 0.000000 0.000000
# 4 0.000000 0.000000 0.000000 0.027143 0.000000 0.000000
# 5 0.000000 0.000000 0.000000 0.000000 0.033882 0.000000
# 6 0.000000 0.000000 0.000000 0.000000 0.000000 0.049620
#
#
# Mechanical properties :
#
#
# Convention : Reuss Voigt Hill
#
# Bulk Modulus (GPa) = 45.58296 50.32529 47.95412
# Shear Modulus (GPa) = 22.59129 25.02680 23.80905
#
# Velocity S-wave (km/s) = 3.50769 3.69193 3.60098
# Velocity P-wave (km/s) = 6.42113 6.75147 6.58837
#
# Compressibility (1/GPa) = 0.02193802
#
# Stress axis : x y z
#
# Youngs Moduli (GPa) = 49.67469 59.17691 39.02780
#
# Poissons Ratio (x) = 0.49207 0.32552
# Poissons Ratio (y) = 0.41306 0.14444
# Poissons Ratio (z) = 0.41432 0.21902
#
# Static dielectric constant tensor:
#      x y z
#    x 3.379430 0.000000 0.000000 
#    y 0.000000 3.341140 0.000000 
#    z 0.000000 0.000000 3.385410 
# 
# 
# High freq. dielectric constant tensor:
#      x y z
#    x 1.699680 0.000000 0.000000 
#    y 0.000000 1.709510 0.000000 
#    z 0.000000 0.000000 1.724180 
# 
# From -- ./inp_files/9085.got.cif
#   From: 2010.03.12/outbox.cif.g09.slc.cpg/sg63_5_cif.got.tgz:9085.got - 2010.04.10 19:34:48.
