data_PCOD8258049
_publ_section_title
;
Structure prediction by ZEFSAII (Michael W. Deem and Ramdas Pophale) SiO2 
 PCOD8258049
Probable space group: C M C M
;
_chemical_formula_sum "Si O2"
_cell_formula_units_Z 96
_cell_length_a 11.721994
_cell_length_b 18.045373
_cell_length_c 22.947557
_cell_angle_alpha 90.000000
_cell_angle_beta 90.000000
_cell_angle_gamma 90.000000
_cell_volume 4854.045193
_symmetry_space_group_name_H-M "C M C M"
_symmetry_group_IT_number 63
_symmetry_cell_setting 'orthorhombic'
loop_
_space_group_symop_operation_xyz
x,y,z
-x,-y,1/2+z
x,-y,-z
-x,y,1/2-z
-x,-y,-z
x,y,1/2-z
-x,y,z
x,-y,1/2+z
1/2+x,1/2+y,z
1/2-x,1/2-y,1/2+z
1/2+x,1/2-y,-z
1/2-x,1/2+y,1/2-z
1/2-x,1/2-y,-z
1/2+x,1/2+y,1/2-z
1/2-x,1/2+y,z
1/2+x,1/2-y,1/2+z
loop_
_atom_site_type_symbol
_atom_site_label
_atom_site_fract_x
_atom_site_fract_y
_atom_site_fract_z
Si Si1 0.500000 0.014425 0.183790
Si Si2 0.131159 0.582126 0.486951
Si Si3 0.133235 0.683771 0.599175
Si Si4 0.374474 0.439098 0.681232
Si Si5 0.725262 0.824475 0.882772
Si Si6 0.500000 0.188621 0.317851
Si Si7 0.782396 0.432419 0.181034
O O1 0.500000 0.988267 0.250000
O O2 0.500000 0.101042 0.178321
O O3 0.387943 0.980207 0.154633
O O4 0.181101 0.500000 0.500000
O O5 0.146820 0.634878 0.542008
O O6 0.196916 0.618638 0.433813
O O7 0.000000 0.574830 0.467965
O O8 0.191582 0.763052 0.589525
O O9 0.207647 0.647287 0.651162
O O10 0.000000 0.693123 0.616451
O O11 0.380975 0.437386 0.750000
O O12 0.500000 0.429338 0.653262
O O13 0.293173 0.371180 0.665180
O O14 0.328127 0.520241 0.662027
O O15 0.614252 0.785812 0.852261
O O16 0.500000 0.216206 0.250000
O O17 0.786148 0.420679 0.250000
#
# Coordination Sequence:
#
# PCOD8258049 Si02
#       7
#     8  16  16  16  16   8  16
#     4   9  16  30  57  87 111 143 191 248 290 338
#     4  10  22  40  66  93 113 150 203 258 301 353
#     4  11  24  39  60  90 123 157 200 249 306 364
#     4  10  21  37  59  87 120 159 202 244 298 363
#     4  12  22  39  60  86 125 163 193 247 305 364
#     4  11  22  36  60  92 121 158 207 248 297 360
#     4  10  19  35  60  87 118 155 199 252 299 351
#
# _framework density 19.777318999999999
#
# number of rings (size 3 to 8) (size 9 to 14) (size 15 to 20)
#    0.000    1.500    3.333    2.500    0.000    1.333 
#    1.500    0.000    0.000    3.000    0.000    0.000 
#    0.000    0.000    0.000    0.000    0.000    0.000 
#
# Total GULP energy -595100.445747 kJ/mol
# GULP energy per Si atom -12397.925953 kJ/mol
# Density = 1.973231 g / cm^3
# Si number density = 19.777319 Si / 1000 Ang^3
#
#
#
# Elastic Constant Matrix: (Units=GPa)
#
#
# Indices 1 2 3 4 5 6 
#
# 1 120.6833 44.9660 38.9894 0.0000 0.0000 0.0000
# 2 44.9660 100.9013 30.8276 0.0000 0.0000 0.0000
# 3 38.9894 30.8276 51.7159 0.0000 0.0000 0.0000
# 4 0.0000 0.0000 0.0000 28.1120 0.0000 0.0000
# 5 0.0000 0.0000 0.0000 0.0000 12.8399 0.0000
# 6 0.0000 0.0000 0.0000 0.0000 0.0000 34.9429
#
#
#
# Elastic Compliance Matrix: (Units=1/GPa)
#
#
# Indices 1 2 3 4 5 6 
#
# 1 0.011686 -0.003076 -0.006977 0.000000 0.000000 0.000000
# 2 -0.003076 0.012927 -0.005387 0.000000 0.000000 0.000000
# 3 -0.006977 -0.005387 0.027807 0.000000 0.000000 0.000000
# 4 0.000000 0.000000 0.000000 0.035572 0.000000 0.000000
# 5 0.000000 0.000000 0.000000 0.000000 0.077882 0.000000
# 6 0.000000 0.000000 0.000000 0.000000 0.000000 0.028618
#
#
# Mechanical properties :
#
#
# Convention : Reuss Voigt Hill
#
# Bulk Modulus (GPa) = 46.42199 55.87404 51.14801
# Shear Modulus (GPa) = 21.50046 25.74679 23.62363
#
# Velocity S-wave (km/s) = 3.30074 3.61201 3.45988
# Velocity P-wave (km/s) = 6.16845 6.76080 6.47141
#
# Compressibility (1/GPa) = 0.02154152
#
# Stress axis : x y z
#
# Youngs Moduli (GPa) = 85.56964 77.35512 35.96199
#
# Poissons Ratio (x) = 0.23798 0.25090
# Poissons Ratio (y) = 0.26325 0.19371
# Poissons Ratio (z) = 0.59699 0.41668
#
# Static dielectric constant tensor:
#      x y z
#    x 4.052350 0.000000 0.000000 
#    y 0.000000 3.524730 0.000000 
#    z 0.000000 0.000000 3.542270 
# 
# 
# High freq. dielectric constant tensor:
#      x y z
#    x 1.769000 0.000000 0.000000 
#    y 0.000000 1.763210 0.000000 
#    z 0.000000 0.000000 1.766580 
# 
# From -- ./inp_files/61537.got.cif
#   From: 2010.03.12/outbox.cif.g09.slc.cpg/sg63_31_cif.got.tgz:61537.got - 2010.04.10 19:34:48.
