data_PCOD8258753
_publ_section_title
;
Structure prediction by ZEFSAII (Michael W. Deem and Ramdas Pophale) SiO2 
 PCOD8258753
Probable space group: C M C M
;
_chemical_formula_sum "Si O2"
_cell_formula_units_Z 112
_cell_length_a 23.541139
_cell_length_b 13.850672
_cell_length_c 18.367180
_cell_angle_alpha 90.000000
_cell_angle_beta 90.000000
_cell_angle_gamma 90.000000
_cell_volume 5988.813636
_symmetry_space_group_name_H-M "C M C M"
_symmetry_group_IT_number 63
_symmetry_cell_setting 'orthorhombic'
loop_
_space_group_symop_operation_xyz
x,y,z
-x,-y,1/2+z
x,-y,-z
-x,y,1/2-z
-x,-y,-z
x,y,1/2-z
-x,y,z
x,-y,1/2+z
1/2+x,1/2+y,z
1/2-x,1/2-y,1/2+z
1/2+x,1/2-y,-z
1/2-x,1/2+y,1/2-z
1/2-x,1/2-y,-z
1/2+x,1/2+y,1/2-z
1/2-x,1/2+y,z
1/2+x,1/2-y,1/2+z
loop_
_atom_site_type_symbol
_atom_site_label
_atom_site_fract_x
_atom_site_fract_y
_atom_site_fract_z
Si Si1 0.564395 0.788288 0.914894
Si Si2 0.065759 0.087092 0.333453
Si Si3 0.885200 0.114563 0.664181
Si Si4 0.840024 0.394907 0.665599
Si Si5 0.228470 0.785895 0.164662
Si Si6 0.339905 0.884726 0.335110
Si Si7 0.566008 0.221146 0.916272
O O1 0.500000 0.823955 0.905701
O O2 0.571134 0.685024 0.876308
O O3 0.603905 0.870007 0.879892
O O4 0.580309 0.776738 0.999102
O O5 0.078887 0.114736 0.250000
O O6 0.084407 0.176076 0.383172
O O7 0.000000 0.060577 0.344057
O O8 0.102560 0.995245 0.358631
O O9 0.894326 0.129370 0.750000
O O10 0.821454 0.141650 0.639303
O O11 0.854665 0.376036 0.750000
O O12 0.788027 0.323869 0.642256
O O13 0.822043 0.504409 0.650853
O O14 0.235985 0.796162 0.250000
O O15 0.288921 0.818874 0.131460
O O16 0.350803 0.865762 0.250000
O O17 0.397635 0.862388 0.377865
O O18 0.500000 0.199639 0.900192
#
# Coordination Sequence:
#
# PCOD8258753 Si02
#       7
#    16  16  16  16  16  16  16
#     4  10  20  34  52  74 104 140 173 211 260 305
#     4   9  17  30  50  76 104 135 171 209 250 299
#     4   9  17  31  53  80 107 134 168 211 255 301
#     4   9  19  35  55  80 105 130 169 215 253 300
#     4   8  16  32  53  78 104 127 161 210 256 302
#     4  10  20  35  56  77 100 135 171 208 258 305
#     4  10  22  36  49  71 104 140 176 213 254 304
#
# _framework density 18.701533999999999
#
# number of rings (size 3 to 8) (size 9 to 14) (size 15 to 20)
#    0.000    2.714    0.000    2.143    0.000    5.429 
#    0.000   12.143    0.000    3.429    0.000    0.000 
#    0.000    0.000    0.000    0.000    0.000    0.000 
#
# Total GULP energy -694358.300972 kJ/mol
# GULP energy per Si atom -12399.255375 kJ/mol
# Density = 1.865897 g / cm^3
# Si number density = 18.701534 Si / 1000 Ang^3
#
#
#
# Elastic Constant Matrix: (Units=GPa)
#
#
# Indices 1 2 3 4 5 6 
#
# 1 93.0113 56.9550 41.2793 0.0000 0.0000 0.0000
# 2 56.9550 116.3459 41.7349 0.0000 0.0000 0.0000
# 3 41.2793 41.7349 67.0948 0.0000 0.0000 0.0000
# 4 0.0000 0.0000 0.0000 16.0408 0.0000 0.0000
# 5 0.0000 0.0000 0.0000 0.0000 18.1600 0.0000
# 6 0.0000 0.0000 0.0000 0.0000 0.0000 26.9291
#
#
#
# Elastic Compliance Matrix: (Units=1/GPa)
#
#
# Indices 1 2 3 4 5 6 
#
# 1 0.017608 -0.006093 -0.007043 0.000000 0.000000 0.000000
# 2 -0.006093 0.013172 -0.004445 0.000000 0.000000 0.000000
# 3 -0.007043 -0.004445 0.022002 0.000000 0.000000 0.000000
# 4 0.000000 0.000000 0.000000 0.062341 0.000000 0.000000
# 5 0.000000 0.000000 0.000000 0.000000 0.055066 0.000000
# 6 0.000000 0.000000 0.000000 0.000000 0.000000 0.037135
#
#
# Mechanical properties :
#
#
# Convention : Reuss Voigt Hill
#
# Bulk Modulus (GPa) = 56.75182 61.82115 59.28648
# Shear Modulus (GPa) = 20.13201 21.32483 20.72842
#
# Velocity S-wave (km/s) = 3.28455 3.38045 3.33285
# Velocity P-wave (km/s) = 6.69300 6.95450 6.82501
#
# Compressibility (1/GPa) = 0.01762058
#
# Stress axis : x y z
#
# Youngs Moduli (GPa) = 56.79078 75.91647 45.44998
#
# Poissons Ratio (x) = 0.46259 0.32011
# Poissons Ratio (y) = 0.34605 0.20201
# Poissons Ratio (z) = 0.39998 0.33742
#
# Static dielectric constant tensor:
#      x y z
#    x 3.473890 0.000000 0.000000 
#    y 0.000000 3.464520 0.000000 
#    z 0.000000 0.000000 3.250350 
# 
# 
# High freq. dielectric constant tensor:
#      x y z
#    x 1.722960 0.000000 0.000000 
#    y 0.000000 1.727270 0.000000 
#    z 0.000000 0.000000 1.703680 
# 
# From -- ./inp_files/36884.got.cif
#   From: 2010.03.12/outbox.cif.g09.slc.cpg/sg63_19_cif.got.tgz:36884.got - 2010.04.10 19:34:48.
