data_PCOD8258156
_publ_section_title
;
Structure prediction by ZEFSAII (Michael W. Deem and Ramdas Pophale) SiO2 
 PCOD8258156
Probable space group: C M C M
;
_chemical_formula_sum "Si O2"
_cell_formula_units_Z 64
_cell_length_a 9.200001
_cell_length_b 23.922852
_cell_length_c 14.797986
_cell_angle_alpha 90.000000
_cell_angle_beta 90.000000
_cell_angle_gamma 90.000000
_cell_volume 3256.892621
_symmetry_space_group_name_H-M "C M C M"
_symmetry_group_IT_number 63
_symmetry_cell_setting 'orthorhombic'
loop_
_space_group_symop_operation_xyz
x,y,z
-x,-y,1/2+z
x,-y,-z
-x,y,1/2-z
-x,-y,-z
x,y,1/2-z
-x,y,z
x,-y,1/2+z
1/2+x,1/2+y,z
1/2-x,1/2-y,1/2+z
1/2+x,1/2-y,-z
1/2-x,1/2+y,1/2-z
1/2-x,1/2-y,-z
1/2+x,1/2+y,1/2-z
1/2-x,1/2+y,z
1/2+x,1/2-y,1/2+z
loop_
_atom_site_type_symbol
_atom_site_label
_atom_site_fract_x
_atom_site_fract_y
_atom_site_fract_z
Si Si1 0.244769 0.985300 0.750000
Si Si2 0.771025 0.239612 0.147985
Si Si3 0.500000 0.831939 0.109672
Si Si4 0.500000 0.072659 0.750000
Si Si5 0.500000 0.895311 0.750000
Si Si6 0.000000 0.026450 0.101084
Si Si7 0.500000 0.646461 0.147048
Si Si8 0.500000 0.189410 0.414860
O O1 0.349999 0.930788 0.750000
O O2 0.144873 0.988538 0.840544
O O3 0.351856 0.037890 0.750000
O O4 0.713700 0.238858 0.250000
O O5 0.861749 0.184165 0.128116
O O6 0.633127 0.233369 0.083287
O O7 0.857338 0.296545 0.133593
O O8 0.500000 0.889851 0.161025
O O9 0.500000 0.847365 0.004926
O O10 0.500000 0.855492 0.836140
O O11 0.000000 0.092953 0.082120
O O12 0.000000 0.000000 0.000000
O O13 0.500000 0.623025 0.250000
#
# Coordination Sequence:
#
# PCOD8258156 Si02
#       8
#     8  16   8   4   4   8   8   8
#     4  10  24  42  62  88 122 160 206 254 300 356
#     4  10  19  37  61  89 118 155 198 239 298 356
#     4  11  23  41  59  82 124 168 194 233 305 370
#     4  11  24  44  60  80 126 178 200 235 304 380
#     4  11  22  40  64  94 122 152 204 261 304 348
#     4  11  22  40  65  93 121 155 202 256 307 358
#     4   9  17  33  63  84 113 156 189 235 298 353
#     4  12  22  33  61  99 118 142 200 260 293 338
#
# _framework density 19.650632999999999
#
# number of rings (size 3 to 8) (size 9 to 14) (size 15 to 20)
#    0.000    1.500    3.750    3.000    0.000    4.000 
#    0.000    5.000    0.000    0.000    0.000    0.000 
#    0.000    0.000    0.000    0.000    0.000    0.000 
#
# Total GULP energy -396640.792683 kJ/mol
# GULP energy per Si atom -12395.024771 kJ/mol
# Density = 1.960591 g / cm^3
# Si number density = 19.650633 Si / 1000 Ang^3
#
#
#
# Elastic Constant Matrix: (Units=GPa)
#
#
# Indices 1 2 3 4 5 6 
#
# 1 133.3351 41.4761 41.1398 0.0000 0.0000 0.0000
# 2 41.4761 110.4532 29.3663 0.0000 0.0000 0.0000
# 3 41.1398 29.3663 101.2124 0.0000 0.0000 0.0000
# 4 0.0000 0.0000 0.0000 13.6534 0.0000 0.0000
# 5 0.0000 0.0000 0.0000 0.0000 20.2568 0.0000
# 6 0.0000 0.0000 0.0000 0.0000 0.0000 1.5341
#
#
#
# Elastic Compliance Matrix: (Units=1/GPa)
#
#
# Indices 1 2 3 4 5 6 
#
# 1 0.009255 -0.002682 -0.002984 0.000000 0.000000 0.000000
# 2 -0.002682 0.010588 -0.001982 0.000000 0.000000 0.000000
# 3 -0.002984 -0.001982 0.011668 0.000000 0.000000 0.000000
# 4 0.000000 0.000000 0.000000 0.073242 0.000000 0.000000
# 5 0.000000 0.000000 0.000000 0.000000 0.049366 0.000000
# 6 0.000000 0.000000 0.000000 0.000000 0.000000 0.651849
#
#
# Mechanical properties :
#
#
# Convention : Reuss Voigt Hill
#
# Bulk Modulus (GPa) = 61.66922 63.21835 62.44379
# Shear Modulus (GPa) = 6.04838 22.62343 14.33590
#
# Velocity S-wave (km/s) = 1.75631 3.39674 2.70393
# Velocity P-wave (km/s) = 5.96354 6.90107 6.44936
#
# Compressibility (1/GPa) = 0.01621554
#
# Stress axis : x y z
#
# Youngs Moduli (GPa) = 108.05253 94.44992 85.70473
#
# Poissons Ratio (x) = 0.25331 0.25571
# Poissons Ratio (y) = 0.28980 0.16985
# Poissons Ratio (z) = 0.32239 0.18718
#
# Static dielectric constant tensor:
#      x y z
#    x 3.976170 0.000000 0.000000 
#    y 0.000000 3.455070 0.000000 
#    z 0.000000 0.000000 3.612280 
# 
# 
# High freq. dielectric constant tensor:
#      x y z
#    x 1.782140 0.000000 0.000000 
#    y 0.000000 1.756850 0.000000 
#    z 0.000000 0.000000 1.763650 
# 
# From -- ./inp_files/27685.got.cif
#   From: 2010.03.12/outbox.cif.g09.slc.cpg/sg63_14_cif.got.tgz:27685.got - 2010.04.10 19:34:48.
