data_PCOD8258551
_publ_section_title
;
Structure prediction by ZEFSAII (Michael W. Deem and Ramdas Pophale) SiO2 
 PCOD8258551
Probable space group: C M C M
;
_chemical_formula_sum "Si O2"
_cell_formula_units_Z 96
_cell_length_a 9.131626
_cell_length_b 30.830827
_cell_length_c 18.587824
_cell_angle_alpha 90.000000
_cell_angle_beta 90.000000
_cell_angle_gamma 90.000000
_cell_volume 5233.133837
_symmetry_space_group_name_H-M "C M C M"
_symmetry_group_IT_number 63
_symmetry_cell_setting 'orthorhombic'
loop_
_space_group_symop_operation_xyz
x,y,z
-x,-y,1/2+z
x,-y,-z
-x,y,1/2-z
-x,-y,-z
x,y,1/2-z
-x,y,z
x,-y,1/2+z
1/2+x,1/2+y,z
1/2-x,1/2-y,1/2+z
1/2+x,1/2-y,-z
1/2-x,1/2+y,1/2-z
1/2-x,1/2-y,-z
1/2+x,1/2+y,1/2-z
1/2-x,1/2+y,z
1/2+x,1/2-y,1/2+z
loop_
_atom_site_type_symbol
_atom_site_label
_atom_site_fract_x
_atom_site_fract_y
_atom_site_fract_z
Si Si1 0.663958 0.452506 0.835763
Si Si2 0.670607 0.708403 0.087327
Si Si3 0.166213 0.368232 0.835413
Si Si4 0.170438 0.368680 0.166253
Si Si5 0.170282 0.204293 0.579720
Si Si6 0.337909 0.965848 0.335368
O O1 0.663408 0.453304 0.750000
O O2 0.500000 0.447065 0.865976
O O3 0.761633 0.412672 0.864096
O O4 0.728905 0.497664 0.866496
O O5 0.500000 0.711217 0.105680
O O6 0.742558 0.671815 0.135549
O O7 0.743176 0.753997 0.108625
O O8 0.699896 0.697276 0.004414
O O9 0.170797 0.366504 0.750000
O O10 0.000000 0.366151 0.864070
O O11 0.202515 0.360721 0.250000
O O12 0.272686 0.337760 0.120290
O O13 0.214649 0.417625 0.143318
O O14 0.000000 0.360082 0.149242
O O15 0.000000 0.211295 0.596265
O O16 0.345280 0.969075 0.250000
O O17 0.500000 0.974705 0.366710
#
# Coordination Sequence:
#
# PCOD8258551 Si02
#       6
#    16  16  16  16  16  16
#     4   9  16  26  43  69 100 132 164 198 240 289
#     4  10  21  37  55  73  96 129 167 204 246 298
#     4  10  20  33  51  76 103 130 163 204 248 292
#     4   9  18  32  51  76 104 134 167 203 245 291
#     4  10  21  36  54  75  98 128 166 205 247 296
#     4   8  14  26  44  67  97 131 165 199 236 283
#
# _framework density 18.344647999999999
#
# number of rings (size 3 to 8) (size 9 to 14) (size 15 to 20)
#    0.000    2.667    0.000    3.000    0.000    6.667 
#    0.000    1.667    0.000    1.000    0.000    7.000 
#    0.000    0.000    0.000    0.000    0.000    0.000 
#
# Total GULP energy -595182.768990 kJ/mol
# GULP energy per Si atom -12399.641021 kJ/mol
# Density = 1.830289 g / cm^3
# Si number density = 18.344648 Si / 1000 Ang^3
#
#
#
# Elastic Constant Matrix: (Units=GPa)
#
#
# Indices 1 2 3 4 5 6 
#
# 1 129.2782 76.5107 23.5630 0.0000 0.0000 0.0000
# 2 76.5107 143.2003 23.6673 0.0000 0.0000 0.0000
# 3 23.5630 23.6673 15.3273 0.0000 0.0000 0.0000
# 4 0.0000 0.0000 0.0000 -11.1287 0.0000 0.0000
# 5 0.0000 0.0000 0.0000 0.0000 22.6921 0.0000
# 6 0.0000 0.0000 0.0000 0.0000 0.0000 40.5297
#
#
#
# Elastic Compliance Matrix: (Units=1/GPa)
#
#
# Indices 1 2 3 4 5 6 
#
# 1 0.012827 -0.004826 -0.012268 0.000000 0.000000 0.000000
# 2 -0.004826 0.011192 -0.009862 0.000000 0.000000 0.000000
# 3 -0.012268 -0.009862 0.099332 0.000000 0.000000 0.000000
# 4 0.000000 0.000000 0.000000 -0.089858 0.000000 0.000000
# 5 0.000000 0.000000 0.000000 0.000000 0.044068 0.000000
# 6 0.000000 0.000000 0.000000 0.000000 0.000000 0.024673
#
#
# Mechanical properties :
#
#
# Convention : Reuss Voigt Hill
#
# Bulk Modulus (GPa) = 14.40126 59.47642 36.93884
# Shear Modulus (GPa) = 27.88728 21.35628 24.62178
#
# Velocity S-wave (km/s) = 3.90319 3.41569 3.66755
# Velocity P-wave (km/s) = 5.30854 6.93167 6.17368
#
# Compressibility (1/GPa) = 0.06943839
#
# Stress axis : x y z
#
# Youngs Moduli (GPa) = 77.95772 89.35170 10.06727
#
# Poissons Ratio (x) = 0.43121 0.12350
# Poissons Ratio (y) = 0.37623 0.09929
# Poissons Ratio (z) = 0.95638 0.88122
#
# Static dielectric constant tensor:
#      x y z
#    x 3.589030 0.000000 0.000000 
#    y 0.000000 3.575410 0.000000 
#    z 0.000000 0.000000 2.934010 
# 
# 
# High freq. dielectric constant tensor:
#      x y z
#    x 1.722950 0.000000 0.000000 
#    y 0.000000 1.727360 0.000000 
#    z 0.000000 0.000000 1.662180 
# 
# From -- ./inp_files/51372.got.cif
#   From: 2010.03.12/outbox.cif.g09.slc.cpg/sg63_26_cif.got.tgz:51372.got - 2010.04.10 19:34:48.
