data_PCOD8258883
_publ_section_title
;
Structure prediction by ZEFSAII (Michael W. Deem and Ramdas Pophale) SiO2 
 PCOD8258883
Probable space group: C M C M
;
_chemical_formula_sum "Si O2"
_cell_formula_units_Z 96
_cell_length_a 9.161176
_cell_length_b 20.089729
_cell_length_c 28.863103
_cell_angle_alpha 90.000000
_cell_angle_beta 90.000000
_cell_angle_gamma 90.000000
_cell_volume 5312.125469
_symmetry_space_group_name_H-M "C M C M"
_symmetry_group_IT_number 63
_symmetry_cell_setting 'orthorhombic'
loop_
_space_group_symop_operation_xyz
x,y,z
-x,-y,1/2+z
x,-y,-z
-x,y,1/2-z
-x,-y,-z
x,y,1/2-z
-x,y,z
x,-y,1/2+z
1/2+x,1/2+y,z
1/2-x,1/2-y,1/2+z
1/2+x,1/2-y,-z
1/2-x,1/2+y,1/2-z
1/2-x,1/2-y,-z
1/2+x,1/2+y,1/2-z
1/2-x,1/2+y,z
1/2+x,1/2-y,1/2+z
loop_
_atom_site_type_symbol
_atom_site_label
_atom_site_fract_x
_atom_site_fract_y
_atom_site_fract_z
Si Si1 0.170234 0.305351 0.029366
Si Si2 0.830762 0.059835 0.862327
Si Si3 0.331388 0.562283 0.530659
Si Si4 0.167299 0.299600 0.803522
Si Si5 0.669985 0.193545 0.863181
Si Si6 0.333079 0.046805 0.303559
O O1 0.232982 0.376505 0.014144
O O2 0.203469 0.292201 0.083180
O O3 0.000000 0.303639 0.018029
O O4 0.250000 0.250000 0.000000
O O5 0.801100 0.044538 0.916056
O O6 0.749472 0.126689 0.846187
O O7 0.000000 0.070107 0.851597
O O8 0.774062 0.997114 0.834009
O O9 0.283017 0.500000 0.500000
O O10 0.500000 0.581090 0.522377
O O11 0.195473 0.282460 0.750000
O O12 0.273953 0.256115 0.834523
O O13 0.203882 0.376402 0.813402
O O14 0.000000 0.284156 0.816703
O O15 0.500000 0.183685 0.853792
O O16 0.306499 0.029786 0.250000
O O17 0.500000 0.031468 0.317216
#
# Coordination Sequence:
#
# PCOD8258883 Si02
#       6
#    16  16  16  16  16  16
#     4  10  21  36  54  77 105 137 174 214 256 306
#     4  10  20  34  54  78 104 136 172 211 255 303
#     4   9  19  36  55  76 105 137 169 210 258 305
#     4   9  19  36  56  78 105 137 173 213 258 308
#     4  10  21  36  54  77 105 137 174 215 257 304
#     4   9  19  36  55  75 103 137 170 209 257 305
#
# _framework density 18.071861999999999
#
# number of rings (size 3 to 8) (size 9 to 14) (size 15 to 20)
#    0.000    2.500    0.000    2.500    0.000    6.333 
#    0.000    6.667    0.000    0.000    0.000    0.000 
#    0.000    0.000    0.000    0.000    0.000    0.000 
#
# Total GULP energy -595377.209641 kJ/mol
# GULP energy per Si atom -12403.691868 kJ/mol
# Density = 1.803073 g / cm^3
# Si number density = 18.071862 Si / 1000 Ang^3
#
#
#
# Elastic Constant Matrix: (Units=GPa)
#
#
# Indices 1 2 3 4 5 6 
#
# 1 111.6158 82.7237 59.0875 0.0000 0.0000 0.0000
# 2 82.7237 135.3800 74.0426 0.0000 0.0000 0.0000
# 3 59.0875 74.0426 71.6940 0.0000 0.0000 0.0000
# 4 0.0000 0.0000 0.0000 39.7124 0.0000 0.0000
# 5 0.0000 0.0000 0.0000 0.0000 32.5888 0.0000
# 6 0.0000 0.0000 0.0000 0.0000 0.0000 41.2442
#
#
#
# Elastic Compliance Matrix: (Units=1/GPa)
#
#
# Indices 1 2 3 4 5 6 
#
# 1 0.018207 -0.006707 -0.008079 0.000000 0.000000 0.000000
# 2 -0.006707 0.019445 -0.014555 0.000000 0.000000 0.000000
# 3 -0.008079 -0.014555 0.035638 0.000000 0.000000 0.000000
# 4 0.000000 0.000000 0.000000 0.025181 0.000000 0.000000
# 5 0.000000 0.000000 0.000000 0.000000 0.030685 0.000000
# 6 0.000000 0.000000 0.000000 0.000000 0.000000 0.024246
#
#
# Mechanical properties :
#
#
# Convention : Reuss Voigt Hill
#
# Bulk Modulus (GPa) = 68.44982 83.37749 75.91366
# Shear Modulus (GPa) = 23.04653 29.56481 26.30567
#
# Velocity S-wave (km/s) = 3.57497 4.04909 3.81939
# Velocity P-wave (km/s) = 7.41615 8.25209 7.84526
#
# Compressibility (1/GPa) = 0.01460924
#
# Stress axis : x y z
#
# Youngs Moduli (GPa) = 54.92459 51.42717 28.05991
#
# Poissons Ratio (x) = 0.34490 0.22670
# Poissons Ratio (y) = 0.36836 0.40840
# Poissons Ratio (z) = 0.44374 0.74850
#
# Static dielectric constant tensor:
#      x y z
#    x 3.364270 0.000000 0.000000 
#    y 0.000000 3.354810 0.000000 
#    z 0.000000 0.000000 3.272260 
# 
# 
# High freq. dielectric constant tensor:
#      x y z
#    x 1.706920 0.000000 0.000000 
#    y 0.000000 1.706310 0.000000 
#    z 0.000000 0.000000 1.695880 
# 
# From -- ./inp_files/66939.got.cif
#   From: 2010.03.12/outbox.cif.g09.slc.cpg/sg63_34_cif.got.tgz:66939.got - 2010.04.10 19:34:48.
