data_PCOD8258115
_publ_section_title
;
Structure prediction by ZEFSAII (Michael W. Deem and Ramdas Pophale) SiO2 
 PCOD8258115
Probable space group: C M C M
;
_chemical_formula_sum "Si O2"
_cell_formula_units_Z 72
_cell_length_a 25.526788
_cell_length_b 17.175331
_cell_length_c 8.502999
_cell_angle_alpha 90.000000
_cell_angle_beta 90.000000
_cell_angle_gamma 90.000000
_cell_volume 3727.978637
_symmetry_space_group_name_H-M "C M C M"
_symmetry_group_IT_number 63
_symmetry_cell_setting 'orthorhombic'
loop_
_space_group_symop_operation_xyz
x,y,z
-x,-y,1/2+z
x,-y,-z
-x,y,1/2-z
-x,-y,-z
x,y,1/2-z
-x,y,z
x,-y,1/2+z
1/2+x,1/2+y,z
1/2-x,1/2-y,1/2+z
1/2+x,1/2-y,-z
1/2-x,1/2+y,1/2-z
1/2-x,1/2-y,-z
1/2+x,1/2+y,1/2-z
1/2-x,1/2+y,z
1/2+x,1/2-y,1/2+z
loop_
_atom_site_type_symbol
_atom_site_label
_atom_site_fract_x
_atom_site_fract_y
_atom_site_fract_z
Si Si1 0.500000 0.412496 0.936094
Si Si2 0.663208 0.921003 0.566844
Si Si3 0.807395 0.741436 0.933133
Si Si4 0.555468 0.135301 0.066873
Si Si5 0.410468 0.697883 0.563360
O O1 0.500000 0.414642 0.750000
O O2 0.500000 0.500000 0.000000
O O3 0.553617 0.370459 0.992369
O O4 0.677403 0.909274 0.750000
O O5 0.680921 0.848456 0.465836
O O6 0.600660 0.927467 0.536241
O O7 0.689150 0.000000 0.500000
O O8 0.807890 0.759277 0.750000
O O9 0.750000 0.750000 0.000000
O O10 0.848935 0.802080 0.011771
O O11 0.550211 0.150896 0.250000
O O12 0.500000 0.104743 0.996462
O O13 0.567937 0.220329 0.995139
O O14 0.412903 0.690181 0.750000
#
# Coordination Sequence:
#
# PCOD8258115 Si02
#       5
#     8  16  16  16  16
#     4  12  24  38  58  88 123 162 203 250 306 366
#     4  10  20  34  53  79 113 150 188 232 284 333
#     4  11  22  39  62  88 115 150 198 245 294 358
#     4   8  14  27  50  77 106 145 184 219 265 322
#     4  10  19  36  60  85 116 153 193 242 296 350
#
# _framework density 19.313416
#
# number of rings (size 3 to 8) (size 9 to 14) (size 15 to 20)
#    0.000    2.000    1.111    5.667    0.000    0.444 
#    0.000    1.111    0.000    0.000    0.000    0.000 
#    0.000    0.000    0.000    0.000    0.000    0.000 
#
# Total GULP energy -445983.172379 kJ/mol
# GULP energy per Si atom -12388.421455 kJ/mol
# Density = 1.926946 g / cm^3
# Si number density = 19.313416 Si / 1000 Ang^3
#
#
#
# Elastic Constant Matrix: (Units=GPa)
#
#
# Indices 1 2 3 4 5 6 
#
# 1 131.8179 32.2618 38.7242 0.0000 0.0000 0.0000
# 2 32.2618 92.3467 33.0927 0.0000 0.0000 0.0000
# 3 38.7242 33.0927 109.6366 0.0000 0.0000 0.0000
# 4 0.0000 0.0000 0.0000 28.3558 0.0000 0.0000
# 5 0.0000 0.0000 0.0000 0.0000 29.1051 0.0000
# 6 0.0000 0.0000 0.0000 0.0000 0.0000 14.8208
#
#
#
# Elastic Compliance Matrix: (Units=1/GPa)
#
#
# Indices 1 2 3 4 5 6 
#
# 1 0.008849 -0.002211 -0.002458 0.000000 0.000000 0.000000
# 2 -0.002211 0.012694 -0.003051 0.000000 0.000000 0.000000
# 3 -0.002458 -0.003051 0.010910 0.000000 0.000000 0.000000
# 4 0.000000 0.000000 0.000000 0.035266 0.000000 0.000000
# 5 0.000000 0.000000 0.000000 0.000000 0.034358 0.000000
# 6 0.000000 0.000000 0.000000 0.000000 0.000000 0.067473
#
#
# Mechanical properties :
#
#
# Convention : Reuss Voigt Hill
#
# Bulk Modulus (GPa) = 58.77429 60.21762 59.49596
# Shear Modulus (GPa) = 26.22437 29.77118 27.99778
#
# Velocity S-wave (km/s) = 3.68887 3.93042 3.81156
# Velocity P-wave (km/s) = 6.97436 7.20031 7.08823
#
# Compressibility (1/GPa) = 0.01701424
#
# Stress axis : x y z
#
# Youngs Moduli (GPa) = 113.00106 78.77532 91.65710
#
# Poissons Ratio (x) = 0.17414 0.22533
# Poissons Ratio (y) = 0.24980 0.27963
# Poissons Ratio (z) = 0.27780 0.24033
#
# Static dielectric constant tensor:
#      x y z
#    x 3.993160 0.000000 0.000000 
#    y 0.000000 3.325650 0.000000 
#    z 0.000000 0.000000 3.227250 
# 
# 
# High freq. dielectric constant tensor:
#      x y z
#    x 1.754620 0.000000 0.000000 
#    y 0.000000 1.734840 0.000000 
#    z 0.000000 0.000000 1.747030 
# 
# From -- ./inp_files/11718.got.cif
#   From: 2010.03.12/outbox.cif.g09.slc.cpg/sg63_6_cif.got.tgz:11718.got - 2010.04.10 19:34:48.
