data_PCOD8258690
_publ_section_title
;
Structure prediction by ZEFSAII (Michael W. Deem and Ramdas Pophale) SiO2 
 PCOD8258690
Probable space group: C M C M
;
_chemical_formula_sum "Si O2"
_cell_formula_units_Z 104
_cell_length_a 26.964967
_cell_length_b 23.464311
_cell_length_c 9.085074
_cell_angle_alpha 90.000000
_cell_angle_beta 90.000000
_cell_angle_gamma 90.000000
_cell_volume 5748.256889
_symmetry_space_group_name_H-M "C M C M"
_symmetry_group_IT_number 63
_symmetry_cell_setting 'orthorhombic'
loop_
_space_group_symop_operation_xyz
x,y,z
-x,-y,1/2+z
x,-y,-z
-x,y,1/2-z
-x,-y,-z
x,y,1/2-z
-x,y,z
x,-y,1/2+z
1/2+x,1/2+y,z
1/2-x,1/2-y,1/2+z
1/2+x,1/2-y,-z
1/2-x,1/2+y,1/2-z
1/2-x,1/2-y,-z
1/2+x,1/2+y,1/2-z
1/2-x,1/2+y,z
1/2+x,1/2-y,1/2+z
loop_
_atom_site_type_symbol
_atom_site_label
_atom_site_fract_x
_atom_site_fract_y
_atom_site_fract_z
Si Si1 0.920234 0.346832 0.075986
Si Si2 0.500000 0.061717 0.574125
Si Si3 0.322311 0.213259 0.577355
Si Si4 0.788432 0.821684 0.423072
Si Si5 0.430493 0.554420 0.584044
Si Si6 0.500000 0.760738 0.075517
Si Si7 0.500000 0.365973 0.925454
Si Si8 0.813463 0.054793 0.585289
O O1 0.919547 0.350784 0.250000
O O2 0.863927 0.332785 0.020034
O O3 0.951213 0.292858 0.018357
O O4 0.949510 0.404226 0.022083
O O5 0.500000 0.054883 0.750000
O O6 0.500000 0.000000 0.500000
O O7 0.329814 0.224200 0.750000
O O8 0.268936 0.187913 0.539055
O O9 0.324665 0.275244 0.499005
O O10 0.799620 0.819045 0.250000
O O11 0.798632 0.884879 0.487408
O O12 0.452447 0.500000 0.500000
O O13 0.451303 0.555545 0.750000
O O14 0.450010 0.608058 0.492831
O O15 0.372057 0.552902 0.584635
O O16 0.500000 0.760946 0.250000
O O17 0.500000 0.697779 0.013795
O O18 0.500000 0.371125 0.750000
O O19 0.791874 0.051215 0.750000
O O20 0.791349 0.000000 0.500000
#
# Coordination Sequence:
#
# PCOD8258690 Si02
#       8
#    16   8  16  16  16   8   8  16
#     4   8  15  30  50  72  97 128 161 195 231 277
#     4   9  17  32  54  75 102 133 165 201 240 289
#     4   9  17  30  52  75  96 127 165 196 235 296
#     4   9  18  32  48  72 102 127 155 201 253 290
#     4  10  20  34  48  62  85 120 158 194 233 280
#     4   8  16  28  43  68  97 120 152 193 229 266
#     4  11  21  30  45  69  92 115 148 198 240 275
#     4   9  19  34  50  67  92 126 162 199 239 282
#
# _framework density 18.092441000000001
#
# number of rings (size 3 to 8) (size 9 to 14) (size 15 to 20)
#    0.000    2.923    0.000    1.846    2.154    1.231 
#    0.000    1.538    0.000    3.692    0.000    0.000 
#    0.000    0.000    0.000    0.000    0.000    0.000 
#
# Total GULP energy -644192.719908 kJ/mol
# GULP energy per Si atom -12388.321537 kJ/mol
# Density = 1.805126 g / cm^3
# Si number density = 18.092441 Si / 1000 Ang^3
#
#
#
# Elastic Constant Matrix: (Units=GPa)
#
#
# Indices 1 2 3 4 5 6 
#
# 1 75.2617 45.9446 17.0078 0.0000 0.0000 0.0000
# 2 45.9446 169.7345 43.5620 0.0000 0.0000 0.0000
# 3 17.0078 43.5620 54.5030 0.0000 0.0000 0.0000
# 4 0.0000 0.0000 0.0000 29.4848 0.0000 0.0000
# 5 0.0000 0.0000 0.0000 0.0000 14.7340 0.0000
# 6 0.0000 0.0000 0.0000 0.0000 0.0000 31.5463
#
#
#
# Elastic Compliance Matrix: (Units=1/GPa)
#
#
# Indices 1 2 3 4 5 6 
#
# 1 0.016078 -0.003855 -0.001936 0.000000 0.000000 0.000000
# 2 -0.003855 0.008336 -0.005460 0.000000 0.000000 0.000000
# 3 -0.001936 -0.005460 0.023316 0.000000 0.000000 0.000000
# 4 0.000000 0.000000 0.000000 0.033916 0.000000 0.000000
# 5 0.000000 0.000000 0.000000 0.000000 0.067870 0.000000
# 6 0.000000 0.000000 0.000000 0.000000 0.000000 0.031699
#
#
# Mechanical properties :
#
#
# Convention : Reuss Voigt Hill
#
# Bulk Modulus (GPa) = 39.63852 56.94753 48.29303
# Shear Modulus (GPa) = 23.57086 28.01869 25.79477
#
# Velocity S-wave (km/s) = 3.61335 3.93955 3.77997
# Velocity P-wave (km/s) = 6.27414 7.22756 6.76766
#
# Compressibility (1/GPa) = 0.02522798
#
# Stress axis : x y z
#
# Youngs Moduli (GPa) = 62.19713 119.95617 42.88978
#
# Poissons Ratio (x) = 0.46246 0.08303
# Poissons Ratio (y) = 0.23978 0.23417
# Poissons Ratio (z) = 0.12040 0.65495
#
# Static dielectric constant tensor:
#      x y z
#    x 3.432690 0.000000 0.000000 
#    y 0.000000 3.600500 0.000000 
#    z 0.000000 0.000000 3.213340 
# 
# 
# High freq. dielectric constant tensor:
#      x y z
#    x 1.695440 0.000000 0.000000 
#    y 0.000000 1.704140 0.000000 
#    z 0.000000 0.000000 1.672960 
# 
# From -- ./inp_files/14704.got.cif
#   From: 2010.03.12/outbox.cif.g09.slc.cpg/sg63_8_cif.got.tgz:14704.got - 2010.04.10 19:34:48.
