data_PCOD8258849
_publ_section_title
;
Structure prediction by ZEFSAII (Michael W. Deem and Ramdas Pophale) SiO2 
 PCOD8258849
Probable space group: C M C M
;
_chemical_formula_sum "Si O2"
_cell_formula_units_Z 88
_cell_length_a 16.151682
_cell_length_b 29.907349
_cell_length_c 9.485124
_cell_angle_alpha 90.000000
_cell_angle_beta 90.000000
_cell_angle_gamma 90.000000
_cell_volume 4581.826999
_symmetry_space_group_name_H-M "C M C M"
_symmetry_group_IT_number 63
_symmetry_cell_setting 'orthorhombic'
loop_
_space_group_symop_operation_xyz
x,y,z
-x,-y,1/2+z
x,-y,-z
-x,y,1/2-z
-x,-y,-z
x,y,1/2-z
-x,y,z
x,-y,1/2+z
1/2+x,1/2+y,z
1/2-x,1/2-y,1/2+z
1/2+x,1/2-y,-z
1/2-x,1/2+y,1/2-z
1/2-x,1/2-y,-z
1/2+x,1/2+y,1/2-z
1/2-x,1/2+y,z
1/2+x,1/2-y,1/2+z
loop_
_atom_site_type_symbol
_atom_site_label
_atom_site_fract_x
_atom_site_fract_y
_atom_site_fract_z
Si Si1 0.403170 0.960227 0.593146
Si Si2 0.000000 0.046588 0.581545
Si Si3 0.904951 0.708416 0.912036
Si Si4 0.097760 0.209063 0.907445
Si Si5 0.641592 0.386808 0.414342
Si Si6 0.330413 0.114300 0.587609
O O1 0.363126 0.960169 0.750000
O O2 0.500000 0.968237 0.607854
O O3 0.388431 0.913567 0.515561
O O4 0.362821 0.000000 0.500000
O O5 0.919171 0.074364 0.529501
O O6 0.000000 0.038111 0.750000
O O7 0.000000 0.000000 0.500000
O O8 0.899141 0.722441 0.750000
O O9 0.846611 0.666197 0.944942
O O10 0.000000 0.696736 0.952444
O O11 0.868391 0.749695 0.000835
O O12 0.135975 0.213157 0.750000
O O13 0.122874 0.161998 0.980789
O O14 0.000000 0.211735 0.901040
O O15 0.623094 0.381417 0.250000
O O16 0.736162 0.399520 0.445828
O O17 0.353404 0.103607 0.750000
#
# Coordination Sequence:
#
# PCOD8258849 Si02
#       6
#    16   8  16  16  16  16
#     4  10  21  37  57  79 104 137 176 215 258 311
#     4  10  20  38  60  80 104 134 176 226 277 328
#     4   9  18  31  47  72 107 143 174 213 265 315
#     4   9  16  30  53  75  98 137 185 222 257 312
#     4   9  18  34  56  78 102 137 178 221 268 320
#     4  10  20  34  53  78 109 143 177 216 266 320
#
# _framework density 19.206313000000002
#
# number of rings (size 3 to 8) (size 9 to 14) (size 15 to 20)
#    0.000    2.545    0.909    1.091    0.000    4.000 
#    0.000    6.364    0.000    0.000    0.000    0.000 
#    0.000    0.000    0.000    0.000    0.000    0.000 
#
# Total GULP energy -545518.775689 kJ/mol
# GULP energy per Si atom -12398.153993 kJ/mol
# Density = 1.916260 g / cm^3
# Si number density = 19.206313 Si / 1000 Ang^3
#
#
#
# Elastic Constant Matrix: (Units=GPa)
#
#
# Indices 1 2 3 4 5 6 
#
# 1 51.6554 30.8606 20.1268 0.0000 0.0000 0.0000
# 2 30.8606 140.2473 68.2523 0.0000 0.0000 0.0000
# 3 20.1268 68.2523 88.8177 0.0000 0.0000 0.0000
# 4 0.0000 0.0000 0.0000 36.7452 0.0000 0.0000
# 5 0.0000 0.0000 0.0000 0.0000 13.4896 0.0000
# 6 0.0000 0.0000 0.0000 0.0000 0.0000 15.8244
#
#
#
# Elastic Compliance Matrix: (Units=1/GPa)
#
#
# Indices 1 2 3 4 5 6 
#
# 1 0.022525 -0.003949 -0.002069 0.000000 0.000000 0.000000
# 2 -0.003949 0.012082 -0.008390 0.000000 0.000000 0.000000
# 3 -0.002069 -0.008390 0.018175 0.000000 0.000000 0.000000
# 4 0.000000 0.000000 0.000000 0.027214 0.000000 0.000000
# 5 0.000000 0.000000 0.000000 0.000000 0.074131 0.000000
# 6 0.000000 0.000000 0.000000 0.000000 0.000000 0.063193
#
#
# Mechanical properties :
#
#
# Convention : Reuss Voigt Hill
#
# Bulk Modulus (GPa) = 41.72717 57.68886 49.70802
# Shear Modulus (GPa) = 19.67527 23.97723 21.82625
#
# Velocity S-wave (km/s) = 3.20412 3.53711 3.37473
# Velocity P-wave (km/s) = 5.95495 6.83982 6.41267
#
# Compressibility (1/GPa) = 0.02396520
#
# Stress axis : x y z
#
# Youngs Moduli (GPa) = 44.39543 82.76667 55.02065
#
# Poissons Ratio (x) = 0.32688 0.11386
# Poissons Ratio (y) = 0.17533 0.46160
# Poissons Ratio (z) = 0.09187 0.69438
#
# Static dielectric constant tensor:
#      x y z
#    x 3.345240 0.000000 0.000000 
#    y 0.000000 3.547000 0.000000 
#    z 0.000000 0.000000 3.573500 
# 
# 
# High freq. dielectric constant tensor:
#      x y z
#    x 1.733300 0.000000 0.000000 
#    y 0.000000 1.754420 0.000000 
#    z 0.000000 0.000000 1.722300 
# 
# From -- ./inp_files/6901.got.cif
#   From: 2010.03.12/outbox.cif.g09.slc.cpg/sg63_4_cif.got.tgz:6901.got - 2010.04.10 19:34:48.
