data_PCOD8258529
_publ_section_title
;
Structure prediction by ZEFSAII (Michael W. Deem and Ramdas Pophale) SiO2 
 PCOD8258529
Probable space group: C M C M
;
_chemical_formula_sum "Si O2"
_cell_formula_units_Z 80
_cell_length_a 27.318085
_cell_length_b 9.556385
_cell_length_c 16.323211
_cell_angle_alpha 90.000000
_cell_angle_beta 90.000000
_cell_angle_gamma 90.000000
_cell_volume 4261.372358
_symmetry_space_group_name_H-M "C M C M"
_symmetry_group_IT_number 63
_symmetry_cell_setting 'orthorhombic'
loop_
_space_group_symop_operation_xyz
x,y,z
-x,-y,1/2+z
x,-y,-z
-x,y,1/2-z
-x,-y,-z
x,y,1/2-z
-x,y,z
x,-y,1/2+z
1/2+x,1/2+y,z
1/2-x,1/2-y,1/2+z
1/2+x,1/2-y,-z
1/2-x,1/2+y,1/2-z
1/2-x,1/2-y,-z
1/2+x,1/2+y,1/2-z
1/2-x,1/2+y,z
1/2+x,1/2-y,1/2+z
loop_
_atom_site_type_symbol
_atom_site_label
_atom_site_fract_x
_atom_site_fract_y
_atom_site_fract_z
Si Si1 0.443998 0.770007 0.910864
Si Si2 0.703094 0.341709 0.018533
Si Si3 0.608576 0.302158 0.574006
Si Si4 0.555131 0.935307 0.157152
Si Si5 0.366252 0.410315 0.342410
O O1 0.500000 0.731804 0.891703
O O2 0.409878 0.701932 0.841477
O O3 0.435813 0.937233 0.905654
O O4 0.430196 0.710164 0.000098
O O5 0.681104 0.344548 0.111041
O O6 0.717468 0.500000 0.000000
O O7 0.750000 0.250000 0.000000
O O8 0.662773 0.273251 0.959247
O O9 0.593992 0.188156 0.641647
O O10 0.610052 0.456524 0.611995
O O11 0.562238 0.988541 0.250000
O O12 0.500000 0.876815 0.144468
O O13 0.350197 0.446815 0.250000
#
# Coordination Sequence:
#
# PCOD8258529 Si02
#       5
#    16  16  16  16  16
#     4  10  20  34  52  77 111 150 189 226 268 324
#     4   9  20  38  58  79 104 136 173 217 270 326
#     4  10  20  35  56  78 105 143 184 224 269 329
#     4  10  20  33  50  77 112 145 182 231 279 320
#     4  10  21  37  55  79 111 142 179 228 276 323
#
# _framework density 18.773295000000001
#
# number of rings (size 3 to 8) (size 9 to 14) (size 15 to 20)
#    0.000    2.200    0.000    4.200    0.000    8.400 
#    0.000    5.000    0.000    0.000    0.000    0.000 
#    0.000    0.000    0.000    0.000    0.000    0.000 
#
# Total GULP energy -495787.274959 kJ/mol
# GULP energy per Si atom -12394.681874 kJ/mol
# Density = 1.873057 g / cm^3
# Si number density = 18.773295 Si / 1000 Ang^3
#
#
#
# Elastic Constant Matrix: (Units=GPa)
#
#
# Indices 1 2 3 4 5 6 
#
# 1 125.3315 66.6719 45.5476 0.0000 0.0000 0.0000
# 2 66.6719 87.3812 45.5057 0.0000 0.0000 0.0000
# 3 45.5476 45.5057 105.6866 0.0000 0.0000 0.0000
# 4 0.0000 0.0000 0.0000 30.9187 0.0000 0.0000
# 5 0.0000 0.0000 0.0000 0.0000 18.2739 0.0000
# 6 0.0000 0.0000 0.0000 0.0000 0.0000 38.9341
#
#
#
# Elastic Compliance Matrix: (Units=1/GPa)
#
#
# Indices 1 2 3 4 5 6 
#
# 1 0.013693 -0.009506 -0.001808 0.000000 0.000000 0.000000
# 2 -0.009506 0.021351 -0.005096 0.000000 0.000000 0.000000
# 3 -0.001808 -0.005096 0.012436 0.000000 0.000000 0.000000
# 4 0.000000 0.000000 0.000000 0.032343 0.000000 0.000000
# 5 0.000000 0.000000 0.000000 0.000000 0.054723 0.000000
# 6 0.000000 0.000000 0.000000 0.000000 0.000000 0.025684
#
#
# Mechanical properties :
#
#
# Convention : Reuss Voigt Hill
#
# Bulk Modulus (GPa) = 68.22008 70.42774 69.32391
# Shear Modulus (GPa) = 25.26053 28.33695 26.79874
#
# Velocity S-wave (km/s) = 3.67216 3.88935 3.78232
# Velocity P-wave (km/s) = 7.37546 7.60038 7.48876
#
# Compressibility (1/GPa) = 0.01465844
#
# Stress axis : x y z
#
# Youngs Moduli (GPa) = 73.03109 46.83559 80.41431
#
# Poissons Ratio (x) = 0.44522 0.14540
# Poissons Ratio (y) = 0.69423 0.40983
# Poissons Ratio (z) = 0.13205 0.23870
#
# Static dielectric constant tensor:
#      x y z
#    x 3.331520 0.000000 0.000000 
#    y 0.000000 3.488220 0.000000 
#    z 0.000000 0.000000 3.475960 
# 
# 
# High freq. dielectric constant tensor:
#      x y z
#    x 1.716360 0.000000 0.000000 
#    y 0.000000 1.730540 0.000000 
#    z 0.000000 0.000000 1.729220 
# 
# From -- ./inp_files/48801.got.cif
#   From: 2010.03.12/outbox.cif.g09.slc.cpg/sg63_25_cif.got.tgz:48801.got - 2010.04.10 19:34:48.
