data_PCOD8258257
_publ_section_title
;
Structure prediction by ZEFSAII (Michael W. Deem and Ramdas Pophale) SiO2 
 PCOD8258257
Probable space group: C M C M
;
_chemical_formula_sum "Si O2"
_cell_formula_units_Z 72
_cell_length_a 24.025455
_cell_length_b 22.507274
_cell_length_c 8.958282
_cell_angle_alpha 90.000000
_cell_angle_beta 90.000000
_cell_angle_gamma 90.000000
_cell_volume 4844.168584
_symmetry_space_group_name_H-M "C M C M"
_symmetry_group_IT_number 63
_symmetry_cell_setting 'orthorhombic'
loop_
_space_group_symop_operation_xyz
x,y,z
-x,-y,1/2+z
x,-y,-z
-x,y,1/2-z
-x,-y,-z
x,y,1/2-z
-x,y,z
x,-y,1/2+z
1/2+x,1/2+y,z
1/2-x,1/2-y,1/2+z
1/2+x,1/2-y,-z
1/2-x,1/2+y,1/2-z
1/2-x,1/2-y,-z
1/2+x,1/2+y,1/2-z
1/2-x,1/2+y,z
1/2+x,1/2-y,1/2+z
loop_
_atom_site_type_symbol
_atom_site_label
_atom_site_fract_x
_atom_site_fract_y
_atom_site_fract_z
Si Si1 0.779913 0.937949 0.072569
Si Si2 0.278982 0.164764 0.415532
Si Si3 0.166462 0.761376 0.585372
Si Si4 0.884708 0.879834 0.926619
Si Si5 0.000000 0.063368 0.424859
O O1 0.781073 0.942865 0.250000
O O2 0.733085 0.890626 0.023410
O O3 0.840968 0.920158 0.014871
O O4 0.762543 0.000000 0.000000
O O5 0.294714 0.141940 0.250000
O O6 0.225413 0.206106 0.407589
O O7 0.330501 0.204028 0.478207
O O8 0.149891 0.738617 0.750000
O O9 0.121784 0.810288 0.528046
O O10 0.873184 0.887808 0.750000
O O11 0.946066 0.899654 0.974979
O O12 0.000000 0.052592 0.250000
O O13 0.000000 0.000000 0.500000
#
# Coordination Sequence:
#
# PCOD8258257 Si02
#       5
#    16  16  16  16   8
#     4  11  20  29  41  57  79 106 135 165 199 238
#     4   9  16  26  40  58  78  99 126 159 195 237
#     4   8  14  25  40  57  76  98 126 161 199 238
#     4   9  18  31  44  58  77 103 137 173 207 240
#     4  10  20  32  44  58  78 106 139 176 211 240
#
# _framework density 14.863232
#
# number of rings (size 3 to 8) (size 9 to 14) (size 15 to 20)
#    0.000    2.667    0.000    4.667    0.000    8.000 
#    0.000    0.000    0.000    0.000    0.000    0.000 
#    0.000    0.000    0.000    1.000    0.000   10.000 
#
# Total GULP energy -446245.779872 kJ/mol
# GULP energy per Si atom -12395.716108 kJ/mol
# Density = 1.482940 g / cm^3
# Si number density = 14.863232 Si / 1000 Ang^3
#
#
#
# Elastic Constant Matrix: (Units=GPa)
#
#
# Indices 1 2 3 4 5 6 
#
# 1 55.8457 54.0467 26.1085 0.0000 0.0000 0.0000
# 2 54.0467 104.0141 50.9584 0.0000 0.0000 0.0000
# 3 26.1085 50.9584 89.5312 0.0000 0.0000 0.0000
# 4 0.0000 0.0000 0.0000 27.1807 0.0000 0.0000
# 5 0.0000 0.0000 0.0000 0.0000 13.7935 0.0000
# 6 0.0000 0.0000 0.0000 0.0000 0.0000 23.3079
#
#
#
# Elastic Compliance Matrix: (Units=1/GPa)
#
#
# Indices 1 2 3 4 5 6 
#
# 1 0.036023 -0.018819 0.000206 0.000000 0.000000 0.000000
# 2 -0.018819 0.023163 -0.007696 0.000000 0.000000 0.000000
# 3 0.000206 -0.007696 0.015489 0.000000 0.000000 0.000000
# 4 0.000000 0.000000 0.000000 0.036791 0.000000 0.000000
# 5 0.000000 0.000000 0.000000 0.000000 0.072498 0.000000
# 6 0.000000 0.000000 0.000000 0.000000 0.000000 0.042904
#
#
# Mechanical properties :
#
#
# Convention : Reuss Voigt Hill
#
# Bulk Modulus (GPa) = 45.33416 56.84645 51.09030
# Shear Modulus (GPa) = 17.43156 20.74160 19.08658
#
# Velocity S-wave (km/s) = 3.42833 3.73969 3.58739
# Velocity P-wave (km/s) = 6.79988 7.54827 7.18383
#
# Compressibility (1/GPa) = 0.02205842
#
# Stress axis : x y z
#
# Youngs Moduli (GPa) = 27.76036 43.17269 64.56081
#
# Poissons Ratio (x) = 0.81246 -0.01333
# Poissons Ratio (y) = 0.52242 0.49684
# Poissons Ratio (z) = -0.00573 0.33225
#
# Static dielectric constant tensor:
#      x y z
#    x 2.663350 0.000000 0.000000 
#    y 0.000000 3.460800 0.000000 
#    z 0.000000 0.000000 3.043670 
# 
# 
# High freq. dielectric constant tensor:
#      x y z
#    x 1.513420 0.000000 0.000000 
#    y 0.000000 1.565830 0.000000 
#    z 0.000000 0.000000 1.578410 
# 
# From -- ./inp_files/8006.got.cif
#   From: 2010.03.12/outbox.cif.g09.slc.cpg/sg63_5_cif.got.tgz:8006.got - 2010.04.10 19:34:48.
