data_PCOD8258454
_publ_section_title
;
Structure prediction by ZEFSAII (Michael W. Deem and Ramdas Pophale) SiO2 
 PCOD8258454
Probable space group: C M C M
;
_chemical_formula_sum "Si O2"
_cell_formula_units_Z 96
_cell_length_a 24.954602
_cell_length_b 23.338207
_cell_length_c 9.152264
_cell_angle_alpha 90.000000
_cell_angle_beta 90.000000
_cell_angle_gamma 90.000000
_cell_volume 5330.238898
_symmetry_space_group_name_H-M "C M C M"
_symmetry_group_IT_number 63
_symmetry_cell_setting 'orthorhombic'
loop_
_space_group_symop_operation_xyz
x,y,z
-x,-y,1/2+z
x,-y,-z
-x,y,1/2-z
-x,-y,-z
x,y,1/2-z
-x,y,z
x,-y,1/2+z
1/2+x,1/2+y,z
1/2-x,1/2-y,1/2+z
1/2+x,1/2-y,-z
1/2-x,1/2+y,1/2-z
1/2-x,1/2-y,-z
1/2+x,1/2+y,1/2-z
1/2-x,1/2+y,z
1/2+x,1/2-y,1/2+z
loop_
_atom_site_type_symbol
_atom_site_label
_atom_site_fract_x
_atom_site_fract_y
_atom_site_fract_z
Si Si1 0.146891 0.126551 0.580423
Si Si2 0.562057 0.441939 0.580273
Si Si3 0.806940 0.250130 0.578384
Si Si4 0.751923 0.558996 0.920556
Si Si5 0.939170 0.557265 0.920328
Si Si6 0.652710 0.857288 0.078739
O O1 0.132839 0.118705 0.750000
O O2 0.095133 0.111042 0.484840
O O3 0.162825 0.191254 0.545053
O O4 0.194940 0.084676 0.532936
O O5 0.579796 0.500000 0.500000
O O6 0.575143 0.449504 0.750000
O O7 0.500000 0.428281 0.552274
O O8 0.797280 0.258702 0.750000
O O9 0.750000 0.250000 0.500000
O O10 0.844984 0.299531 0.514871
O O11 0.754868 0.546874 0.750000
O O12 0.797243 0.603802 0.967294
O O13 0.763014 0.500000 0.000000
O O14 0.933885 0.544412 0.750000
O O15 0.902086 0.610583 0.964879
O O16 0.000000 0.572603 0.965629
O O17 0.919078 0.500000 0.000000
O O18 0.654726 0.842010 0.250000
#
# Coordination Sequence:
#
# PCOD8258454 Si02
#       6
#    16  16  16  16  16  16
#     4  10  21  37  55  78 109 142 182 225 270 323
#     4  10  21  37  58  84 112 144 182 222 270 325
#     4  11  22  38  58  80 108 144 185 225 271 324
#     4  10  20  33  49  75 108 139 173 219 271 322
#     4   9  18  33  55  81 110 146 184 225 274 323
#     4  10  20  36  54  76 111 146 181 225 271 322
#
# _framework density 18.010449000000001
#
# number of rings (size 3 to 8) (size 9 to 14) (size 15 to 20)
#    0.000    2.000    1.667    2.000    0.000    5.667 
#    0.000    0.833    0.000    3.000    0.000    0.000 
#    0.000    0.000    0.000    0.000    0.000    0.000 
#
# Total GULP energy -595407.114944 kJ/mol
# GULP energy per Si atom -12404.314895 kJ/mol
# Density = 1.796946 g / cm^3
# Si number density = 18.010449 Si / 1000 Ang^3
#
#
#
# Elastic Constant Matrix: (Units=GPa)
#
#
# Indices 1 2 3 4 5 6 
#
# 1 99.9604 59.5779 54.2934 0.0000 0.0000 0.0000
# 2 59.5779 122.1530 67.2100 0.0000 0.0000 0.0000
# 3 54.2934 67.2100 81.2922 0.0000 0.0000 0.0000
# 4 0.0000 0.0000 0.0000 38.0516 0.0000 0.0000
# 5 0.0000 0.0000 0.0000 0.0000 26.0770 0.0000
# 6 0.0000 0.0000 0.0000 0.0000 0.0000 23.9132
#
#
#
# Elastic Compliance Matrix: (Units=1/GPa)
#
#
# Indices 1 2 3 4 5 6 
#
# 1 0.016540 -0.003649 -0.008030 0.000000 0.000000 0.000000
# 2 -0.003649 0.015823 -0.010645 0.000000 0.000000 0.000000
# 3 -0.008030 -0.010645 0.026465 0.000000 0.000000 0.000000
# 4 0.000000 0.000000 0.000000 0.026280 0.000000 0.000000
# 5 0.000000 0.000000 0.000000 0.000000 0.038348 0.000000
# 6 0.000000 0.000000 0.000000 0.000000 0.000000 0.041818
#
#
# Mechanical properties :
#
#
# Convention : Reuss Voigt Hill
#
# Bulk Modulus (GPa) = 70.51826 73.95201 72.23514
# Shear Modulus (GPa) = 23.29372 25.76332 24.52852
#
# Velocity S-wave (km/s) = 3.60021 3.78625 3.69440
# Velocity P-wave (km/s) = 7.51805 7.76299 7.64150
#
# Compressibility (1/GPa) = 0.01418072
#
# Stress axis : x y z
#
# Youngs Moduli (GPa) = 60.45818 63.19814 37.78516
#
# Poissons Ratio (x) = 0.23061 0.30342
# Poissons Ratio (y) = 0.22061 0.40223
# Poissons Ratio (z) = 0.48548 0.67275
#
# Static dielectric constant tensor:
#      x y z
#    x 3.402430 0.000000 0.000000 
#    y 0.000000 3.447710 0.000000 
#    z 0.000000 0.000000 3.293610 
# 
# 
# High freq. dielectric constant tensor:
#      x y z
#    x 1.699640 0.000000 0.000000 
#    y 0.000000 1.697230 0.000000 
#    z 0.000000 0.000000 1.698220 
# 
# From -- ./inp_files/10463.got.cif
#   From: 2010.03.12/outbox.cif.g09.slc.cpg/sg63_6_cif.got.tgz:10463.got - 2010.04.10 19:34:48.
