data_PCOD8258725
_publ_section_title
;
Structure prediction by ZEFSAII (Michael W. Deem and Ramdas Pophale) SiO2 
 PCOD8258725
Probable space group: C M C M
;
_chemical_formula_sum "Si O2"
_cell_formula_units_Z 112
_cell_length_a 12.750311
_cell_length_b 16.959543
_cell_length_c 28.747255
_cell_angle_alpha 90.000000
_cell_angle_beta 90.000000
_cell_angle_gamma 90.000000
_cell_volume 6216.290543
_symmetry_space_group_name_H-M "C M C M"
_symmetry_group_IT_number 63
_symmetry_cell_setting 'orthorhombic'
loop_
_space_group_symop_operation_xyz
x,y,z
-x,-y,1/2+z
x,-y,-z
-x,y,1/2-z
-x,-y,-z
x,y,1/2-z
-x,y,z
x,-y,1/2+z
1/2+x,1/2+y,z
1/2-x,1/2-y,1/2+z
1/2+x,1/2-y,-z
1/2-x,1/2+y,1/2-z
1/2-x,1/2-y,-z
1/2+x,1/2+y,1/2-z
1/2-x,1/2+y,z
1/2+x,1/2-y,1/2+z
loop_
_atom_site_type_symbol
_atom_site_label
_atom_site_fract_x
_atom_site_fract_y
_atom_site_fract_z
Si Si1 0.122059 0.846282 0.123446
Si Si2 0.279480 0.786984 0.450899
Si Si3 0.728084 0.508620 0.375463
Si Si4 0.881724 0.452932 0.196510
Si Si5 0.118010 0.452837 0.047091
Si Si6 0.722953 0.212171 0.804274
Si Si7 0.376632 0.676234 0.124768
O O1 0.174808 0.810333 0.077232
O O2 0.167198 0.804682 0.169858
O O3 0.000000 0.827835 0.120716
O O4 0.141624 0.939738 0.126452
O O5 0.250000 0.750000 0.500000
O O6 0.350329 0.862703 0.460700
O O7 0.346773 0.726316 0.420488
O O8 0.800019 0.509449 0.329424
O O9 0.805922 0.496633 0.417951
O O10 0.669044 0.589720 0.381479
O O11 0.871531 0.475137 0.250000
O O12 0.853990 0.361681 0.187344
O O13 0.000000 0.466778 0.178513
O O14 0.000000 0.454901 0.066955
O O15 0.126737 0.500000 0.000000
O O16 0.744207 0.228549 0.750000
O O17 0.667531 0.287185 0.827448
O O18 0.500000 0.670030 0.129070
#
# Coordination Sequence:
#
# PCOD8258725 Si02
#       7
#    16  16  16  16  16  16  16
#     4   9  19  35  55  77 103 139 176 211 257 311
#     4  10  21  37  56  80 109 136 172 219 263 313
#     4  10  20  34  51  75 108 138 173 215 255 305
#     4   9  17  32  55  78 101 135 177 218 260 306
#     4  10  20  35  56  78 102 137 178 217 259 308
#     4   9  19  35  55  79 106 136 176 221 262 312
#     4  11  22  35  54  79 107 139 174 215 265 315
#
# _framework density 18.017175999999999
#
# number of rings (size 3 to 8) (size 9 to 14) (size 15 to 20)
#    0.000    2.286    0.000    3.429    0.000    2.857 
#    0.000    7.143    0.000    7.286    0.000    0.000 
#    0.000    0.000    0.000    0.000    0.000    0.000 
#
# Total GULP energy -694462.736892 kJ/mol
# GULP energy per Si atom -12401.120302 kJ/mol
# Density = 1.797617 g / cm^3
# Si number density = 18.017176 Si / 1000 Ang^3
#
#
#
# Elastic Constant Matrix: (Units=GPa)
#
#
# Indices 1 2 3 4 5 6 
#
# 1 143.3134 63.7807 53.0226 0.0000 0.0000 0.0000
# 2 63.7807 125.5245 55.1375 0.0000 0.0000 0.0000
# 3 53.0226 55.1375 115.1292 0.0000 0.0000 0.0000
# 4 0.0000 0.0000 0.0000 25.1174 0.0000 0.0000
# 5 0.0000 0.0000 0.0000 0.0000 16.0388 0.0000
# 6 0.0000 0.0000 0.0000 0.0000 0.0000 11.4936
#
#
#
# Elastic Compliance Matrix: (Units=1/GPa)
#
#
# Indices 1 2 3 4 5 6 
#
# 1 0.009613 -0.003723 -0.002644 0.000000 0.000000 0.000000
# 2 -0.003723 0.011531 -0.003808 0.000000 0.000000 0.000000
# 3 -0.002644 -0.003808 0.011727 0.000000 0.000000 0.000000
# 4 0.000000 0.000000 0.000000 0.039813 0.000000 0.000000
# 5 0.000000 0.000000 0.000000 0.000000 0.062349 0.000000
# 6 0.000000 0.000000 0.000000 0.000000 0.000000 0.087005
#
#
# Mechanical properties :
#
#
# Convention : Reuss Voigt Hill
#
# Bulk Modulus (GPa) = 79.86452 80.87209 80.36830
# Shear Modulus (GPa) = 20.27897 24.66506 22.47201
#
# Velocity S-wave (km/s) = 3.35854 3.70398 3.53548
# Velocity P-wave (km/s) = 7.71121 7.95463 7.83387
#
# Compressibility (1/GPa) = 0.01252121
#
# Stress axis : x y z
#
# Youngs Moduli (GPa) = 104.02706 86.72404 85.27130
#
# Poissons Ratio (x) = 0.32287 0.22548
# Poissons Ratio (y) = 0.38729 0.32469
# Poissons Ratio (z) = 0.27507 0.33022
#
# Static dielectric constant tensor:
#      x y z
#    x 3.326790 0.000000 0.000000 
#    y 0.000000 3.277680 0.000000 
#    z 0.000000 0.000000 3.469230 
# 
# 
# High freq. dielectric constant tensor:
#      x y z
#    x 1.700210 0.000000 0.000000 
#    y 0.000000 1.694240 0.000000 
#    z 0.000000 0.000000 1.707150 
# 
# From -- ./inp_files/72854.got.cif
#   From: 2010.03.12/outbox.cif.g09.slc.cpg/sg63_37_cif.got.tgz:72854.got - 2010.04.10 19:34:48.
