data_PCOD8258282
_publ_section_title
;
Structure prediction by ZEFSAII (Michael W. Deem and Ramdas Pophale) SiO2 
 PCOD8258282
Probable space group: C M C M
;
_chemical_formula_sum "Si O2"
_cell_formula_units_Z 96
_cell_length_a 23.176827
_cell_length_b 24.469933
_cell_length_c 8.918504
_cell_angle_alpha 90.000000
_cell_angle_beta 90.000000
_cell_angle_gamma 90.000000
_cell_volume 5057.999368
_symmetry_space_group_name_H-M "C M C M"
_symmetry_group_IT_number 63
_symmetry_cell_setting 'orthorhombic'
loop_
_space_group_symop_operation_xyz
x,y,z
-x,-y,1/2+z
x,-y,-z
-x,y,1/2-z
-x,-y,-z
x,y,1/2-z
-x,y,z
x,-y,1/2+z
1/2+x,1/2+y,z
1/2-x,1/2-y,1/2+z
1/2+x,1/2-y,-z
1/2-x,1/2+y,1/2-z
1/2-x,1/2-y,-z
1/2+x,1/2+y,1/2-z
1/2-x,1/2+y,z
1/2+x,1/2-y,1/2+z
loop_
_atom_site_type_symbol
_atom_site_label
_atom_site_fract_x
_atom_site_fract_y
_atom_site_fract_z
Si Si1 0.857254 0.943757 0.925965
Si Si2 0.133277 0.366279 0.424826
Si Si3 0.433487 0.949338 0.585349
Si Si4 0.565759 0.240395 0.923624
Si Si5 0.433058 0.646972 0.577287
Si Si6 0.274229 0.057445 0.072782
O O1 0.863861 0.950678 0.750000
O O2 0.791595 0.930301 0.973111
O O3 0.896871 0.894838 0.979834
O O4 0.878403 0.000000 0.000000
O O5 0.144111 0.375349 0.250000
O O6 0.076141 0.397288 0.480992
O O7 0.116075 0.303704 0.460361
O O8 0.187967 0.391038 0.513950
O O9 0.404312 0.942498 0.750000
O O10 0.500000 0.960513 0.607908
O O11 0.403735 0.000000 0.500000
O O12 0.569238 0.257258 0.750000
O O13 0.500000 0.219908 0.959850
O O14 0.581628 0.292016 0.024724
O O15 0.415402 0.641294 0.750000
O O16 0.500000 0.633813 0.551267
O O17 0.281229 0.052617 0.250000
O O18 0.294326 0.000000 0.000000
#
# Coordination Sequence:
#
# PCOD8258282 Si02
#       6
#    16  16  16  16  16  16
#     4  10  21  38  61  86 113 145 179 218 265 319
#     4  11  21  33  52  76 103 139 183 227 272 323
#     4  10  20  32  46  66  95 131 172 223 279 328
#     4   9  19  36  56  78 107 144 184 226 272 321
#     4  10  21  37  59  87 116 144 175 215 265 321
#     4  10  21  37  56  79 108 143 184 228 274 322
#
# _framework density 18.979837
#
# number of rings (size 3 to 8) (size 9 to 14) (size 15 to 20)
#    0.000    2.000    0.000    3.500    0.000    6.333 
#    0.000    2.500    0.000    0.000    0.000    0.000 
#    0.000    0.000    0.000    0.000    0.000    0.000 
#
# Total GULP energy -594971.299450 kJ/mol
# GULP energy per Si atom -12395.235405 kJ/mol
# Density = 1.893664 g / cm^3
# Si number density = 18.979837 Si / 1000 Ang^3
#
#
#
# Elastic Constant Matrix: (Units=GPa)
#
#
# Indices 1 2 3 4 5 6 
#
# 1 77.8678 53.6161 38.0524 0.0000 0.0000 0.0000
# 2 53.6161 101.9904 53.4728 0.0000 0.0000 0.0000
# 3 38.0524 53.4728 88.3582 0.0000 0.0000 0.0000
# 4 0.0000 0.0000 0.0000 36.7772 0.0000 0.0000
# 5 0.0000 0.0000 0.0000 0.0000 28.8635 0.0000
# 6 0.0000 0.0000 0.0000 0.0000 0.0000 33.7531
#
#
#
# Elastic Compliance Matrix: (Units=1/GPa)
#
#
# Indices 1 2 3 4 5 6 
#
# 1 0.020815 -0.009144 -0.003430 0.000000 0.000000 0.000000
# 2 -0.009144 0.018378 -0.007184 0.000000 0.000000 0.000000
# 3 -0.003430 -0.007184 0.017143 0.000000 0.000000 0.000000
# 4 0.000000 0.000000 0.000000 0.027191 0.000000 0.000000
# 5 0.000000 0.000000 0.000000 0.000000 0.034646 0.000000
# 6 0.000000 0.000000 0.000000 0.000000 0.000000 0.029627
#
#
# Mechanical properties :
#
#
# Convention : Reuss Voigt Hill
#
# Bulk Modulus (GPa) = 59.45763 62.05544 60.75654
# Shear Modulus (GPa) = 25.91715 28.08377 27.00046
#
# Velocity S-wave (km/s) = 3.69929 3.85081 3.77581
# Velocity P-wave (km/s) = 7.04564 7.24832 7.14770
#
# Compressibility (1/GPa) = 0.01681870
#
# Stress axis : x y z
#
# Youngs Moduli (GPa) = 48.04343 54.41184 58.33332
#
# Poissons Ratio (x) = 0.49752 0.20011
# Poissons Ratio (y) = 0.43929 0.41909
# Poissons Ratio (z) = 0.16481 0.39092
#
# Static dielectric constant tensor:
#      x y z
#    x 3.438340 0.000000 0.000000 
#    y 0.000000 3.373000 0.000000 
#    z 0.000000 0.000000 3.731570 
# 
# 
# High freq. dielectric constant tensor:
#      x y z
#    x 1.731940 0.000000 0.000000 
#    y 0.000000 1.728520 0.000000 
#    z 0.000000 0.000000 1.754100 
# 
# From -- ./inp_files/10476.got.cif
#   From: 2010.03.12/outbox.cif.g09.slc.cpg/sg63_6_cif.got.tgz:10476.got - 2010.04.10 19:34:48.
