data_PCOD8258209
_publ_section_title
;
Structure prediction by ZEFSAII (Michael W. Deem and Ramdas Pophale) SiO2 
 PCOD8258209
Probable space group: C M C M
;
_chemical_formula_sum "Si O2"
_cell_formula_units_Z 56
_cell_length_a 9.657270
_cell_length_b 14.204317
_cell_length_c 19.736063
_cell_angle_alpha 90.000000
_cell_angle_beta 90.000000
_cell_angle_gamma 90.000000
_cell_volume 2707.292951
_symmetry_space_group_name_H-M "C M C M"
_symmetry_group_IT_number 63
_symmetry_cell_setting 'orthorhombic'
loop_
_space_group_symop_operation_xyz
x,y,z
-x,-y,1/2+z
x,-y,-z
-x,y,1/2-z
-x,-y,-z
x,y,1/2-z
-x,y,z
x,-y,1/2+z
1/2+x,1/2+y,z
1/2-x,1/2-y,1/2+z
1/2+x,1/2-y,-z
1/2-x,1/2+y,1/2-z
1/2-x,1/2-y,-z
1/2+x,1/2+y,1/2-z
1/2-x,1/2+y,z
1/2+x,1/2-y,1/2+z
loop_
_atom_site_type_symbol
_atom_site_label
_atom_site_fract_x
_atom_site_fract_y
_atom_site_fract_z
Si Si1 0.000000 0.235562 0.882028
Si Si2 0.500000 0.609826 0.013462
Si Si3 0.000000 0.107325 0.750000
Si Si4 0.702778 0.562005 0.250000
Si Si5 0.795066 0.817965 0.620647
Si Si6 0.000000 0.317341 0.325406
Si Si7 0.500000 0.995172 0.250000
O O1 0.000000 0.175858 0.813733
O O2 0.868829 0.305412 0.886235
O O3 0.000000 0.163009 0.942863
O O4 0.640316 0.637463 0.053031
O O5 0.500000 0.500000 0.000000
O O6 0.862832 0.042425 0.750000
O O7 0.657019 0.615366 0.182337
O O8 0.868152 0.561089 0.250000
O O9 0.863146 0.715552 0.634218
O O10 0.000000 0.430675 0.318373
O O11 0.000000 0.272220 0.250000
#
# Coordination Sequence:
#
# PCOD8258209 Si02
#       7
#     8   8   4   8  16   8   4
#     4  12  24  42  60  97 116 157 206 250 307 351
#     4  11  25  44  62  85 119 165 207 252 302 371
#     4  12  24  36  68  92 126 152 198 254 288 368
#     4  12  20  36  56  96 116 158 192 246 306 342
#     4  11  22  39  65  83 125 160 201 250 296 368
#     4   9  18  37  54  84 115 160 191 227 294 360
#     4  10  20  30  54  86 132 142 194 258 292 348
#
# _framework density 20.684868000000002
#
# number of rings (size 3 to 8) (size 9 to 14) (size 15 to 20)
#    0.429    0.571    1.429    7.714    0.000    0.000 
#    0.000    0.714    0.000    0.000    0.000    0.000 
#    0.000    0.000    0.000    0.000    0.000    0.000 
#
# Total GULP energy -347214.353964 kJ/mol
# GULP energy per Si atom -12400.512642 kJ/mol
# Density = 2.063779 g / cm^3
# Si number density = 20.684868 Si / 1000 Ang^3
#
#
#
# Elastic Constant Matrix: (Units=GPa)
#
#
# Indices 1 2 3 4 5 6 
#
# 1 147.2356 21.3085 34.4410 0.0000 0.0000 0.0000
# 2 21.3085 76.5174 49.3543 0.0000 0.0000 0.0000
# 3 34.4410 49.3543 147.5891 0.0000 0.0000 0.0000
# 4 0.0000 0.0000 0.0000 27.2709 0.0000 0.0000
# 5 0.0000 0.0000 0.0000 0.0000 25.5931 0.0000
# 6 0.0000 0.0000 0.0000 0.0000 0.0000 22.6767
#
#
#
# Elastic Compliance Matrix: (Units=1/GPa)
#
#
# Indices 1 2 3 4 5 6 
#
# 1 0.007267 -0.001186 -0.001299 0.000000 0.000000 0.000000
# 2 -0.001186 0.016856 -0.005360 0.000000 0.000000 0.000000
# 3 -0.001299 -0.005360 0.008871 0.000000 0.000000 0.000000
# 4 0.000000 0.000000 0.000000 0.036669 0.000000 0.000000
# 5 0.000000 0.000000 0.000000 0.000000 0.039073 0.000000
# 6 0.000000 0.000000 0.000000 0.000000 0.000000 0.044098
#
#
# Mechanical properties :
#
#
# Convention : Reuss Voigt Hill
#
# Bulk Modulus (GPa) = 57.78818 64.61664 61.20241
# Shear Modulus (GPa) = 28.68715 32.85735 30.77225
#
# Velocity S-wave (km/s) = 3.72811 3.98989 3.86122
# Velocity P-wave (km/s) = 6.82127 7.24790 7.03782
#
# Compressibility (1/GPa) = 0.01730458
#
# Stress axis : x y z
#
# Youngs Moduli (GPa) = 137.60101 59.32442 112.72364
#
# Poissons Ratio (x) = 0.07034 0.14647
# Poissons Ratio (y) = 0.16315 0.60422
# Poissons Ratio (z) = 0.17880 0.31799
#
# Static dielectric constant tensor:
#      x y z
#    x 3.795280 0.000000 0.000000 
#    y 0.000000 3.550420 0.000000 
#    z 0.000000 0.000000 3.752390 
# 
# 
# High freq. dielectric constant tensor:
#      x y z
#    x 1.821620 0.000000 0.000000 
#    y 0.000000 1.803510 0.000000 
#    z 0.000000 0.000000 1.805330 
# 
# From -- ./inp_files/39710.got.cif
#   From: 2010.03.12/outbox.cif.g09.slc.cpg/sg63_20_cif.got.tgz:39710.got - 2010.04.10 19:34:48.
