data_PCOD8258205
_publ_section_title
;
Structure prediction by ZEFSAII (Michael W. Deem and Ramdas Pophale) SiO2 
 PCOD8258205
Probable space group: C M C M
;
_chemical_formula_sum "Si O2"
_cell_formula_units_Z 96
_cell_length_a 9.660197
_cell_length_b 33.300134
_cell_length_c 16.404211
_cell_angle_alpha 90.000000
_cell_angle_beta 90.000000
_cell_angle_gamma 90.000000
_cell_volume 5277.002634
_symmetry_space_group_name_H-M "C M C M"
_symmetry_group_IT_number 63
_symmetry_cell_setting 'orthorhombic'
loop_
_space_group_symop_operation_xyz
x,y,z
-x,-y,1/2+z
x,-y,-z
-x,y,1/2-z
-x,-y,-z
x,y,1/2-z
-x,y,z
x,-y,1/2+z
1/2+x,1/2+y,z
1/2-x,1/2-y,1/2+z
1/2+x,1/2-y,-z
1/2-x,1/2+y,1/2-z
1/2-x,1/2-y,-z
1/2+x,1/2+y,1/2-z
1/2-x,1/2+y,z
1/2+x,1/2-y,1/2+z
loop_
_atom_site_type_symbol
_atom_site_label
_atom_site_fract_x
_atom_site_fract_y
_atom_site_fract_z
Si Si1 0.164578 0.762397 0.159104
Si Si2 0.835035 0.985902 0.250000
Si Si3 0.152702 0.675589 0.345443
Si Si4 0.335880 0.476660 0.920019
Si Si5 0.834974 0.895037 0.250000
Si Si6 0.163641 0.115411 0.431073
Si Si7 0.835416 0.845524 0.097228
O O1 0.226121 0.768312 0.250000
O O2 0.207905 0.719033 0.120800
O O3 0.219065 0.799570 0.104046
O O4 0.000000 0.764093 0.164105
O O5 0.779867 0.940470 0.250000
O O6 0.000000 0.988114 0.250000
O O7 0.778048 0.006569 0.166598
O O8 0.137910 0.681767 0.250000
O O9 0.260722 0.640063 0.360504
O O10 0.000000 0.665255 0.381745
O O11 0.500000 0.481034 0.920255
O O12 0.289377 0.430615 0.927392
O O13 0.276651 0.500000 0.000000
O O14 0.776434 0.872245 0.171004
O O15 0.000000 0.894972 0.250000
O O16 0.219061 0.134775 0.514520
O O17 0.000000 0.119632 0.419120
O O18 0.000000 0.846983 0.098991
#
# Coordination Sequence:
#
# PCOD8258205 Si02
#       7
#    16   8  16  16   8  16  16
#     4   8  13  25  44  64  88 122 160 195 231 273
#     4   9  16  24  38  57  83 127 161 179 225 285
#     4   9  19  34  50  66  89 126 166 197 229 279
#     4   9  17  29  42  62  96 129 155 186 230 288
#     4   9  14  22  40  65  93 121 157 197 231 273
#     4  10  20  30  46  73 101 124 152 196 244 280
#     4   9  15  24  41  68  96 121 152 196 239 275
#
# _framework density 18.192146000000001
#
# number of rings (size 3 to 8) (size 9 to 14) (size 15 to 20)
#    0.000    3.000    0.833    2.000    1.167    5.000 
#    0.000    0.000    0.000    0.500    0.000    0.583 
#    0.000    0.000    0.000    0.000    0.000    0.000 
#
# Total GULP energy -594794.134184 kJ/mol
# GULP energy per Si atom -12391.544462 kJ/mol
# Density = 1.815074 g / cm^3
# Si number density = 18.192146 Si / 1000 Ang^3
#
#
#
# Elastic Constant Matrix: (Units=GPa)
#
#
# Indices 1 2 3 4 5 6 
#
# 1 16.3618 29.6011 12.8083 0.0000 0.0000 0.0000
# 2 29.6011 179.9657 57.3637 0.0000 0.0000 0.0000
# 3 12.8083 57.3637 87.1911 0.0000 0.0000 0.0000
# 4 0.0000 0.0000 0.0000 33.9212 0.0000 0.0000
# 5 0.0000 0.0000 0.0000 0.0000 10.9917 0.0000
# 6 0.0000 0.0000 0.0000 0.0000 0.0000 11.7335
#
#
#
# Elastic Compliance Matrix: (Units=1/GPa)
#
#
# Indices 1 2 3 4 5 6 
#
# 1 0.088278 -0.013143 -0.004321 0.000000 0.000000 0.000000
# 2 -0.013143 0.008988 -0.003982 0.000000 0.000000 0.000000
# 3 -0.004321 -0.003982 0.014724 0.000000 0.000000 0.000000
# 4 0.000000 0.000000 0.000000 0.029480 0.000000 0.000000
# 5 0.000000 0.000000 0.000000 0.000000 0.090978 0.000000
# 6 0.000000 0.000000 0.000000 0.000000 0.000000 0.085226
#
#
# Mechanical properties :
#
#
# Convention : Reuss Voigt Hill
#
# Bulk Modulus (GPa) = 14.47242 53.67386 34.07314
# Shear Modulus (GPa) = 13.03445 23.57898 18.30672
#
# Velocity S-wave (km/s) = 2.67963 3.60406 3.17566
# Velocity P-wave (km/s) = 4.18885 6.84740 5.67597
#
# Compressibility (1/GPa) = 0.06909693
#
# Stress axis : x y z
#
# Youngs Moduli (GPa) = 11.32783 111.26233 67.91656
#
# Poissons Ratio (x) = 1.46230 0.29348
# Poissons Ratio (y) = 0.14888 0.27048
# Poissons Ratio (z) = 0.04895 0.44310
#
# Static dielectric constant tensor:
#      x y z
#    x 2.567750 0.000000 0.000000 
#    y 0.000000 3.691490 0.000000 
#    z 0.000000 0.000000 3.467110 
# 
# 
# High freq. dielectric constant tensor:
#      x y z
#    x 1.616300 0.000000 0.000000 
#    y 0.000000 1.727510 0.000000 
#    z 0.000000 0.000000 1.705620 
# 
# From -- ./inp_files/42744.got.cif
#   From: 2010.03.12/outbox.cif.g09.slc.cpg/sg63_22_cif.got.tgz:42744.got - 2010.04.10 19:34:48.
