data_PCOD8258773
_publ_section_title
;
Structure prediction by ZEFSAII (Michael W. Deem and Ramdas Pophale) SiO2 
 PCOD8258773
Probable space group: C M C M
;
_chemical_formula_sum "Si O2"
_cell_formula_units_Z 120
_cell_length_a 26.875359
_cell_length_b 27.871583
_cell_length_c 8.711554
_cell_angle_alpha 90.000000
_cell_angle_beta 90.000000
_cell_angle_gamma 90.000000
_cell_volume 6525.466177
_symmetry_space_group_name_H-M "C M C M"
_symmetry_group_IT_number 63
_symmetry_cell_setting 'orthorhombic'
loop_
_space_group_symop_operation_xyz
x,y,z
-x,-y,1/2+z
x,-y,-z
-x,y,1/2-z
-x,-y,-z
x,y,1/2-z
-x,y,z
x,-y,1/2+z
1/2+x,1/2+y,z
1/2-x,1/2-y,1/2+z
1/2+x,1/2-y,-z
1/2-x,1/2+y,1/2-z
1/2-x,1/2-y,-z
1/2+x,1/2+y,1/2-z
1/2-x,1/2+y,z
1/2+x,1/2-y,1/2+z
loop_
_atom_site_type_symbol
_atom_site_label
_atom_site_fract_x
_atom_site_fract_y
_atom_site_fract_z
Si Si1 0.795037 0.601764 0.070809
Si Si2 0.356953 0.804141 0.927331
Si Si3 0.298070 0.275220 0.569999
Si Si4 0.000000 0.051048 0.427679
Si Si5 0.883886 0.451289 0.071667
Si Si6 0.443194 0.142494 0.927481
Si Si7 0.692812 0.620262 0.568689
Si Si8 0.391490 0.553335 0.068047
O O1 0.785041 0.595007 0.250000
O O2 0.817309 0.654208 0.034124
O O3 0.832709 0.561307 0.013707
O O4 0.743904 0.594566 0.979974
O O5 0.354506 0.789540 0.750000
O O6 0.345127 0.758223 0.031709
O O7 0.412341 0.820932 0.968293
O O8 0.290006 0.280938 0.750000
O O9 0.250000 0.250000 0.500000
O O10 0.308847 0.326895 0.500993
O O11 0.053065 0.075518 0.472018
O O12 0.000000 0.041631 0.250000
O O13 0.000000 0.000000 0.500000
O O14 0.872360 0.457483 0.250000
O O15 0.925766 0.411613 0.040686
O O16 0.905316 0.500000 0.000000
O O17 0.435098 0.155902 0.750000
O O18 0.500000 0.147084 0.978118
O O19 0.689615 0.623821 0.750000
O O20 0.647096 0.589441 0.507344
O O21 0.382414 0.550944 0.250000
O O22 0.384769 0.500000 0.000000
#
# Coordination Sequence:
#
# PCOD8258773 Si02
#       8
#    16  16  16   8  16  16  16  16
#     4  10  20  35  54  76 106 143 183 226 277 335
#     4  10  20  35  57  83 110 141 182 230 281 337
#     4  12  23  37  59  86 115 149 186 229 276 332
#     4   8  16  32  58  84 108 142 182 224 268 322
#     4  10  20  34  52  76 108 145 188 234 286 342
#     4   9  19  36  57  80 108 145 189 236 287 343
#     4  12  24  37  56  85 118 151 188 231 278 330
#     4  10  20  37  59  86 117 150 189 230 276 330
#
# _framework density 18.389491
#
# number of rings (size 3 to 8) (size 9 to 14) (size 15 to 20)
#    0.000    1.733    1.333    4.000    0.000    3.200 
#    0.000    2.667    1.467    0.000    0.000    0.000 
#    0.000    0.000    0.000    0.000    0.000    0.000 
#
# Total GULP energy -743980.261959 kJ/mol
# GULP energy per Si atom -12399.671033 kJ/mol
# Density = 1.834764 g / cm^3
# Si number density = 18.389491 Si / 1000 Ang^3
#
#
#
# Elastic Constant Matrix: (Units=GPa)
#
#
# Indices 1 2 3 4 5 6 
#
# 1 140.8540 47.0419 58.5117 0.0000 0.0000 0.0000
# 2 47.0419 81.9808 44.6626 0.0000 0.0000 0.0000
# 3 58.5117 44.6626 113.5426 0.0000 0.0000 0.0000
# 4 0.0000 0.0000 0.0000 33.1541 0.0000 0.0000
# 5 0.0000 0.0000 0.0000 0.0000 28.5950 0.0000
# 6 0.0000 0.0000 0.0000 0.0000 0.0000 18.1868
#
#
#
# Elastic Compliance Matrix: (Units=1/GPa)
#
#
# Indices 1 2 3 4 5 6 
#
# 1 0.009829 -0.003666 -0.003623 0.000000 0.000000 0.000000
# 2 -0.003666 0.016892 -0.004755 0.000000 0.000000 0.000000
# 3 -0.003623 -0.004755 0.012545 0.000000 0.000000 0.000000
# 4 0.000000 0.000000 0.000000 0.030162 0.000000 0.000000
# 5 0.000000 0.000000 0.000000 0.000000 0.034971 0.000000
# 6 0.000000 0.000000 0.000000 0.000000 0.000000 0.054985
#
#
# Mechanical properties :
#
#
# Convention : Reuss Voigt Hill
#
# Bulk Modulus (GPa) = 65.88931 70.75662 68.32297
# Shear Modulus (GPa) = 26.52054 28.39792 27.45923
#
# Velocity S-wave (km/s) = 3.80169 3.93395 3.86839
# Velocity P-wave (km/s) = 7.42820 7.69382 7.56218
#
# Compressibility (1/GPa) = 0.01517697
#
# Stress axis : x y z
#
# Youngs Moduli (GPa) = 101.73955 59.19805 79.71378
#
# Poissons Ratio (x) = 0.21703 0.28881
# Poissons Ratio (y) = 0.37300 0.37907
# Poissons Ratio (z) = 0.36861 0.28151
#
# Static dielectric constant tensor:
#      x y z
#    x 3.755220 0.000000 0.000000 
#    y 0.000000 3.418750 0.000000 
#    z 0.000000 0.000000 3.555370 
# 
# 
# High freq. dielectric constant tensor:
#      x y z
#    x 1.716080 0.000000 0.000000 
#    y 0.000000 1.697430 0.000000 
#    z 0.000000 0.000000 1.728220 
# 
# From -- ./inp_files/13197.got.cif
#   From: 2010.03.12/outbox.cif.g09.slc.cpg/sg63_7_cif.got.tgz:13197.got - 2010.04.10 19:34:48.
