data_PCOD8258623
_publ_section_title
;
Structure prediction by ZEFSAII (Michael W. Deem and Ramdas Pophale) SiO2 
 PCOD8258623
Probable space group: C M C M
;
_chemical_formula_sum "Si O2"
_cell_formula_units_Z 96
_cell_length_a 8.995545
_cell_length_b 24.770482
_cell_length_c 23.538414
_cell_angle_alpha 90.000000
_cell_angle_beta 90.000000
_cell_angle_gamma 90.000000
_cell_volume 5244.923220
_symmetry_space_group_name_H-M "C M C M"
_symmetry_group_IT_number 63
_symmetry_cell_setting 'orthorhombic'
loop_
_space_group_symop_operation_xyz
x,y,z
-x,-y,1/2+z
x,-y,-z
-x,y,1/2-z
-x,-y,-z
x,y,1/2-z
-x,y,z
x,-y,1/2+z
1/2+x,1/2+y,z
1/2-x,1/2-y,1/2+z
1/2+x,1/2-y,-z
1/2-x,1/2+y,1/2-z
1/2-x,1/2-y,-z
1/2+x,1/2+y,1/2-z
1/2-x,1/2+y,z
1/2+x,1/2-y,1/2+z
loop_
_atom_site_type_symbol
_atom_site_label
_atom_site_fract_x
_atom_site_fract_y
_atom_site_fract_z
Si Si1 0.675838 0.601815 0.631011
Si Si2 0.673035 0.314092 0.554290
Si Si3 0.824602 0.055235 0.750000
Si Si4 0.673393 0.189516 0.938027
Si Si5 0.670692 0.058902 0.250000
Si Si6 0.327961 0.101251 0.371066
Si Si7 0.328316 0.007812 0.565852
O O1 0.500000 0.608010 0.628202
O O2 0.731548 0.587001 0.694314
O O3 0.749866 0.658509 0.614032
O O4 0.726205 0.556125 0.587153
O O5 0.500000 0.323547 0.542995
O O6 0.707231 0.252463 0.570737
O O7 0.759955 0.331234 0.497563
O O8 0.727821 0.350118 0.606445
O O9 0.000000 0.050943 0.750000
O O10 0.766388 0.994743 0.750000
O O11 0.500000 0.176195 0.938676
O O12 0.500000 0.039962 0.250000
O O13 0.706578 0.095560 0.195561
O O14 0.500000 0.114628 0.382921
O O15 0.280709 0.046174 0.401740
O O16 0.500000 0.022255 0.577879
O O17 0.296466 0.000000 0.500000
#
# Coordination Sequence:
#
# PCOD8258623 Si02
#       7
#    16  16   8  16   8  16  16
#     4  11  22  36  56  82 111 145 187 230 278 330
#     4  10  21  37  59  85 112 145 183 226 281 335
#     4  10  22  38  55  80 113 149 186 232 282 323
#     4  10  21  38  59  83 112 146 184 227 277 333
#     4  10  20  36  57  80 107 151 196 224 268 331
#     4  10  20  34  54  81 113 147 187 229 272 328
#     4  10  20  33  52  80 112 144 178 223 278 332
#
# _framework density 18.303412000000002
#
# number of rings (size 3 to 8) (size 9 to 14) (size 15 to 20)
#    0.000    1.833    1.667    2.500    0.000    5.667 
#    0.000    0.833    0.000    5.000    0.000    0.000 
#    0.000    0.000    0.000    0.000    0.000    0.000 
#
# Total GULP energy -595462.171843 kJ/mol
# GULP energy per Si atom -12405.461913 kJ/mol
# Density = 1.826175 g / cm^3
# Si number density = 18.303412 Si / 1000 Ang^3
#
#
#
# Elastic Constant Matrix: (Units=GPa)
#
#
# Indices 1 2 3 4 5 6 
#
# 1 56.6393 31.4455 24.2517 0.0000 0.0000 0.0000
# 2 31.4455 78.7765 40.1313 0.0000 0.0000 0.0000
# 3 24.2517 40.1313 102.6803 0.0000 0.0000 0.0000
# 4 0.0000 0.0000 0.0000 20.0004 0.0000 0.0000
# 5 0.0000 0.0000 0.0000 0.0000 22.2268 0.0000
# 6 0.0000 0.0000 0.0000 0.0000 0.0000 35.7685
#
#
#
# Elastic Compliance Matrix: (Units=1/GPa)
#
#
# Indices 1 2 3 4 5 6 
#
# 1 0.023114 -0.008048 -0.002314 0.000000 0.000000 0.000000
# 2 -0.008048 0.018652 -0.005389 0.000000 0.000000 0.000000
# 3 -0.002314 -0.005389 0.012392 0.000000 0.000000 0.000000
# 4 0.000000 0.000000 0.000000 0.049999 0.000000 0.000000
# 5 0.000000 0.000000 0.000000 0.000000 0.044991 0.000000
# 6 0.000000 0.000000 0.000000 0.000000 0.000000 0.027958
#
#
# Mechanical properties :
#
#
# Convention : Reuss Voigt Hill
#
# Bulk Modulus (GPa) = 44.13761 47.75033 45.94397
# Shear Modulus (GPa) = 23.13107 25.08365 24.10736
#
# Velocity S-wave (km/s) = 3.55879 3.70596 3.63312
# Velocity P-wave (km/s) = 6.40730 6.66761 6.53875
#
# Compressibility (1/GPa) = 0.02265641
#
# Stress axis : x y z
#
# Youngs Moduli (GPa) = 43.26304 53.61350 80.69889
#
# Poissons Ratio (x) = 0.43147 0.18673
# Poissons Ratio (y) = 0.34818 0.43489
# Poissons Ratio (z) = 0.10011 0.28893
#
# Static dielectric constant tensor:
#      x y z
#    x 3.371530 0.000000 0.000000 
#    y 0.000000 3.319410 0.000000 
#    z 0.000000 0.000000 3.535200 
# 
# 
# High freq. dielectric constant tensor:
#      x y z
#    x 1.712690 0.000000 0.000000 
#    y 0.000000 1.707250 0.000000 
#    z 0.000000 0.000000 1.713710 
# 
# From -- ./inp_files/59990.got.cif
#   From: 2010.03.12/outbox.cif.g09.slc.cpg/sg63_30_cif.got.tgz:59990.got - 2010.04.10 19:34:48.
