data_PCOD8258557
_publ_section_title
;
Structure prediction by ZEFSAII (Michael W. Deem and Ramdas Pophale) SiO2 
 PCOD8258557
Probable space group: C M C M
;
_chemical_formula_sum "Si O2"
_cell_formula_units_Z 104
_cell_length_a 20.657422
_cell_length_b 27.952705
_cell_length_c 9.119302
_cell_angle_alpha 90.000000
_cell_angle_beta 90.000000
_cell_angle_gamma 90.000000
_cell_volume 5265.766061
_symmetry_space_group_name_H-M "C M C M"
_symmetry_group_IT_number 63
_symmetry_cell_setting 'orthorhombic'
loop_
_space_group_symop_operation_xyz
x,y,z
-x,-y,1/2+z
x,-y,-z
-x,y,1/2-z
-x,-y,-z
x,y,1/2-z
-x,y,z
x,-y,1/2+z
1/2+x,1/2+y,z
1/2-x,1/2-y,1/2+z
1/2+x,1/2-y,-z
1/2-x,1/2+y,1/2-z
1/2-x,1/2-y,-z
1/2+x,1/2+y,1/2-z
1/2-x,1/2+y,z
1/2+x,1/2-y,1/2+z
loop_
_atom_site_type_symbol
_atom_site_label
_atom_site_fract_x
_atom_site_fract_y
_atom_site_fract_z
Si Si1 0.000000 0.548971 0.917893
Si Si2 0.925785 0.313196 0.580281
Si Si3 0.573647 0.457686 0.409194
Si Si4 0.366804 0.619859 0.421283
Si Si5 0.574174 0.703053 0.919779
Si Si6 0.130648 0.397741 0.077641
Si Si7 0.752104 0.550580 0.423896
O O1 0.937700 0.579126 0.960781
O O2 0.000000 0.535207 0.750000
O O3 0.000000 0.500000 0.000000
O O4 0.917349 0.327206 0.750000
O O5 0.907424 0.258082 0.555079
O O6 0.875017 0.343708 0.483737
O O7 0.000000 0.322005 0.530589
O O8 0.609312 0.500000 0.500000
O O9 0.608083 0.452814 0.250000
O O10 0.500000 0.472251 0.383054
O O11 0.575478 0.408959 0.500552
O O12 0.378998 0.622589 0.250000
O O13 0.372573 0.673051 0.487880
O O14 0.301248 0.591297 0.460035
O O15 0.580681 0.688930 0.750000
O O16 0.500000 0.693632 0.971681
O O17 0.147147 0.396905 0.250000
O O18 0.182288 0.429068 0.990965
O O19 0.735035 0.500000 0.500000
O O20 0.759389 0.542656 0.250000
#
# Coordination Sequence:
#
# PCOD8258557 Si02
#       7
#     8  16  16  16  16  16  16
#     4  10  22  36  54  86 120 146 180 228 279 338
#     4   9  18  35  60  89 120 155 190 231 288 346
#     4  10  20  33  51  76 106 140 181 232 288 346
#     4  11  23  37  55  80 111 149 194 241 288 341
#     4   9  19  36  59  88 120 153 194 241 290 345
#     4  11  22  38  60  88 119 151 190 235 286 344
#     4  11  25  43  60  82 113 152 198 241 286 345
#
# _framework density 19.750212999999999
#
# number of rings (size 3 to 8) (size 9 to 14) (size 15 to 20)
#    0.000    1.846    0.769    4.154    0.000    9.846 
#    0.000    2.308    0.000    0.000    0.000    0.000 
#    0.000    0.000    0.000    0.000    0.000    0.000 
#
# Total GULP energy -644661.321781 kJ/mol
# GULP energy per Si atom -12397.333111 kJ/mol
# Density = 1.970526 g / cm^3
# Si number density = 19.750213 Si / 1000 Ang^3
#
#
#
# Elastic Constant Matrix: (Units=GPa)
#
#
# Indices 1 2 3 4 5 6 
#
# 1 76.7140 41.9753 53.0604 0.0000 0.0000 0.0000
# 2 41.9753 115.4438 66.2598 0.0000 0.0000 0.0000
# 3 53.0604 66.2598 119.0527 0.0000 0.0000 0.0000
# 4 0.0000 0.0000 0.0000 41.3326 0.0000 0.0000
# 5 0.0000 0.0000 0.0000 0.0000 26.8208 0.0000
# 6 0.0000 0.0000 0.0000 0.0000 0.0000 -4.4909
#
#
#
# Elastic Compliance Matrix: (Units=1/GPa)
#
#
# Indices 1 2 3 4 5 6 
#
# 1 0.019572 -0.003100 -0.006998 0.000000 0.000000 0.000000
# 2 -0.003100 0.013219 -0.005976 0.000000 0.000000 0.000000
# 3 -0.006998 -0.005976 0.014844 0.000000 0.000000 0.000000
# 4 0.000000 0.000000 0.000000 0.024194 0.000000 0.000000
# 5 0.000000 0.000000 0.000000 0.000000 0.037284 0.000000
# 6 0.000000 0.000000 0.000000 0.000000 0.000000 -0.222675
#
#
# Mechanical properties :
#
#
# Convention : Reuss Voigt Hill
#
# Bulk Modulus (GPa) = 64.56331 70.42240 67.49286
# Shear Modulus (GPa) = -65.57160 22.72684 -21.42238
#
# Velocity S-wave (km/s) = -5.76823 3.39590 -3.29700
# Velocity P-wave (km/s) = 3.40624 7.14913 4.44453
#
# Compressibility (1/GPa) = 0.01548867
#
# Stress axis : x y z
#
# Youngs Moduli (GPa) = 51.09462 75.64818 67.36672
#
# Poissons Ratio (x) = 0.23450 0.47140
# Poissons Ratio (y) = 0.15839 0.40256
# Poissons Ratio (z) = 0.35754 0.45204
#
# Static dielectric constant tensor:
#      x y z
#    x 3.411620 0.000000 0.000000 
#    y 0.000000 3.646810 0.000000 
#    z 0.000000 0.000000 3.570080 
# 
# 
# High freq. dielectric constant tensor:
#      x y z
#    x 1.749540 0.000000 0.000000 
#    y 0.000000 1.777960 0.000000 
#    z 0.000000 0.000000 1.778700 
# 
# From -- ./inp_files/8752.got.cif
#   From: 2010.03.12/outbox.cif.g09.slc.cpg/sg63_5_cif.got.tgz:8752.got - 2010.04.10 19:34:48.
