data_PCOD8258187
_publ_section_title
;
Structure prediction by ZEFSAII (Michael W. Deem and Ramdas Pophale) SiO2 
 PCOD8258187
Probable space group: C M C M
;
_chemical_formula_sum "Si O2"
_cell_formula_units_Z 64
_cell_length_a 13.638341
_cell_length_b 10.273270
_cell_length_c 22.275405
_cell_angle_alpha 90.000000
_cell_angle_beta 90.000000
_cell_angle_gamma 90.000000
_cell_volume 3121.015001
_symmetry_space_group_name_H-M "C M C M"
_symmetry_group_IT_number 63
_symmetry_cell_setting 'orthorhombic'
loop_
_space_group_symop_operation_xyz
x,y,z
-x,-y,1/2+z
x,-y,-z
-x,y,1/2-z
-x,-y,-z
x,y,1/2-z
-x,y,z
x,-y,1/2+z
1/2+x,1/2+y,z
1/2-x,1/2-y,1/2+z
1/2+x,1/2-y,-z
1/2-x,1/2+y,1/2-z
1/2-x,1/2-y,-z
1/2+x,1/2+y,1/2-z
1/2-x,1/2+y,z
1/2+x,1/2-y,1/2+z
loop_
_atom_site_type_symbol
_atom_site_label
_atom_site_fract_x
_atom_site_fract_y
_atom_site_fract_z
Si Si1 0.500000 0.043264 0.931591
Si Si2 0.166706 0.000000 0.000000
Si Si3 0.000000 0.848288 0.943458
Si Si4 0.787630 0.249443 0.316460
Si Si5 0.790538 0.496174 0.614958
Si Si6 0.500000 0.347941 0.685348
O O1 0.500000 0.198179 0.927322
O O2 0.594113 0.986284 0.897557
O O3 0.500000 0.000000 0.000000
O O4 0.235474 0.040299 0.945366
O O5 0.096807 0.879651 0.981707
O O6 0.000000 0.927731 0.878475
O O7 0.743363 0.227036 0.250000
O O8 0.760611 0.394839 0.336743
O O9 0.744078 0.143715 0.361917
O O10 0.904986 0.243093 0.315468
O O11 0.500000 0.428218 0.750000
#
# Coordination Sequence:
#
# PCOD8258187 Si02
#       6
#     8   8   8  16  16   8
#     4  12  25  37  60  93 133 164 198 250 318 387
#     4  11  24  37  68  92 128 161 208 265 310 376
#     4  11  22  44  58  94 125 165 206 247 318 379
#     4  11  24  42  66  91 123 165 216 261 309 372
#     4  12  23  42  64  94 128 167 209 257 319 374
#     4  10  19  39  64  85 116 165 210 247 299 376
#
# _framework density 20.506150000000002
#
# number of rings (size 3 to 8) (size 9 to 14) (size 15 to 20)
#    0.000    0.750    6.250    0.750    3.500    2.000 
#    0.000    3.125    0.000    0.000    0.000    0.000 
#    0.000    0.000    0.000    0.000    0.000    0.000 
#
# Total GULP energy -396685.191033 kJ/mol
# GULP energy per Si atom -12396.412220 kJ/mol
# Density = 2.045948 g / cm^3
# Si number density = 20.506150 Si / 1000 Ang^3
#
#
#
# Elastic Constant Matrix: (Units=GPa)
#
#
# Indices 1 2 3 4 5 6 
#
# 1 121.7840 31.1008 41.7385 0.0000 0.0000 0.0000
# 2 31.1008 72.5799 23.5673 0.0000 0.0000 0.0000
# 3 41.7385 23.5673 145.6427 0.0000 0.0000 0.0000
# 4 0.0000 0.0000 0.0000 33.8205 0.0000 0.0000
# 5 0.0000 0.0000 0.0000 0.0000 18.5696 0.0000
# 6 0.0000 0.0000 0.0000 0.0000 0.0000 11.1883
#
#
#
# Elastic Compliance Matrix: (Units=1/GPa)
#
#
# Indices 1 2 3 4 5 6 
#
# 1 0.009881 -0.003498 -0.002266 0.000000 0.000000 0.000000
# 2 -0.003498 0.015781 -0.001551 0.000000 0.000000 0.000000
# 3 -0.002266 -0.001551 0.007766 0.000000 0.000000 0.000000
# 4 0.000000 0.000000 0.000000 0.029568 0.000000 0.000000
# 5 0.000000 0.000000 0.000000 0.000000 0.053852 0.000000
# 6 0.000000 0.000000 0.000000 0.000000 0.000000 0.089379
#
#
# Mechanical properties :
#
#
# Convention : Reuss Voigt Hill
#
# Bulk Modulus (GPa) = 53.19702 59.20221 56.19961
# Shear Modulus (GPa) = 22.01453 28.95568 25.48511
#
# Velocity S-wave (km/s) = 3.28007 3.76180 3.52917
# Velocity P-wave (km/s) = 6.35165 6.91385 6.63870
#
# Compressibility (1/GPa) = 0.01879805
#
# Stress axis : x y z
#
# Youngs Moduli (GPa) = 101.20243 63.36880 128.75997
#
# Poissons Ratio (x) = 0.22169 0.29173
# Poissons Ratio (y) = 0.35405 0.19970
# Poissons Ratio (z) = 0.22929 0.09828
#
# Static dielectric constant tensor:
#      x y z
#    x 3.892890 0.000000 0.000000 
#    y 0.000000 3.282090 0.000000 
#    z 0.000000 0.000000 4.472140 
# 
# 
# High freq. dielectric constant tensor:
#      x y z
#    x 1.811760 0.000000 0.000000 
#    y 0.000000 1.765120 0.000000 
#    z 0.000000 0.000000 1.830450 
# 
# From -- ./inp_files/62413.got.cif
#   From: 2010.03.12/outbox.cif.g09.slc.cpg/sg63_32_cif.got.tgz:62413.got - 2010.04.10 19:34:48.
