data_PCOD8258583
_publ_section_title
;
Structure prediction by ZEFSAII (Michael W. Deem and Ramdas Pophale) SiO2 
 PCOD8258583
Probable space group: C M C M
;
_chemical_formula_sum "Si O2"
_cell_formula_units_Z 80
_cell_length_a 14.235429
_cell_length_b 33.219702
_cell_length_c 9.340122
_cell_angle_alpha 90.000000
_cell_angle_beta 90.000000
_cell_angle_gamma 90.000000
_cell_volume 4416.912958
_symmetry_space_group_name_H-M "C M C M"
_symmetry_group_IT_number 63
_symmetry_cell_setting 'orthorhombic'
loop_
_space_group_symop_operation_xyz
x,y,z
-x,-y,1/2+z
x,-y,-z
-x,y,1/2-z
-x,-y,-z
x,y,1/2-z
-x,y,z
x,-y,1/2+z
1/2+x,1/2+y,z
1/2-x,1/2-y,1/2+z
1/2+x,1/2-y,-z
1/2-x,1/2+y,1/2-z
1/2-x,1/2-y,-z
1/2+x,1/2+y,1/2-z
1/2-x,1/2+y,z
1/2+x,1/2-y,1/2+z
loop_
_atom_site_type_symbol
_atom_site_label
_atom_site_fract_x
_atom_site_fract_y
_atom_site_fract_z
Si Si1 0.741939 0.689964 0.916798
Si Si2 0.768198 0.401471 0.083326
Si Si3 0.392703 0.255682 0.582963
Si Si4 0.111075 0.538949 0.086543
Si Si5 0.105955 0.961489 0.415146
O O1 0.717712 0.692325 0.750000
O O2 0.759940 0.644507 0.965927
O O3 0.835299 0.715251 0.955138
O O4 0.651591 0.706628 0.000108
O O5 0.796446 0.405008 0.250000
O O6 0.669056 0.422796 0.051152
O O7 0.849013 0.421254 0.987907
O O8 0.386613 0.265495 0.750000
O O9 0.500000 0.249298 0.533378
O O10 0.146625 0.535435 0.250000
O O11 0.000000 0.542292 0.080081
O O12 0.147369 0.500000 0.000000
O O13 0.109883 0.973311 0.250000
O O14 0.000000 0.950884 0.463950
O O15 0.145250 0.000000 0.500000
#
# Coordination Sequence:
#
# PCOD8258583 Si02
#       5
#    16  16  16  16  16
#     4   9  19  34  52  77 104 130 166 209 254 307
#     4  10  20  33  52  77 103 132 166 209 258 302
#     4   9  18  34  54  74 100 134 168 205 252 305
#     4  10  21  36  53  74 102 137 175 213 253 298
#     4   9  18  32  48  68  96 129 165 203 243 290
#
# _framework density 18.112197999999999
#
# number of rings (size 3 to 8) (size 9 to 14) (size 15 to 20)
#    0.000    2.600    0.000    1.200    0.000    6.400 
#    0.000    4.000    0.000    2.400    0.000    0.000 
#    0.000    0.000    0.000    0.000    0.000    0.000 
#
# Total GULP energy -496118.282788 kJ/mol
# GULP energy per Si atom -12402.957070 kJ/mol
# Density = 1.807097 g / cm^3
# Si number density = 18.112198 Si / 1000 Ang^3
#
#
#
# Elastic Constant Matrix: (Units=GPa)
#
#
# Indices 1 2 3 4 5 6 
#
# 1 88.7385 53.8794 43.7028 0.0000 0.0000 0.0000
# 2 53.8794 156.3716 61.9149 0.0000 0.0000 0.0000
# 3 43.7028 61.9149 71.7324 0.0000 0.0000 0.0000
# 4 0.0000 0.0000 0.0000 31.4285 0.0000 0.0000
# 5 0.0000 0.0000 0.0000 0.0000 29.4701 0.0000
# 6 0.0000 0.0000 0.0000 0.0000 0.0000 19.9312
#
#
#
# Elastic Compliance Matrix: (Units=1/GPa)
#
#
# Indices 1 2 3 4 5 6 
#
# 1 0.016785 -0.002635 -0.007952 0.000000 0.000000 0.000000
# 2 -0.002635 0.010129 -0.007137 0.000000 0.000000 0.000000
# 3 -0.007952 -0.007137 0.024946 0.000000 0.000000 0.000000
# 4 0.000000 0.000000 0.000000 0.031818 0.000000 0.000000
# 5 0.000000 0.000000 0.000000 0.000000 0.033933 0.000000
# 6 0.000000 0.000000 0.000000 0.000000 0.000000 0.050173
#
#
# Mechanical properties :
#
#
# Convention : Reuss Voigt Hill
#
# Bulk Modulus (GPa) = 60.93291 70.64853 65.79072
# Shear Modulus (GPa) = 23.95752 26.65565 25.30659
#
# Velocity S-wave (km/s) = 3.64088 3.84043 3.74199
# Velocity P-wave (km/s) = 7.16866 7.66524 7.42110
#
# Compressibility (1/GPa) = 0.01641149
#
# Stress axis : x y z
#
# Youngs Moduli (GPa) = 59.57621 98.72726 40.08665
#
# Poissons Ratio (x) = 0.26014 0.31877
# Poissons Ratio (y) = 0.15698 0.28611
# Poissons Ratio (z) = 0.47375 0.70465
#
# Static dielectric constant tensor:
#      x y z
#    x 3.414910 0.000000 0.000000 
#    y 0.000000 3.353150 0.000000 
#    z 0.000000 0.000000 3.363640 
# 
# 
# High freq. dielectric constant tensor:
#      x y z
#    x 1.706130 0.000000 0.000000 
#    y 0.000000 1.696970 0.000000 
#    z 0.000000 0.000000 1.699400 
# 
# From -- ./inp_files/19659.got.cif
#   From: 2010.03.12/outbox.cif.g09.slc.cpg/sg63_10_cif.got.tgz:19659.got - 2010.04.10 19:34:48.
