data_PCOD8258487
_publ_section_title
;
Structure prediction by ZEFSAII (Michael W. Deem and Ramdas Pophale) SiO2 
 PCOD8258487
Probable space group: C M C M
;
_chemical_formula_sum "Si O2"
_cell_formula_units_Z 80
_cell_length_a 10.569050
_cell_length_b 25.372493
_cell_length_c 14.434212
_cell_angle_alpha 90.000000
_cell_angle_beta 90.000000
_cell_angle_gamma 90.000000
_cell_volume 3870.723716
_symmetry_space_group_name_H-M "C M C M"
_symmetry_group_IT_number 63
_symmetry_cell_setting 'orthorhombic'
loop_
_space_group_symop_operation_xyz
x,y,z
-x,-y,1/2+z
x,-y,-z
-x,y,1/2-z
-x,-y,-z
x,y,1/2-z
-x,y,z
x,-y,1/2+z
1/2+x,1/2+y,z
1/2-x,1/2-y,1/2+z
1/2+x,1/2-y,-z
1/2-x,1/2+y,1/2-z
1/2-x,1/2-y,-z
1/2+x,1/2+y,1/2-z
1/2-x,1/2+y,z
1/2+x,1/2-y,1/2+z
loop_
_atom_site_type_symbol
_atom_site_label
_atom_site_fract_x
_atom_site_fract_y
_atom_site_fract_z
Si Si1 0.359403 0.861692 0.952617
Si Si2 0.730791 0.850727 0.146425
Si Si3 0.353866 0.966784 0.640039
Si Si4 0.143315 0.739313 0.356064
Si Si5 0.137627 0.043978 0.856044
O O1 0.500000 0.860156 0.911349
O O2 0.298151 0.914396 0.909781
O O3 0.292156 0.808136 0.915546
O O4 0.367277 0.863135 0.064459
O O5 0.669241 0.855580 0.250000
O O6 0.780801 0.792572 0.128320
O O7 0.843217 0.893108 0.135922
O O8 0.347141 0.959429 0.750000
O O9 0.500000 0.979771 0.610492
O O10 0.259514 0.012810 0.602709
O O11 0.148525 0.721536 0.250000
O O12 0.000000 0.749948 0.388809
O O13 0.129279 0.026800 0.750000
O O14 0.000000 0.030633 0.902669
#
# Coordination Sequence:
#
# PCOD8258487 Si02
#       5
#    16  16  16  16  16
#     4  10  20  33  51  76 104 134 172 216 261 312
#     4  10  20  33  50  73 103 138 173 210 255 309
#     4   9  18  34  56  80 105 135 174 220 266 310
#     4   9  17  32  55  78  99 127 167 217 268 313
#     4   9  18  34  55  78 106 140 177 217 261 310
#
# _framework density 20.667968999999999
#
# number of rings (size 3 to 8) (size 9 to 14) (size 15 to 20)
#    0.000    2.600    0.000    1.800    0.000    6.800 
#    0.000    7.000    0.000    1.200    0.000    2.800 
#    0.000    0.000    0.000    0.000    0.000    0.000 
#
# Total GULP energy -495543.449946 kJ/mol
# GULP energy per Si atom -12388.586249 kJ/mol
# Density = 2.062093 g / cm^3
# Si number density = 20.667969 Si / 1000 Ang^3
#
#
#
# Elastic Constant Matrix: (Units=GPa)
#
#
# Indices 1 2 3 4 5 6 
#
# 1 81.1973 48.7610 14.5738 0.0000 0.0000 0.0000
# 2 48.7610 144.6108 37.0437 0.0000 0.0000 0.0000
# 3 14.5738 37.0437 74.0293 0.0000 0.0000 0.0000
# 4 0.0000 0.0000 0.0000 22.3019 0.0000 0.0000
# 5 0.0000 0.0000 0.0000 0.0000 16.4221 0.0000
# 6 0.0000 0.0000 0.0000 0.0000 0.0000 16.6249
#
#
#
# Elastic Compliance Matrix: (Units=1/GPa)
#
#
# Indices 1 2 3 4 5 6 
#
# 1 0.015459 -0.005085 -0.000499 0.000000 0.000000 0.000000
# 2 -0.005085 0.009604 -0.003805 0.000000 0.000000 0.000000
# 3 -0.000499 -0.003805 0.015510 0.000000 0.000000 0.000000
# 4 0.000000 0.000000 0.000000 0.044839 0.000000 0.000000
# 5 0.000000 0.000000 0.000000 0.000000 0.060894 0.000000
# 6 0.000000 0.000000 0.000000 0.000000 0.000000 0.060151
#
#
# Mechanical properties :
#
#
# Convention : Reuss Voigt Hill
#
# Bulk Modulus (GPa) = 45.87944 55.62161 50.75052
# Shear Modulus (GPa) = 21.50543 24.36704 22.93624
#
# Velocity S-wave (km/s) = 3.22921 3.43735 3.33490
# Velocity P-wave (km/s) = 6.01251 6.53638 6.27991
#
# Compressibility (1/GPa) = 0.02179626
#
# Stress axis : x y z
#
# Youngs Moduli (GPa) = 64.68845 104.12025 64.47312
#
# Poissons Ratio (x) = 0.52942 0.03217
# Poissons Ratio (y) = 0.32892 0.24531
# Poissons Ratio (z) = 0.03228 0.39617
#
# Static dielectric constant tensor:
#      x y z
#    x 3.541810 0.000000 0.000000 
#    y 0.000000 3.910300 0.000000 
#    z 0.000000 0.000000 3.668610 
# 
# 
# High freq. dielectric constant tensor:
#      x y z
#    x 1.767560 0.000000 0.000000 
#    y 0.000000 1.821840 0.000000 
#    z 0.000000 0.000000 1.805720 
# 
# From -- ./inp_files/29689.got.cif
#   From: 2010.03.12/outbox.cif.g09.slc.cpg/sg63_15_cif.got.tgz:29689.got - 2010.04.10 19:34:48.
