data_PCOD8258517
_publ_section_title
;
Structure prediction by ZEFSAII (Michael W. Deem and Ramdas Pophale) SiO2 
 PCOD8258517
Probable space group: C M C M
;
_chemical_formula_sum "Si O2"
_cell_formula_units_Z 128
_cell_length_a 19.817734
_cell_length_b 19.866582
_cell_length_c 19.206754
_cell_angle_alpha 90.000000
_cell_angle_beta 90.000000
_cell_angle_gamma 90.000000
_cell_volume 7561.903363
_symmetry_space_group_name_H-M "C M C M"
_symmetry_group_IT_number 63
_symmetry_cell_setting 'orthorhombic'
loop_
_space_group_symop_operation_xyz
x,y,z
-x,-y,1/2+z
x,-y,-z
-x,y,1/2-z
-x,-y,-z
x,y,1/2-z
-x,y,z
x,-y,1/2+z
1/2+x,1/2+y,z
1/2-x,1/2-y,1/2+z
1/2+x,1/2-y,-z
1/2-x,1/2+y,1/2-z
1/2-x,1/2-y,-z
1/2+x,1/2+y,1/2-z
1/2-x,1/2+y,z
1/2+x,1/2-y,1/2+z
loop_
_atom_site_type_symbol
_atom_site_label
_atom_site_fract_x
_atom_site_fract_y
_atom_site_fract_z
Si Si1 0.770414 0.347245 0.597176
Si Si2 0.922574 0.941124 0.449965
Si Si3 0.422591 0.038588 0.570422
Si Si4 0.270697 0.299583 0.119709
Si Si5 0.308295 0.016469 0.168114
Si Si6 0.356071 0.679938 0.484207
Si Si7 0.856027 0.326516 0.040678
Si Si8 0.320041 0.569673 0.672370
O O1 0.780636 0.278185 0.641817
O O2 0.790525 0.407631 0.647448
O O3 0.690496 0.350621 0.577682
O O4 0.817701 0.349586 0.529292
O O5 0.913761 0.871561 0.492079
O O6 0.881554 0.945247 0.378637
O O7 0.000000 0.950352 0.429414
O O8 0.896587 0.000000 0.500000
O O9 0.500000 0.025868 0.591937
O O10 0.412283 0.118349 0.558831
O O11 0.403675 0.000000 0.500000
O O12 0.375571 0.009703 0.631085
O O13 0.303243 0.307803 0.044713
O O14 0.193059 0.320178 0.107520
O O15 0.304262 0.350280 0.174783
O O16 0.321200 0.012417 0.250000
O O17 0.245743 0.969627 0.145099
O O18 0.390120 0.752284 0.467093
O O19 0.340471 0.546542 0.750000
#
# Coordination Sequence:
#
# PCOD8258517 Si02
#       8
#    16  16  16  16  16  16  16  16
#     4   9  16  29  50  76 101 128 165 204 254 303
#     4  10  20  33  50  75 105 136 167 205 256 308
#     4  11  22  34  52  76  99 134 178 216 258 306
#     4   8  15  28  49  75  99 126 160 208 255 292
#     4  11  22  34  51  74 102 136 171 212 260 309
#     4   8  16  28  50  78 101 125 164 209 254 297
#     4   9  15  30  51  74 101 127 161 215 258 291
#     4  10  20  33  51  74  99 132 173 209 250 304
#
# _framework density 16.926955
#
# number of rings (size 3 to 8) (size 9 to 14) (size 15 to 20)
#    0.000    2.500    2.500    2.250    0.000    2.000 
#    0.000    0.000    0.000    0.000    0.000    1.750 
#    0.000    2.000    0.000    0.000    0.000    0.000 
#
# Total GULP energy -793230.580175 kJ/mol
# GULP energy per Si atom -12394.227815 kJ/mol
# Density = 1.688843 g / cm^3
# Si number density = 16.926955 Si / 1000 Ang^3
#
#
#
# Elastic Constant Matrix: (Units=GPa)
#
#
# Indices 1 2 3 4 5 6 
#
# 1 70.3546 43.3144 40.5934 0.0000 0.0000 0.0000
# 2 43.3144 122.5035 39.5837 0.0000 0.0000 0.0000
# 3 40.5934 39.5837 67.5232 0.0000 0.0000 0.0000
# 4 0.0000 0.0000 0.0000 20.2097 0.0000 0.0000
# 5 0.0000 0.0000 0.0000 0.0000 18.7864 0.0000
# 6 0.0000 0.0000 0.0000 0.0000 0.0000 21.9144
#
#
#
# Elastic Compliance Matrix: (Units=1/GPa)
#
#
# Indices 1 2 3 4 5 6 
#
# 1 0.023745 -0.004667 -0.011539 0.000000 0.000000 0.000000
# 2 -0.004667 0.010988 -0.003636 0.000000 0.000000 0.000000
# 3 -0.011539 -0.003636 0.023878 0.000000 0.000000 0.000000
# 4 0.000000 0.000000 0.000000 0.049481 0.000000 0.000000
# 5 0.000000 0.000000 0.000000 0.000000 0.053230 0.000000
# 6 0.000000 0.000000 0.000000 0.000000 0.000000 0.045632
#
#
# Mechanical properties :
#
#
# Convention : Reuss Voigt Hill
#
# Bulk Modulus (GPa) = 52.83332 56.37382 54.60357
# Shear Modulus (GPa) = 19.76704 21.30809 20.53757
#
# Velocity S-wave (km/s) = 3.42099 3.55184 3.48703
# Velocity P-wave (km/s) = 6.84723 7.08500 6.96713
#
# Compressibility (1/GPa) = 0.01892745
#
# Stress axis : x y z
#
# Youngs Moduli (GPa) = 42.11448 91.00849 41.87976
#
# Poissons Ratio (x) = 0.42475 0.48324
# Poissons Ratio (y) = 0.19656 0.15226
# Poissons Ratio (z) = 0.48595 0.33087
#
# Static dielectric constant tensor:
#      x y z
#    x 2.905980 0.000000 0.000000 
#    y 0.000000 3.608050 0.000000 
#    z 0.000000 0.000000 3.265010 
# 
# 
# High freq. dielectric constant tensor:
#      x y z
#    x 1.629040 0.000000 0.000000 
#    y 0.000000 1.671730 0.000000 
#    z 0.000000 0.000000 1.627100 
# 
# From -- ./inp_files/56029.got.cif
#   From: 2010.03.12/outbox.cif.g09.slc.cpg/sg63_29_cif.got.tgz:56029.got - 2010.04.10 19:34:48.
