data_PCOD8258098
_publ_section_title
;
Structure prediction by ZEFSAII (Michael W. Deem and Ramdas Pophale) SiO2 
 PCOD8258098
Probable space group: C M C M
;
_chemical_formula_sum "Si O2"
_cell_formula_units_Z 88
_cell_length_a 17.011008
_cell_length_b 28.660447
_cell_length_c 8.835969
_cell_angle_alpha 90.000000
_cell_angle_beta 90.000000
_cell_angle_gamma 90.000000
_cell_volume 4307.915658
_symmetry_space_group_name_H-M "C M C M"
_symmetry_group_IT_number 63
_symmetry_cell_setting 'orthorhombic'
loop_
_space_group_symop_operation_xyz
x,y,z
-x,-y,1/2+z
x,-y,-z
-x,y,1/2-z
-x,-y,-z
x,y,1/2-z
-x,y,z
x,-y,1/2+z
1/2+x,1/2+y,z
1/2-x,1/2-y,1/2+z
1/2+x,1/2-y,-z
1/2-x,1/2+y,1/2-z
1/2-x,1/2-y,-z
1/2+x,1/2+y,1/2-z
1/2-x,1/2+y,z
1/2+x,1/2-y,1/2+z
loop_
_atom_site_type_symbol
_atom_site_label
_atom_site_fract_x
_atom_site_fract_y
_atom_site_fract_z
Si Si1 0.415321 0.314634 0.427612
Si Si2 0.500000 0.549678 0.428542
Si Si3 0.174069 0.273642 0.928718
Si Si4 0.652911 0.407477 0.071433
Si Si5 0.409979 0.139977 0.571546
Si Si6 0.316281 0.049644 0.928091
O O1 0.425469 0.316928 0.250000
O O2 0.500000 0.327259 0.503016
O O3 0.394505 0.262250 0.475248
O O4 0.347085 0.352061 0.470318
O O5 0.500000 0.500000 0.500000
O O6 0.500000 0.546788 0.250000
O O7 0.421367 0.573864 0.483353
O O8 0.186416 0.278456 0.750000
O O9 0.250000 0.250000 0.000000
O O10 0.149445 0.323641 0.994476
O O11 0.643101 0.416193 0.250000
O O12 0.732176 0.431678 0.011113
O O13 0.402997 0.147416 0.750000
O O14 0.500000 0.146376 0.515678
O O15 0.382254 0.087711 0.527440
O O16 0.312638 0.042635 0.750000
O O17 0.338093 0.000000 0.000000
#
# Coordination Sequence:
#
# PCOD8258098 Si02
#       6
#    16   8  16  16  16  16
#     4   9  17  32  57  83 110 149 194 234 278 343
#     4  12  24  36  52  78 112 150 196 246 297 352
#     4  11  22  37  60  91 124 160 202 245 297 361
#     4  10  19  36  59  81 111 152 197 240 293 355
#     4  10  22  42  65  90 123 161 203 254 311 368
#     4  10  22  39  61  88 117 155 201 251 309 370
#
# _framework density 20.427513000000001
#
# number of rings (size 3 to 8) (size 9 to 14) (size 15 to 20)
#    0.000    1.818    0.909    3.545    0.000    7.273 
#    0.000    3.636    0.000    0.000    0.000    0.000 
#    0.000    0.000    0.000    0.000    0.000    0.000 
#
# Total GULP energy -545321.211292 kJ/mol
# GULP energy per Si atom -12393.663893 kJ/mol
# Density = 2.038102 g / cm^3
# Si number density = 20.427513 Si / 1000 Ang^3
#
#
#
# Elastic Constant Matrix: (Units=GPa)
#
#
# Indices 1 2 3 4 5 6 
#
# 1 125.0227 56.9161 36.8188 0.0000 0.0000 0.0000
# 2 56.9161 157.9920 39.6883 0.0000 0.0000 0.0000
# 3 36.8188 39.6883 58.8046 0.0000 0.0000 0.0000
# 4 0.0000 0.0000 0.0000 32.0090 0.0000 0.0000
# 5 0.0000 0.0000 0.0000 0.0000 19.5192 0.0000
# 6 0.0000 0.0000 0.0000 0.0000 0.0000 53.5976
#
#
#
# Elastic Compliance Matrix: (Units=1/GPa)
#
#
# Indices 1 2 3 4 5 6 
#
# 1 0.010623 -0.002596 -0.004899 0.000000 0.000000 0.000000
# 2 -0.002596 0.008256 -0.003947 0.000000 0.000000 0.000000
# 3 -0.004899 -0.003947 0.022737 0.000000 0.000000 0.000000
# 4 0.000000 0.000000 0.000000 0.031241 0.000000 0.000000
# 5 0.000000 0.000000 0.000000 0.000000 0.051232 0.000000
# 6 0.000000 0.000000 0.000000 0.000000 0.000000 0.018658
#
#
# Mechanical properties :
#
#
# Convention : Reuss Voigt Hill
#
# Bulk Modulus (GPa) = 53.38509 67.62952 60.50731
# Shear Modulus (GPa) = 29.09101 34.91825 32.00463
#
# Velocity S-wave (km/s) = 3.77783 4.13894 3.96250
# Velocity P-wave (km/s) = 6.72458 7.48466 7.11478
#
# Compressibility (1/GPa) = 0.01873182
#
# Stress axis : x y z
#
# Youngs Moduli (GPa) = 94.13273 121.12172 43.98199
#
# Poissons Ratio (x) = 0.31447 0.21547
# Poissons Ratio (y) = 0.24440 0.17358
# Poissons Ratio (z) = 0.46117 0.47802
#
# Static dielectric constant tensor:
#      x y z
#    x 3.873020 0.000000 0.000000 
#    y 0.000000 4.376500 0.000000 
#    z 0.000000 0.000000 3.414120 
# 
# 
# High freq. dielectric constant tensor:
#      x y z
#    x 1.805990 0.000000 0.000000 
#    y 0.000000 1.816100 0.000000 
#    z 0.000000 0.000000 1.769320 
# 
# From -- ./inp_files/6884.got.cif
#   From: 2010.03.12/outbox.cif.g09.slc.cpg/sg63_4_cif.got.tgz:6884.got - 2010.04.10 19:34:48.
