data_PCOD8258201
_publ_section_title
;
Structure prediction by ZEFSAII (Michael W. Deem and Ramdas Pophale) SiO2 
 PCOD8258201
Probable space group: C M C M
;
_chemical_formula_sum "Si O2"
_cell_formula_units_Z 104
_cell_length_a 26.438507
_cell_length_b 23.072109
_cell_length_c 9.300838
_cell_angle_alpha 90.000000
_cell_angle_beta 90.000000
_cell_angle_gamma 90.000000
_cell_volume 5673.437846
_symmetry_space_group_name_H-M "C M C M"
_symmetry_group_IT_number 63
_symmetry_cell_setting 'orthorhombic'
loop_
_space_group_symop_operation_xyz
x,y,z
-x,-y,1/2+z
x,-y,-z
-x,y,1/2-z
-x,-y,-z
x,y,1/2-z
-x,y,z
x,-y,1/2+z
1/2+x,1/2+y,z
1/2-x,1/2-y,1/2+z
1/2+x,1/2-y,-z
1/2-x,1/2+y,1/2-z
1/2-x,1/2-y,-z
1/2+x,1/2+y,1/2-z
1/2-x,1/2+y,z
1/2+x,1/2-y,1/2+z
loop_
_atom_site_type_symbol
_atom_site_label
_atom_site_fract_x
_atom_site_fract_y
_atom_site_fract_z
Si Si1 0.920865 0.356921 0.085066
Si Si2 0.500000 0.063253 0.426163
Si Si3 0.325335 0.214545 0.583856
Si Si4 0.789606 0.819509 0.416997
Si Si5 0.427822 0.552426 0.589802
Si Si6 0.500000 0.759040 0.094546
Si Si7 0.500000 0.352070 0.083073
Si Si8 0.808689 0.054004 0.588289
O O1 0.920427 0.381296 0.250000
O O2 0.864339 0.336815 0.033539
O O3 0.950532 0.297320 0.077072
O O4 0.948699 0.403826 0.981163
O O5 0.500000 0.059954 0.250000
O O6 0.500000 0.000000 0.500000
O O7 0.336487 0.228659 0.750000
O O8 0.268853 0.193301 0.557430
O O9 0.328240 0.274976 0.495411
O O10 0.804978 0.818255 0.250000
O O11 0.794843 0.884205 0.481465
O O12 0.451023 0.500000 0.500000
O O13 0.448312 0.543746 0.750000
O O14 0.450041 0.613077 0.530814
O O15 0.368328 0.551540 0.584552
O O16 0.500000 0.728674 0.250000
O O17 0.500000 0.711621 0.975149
O O18 0.500000 0.341629 0.250000
O O19 0.787203 0.049247 0.750000
O O20 0.785202 0.000000 0.500000
#
# Coordination Sequence:
#
# PCOD8258201 Si02
#       8
#    16   8  16  16  16   8   8  16
#     4   9  19  37  56  77 110 142 173 215 258 308
#     4  11  22  38  62  88 112 143 179 215 265 326
#     4   9  18  33  54  78 105 140 176 214 265 318
#     4   9  18  32  51  76 106 138 175 220 268 315
#     4   9  18  31  44  61  86 120 160 202 247 290
#     4   9  19  32  46  69  98 129 162 200 247 296
#     4  10  20  30  43  65  92 120 157 203 250 296
#     4   9  18  32  48  67  94 129 167 210 255 299
#
# _framework density 18.331036999999998
#
# number of rings (size 3 to 8) (size 9 to 14) (size 15 to 20)
#    0.000    2.769    0.000    1.385    2.154    3.077 
#    0.000    0.769    0.000    1.846    0.000    0.000 
#    0.000    0.000    0.000    0.000    0.000    0.000 
#
# Total GULP energy -644219.788957 kJ/mol
# GULP energy per Si atom -12388.842095 kJ/mol
# Density = 1.828931 g / cm^3
# Si number density = 18.331037 Si / 1000 Ang^3
#
#
#
# Elastic Constant Matrix: (Units=GPa)
#
#
# Indices 1 2 3 4 5 6 
#
# 1 51.5799 25.5358 29.2334 0.0000 0.0000 0.0000
# 2 25.5358 135.5248 63.0767 0.0000 0.0000 0.0000
# 3 29.2334 63.0767 77.0432 0.0000 0.0000 0.0000
# 4 0.0000 0.0000 0.0000 37.1437 0.0000 0.0000
# 5 0.0000 0.0000 0.0000 0.0000 20.2899 0.0000
# 6 0.0000 0.0000 0.0000 0.0000 0.0000 24.5910
#
#
#
# Elastic Compliance Matrix: (Units=1/GPa)
#
#
# Indices 1 2 3 4 5 6 
#
# 1 0.024718 -0.000472 -0.008992 0.000000 0.000000 0.000000
# 2 -0.000472 0.011930 -0.009589 0.000000 0.000000 0.000000
# 3 -0.008992 -0.009589 0.024242 0.000000 0.000000 0.000000
# 4 0.000000 0.000000 0.000000 0.026922 0.000000 0.000000
# 5 0.000000 0.000000 0.000000 0.000000 0.049286 0.000000
# 6 0.000000 0.000000 0.000000 0.000000 0.000000 0.040665
#
#
# Mechanical properties :
#
#
# Convention : Reuss Voigt Hill
#
# Bulk Modulus (GPa) = 43.89009 55.53774 49.71391
# Shear Modulus (GPa) = 22.37493 26.15839 24.26666
#
# Velocity S-wave (km/s) = 3.49750 3.78166 3.64236
# Velocity P-wave (km/s) = 6.34863 7.03071 6.69835
#
# Compressibility (1/GPa) = 0.02278419
#
# Stress axis : x y z
#
# Youngs Moduli (GPa) = 40.45693 83.81934 41.25040
#
# Poissons Ratio (x) = 0.03956 0.37094
# Poissons Ratio (y) = 0.01910 0.39553
# Poissons Ratio (z) = 0.36381 0.80371
#
# Static dielectric constant tensor:
#      x y z
#    x 3.384430 0.000000 0.000000 
#    y 0.000000 3.513130 0.000000 
#    z 0.000000 0.000000 3.464690 
# 
# 
# High freq. dielectric constant tensor:
#      x y z
#    x 1.704860 0.000000 0.000000 
#    y 0.000000 1.709850 0.000000 
#    z 0.000000 0.000000 1.699420 
# 
# From -- ./inp_files/14705.got.cif
#   From: 2010.03.12/outbox.cif.g09.slc.cpg/sg63_8_cif.got.tgz:14705.got - 2010.04.10 19:34:48.
