data_PCOD8258558
_publ_section_title
;
Structure prediction by ZEFSAII (Michael W. Deem and Ramdas Pophale) SiO2 
 PCOD8258558
Probable space group: C M C M
;
_chemical_formula_sum "Si O2"
_cell_formula_units_Z 96
_cell_length_a 23.665427
_cell_length_b 12.240052
_cell_length_c 17.517194
_cell_angle_alpha 90.000000
_cell_angle_beta 90.000000
_cell_angle_gamma 90.000000
_cell_volume 5074.136517
_symmetry_space_group_name_H-M "C M C M"
_symmetry_group_IT_number 63
_symmetry_cell_setting 'orthorhombic'
loop_
_space_group_symop_operation_xyz
x,y,z
-x,-y,1/2+z
x,-y,-z
-x,y,1/2-z
-x,-y,-z
x,y,1/2-z
-x,y,z
x,-y,1/2+z
1/2+x,1/2+y,z
1/2-x,1/2-y,1/2+z
1/2+x,1/2-y,-z
1/2-x,1/2+y,1/2-z
1/2-x,1/2-y,-z
1/2+x,1/2+y,1/2-z
1/2-x,1/2+y,z
1/2+x,1/2-y,1/2+z
loop_
_atom_site_type_symbol
_atom_site_label
_atom_site_fract_x
_atom_site_fract_y
_atom_site_fract_z
Si Si1 0.828462 0.738999 0.956084
Si Si2 0.725808 0.594526 0.559431
Si Si3 0.061154 0.033344 0.659941
Si Si4 0.673005 0.572960 0.160307
Si Si5 0.933592 0.273524 0.666886
Si Si6 0.565467 0.873553 0.513397
O O1 0.791170 0.630256 0.942452
O O2 0.811843 0.817312 0.885164
O O3 0.812065 0.799741 0.035750
O O4 0.893778 0.699566 0.959396
O O5 0.712972 0.500000 0.500000
O O6 0.709058 0.536841 0.639780
O O7 0.054481 0.034902 0.750000
O O8 0.082752 0.153411 0.635573
O O9 0.000000 0.004089 0.622641
O O10 0.107839 0.946347 0.635091
O O11 0.680754 0.594457 0.250000
O O12 0.905076 0.300405 0.750000
O O13 0.915586 0.358575 0.601750
O O14 0.000000 0.276885 0.679082
O O15 0.500000 0.838590 0.498694
O O16 0.574804 0.000000 0.500000
#
# Coordination Sequence:
#
# PCOD8258558 Si02
#       6
#    16  16  16  16  16  16
#     4  10  20  35  54  75 102 136 174 214 265 318
#     4   9  19  36  56  73  94 131 173 218 268 314
#     4   8  14  26  46  73 104 132 156 193 248 301
#     4  10  20  33  52  79 106 133 170 213 258 316
#     4   8  14  27  48  72  98 131 173 218 256 291
#     4  10  20  33  51  76 107 143 180 216 257 316
#
# _framework density 18.919474999999998
#
# number of rings (size 3 to 8) (size 9 to 14) (size 15 to 20)
#    0.000    2.833    0.000    2.500    0.000    1.333 
#    0.000    0.833    0.000   19.000    0.000    0.000 
#    0.000    0.000    0.000    0.000    0.000    0.000 
#
# Total GULP energy -594653.696771 kJ/mol
# GULP energy per Si atom -12388.618683 kJ/mol
# Density = 1.887641 g / cm^3
# Si number density = 18.919475 Si / 1000 Ang^3
#
#
#
# Elastic Constant Matrix: (Units=GPa)
#
#
# Indices 1 2 3 4 5 6 
#
# 1 87.2063 26.9211 15.8155 0.0000 0.0000 0.0000
# 2 26.9211 55.6983 15.3343 0.0000 0.0000 0.0000
# 3 15.8155 15.3343 62.9892 0.0000 0.0000 0.0000
# 4 0.0000 0.0000 0.0000 18.6355 0.0000 0.0000
# 5 0.0000 0.0000 0.0000 0.0000 19.4925 0.0000
# 6 0.0000 0.0000 0.0000 0.0000 0.0000 19.6807
#
#
#
# Elastic Compliance Matrix: (Units=1/GPa)
#
#
# Indices 1 2 3 4 5 6 
#
# 1 0.013700 -0.006082 -0.001959 0.000000 0.000000 0.000000
# 2 -0.006082 0.021944 -0.003815 0.000000 0.000000 0.000000
# 3 -0.001959 -0.003815 0.017296 0.000000 0.000000 0.000000
# 4 0.000000 0.000000 0.000000 0.053661 0.000000 0.000000
# 5 0.000000 0.000000 0.000000 0.000000 0.051302 0.000000
# 6 0.000000 0.000000 0.000000 0.000000 0.000000 0.050811
#
#
# Mechanical properties :
#
#
# Convention : Reuss Voigt Hill
#
# Bulk Modulus (GPa) = 34.21434 35.78173 34.99804
# Shear Modulus (GPa) = 20.64667 21.41660 21.03164
#
# Velocity S-wave (km/s) = 3.30705 3.36815 3.33774
# Velocity P-wave (km/s) = 5.71888 5.83778 5.77863
#
# Compressibility (1/GPa) = 0.02922751
#
# Stress axis : x y z
#
# Youngs Moduli (GPa) = 72.99252 45.57052 57.81569
#
# Poissons Ratio (x) = 0.27718 0.11327
# Poissons Ratio (y) = 0.44397 0.22056
# Poissons Ratio (z) = 0.14300 0.17385
#
# Static dielectric constant tensor:
#      x y z
#    x 3.882960 0.000000 0.000000 
#    y 0.000000 3.498700 0.000000 
#    z 0.000000 0.000000 4.078750 
# 
# 
# High freq. dielectric constant tensor:
#      x y z
#    x 1.727170 0.000000 0.000000 
#    y 0.000000 1.726340 0.000000 
#    z 0.000000 0.000000 1.714750 
# 
# From -- ./inp_files/48017.got.cif
#   From: 2010.03.12/outbox.cif.g09.slc.cpg/sg63_25_cif.got.tgz:48017.got - 2010.04.10 19:34:48.
