data_PCOD8258865
_publ_section_title
;
Structure prediction by ZEFSAII (Michael W. Deem and Ramdas Pophale) SiO2 
 PCOD8258865
Probable space group: C M C M
;
_chemical_formula_sum "Si O2"
_cell_formula_units_Z 96
_cell_length_a 13.124987
_cell_length_b 28.616297
_cell_length_c 14.119518
_cell_angle_alpha 90.000000
_cell_angle_beta 90.000000
_cell_angle_gamma 90.000000
_cell_volume 5303.128955
_symmetry_space_group_name_H-M "C M C M"
_symmetry_group_IT_number 63
_symmetry_cell_setting 'orthorhombic'
loop_
_space_group_symop_operation_xyz
x,y,z
-x,-y,1/2+z
x,-y,-z
-x,y,1/2-z
-x,-y,-z
x,y,1/2-z
-x,y,z
x,-y,1/2+z
1/2+x,1/2+y,z
1/2-x,1/2-y,1/2+z
1/2+x,1/2-y,-z
1/2-x,1/2+y,1/2-z
1/2-x,1/2-y,-z
1/2+x,1/2+y,1/2-z
1/2-x,1/2+y,z
1/2+x,1/2-y,1/2+z
loop_
_atom_site_type_symbol
_atom_site_label
_atom_site_fract_x
_atom_site_fract_y
_atom_site_fract_z
Si Si1 0.379871 0.622077 0.552276
Si Si2 0.878530 0.987323 0.750000
Si Si3 0.116231 0.383814 0.641020
Si Si4 0.269922 0.545497 0.438425
Si Si5 0.384569 0.720473 0.478083
Si Si6 0.196086 0.719417 0.359809
Si Si7 0.620580 0.594756 0.750000
O O1 0.500000 0.622241 0.559107
O O2 0.348898 0.576257 0.496481
O O3 0.342168 0.669390 0.504545
O O4 0.332405 0.619738 0.657850
O O5 0.827974 0.964793 0.658355
O O6 0.000000 0.978579 0.750000
O O7 0.848015 0.041023 0.750000
O O8 0.119173 0.399146 0.750000
O O9 0.167174 0.425030 0.579891
O O10 0.177230 0.335618 0.627178
O O11 0.000000 0.377331 0.606308
O O12 0.241064 0.500000 0.500000
O O13 0.500000 0.719889 0.439700
O O14 0.309983 0.735264 0.392321
O O15 0.381232 0.753245 0.571107
O O16 0.178967 0.734023 0.250000
O O17 0.500000 0.599143 0.750000
#
# Coordination Sequence:
#
# PCOD8258865 Si02
#       7
#    16   8  16  16  16  16   8
#     4  10  20  34  53  81 114 147 179 219 271 330
#     4  11  22  34  51  78 113 151 184 220 273 334
#     4  10  21  39  59  78 105 142 187 234 277 321
#     4  12  22  35  55  80 110 144 188 230 273 327
#     4  10  21  36  57  86 115 144 184 229 276 335
#     4  10  21  38  59  84 113 147 185 228 280 332
#     4   9  18  32  50  76 111 151 183 212 266 326
#
# _framework density 18.102520999999999
#
# number of rings (size 3 to 8) (size 9 to 14) (size 15 to 20)
#    0.000    1.667    4.167    1.000    1.167    2.333 
#    0.000    0.000    0.000    0.000    0.000    0.000 
#    0.000    0.000    0.000    0.000    0.000    0.000 
#
# Total GULP energy -595053.868682 kJ/mol
# GULP energy per Si atom -12396.955598 kJ/mol
# Density = 1.806132 g / cm^3
# Si number density = 18.102521 Si / 1000 Ang^3
#
#
#
# Elastic Constant Matrix: (Units=GPa)
#
#
# Indices 1 2 3 4 5 6 
#
# 1 51.6225 10.6946 16.9543 0.0000 0.0000 0.0000
# 2 10.6946 66.5687 16.7085 0.0000 0.0000 0.0000
# 3 16.9543 16.7085 82.1828 0.0000 0.0000 0.0000
# 4 0.0000 0.0000 0.0000 32.3783 0.0000 0.0000
# 5 0.0000 0.0000 0.0000 0.0000 14.9758 0.0000
# 6 0.0000 0.0000 0.0000 0.0000 0.0000 15.4964
#
#
#
# Elastic Compliance Matrix: (Units=1/GPa)
#
#
# Indices 1 2 3 4 5 6 
#
# 1 0.021145 -0.002426 -0.003869 0.000000 0.000000 0.000000
# 2 -0.002426 0.016108 -0.002774 0.000000 0.000000 0.000000
# 3 -0.003869 -0.002774 0.013530 0.000000 0.000000 0.000000
# 4 0.000000 0.000000 0.000000 0.030885 0.000000 0.000000
# 5 0.000000 0.000000 0.000000 0.000000 0.066774 0.000000
# 6 0.000000 0.000000 0.000000 0.000000 0.000000 0.064531
#
#
# Mechanical properties :
#
#
# Convention : Reuss Voigt Hill
#
# Bulk Modulus (GPa) = 30.63308 32.12098 31.37703
# Shear Modulus (GPa) = 20.66171 22.97121 21.81646
#
# Velocity S-wave (km/s) = 3.38209 3.56610 3.47531
# Velocity P-wave (km/s) = 5.67539 5.89394 5.78570
#
# Compressibility (1/GPa) = 0.03264445
#
# Stress axis : x y z
#
# Youngs Moduli (GPa) = 47.29335 62.08020 73.90856
#
# Poissons Ratio (x) = 0.15060 0.28595
# Poissons Ratio (y) = 0.11473 0.20506
# Poissons Ratio (z) = 0.18297 0.17224
#
# Static dielectric constant tensor:
#      x y z
#    x 3.134750 0.000000 0.000000 
#    y 0.000000 3.483850 0.000000 
#    z 0.000000 0.000000 3.315720 
# 
# 
# High freq. dielectric constant tensor:
#      x y z
#    x 1.684870 0.000000 0.000000 
#    y 0.000000 1.705920 0.000000 
#    z 0.000000 0.000000 1.705800 
# 
# From -- ./inp_files/32174.got.cif
#   From: 2010.03.12/outbox.cif.g09.slc.cpg/sg63_17_cif.got.tgz:32174.got - 2010.04.10 19:34:48.
