data_PCOD8258434
_publ_section_title
;
Structure prediction by ZEFSAII (Michael W. Deem and Ramdas Pophale) SiO2 
 PCOD8258434
Probable space group: C M C M
;
_chemical_formula_sum "Si O2"
_cell_formula_units_Z 96
_cell_length_a 18.650990
_cell_length_b 32.500842
_cell_length_c 9.007407
_cell_angle_alpha 90.000000
_cell_angle_beta 90.000000
_cell_angle_gamma 90.000000
_cell_volume 5460.045835
_symmetry_space_group_name_H-M "C M C M"
_symmetry_group_IT_number 63
_symmetry_cell_setting 'orthorhombic'
loop_
_space_group_symop_operation_xyz
x,y,z
-x,-y,1/2+z
x,-y,-z
-x,y,1/2-z
-x,-y,-z
x,y,1/2-z
-x,y,z
x,-y,1/2+z
1/2+x,1/2+y,z
1/2-x,1/2-y,1/2+z
1/2+x,1/2-y,-z
1/2-x,1/2+y,1/2-z
1/2-x,1/2-y,-z
1/2+x,1/2+y,1/2-z
1/2-x,1/2+y,z
1/2+x,1/2-y,1/2+z
loop_
_atom_site_type_symbol
_atom_site_label
_atom_site_fract_x
_atom_site_fract_y
_atom_site_fract_z
Si Si1 0.580572 0.324230 0.579377
Si Si2 0.580354 0.090623 0.077185
Si Si3 0.783651 0.125698 0.077779
Si Si4 0.716871 0.958309 0.578108
Si Si5 0.083074 0.740285 0.422398
Si Si6 0.152187 0.335254 0.425910
O O1 0.587522 0.309889 0.750000
O O2 0.500000 0.339871 0.545086
O O3 0.634384 0.361853 0.544846
O O4 0.601274 0.286178 0.475560
O O5 0.590928 0.101597 0.250000
O O6 0.500000 0.074817 0.043640
O O7 0.636482 0.055301 0.029139
O O8 0.594572 0.132048 0.986229
O O9 0.762900 0.131846 0.250000
O O10 0.772448 0.077891 0.033926
O O11 0.731769 0.154378 0.981699
O O12 0.719305 0.968015 0.750000
O O13 0.740593 0.000000 0.500000
O O14 0.102592 0.736421 0.250000
O O15 0.131916 0.709636 0.515993
O O16 0.000000 0.730069 0.452220
O O17 0.150598 0.335523 0.250000
#
# Coordination Sequence:
#
# PCOD8258434 Si02
#       6
#    16  16  16  16  16  16
#     4   9  18  34  56  78  96 119 158 205 246 287
#     4   9  18  33  50  68  96 134 170 204 246 290
#     4   9  19  36  54  72  98 129 158 194 246 300
#     4   9  18  32  50  72  97 127 161 196 238 289
#     4  10  20  33  49  70 100 137 169 199 242 290
#     4  11  21  31  47  72 100 132 172 211 239 272
#
# _framework density 17.582270000000001
#
# number of rings (size 3 to 8) (size 9 to 14) (size 15 to 20)
#    0.000    2.500    0.000    3.500    0.000    7.667 
#    0.000    0.000    0.000    0.500    0.000    0.000 
#    0.000    0.000    0.000    0.000    0.000    0.333 
#
# Total GULP energy -595213.638631 kJ/mol
# GULP energy per Si atom -12400.284138 kJ/mol
# Density = 1.754225 g / cm^3
# Si number density = 17.582270 Si / 1000 Ang^3
#
#
#
# Elastic Constant Matrix: (Units=GPa)
#
#
# Indices 1 2 3 4 5 6 
#
# 1 93.7600 73.7385 39.8580 0.0000 0.0000 0.0000
# 2 73.7385 121.5393 49.7362 0.0000 0.0000 0.0000
# 3 39.8580 49.7362 79.1675 0.0000 0.0000 0.0000
# 4 0.0000 0.0000 0.0000 30.8128 0.0000 0.0000
# 5 0.0000 0.0000 0.0000 0.0000 18.1403 0.0000
# 6 0.0000 0.0000 0.0000 0.0000 0.0000 17.5924
#
#
#
# Elastic Compliance Matrix: (Units=1/GPa)
#
#
# Indices 1 2 3 4 5 6 
#
# 1 0.021084 -0.011372 -0.003471 0.000000 0.000000 0.000000
# 2 -0.011372 0.017208 -0.005086 0.000000 0.000000 0.000000
# 3 -0.003471 -0.005086 0.017574 0.000000 0.000000 0.000000
# 4 0.000000 0.000000 0.000000 0.032454 0.000000 0.000000
# 5 0.000000 0.000000 0.000000 0.000000 0.055126 0.000000
# 6 0.000000 0.000000 0.000000 0.000000 0.000000 0.056843
#
#
# Mechanical properties :
#
#
# Convention : Reuss Voigt Hill
#
# Bulk Modulus (GPa) = 62.46163 69.01468 65.73816
# Shear Modulus (GPa) = 20.36805 22.05139 21.20972
#
# Velocity S-wave (km/s) = 3.40728 3.54529 3.47697
# Velocity P-wave (km/s) = 7.14716 7.48975 7.32046
#
# Compressibility (1/GPa) = 0.01600983
#
# Stress axis : x y z
#
# Youngs Moduli (GPa) = 47.42835 58.11217 56.90195
#
# Poissons Ratio (x) = 0.66082 0.19752
# Poissons Ratio (y) = 0.53933 0.28938
# Poissons Ratio (z) = 0.16463 0.29554
#
# Static dielectric constant tensor:
#      x y z
#    x 3.305880 0.000000 0.000000 
#    y 0.000000 3.135590 0.000000 
#    z 0.000000 0.000000 3.246230 
# 
# 
# High freq. dielectric constant tensor:
#      x y z
#    x 1.670860 0.000000 0.000000 
#    y 0.000000 1.665670 0.000000 
#    z 0.000000 0.000000 1.678660 
# 
# From -- ./inp_files/8541.got.cif
#   From: 2010.03.12/outbox.cif.g09.slc.cpg/sg63_5_cif.got.tgz:8541.got - 2010.04.10 19:34:48.
