data_PCOD8258121
_publ_section_title
;
Structure prediction by ZEFSAII (Michael W. Deem and Ramdas Pophale) SiO2 
 PCOD8258121
Probable space group: C M C M
;
_chemical_formula_sum "Si O2"
_cell_formula_units_Z 96
_cell_length_a 28.466159
_cell_length_b 18.574300
_cell_length_c 9.215630
_cell_angle_alpha 90.000000
_cell_angle_beta 90.000000
_cell_angle_gamma 90.000000
_cell_volume 4872.662780
_symmetry_space_group_name_H-M "C M C M"
_symmetry_group_IT_number 63
_symmetry_cell_setting 'orthorhombic'
loop_
_space_group_symop_operation_xyz
x,y,z
-x,-y,1/2+z
x,-y,-z
-x,y,1/2-z
-x,-y,-z
x,y,1/2-z
-x,y,z
x,-y,1/2+z
1/2+x,1/2+y,z
1/2-x,1/2-y,1/2+z
1/2+x,1/2-y,-z
1/2-x,1/2+y,1/2-z
1/2-x,1/2-y,-z
1/2+x,1/2+y,1/2-z
1/2-x,1/2+y,z
1/2+x,1/2-y,1/2+z
loop_
_atom_site_type_symbol
_atom_site_label
_atom_site_fract_x
_atom_site_fract_y
_atom_site_fract_z
Si Si1 0.223160 0.575950 0.074458
Si Si2 0.801601 0.184484 0.410954
Si Si3 0.626160 0.561484 0.410757
Si Si4 0.946959 0.866671 0.410197
Si Si5 0.346738 0.831080 0.421540
Si Si6 0.447707 0.778220 0.415892
O O1 0.224334 0.567827 0.250000
O O2 0.259898 0.637496 0.016034
O O3 0.236042 0.500000 0.000000
O O4 0.172470 0.601444 0.014457
O O5 0.784111 0.202526 0.250000
O O6 0.847760 0.136600 0.408338
O O7 0.818471 0.259844 0.482433
O O8 0.654734 0.500000 0.500000
O O9 0.616684 0.532480 0.250000
O O10 0.577544 0.572674 0.493916
O O11 0.924065 0.862322 0.250000
O O12 0.942546 0.788853 0.480425
O O13 0.000000 0.891957 0.399449
O O14 0.337316 0.841384 0.250000
O O15 0.403146 0.829710 0.450572
O O16 0.443351 0.751215 0.250000
O O17 0.500000 0.814551 0.439446
#
# Coordination Sequence:
#
# PCOD8258121 Si02
#       6
#    16  16  16  16  16  16
#     4  11  23  39  58  83 115 151 189 230 282 336
#     4   9  19  36  57  82 112 145 186 231 274 327
#     4  11  21  35  52  73 103 143 186 232 280 329
#     4  10  20  33  49  72 103 139 182 231 279 328
#     4  10  19  36  60  87 117 147 184 230 275 330
#     4   9  17  32  57  85 113 147 182 222 277 334
#
# _framework density 19.701754000000001
#
# number of rings (size 3 to 8) (size 9 to 14) (size 15 to 20)
#    0.000    2.000    1.667    2.500    0.000    2.000 
#    0.000    3.333    0.000    0.500    0.000    0.000 
#    0.000    0.000    0.000    0.000    0.000    0.000 
#
# Total GULP energy -594632.831285 kJ/mol
# GULP energy per Si atom -12388.183985 kJ/mol
# Density = 1.965691 g / cm^3
# Si number density = 19.701754 Si / 1000 Ang^3
#
#
#
# Elastic Constant Matrix: (Units=GPa)
#
#
# Indices 1 2 3 4 5 6 
#
# 1 108.2662 36.5188 37.9620 0.0000 0.0000 0.0000
# 2 36.5188 50.6361 23.1729 0.0000 0.0000 0.0000
# 3 37.9620 23.1729 98.3414 0.0000 0.0000 0.0000
# 4 0.0000 0.0000 0.0000 29.0795 0.0000 0.0000
# 5 0.0000 0.0000 0.0000 0.0000 19.6544 0.0000
# 6 0.0000 0.0000 0.0000 0.0000 0.0000 11.3806
#
#
#
# Elastic Compliance Matrix: (Units=1/GPa)
#
#
# Indices 1 2 3 4 5 6 
#
# 1 0.013024 -0.007949 -0.003154 0.000000 0.000000 0.000000
# 2 -0.007949 0.026988 -0.003291 0.000000 0.000000 0.000000
# 3 -0.003154 -0.003291 0.012162 0.000000 0.000000 0.000000
# 4 0.000000 0.000000 0.000000 0.034389 0.000000 0.000000
# 5 0.000000 0.000000 0.000000 0.000000 0.050879 0.000000
# 6 0.000000 0.000000 0.000000 0.000000 0.000000 0.087869
#
#
# Mechanical properties :
#
#
# Convention : Reuss Voigt Hill
#
# Bulk Modulus (GPa) = 42.76315 50.28346 46.52330
# Shear Modulus (GPa) = 19.09175 22.66224 20.87699
#
# Velocity S-wave (km/s) = 3.11631 3.39524 3.25876
# Velocity P-wave (km/s) = 5.89075 6.39905 6.15016
#
# Compressibility (1/GPa) = 0.02338462
#
# Stress axis : x y z
#
# Youngs Moduli (GPa) = 76.78213 37.05386 82.22524
#
# Poissons Ratio (x) = 0.29455 0.25937
# Poissons Ratio (y) = 0.61036 0.27058
# Poissons Ratio (z) = 0.24220 0.12193
#
# Static dielectric constant tensor:
#      x y z
#    x 3.822600 0.000000 0.000000 
#    y 0.000000 3.388190 0.000000 
#    z 0.000000 0.000000 3.627490 
# 
# 
# High freq. dielectric constant tensor:
#      x y z
#    x 1.771980 0.000000 0.000000 
#    y 0.000000 1.740930 0.000000 
#    z 0.000000 0.000000 1.760400 
# 
# From -- ./inp_files/12322.got.cif
#   From: 2010.03.12/outbox.cif.g09.slc.cpg/sg63_7_cif.got.tgz:12322.got - 2010.04.10 19:34:48.
