data_PCOD8258265
_publ_section_title
;
Structure prediction by ZEFSAII (Michael W. Deem and Ramdas Pophale) SiO2 
 PCOD8258265
Probable space group: C M C M
;
_chemical_formula_sum "Si O2"
_cell_formula_units_Z 88
_cell_length_a 19.153226
_cell_length_b 26.932200
_cell_length_c 8.827248
_cell_angle_alpha 90.000000
_cell_angle_beta 90.000000
_cell_angle_gamma 90.000000
_cell_volume 4553.434485
_symmetry_space_group_name_H-M "C M C M"
_symmetry_group_IT_number 63
_symmetry_cell_setting 'orthorhombic'
loop_
_space_group_symop_operation_xyz
x,y,z
-x,-y,1/2+z
x,-y,-z
-x,y,1/2-z
-x,-y,-z
x,y,1/2-z
-x,y,z
x,-y,1/2+z
1/2+x,1/2+y,z
1/2-x,1/2-y,1/2+z
1/2+x,1/2-y,-z
1/2-x,1/2+y,1/2-z
1/2-x,1/2-y,-z
1/2+x,1/2+y,1/2-z
1/2-x,1/2+y,z
1/2+x,1/2-y,1/2+z
loop_
_atom_site_type_symbol
_atom_site_label
_atom_site_fract_x
_atom_site_fract_y
_atom_site_fract_z
Si Si1 0.221473 0.549924 0.427132
Si Si2 0.580389 0.769732 0.428739
Si Si3 0.690219 0.697507 0.578189
Si Si4 0.500000 0.552923 0.928523
Si Si5 0.647270 0.584708 0.579950
Si Si6 0.323534 0.158087 0.070204
O O1 0.187722 0.500000 0.500000
O O2 0.212228 0.545050 0.250000
O O3 0.302869 0.552657 0.471444
O O4 0.185604 0.601108 0.486854
O O5 0.589998 0.773667 0.250000
O O6 0.500000 0.758971 0.472682
O O7 0.629434 0.726645 0.492861
O O8 0.603139 0.822145 0.504682
O O9 0.699463 0.717815 0.750000
O O10 0.666674 0.641402 0.579366
O O11 0.764793 0.697424 0.490970
O O12 0.500000 0.548518 0.750000
O O13 0.431130 0.581515 0.984546
O O14 0.500000 0.500000 0.000000
O O15 0.653798 0.562685 0.750000
O O16 0.321560 0.159792 0.250000
#
# Coordination Sequence:
#
# PCOD8258265 Si02
#       6
#    16  16  16   8  16  16
#     4  10  20  34  55  81 107 135 174 221 269 321
#     4  11  24  39  56  81 113 146 182 227 276 328
#     4  10  20  35  58  82 108 145 185 228 273 323
#     4  10  20  32  44  64  96 136 180 222 265 312
#     4   9  19  33  50  72 102 138 180 225 266 315
#     4  10  21  38  59  83 112 145 183 226 271 325
#
# _framework density 19.326070999999999
#
# number of rings (size 3 to 8) (size 9 to 14) (size 15 to 20)
#    0.000    2.000    0.000    3.273    1.273    6.545 
#    0.000    0.000    0.000    0.545    0.000    0.000 
#    0.000    0.000    0.000    0.000    0.000    0.000 
#
# Total GULP energy -545484.946893 kJ/mol
# GULP energy per Si atom -12397.385157 kJ/mol
# Density = 1.928208 g / cm^3
# Si number density = 19.326071 Si / 1000 Ang^3
#
#
#
# Elastic Constant Matrix: (Units=GPa)
#
#
# Indices 1 2 3 4 5 6 
#
# 1 80.3505 27.3271 34.2262 0.0000 0.0000 0.0000
# 2 27.3271 71.0740 31.0465 0.0000 0.0000 0.0000
# 3 34.2262 31.0465 73.4360 0.0000 0.0000 0.0000
# 4 0.0000 0.0000 0.0000 33.4390 0.0000 0.0000
# 5 0.0000 0.0000 0.0000 0.0000 28.6852 0.0000
# 6 0.0000 0.0000 0.0000 0.0000 0.0000 11.6164
#
#
#
# Elastic Compliance Matrix: (Units=1/GPa)
#
#
# Indices 1 2 3 4 5 6 
#
# 1 0.016248 -0.003605 -0.006049 0.000000 0.000000 0.000000
# 2 -0.003605 0.018057 -0.005954 0.000000 0.000000 0.000000
# 3 -0.006049 -0.005954 0.018953 0.000000 0.000000 0.000000
# 4 0.000000 0.000000 0.000000 0.029905 0.000000 0.000000
# 5 0.000000 0.000000 0.000000 0.000000 0.034861 0.000000
# 6 0.000000 0.000000 0.000000 0.000000 0.000000 0.086085
#
#
# Mechanical properties :
#
#
# Convention : Reuss Voigt Hill
#
# Bulk Modulus (GPa) = 45.36476 45.56223 45.46349
# Shear Modulus (GPa) = 20.60397 23.56550 22.08474
#
# Velocity S-wave (km/s) = 3.26870 3.49573 3.38412
# Velocity P-wave (km/s) = 6.14574 6.31824 6.23259
#
# Compressibility (1/GPa) = 0.02204354
#
# Stress axis : x y z
#
# Youngs Moduli (GPa) = 61.54605 55.38147 52.76114
#
# Poissons Ratio (x) = 0.19965 0.31913
# Poissons Ratio (y) = 0.22188 0.31412
# Poissons Ratio (z) = 0.37227 0.32972
#
# Static dielectric constant tensor:
#      x y z
#    x 3.569630 0.000000 0.000000 
#    y 0.000000 3.750760 0.000000 
#    z 0.000000 0.000000 3.607280 
# 
# 
# High freq. dielectric constant tensor:
#      x y z
#    x 1.731570 0.000000 0.000000 
#    y 0.000000 1.764400 0.000000 
#    z 0.000000 0.000000 1.757060 
# 
# From -- ./inp_files/6802.got.cif
#   From: 2010.03.12/outbox.cif.g09.slc.cpg/sg63_4_cif.got.tgz:6802.got - 2010.04.10 19:34:48.
