data_PCOD8258554
_publ_section_title
;
Structure prediction by ZEFSAII (Michael W. Deem and Ramdas Pophale) SiO2 
 PCOD8258554
Probable space group: C M C M
;
_chemical_formula_sum "Si O2"
_cell_formula_units_Z 96
_cell_length_a 20.492871
_cell_length_b 27.875514
_cell_length_c 8.925149
_cell_angle_alpha 90.000000
_cell_angle_beta 90.000000
_cell_angle_gamma 90.000000
_cell_volume 5098.485230
_symmetry_space_group_name_H-M "C M C M"
_symmetry_group_IT_number 63
_symmetry_cell_setting 'orthorhombic'
loop_
_space_group_symop_operation_xyz
x,y,z
-x,-y,1/2+z
x,-y,-z
-x,y,1/2-z
-x,-y,-z
x,y,1/2-z
-x,y,z
x,-y,1/2+z
1/2+x,1/2+y,z
1/2-x,1/2-y,1/2+z
1/2+x,1/2-y,-z
1/2-x,1/2+y,1/2-z
1/2-x,1/2-y,-z
1/2+x,1/2+y,1/2-z
1/2-x,1/2+y,z
1/2+x,1/2-y,1/2+z
loop_
_atom_site_type_symbol
_atom_site_label
_atom_site_fract_x
_atom_site_fract_y
_atom_site_fract_z
Si Si1 0.072030 0.787633 0.928076
Si Si2 0.189472 0.724197 0.927137
Si Si3 0.698645 0.449132 0.927928
Si Si4 0.308147 0.886031 0.074114
Si Si5 0.926889 0.451125 0.074765
Si Si6 0.427764 0.395016 0.927912
O O1 0.073477 0.787678 0.750000
O O2 0.124406 0.749860 0.990972
O O3 0.088147 0.841342 0.987057
O O4 0.000000 0.772198 0.984490
O O5 0.194231 0.729748 0.750000
O O6 0.188134 0.669012 0.975594
O O7 0.250000 0.750000 0.000000
O O8 0.701053 0.453879 0.750000
O O9 0.627477 0.431577 0.986237
O O10 0.715126 0.500000 0.000000
O O11 0.751542 0.410662 0.979484
O O12 0.293175 0.892100 0.250000
O O13 0.377908 0.908682 0.030462
O O14 0.926496 0.460358 0.250000
O O15 0.000000 0.437548 0.019235
O O16 0.901928 0.500000 0.000000
O O17 0.427178 0.394178 0.750000
O O18 0.500000 0.411170 0.984920
#
# Coordination Sequence:
#
# PCOD8258554 Si02
#       6
#    16  16  16  16  16  16
#     4   8  14  27  49  75 100 128 166 207 243 286
#     4  10  20  33  51  76 104 134 169 209 251 295
#     4  11  22  35  53  75 101 133 169 209 253 301
#     4  10  21  35  51  74 104 135 169 209 250 296
#     4   9  18  33  52  73  98 129 165 205 249 296
#     4   8  15  29  49  73 100 130 165 204 245 292
#
# _framework density 18.829122999999999
#
# number of rings (size 3 to 8) (size 9 to 14) (size 15 to 20)
#    0.000    2.667    0.000    3.000    0.000    5.000 
#    0.000    3.333    0.000    2.000    0.000    9.333 
#    0.000    0.000    0.000    0.000    0.000    0.000 
#
# Total GULP energy -595082.989244 kJ/mol
# GULP energy per Si atom -12397.562276 kJ/mol
# Density = 1.878627 g / cm^3
# Si number density = 18.829123 Si / 1000 Ang^3
#
#
#
# Elastic Constant Matrix: (Units=GPa)
#
#
# Indices 1 2 3 4 5 6 
#
# 1 127.3345 64.7541 28.2981 0.0000 0.0000 0.0000
# 2 64.7541 118.6992 27.1519 0.0000 0.0000 0.0000
# 3 28.2981 27.1519 26.8353 0.0000 0.0000 0.0000
# 4 0.0000 0.0000 0.0000 17.1410 0.0000 0.0000
# 5 0.0000 0.0000 0.0000 0.0000 24.8651 0.0000
# 6 0.0000 0.0000 0.0000 0.0000 0.0000 39.6410
#
#
#
# Elastic Compliance Matrix: (Units=1/GPa)
#
#
# Indices 1 2 3 4 5 6 
#
# 1 0.012021 -0.004760 -0.007860 0.000000 0.000000 0.000000
# 2 -0.004760 0.012846 -0.007979 0.000000 0.000000 0.000000
# 3 -0.007860 -0.007979 0.053626 0.000000 0.000000 0.000000
# 4 0.000000 0.000000 0.000000 0.058339 0.000000 0.000000
# 5 0.000000 0.000000 0.000000 0.000000 0.040217 0.000000
# 6 0.000000 0.000000 0.000000 0.000000 0.000000 0.025226
#
#
# Mechanical properties :
#
#
# Convention : Reuss Voigt Hill
#
# Bulk Modulus (GPa) = 26.81274 57.03081 41.92177
# Shear Modulus (GPa) = 19.53857 26.50709 23.02283
#
# Velocity S-wave (km/s) = 3.22480 3.75610 3.50054
# Velocity P-wave (km/s) = 5.30440 7.01180 6.21700
#
# Compressibility (1/GPa) = 0.03729571
#
# Stress axis : x y z
#
# Youngs Moduli (GPa) = 83.19104 77.84339 18.64780
#
# Poissons Ratio (x) = 0.37051 0.14657
# Poissons Ratio (y) = 0.39596 0.14879
# Poissons Ratio (z) = 0.65388 0.62110
#
# Static dielectric constant tensor:
#      x y z
#    x 3.964740 0.000000 0.000000 
#    y 0.000000 3.560570 0.000000 
#    z 0.000000 0.000000 3.051980 
# 
# 
# High freq. dielectric constant tensor:
#      x y z
#    x 1.749260 0.000000 0.000000 
#    y 0.000000 1.734050 0.000000 
#    z 0.000000 0.000000 1.690910 
# 
# From -- ./inp_files/8536.got.cif
#   From: 2010.03.12/outbox.cif.g09.slc.cpg/sg63_5_cif.got.tgz:8536.got - 2010.04.10 19:34:48.
