data_PCOD8258355
_publ_section_title
;
Structure prediction by ZEFSAII (Michael W. Deem and Ramdas Pophale) SiO2 
 PCOD8258355
Probable space group: C M C M
;
_chemical_formula_sum "Si O2"
_cell_formula_units_Z 88
_cell_length_a 15.138410
_cell_length_b 34.193868
_cell_length_c 9.373792
_cell_angle_alpha 90.000000
_cell_angle_beta 90.000000
_cell_angle_gamma 90.000000
_cell_volume 4852.257127
_symmetry_space_group_name_H-M "C M C M"
_symmetry_group_IT_number 63
_symmetry_cell_setting 'orthorhombic'
loop_
_space_group_symop_operation_xyz
x,y,z
-x,-y,1/2+z
x,-y,-z
-x,y,1/2-z
-x,-y,-z
x,y,1/2-z
-x,y,z
x,-y,1/2+z
1/2+x,1/2+y,z
1/2-x,1/2-y,1/2+z
1/2+x,1/2-y,-z
1/2-x,1/2+y,1/2-z
1/2-x,1/2-y,-z
1/2+x,1/2+y,1/2-z
1/2-x,1/2+y,z
1/2+x,1/2-y,1/2+z
loop_
_atom_site_type_symbol
_atom_site_label
_atom_site_fract_x
_atom_site_fract_y
_atom_site_fract_z
Si Si1 0.104719 0.245666 0.092214
Si Si2 0.747407 0.388244 0.082394
Si Si3 0.899265 0.172920 0.915194
Si Si4 0.098355 0.331466 0.080123
Si Si5 0.807691 0.541068 0.417826
Si Si6 0.500000 0.962040 0.590185
O O1 0.145756 0.240531 0.250000
O O2 0.128767 0.288283 0.026498
O O3 0.000000 0.242756 0.100499
O O4 0.141314 0.210753 0.994092
O O5 0.755628 0.398057 0.250000
O O6 0.657820 0.365150 0.047181
O O7 0.831060 0.363110 0.027563
O O8 0.742024 0.428116 0.991560
O O9 0.891967 0.183096 0.750000
O O10 0.000000 0.163915 0.960885
O O11 0.095548 0.329626 0.250000
O O12 0.000000 0.342312 0.021969
O O13 0.798046 0.500000 0.500000
O O14 0.785075 0.535632 0.250000
O O15 0.906970 0.559839 0.439338
O O16 0.500000 0.977690 0.750000
O O17 0.500000 0.000000 0.500000
#
# Coordination Sequence:
#
# PCOD8258355 Si02
#       6
#    16  16  16  16  16   8
#     4   8  14  27  47  67  90 125 167 205 241 285
#     4  10  20  32  49  73  97 128 166 202 244 291
#     4   9  18  32  48  68  97 129 163 206 252 292
#     4   8  15  28  45  68  98 129 161 199 241 287
#     4  10  20  35  53  74 101 130 160 195 235 285
#     4   8  16  30  48  70  96 126 156 184 220 270
#
# _framework density 18.135888999999999
#
# number of rings (size 3 to 8) (size 9 to 14) (size 15 to 20)
#    0.000    3.091    0.000    1.636    1.273    2.182 
#    0.000    0.909    0.000    1.636    0.000    0.000 
#    0.000    0.000    0.000    0.000    0.000    0.000 
#
# Total GULP energy -545168.379445 kJ/mol
# GULP energy per Si atom -12390.190442 kJ/mol
# Density = 1.809461 g / cm^3
# Si number density = 18.135889 Si / 1000 Ang^3
#
#
#
# Elastic Constant Matrix: (Units=GPa)
#
#
# Indices 1 2 3 4 5 6 
#
# 1 62.8699 44.6243 26.5545 0.0000 0.0000 0.0000
# 2 44.6243 120.6916 52.8583 0.0000 0.0000 0.0000
# 3 26.5545 52.8583 61.9067 0.0000 0.0000 0.0000
# 4 0.0000 0.0000 0.0000 28.6094 0.0000 0.0000
# 5 0.0000 0.0000 0.0000 0.0000 14.8409 0.0000
# 6 0.0000 0.0000 0.0000 0.0000 0.0000 24.5491
#
#
#
# Elastic Compliance Matrix: (Units=1/GPa)
#
#
# Indices 1 2 3 4 5 6 
#
# 1 0.022172 -0.006441 -0.004011 0.000000 0.000000 0.000000
# 2 -0.006441 0.015106 -0.010135 0.000000 0.000000 0.000000
# 3 -0.004011 -0.010135 0.026527 0.000000 0.000000 0.000000
# 4 0.000000 0.000000 0.000000 0.034954 0.000000 0.000000
# 5 0.000000 0.000000 0.000000 0.000000 0.067381 0.000000
# 6 0.000000 0.000000 0.000000 0.000000 0.000000 0.040735
#
#
# Mechanical properties :
#
#
# Convention : Reuss Voigt Hill
#
# Bulk Modulus (GPa) = 44.18697 54.83806 49.51251
# Shear Modulus (GPa) = 19.56241 21.69530 20.62885
#
# Velocity S-wave (km/s) = 3.28786 3.46246 3.37628
# Velocity P-wave (km/s) = 6.23142 6.80351 6.52374
#
# Compressibility (1/GPa) = 0.02263111
#
# Stress axis : x y z
#
# Youngs Moduli (GPa) = 45.10241 66.19920 37.69686
#
# Poissons Ratio (x) = 0.42640 0.15119
# Poissons Ratio (y) = 0.29051 0.38206
# Poissons Ratio (z) = 0.18089 0.67093
#
# Static dielectric constant tensor:
#      x y z
#    x 3.773500 0.000000 0.000000 
#    y 0.000000 3.253730 0.000000 
#    z 0.000000 0.000000 3.258210 
# 
# 
# High freq. dielectric constant tensor:
#      x y z
#    x 1.682550 0.000000 0.000000 
#    y 0.000000 1.693900 0.000000 
#    z 0.000000 0.000000 1.684180 
# 
# From -- ./inp_files/6806.got.cif
#   From: 2010.03.12/outbox.cif.g09.slc.cpg/sg63_4_cif.got.tgz:6806.got - 2010.04.10 19:34:48.
