data_PCOD8258548
_publ_section_title
;
Structure prediction by ZEFSAII (Michael W. Deem and Ramdas Pophale) SiO2 
 PCOD8258548
Probable space group: C M C M
;
_chemical_formula_sum "Si O2"
_cell_formula_units_Z 72
_cell_length_a 12.992060
_cell_length_b 32.651394
_cell_length_c 9.288427
_cell_angle_alpha 90.000000
_cell_angle_beta 90.000000
_cell_angle_gamma 90.000000
_cell_volume 3940.233121
_symmetry_space_group_name_H-M "C M C M"
_symmetry_group_IT_number 63
_symmetry_cell_setting 'orthorhombic'
loop_
_space_group_symop_operation_xyz
x,y,z
-x,-y,1/2+z
x,-y,-z
-x,y,1/2-z
-x,-y,-z
x,y,1/2-z
-x,y,z
x,-y,1/2+z
1/2+x,1/2+y,z
1/2-x,1/2-y,1/2+z
1/2+x,1/2-y,-z
1/2-x,1/2+y,1/2-z
1/2-x,1/2-y,-z
1/2+x,1/2+y,1/2-z
1/2-x,1/2+y,z
1/2+x,1/2-y,1/2+z
loop_
_atom_site_type_symbol
_atom_site_label
_atom_site_fract_x
_atom_site_fract_y
_atom_site_fract_z
Si Si1 0.117877 0.389450 0.083433
Si Si2 0.680916 0.191010 0.417689
Si Si3 0.386637 0.268195 0.586846
Si Si4 0.723534 0.457264 0.081635
Si Si5 0.500000 0.458996 0.085758
O O1 0.141405 0.380062 0.250000
O O2 0.190825 0.425681 0.024914
O O3 0.000000 0.403056 0.060516
O O4 0.140671 0.349082 0.994420
O O5 0.655271 0.187344 0.250000
O O6 0.621844 0.230201 0.479419
O O7 0.803055 0.196700 0.447696
O O8 0.369819 0.251947 0.750000
O O9 0.500000 0.287836 0.568366
O O10 0.739656 0.466072 0.250000
O O11 0.609448 0.436677 0.051632
O O12 0.737462 0.500000 0.000000
O O13 0.500000 0.472405 0.250000
O O14 0.500000 0.500000 0.000000
#
# Coordination Sequence:
#
# PCOD8258548 Si02
#       5
#    16  16  16  16   8
#     4  10  21  36  51  70 102 140 171 202 250 306
#     4  10  20  33  51  76 102 129 169 213 248 291
#     4   9  18  34  54  73  99 134 166 202 254 307
#     4   9  18  33  53  75  99 129 166 206 250 298
#     4   8  14  28  50  72  94 120 156 200 244 292
#
# _framework density 18.273029999999999
#
# number of rings (size 3 to 8) (size 9 to 14) (size 15 to 20)
#    0.000    2.667    0.000    1.333    0.000    5.778 
#    2.000    0.000    0.000    0.000    0.000    0.000 
#    0.000    0.000    0.000    0.000    0.000    0.000 
#
# Total GULP energy -446141.901180 kJ/mol
# GULP energy per Si atom -12392.830588 kJ/mol
# Density = 1.823144 g / cm^3
# Si number density = 18.273030 Si / 1000 Ang^3
#
#
#
# Elastic Constant Matrix: (Units=GPa)
#
#
# Indices 1 2 3 4 5 6 
#
# 1 144.8361 40.4879 34.5720 0.0000 0.0000 0.0000
# 2 40.4879 59.4593 26.1448 0.0000 0.0000 0.0000
# 3 34.5720 26.1448 54.1086 0.0000 0.0000 0.0000
# 4 0.0000 0.0000 0.0000 22.1899 0.0000 0.0000
# 5 0.0000 0.0000 0.0000 0.0000 22.6158 0.0000
# 6 0.0000 0.0000 0.0000 0.0000 0.0000 18.3600
#
#
#
# Elastic Compliance Matrix: (Units=1/GPa)
#
#
# Indices 1 2 3 4 5 6 
#
# 1 0.009036 -0.004589 -0.003556 0.000000 0.000000 0.000000
# 2 -0.004589 0.023686 -0.008513 0.000000 0.000000 0.000000
# 3 -0.003556 -0.008513 0.024867 0.000000 0.000000 0.000000
# 4 0.000000 0.000000 0.000000 0.045065 0.000000 0.000000
# 5 0.000000 0.000000 0.000000 0.000000 0.044217 0.000000
# 6 0.000000 0.000000 0.000000 0.000000 0.000000 0.054466
#
#
# Mechanical properties :
#
#
# Convention : Reuss Voigt Hill
#
# Bulk Modulus (GPa) = 41.19801 51.20151 46.19976
# Shear Modulus (GPa) = 20.59774 23.11309 21.85541
#
# Velocity S-wave (km/s) = 3.36105 3.56037 3.46214
# Velocity P-wave (km/s) = 6.13653 6.70691 6.42805
#
# Compressibility (1/GPa) = 0.02427301
#
# Stress axis : x y z
#
# Youngs Moduli (GPa) = 110.66737 42.21819 40.21453
#
# Poissons Ratio (x) = 0.19376 0.14300
# Poissons Ratio (y) = 0.50790 0.34234
# Poissons Ratio (z) = 0.39352 0.35939
#
# Static dielectric constant tensor:
#      x y z
#    x 4.031240 0.000000 0.000000 
#    y 0.000000 2.986890 0.000000 
#    z 0.000000 0.000000 3.410290 
# 
# 
# High freq. dielectric constant tensor:
#      x y z
#    x 1.733560 0.000000 0.000000 
#    y 0.000000 1.670160 0.000000 
#    z 0.000000 0.000000 1.710100 
# 
# From -- ./inp_files/4903.got.cif
#   From: 2010.03.12/outbox.cif.g09.slc.cpg/sg63_3_cif.got.tgz:4903.got - 2010.04.10 19:34:48.
