data_PCOD8258788
_publ_section_title
;
Structure prediction by ZEFSAII (Michael W. Deem and Ramdas Pophale) SiO2 
 PCOD8258788
Probable space group: C M C M
;
_chemical_formula_sum "Si O2"
_cell_formula_units_Z 80
_cell_length_a 9.306108
_cell_length_b 28.714481
_cell_length_c 16.873051
_cell_angle_alpha 90.000000
_cell_angle_beta 90.000000
_cell_angle_gamma 90.000000
_cell_volume 4508.817723
_symmetry_space_group_name_H-M "C M C M"
_symmetry_group_IT_number 63
_symmetry_cell_setting 'orthorhombic'
loop_
_space_group_symop_operation_xyz
x,y,z
-x,-y,1/2+z
x,-y,-z
-x,y,1/2-z
-x,-y,-z
x,y,1/2-z
-x,y,z
x,-y,1/2+z
1/2+x,1/2+y,z
1/2-x,1/2-y,1/2+z
1/2+x,1/2-y,-z
1/2-x,1/2+y,1/2-z
1/2-x,1/2-y,-z
1/2+x,1/2+y,1/2-z
1/2-x,1/2+y,z
1/2+x,1/2-y,1/2+z
loop_
_atom_site_type_symbol
_atom_site_label
_atom_site_fract_x
_atom_site_fract_y
_atom_site_fract_z
Si Si1 0.839610 0.570773 0.337161
Si Si2 0.167104 0.998304 0.750000
Si Si3 0.332478 0.836590 0.378770
Si Si4 0.668405 0.607065 0.750000
Si Si5 0.831637 0.343941 0.938080
Si Si6 0.833417 0.768325 0.840485
O O1 0.845715 0.595052 0.250000
O O2 0.738071 0.524967 0.329358
O O3 0.775046 0.607989 0.399009
O O4 0.000000 0.555026 0.363548
O O5 0.200078 0.052444 0.750000
O O6 0.000000 0.986755 0.750000
O O7 0.500000 0.845025 0.360372
O O8 0.238933 0.872334 0.328646
O O9 0.294682 0.845680 0.469803
O O10 0.286838 0.784739 0.354629
O O11 0.500000 0.618141 0.750000
O O12 0.755539 0.299918 0.899740
O O13 0.000000 0.338251 0.921986
O O14 0.800388 0.782241 0.750000
O O15 0.000000 0.774937 0.861006
#
# Coordination Sequence:
#
# PCOD8258788 Si02
#       6
#    16   8  16   8  16  16
#     4   8  16  32  53  79 107 134 171 216 261 315
#     4   9  19  35  56  79 102 135 176 219 270 323
#     4  10  21  38  57  77 109 146 182 220 263 317
#     4  11  23  39  58  79 102 135 182 227 268 319
#     4  10  20  34  55  83 111 142 178 222 266 308
#     4  10  20  34  52  79 113 148 183 215 257 315
#
# _framework density 17.743010000000002
#
# number of rings (size 3 to 8) (size 9 to 14) (size 15 to 20)
#    0.600    1.800    1.000    1.500    0.000    5.200 
#    0.000    1.000    0.000    6.000    0.000    0.000 
#    0.000    0.000    0.000    0.000    0.000    0.000 
#
# Total GULP energy -495892.049344 kJ/mol
# GULP energy per Si atom -12397.301234 kJ/mol
# Density = 1.770263 g / cm^3
# Si number density = 17.743010 Si / 1000 Ang^3
#
#
#
# Elastic Constant Matrix: (Units=GPa)
#
#
# Indices 1 2 3 4 5 6 
#
# 1 77.3481 70.4425 48.4907 0.0000 0.0000 0.0000
# 2 70.4425 123.0467 61.3606 0.0000 0.0000 0.0000
# 3 48.4907 61.3606 104.3480 0.0000 0.0000 0.0000
# 4 0.0000 0.0000 0.0000 13.8953 0.0000 0.0000
# 5 0.0000 0.0000 0.0000 0.0000 21.2993 0.0000
# 6 0.0000 0.0000 0.0000 0.0000 0.0000 32.8888
#
#
#
# Elastic Compliance Matrix: (Units=1/GPa)
#
#
# Indices 1 2 3 4 5 6 
#
# 1 0.028902 -0.013935 -0.005237 0.000000 0.000000 0.000000
# 2 -0.013935 0.018217 -0.004237 0.000000 0.000000 0.000000
# 3 -0.005237 -0.004237 0.014508 0.000000 0.000000 0.000000
# 4 0.000000 0.000000 0.000000 0.071967 0.000000 0.000000
# 5 0.000000 0.000000 0.000000 0.000000 0.046950 0.000000
# 6 0.000000 0.000000 0.000000 0.000000 0.000000 0.030405
#
#
# Mechanical properties :
#
#
# Convention : Reuss Voigt Hill
#
# Bulk Modulus (GPa) = 67.51753 73.92561 70.72157
# Shear Modulus (GPa) = 19.03284 21.91328 20.47306
#
# Velocity S-wave (km/s) = 3.27876 3.51812 3.40055
# Velocity P-wave (km/s) = 7.24357 7.63269 7.44068
#
# Compressibility (1/GPa) = 0.01481097
#
# Stress axis : x y z
#
# Youngs Moduli (GPa) = 34.59958 54.89307 68.92558
#
# Poissons Ratio (x) = 0.76491 0.36095
# Poissons Ratio (y) = 0.48213 0.29204
# Poissons Ratio (z) = 0.18119 0.23258
#
# Static dielectric constant tensor:
#      x y z
#    x 3.232840 0.000000 0.000000 
#    y 0.000000 3.177800 0.000000 
#    z 0.000000 0.000000 3.282030 
# 
# 
# High freq. dielectric constant tensor:
#      x y z
#    x 1.682450 0.000000 0.000000 
#    y 0.000000 1.681390 0.000000 
#    z 0.000000 0.000000 1.682870 
# 
# From -- ./inp_files/40750.got.cif
#   From: 2010.03.12/outbox.cif.g09.slc.cpg/sg63_21_cif.got.tgz:40750.got - 2010.04.10 19:34:48.
