data_PCOD8258707
_publ_section_title
;
Structure prediction by ZEFSAII (Michael W. Deem and Ramdas Pophale) SiO2 
 PCOD8258707
Probable space group: C M C M
;
_chemical_formula_sum "Si O2"
_cell_formula_units_Z 96
_cell_length_a 25.645053
_cell_length_b 9.329622
_cell_length_c 20.211160
_cell_angle_alpha 90.000000
_cell_angle_beta 90.000000
_cell_angle_gamma 90.000000
_cell_volume 4835.694870
_symmetry_space_group_name_H-M "C M C M"
_symmetry_group_IT_number 63
_symmetry_cell_setting 'orthorhombic'
loop_
_space_group_symop_operation_xyz
x,y,z
-x,-y,1/2+z
x,-y,-z
-x,y,1/2-z
-x,-y,-z
x,y,1/2-z
-x,y,z
x,-y,1/2+z
1/2+x,1/2+y,z
1/2-x,1/2-y,1/2+z
1/2+x,1/2-y,-z
1/2-x,1/2+y,1/2-z
1/2-x,1/2-y,-z
1/2+x,1/2+y,1/2-z
1/2-x,1/2+y,z
1/2+x,1/2-y,1/2+z
loop_
_atom_site_type_symbol
_atom_site_label
_atom_site_fract_x
_atom_site_fract_y
_atom_site_fract_z
Si Si1 0.137420 0.554495 0.322796
Si Si2 0.346342 0.384527 0.178770
Si Si3 0.060072 0.420355 0.932947
Si Si4 0.210929 0.160428 0.457238
Si Si5 0.738174 0.083830 0.622873
Si Si6 0.392085 0.382345 0.043289
O O1 0.125898 0.488507 0.250000
O O2 0.133036 0.724100 0.320286
O O3 0.093924 0.503831 0.375398
O O4 0.195409 0.518858 0.345695
O O5 0.362257 0.456619 0.250000
O O6 0.283732 0.386252 0.175272
O O7 0.372455 0.455213 0.113099
O O8 0.072093 0.252940 0.942633
O O9 0.000000 0.438921 0.913679
O O10 0.074785 0.500000 0.000000
O O11 0.250000 0.250000 0.500000
O O12 0.208545 0.265753 0.393095
O O13 0.156723 0.155505 0.496147
O O14 0.233787 0.001797 0.438850
O O15 0.424283 0.500000 0.000000
#
# Coordination Sequence:
#
# PCOD8258707 Si02
#       6
#    16  16  16  16  16  16
#     4  10  21  37  57  84 114 149 190 231 276 335
#     4  10  20  34  50  76 114 151 185 225 269 328
#     4  10  22  41  62  84 110 144 188 246 297 334
#     4  12  20  31  52  80 111 152 193 227 267 327
#     4  12  20  34  52  79 115 155 189 224 267 326
#     4  11  20  36  57  84 112 145 188 237 284 333
#
# _framework density 19.852368999999999
#
# number of rings (size 3 to 8) (size 9 to 14) (size 15 to 20)
#    0.000    1.167    5.000    3.000    0.000    0.667 
#    0.000    0.000    0.000    0.000    0.000    0.000 
#    0.000    0.000    0.000    0.000    0.000    0.000 
#
# Total GULP energy -594692.541270 kJ/mol
# GULP energy per Si atom -12389.427943 kJ/mol
# Density = 1.980718 g / cm^3
# Si number density = 19.852369 Si / 1000 Ang^3
#
#
#
# Elastic Constant Matrix: (Units=GPa)
#
#
# Indices 1 2 3 4 5 6 
#
# 1 66.7582 -2.5259 45.1441 0.0000 0.0000 0.0000
# 2 -2.5259 44.3341 6.6141 0.0000 0.0000 0.0000
# 3 45.1441 6.6141 141.2113 0.0000 0.0000 0.0000
# 4 0.0000 0.0000 0.0000 21.8790 0.0000 0.0000
# 5 0.0000 0.0000 0.0000 0.0000 7.9356 0.0000
# 6 0.0000 0.0000 0.0000 0.0000 0.0000 25.3365
#
#
#
# Elastic Compliance Matrix: (Units=1/GPa)
#
#
# Indices 1 2 3 4 5 6 
#
# 1 0.019291 0.002033 -0.006262 0.000000 0.000000 0.000000
# 2 0.002033 0.022929 -0.001724 0.000000 0.000000 0.000000
# 3 -0.006262 -0.001724 0.009164 0.000000 0.000000 0.000000
# 4 0.000000 0.000000 0.000000 0.045706 0.000000 0.000000
# 5 0.000000 0.000000 0.000000 0.000000 0.126015 0.000000
# 6 0.000000 0.000000 0.000000 0.000000 0.000000 0.039469
#
#
# Mechanical properties :
#
#
# Convention : Reuss Voigt Hill
#
# Bulk Modulus (GPa) = 25.33027 38.97426 32.15226
# Shear Modulus (GPa) = 17.38283 24.56831 20.97557
#
# Velocity S-wave (km/s) = 2.96227 3.52170 3.25403
# Velocity P-wave (km/s) = 4.94844 6.01757 5.50900
#
# Compressibility (1/GPa) = 0.03947846
#
# Stress axis : x y z
#
# Youngs Moduli (GPa) = 51.83693 43.61277 109.11785
#
# Poissons Ratio (x) = -0.08868 0.68335
# Poissons Ratio (y) = -0.10540 0.18812
# Poissons Ratio (z) = 0.32463 0.07519
#
# Static dielectric constant tensor:
#      x y z
#    x 3.269660 0.000000 0.000000 
#    y 0.000000 3.217410 0.000000 
#    z 0.000000 0.000000 4.489050 
# 
# 
# High freq. dielectric constant tensor:
#      x y z
#    x 1.739460 0.000000 0.000000 
#    y 0.000000 1.762700 0.000000 
#    z 0.000000 0.000000 1.791200 
# 
# From -- ./inp_files/58079.got.cif
#   From: 2010.03.12/outbox.cif.g09.slc.cpg/sg63_30_cif.got.tgz:58079.got - 2010.04.10 19:34:48.
