data_PCOD8258929
_publ_section_title
;
Structure prediction by ZEFSAII (Michael W. Deem and Ramdas Pophale) SiO2 
 PCOD8258929
Probable space group: C M C M
;
_chemical_formula_sum "Si O2"
_cell_formula_units_Z 96
_cell_length_a 9.159803
_cell_length_b 30.000281
_cell_length_c 19.037834
_cell_angle_alpha 90.000000
_cell_angle_beta 90.000000
_cell_angle_gamma 90.000000
_cell_volume 5231.533271
_symmetry_space_group_name_H-M "C M C M"
_symmetry_group_IT_number 63
_symmetry_cell_setting 'orthorhombic'
loop_
_space_group_symop_operation_xyz
x,y,z
-x,-y,1/2+z
x,-y,-z
-x,y,1/2-z
-x,-y,-z
x,y,1/2-z
-x,y,z
x,-y,1/2+z
1/2+x,1/2+y,z
1/2-x,1/2-y,1/2+z
1/2+x,1/2-y,-z
1/2-x,1/2+y,1/2-z
1/2-x,1/2-y,-z
1/2+x,1/2+y,1/2-z
1/2-x,1/2+y,z
1/2+x,1/2-y,1/2+z
loop_
_atom_site_type_symbol
_atom_site_label
_atom_site_fract_x
_atom_site_fract_y
_atom_site_fract_z
Si Si1 0.826988 0.865386 0.585837
Si Si2 0.327168 0.385561 0.070569
Si Si3 0.673345 0.717802 0.172103
Si Si4 0.167062 0.317314 0.167322
Si Si5 0.167635 0.558541 0.330775
Si Si6 0.331568 0.976905 0.428368
O O1 0.772909 0.869338 0.505917
O O2 0.766297 0.818800 0.617412
O O3 0.767394 0.905987 0.630758
O O4 0.000000 0.867250 0.590691
O O5 0.500000 0.388355 0.074481
O O6 0.272042 0.351083 0.128061
O O7 0.263602 0.433811 0.087784
O O8 0.736026 0.707132 0.250000
O O9 0.500000 0.716432 0.175838
O O10 0.720773 0.767283 0.148068
O O11 0.181696 0.325488 0.250000
O O12 0.000000 0.324883 0.143312
O O13 0.214591 0.555857 0.250000
O O14 0.193188 0.510047 0.363691
O O15 0.000000 0.573228 0.339798
O O16 0.500000 0.962514 0.436095
O O17 0.276784 0.000000 0.500000
#
# Coordination Sequence:
#
# PCOD8258929 Si02
#       6
#    16  16  16  16  16  16
#     4  10  20  34  54  81 113 146 178 214 265 330
#     4  11  23  35  53  83 115 143 176 223 277 328
#     4   8  15  31  55  79 104 140 185 225 261 312
#     4   9  19  37  59  79 102 140 189 231 266 316
#     4  10  21  36  55  81 108 135 178 232 274 315
#     4  10  20  37  58  76 102 145 188 221 265 322
#
# _framework density 18.350259999999999
#
# number of rings (size 3 to 8) (size 9 to 14) (size 15 to 20)
#    0.000    2.333    1.667    2.000    0.000    4.333 
#    0.000    2.500    0.000    1.000    0.000    0.000 
#    0.000    0.000    0.000    0.000    0.000    0.000 
#
# Total GULP energy -595254.584815 kJ/mol
# GULP energy per Si atom -12401.137184 kJ/mol
# Density = 1.830849 g / cm^3
# Si number density = 18.350260 Si / 1000 Ang^3
#
#
#
# Elastic Constant Matrix: (Units=GPa)
#
#
# Indices 1 2 3 4 5 6 
#
# 1 35.5273 38.3620 30.1712 0.0000 0.0000 0.0000
# 2 38.3620 131.9016 55.0575 0.0000 0.0000 0.0000
# 3 30.1712 55.0575 90.5259 0.0000 0.0000 0.0000
# 4 0.0000 0.0000 0.0000 36.1516 0.0000 0.0000
# 5 0.0000 0.0000 0.0000 0.0000 24.9403 0.0000
# 6 0.0000 0.0000 0.0000 0.0000 0.0000 20.2180
#
#
#
# Elastic Compliance Matrix: (Units=1/GPa)
#
#
# Indices 1 2 3 4 5 6 
#
# 1 0.046724 -0.009501 -0.009794 0.000000 0.000000 0.000000
# 2 -0.009501 0.012093 -0.004188 0.000000 0.000000 0.000000
# 3 -0.009794 -0.004188 0.016858 0.000000 0.000000 0.000000
# 4 0.000000 0.000000 0.000000 0.027661 0.000000 0.000000
# 5 0.000000 0.000000 0.000000 0.000000 0.040096 0.000000
# 6 0.000000 0.000000 0.000000 0.000000 0.000000 0.049461
#
#
# Mechanical properties :
#
#
# Convention : Reuss Voigt Hill
#
# Bulk Modulus (GPa) = 34.83315 56.12624 45.47970
# Shear Modulus (GPa) = 20.04579 25.21958 22.63269
#
# Velocity S-wave (km/s) = 3.30873 3.71124 3.51575
# Velocity P-wave (km/s) = 5.79832 7.00120 6.42796
#
# Compressibility (1/GPa) = 0.02870828
#
# Stress axis : x y z
#
# Youngs Moduli (GPa) = 21.40233 82.69322 59.31842
#
# Poissons Ratio (x) = 0.78566 0.58097
# Poissons Ratio (y) = 0.20334 0.24845
# Poissons Ratio (z) = 0.20962 0.34635
#
# Static dielectric constant tensor:
#      x y z
#    x 3.152250 0.000000 0.000000 
#    y 0.000000 3.524680 0.000000 
#    z 0.000000 0.000000 3.603340 
# 
# 
# High freq. dielectric constant tensor:
#      x y z
#    x 1.689010 0.000000 0.000000 
#    y 0.000000 1.721660 0.000000 
#    z 0.000000 0.000000 1.716780 
# 
# From -- ./inp_files/51320.got.cif
#   From: 2010.03.12/outbox.cif.g09.slc.cpg/sg63_26_cif.got.tgz:51320.got - 2010.04.10 19:34:48.
