data_PCOD8258408
_publ_section_title
;
Structure prediction by ZEFSAII (Michael W. Deem and Ramdas Pophale) SiO2 
 PCOD8258408
Probable space group: C M C M
;
_chemical_formula_sum "Si O2"
_cell_formula_units_Z 72
_cell_length_a 9.195282
_cell_length_b 17.887849
_cell_length_c 23.247222
_cell_angle_alpha 90.000000
_cell_angle_beta 90.000000
_cell_angle_gamma 90.000000
_cell_volume 3823.791784
_symmetry_space_group_name_H-M "C M C M"
_symmetry_group_IT_number 63
_symmetry_cell_setting 'orthorhombic'
loop_
_space_group_symop_operation_xyz
x,y,z
-x,-y,1/2+z
x,-y,-z
-x,y,1/2-z
-x,-y,-z
x,y,1/2-z
-x,y,z
x,-y,1/2+z
1/2+x,1/2+y,z
1/2-x,1/2-y,1/2+z
1/2+x,1/2-y,-z
1/2-x,1/2+y,1/2-z
1/2-x,1/2-y,-z
1/2+x,1/2+y,1/2-z
1/2-x,1/2+y,z
1/2+x,1/2-y,1/2+z
loop_
_atom_site_type_symbol
_atom_site_label
_atom_site_fract_x
_atom_site_fract_y
_atom_site_fract_z
Si Si1 0.340983 0.113515 0.406532
Si Si2 0.746812 0.500000 0.500000
Si Si3 0.663067 0.393687 0.098869
Si Si4 0.172203 0.748126 0.939584
Si Si5 0.334528 0.991836 0.316176
O O1 0.500000 0.152247 0.408994
O O2 0.214866 0.175323 0.407623
O O3 0.340621 0.054448 0.459404
O O4 0.319525 0.072279 0.346045
O O5 0.654352 0.446617 0.457701
O O6 0.500000 0.365056 0.110741
O O7 0.771841 0.324325 0.093460
O O8 0.720759 0.436248 0.154712
O O9 0.000000 0.744072 0.946868
O O10 0.250000 0.750000 0.000000
O O11 0.291159 0.001069 0.250000
O O12 0.500000 0.961853 0.323348
#
# Coordination Sequence:
#
# PCOD8258408 Si02
#       5
#    16   8  16  16  16
#     4  10  20  35  58  85 115 151 191 232 285 344
#     4  10  20  32  56  82 118 146 188 230 290 338
#     4  11  22  36  57  85 117 151 191 236 284 340
#     4  12  24  37  55  82 119 156 190 233 287 346
#     4   9  20  40  63  86 114 149 191 238 285 335
#
# _framework density 18.829476
#
# number of rings (size 3 to 8) (size 9 to 14) (size 15 to 20)
#    0.000    1.556    2.222    3.333    0.000    5.778 
#    0.000    1.111    0.000    4.000    0.000    0.000 
#    0.000    0.000    0.000    0.000    0.000    0.000 
#
# Total GULP energy -446297.671259 kJ/mol
# GULP energy per Si atom -12397.157535 kJ/mol
# Density = 1.878662 g / cm^3
# Si number density = 18.829476 Si / 1000 Ang^3
#
#
#
# Elastic Constant Matrix: (Units=GPa)
#
#
# Indices 1 2 3 4 5 6 
#
# 1 161.5455 58.4892 47.8914 0.0000 0.0000 0.0000
# 2 58.4892 104.8708 43.0134 0.0000 0.0000 0.0000
# 3 47.8914 43.0134 131.3945 0.0000 0.0000 0.0000
# 4 0.0000 0.0000 0.0000 16.5648 0.0000 0.0000
# 5 0.0000 0.0000 0.0000 0.0000 20.6880 0.0000
# 6 0.0000 0.0000 0.0000 0.0000 0.0000 32.5184
#
#
#
# Elastic Compliance Matrix: (Units=1/GPa)
#
#
# Indices 1 2 3 4 5 6 
#
# 1 0.008071 -0.003806 -0.001696 0.000000 0.000000 0.000000
# 2 -0.003806 0.012809 -0.002806 0.000000 0.000000 0.000000
# 3 -0.001696 -0.002806 0.009147 0.000000 0.000000 0.000000
# 4 0.000000 0.000000 0.000000 0.060369 0.000000 0.000000
# 5 0.000000 0.000000 0.000000 0.000000 0.048337 0.000000
# 6 0.000000 0.000000 0.000000 0.000000 0.000000 0.030752
#
#
# Mechanical properties :
#
#
# Convention : Reuss Voigt Hill
#
# Bulk Modulus (GPa) = 74.56030 77.39986 75.98008
# Shear Modulus (GPa) = 26.23694 30.51538 28.37616
#
# Velocity S-wave (km/s) = 3.73687 4.03006 3.88623
# Velocity P-wave (km/s) = 7.63561 7.92780 7.78308
#
# Compressibility (1/GPa) = 0.01341196
#
# Stress axis : x y z
#
# Youngs Moduli (GPa) = 123.90231 78.06991 109.32110
#
# Poissons Ratio (x) = 0.29712 0.18539
# Poissons Ratio (y) = 0.47154 0.30676
# Poissons Ratio (z) = 0.21012 0.21907
#
# Static dielectric constant tensor:
#      x y z
#    x 3.485130 0.000000 0.000000 
#    y 0.000000 3.368920 0.000000 
#    z 0.000000 0.000000 3.344130 
# 
# 
# High freq. dielectric constant tensor:
#      x y z
#    x 1.735950 0.000000 0.000000 
#    y 0.000000 1.731490 0.000000 
#    z 0.000000 0.000000 1.714920 
# 
# From -- ./inp_files/59276.got.cif
#   From: 2010.03.12/outbox.cif.g09.slc.cpg/sg63_30_cif.got.tgz:59276.got - 2010.04.10 19:34:48.
