data_PCOD8258210
_publ_section_title
;
Structure prediction by ZEFSAII (Michael W. Deem and Ramdas Pophale) SiO2 
 PCOD8258210
Probable space group: C M C M
;
_chemical_formula_sum "Si O2"
_cell_formula_units_Z 80
_cell_length_a 23.140727
_cell_length_b 28.404544
_cell_length_c 9.426174
_cell_angle_alpha 90.000000
_cell_angle_beta 90.000000
_cell_angle_gamma 90.000000
_cell_volume 6195.841121
_symmetry_space_group_name_H-M "C M C M"
_symmetry_group_IT_number 63
_symmetry_cell_setting 'orthorhombic'
loop_
_space_group_symop_operation_xyz
x,y,z
-x,-y,1/2+z
x,-y,-z
-x,y,1/2-z
-x,-y,-z
x,y,1/2-z
-x,y,z
x,-y,1/2+z
1/2+x,1/2+y,z
1/2-x,1/2-y,1/2+z
1/2+x,1/2-y,-z
1/2-x,1/2+y,1/2-z
1/2-x,1/2-y,-z
1/2+x,1/2+y,1/2-z
1/2-x,1/2+y,z
1/2+x,1/2-y,1/2+z
loop_
_atom_site_type_symbol
_atom_site_label
_atom_site_fract_x
_atom_site_fract_y
_atom_site_fract_z
Si Si1 0.933064 0.047297 0.415696
Si Si2 0.828001 0.279408 0.907378
Si Si3 0.377305 0.368926 0.417814
Si Si4 0.435834 0.726832 0.581025
Si Si5 0.237211 0.180730 0.594114
O O1 0.917109 0.041242 0.250000
O O2 0.894322 0.087261 0.486447
O O3 0.000000 0.060848 0.434356
O O4 0.918491 0.000000 0.500000
O O5 0.835639 0.300143 0.750000
O O6 0.890771 0.266495 0.975808
O O7 0.791895 0.231614 0.902623
O O8 0.793921 0.319194 0.995267
O O9 0.385349 0.379505 0.250000
O O10 0.417339 0.325353 0.466778
O O11 0.310507 0.357252 0.454826
O O12 0.433317 0.728332 0.750000
O O13 0.500000 0.737905 0.522639
O O14 0.259474 0.167379 0.750000
#
# Coordination Sequence:
#
# PCOD8258210 Si02
#       5
#    16  16  16  16  16
#     4  10  20  31  41  53  69  89 113 142 177 214
#     4   8  13  21  33  48  65  87 114 140 168 203
#     4   9  16  26  40  54  67  87 116 147 178 211
#     4   8  13  21  34  51  69  90 117 147 176 206
#     4   8  14  23  34  49  67  86 109 139 174 206
#
# _framework density 12.911886000000001
#
# number of rings (size 3 to 8) (size 9 to 14) (size 15 to 20)
#    0.000    3.400    0.000    3.600    0.000    2.800 
#    0.000    3.000    0.000    1.800    0.000    0.000 
#    0.000    0.000    0.000    0.000    0.000    1.000 
#
# Total GULP energy -495626.630532 kJ/mol
# GULP energy per Si atom -12390.665763 kJ/mol
# Density = 1.288250 g / cm^3
# Si number density = 12.911886 Si / 1000 Ang^3
#
#
#
# Elastic Constant Matrix: (Units=GPa)
#
#
# Indices 1 2 3 4 5 6 
#
# 1 99.2900 47.5742 46.2258 0.0000 0.0000 0.0000
# 2 47.5742 51.8895 39.2079 0.0000 0.0000 0.0000
# 3 46.2258 39.2079 65.8877 0.0000 0.0000 0.0000
# 4 0.0000 0.0000 0.0000 19.0102 0.0000 0.0000
# 5 0.0000 0.0000 0.0000 0.0000 18.0958 0.0000
# 6 0.0000 0.0000 0.0000 0.0000 0.0000 21.4446
#
#
#
# Elastic Compliance Matrix: (Units=1/GPa)
#
#
# Indices 1 2 3 4 5 6 
#
# 1 0.018954 -0.013318 -0.005373 0.000000 0.000000 0.000000
# 2 -0.013318 0.044375 -0.017062 0.000000 0.000000 0.000000
# 3 -0.005373 -0.017062 0.029100 0.000000 0.000000 0.000000
# 4 0.000000 0.000000 0.000000 0.052603 0.000000 0.000000
# 5 0.000000 0.000000 0.000000 0.000000 0.055261 0.000000
# 6 0.000000 0.000000 0.000000 0.000000 0.000000 0.046632
#
#
# Mechanical properties :
#
#
# Convention : Reuss Voigt Hill
#
# Bulk Modulus (GPa) = 47.79534 53.67587 50.73561
# Shear Modulus (GPa) = 15.36543 17.31408 16.33976
#
# Velocity S-wave (km/s) = 3.45341 3.66586 3.56122
# Velocity P-wave (km/s) = 7.27999 7.71876 7.50258
#
# Compressibility (1/GPa) = 0.02092254
#
# Stress axis : x y z
#
# Youngs Moduli (GPa) = 52.75877 22.53535 34.36430
#
# Poissons Ratio (x) = 0.30013 0.18463
# Poissons Ratio (y) = 0.70266 0.58633
# Poissons Ratio (z) = 0.28345 0.38450
#
# Static dielectric constant tensor:
#      x y z
#    x 2.812690 0.000000 0.000000 
#    y 0.000000 2.301850 0.000000 
#    z 0.000000 0.000000 2.650900 
# 
# 
# High freq. dielectric constant tensor:
#      x y z
#    x 1.483020 0.000000 0.000000 
#    y 0.000000 1.444560 0.000000 
#    z 0.000000 0.000000 1.482760 
# 
# From -- ./inp_files/8889.got.cif
#   From: 2010.03.12/outbox.cif.g09.slc.cpg/sg63_5_cif.got.tgz:8889.got - 2010.04.10 19:34:48.
