data_PCOD8258507
_publ_section_title
;
Structure prediction by ZEFSAII (Michael W. Deem and Ramdas Pophale) SiO2 
 PCOD8258507
Probable space group: C M C M
;
_chemical_formula_sum "Si O2"
_cell_formula_units_Z 80
_cell_length_a 27.005791
_cell_length_b 17.991601
_cell_length_c 9.082782
_cell_angle_alpha 90.000000
_cell_angle_beta 90.000000
_cell_angle_gamma 90.000000
_cell_volume 4413.118652
_symmetry_space_group_name_H-M "C M C M"
_symmetry_group_IT_number 63
_symmetry_cell_setting 'orthorhombic'
loop_
_space_group_symop_operation_xyz
x,y,z
-x,-y,1/2+z
x,-y,-z
-x,y,1/2-z
-x,-y,-z
x,y,1/2-z
-x,y,z
x,-y,1/2+z
1/2+x,1/2+y,z
1/2-x,1/2-y,1/2+z
1/2+x,1/2-y,-z
1/2-x,1/2+y,1/2-z
1/2-x,1/2-y,-z
1/2+x,1/2+y,1/2-z
1/2-x,1/2+y,z
1/2+x,1/2-y,1/2+z
loop_
_atom_site_type_symbol
_atom_site_label
_atom_site_fract_x
_atom_site_fract_y
_atom_site_fract_z
Si Si1 0.695005 0.361242 0.083015
Si Si2 0.857382 0.288167 0.921242
Si Si3 0.411026 0.574852 0.919247
Si Si4 0.711512 0.076472 0.077988
Si Si5 0.944060 0.219385 0.419035
O O1 0.715275 0.362270 0.250000
O O2 0.680442 0.277733 0.034838
O O3 0.647829 0.414589 0.067088
O O4 0.736555 0.391016 0.974820
O O5 0.871133 0.279913 0.750000
O O6 0.832369 0.366359 0.958796
O O7 0.907846 0.281899 0.013795
O O8 0.427573 0.570466 0.750000
O O9 0.427407 0.500000 0.000000
O O10 0.439572 0.642652 0.993646
O O11 0.716409 0.061634 0.250000
O O12 0.697644 0.000000 0.000000
O O13 0.929436 0.205187 0.250000
O O14 0.000000 0.249380 0.433416
#
# Coordination Sequence:
#
# PCOD8258507 Si02
#       5
#    16  16  16  16  16
#     4   9  18  33  52  75 103 137 175 209 245 292
#     4   9  20  37  55  76 102 134 172 211 252 301
#     4  10  20  33  50  74 106 142 177 212 250 295
#     4  11  22  34  51  77 107 138 171 207 251 301
#     4  10  21  36  55  78 100 127 167 213 262 312
#
# _framework density 18.127769000000001
#
# number of rings (size 3 to 8) (size 9 to 14) (size 15 to 20)
#    0.000    2.200    0.000    4.200    0.000    9.200 
#    0.000    0.000    0.000    0.600    0.000    0.000 
#    0.000    0.000    0.000    0.000    0.000    0.000 
#
# Total GULP energy -496140.365455 kJ/mol
# GULP energy per Si atom -12403.509136 kJ/mol
# Density = 1.808651 g / cm^3
# Si number density = 18.127769 Si / 1000 Ang^3
#
#
#
# Elastic Constant Matrix: (Units=GPa)
#
#
# Indices 1 2 3 4 5 6 
#
# 1 83.5129 43.8925 46.1823 0.0000 0.0000 0.0000
# 2 43.8925 104.7778 49.5295 0.0000 0.0000 0.0000
# 3 46.1823 49.5295 97.0968 0.0000 0.0000 0.0000
# 4 0.0000 0.0000 0.0000 30.6941 0.0000 0.0000
# 5 0.0000 0.0000 0.0000 0.0000 29.7845 0.0000
# 6 0.0000 0.0000 0.0000 0.0000 0.0000 11.3878
#
#
#
# Elastic Compliance Matrix: (Units=1/GPa)
#
#
# Indices 1 2 3 4 5 6 
#
# 1 0.017747 -0.004539 -0.006126 0.000000 0.000000 0.000000
# 2 -0.004539 0.013737 -0.004849 0.000000 0.000000 0.000000
# 3 -0.006126 -0.004849 0.015686 0.000000 0.000000 0.000000
# 4 0.000000 0.000000 0.000000 0.032580 0.000000 0.000000
# 5 0.000000 0.000000 0.000000 0.000000 0.033575 0.000000
# 6 0.000000 0.000000 0.000000 0.000000 0.000000 0.087813
#
#
# Mechanical properties :
#
#
# Convention : Reuss Voigt Hill
#
# Bulk Modulus (GPa) = 61.94290 62.73290 62.33790
# Shear Modulus (GPa) = 21.04854 24.09214 22.57034
#
# Velocity S-wave (km/s) = 3.41122 3.64953 3.53238
# Velocity P-wave (km/s) = 7.05405 7.24153 7.14840
#
# Compressibility (1/GPa) = 0.01614390
#
# Stress axis : x y z
#
# Youngs Moduli (GPa) = 56.34667 72.79411 63.75092
#
# Poissons Ratio (x) = 0.33039 0.39053
# Poissons Ratio (y) = 0.25574 0.30911
# Poissons Ratio (z) = 0.34518 0.35296
#
# Static dielectric constant tensor:
#      x y z
#    x 3.207150 0.000000 0.000000 
#    y 0.000000 3.366570 0.000000 
#    z 0.000000 0.000000 3.447010 
# 
# 
# High freq. dielectric constant tensor:
#      x y z
#    x 1.690760 0.000000 0.000000 
#    y 0.000000 1.689870 0.000000 
#    z 0.000000 0.000000 1.714910 
# 
# From -- ./inp_files/12000.got.cif
#   From: 2010.03.12/outbox.cif.g09.slc.cpg/sg63_6_cif.got.tgz:12000.got - 2010.04.10 19:34:48.
