data_PCOD8258222
_publ_section_title
;
Structure prediction by ZEFSAII (Michael W. Deem and Ramdas Pophale) SiO2 
 PCOD8258222
Probable space group: C M C M
;
_chemical_formula_sum "Si O2"
_cell_formula_units_Z 96
_cell_length_a 9.465413
_cell_length_b 30.846029
_cell_length_c 19.011755
_cell_angle_alpha 90.000000
_cell_angle_beta 90.000000
_cell_angle_gamma 90.000000
_cell_volume 5550.869786
_symmetry_space_group_name_H-M "C M C M"
_symmetry_group_IT_number 63
_symmetry_cell_setting 'orthorhombic'
loop_
_space_group_symop_operation_xyz
x,y,z
-x,-y,1/2+z
x,-y,-z
-x,y,1/2-z
-x,-y,-z
x,y,1/2-z
-x,y,z
x,-y,1/2+z
1/2+x,1/2+y,z
1/2-x,1/2-y,1/2+z
1/2+x,1/2-y,-z
1/2-x,1/2+y,1/2-z
1/2-x,1/2-y,-z
1/2+x,1/2+y,1/2-z
1/2-x,1/2+y,z
1/2+x,1/2-y,1/2+z
loop_
_atom_site_type_symbol
_atom_site_label
_atom_site_fract_x
_atom_site_fract_y
_atom_site_fract_z
Si Si1 0.667169 0.046239 0.414197
Si Si2 0.660223 0.384080 0.833591
Si Si3 0.334081 0.128122 0.668566
Si Si4 0.658849 0.195506 0.333658
Si Si5 0.658290 0.708784 0.666495
Si Si6 0.333475 0.949113 0.426743
O O1 0.500000 0.051325 0.400335
O O2 0.753509 0.074457 0.359163
O O3 0.708214 0.061272 0.492956
O O4 0.719102 0.996689 0.403510
O O5 0.663470 0.384436 0.750000
O O6 0.500000 0.385503 0.861884
O O7 0.733802 0.340426 0.863711
O O8 0.296044 0.120196 0.750000
O O9 0.500000 0.133560 0.657196
O O10 0.262934 0.171779 0.638003
O O11 0.271071 0.087559 0.624911
O O12 0.660926 0.194750 0.250000
O O13 0.500000 0.184990 0.360225
O O14 0.705554 0.243419 0.360562
O O15 0.662582 0.708944 0.750000
O O16 0.500000 0.698576 0.640028
O O17 0.500000 0.949688 0.420208
#
# Coordination Sequence:
#
# PCOD8258222 Si02
#       6
#    16  16  16  16  16  16
#     4   9  17  32  52  67  85 119 159 192 222 264
#     4  10  20  31  44  68  99 121 143 185 234 272
#     4   9  16  26  43  68  95 119 144 179 225 271
#     4   8  14  26  44  64  87 118 153 183 215 262
#     4   8  14  25  41  63  91 119 148 182 217 259
#     4   8  16  31  49  69  90 116 154 193 224 260
#
# _framework density 17.294585999999999
#
# number of rings (size 3 to 8) (size 9 to 14) (size 15 to 20)
#    0.000    3.333    0.000    2.500    0.000    2.333 
#    0.000    8.333    0.000    3.000    0.000    0.000 
#    0.000    0.000    0.000    0.000    0.000    0.000 
#
# Total GULP energy -594884.389824 kJ/mol
# GULP energy per Si atom -12393.424788 kJ/mol
# Density = 1.725522 g / cm^3
# Si number density = 17.294586 Si / 1000 Ang^3
#
#
#
# Elastic Constant Matrix: (Units=GPa)
#
#
# Indices 1 2 3 4 5 6 
#
# 1 75.1592 61.1946 22.1394 0.0000 0.0000 0.0000
# 2 61.1946 135.9769 31.2004 0.0000 0.0000 0.0000
# 3 22.1394 31.2004 23.3539 0.0000 0.0000 0.0000
# 4 0.0000 0.0000 0.0000 6.6022 0.0000 0.0000
# 5 0.0000 0.0000 0.0000 0.0000 13.4101 0.0000
# 6 0.0000 0.0000 0.0000 0.0000 0.0000 29.3178
#
#
#
# Elastic Compliance Matrix: (Units=1/GPa)
#
#
# Indices 1 2 3 4 5 6 
#
# 1 0.022952 -0.007696 -0.011477 0.000000 0.000000 0.000000
# 2 -0.007696 0.013186 -0.010320 0.000000 0.000000 0.000000
# 3 -0.011477 -0.010320 0.067487 0.000000 0.000000 0.000000
# 4 0.000000 0.000000 0.000000 0.151465 0.000000 0.000000
# 5 0.000000 0.000000 0.000000 0.000000 0.074571 0.000000
# 6 0.000000 0.000000 0.000000 0.000000 0.000000 0.034109
#
#
# Mechanical properties :
#
#
# Convention : Reuss Voigt Hill
#
# Bulk Modulus (GPa) = 22.40203 51.50653 36.95428
# Shear Modulus (GPa) = 11.42508 17.86305 14.64407
#
# Velocity S-wave (km/s) = 2.57303 3.21732 2.91304
# Velocity P-wave (km/s) = 4.66997 6.60667 5.72087
#
# Compressibility (1/GPa) = 0.04463882
#
# Stress axis : x y z
#
# Youngs Moduli (GPa) = 43.57008 75.84070 14.81774
#
# Poissons Ratio (x) = 0.58365 0.17006
# Poissons Ratio (y) = 0.33530 0.15292
# Poissons Ratio (z) = 0.50004 0.78269
#
# Static dielectric constant tensor:
#      x y z
#    x 3.152550 0.000000 0.000000 
#    y 0.000000 3.739040 0.000000 
#    z 0.000000 0.000000 2.949400 
# 
# 
# High freq. dielectric constant tensor:
#      x y z
#    x 1.648280 0.000000 0.000000 
#    y 0.000000 1.683690 0.000000 
#    z 0.000000 0.000000 1.623950 
# 
# From -- ./inp_files/60259.got.cif
#   From: 2010.03.12/outbox.cif.g09.slc.cpg/sg63_31_cif.got.tgz:60259.got - 2010.04.10 19:34:48.
