data_PCOD8258041
_publ_section_title
;
Structure prediction by ZEFSAII (Michael W. Deem and Ramdas Pophale) SiO2 
 PCOD8258041
Probable space group: C M C M
;
_chemical_formula_sum "Si O2"
_cell_formula_units_Z 96
_cell_length_a 12.184336
_cell_length_b 21.806699
_cell_length_c 18.255975
_cell_angle_alpha 90.000000
_cell_angle_beta 90.000000
_cell_angle_gamma 90.000000
_cell_volume 4850.615253
_symmetry_space_group_name_H-M "C M C M"
_symmetry_group_IT_number 63
_symmetry_cell_setting 'orthorhombic'
loop_
_space_group_symop_operation_xyz
x,y,z
-x,-y,1/2+z
x,-y,-z
-x,y,1/2-z
-x,-y,-z
x,y,1/2-z
-x,y,z
x,-y,1/2+z
1/2+x,1/2+y,z
1/2-x,1/2-y,1/2+z
1/2+x,1/2-y,-z
1/2-x,1/2+y,1/2-z
1/2-x,1/2-y,-z
1/2+x,1/2+y,1/2-z
1/2-x,1/2+y,z
1/2+x,1/2-y,1/2+z
loop_
_atom_site_type_symbol
_atom_site_label
_atom_site_fract_x
_atom_site_fract_y
_atom_site_fract_z
Si Si1 0.883336 0.457607 0.163220
Si Si2 0.000000 0.847054 0.663701
Si Si3 0.500000 0.485389 0.664356
Si Si4 0.782166 0.187859 0.090665
Si Si5 0.875275 0.404253 0.665234
Si Si6 0.376165 0.296537 0.066908
Si Si7 0.160311 0.090707 0.663587
O O1 0.884333 0.461661 0.250000
O O2 0.867433 0.526652 0.135491
O O3 0.786737 0.412951 0.137602
O O4 0.000000 0.431100 0.134250
O O5 0.000000 0.916827 0.629003
O O6 0.892271 0.809482 0.639193
O O7 0.000000 0.849957 0.750000
O O8 0.500000 0.474127 0.750000
O O9 0.605679 0.525681 0.641235
O O10 0.708525 0.130663 0.113338
O O11 0.705330 0.247197 0.103658
O O12 0.819617 0.180250 0.007185
O O13 0.837662 0.398106 0.750000
O O14 0.000000 0.379636 0.656814
O O15 0.500000 0.270272 0.052450
O O16 0.393048 0.352985 0.121783
O O17 0.145061 0.102146 0.750000
#
# Coordination Sequence:
#
# PCOD8258041 Si02
#       7
#    16   8   8  16  16  16  16
#     4   8  15  30  53  83 118 149 181 232 300 360
#     4  11  22  39  63  93 122 153 195 247 308 359
#     4   9  18  33  59  89 121 151 184 243 308 361
#     4  11  23  40  59  82 117 157 197 246 301 353
#     4   9  17  33  60  90 115 145 192 243 291 348
#     4  11  24  43  60  78 114 161 207 243 295 359
#     4  10  19  35  59  87 115 152 197 242 292 352
#
# _framework density 19.791304
#
# number of rings (size 3 to 8) (size 9 to 14) (size 15 to 20)
#    0.000    2.167    1.667    3.000    0.000    4.000 
#    1.500    4.167    0.000    2.000    0.000    0.000 
#    0.000    0.000    0.000    0.000    0.000    0.000 
#
# Total GULP energy -594888.643305 kJ/mol
# GULP energy per Si atom -12393.513402 kJ/mol
# Density = 1.974626 g / cm^3
# Si number density = 19.791304 Si / 1000 Ang^3
#
#
#
# Elastic Constant Matrix: (Units=GPa)
#
#
# Indices 1 2 3 4 5 6 
#
# 1 152.8803 45.2345 32.6486 0.0000 0.0000 0.0000
# 2 45.2345 62.5720 26.8071 0.0000 0.0000 0.0000
# 3 32.6486 26.8071 49.4922 0.0000 0.0000 0.0000
# 4 0.0000 0.0000 0.0000 12.5050 0.0000 0.0000
# 5 0.0000 0.0000 0.0000 0.0000 31.3474 0.0000
# 6 0.0000 0.0000 0.0000 0.0000 0.0000 44.0177
#
#
#
# Elastic Compliance Matrix: (Units=1/GPa)
#
#
# Indices 1 2 3 4 5 6 
#
# 1 0.008655 -0.004962 -0.003021 0.000000 0.000000 0.000000
# 2 -0.004962 0.023656 -0.009540 0.000000 0.000000 0.000000
# 3 -0.003021 -0.009540 0.027365 0.000000 0.000000 0.000000
# 4 0.000000 0.000000 0.000000 0.079968 0.000000 0.000000
# 5 0.000000 0.000000 0.000000 0.000000 0.031901 0.000000
# 6 0.000000 0.000000 0.000000 0.000000 0.000000 0.022718
#
#
# Mechanical properties :
#
#
# Convention : Reuss Voigt Hill
#
# Bulk Modulus (GPa) = 40.60192 52.70278 46.65235
# Shear Modulus (GPa) = 21.05096 28.25761 24.65428
#
# Velocity S-wave (km/s) = 3.26490 3.78270 3.53330
# Velocity P-wave (km/s) = 5.89681 6.76502 6.34578
#
# Compressibility (1/GPa) = 0.02462938
#
# Stress axis : x y z
#
# Youngs Moduli (GPa) = 115.54679 42.27304 36.54242
#
# Poissons Ratio (x) = 0.20976 0.11041
# Poissons Ratio (y) = 0.57335 0.34860
# Poissons Ratio (z) = 0.34912 0.40327
#
# Static dielectric constant tensor:
#      x y z
#    x 4.552030 0.000000 0.000000 
#    y 0.000000 3.516550 0.000000 
#    z 0.000000 0.000000 3.229850 
# 
# 
# High freq. dielectric constant tensor:
#      x y z
#    x 1.801730 0.000000 0.000000 
#    y 0.000000 1.754400 0.000000 
#    z 0.000000 0.000000 1.736430 
# 
# From -- ./inp_files/42541.got.cif
#   From: 2010.03.12/outbox.cif.g09.slc.cpg/sg63_22_cif.got.tgz:42541.got - 2010.04.10 19:34:48.
