data_PCOD8258453
_publ_section_title
;
Structure prediction by ZEFSAII (Michael W. Deem and Ramdas Pophale) SiO2 
 PCOD8258453
Probable space group: C M C M
;
_chemical_formula_sum "Si O2"
_cell_formula_units_Z 96
_cell_length_a 25.200711
_cell_length_b 23.728244
_cell_length_c 8.771432
_cell_angle_alpha 90.000000
_cell_angle_beta 90.000000
_cell_angle_gamma 90.000000
_cell_volume 5245.041085
_symmetry_space_group_name_H-M "C M C M"
_symmetry_group_IT_number 63
_symmetry_cell_setting 'orthorhombic'
loop_
_space_group_symop_operation_xyz
x,y,z
-x,-y,1/2+z
x,-y,-z
-x,y,1/2-z
-x,-y,-z
x,y,1/2-z
-x,y,z
x,-y,1/2+z
1/2+x,1/2+y,z
1/2-x,1/2-y,1/2+z
1/2+x,1/2-y,-z
1/2-x,1/2+y,1/2-z
1/2-x,1/2-y,-z
1/2+x,1/2+y,1/2-z
1/2-x,1/2+y,z
1/2+x,1/2-y,1/2+z
loop_
_atom_site_type_symbol
_atom_site_label
_atom_site_fract_x
_atom_site_fract_y
_atom_site_fract_z
Si Si1 0.747288 0.438881 0.429924
Si Si2 0.940495 0.440986 0.430383
Si Si3 0.808324 0.753457 0.930947
Si Si4 0.438129 0.559102 0.072310
Si Si5 0.154721 0.366876 0.430492
Si Si6 0.352566 0.634869 0.930200
O O1 0.747434 0.500000 0.500000
O O2 0.750985 0.444405 0.250000
O O3 0.796691 0.403584 0.497131
O O4 0.693916 0.407362 0.480044
O O5 0.921579 0.500000 0.500000
O O6 0.937879 0.446914 0.250000
O O7 0.901021 0.392242 0.490142
O O8 0.000000 0.425654 0.485272
O O9 0.803128 0.757783 0.750000
O O10 0.840091 0.697599 0.983243
O O11 0.750000 0.750000 0.000000
O O12 0.842178 0.804925 0.994677
O O13 0.424272 0.557330 0.250000
O O14 0.500000 0.569671 0.042196
O O15 0.419692 0.500000 0.000000
O O16 0.407710 0.610446 0.992586
O O17 0.157482 0.370217 0.250000
O O18 0.355567 0.642643 0.750000
#
# Coordination Sequence:
#
# PCOD8258453 Si02
#       6
#    16  16  16  16  16  16
#     4  10  20  33  49  74 106 138 172 218 273 327
#     4   9  17  31  53  78 104 137 173 211 260 314
#     4  11  21  37  57  77 106 146 188 231 281 334
#     4  10  21  38  60  86 115 149 187 228 279 336
#     4   9  18  34  52  73 106 140 176 222 268 321
#     4  11  22  37  56  80 111 146 187 231 279 333
#
# _framework density 18.303004000000001
#
# number of rings (size 3 to 8) (size 9 to 14) (size 15 to 20)
#    0.000    2.000    1.667    2.500    0.000    3.667 
#    0.000    2.500    0.000    3.000    0.000    0.000 
#    0.000    0.000    0.000    0.000    0.000    0.000 
#
# Total GULP energy -595282.010105 kJ/mol
# GULP energy per Si atom -12401.708544 kJ/mol
# Density = 1.826135 g / cm^3
# Si number density = 18.303004 Si / 1000 Ang^3
#
#
#
# Elastic Constant Matrix: (Units=GPa)
#
#
# Indices 1 2 3 4 5 6 
#
# 1 111.2294 82.7132 38.6730 0.0000 0.0000 0.0000
# 2 82.7132 179.9410 49.1547 0.0000 0.0000 0.0000
# 3 38.6730 49.1547 55.8463 0.0000 0.0000 0.0000
# 4 0.0000 0.0000 0.0000 32.3613 0.0000 0.0000
# 5 0.0000 0.0000 0.0000 0.0000 23.6023 0.0000
# 6 0.0000 0.0000 0.0000 0.0000 0.0000 26.6111
#
#
#
# Elastic Compliance Matrix: (Units=1/GPa)
#
#
# Indices 1 2 3 4 5 6 
#
# 1 0.014900 -0.005306 -0.005648 0.000000 0.000000 0.000000
# 2 -0.005306 0.009206 -0.004429 0.000000 0.000000 0.000000
# 3 -0.005648 -0.004429 0.025715 0.000000 0.000000 0.000000
# 4 0.000000 0.000000 0.000000 0.030901 0.000000 0.000000
# 5 0.000000 0.000000 0.000000 0.000000 0.042369 0.000000
# 6 0.000000 0.000000 0.000000 0.000000 0.000000 0.037578
#
#
# Mechanical properties :
#
#
# Convention : Reuss Voigt Hill
#
# Bulk Modulus (GPa) = 52.47583 76.45538 64.46560
# Shear Modulus (GPa) = 25.27978 28.27999 26.77989
#
# Velocity S-wave (km/s) = 3.72046 3.93504 3.82925
# Velocity P-wave (km/s) = 6.86940 7.90625 7.40599
#
# Compressibility (1/GPa) = 0.01905639
#
# Stress axis : x y z
#
# Youngs Moduli (GPa) = 67.11462 108.62177 38.88761
#
# Poissons Ratio (x) = 0.57637 0.21962
# Poissons Ratio (y) = 0.35613 0.17222
# Poissons Ratio (z) = 0.37903 0.48104
#
# Static dielectric constant tensor:
#      x y z
#    x 3.647940 0.000000 0.000000 
#    y 0.000000 4.325770 0.000000 
#    z 0.000000 0.000000 3.267160 
# 
# 
# High freq. dielectric constant tensor:
#      x y z
#    x 1.713220 0.000000 0.000000 
#    y 0.000000 1.713930 0.000000 
#    z 0.000000 0.000000 1.700120 
# 
# From -- ./inp_files/10446.got.cif
#   From: 2010.03.12/outbox.cif.g09.slc.cpg/sg63_6_cif.got.tgz:10446.got - 2010.04.10 19:34:48.
