data_PCOD8258535
_publ_section_title
;
Structure prediction by ZEFSAII (Michael W. Deem and Ramdas Pophale) SiO2 
 PCOD8258535
Probable space group: C M C M
;
_chemical_formula_sum "Si O2"
_cell_formula_units_Z 72
_cell_length_a 24.635049
_cell_length_b 5.281222
_cell_length_c 27.450674
_cell_angle_alpha 90.000000
_cell_angle_beta 90.000000
_cell_angle_gamma 90.000000
_cell_volume 3571.419507
_symmetry_space_group_name_H-M "C M C M"
_symmetry_group_IT_number 63
_symmetry_cell_setting 'orthorhombic'
loop_
_space_group_symop_operation_xyz
x,y,z
-x,-y,1/2+z
x,-y,-z
-x,y,1/2-z
-x,-y,-z
x,y,1/2-z
-x,y,z
x,-y,1/2+z
1/2+x,1/2+y,z
1/2-x,1/2-y,1/2+z
1/2+x,1/2-y,-z
1/2-x,1/2+y,1/2-z
1/2-x,1/2-y,-z
1/2+x,1/2+y,1/2-z
1/2-x,1/2+y,z
1/2+x,1/2-y,1/2+z
loop_
_atom_site_type_symbol
_atom_site_label
_atom_site_fract_x
_atom_site_fract_y
_atom_site_fract_z
Si Si1 0.564247 0.202772 0.138528
Si Si2 0.936404 0.193213 0.304112
Si Si3 0.391881 0.914729 0.055197
Si Si4 0.500000 0.254612 0.968084
Si Si5 0.773097 0.748930 0.555289
O O1 0.500000 0.215785 0.125233
O O2 0.577473 0.965270 0.173432
O O3 0.600952 0.158718 0.090079
O O4 0.586063 0.460286 0.163303
O O5 0.910446 0.180023 0.250000
O O6 0.000000 0.152694 0.299535
O O7 0.445605 0.739799 0.065343
O O8 0.337721 0.752221 0.062097
O O9 0.391361 0.000000 0.000000
O O10 0.500000 0.500000 0.000000
O O11 0.500000 0.000000 0.000000
O O12 0.750000 0.750000 0.500000
O O13 0.748749 0.500640 0.581773
#
# Coordination Sequence:
#
# PCOD8258535 Si02
#       5
#    16  16  16   8  16
#     4  10  20  33  50  81 109 143 186 220 268 337
#     4   9  18  34  54  74 106 144 180 225 274 326
#     4  11  22  38  55  78 119 153 190 224 276 328
#     4  10  24  34  50  74 103 154 187 210 264 324
#     4  10  21  37  55  73  97 148 194 237 266 305
#
# _framework density 20.160050999999999
#
# number of rings (size 3 to 8) (size 9 to 14) (size 15 to 20)
#    0.000    2.000    3.333    0.667    3.111    8.000 
#    0.000    0.000    0.000    0.000    0.000    0.000 
#    0.000   17.778    0.000    0.000    0.000    0.000 
#
# Total GULP energy -446095.410211 kJ/mol
# GULP energy per Si atom -12391.539173 kJ/mol
# Density = 2.011417 g / cm^3
# Si number density = 20.160051 Si / 1000 Ang^3
#
#
#
# Elastic Constant Matrix: (Units=GPa)
#
#
# Indices 1 2 3 4 5 6 
#
# 1 132.7708 27.2989 -1.3685 0.0000 0.0000 0.0000
# 2 27.2989 111.3385 -2.6385 0.0000 0.0000 0.0000
# 3 -1.3685 -2.6385 67.5156 0.0000 0.0000 0.0000
# 4 0.0000 0.0000 0.0000 20.6243 0.0000 0.0000
# 5 0.0000 0.0000 0.0000 0.0000 2.2037 0.0000
# 6 0.0000 0.0000 0.0000 0.0000 0.0000 15.6995
#
#
#
# Elastic Compliance Matrix: (Units=1/GPa)
#
#
# Indices 1 2 3 4 5 6 
#
# 1 0.007932 -0.001943 0.000085 0.000000 0.000000 0.000000
# 2 -0.001943 0.009466 0.000331 0.000000 0.000000 0.000000
# 3 0.000085 0.000331 0.014826 0.000000 0.000000 0.000000
# 4 0.000000 0.000000 0.000000 0.048487 0.000000 0.000000
# 5 0.000000 0.000000 0.000000 0.000000 0.453775 0.000000
# 6 0.000000 0.000000 0.000000 0.000000 0.000000 0.063696
#
#
# Mechanical properties :
#
#
# Convention : Reuss Voigt Hill
#
# Bulk Modulus (GPa) = 34.28291 39.80096 37.04194
# Shear Modulus (GPa) = 8.18384 26.92769 17.55577
#
# Velocity S-wave (km/s) = 2.01699 3.65868 2.95417
# Velocity P-wave (km/s) = 4.73990 6.13460 5.48178
#
# Compressibility (1/GPa) = 0.02916905
#
# Stress axis : x y z
#
# Youngs Moduli (GPa) = 126.06967 105.64325 67.44891
#
# Poissons Ratio (x) = 0.20525 -0.00572
# Poissons Ratio (y) = 0.24493 -0.02229
# Poissons Ratio (z) = -0.01070 -0.03492
#
# Static dielectric constant tensor:
#      x y z
#    x 8.332880 0.000000 0.000000 
#    y 0.000000 4.357440 0.000000 
#    z 0.000000 0.000000 3.598380 
# 
# 
# High freq. dielectric constant tensor:
#      x y z
#    x 1.746760 0.000000 0.000000 
#    y 0.000000 1.807670 0.000000 
#    z 0.000000 0.000000 1.752510 
# 
# From -- ./inp_files/74176.got.cif
#   From: 2010.03.12/outbox.cif.g09.slc.cpg/sg63_38_cif.got.tgz:74176.got - 2010.04.10 19:34:48.
