data_PCOD8258466
_publ_section_title
;
Structure prediction by ZEFSAII (Michael W. Deem and Ramdas Pophale) SiO2 
 PCOD8258466
Probable space group: C M C M
;
_chemical_formula_sum "Si O2"
_cell_formula_units_Z 64
_cell_length_a 9.641694
_cell_length_b 41.457491
_cell_length_c 9.204653
_cell_angle_alpha 90.000000
_cell_angle_beta 90.000000
_cell_angle_gamma 90.000000
_cell_volume 3679.287968
_symmetry_space_group_name_H-M "C M C M"
_symmetry_group_IT_number 63
_symmetry_cell_setting 'orthorhombic'
loop_
_space_group_symop_operation_xyz
x,y,z
-x,-y,1/2+z
x,-y,-z
-x,y,1/2-z
-x,-y,-z
x,y,1/2-z
-x,y,z
x,-y,1/2+z
1/2+x,1/2+y,z
1/2-x,1/2-y,1/2+z
1/2+x,1/2-y,-z
1/2-x,1/2+y,1/2-z
1/2-x,1/2-y,-z
1/2+x,1/2+y,1/2-z
1/2-x,1/2+y,z
1/2+x,1/2-y,1/2+z
loop_
_atom_site_type_symbol
_atom_site_label
_atom_site_fract_x
_atom_site_fract_y
_atom_site_fract_z
Si Si1 0.340197 0.532001 0.579660
Si Si2 0.664544 0.839273 0.088614
Si Si3 0.654604 0.090236 0.922952
Si Si4 0.837522 0.723087 0.419474
O O1 0.285921 0.500000 0.500000
O O2 0.315654 0.527255 0.750000
O O3 0.500000 0.538543 0.542440
O O4 0.254968 0.562383 0.517010
O O5 0.725560 0.832153 0.250000
O O6 0.500000 0.840373 0.099056
O O7 0.713377 0.874465 0.029954
O O8 0.713796 0.811575 0.978550
O O9 0.649944 0.089518 0.750000
O O10 0.500000 0.084333 0.985814
O O11 0.804519 0.724585 0.250000
O O12 0.750000 0.750000 0.500000
O O13 0.000000 0.728527 0.451855
#
# Coordination Sequence:
#
# PCOD8258466 Si02
#       4
#    16  16  16  16
#     4   9  17  29  44  62  86 116 147 179 218 264
#     4   8  14  27  47  67  88 117 150 185 228 274
#     4   8  14  26  45  66  86 112 148 185 220 262
#     4  10  20  33  50  72  97 126 159 193 231 277
#
# _framework density 17.394670000000001
#
# number of rings (size 3 to 8) (size 9 to 14) (size 15 to 20)
#    0.000    3.250    0.000    2.250    0.000    2.000 
#    0.000    2.500    0.000    6.000    0.000    0.000 
#    0.000    0.000    0.000    0.000    0.000    0.000 
#
# Total GULP energy -396632.433810 kJ/mol
# GULP energy per Si atom -12394.763557 kJ/mol
# Density = 1.735508 g / cm^3
# Si number density = 17.394670 Si / 1000 Ang^3
#
#
#
# Elastic Constant Matrix: (Units=GPa)
#
#
# Indices 1 2 3 4 5 6 
#
# 1 54.0854 69.8923 33.5681 0.0000 0.0000 0.0000
# 2 69.8923 199.0415 66.1947 0.0000 0.0000 0.0000
# 3 33.5681 66.1947 66.8846 0.0000 0.0000 0.0000
# 4 0.0000 0.0000 0.0000 31.3182 0.0000 0.0000
# 5 0.0000 0.0000 0.0000 0.0000 16.5695 0.0000
# 6 0.0000 0.0000 0.0000 0.0000 0.0000 31.4802
#
#
#
# Elastic Compliance Matrix: (Units=1/GPa)
#
#
# Indices 1 2 3 4 5 6 
#
# 1 0.036809 -0.010109 -0.008469 0.000000 0.000000 0.000000
# 2 -0.010109 0.010265 -0.005086 0.000000 0.000000 0.000000
# 3 -0.008469 -0.005086 0.024235 0.000000 0.000000 0.000000
# 4 0.000000 0.000000 0.000000 0.031930 0.000000 0.000000
# 5 0.000000 0.000000 0.000000 0.000000 0.060352 0.000000
# 6 0.000000 0.000000 0.000000 0.000000 0.000000 0.031766
#
#
# Mechanical properties :
#
#
# Convention : Reuss Voigt Hill
#
# Bulk Modulus (GPa) = 41.69899 73.25795 57.47847
# Shear Modulus (GPa) = 19.94590 25.89732 22.92161
#
# Velocity S-wave (km/s) = 3.38992 3.86269 3.63400
# Velocity P-wave (km/s) = 6.27267 7.88038 7.12204
#
# Compressibility (1/GPa) = 0.02398139
#
# Stress axis : x y z
#
# Youngs Moduli (GPa) = 27.16761 97.41817 41.26251
#
# Poissons Ratio (x) = 0.98475 0.34946
# Poissons Ratio (y) = 0.27462 0.20986
# Poissons Ratio (z) = 0.23009 0.49546
#
# Static dielectric constant tensor:
#      x y z
#    x 3.076330 0.000000 0.000000 
#    y 0.000000 3.765640 0.000000 
#    z 0.000000 0.000000 3.846420 
# 
# 
# High freq. dielectric constant tensor:
#      x y z
#    x 1.640640 0.000000 0.000000 
#    y 0.000000 1.689860 0.000000 
#    z 0.000000 0.000000 1.644530 
# 
# From -- ./inp_files/3110.got.cif
#   From: 2010.03.12/outbox.cif.g09.slc.cpg/sg63_2_cif.got.tgz:3110.got - 2010.04.10 19:34:48.
