data_PCOD8258368
_publ_section_title
;
Structure prediction by ZEFSAII (Michael W. Deem and Ramdas Pophale) SiO2 
 PCOD8258368
Probable space group: C M C M
;
_chemical_formula_sum "Si O2"
_cell_formula_units_Z 80
_cell_length_a 18.188038
_cell_length_b 27.275962
_cell_length_c 8.939759
_cell_angle_alpha 90.000000
_cell_angle_beta 90.000000
_cell_angle_gamma 90.000000
_cell_volume 4434.980767
_symmetry_space_group_name_H-M "C M C M"
_symmetry_group_IT_number 63
_symmetry_cell_setting 'orthorhombic'
loop_
_space_group_symop_operation_xyz
x,y,z
-x,-y,1/2+z
x,-y,-z
-x,y,1/2-z
-x,-y,-z
x,y,1/2-z
-x,y,z
x,-y,1/2+z
1/2+x,1/2+y,z
1/2-x,1/2-y,1/2+z
1/2+x,1/2-y,-z
1/2-x,1/2+y,1/2-z
1/2-x,1/2-y,-z
1/2+x,1/2+y,1/2-z
1/2-x,1/2+y,z
1/2+x,1/2-y,1/2+z
loop_
_atom_site_type_symbol
_atom_site_label
_atom_site_fract_x
_atom_site_fract_y
_atom_site_fract_z
Si Si1 0.917150 0.357307 0.423405
Si Si2 0.795965 0.110058 0.075952
Si Si3 0.724115 0.799741 0.074150
Si Si4 0.348444 0.051726 0.076549
Si Si5 0.085194 0.949138 0.420860
O O1 0.905840 0.370189 0.250000
O O2 0.860063 0.314232 0.470326
O O3 0.903136 0.407130 0.513518
O O4 0.000000 0.338731 0.456721
O O5 0.802575 0.123213 0.250000
O O6 0.735449 0.067987 0.047102
O O7 0.777564 0.158417 0.984628
O O8 0.873581 0.092702 0.012369
O O9 0.733081 0.794224 0.250000
O O10 0.750000 0.750000 0.000000
O O11 0.365518 0.045706 0.250000
O O12 0.363915 0.000000 0.000000
O O13 0.113186 0.952069 0.250000
O O14 0.000000 0.935666 0.427936
O O15 0.102509 0.000000 0.500000
#
# Coordination Sequence:
#
# PCOD8258368 Si02
#       5
#    16  16  16  16  16
#     4   9  19  36  56  77 102 133 169 209 253 300
#     4  10  20  34  53  76 102 134 174 217 260 308
#     4  10  20  36  58  80 103 132 169 214 262 312
#     4  10  20  32  49  75 105 138 174 209 248 297
#     4  10  20  33  50  74 105 140 176 214 259 310
#
# _framework density 18.038409000000001
#
# number of rings (size 3 to 8) (size 9 to 14) (size 15 to 20)
#    0.000    2.200    0.000    3.000    0.000    6.800 
#    0.000    1.000    0.000    3.600    0.000    0.000 
#    0.000    0.000    0.000    0.000    0.000    0.000 
#
# Total GULP energy -496072.745338 kJ/mol
# GULP energy per Si atom -12401.818633 kJ/mol
# Density = 1.799735 g / cm^3
# Si number density = 18.038409 Si / 1000 Ang^3
#
#
#
# Elastic Constant Matrix: (Units=GPa)
#
#
# Indices 1 2 3 4 5 6 
#
# 1 96.6271 71.0129 48.7017 0.0000 0.0000 0.0000
# 2 71.0129 133.2012 63.0984 0.0000 0.0000 0.0000
# 3 48.7017 63.0984 95.0871 0.0000 0.0000 0.0000
# 4 0.0000 0.0000 0.0000 37.3295 0.0000 0.0000
# 5 0.0000 0.0000 0.0000 0.0000 27.1193 0.0000
# 6 0.0000 0.0000 0.0000 0.0000 0.0000 -14.4412
#
#
#
# Elastic Compliance Matrix: (Units=1/GPa)
#
#
# Indices 1 2 3 4 5 6 
#
# 1 0.018087 -0.007663 -0.004179 0.000000 0.000000 0.000000
# 2 -0.007663 0.014196 -0.005495 0.000000 0.000000 0.000000
# 3 -0.004179 -0.005495 0.016304 0.000000 0.000000 0.000000
# 4 0.000000 0.000000 0.000000 0.026788 0.000000 0.000000
# 5 0.000000 0.000000 0.000000 0.000000 0.036874 0.000000
# 6 0.000000 0.000000 0.000000 0.000000 0.000000 -0.069247
#
#
# Mechanical properties :
#
#
# Convention : Reuss Voigt Hill
#
# Bulk Modulus (GPa) = 71.87919 76.72683 74.30301
# Shear Modulus (GPa) = 60.74287 19.47504 40.10895
#
# Velocity S-wave (km/s) = 5.80924 3.28936 4.72055
# Velocity P-wave (km/s) = 9.21579 7.55342 8.42570
#
# Compressibility (1/GPa) = 0.01391223
#
# Stress axis : x y z
#
# Youngs Moduli (GPa) = 55.28849 70.44203 61.33644
#
# Poissons Ratio (x) = 0.53981 0.25630
# Poissons Ratio (y) = 0.42369 0.33707
# Poissons Ratio (z) = 0.23103 0.38711
#
# Static dielectric constant tensor:
#      x y z
#    x 3.379080 0.000000 0.000000 
#    y 0.000000 3.116430 0.000000 
#    z 0.000000 0.000000 3.488070 
# 
# 
# High freq. dielectric constant tensor:
#      x y z
#    x 1.697560 0.000000 0.000000 
#    y 0.000000 1.684600 0.000000 
#    z 0.000000 0.000000 1.714990 
# 
# From -- ./inp_files/6366.got.cif
#   From: 2010.03.12/outbox.cif.g09.slc.cpg/sg63_4_cif.got.tgz:6366.got - 2010.04.10 19:34:48.
