data_PCOD8258430
_publ_section_title
;
Structure prediction by ZEFSAII (Michael W. Deem and Ramdas Pophale) SiO2 
 PCOD8258430
Probable space group: C M C M
;
_chemical_formula_sum "Si O2"
_cell_formula_units_Z 96
_cell_length_a 20.208926
_cell_length_b 27.976505
_cell_length_c 9.448072
_cell_angle_alpha 90.000000
_cell_angle_beta 90.000000
_cell_angle_gamma 90.000000
_cell_volume 5341.704834
_symmetry_space_group_name_H-M "C M C M"
_symmetry_group_IT_number 63
_symmetry_cell_setting 'orthorhombic'
loop_
_space_group_symop_operation_xyz
x,y,z
-x,-y,1/2+z
x,-y,-z
-x,y,1/2-z
-x,-y,-z
x,y,1/2-z
-x,y,z
x,-y,1/2+z
1/2+x,1/2+y,z
1/2-x,1/2-y,1/2+z
1/2+x,1/2-y,-z
1/2-x,1/2+y,1/2-z
1/2-x,1/2-y,-z
1/2+x,1/2+y,1/2-z
1/2-x,1/2+y,z
1/2+x,1/2-y,1/2+z
loop_
_atom_site_type_symbol
_atom_site_label
_atom_site_fract_x
_atom_site_fract_y
_atom_site_fract_z
Si Si1 0.575208 0.047015 0.414876
Si Si2 0.925027 0.210668 0.586622
Si Si3 0.190017 0.614747 0.417200
Si Si4 0.924717 0.118574 0.086391
Si Si5 0.809820 0.048820 0.416136
Si Si6 0.694196 0.777857 0.583634
O O1 0.586131 0.035673 0.250000
O O2 0.500000 0.062485 0.446878
O O3 0.622073 0.089837 0.467520
O O4 0.595354 0.000000 0.500000
O O5 0.920948 0.196145 0.750000
O O6 0.900761 0.164703 0.499640
O O7 0.877496 0.255004 0.552103
O O8 0.000000 0.225301 0.544183
O O9 0.191519 0.618312 0.250000
O O10 0.252368 0.584163 0.470952
O O11 0.192683 0.668343 0.478016
O O12 0.916283 0.132130 0.250000
O O13 0.879904 0.073176 0.047399
O O14 0.000000 0.104764 0.048131
O O15 0.802468 0.037971 0.250000
O O16 0.804133 0.000000 0.500000
O O17 0.710901 0.776231 0.750000
O O18 0.750000 0.750000 0.500000
#
# Coordination Sequence:
#
# PCOD8258430 Si02
#       6
#    16  16  16  16  16  16
#     4   9  17  30  49  71  94 122 156 192 232 279
#     4   9  18  32  51  76 102 127 159 201 245 285
#     4   9  18  32  49  69  94 125 158 192 233 282
#     4   9  18  33  52  72  96 128 161 192 234 290
#     4  10  20  33  49  69  94 124 159 197 236 280
#     4  10  20  34  52  73  99 130 164 202 242 287
#
# _framework density 17.971791
#
# number of rings (size 3 to 8) (size 9 to 14) (size 15 to 20)
#    0.000    2.667    0.000    1.500    0.000    3.667 
#    0.000    5.000    0.000    0.000    0.000    4.667 
#    0.000    0.000    0.000    0.000    0.000    0.000 
#
# Total GULP energy -595233.075018 kJ/mol
# GULP energy per Si atom -12400.689063 kJ/mol
# Density = 1.793089 g / cm^3
# Si number density = 17.971791 Si / 1000 Ang^3
#
#
#
# Elastic Constant Matrix: (Units=GPa)
#
#
# Indices 1 2 3 4 5 6 
#
# 1 118.3601 90.9429 38.5798 0.0000 0.0000 0.0000
# 2 90.9429 175.0434 51.5242 0.0000 0.0000 0.0000
# 3 38.5798 51.5242 40.2928 0.0000 0.0000 0.0000
# 4 0.0000 0.0000 0.0000 29.5178 0.0000 0.0000
# 5 0.0000 0.0000 0.0000 0.0000 21.6534 0.0000
# 6 0.0000 0.0000 0.0000 0.0000 0.0000 35.2426
#
#
#
# Elastic Compliance Matrix: (Units=1/GPa)
#
#
# Indices 1 2 3 4 5 6 
#
# 1 0.015253 -0.005814 -0.007170 0.000000 0.000000 0.000000
# 2 -0.005814 0.011377 -0.008982 0.000000 0.000000 0.000000
# 3 -0.007170 -0.008982 0.043169 0.000000 0.000000 0.000000
# 4 0.000000 0.000000 0.000000 0.033878 0.000000 0.000000
# 5 0.000000 0.000000 0.000000 0.000000 0.046182 0.000000
# 6 0.000000 0.000000 0.000000 0.000000 0.000000 0.028375
#
#
# Mechanical properties :
#
#
# Convention : Reuss Voigt Hill
#
# Bulk Modulus (GPa) = 38.65823 77.31002 57.98412
# Shear Modulus (GPa) = 21.66488 27.45939 24.56213
#
# Velocity S-wave (km/s) = 3.47579 3.91310 3.70091
# Velocity P-wave (km/s) = 6.13721 7.97040 7.11311
#
# Compressibility (1/GPa) = 0.02586772
#
# Stress axis : x y z
#
# Youngs Moduli (GPa) = 65.55961 87.89315 23.16498
#
# Poissons Ratio (x) = 0.51104 0.16609
# Poissons Ratio (y) = 0.38119 0.20806
# Poissons Ratio (z) = 0.47005 0.78943
#
# Static dielectric constant tensor:
#      x y z
#    x 3.661610 0.000000 0.000000 
#    y 0.000000 3.427760 0.000000 
#    z 0.000000 0.000000 3.211070 
# 
# 
# High freq. dielectric constant tensor:
#      x y z
#    x 1.711350 0.000000 0.000000 
#    y 0.000000 1.694190 0.000000 
#    z 0.000000 0.000000 1.672520 
# 
# From -- ./inp_files/8537.got.cif
#   From: 2010.03.12/outbox.cif.g09.slc.cpg/sg63_5_cif.got.tgz:8537.got - 2010.04.10 19:34:48.
