data_PCOD8258514
_publ_section_title
;
Structure prediction by ZEFSAII (Michael W. Deem and Ramdas Pophale) SiO2 
 PCOD8258514
Probable space group: C M C M
;
_chemical_formula_sum "Si O2"
_cell_formula_units_Z 104
_cell_length_a 27.966733
_cell_length_b 24.142771
_cell_length_c 8.741862
_cell_angle_alpha 90.000000
_cell_angle_beta 90.000000
_cell_angle_gamma 90.000000
_cell_volume 5902.456534
_symmetry_space_group_name_H-M "C M C M"
_symmetry_group_IT_number 63
_symmetry_cell_setting 'orthorhombic'
loop_
_space_group_symop_operation_xyz
x,y,z
-x,-y,1/2+z
x,-y,-z
-x,y,1/2-z
-x,-y,-z
x,y,1/2-z
-x,y,z
x,-y,1/2+z
1/2+x,1/2+y,z
1/2-x,1/2-y,1/2+z
1/2+x,1/2-y,-z
1/2-x,1/2+y,1/2-z
1/2-x,1/2-y,-z
1/2+x,1/2+y,1/2-z
1/2-x,1/2+y,z
1/2+x,1/2-y,1/2+z
loop_
_atom_site_type_symbol
_atom_site_label
_atom_site_fract_x
_atom_site_fract_y
_atom_site_fract_z
Si Si1 0.500000 0.439721 0.430409
Si Si2 0.220561 0.440523 0.926552
Si Si3 0.055918 0.645454 0.072814
Si Si4 0.590758 0.369779 0.430928
Si Si5 0.054987 0.760702 0.929572
Si Si6 0.873266 0.438986 0.430181
Si Si7 0.826423 0.939287 0.571773
O O1 0.500000 0.500000 0.500000
O O2 0.500000 0.445499 0.250000
O O3 0.546749 0.407382 0.488422
O O4 0.206642 0.445836 0.750000
O O5 0.272959 0.413258 0.947441
O O6 0.225411 0.500000 0.000000
O O7 0.176495 0.409911 0.012074
O O8 0.069265 0.641478 0.250000
O O9 0.000000 0.636972 0.042966
O O10 0.072750 0.704829 0.010452
O O11 0.082151 0.597326 0.981457
O O12 0.589761 0.362107 0.250000
O O13 0.587720 0.310073 0.509221
O O14 0.639727 0.397462 0.482837
O O15 0.061981 0.753622 0.750000
O O16 0.000000 0.773217 0.973216
O O17 0.878408 0.500000 0.500000
O O18 0.872768 0.443652 0.250000
O O19 0.840498 0.943387 0.750000
O O20 0.831482 0.000000 0.500000
#
# Coordination Sequence:
#
# PCOD8258514 Si02
#       7
#     8  16  16  16  16  16  16
#     4  10  22  34  46  68 100 136 173 214 265 316
#     4   9  17  31  51  74 103 136 173 214 256 309
#     4  10  21  37  57  80 108 141 175 213 255 304
#     4  11  21  34  51  72 101 138 178 220 264 315
#     4  10  20  35  55  77 101 134 177 221 261 307
#     4  11  21  34  55  82 112 142 174 210 254 309
#     4  10  20  33  50  75 104 136 175 219 267 316
#
# _framework density 17.619783000000002
#
# number of rings (size 3 to 8) (size 9 to 14) (size 15 to 20)
#    0.000    1.846    0.769    5.077    0.000    6.154 
#    0.000    0.000    0.000    0.923    0.000    0.000 
#    0.000    0.000    0.000    0.000    0.000    0.000 
#
# Total GULP energy -644781.918210 kJ/mol
# GULP energy per Si atom -12399.652273 kJ/mol
# Density = 1.757968 g / cm^3
# Si number density = 17.619783 Si / 1000 Ang^3
#
#
#
# Elastic Constant Matrix: (Units=GPa)
#
#
# Indices 1 2 3 4 5 6 
#
# 1 91.4647 53.0681 45.7567 0.0000 0.0000 0.0000
# 2 53.0681 91.4268 39.3522 0.0000 0.0000 0.0000
# 3 45.7567 39.3522 107.4558 0.0000 0.0000 0.0000
# 4 0.0000 0.0000 0.0000 32.7998 0.0000 0.0000
# 5 0.0000 0.0000 0.0000 0.0000 30.6960 0.0000
# 6 0.0000 0.0000 0.0000 0.0000 0.0000 42.0601
#
#
#
# Elastic Compliance Matrix: (Units=1/GPa)
#
#
# Indices 1 2 3 4 5 6 
#
# 1 0.018228 -0.008594 -0.004614 0.000000 0.000000 0.000000
# 2 -0.008594 0.017036 -0.002579 0.000000 0.000000 0.000000
# 3 -0.004614 -0.002579 0.012216 0.000000 0.000000 0.000000
# 4 0.000000 0.000000 0.000000 0.030488 0.000000 0.000000
# 5 0.000000 0.000000 0.000000 0.000000 0.032578 0.000000
# 6 0.000000 0.000000 0.000000 0.000000 0.000000 0.023775
#
#
# Mechanical properties :
#
#
# Convention : Reuss Voigt Hill
#
# Bulk Modulus (GPa) = 62.87765 62.96679 62.92222
# Shear Modulus (GPa) = 29.20582 31.25587 30.23085
#
# Velocity S-wave (km/s) = 4.07573 4.21635 4.14663
# Velocity P-wave (km/s) = 7.61000 7.71476 7.66256
#
# Compressibility (1/GPa) = 0.01590390
#
# Stress axis : x y z
#
# Youngs Moduli (GPa) = 54.86061 58.69782 81.86160
#
# Poissons Ratio (x) = 0.50446 0.37775
# Poissons Ratio (y) = 0.47148 0.21116
# Poissons Ratio (z) = 0.25315 0.15141
#
# Static dielectric constant tensor:
#      x y z
#    x 3.726090 0.000000 0.000000 
#    y 0.000000 2.923560 0.000000 
#    z 0.000000 0.000000 3.399450 
# 
# 
# High freq. dielectric constant tensor:
#      x y z
#    x 1.683320 0.000000 0.000000 
#    y 0.000000 1.656290 0.000000 
#    z 0.000000 0.000000 1.701470 
# 
# From -- ./inp_files/12529.got.cif
#   From: 2010.03.12/outbox.cif.g09.slc.cpg/sg63_7_cif.got.tgz:12529.got - 2010.04.10 19:34:48.
