data_PCOD8258552
_publ_section_title
;
Structure prediction by ZEFSAII (Michael W. Deem and Ramdas Pophale) SiO2 
 PCOD8258552
Probable space group: C M C M
;
_chemical_formula_sum "Si O2"
_cell_formula_units_Z 96
_cell_length_a 8.785428
_cell_length_b 20.132780
_cell_length_c 30.046050
_cell_angle_alpha 90.000000
_cell_angle_beta 90.000000
_cell_angle_gamma 90.000000
_cell_volume 5314.397772
_symmetry_space_group_name_H-M "C M C M"
_symmetry_group_IT_number 63
_symmetry_cell_setting 'orthorhombic'
loop_
_space_group_symop_operation_xyz
x,y,z
-x,-y,1/2+z
x,-y,-z
-x,y,1/2-z
-x,-y,-z
x,y,1/2-z
-x,y,z
x,-y,1/2+z
1/2+x,1/2+y,z
1/2-x,1/2-y,1/2+z
1/2+x,1/2-y,-z
1/2-x,1/2+y,1/2-z
1/2-x,1/2-y,-z
1/2+x,1/2+y,1/2-z
1/2-x,1/2+y,z
1/2+x,1/2-y,1/2+z
loop_
_atom_site_type_symbol
_atom_site_label
_atom_site_fract_x
_atom_site_fract_y
_atom_site_fract_z
Si Si1 0.318844 0.696197 0.700782
Si Si2 0.178750 0.055163 0.463935
Si Si3 0.820078 0.695783 0.468101
Si Si4 0.675950 0.453509 0.198246
Si Si5 0.321014 0.050145 0.370610
Si Si6 0.679270 0.801318 0.631963
O O1 0.256029 0.713542 0.750000
O O2 0.500000 0.700140 0.701492
O O3 0.271445 0.621561 0.687440
O O4 0.245558 0.748361 0.665913
O O5 0.257644 0.123069 0.479645
O O6 0.237895 0.029686 0.416177
O O7 0.000000 0.067460 0.461136
O O8 0.221848 0.000000 0.500000
O O9 0.750000 0.750000 0.500000
O O10 0.770503 0.715853 0.418160
O O11 0.000000 0.694406 0.473603
O O12 0.703033 0.469776 0.250000
O O13 0.500000 0.464216 0.185524
O O14 0.780021 0.501153 0.169084
O O15 0.500000 0.048755 0.380033
O O16 0.268059 0.124077 0.356054
O O17 0.500000 0.795466 0.636607
#
# Coordination Sequence:
#
# PCOD8258552 Si02
#       6
#    16  16  16  16  16  16
#     4   8  14  27  48  71  94 123 162 204 241 283
#     4  10  21  37  56  76 100 135 177 218 263 317
#     4  10  20  34  52  76 107 138 171 213 259 310
#     4   9  18  32  50  73 101 134 171 209 249 297
#     4  10  20  33  51  76 104 133 165 208 262 313
#     4   8  16  30  47  70  98 126 160 203 247 294
#
# _framework density 18.064135
#
# number of rings (size 3 to 8) (size 9 to 14) (size 15 to 20)
#    0.000    2.833    0.000    3.500    0.000    3.667 
#    0.000    5.000    0.000    5.000    0.000    0.000 
#    0.000    0.000    0.000    0.000    0.000    0.000 
#
# Total GULP energy -595096.654127 kJ/mol
# GULP energy per Si atom -12397.846961 kJ/mol
# Density = 1.802302 g / cm^3
# Si number density = 18.064135 Si / 1000 Ang^3
#
#
#
# Elastic Constant Matrix: (Units=GPa)
#
#
# Indices 1 2 3 4 5 6 
#
# 1 51.3059 42.6067 36.6390 0.0000 0.0000 0.0000
# 2 42.6067 140.1688 105.6048 0.0000 0.0000 0.0000
# 3 36.6390 105.6048 124.9497 0.0000 0.0000 0.0000
# 4 0.0000 0.0000 0.0000 42.2482 0.0000 0.0000
# 5 0.0000 0.0000 0.0000 0.0000 26.0603 0.0000
# 6 0.0000 0.0000 0.0000 0.0000 0.0000 26.9190
#
#
#
# Elastic Compliance Matrix: (Units=1/GPa)
#
#
# Indices 1 2 3 4 5 6 
#
# 1 0.026385 -0.006032 -0.002639 0.000000 0.000000 0.000000
# 2 -0.006032 0.021020 -0.015997 0.000000 0.000000 0.000000
# 3 -0.002639 -0.015997 0.022297 0.000000 0.000000 0.000000
# 4 0.000000 0.000000 0.000000 0.023670 0.000000 0.000000
# 5 0.000000 0.000000 0.000000 0.000000 0.038373 0.000000
# 6 0.000000 0.000000 0.000000 0.000000 0.000000 0.037148
#
#
# Mechanical properties :
#
#
# Convention : Reuss Voigt Hill
#
# Bulk Modulus (GPa) = 49.09988 76.23616 62.66802
# Shear Modulus (GPa) = 22.22058 27.81708 25.01883
#
# Velocity S-wave (km/s) = 3.51107 3.92842 3.72560
# Velocity P-wave (km/s) = 6.60884 7.92914 7.29891
#
# Compressibility (1/GPa) = 0.02036665
#
# Stress axis : x y z
#
# Youngs Moduli (GPa) = 37.90100 47.57345 44.84867
#
# Poissons Ratio (x) = 0.28697 0.11833
# Poissons Ratio (y) = 0.22862 0.71744
# Poissons Ratio (z) = 0.10000 0.76103
#
# Static dielectric constant tensor:
#      x y z
#    x 3.074190 0.000000 0.000000 
#    y 0.000000 3.300660 0.000000 
#    z 0.000000 0.000000 3.593470 
# 
# 
# High freq. dielectric constant tensor:
#      x y z
#    x 1.675750 0.000000 0.000000 
#    y 0.000000 1.705490 0.000000 
#    z 0.000000 0.000000 1.703950 
# 
# From -- ./inp_files/66962.got.cif
#   From: 2010.03.12/outbox.cif.g09.slc.cpg/sg63_34_cif.got.tgz:66962.got - 2010.04.10 19:34:48.
