data_PCOD8258425
_publ_section_title
;
Structure prediction by ZEFSAII (Michael W. Deem and Ramdas Pophale) SiO2 
 PCOD8258425
Probable space group: C M C M
;
_chemical_formula_sum "Si O2"
_cell_formula_units_Z 96
_cell_length_a 8.525337
_cell_length_b 24.044906
_cell_length_c 26.281287
_cell_angle_alpha 90.000000
_cell_angle_beta 90.000000
_cell_angle_gamma 90.000000
_cell_volume 5387.425379
_symmetry_space_group_name_H-M "C M C M"
_symmetry_group_IT_number 63
_symmetry_cell_setting 'orthorhombic'
loop_
_space_group_symop_operation_xyz
x,y,z
-x,-y,1/2+z
x,-y,-z
-x,y,1/2-z
-x,-y,-z
x,y,1/2-z
-x,y,z
x,-y,1/2+z
1/2+x,1/2+y,z
1/2-x,1/2-y,1/2+z
1/2+x,1/2-y,-z
1/2-x,1/2+y,1/2-z
1/2-x,1/2-y,-z
1/2+x,1/2+y,1/2-z
1/2-x,1/2+y,z
1/2+x,1/2-y,1/2+z
loop_
_atom_site_type_symbol
_atom_site_label
_atom_site_fract_x
_atom_site_fract_y
_atom_site_fract_z
Si Si1 0.315739 0.253626 0.386030
Si Si2 0.817346 0.355654 0.428488
Si Si3 0.683222 0.022392 0.946546
Si Si4 0.682576 0.912638 0.894313
Si Si5 0.184694 0.664856 0.306014
Si Si6 0.181697 0.825886 0.967272
O O1 0.500000 0.246443 0.392823
O O2 0.266583 0.318665 0.384313
O O3 0.259020 0.220727 0.335389
O O4 0.230397 0.227391 0.434683
O O5 0.744300 0.418255 0.429554
O O6 0.785498 0.326413 0.482206
O O7 0.000000 0.356871 0.415885
O O8 0.500000 0.032364 0.956031
O O9 0.714120 0.978457 0.900820
O O10 0.756108 0.000000 0.000000
O O11 0.500000 0.898367 0.904738
O O12 0.731588 0.890443 0.838296
O O13 0.786033 0.882131 0.936311
O O14 0.264450 0.662219 0.250000
O O15 0.000000 0.666894 0.299197
O O16 0.000000 0.822389 0.982263
#
# Coordination Sequence:
#
# PCOD8258425 Si02
#       6
#    16  16  16  16  16  16
#     4  10  20  33  48  68  95 123 158 199 241 285
#     4  11  20  31  47  66  96 133 166 192 228 281
#     4   9  16  28  47  68  94 130 164 189 226 277
#     4   9  16  30  50  71  95 125 161 197 234 280
#     4   8  15  29  52  76  92 112 151 203 249 285
#     4  11  20  30  45  68  98 128 161 196 235 277
#
# _framework density 17.819272000000002
#
# number of rings (size 3 to 8) (size 9 to 14) (size 15 to 20)
#    0.000    2.333    1.667    4.000    0.000    0.000 
#    0.000    2.500    0.000   13.500    0.000    2.333 
#    0.000    0.000    0.000    0.000    0.000    0.000 
#
# Total GULP energy -594902.153515 kJ/mol
# GULP energy per Si atom -12393.794865 kJ/mol
# Density = 1.777871 g / cm^3
# Si number density = 17.819272 Si / 1000 Ang^3
#
#
#
# Elastic Constant Matrix: (Units=GPa)
#
#
# Indices 1 2 3 4 5 6 
#
# 1 31.2019 18.7105 5.7878 0.0000 0.0000 0.0000
# 2 18.7105 135.8764 63.7897 0.0000 0.0000 0.0000
# 3 5.7878 63.7897 108.5125 0.0000 0.0000 0.0000
# 4 0.0000 0.0000 0.0000 13.2422 0.0000 0.0000
# 5 0.0000 0.0000 0.0000 0.0000 10.4380 0.0000
# 6 0.0000 0.0000 0.0000 0.0000 0.0000 22.4662
#
#
#
# Elastic Compliance Matrix: (Units=1/GPa)
#
#
# Indices 1 2 3 4 5 6 
#
# 1 0.035074 -0.005458 0.001338 0.000000 0.000000 0.000000
# 2 -0.005458 0.011014 -0.006184 0.000000 0.000000 0.000000
# 3 0.001338 -0.006184 0.012779 0.000000 0.000000 0.000000
# 4 0.000000 0.000000 0.000000 0.075516 0.000000 0.000000
# 5 0.000000 0.000000 0.000000 0.000000 0.095804 0.000000
# 6 0.000000 0.000000 0.000000 0.000000 0.000000 0.044511
#
#
# Mechanical properties :
#
#
# Convention : Reuss Voigt Hill
#
# Bulk Modulus (GPa) = 26.13704 50.24076 38.18890
# Shear Modulus (GPa) = 16.23063 21.71613 18.97338
#
# Velocity S-wave (km/s) = 3.02130 3.49476 3.26662
# Velocity P-wave (km/s) = 5.18369 6.67385 5.97541
#
# Compressibility (1/GPa) = 0.03825988
#
# Stress axis : x y z
#
# Youngs Moduli (GPa) = 28.51116 90.79174 78.25157
#
# Poissons Ratio (x) = 0.49552 -0.10467
# Poissons Ratio (y) = 0.15561 0.48388
# Poissons Ratio (z) = -0.03814 0.56143
#
# Static dielectric constant tensor:
#      x y z
#    x 2.991200 0.000000 0.000000 
#    y 0.000000 3.602980 0.000000 
#    z 0.000000 0.000000 3.347160 
# 
# 
# High freq. dielectric constant tensor:
#      x y z
#    x 1.660890 0.000000 0.000000 
#    y 0.000000 1.698190 0.000000 
#    z 0.000000 0.000000 1.652530 
# 
# From -- ./inp_files/67261.got.cif
#   From: 2010.03.12/outbox.cif.g09.slc.cpg/sg63_34_cif.got.tgz:67261.got - 2010.04.10 19:34:48.
