data_PCOD8258438
_publ_section_title
;
Structure prediction by ZEFSAII (Michael W. Deem and Ramdas Pophale) SiO2 
 PCOD8258438
Probable space group: C M C M
;
_chemical_formula_sum "Si O2"
_cell_formula_units_Z 80
_cell_length_a 9.061643
_cell_length_b 27.855701
_cell_length_c 18.209155
_cell_angle_alpha 90.000000
_cell_angle_beta 90.000000
_cell_angle_gamma 90.000000
_cell_volume 4596.326098
_symmetry_space_group_name_H-M "C M C M"
_symmetry_group_IT_number 63
_symmetry_cell_setting 'orthorhombic'
loop_
_space_group_symop_operation_xyz
x,y,z
-x,-y,1/2+z
x,-y,-z
-x,y,1/2-z
-x,-y,-z
x,y,1/2-z
-x,y,z
x,-y,1/2+z
1/2+x,1/2+y,z
1/2-x,1/2-y,1/2+z
1/2+x,1/2-y,-z
1/2-x,1/2+y,1/2-z
1/2-x,1/2-y,-z
1/2+x,1/2+y,1/2-z
1/2-x,1/2+y,z
1/2+x,1/2-y,1/2+z
loop_
_atom_site_type_symbol
_atom_site_label
_atom_site_fract_x
_atom_site_fract_y
_atom_site_fract_z
Si Si1 0.164862 0.979984 0.417702
Si Si2 0.830258 0.158969 0.167633
Si Si3 0.162093 0.394671 0.465279
Si Si4 0.675894 0.203211 0.032435
Si Si5 0.163977 0.566734 0.128012
O O1 0.228744 0.925693 0.414512
O O2 0.000000 0.978119 0.386044
O O3 0.164832 0.000000 0.500000
O O4 0.261473 0.014348 0.365262
O O5 0.819491 0.180246 0.250000
O O6 0.739085 0.193565 0.113719
O O7 0.764166 0.105419 0.169509
O O8 0.000000 0.156341 0.141150
O O9 0.219568 0.340366 0.477566
O O10 0.150295 0.419749 0.543533
O O11 0.000000 0.394054 0.428363
O O12 0.500000 0.208696 0.038428
O O13 0.750000 0.250000 0.000000
O O14 0.000000 0.565096 0.163249
#
# Coordination Sequence:
#
# PCOD8258438 Si02
#       5
#    16  16  16  16  16
#     4   9  15  22  36  59  86 116 147 179 216 261
#     4  10  20  33  49  70  97 127 160 200 245 295
#     4   8  15  26  39  59  87 118 150 186 230 276
#     4  10  20  33  50  71  97 128 163 207 254 299
#     4   9  16  26  41  61  88 120 151 185 225 274
#
# _framework density 17.405207000000001
#
# number of rings (size 3 to 8) (size 9 to 14) (size 15 to 20)
#    0.000    2.800    0.000    3.600    0.000    9.600 
#    0.000    0.000    0.000    0.000    0.000    1.400 
#    0.000    1.600    0.000    0.000    0.000    0.000 
#
# Total GULP energy -495799.518099 kJ/mol
# GULP energy per Si atom -12394.987952 kJ/mol
# Density = 1.736559 g / cm^3
# Si number density = 17.405207 Si / 1000 Ang^3
#
#
#
# Elastic Constant Matrix: (Units=GPa)
#
#
# Indices 1 2 3 4 5 6 
#
# 1 139.1155 71.6459 32.2223 0.0000 0.0000 0.0000
# 2 71.6459 140.5504 35.8940 0.0000 0.0000 0.0000
# 3 32.2223 35.8940 41.6843 0.0000 0.0000 0.0000
# 4 0.0000 0.0000 0.0000 11.1344 0.0000 0.0000
# 5 0.0000 0.0000 0.0000 0.0000 15.6115 0.0000
# 6 0.0000 0.0000 0.0000 0.0000 0.0000 33.0119
#
#
#
# Elastic Compliance Matrix: (Units=1/GPa)
#
#
# Indices 1 2 3 4 5 6 
#
# 1 0.010349 -0.004143 -0.004432 0.000000 0.000000 0.000000
# 2 -0.004143 0.010780 -0.006079 0.000000 0.000000 0.000000
# 3 -0.004432 -0.006079 0.032650 0.000000 0.000000 0.000000
# 4 0.000000 0.000000 0.000000 0.089812 0.000000 0.000000
# 5 0.000000 0.000000 0.000000 0.000000 0.064055 0.000000
# 6 0.000000 0.000000 0.000000 0.000000 0.000000 0.030292
#
#
# Mechanical properties :
#
#
# Convention : Reuss Voigt Hill
#
# Bulk Modulus (GPa) = 40.86675 66.76385 53.81530
# Shear Modulus (GPa) = 18.15516 24.05741 21.10629
#
# Velocity S-wave (km/s) = 3.23319 3.72182 3.48608
# Velocity P-wave (km/s) = 6.12116 7.54395 6.86949
#
# Compressibility (1/GPa) = 0.02446977
#
# Stress axis : x y z
#
# Youngs Moduli (GPa) = 96.63059 92.76805 30.62751
#
# Poissons Ratio (x) = 0.38438 0.13573
# Poissons Ratio (y) = 0.40039 0.18619
# Poissons Ratio (z) = 0.42824 0.56396
#
# Static dielectric constant tensor:
#      x y z
#    x 3.548450 0.000000 0.000000 
#    y 0.000000 3.292690 0.000000 
#    z 0.000000 0.000000 2.743440 
# 
# 
# High freq. dielectric constant tensor:
#      x y z
#    x 1.692390 0.000000 0.000000 
#    y 0.000000 1.661740 0.000000 
#    z 0.000000 0.000000 1.612890 
# 
# From -- ./inp_files/40690.got.cif
#   From: 2010.03.12/outbox.cif.g09.slc.cpg/sg63_21_cif.got.tgz:40690.got - 2010.04.10 19:34:48.
