data_PCOD8258143
_publ_section_title
;
Structure prediction by ZEFSAII (Michael W. Deem and Ramdas Pophale) SiO2 
 PCOD8258143
Probable space group: C M C M
;
_chemical_formula_sum "Si O2"
_cell_formula_units_Z 96
_cell_length_a 12.430087
_cell_length_b 18.412347
_cell_length_c 22.915626
_cell_angle_alpha 90.000000
_cell_angle_beta 90.000000
_cell_angle_gamma 90.000000
_cell_volume 5244.632296
_symmetry_space_group_name_H-M "C M C M"
_symmetry_group_IT_number 63
_symmetry_cell_setting 'orthorhombic'
loop_
_space_group_symop_operation_xyz
x,y,z
-x,-y,1/2+z
x,-y,-z
-x,y,1/2-z
-x,-y,-z
x,y,1/2-z
-x,y,z
x,-y,1/2+z
1/2+x,1/2+y,z
1/2-x,1/2-y,1/2+z
1/2+x,1/2-y,-z
1/2-x,1/2+y,1/2-z
1/2-x,1/2-y,-z
1/2+x,1/2+y,1/2-z
1/2-x,1/2+y,z
1/2+x,1/2-y,1/2+z
loop_
_atom_site_type_symbol
_atom_site_label
_atom_site_fract_x
_atom_site_fract_y
_atom_site_fract_z
Si Si1 0.000000 0.577251 0.469091
Si Si2 0.266323 0.990239 0.182935
Si Si3 0.500000 0.073715 0.684580
Si Si4 0.378757 0.396592 0.397518
Si Si5 0.733054 0.760568 0.432742
Si Si6 0.500000 0.818957 0.079382
Si Si7 0.667998 0.500000 0.000000
Si Si8 0.716194 0.101183 0.088399
O O1 0.000000 0.500000 0.500000
O O2 0.092416 0.588751 0.422735
O O3 0.000000 0.634581 0.520882
O O4 0.234811 0.001408 0.250000
O O5 0.392218 0.972590 0.174842
O O6 0.188200 0.929111 0.156408
O O7 0.244190 0.064164 0.148030
O O8 0.500000 0.106672 0.750000
O O9 0.500000 0.137145 0.638631
O O10 0.500000 0.375086 0.377938
O O11 0.312195 0.324888 0.413773
O O12 0.395003 0.455218 0.450095
O O13 0.750000 0.750000 0.500000
O O14 0.607724 0.772056 0.419442
O O15 0.760583 0.685511 0.401159
O O16 0.733501 0.435773 0.969133
#
# Coordination Sequence:
#
# PCOD8258143 Si02
#       8
#     8  16   8  16  16   8   8  16
#     4  12  20  30  61  91 125 154 195 253 310 367
#     4  10  22  43  66  87 116 156 209 260 300 351
#     4  10  20  40  68  92 116 156 212 262 297 351
#     4  11  23  38  60  89 121 162 201 247 305 363
#     4  12  24  38  57  92 130 163 195 243 309 378
#     4  12  22  40  60  88 127 168 205 245 306 375
#     4  10  19  37  56  82 122 155 204 243 292 354
#     4  11  22  36  56  92 121 157 200 248 304 362
#
# _framework density 18.304428999999999
#
# number of rings (size 3 to 8) (size 9 to 14) (size 15 to 20)
#    0.000    1.000    5.833    1.750    2.333    0.333 
#    6.000    1.667    0.000    0.000    0.000    0.000 
#    0.000    0.000    0.000    0.000    0.000    0.000 
#
# Total GULP energy -594810.117954 kJ/mol
# GULP energy per Si atom -12391.877457 kJ/mol
# Density = 1.826277 g / cm^3
# Si number density = 18.304429 Si / 1000 Ang^3
#
#
#
# Elastic Constant Matrix: (Units=GPa)
#
#
# Indices 1 2 3 4 5 6 
#
# 1 111.9006 34.3750 23.9749 0.0000 0.0000 0.0000
# 2 34.3750 125.6532 44.7390 0.0000 0.0000 0.0000
# 3 23.9749 44.7390 118.4384 0.0000 0.0000 0.0000
# 4 0.0000 0.0000 0.0000 20.9085 0.0000 0.0000
# 5 0.0000 0.0000 0.0000 0.0000 24.5418 0.0000
# 6 0.0000 0.0000 0.0000 0.0000 0.0000 -112.8798
#
#
#
# Elastic Compliance Matrix: (Units=1/GPa)
#
#
# Indices 1 2 3 4 5 6 
#
# 1 0.009886 -0.002302 -0.001132 0.000000 0.000000 0.000000
# 2 -0.002302 0.009731 -0.003210 0.000000 0.000000 0.000000
# 3 -0.001132 -0.003210 0.009885 0.000000 0.000000 0.000000
# 4 0.000000 0.000000 0.000000 0.047827 0.000000 0.000000
# 5 0.000000 0.000000 0.000000 0.000000 0.040747 0.000000
# 6 0.000000 0.000000 0.000000 0.000000 0.000000 -0.008859
#
#
# Mechanical properties :
#
#
# Convention : Reuss Voigt Hill
#
# Bulk Modulus (GPa) = 61.67004 62.46332 62.06668
# Shear Modulus (GPa) = 39.09046 3.37432 21.23239
#
# Velocity S-wave (km/s) = 4.62624 1.35921 3.40951
# Velocity P-wave (km/s) = 7.89307 6.05492 7.03430
#
# Compressibility (1/GPa) = 0.01621533
#
# Stress axis : x y z
#
# Youngs Moduli (GPa) = 101.15309 102.76512 101.16531
#
# Poissons Ratio (x) = 0.23652 0.11450
# Poissons Ratio (y) = 0.23281 0.32473
# Poissons Ratio (z) = 0.11448 0.32986
#
# Static dielectric constant tensor:
#      x y z
#    x 3.501280 0.000000 0.000000 
#    y 0.000000 2.731530 0.000000 
#    z 0.000000 0.000000 3.315420 
# 
# 
# High freq. dielectric constant tensor:
#      x y z
#    x 1.720690 0.000000 0.000000 
#    y 0.000000 1.708340 0.000000 
#    z 0.000000 0.000000 1.700950 
# 
# From -- ./inp_files/61571.got.cif
#   From: 2010.03.12/outbox.cif.g09.slc.cpg/sg63_31_cif.got.tgz:61571.got - 2010.04.10 19:34:48.
