data_PCOD8258207
_publ_section_title
;
Structure prediction by ZEFSAII (Michael W. Deem and Ramdas Pophale) SiO2 
 PCOD8258207
Probable space group: C M C M
;
_chemical_formula_sum "Si O2"
_cell_formula_units_Z 88
_cell_length_a 9.226247
_cell_length_b 23.105563
_cell_length_c 23.244195
_cell_angle_alpha 90.000000
_cell_angle_beta 90.000000
_cell_angle_gamma 90.000000
_cell_volume 4955.142432
_symmetry_space_group_name_H-M "C M C M"
_symmetry_group_IT_number 63
_symmetry_cell_setting 'orthorhombic'
loop_
_space_group_symop_operation_xyz
x,y,z
-x,-y,1/2+z
x,-y,-z
-x,y,1/2-z
-x,-y,-z
x,y,1/2-z
-x,y,z
x,-y,1/2+z
1/2+x,1/2+y,z
1/2-x,1/2-y,1/2+z
1/2+x,1/2-y,-z
1/2-x,1/2+y,1/2-z
1/2-x,1/2-y,-z
1/2+x,1/2+y,1/2-z
1/2-x,1/2+y,z
1/2+x,1/2-y,1/2+z
loop_
_atom_site_type_symbol
_atom_site_label
_atom_site_fract_x
_atom_site_fract_y
_atom_site_fract_z
Si Si1 0.663281 0.898370 0.920201
Si Si2 0.158430 0.904028 0.413284
Si Si3 0.746830 0.000000 0.500000
Si Si4 0.833398 0.190429 0.495068
Si Si5 0.333129 0.560183 0.314277
Si Si6 0.165098 0.556964 0.686786
O O1 0.500000 0.876188 0.912819
O O2 0.732493 0.905002 0.857503
O O3 0.656446 0.957669 0.957860
O O4 0.758483 0.848277 0.947172
O O5 0.178307 0.843226 0.444950
O O6 0.283208 0.901683 0.364728
O O7 0.000000 0.906620 0.384126
O O8 0.162405 0.958245 0.457796
O O9 0.750000 0.250000 0.500000
O O10 0.000000 0.201513 0.477654
O O11 0.318925 0.586652 0.250000
O O12 0.500000 0.560812 0.335099
O O13 0.277319 0.495072 0.314221
O O14 0.172492 0.587217 0.750000
O O15 0.000000 0.536427 0.674437
#
# Coordination Sequence:
#
# PCOD8258207 Si02
#       6
#    16  16   8  16  16  16
#     4  11  21  33  53  79 109 141 175 217 263 316
#     4  10  20  33  53  77 106 139 173 216 261 312
#     4  10  20  30  48  78 110 138 174 210 258 318
#     4  10  22  39  57  79 105 137 178 221 268 316
#     4  10  20  33  50  74 107 144 179 215 259 311
#     4  10  20  32  48  74 108 142 176 213 256 310
#
# _framework density 17.759326999999999
#
# number of rings (size 3 to 8) (size 9 to 14) (size 15 to 20)
#    0.000    1.818    1.818    2.727    0.000    7.273 
#    0.000    0.000    0.000    1.091    0.000    5.091 
#    0.000    0.000    0.000    0.000    0.000    0.000 
#
# Total GULP energy -545297.541404 kJ/mol
# GULP energy per Si atom -12393.125941 kJ/mol
# Density = 1.771891 g / cm^3
# Si number density = 17.759327 Si / 1000 Ang^3
#
#
#
# Elastic Constant Matrix: (Units=GPa)
#
#
# Indices 1 2 3 4 5 6 
#
# 1 144.9414 42.1761 61.7359 0.0000 0.0000 0.0000
# 2 42.1761 89.4180 32.2899 0.0000 0.0000 0.0000
# 3 61.7359 32.2899 108.5849 0.0000 0.0000 0.0000
# 4 0.0000 0.0000 0.0000 13.5580 0.0000 0.0000
# 5 0.0000 0.0000 0.0000 0.0000 25.1898 0.0000
# 6 0.0000 0.0000 0.0000 0.0000 0.0000 25.0322
#
#
#
# Elastic Compliance Matrix: (Units=1/GPa)
#
#
# Indices 1 2 3 4 5 6 
#
# 1 0.009734 -0.002905 -0.004670 0.000000 0.000000 0.000000
# 2 -0.002905 0.013396 -0.002332 0.000000 0.000000 0.000000
# 3 -0.004670 -0.002332 0.012558 0.000000 0.000000 0.000000
# 4 0.000000 0.000000 0.000000 0.073757 0.000000 0.000000
# 5 0.000000 0.000000 0.000000 0.000000 0.039699 0.000000
# 6 0.000000 0.000000 0.000000 0.000000 0.000000 0.039949
#
#
# Mechanical properties :
#
#
# Convention : Reuss Voigt Hill
#
# Bulk Modulus (GPa) = 62.99810 68.37201 65.68505
# Shear Modulus (GPa) = 23.34297 26.53884 24.94090
#
# Velocity S-wave (km/s) = 3.62941 3.86989 3.75158
# Velocity P-wave (km/s) = 7.28792 7.65185 7.47210
#
# Compressibility (1/GPa) = 0.01587350
#
# Stress axis : x y z
#
# Youngs Moduli (GPa) = 102.73409 74.65143 79.62910
#
# Poissons Ratio (x) = 0.21684 0.37190
# Poissons Ratio (y) = 0.29841 0.18570
# Poissons Ratio (z) = 0.47981 0.17409
#
# Static dielectric constant tensor:
#      x y z
#    x 3.415870 0.000000 0.000000 
#    y 0.000000 3.240000 0.000000 
#    z 0.000000 0.000000 3.686800 
# 
# 
# High freq. dielectric constant tensor:
#      x y z
#    x 1.705290 0.000000 0.000000 
#    y 0.000000 1.642150 0.000000 
#    z 0.000000 0.000000 1.693970 
# 
# From -- ./inp_files/59614.got.cif
#   From: 2010.03.12/outbox.cif.g09.slc.cpg/sg63_30_cif.got.tgz:59614.got - 2010.04.10 19:34:48.
