data_PCOD8258354
_publ_section_title
;
Structure prediction by ZEFSAII (Michael W. Deem and Ramdas Pophale) SiO2 
 PCOD8258354
Probable space group: C M C M
;
_chemical_formula_sum "Si O2"
_cell_formula_units_Z 80
_cell_length_a 9.449668
_cell_length_b 15.722134
_cell_length_c 29.294169
_cell_angle_alpha 90.000000
_cell_angle_beta 90.000000
_cell_angle_gamma 90.000000
_cell_volume 4352.203828
_symmetry_space_group_name_H-M "C M C M"
_symmetry_group_IT_number 63
_symmetry_cell_setting 'orthorhombic'
loop_
_space_group_symop_operation_xyz
x,y,z
-x,-y,1/2+z
x,-y,-z
-x,y,1/2-z
-x,-y,-z
x,y,1/2-z
-x,y,z
x,-y,1/2+z
1/2+x,1/2+y,z
1/2-x,1/2-y,1/2+z
1/2+x,1/2-y,-z
1/2-x,1/2+y,1/2-z
1/2-x,1/2-y,-z
1/2+x,1/2+y,1/2-z
1/2-x,1/2+y,z
1/2+x,1/2-y,1/2+z
loop_
_atom_site_type_symbol
_atom_site_label
_atom_site_fract_x
_atom_site_fract_y
_atom_site_fract_z
Si Si1 0.331788 0.374146 0.198157
Si Si2 0.153841 0.944042 0.544437
Si Si3 0.665462 0.788254 0.642157
Si Si4 0.161178 0.709201 0.460257
Si Si5 0.338560 0.461735 0.645149
O O1 0.277327 0.373030 0.250000
O O2 0.500000 0.375091 0.194781
O O3 0.276564 0.287849 0.174032
O O4 0.273174 0.460388 0.174475
O O5 0.292492 0.887731 0.541887
O O6 0.165965 0.994108 0.592428
O O7 0.000000 0.895453 0.544718
O O8 0.157582 0.000000 0.500000
O O9 0.500000 0.808070 0.650657
O O10 0.688603 0.753598 0.590377
O O11 0.750754 0.874822 0.652725
O O12 0.250000 0.750000 0.500000
O O13 0.000000 0.716928 0.474864
O O14 0.500000 0.442704 0.660293
#
# Coordination Sequence:
#
# PCOD8258354 Si02
#       5
#    16  16  16  16  16
#     4   9  18  33  55  80 102 133 176 215 256 309
#     4   9  18  31  50  73 100 135 172 207 251 308
#     4   9  19  35  54  75 105 139 173 214 259 310
#     4  10  20  32  49  73 103 136 173 213 257 307
#     4   9  18  33  53  76 104 135 171 213 256 305
#
# _framework density 18.381491
#
# number of rings (size 3 to 8) (size 9 to 14) (size 15 to 20)
#    0.000    2.800    0.000    0.600    2.800    2.000 
#    0.000    1.000    0.000    1.200    0.000    0.000 
#    0.000    0.000    0.000    0.000    0.000    0.000 
#
# Total GULP energy -495542.049613 kJ/mol
# GULP energy per Si atom -12388.551240 kJ/mol
# Density = 1.833965 g / cm^3
# Si number density = 18.381491 Si / 1000 Ang^3
#
#
#
# Elastic Constant Matrix: (Units=GPa)
#
#
# Indices 1 2 3 4 5 6 
#
# 1 62.1261 45.0605 52.2596 0.0000 0.0000 0.0000
# 2 45.0605 124.2517 85.1367 0.0000 0.0000 0.0000
# 3 52.2596 85.1367 148.7566 0.0000 0.0000 0.0000
# 4 0.0000 0.0000 0.0000 32.6820 0.0000 0.0000
# 5 0.0000 0.0000 0.0000 0.0000 16.3972 0.0000
# 6 0.0000 0.0000 0.0000 0.0000 0.0000 15.0668
#
#
#
# Elastic Compliance Matrix: (Units=1/GPa)
#
#
# Indices 1 2 3 4 5 6 
#
# 1 0.024554 -0.004926 -0.005807 0.000000 0.000000 0.000000
# 2 -0.004926 0.014229 -0.006413 0.000000 0.000000 0.000000
# 3 -0.005807 -0.006413 0.012433 0.000000 0.000000 0.000000
# 4 0.000000 0.000000 0.000000 0.030598 0.000000 0.000000
# 5 0.000000 0.000000 0.000000 0.000000 0.060986 0.000000
# 6 0.000000 0.000000 0.000000 0.000000 0.000000 0.066371
#
#
# Mechanical properties :
#
#
# Convention : Reuss Voigt Hill
#
# Bulk Modulus (GPa) = 59.08778 77.78310 68.43544
# Shear Modulus (GPa) = 20.07210 23.00771 21.53990
#
# Velocity S-wave (km/s) = 3.30809 3.54174 3.42691
# Velocity P-wave (km/s) = 6.84151 7.68981 7.27803
#
# Compressibility (1/GPa) = 0.01692397
#
# Stress axis : x y z
#
# Youngs Moduli (GPa) = 40.72739 70.28111 80.43345
#
# Poissons Ratio (x) = 0.34618 0.46706
# Poissons Ratio (y) = 0.20061 0.51581
# Poissons Ratio (z) = 0.23650 0.45071
#
# Static dielectric constant tensor:
#      x y z
#    x 3.417840 0.000000 0.000000 
#    y 0.000000 3.610490 0.000000 
#    z 0.000000 0.000000 5.695240 
# 
# 
# High freq. dielectric constant tensor:
#      x y z
#    x 1.692070 0.000000 0.000000 
#    y 0.000000 1.697870 0.000000 
#    z 0.000000 0.000000 1.725450 
# 
# From -- ./inp_files/66600.got.cif
#   From: 2010.03.12/outbox.cif.g09.slc.cpg/sg63_34_cif.got.tgz:66600.got - 2010.04.10 19:34:48.
