data_PCOD8258384
_publ_section_title
;
Structure prediction by ZEFSAII (Michael W. Deem and Ramdas Pophale) SiO2 
 PCOD8258384
Probable space group: C M C M
;
_chemical_formula_sum "Si O2"
_cell_formula_units_Z 88
_cell_length_a 22.729842
_cell_length_b 14.157566
_cell_length_c 14.596270
_cell_angle_alpha 90.000000
_cell_angle_beta 90.000000
_cell_angle_gamma 90.000000
_cell_volume 4697.068568
_symmetry_space_group_name_H-M "C M C M"
_symmetry_group_IT_number 63
_symmetry_cell_setting 'orthorhombic'
loop_
_space_group_symop_operation_xyz
x,y,z
-x,-y,1/2+z
x,-y,-z
-x,y,1/2-z
-x,-y,-z
x,y,1/2-z
-x,y,z
x,-y,1/2+z
1/2+x,1/2+y,z
1/2-x,1/2-y,1/2+z
1/2+x,1/2-y,-z
1/2-x,1/2+y,1/2-z
1/2-x,1/2-y,-z
1/2+x,1/2+y,1/2-z
1/2-x,1/2+y,z
1/2+x,1/2-y,1/2+z
loop_
_atom_site_type_symbol
_atom_site_label
_atom_site_fract_x
_atom_site_fract_y
_atom_site_fract_z
Si Si1 0.255751 0.844553 0.945923
Si Si2 0.676420 0.489774 0.750000
Si Si3 0.265161 0.701708 0.250000
Si Si4 0.803003 0.583520 0.750000
Si Si5 0.139077 0.579682 0.560626
Si Si6 0.870121 0.935184 0.922171
Si Si7 0.930988 0.748810 0.643477
O O1 0.273251 0.816671 0.841159
O O2 0.194154 0.898993 0.952322
O O3 0.250000 0.750000 0.000000
O O4 0.306624 0.904028 0.992134
O O5 0.682267 0.374600 0.750000
O O6 0.738192 0.541409 0.750000
O O7 0.638539 0.511394 0.660073
O O8 0.296960 0.803128 0.250000
O O9 0.836788 0.545795 0.840093
O O10 0.103831 0.500000 0.500000
O O11 0.099276 0.671149 0.578072
O O12 0.913381 0.851068 0.894290
O O13 0.899599 0.000000 0.000000
O O14 0.912605 0.734167 0.750000
O O15 0.000000 0.736489 0.632587
#
# Coordination Sequence:
#
# PCOD8258384 Si02
#       7
#    16   8   8   8  16  16  16
#     4  11  19  33  56  88 128 165 194 238 306 381
#     4  10  20  32  50  85 124 157 190 228 289 359
#     4  10  20  32  50  76 126 170 200 226 276 360
#     4  12  20  34  54  83 126 163 190 234 297 369
#     4  12  23  37  61  92 122 157 202 253 311 371
#     4  11  21  36  59  91 121 157 199 245 300 364
#     4  11  24  45  67  84 112 162 218 262 297 349
#
# _framework density 18.73509
#
# number of rings (size 3 to 8) (size 9 to 14) (size 15 to 20)
#    0.000    0.909    5.455    4.909    0.000    0.727 
#    0.000    0.000    0.000    0.000    0.000    2.545 
#    0.000    0.000    0.000    0.000    0.000    0.000 
#
# Total GULP energy -545241.453142 kJ/mol
# GULP energy per Si atom -12391.851208 kJ/mol
# Density = 1.869245 g / cm^3
# Si number density = 18.735090 Si / 1000 Ang^3
#
#
#
# Elastic Constant Matrix: (Units=GPa)
#
#
# Indices 1 2 3 4 5 6 
#
# 1 55.2889 13.0993 25.3405 0.0000 0.0000 0.0000
# 2 13.0993 69.4271 42.1424 0.0000 0.0000 0.0000
# 3 25.3405 42.1424 162.4130 0.0000 0.0000 0.0000
# 4 0.0000 0.0000 0.0000 42.1498 0.0000 0.0000
# 5 0.0000 0.0000 0.0000 0.0000 18.8690 0.0000
# 6 0.0000 0.0000 0.0000 0.0000 0.0000 10.6147
#
#
#
# Elastic Compliance Matrix: (Units=1/GPa)
#
#
# Indices 1 2 3 4 5 6 
#
# 1 0.019760 -0.002204 -0.002511 0.000000 0.000000 0.000000
# 2 -0.002204 0.017342 -0.004156 0.000000 0.000000 0.000000
# 3 -0.002511 -0.004156 0.007627 0.000000 0.000000 0.000000
# 4 0.000000 0.000000 0.000000 0.023725 0.000000 0.000000
# 5 0.000000 0.000000 0.000000 0.000000 0.052997 0.000000
# 6 0.000000 0.000000 0.000000 0.000000 0.000000 0.094209
#
#
# Mechanical properties :
#
#
# Convention : Reuss Voigt Hill
#
# Bulk Modulus (GPa) = 37.05468 49.81038 43.43253
# Shear Modulus (GPa) = 20.62719 28.09649 24.36184
#
# Velocity S-wave (km/s) = 3.32172 3.87676 3.60992
# Velocity P-wave (km/s) = 5.87647 6.83253 6.37245
#
# Compressibility (1/GPa) = 0.02698714
#
# Stress axis : x y z
#
# Youngs Moduli (GPa) = 50.60744 57.66298 131.10737
#
# Poissons Ratio (x) = 0.12709 0.32923
# Poissons Ratio (y) = 0.11154 0.54488
# Poissons Ratio (z) = 0.12708 0.23965
#
# Static dielectric constant tensor:
#      x y z
#    x 2.923700 0.000000 0.000000 
#    y 0.000000 4.042190 0.000000 
#    z 0.000000 0.000000 3.970090 
# 
# 
# High freq. dielectric constant tensor:
#      x y z
#    x 1.683350 0.000000 0.000000 
#    y 0.000000 1.730710 0.000000 
#    z 0.000000 0.000000 1.752500 
# 
# From -- ./inp_files/35247.got.cif
#   From: 2010.03.12/outbox.cif.g09.slc.cpg/sg63_18_cif.got.tgz:35247.got - 2010.04.10 19:34:48.
