data_PCOD8258502
_publ_section_title
;
Structure prediction by ZEFSAII (Michael W. Deem and Ramdas Pophale) SiO2 
 PCOD8258502
Probable space group: C M C M
;
_chemical_formula_sum "Si O2"
_cell_formula_units_Z 80
_cell_length_a 18.486553
_cell_length_b 26.976257
_cell_length_c 8.867521
_cell_angle_alpha 90.000000
_cell_angle_beta 90.000000
_cell_angle_gamma 90.000000
_cell_volume 4422.215030
_symmetry_space_group_name_H-M "C M C M"
_symmetry_group_IT_number 63
_symmetry_cell_setting 'orthorhombic'
loop_
_space_group_symop_operation_xyz
x,y,z
-x,-y,1/2+z
x,-y,-z
-x,y,1/2-z
-x,-y,-z
x,y,1/2-z
-x,y,z
x,-y,1/2+z
1/2+x,1/2+y,z
1/2-x,1/2-y,1/2+z
1/2+x,1/2-y,-z
1/2-x,1/2+y,1/2-z
1/2-x,1/2-y,-z
1/2+x,1/2+y,1/2-z
1/2-x,1/2+y,z
1/2+x,1/2-y,1/2+z
loop_
_atom_site_type_symbol
_atom_site_label
_atom_site_fract_x
_atom_site_fract_y
_atom_site_fract_z
Si Si1 0.789526 0.899956 0.424185
Si Si2 0.917926 0.356648 0.426291
Si Si3 0.346241 0.948030 0.929198
Si Si4 0.082751 0.052160 0.074296
Si Si5 0.216591 0.702943 0.921251
O O1 0.788418 0.915993 0.250000
O O2 0.733680 0.934632 0.513144
O O3 0.868728 0.906192 0.495192
O O4 0.770989 0.842514 0.444179
O O5 0.902148 0.367810 0.250000
O O6 0.903822 0.406868 0.517938
O O7 0.862980 0.313470 0.482974
O O8 0.000000 0.338771 0.453582
O O9 0.346255 0.951719 0.750000
O O10 0.371061 0.000000 0.000000
O O11 0.100459 0.048899 0.250000
O O12 0.000000 0.067032 0.044222
O O13 0.102110 0.000000 0.000000
O O14 0.208206 0.718708 0.750000
O O15 0.250000 0.750000 0.000000
#
# Coordination Sequence:
#
# PCOD8258502 Si02
#       5
#    16  16  16  16  16
#     4  10  20  35  53  74 102 135 173 215 259 305
#     4   9  19  37  57  77 104 136 171 212 257 304
#     4  11  21  33  51  76 106 139 175 211 250 300
#     4  10  20  33  50  74 104 138 174 212 257 307
#     4   9  19  35  56  79 101 130 167 210 260 308
#
# _framework density 18.090482999999999
#
# number of rings (size 3 to 8) (size 9 to 14) (size 15 to 20)
#    0.000    2.200    0.000    4.800    0.000    6.000 
#    0.000    1.000    0.000    3.600    0.000    0.000 
#    0.000    0.000    0.000    0.000    0.000    0.000 
#
# Total GULP energy -496031.664639 kJ/mol
# GULP energy per Si atom -12400.791616 kJ/mol
# Density = 1.804931 g / cm^3
# Si number density = 18.090483 Si / 1000 Ang^3
#
#
#
# Elastic Constant Matrix: (Units=GPa)
#
#
# Indices 1 2 3 4 5 6 
#
# 1 129.5930 61.4522 54.6738 0.0000 0.0000 0.0000
# 2 61.4522 105.9638 53.9458 0.0000 0.0000 0.0000
# 3 54.6738 53.9458 113.1395 0.0000 0.0000 0.0000
# 4 0.0000 0.0000 0.0000 34.5113 0.0000 0.0000
# 5 0.0000 0.0000 0.0000 0.0000 30.6596 0.0000
# 6 0.0000 0.0000 0.0000 0.0000 0.0000 20.5976
#
#
#
# Elastic Compliance Matrix: (Units=1/GPa)
#
#
# Indices 1 2 3 4 5 6 
#
# 1 0.011419 -0.005036 -0.003117 0.000000 0.000000 0.000000
# 2 -0.005036 0.014683 -0.004567 0.000000 0.000000 0.000000
# 3 -0.003117 -0.004567 0.012523 0.000000 0.000000 0.000000
# 4 0.000000 0.000000 0.000000 0.028976 0.000000 0.000000
# 5 0.000000 0.000000 0.000000 0.000000 0.032616 0.000000
# 6 0.000000 0.000000 0.000000 0.000000 0.000000 0.048549
#
#
# Mechanical properties :
#
#
# Convention : Reuss Voigt Hill
#
# Bulk Modulus (GPa) = 75.84747 76.53779 76.19263
# Shear Modulus (GPa) = 27.99516 29.06199 28.52858
#
# Velocity S-wave (km/s) = 3.93811 4.01244 3.97545
# Velocity P-wave (km/s) = 7.91808 7.99165 7.95495
#
# Compressibility (1/GPa) = 0.01318436
#
# Stress axis : x y z
#
# Youngs Moduli (GPa) = 87.56970 68.10719 79.85360
#
# Poissons Ratio (x) = 0.34295 0.24894
# Poissons Ratio (y) = 0.44096 0.36473
# Poissons Ratio (z) = 0.27299 0.31108
#
# Static dielectric constant tensor:
#      x y z
#    x 3.447230 0.000000 0.000000 
#    y 0.000000 3.169470 0.000000 
#    z 0.000000 0.000000 3.697120 
# 
# 
# High freq. dielectric constant tensor:
#      x y z
#    x 1.705030 0.000000 0.000000 
#    y 0.000000 1.682710 0.000000 
#    z 0.000000 0.000000 1.708410 
# 
# From -- ./inp_files/6433.got.cif
#   From: 2010.03.12/outbox.cif.g09.slc.cpg/sg63_4_cif.got.tgz:6433.got - 2010.04.10 19:34:48.
