data_PCOD8258527
_publ_section_title
;
Structure prediction by ZEFSAII (Michael W. Deem and Ramdas Pophale) SiO2 
 PCOD8258527
Probable space group: C M C M
;
_chemical_formula_sum "Si O2"
_cell_formula_units_Z 96
_cell_length_a 8.947920
_cell_length_b 19.992499
_cell_length_c 29.292773
_cell_angle_alpha 90.000000
_cell_angle_beta 90.000000
_cell_angle_gamma 90.000000
_cell_volume 5240.221705
_symmetry_space_group_name_H-M "C M C M"
_symmetry_group_IT_number 63
_symmetry_cell_setting 'orthorhombic'
loop_
_space_group_symop_operation_xyz
x,y,z
-x,-y,1/2+z
x,-y,-z
-x,y,1/2-z
-x,-y,-z
x,y,1/2-z
-x,y,z
x,-y,1/2+z
1/2+x,1/2+y,z
1/2-x,1/2-y,1/2+z
1/2+x,1/2-y,-z
1/2-x,1/2+y,1/2-z
1/2-x,1/2-y,-z
1/2+x,1/2+y,1/2-z
1/2-x,1/2+y,z
1/2+x,1/2-y,1/2+z
loop_
_atom_site_type_symbol
_atom_site_label
_atom_site_fract_x
_atom_site_fract_y
_atom_site_fract_z
Si Si1 0.178228 0.008537 0.126669
Si Si2 0.822207 0.887752 0.699591
Si Si3 0.677490 0.356457 0.123061
Si Si4 0.822721 0.186436 0.522586
Si Si5 0.322267 0.558459 0.030879
Si Si6 0.825037 0.737637 0.803076
O O1 0.243257 0.053456 0.167867
O O2 0.237410 0.046618 0.081805
O O3 0.000000 0.007133 0.127355
O O4 0.238422 0.932483 0.128600
O O5 0.758449 0.901574 0.750000
O O6 0.774512 0.813186 0.683599
O O7 0.000000 0.890239 0.700138
O O8 0.500000 0.356495 0.124711
O O9 0.732563 0.326205 0.074582
O O10 0.737092 0.313416 0.165066
O O11 0.750000 0.250000 0.500000
O O12 0.764522 0.127434 0.489964
O O13 0.000000 0.193104 0.521723
O O14 0.500000 0.556229 0.029809
O O15 0.255032 0.500000 0.000000
O O16 0.786551 0.723368 0.750000
O O17 0.000000 0.728007 0.811880
#
# Coordination Sequence:
#
# PCOD8258527 Si02
#       6
#    16  16  16  16  16  16
#     4   9  16  27  47  73  98 126 162 206 253 295
#     4   8  15  28  46  70  96 121 159 208 247 286
#     4  10  20  33  50  77 107 130 162 210 257 298
#     4  10  21  34  50  75 105 135 168 208 250 300
#     4   9  15  28  48  69  96 130 165 202 246 292
#     4   9  19  35  53  74 102 135 168 202 244 300
#
# _framework density 18.319835000000001
#
# number of rings (size 3 to 8) (size 9 to 14) (size 15 to 20)
#    0.000    2.833    1.667    1.000    2.333    1.667 
#    0.000    1.667    0.000    2.500    0.000    0.000 
#    0.000    0.000    0.000    0.000    0.000    0.000 
#
# Total GULP energy -594898.553868 kJ/mol
# GULP energy per Si atom -12393.719872 kJ/mol
# Density = 1.827814 g / cm^3
# Si number density = 18.319835 Si / 1000 Ang^3
#
#
#
# Elastic Constant Matrix: (Units=GPa)
#
#
# Indices 1 2 3 4 5 6 
#
# 1 11.5494 21.9030 19.1986 0.0000 0.0000 0.0000
# 2 21.9030 177.0208 104.1783 0.0000 0.0000 0.0000
# 3 19.1986 104.1783 148.9385 0.0000 0.0000 0.0000
# 4 0.0000 0.0000 0.0000 44.5755 0.0000 0.0000
# 5 0.0000 0.0000 0.0000 0.0000 20.2426 0.0000
# 6 0.0000 0.0000 0.0000 0.0000 0.0000 24.6480
#
#
#
# Elastic Compliance Matrix: (Units=1/GPa)
#
#
# Indices 1 2 3 4 5 6 
#
# 1 0.119258 -0.009703 -0.008586 0.000000 0.000000 0.000000
# 2 -0.009703 0.010391 -0.006017 0.000000 0.000000 0.000000
# 3 -0.008586 -0.006017 0.012030 0.000000 0.000000 0.000000
# 4 0.000000 0.000000 0.000000 0.022434 0.000000 0.000000
# 5 0.000000 0.000000 0.000000 0.000000 0.049401 0.000000
# 6 0.000000 0.000000 0.000000 0.000000 0.000000 0.040571
#
#
# Mechanical properties :
#
#
# Convention : Reuss Voigt Hill
#
# Bulk Modulus (GPa) = 10.74497 69.78539 40.26518
# Shear Modulus (GPa) = 14.98263 30.70848 22.84555
#
# Velocity S-wave (km/s) = 2.86289 4.09864 3.53518
# Velocity P-wave (km/s) = 4.09952 7.78292 6.22013
#
# Compressibility (1/GPa) = 0.09306677
#
# Stress axis : x y z
#
# Youngs Moduli (GPa) = 8.38515 96.23772 83.12630
#
# Poissons Ratio (x) = 0.93382 0.71369
# Poissons Ratio (y) = 0.08136 0.50020
# Poissons Ratio (z) = 0.07199 0.57910
#
# Static dielectric constant tensor:
#      x y z
#    x 2.758610 0.000000 0.000000 
#    y 0.000000 3.245600 0.000000 
#    z 0.000000 0.000000 3.679250 
# 
# 
# High freq. dielectric constant tensor:
#      x y z
#    x 1.646140 0.000000 0.000000 
#    y 0.000000 1.724370 0.000000 
#    z 0.000000 0.000000 1.724240 
# 
# From -- ./inp_files/66940.got.cif
#   From: 2010.03.12/outbox.cif.g09.slc.cpg/sg63_34_cif.got.tgz:66940.got - 2010.04.10 19:34:48.
