data_PCOD8258891
_publ_section_title
;
Structure prediction by ZEFSAII (Michael W. Deem and Ramdas Pophale) SiO2 
 PCOD8258891
Probable space group: C M C M
;
_chemical_formula_sum "Si O2"
_cell_formula_units_Z 72
_cell_length_a 16.371684
_cell_length_b 27.003880
_cell_length_c 9.034965
_cell_angle_alpha 90.000000
_cell_angle_beta 90.000000
_cell_angle_gamma 90.000000
_cell_volume 3994.348902
_symmetry_space_group_name_H-M "C M C M"
_symmetry_group_IT_number 63
_symmetry_cell_setting 'orthorhombic'
loop_
_space_group_symop_operation_xyz
x,y,z
-x,-y,1/2+z
x,-y,-z
-x,y,1/2-z
-x,-y,-z
x,y,1/2-z
-x,y,z
x,-y,1/2+z
1/2+x,1/2+y,z
1/2-x,1/2-y,1/2+z
1/2+x,1/2-y,-z
1/2-x,1/2+y,1/2-z
1/2-x,1/2-y,-z
1/2+x,1/2+y,1/2-z
1/2-x,1/2+y,z
1/2+x,1/2-y,1/2+z
loop_
_atom_site_type_symbol
_atom_site_label
_atom_site_fract_x
_atom_site_fract_y
_atom_site_fract_z
Si Si1 0.408020 0.366212 0.418344
Si Si2 0.182258 0.949863 0.574937
Si Si3 0.170197 0.399445 0.424775
Si Si4 0.256840 0.301224 0.081535
Si Si5 0.500000 0.053214 0.923011
O O1 0.397621 0.386021 0.250000
O O2 0.500000 0.348479 0.449945
O O3 0.384735 0.409062 0.532532
O O4 0.349138 0.319665 0.443661
O O5 0.187582 0.955675 0.750000
O O6 0.271356 0.936842 0.511515
O O7 0.151590 0.000000 0.500000
O O8 0.186874 0.405513 0.250000
O O9 0.192112 0.343096 0.474387
O O10 0.078020 0.413674 0.468736
O O11 0.237439 0.289643 0.250000
O O12 0.250000 0.250000 0.000000
O O13 0.500000 0.042154 0.750000
O O14 0.500000 0.000000 0.000000
#
# Coordination Sequence:
#
# PCOD8258891 Si02
#       5
#    16  16  16  16   8
#     4   9  19  37  57  76 102 136 174 216 261 308
#     4  11  21  33  52  77 106 140 176 213 258 312
#     4   9  19  36  54  75 105 142 181 221 264 317
#     4   9  18  34  55  77 103 136 173 214 264 314
#     4  10  20  34  54  78 108 142 180 222 269 318
#
# _framework density 18.025466000000002
#
# number of rings (size 3 to 8) (size 9 to 14) (size 15 to 20)
#    0.000    2.444    0.000    4.000    0.000    7.111 
#    2.000    0.000    0.000    0.000    0.000    0.000 
#    0.000    0.000    0.000    0.000    0.000    0.000 
#
# Total GULP energy -446342.290511 kJ/mol
# GULP energy per Si atom -12398.396959 kJ/mol
# Density = 1.798444 g / cm^3
# Si number density = 18.025466 Si / 1000 Ang^3
#
#
#
# Elastic Constant Matrix: (Units=GPa)
#
#
# Indices 1 2 3 4 5 6 
#
# 1 144.5277 56.4502 33.4252 0.0000 0.0000 0.0000
# 2 56.4502 121.0490 48.1796 0.0000 0.0000 0.0000
# 3 33.4252 48.1796 77.5077 0.0000 0.0000 0.0000
# 4 0.0000 0.0000 0.0000 37.3507 0.0000 0.0000
# 5 0.0000 0.0000 0.0000 0.0000 23.7477 0.0000
# 6 0.0000 0.0000 0.0000 0.0000 0.0000 15.3313
#
#
#
# Elastic Compliance Matrix: (Units=1/GPa)
#
#
# Indices 1 2 3 4 5 6 
#
# 1 0.008610 -0.003371 -0.001617 0.000000 0.000000 0.000000
# 2 -0.003371 0.012297 -0.006190 0.000000 0.000000 0.000000
# 3 -0.001617 -0.006190 0.017447 0.000000 0.000000 0.000000
# 4 0.000000 0.000000 0.000000 0.026773 0.000000 0.000000
# 5 0.000000 0.000000 0.000000 0.000000 0.042109 0.000000
# 6 0.000000 0.000000 0.000000 0.000000 0.000000 0.065226
#
#
# Mechanical properties :
#
#
# Convention : Reuss Voigt Hill
#
# Bulk Modulus (GPa) = 62.51323 68.79937 65.65630
# Shear Modulus (GPa) = 24.98093 28.95458 26.96775
#
# Velocity S-wave (km/s) = 3.72676 4.01223 3.87213
# Velocity P-wave (km/s) = 7.29891 7.72753 7.51628
#
# Compressibility (1/GPa) = 0.01599661
#
# Stress axis : x y z
#
# Youngs Moduli (GPa) = 116.14440 81.31977 57.31573
#
# Poissons Ratio (x) = 0.27417 0.09270
# Poissons Ratio (y) = 0.39158 0.35479
# Poissons Ratio (z) = 0.18784 0.50338
#
# Static dielectric constant tensor:
#      x y z
#    x 3.577450 0.000000 0.000000 
#    y 0.000000 3.291930 0.000000 
#    z 0.000000 0.000000 3.196160 
# 
# 
# High freq. dielectric constant tensor:
#      x y z
#    x 1.700170 0.000000 0.000000 
#    y 0.000000 1.692910 0.000000 
#    z 0.000000 0.000000 1.692390 
# 
# From -- ./inp_files/6120.got.cif
#   From: 2010.03.12/outbox.cif.g09.slc.cpg/sg63_4_cif.got.tgz:6120.got - 2010.04.10 19:34:48.
