data_PCOD8258982
_publ_section_title
;
Structure prediction by ZEFSAII (Michael W. Deem and Ramdas Pophale) SiO2 
 PCOD8258982
Probable space group: C M C M
;
_chemical_formula_sum "Si O2"
_cell_formula_units_Z 88
_cell_length_a 22.086408
_cell_length_b 22.812552
_cell_length_c 9.006337
_cell_angle_alpha 90.000000
_cell_angle_beta 90.000000
_cell_angle_gamma 90.000000
_cell_volume 4537.818859
_symmetry_space_group_name_H-M "C M C M"
_symmetry_group_IT_number 63
_symmetry_cell_setting 'orthorhombic'
loop_
_space_group_symop_operation_xyz
x,y,z
-x,-y,1/2+z
x,-y,-z
-x,y,1/2-z
-x,-y,-z
x,y,1/2-z
-x,y,z
x,-y,1/2+z
1/2+x,1/2+y,z
1/2-x,1/2-y,1/2+z
1/2+x,1/2-y,-z
1/2-x,1/2+y,1/2-z
1/2-x,1/2-y,-z
1/2+x,1/2+y,1/2-z
1/2-x,1/2+y,z
1/2+x,1/2-y,1/2+z
loop_
_atom_site_type_symbol
_atom_site_label
_atom_site_fract_x
_atom_site_fract_y
_atom_site_fract_z
Si Si1 0.000000 0.935182 0.571671
Si Si2 0.670892 0.861267 0.917970
Si Si3 0.738656 0.559816 0.580496
Si Si4 0.616295 0.620085 0.578255
Si Si5 0.432910 0.942325 0.924626
Si Si6 0.688808 0.267449 0.417702
O O1 0.940996 0.898697 0.520380
O O2 0.000000 0.941150 0.750000
O O3 0.000000 0.000000 0.500000
O O4 0.686760 0.880015 0.750000
O O5 0.610103 0.890630 0.977841
O O6 0.652594 0.793244 0.925396
O O7 0.728107 0.882423 0.015279
O O8 0.758202 0.500000 0.500000
O O9 0.758284 0.553285 0.750000
O O10 0.666717 0.569355 0.564495
O O11 0.595772 0.627839 0.750000
O O12 0.646450 0.680820 0.515418
O O13 0.432939 0.951247 0.750000
O O14 0.500000 0.928490 0.984743
O O15 0.406233 0.000000 0.000000
O O16 0.705551 0.286495 0.250000
O O17 0.750000 0.250000 0.500000
#
# Coordination Sequence:
#
# PCOD8258982 Si02
#       6
#     8  16  16  16  16  16
#     4  12  26  44  68  94 122 160 205 258 315 370
#     4  10  20  34  55  83 113 147 189 236 286 343
#     4  11  22  35  55  84 116 150 189 237 293 351
#     4  10  22  41  62  88 121 158 200 244 300 364
#     4   9  18  33  51  74 105 141 182 225 273 329
#     4  10  20  37  60  87 117 153 191 234 289 348
#
# _framework density 19.392576999999999
#
# number of rings (size 3 to 8) (size 9 to 14) (size 15 to 20)
#    0.000    1.818    1.818    2.455    0.000    5.818 
#    1.636    0.000    0.000    0.000    0.000    0.000 
#    0.000    0.000    0.000    0.000    0.000    0.000 
#
# Total GULP energy -545403.545018 kJ/mol
# GULP energy per Si atom -12395.535114 kJ/mol
# Density = 1.934844 g / cm^3
# Si number density = 19.392577 Si / 1000 Ang^3
#
#
#
# Elastic Constant Matrix: (Units=GPa)
#
#
# Indices 1 2 3 4 5 6 
#
# 1 103.5888 55.2335 47.7341 0.0000 0.0000 0.0000
# 2 55.2335 113.7806 41.0953 0.0000 0.0000 0.0000
# 3 47.7341 41.0953 81.9085 0.0000 0.0000 0.0000
# 4 0.0000 0.0000 0.0000 26.7595 0.0000 0.0000
# 5 0.0000 0.0000 0.0000 0.0000 29.2801 0.0000
# 6 0.0000 0.0000 0.0000 0.0000 0.0000 31.1541
#
#
#
# Elastic Compliance Matrix: (Units=1/GPa)
#
#
# Indices 1 2 3 4 5 6 
#
# 1 0.015322 -0.005145 -0.006348 0.000000 0.000000 0.000000
# 2 -0.005145 0.012462 -0.003254 0.000000 0.000000 0.000000
# 3 -0.006348 -0.003254 0.017541 0.000000 0.000000 0.000000
# 4 0.000000 0.000000 0.000000 0.037370 0.000000 0.000000
# 5 0.000000 0.000000 0.000000 0.000000 0.034153 0.000000
# 6 0.000000 0.000000 0.000000 0.000000 0.000000 0.032098
#
#
# Mechanical properties :
#
#
# Convention : Reuss Voigt Hill
#
# Bulk Modulus (GPa) = 63.16852 65.26708 64.21780
# Shear Modulus (GPa) = 27.21584 27.78640 27.50112
#
# Velocity S-wave (km/s) = 3.75028 3.78939 3.76989
# Velocity P-wave (km/s) = 7.16918 7.27150 7.22052
#
# Compressibility (1/GPa) = 0.01583067
#
# Stress axis : x y z
#
# Youngs Moduli (GPa) = 65.26523 80.24552 57.01049
#
# Poissons Ratio (x) = 0.41288 0.36189
# Poissons Ratio (y) = 0.33580 0.18550
# Poissons Ratio (z) = 0.41429 0.26111
#
# Static dielectric constant tensor:
#      x y z
#    x 3.600250 0.000000 0.000000 
#    y 0.000000 3.625680 0.000000 
#    z 0.000000 0.000000 3.501180 
# 
# 
# High freq. dielectric constant tensor:
#      x y z
#    x 1.751170 0.000000 0.000000 
#    y 0.000000 1.765340 0.000000 
#    z 0.000000 0.000000 1.745810 
# 
# From -- ./inp_files/8151.got.cif
#   From: 2010.03.12/outbox.cif.g09.slc.cpg/sg63_5_cif.got.tgz:8151.got - 2010.04.10 19:34:48.
