data_PCOD8258199
_publ_section_title
;
Structure prediction by ZEFSAII (Michael W. Deem and Ramdas Pophale) SiO2 
 PCOD8258199
Probable space group: C M C M
;
_chemical_formula_sum "Si O2"
_cell_formula_units_Z 104
_cell_length_a 20.000167
_cell_length_b 31.979451
_cell_length_c 9.060222
_cell_angle_alpha 90.000000
_cell_angle_beta 90.000000
_cell_angle_gamma 90.000000
_cell_volume 5794.866897
_symmetry_space_group_name_H-M "C M C M"
_symmetry_group_IT_number 63
_symmetry_cell_setting 'orthorhombic'
loop_
_space_group_symop_operation_xyz
x,y,z
-x,-y,1/2+z
x,-y,-z
-x,y,1/2-z
-x,-y,-z
x,y,1/2-z
-x,y,z
x,-y,1/2+z
1/2+x,1/2+y,z
1/2-x,1/2-y,1/2+z
1/2+x,1/2-y,-z
1/2-x,1/2+y,1/2-z
1/2-x,1/2-y,-z
1/2+x,1/2+y,1/2-z
1/2-x,1/2+y,z
1/2+x,1/2-y,1/2+z
loop_
_atom_site_type_symbol
_atom_site_label
_atom_site_fract_x
_atom_site_fract_y
_atom_site_fract_z
Si Si1 0.500000 0.043294 0.422313
Si Si2 0.736430 0.541330 0.923266
Si Si3 0.923858 0.731788 0.076546
Si Si4 0.812837 0.334193 0.582571
Si Si5 0.422814 0.318477 0.920791
Si Si6 0.640672 0.072727 0.416913
Si Si7 0.188353 0.132783 0.575527
O O1 0.500000 0.035515 0.250000
O O2 0.565095 0.068522 0.472302
O O3 0.500000 0.000000 0.500000
O O4 0.733316 0.534485 0.750000
O O5 0.699253 0.584247 0.970756
O O6 0.704091 0.500000 0.000000
O O7 0.812915 0.545544 0.975663
O O8 0.917359 0.740400 0.250000
O O9 0.868573 0.698265 0.023311
O O10 0.000000 0.716773 0.039289
O O11 0.906282 0.773792 0.990448
O O12 0.791753 0.323050 0.750000
O O13 0.846891 0.378646 0.573101
O O14 0.746205 0.335766 0.482941
O O15 0.402484 0.317322 0.750000
O O16 0.500000 0.330209 0.942682
O O17 0.381511 0.354290 0.003772
O O18 0.651819 0.056171 0.250000
O O19 0.185504 0.137680 0.750000
#
# Coordination Sequence:
#
# PCOD8258199 Si02
#       7
#     8  16  16  16  16  16  16
#     4  10  20  30  42  62  90 126 170 216 260 304
#     4  10  20  34  53  76 101 130 166 207 252 303
#     4   9  18  32  52  77 105 140 180 219 258 305
#     4   9  18  32  51  75 103 136 176 218 261 303
#     4  10  21  37  57  80 105 134 168 207 254 309
#     4   9  18  31  47  68  96 132 171 215 260 302
#     4  10  21  36  55  79 106 135 170 211 255 306
#
# _framework density 17.946918
#
# number of rings (size 3 to 8) (size 9 to 14) (size 15 to 20)
#    0.000    2.462    0.000    1.846    1.077    5.846 
#    0.000    0.000    0.000    0.462    0.000    0.000 
#    0.000    0.000    0.000    0.000    0.000    0.000 
#
# Total GULP energy -644700.836556 kJ/mol
# GULP energy per Si atom -12398.093011 kJ/mol
# Density = 1.790607 g / cm^3
# Si number density = 17.946918 Si / 1000 Ang^3
#
#
#
# Elastic Constant Matrix: (Units=GPa)
#
#
# Indices 1 2 3 4 5 6 
#
# 1 91.2101 57.1266 43.3857 0.0000 0.0000 0.0000
# 2 57.1266 95.3213 49.6313 0.0000 0.0000 0.0000
# 3 43.3857 49.6313 71.1213 0.0000 0.0000 0.0000
# 4 0.0000 0.0000 0.0000 29.8136 0.0000 0.0000
# 5 0.0000 0.0000 0.0000 0.0000 26.0128 0.0000
# 6 0.0000 0.0000 0.0000 0.0000 0.0000 21.9167
#
#
#
# Elastic Compliance Matrix: (Units=1/GPa)
#
#
# Indices 1 2 3 4 5 6 
#
# 1 0.018916 -0.008369 -0.005699 0.000000 0.000000 0.000000
# 2 -0.008369 0.020181 -0.008978 0.000000 0.000000 0.000000
# 3 -0.005699 -0.008978 0.023802 0.000000 0.000000 0.000000
# 4 0.000000 0.000000 0.000000 0.033542 0.000000 0.000000
# 5 0.000000 0.000000 0.000000 0.000000 0.038443 0.000000
# 6 0.000000 0.000000 0.000000 0.000000 0.000000 0.045627
#
#
# Mechanical properties :
#
#
# Convention : Reuss Voigt Hill
#
# Bulk Modulus (GPa) = 59.49746 61.99333 60.74539
# Shear Modulus (GPa) = 21.53265 22.71591 22.12428
#
# Velocity S-wave (km/s) = 3.46757 3.56157 3.51488
# Velocity P-wave (km/s) = 7.01825 7.17848 7.09882
#
# Compressibility (1/GPa) = 0.01680744
#
# Stress axis : x y z
#
# Youngs Moduli (GPa) = 52.86405 49.55137 42.01342
#
# Poissons Ratio (x) = 0.41472 0.23943
# Poissons Ratio (y) = 0.44244 0.37718
# Poissons Ratio (z) = 0.30127 0.44485
#
# Static dielectric constant tensor:
#      x y z
#    x 3.352120 0.000000 0.000000 
#    y 0.000000 3.329580 0.000000 
#    z 0.000000 0.000000 3.255980 
# 
# 
# High freq. dielectric constant tensor:
#      x y z
#    x 1.686040 0.000000 0.000000 
#    y 0.000000 1.693260 0.000000 
#    z 0.000000 0.000000 1.695780 
# 
# From -- ./inp_files/9084.got.cif
#   From: 2010.03.12/outbox.cif.g09.slc.cpg/sg63_5_cif.got.tgz:9084.got - 2010.04.10 19:34:48.
