data_PCOD8258452
_publ_section_title
;
Structure prediction by ZEFSAII (Michael W. Deem and Ramdas Pophale) SiO2 
 PCOD8258452
Probable space group: C M C M
;
_chemical_formula_sum "Si O2"
_cell_formula_units_Z 96
_cell_length_a 12.380497
_cell_length_b 20.564451
_cell_length_c 21.049848
_cell_angle_alpha 90.000000
_cell_angle_beta 90.000000
_cell_angle_gamma 90.000000
_cell_volume 5359.251809
_symmetry_space_group_name_H-M "C M C M"
_symmetry_group_IT_number 63
_symmetry_cell_setting 'orthorhombic'
loop_
_space_group_symop_operation_xyz
x,y,z
-x,-y,1/2+z
x,-y,-z
-x,y,1/2-z
-x,-y,-z
x,y,1/2-z
-x,y,z
x,-y,1/2+z
1/2+x,1/2+y,z
1/2-x,1/2-y,1/2+z
1/2+x,1/2-y,-z
1/2-x,1/2+y,1/2-z
1/2-x,1/2-y,-z
1/2+x,1/2+y,1/2-z
1/2-x,1/2+y,z
1/2+x,1/2-y,1/2+z
loop_
_atom_site_type_symbol
_atom_site_label
_atom_site_fract_x
_atom_site_fract_y
_atom_site_fract_z
Si Si1 0.733172 0.299343 0.675505
Si Si2 0.625947 0.750118 0.569804
Si Si3 0.245799 0.358479 0.493606
Si Si4 0.282875 0.565637 0.116555
Si Si5 0.500000 0.703587 0.180303
Si Si6 0.879101 0.533035 0.931807
Si Si7 0.500000 0.449965 0.679152
O O1 0.742108 0.285316 0.750000
O O2 0.819613 0.255821 0.639044
O O3 0.751560 0.376134 0.663780
O O4 0.613918 0.277626 0.647172
O O5 0.500000 0.751759 0.580518
O O6 0.658094 0.682039 0.538192
O O7 0.659856 0.810736 0.526456
O O8 0.300293 0.406018 0.545507
O O9 0.182566 0.398439 0.439399
O O10 0.186874 0.512728 0.116752
O O11 0.392418 0.529830 0.140091
O O12 0.500000 0.735462 0.250000
O O13 0.500000 0.626638 0.187124
O O14 0.000000 0.544154 0.904387
O O15 0.887321 0.500000 0.000000
O O16 0.500000 0.481916 0.750000
#
# Coordination Sequence:
#
# PCOD8258452 Si02
#       7
#    16  16  16  16   8  16   8
#     4   9  17  31  51  76 101 130 171 214 256 300
#     4  10  20  33  49  74 105 135 168 211 258 307
#     4   9  19  34  48  74 102 137 170 205 252 306
#     4   9  17  29  51  78  99 130 166 208 259 305
#     4   7  12  26  46  67  93 121 158 206 245 287
#     4   9  17  32  51  72 101 132 161 198 247 309
#     4   9  16  28  47  73 103 129 161 208 255 303
#
# _framework density 17.912949000000001
#
# number of rings (size 3 to 8) (size 9 to 14) (size 15 to 20)
#    0.000    3.000    0.000    2.000    1.167    4.333 
#   12.000    1.250    0.000    3.500    0.000    0.000 
#    0.000    0.000    0.000    0.000    0.000    0.000 
#
# Total GULP energy -594891.074678 kJ/mol
# GULP energy per Si atom -12393.564056 kJ/mol
# Density = 1.787218 g / cm^3
# Si number density = 17.912949 Si / 1000 Ang^3
#
#
#
# Elastic Constant Matrix: (Units=GPa)
#
#
# Indices 1 2 3 4 5 6 
#
# 1 165.3787 38.5470 60.2224 0.0000 0.0000 0.0000
# 2 38.5470 53.9781 27.7839 0.0000 0.0000 0.0000
# 3 60.2224 27.7839 73.3225 0.0000 0.0000 0.0000
# 4 0.0000 0.0000 0.0000 17.9062 0.0000 0.0000
# 5 0.0000 0.0000 0.0000 0.0000 25.7468 0.0000
# 6 0.0000 0.0000 0.0000 0.0000 0.0000 20.8354
#
#
#
# Elastic Compliance Matrix: (Units=1/GPa)
#
#
# Indices 1 2 3 4 5 6 
#
# 1 0.009072 -0.003284 -0.006207 0.000000 0.000000 0.000000
# 2 -0.003284 0.024204 -0.006474 0.000000 0.000000 0.000000
# 3 -0.006207 -0.006474 0.021190 0.000000 0.000000 0.000000
# 4 0.000000 0.000000 0.000000 0.055846 0.000000 0.000000
# 5 0.000000 0.000000 0.000000 0.000000 0.038840 0.000000
# 6 0.000000 0.000000 0.000000 0.000000 0.000000 0.047995
#
#
# Mechanical properties :
#
#
# Convention : Reuss Voigt Hill
#
# Bulk Modulus (GPa) = 44.37488 60.64289 52.50888
# Shear Modulus (GPa) = 21.13363 23.97276 22.55319
#
# Velocity S-wave (km/s) = 3.43854 3.66224 3.55215
# Velocity P-wave (km/s) = 6.37111 7.19794 6.79711
#
# Compressibility (1/GPa) = 0.02253527
#
# Stress axis : x y z
#
# Youngs Moduli (GPa) = 110.22325 41.31618 47.19236
#
# Poissons Ratio (x) = 0.13568 0.29293
# Poissons Ratio (y) = 0.36196 0.30554
# Poissons Ratio (z) = 0.68418 0.26749
#
# Static dielectric constant tensor:
#      x y z
#    x 3.534160 0.000000 0.000000 
#    y 0.000000 3.106020 0.000000 
#    z 0.000000 0.000000 3.171040 
# 
# 
# High freq. dielectric constant tensor:
#      x y z
#    x 1.699960 0.000000 0.000000 
#    y 0.000000 1.660750 0.000000 
#    z 0.000000 0.000000 1.669060 
# 
# From -- ./inp_files/61729.got.cif
#   From: 2010.03.12/outbox.cif.g09.slc.cpg/sg63_31_cif.got.tgz:61729.got - 2010.04.10 19:34:48.
