data_PCOD8258394
_publ_section_title
;
Structure prediction by ZEFSAII (Michael W. Deem and Ramdas Pophale) SiO2 
 PCOD8258394
Probable space group: C M C M
;
_chemical_formula_sum "Si O2"
_cell_formula_units_Z 80
_cell_length_a 20.271515
_cell_length_b 13.111634
_cell_length_c 16.673473
_cell_angle_alpha 90.000000
_cell_angle_beta 90.000000
_cell_angle_gamma 90.000000
_cell_volume 4431.687162
_symmetry_space_group_name_H-M "C M C M"
_symmetry_group_IT_number 63
_symmetry_cell_setting 'orthorhombic'
loop_
_space_group_symop_operation_xyz
x,y,z
-x,-y,1/2+z
x,-y,-z
-x,y,1/2-z
-x,-y,-z
x,y,1/2-z
-x,y,z
x,-y,1/2+z
1/2+x,1/2+y,z
1/2-x,1/2-y,1/2+z
1/2+x,1/2-y,-z
1/2-x,1/2+y,1/2-z
1/2-x,1/2-y,-z
1/2+x,1/2+y,1/2-z
1/2-x,1/2+y,z
1/2+x,1/2-y,1/2+z
loop_
_atom_site_type_symbol
_atom_site_label
_atom_site_fract_x
_atom_site_fract_y
_atom_site_fract_z
Si Si1 0.632540 0.374790 0.339176
Si Si2 0.924616 0.402611 0.947416
Si Si3 0.809901 0.340541 0.840611
Si Si4 0.073260 0.819236 0.500398
Si Si5 0.311448 0.559877 0.421202
O O1 0.599949 0.374756 0.250000
O O2 0.683796 0.281416 0.346308
O O3 0.578428 0.362100 0.409127
O O4 0.671917 0.480125 0.350902
O O5 0.876032 0.396810 0.871554
O O6 0.000000 0.409645 0.915783
O O7 0.905527 0.500000 0.000000
O O8 0.915006 0.302144 0.002133
O O9 0.798683 0.377352 0.750000
O O10 0.747400 0.367699 0.894498
O O11 0.124654 0.871606 0.559929
O O12 0.000000 0.846087 0.531173
O O13 0.288078 0.500000 0.500000
#
# Coordination Sequence:
#
# PCOD8258394 Si02
#       5
#    16  16  16  16  16
#     4   9  19  33  49  73 100 126 162 204 246 293
#     4   9  18  33  54  78 101 128 164 203 244 292
#     4  10  20  33  50  73 101 131 163 202 247 291
#     4   9  19  34  51  73 100 129 163 204 247 290
#     4  10  20  32  51  73  99 131 166 204 243 291
#
# _framework density 18.051815000000001
#
# number of rings (size 3 to 8) (size 9 to 14) (size 15 to 20)
#    0.000    2.600    0.000    1.200    0.000   13.200 
#    0.000    4.000    0.000    3.000    0.000    5.600 
#    0.000    0.000    0.000    0.000    0.000    0.000 
#
# Total GULP energy -495940.319906 kJ/mol
# GULP energy per Si atom -12398.507998 kJ/mol
# Density = 1.801073 g / cm^3
# Si number density = 18.051815 Si / 1000 Ang^3
#
#
#
# Elastic Constant Matrix: (Units=GPa)
#
#
# Indices 1 2 3 4 5 6 
#
# 1 123.7195 47.3837 57.6512 0.0000 0.0000 0.0000
# 2 47.3837 97.2067 43.8084 0.0000 0.0000 0.0000
# 3 57.6512 43.8084 84.9989 0.0000 0.0000 0.0000
# 4 0.0000 0.0000 0.0000 21.1408 0.0000 0.0000
# 5 0.0000 0.0000 0.0000 0.0000 14.0948 0.0000
# 6 0.0000 0.0000 0.0000 0.0000 0.0000 20.9422
#
#
#
# Elastic Compliance Matrix: (Units=1/GPa)
#
#
# Indices 1 2 3 4 5 6 
#
# 1 0.012433 -0.002944 -0.006915 0.000000 0.000000 0.000000
# 2 -0.002944 0.014097 -0.005269 0.000000 0.000000 0.000000
# 3 -0.006915 -0.005269 0.019171 0.000000 0.000000 0.000000
# 4 0.000000 0.000000 0.000000 0.047302 0.000000 0.000000
# 5 0.000000 0.000000 0.000000 0.000000 0.070948 0.000000
# 6 0.000000 0.000000 0.000000 0.000000 0.000000 0.047751
#
#
# Mechanical properties :
#
#
# Convention : Reuss Voigt Hill
#
# Bulk Modulus (GPa) = 64.74856 67.06797 65.90827
# Shear Modulus (GPa) = 20.23430 21.70767 20.97098
#
# Velocity S-wave (km/s) = 3.35162 3.47150 3.41208
# Velocity P-wave (km/s) = 7.13609 7.30083 7.21893
#
# Compressibility (1/GPa) = 0.01544436
#
# Stress axis : x y z
#
# Youngs Moduli (GPa) = 80.43320 70.93782 52.16269
#
# Poissons Ratio (x) = 0.20883 0.36072
# Poissons Ratio (y) = 0.23678 0.27484
# Poissons Ratio (z) = 0.55622 0.37376
#
# Static dielectric constant tensor:
#      x y z
#    x 3.221400 0.000000 0.000000 
#    y 0.000000 3.502850 0.000000 
#    z 0.000000 0.000000 3.255350 
# 
# 
# High freq. dielectric constant tensor:
#      x y z
#    x 1.692640 0.000000 0.000000 
#    y 0.000000 1.709780 0.000000 
#    z 0.000000 0.000000 1.681680 
# 
# From -- ./inp_files/45408.got.cif
#   From: 2010.03.12/outbox.cif.g09.slc.cpg/sg63_23_cif.got.tgz:45408.got - 2010.04.10 19:34:48.
