data_PCOD8258367
_publ_section_title
;
Structure prediction by ZEFSAII (Michael W. Deem and Ramdas Pophale) SiO2 
 PCOD8258367
Probable space group: C M C M
;
_chemical_formula_sum "Si O2"
_cell_formula_units_Z 80
_cell_length_a 18.107433
_cell_length_b 27.301309
_cell_length_c 8.970569
_cell_angle_alpha 90.000000
_cell_angle_beta 90.000000
_cell_angle_gamma 90.000000
_cell_volume 4434.660202
_symmetry_space_group_name_H-M "C M C M"
_symmetry_group_IT_number 63
_symmetry_cell_setting 'orthorhombic'
loop_
_space_group_symop_operation_xyz
x,y,z
-x,-y,1/2+z
x,-y,-z
-x,y,1/2-z
-x,-y,-z
x,y,1/2-z
-x,y,z
x,-y,1/2+z
1/2+x,1/2+y,z
1/2-x,1/2-y,1/2+z
1/2+x,1/2-y,-z
1/2-x,1/2+y,1/2-z
1/2-x,1/2-y,-z
1/2+x,1/2+y,1/2-z
1/2-x,1/2+y,z
1/2+x,1/2-y,1/2+z
loop_
_atom_site_type_symbol
_atom_site_label
_atom_site_fract_x
_atom_site_fract_y
_atom_site_fract_z
Si Si1 0.417638 0.288625 0.426211
Si Si2 0.709519 0.358473 0.423677
Si Si3 0.859032 0.305921 0.080717
Si Si4 0.723405 0.950103 0.573818
Si Si5 0.416697 0.089232 0.921971
O O1 0.419575 0.287842 0.250000
O O2 0.500000 0.295990 0.492281
O O3 0.366512 0.333762 0.479404
O O4 0.383876 0.237229 0.474354
O O5 0.707709 0.373344 0.250000
O O6 0.774114 0.319143 0.452357
O O7 0.722794 0.406956 0.519683
O O8 0.869595 0.288292 0.250000
O O9 0.909638 0.353004 0.046557
O O10 0.727344 0.954473 0.750000
O O11 0.638672 0.941023 0.525497
O O12 0.752389 0.000000 0.500000
O O13 0.395674 0.078628 0.750000
O O14 0.500000 0.072582 0.958541
#
# Coordination Sequence:
#
# PCOD8258367 Si02
#       5
#    16  16  16  16  16
#     4  10  20  32  49  75 105 135 166 205 252 297
#     4   9  19  36  53  71 100 134 169 208 249 296
#     4   9  17  30  49  72 101 139 174 202 237 284
#     4  11  22  36  55  76  97 125 165 210 256 303
#     4   9  18  33  51  73 105 141 173 206 245 288
#
# _framework density 18.039712999999999
#
# number of rings (size 3 to 8) (size 9 to 14) (size 15 to 20)
#    0.000    2.400    0.000    4.200    0.000    6.000 
#    0.000    0.000    0.000    0.600    0.000    0.000 
#    0.000    0.000    0.000    0.000    0.000    0.000 
#
# Total GULP energy -496035.124569 kJ/mol
# GULP energy per Si atom -12400.878114 kJ/mol
# Density = 1.799865 g / cm^3
# Si number density = 18.039713 Si / 1000 Ang^3
#
#
#
# Elastic Constant Matrix: (Units=GPa)
#
#
# Indices 1 2 3 4 5 6 
#
# 1 90.0847 54.4574 34.3343 0.0000 0.0000 0.0000
# 2 54.4574 106.7088 48.7238 0.0000 0.0000 0.0000
# 3 34.3343 48.7238 73.9394 0.0000 0.0000 0.0000
# 4 0.0000 0.0000 0.0000 33.2028 0.0000 0.0000
# 5 0.0000 0.0000 0.0000 0.0000 19.6420 0.0000
# 6 0.0000 0.0000 0.0000 0.0000 0.0000 10.4341
#
#
#
# Elastic Compliance Matrix: (Units=1/GPa)
#
#
# Indices 1 2 3 4 5 6 
#
# 1 0.016513 -0.007046 -0.003025 0.000000 0.000000 0.000000
# 2 -0.007046 0.016411 -0.007543 0.000000 0.000000 0.000000
# 3 -0.003025 -0.007543 0.019899 0.000000 0.000000 0.000000
# 4 0.000000 0.000000 0.000000 0.030118 0.000000 0.000000
# 5 0.000000 0.000000 0.000000 0.000000 0.050911 0.000000
# 6 0.000000 0.000000 0.000000 0.000000 0.000000 0.095840
#
#
# Mechanical properties :
#
#
# Convention : Reuss Voigt Hill
#
# Bulk Modulus (GPa) = 56.82851 60.64044 58.73447
# Shear Modulus (GPa) = 18.46484 21.53693 20.00088
#
# Velocity S-wave (km/s) = 3.20279 3.45898 3.33335
# Velocity P-wave (km/s) = 6.72662 7.04561 6.88796
#
# Compressibility (1/GPa) = 0.01759680
#
# Stress axis : x y z
#
# Youngs Moduli (GPa) = 60.55866 60.93437 50.25258
#
# Poissons Ratio (x) = 0.42934 0.15200
# Poissons Ratio (y) = 0.42670 0.37903
# Poissons Ratio (z) = 0.18318 0.45960
#
# Static dielectric constant tensor:
#      x y z
#    x 3.577150 0.000000 0.000000 
#    y 0.000000 3.239000 0.000000 
#    z 0.000000 0.000000 3.191420 
# 
# 
# High freq. dielectric constant tensor:
#      x y z
#    x 1.689480 0.000000 0.000000 
#    y 0.000000 1.691950 0.000000 
#    z 0.000000 0.000000 1.690440 
# 
# From -- ./inp_files/6389.got.cif
#   From: 2010.03.12/outbox.cif.g09.slc.cpg/sg63_4_cif.got.tgz:6389.got - 2010.04.10 19:34:48.
