data_PCOD8258088
_publ_section_title
;
Structure prediction by ZEFSAII (Michael W. Deem and Ramdas Pophale) SiO2 
 PCOD8258088
Probable space group: C M C M
;
_chemical_formula_sum "Si O2"
_cell_formula_units_Z 96
_cell_length_a 8.974166
_cell_length_b 30.168778
_cell_length_c 19.161931
_cell_angle_alpha 90.000000
_cell_angle_beta 90.000000
_cell_angle_gamma 90.000000
_cell_volume 5187.893952
_symmetry_space_group_name_H-M "C M C M"
_symmetry_group_IT_number 63
_symmetry_cell_setting 'orthorhombic'
loop_
_space_group_symop_operation_xyz
x,y,z
-x,-y,1/2+z
x,-y,-z
-x,y,1/2-z
-x,-y,-z
x,y,1/2-z
-x,y,z
x,-y,1/2+z
1/2+x,1/2+y,z
1/2-x,1/2-y,1/2+z
1/2+x,1/2-y,-z
1/2-x,1/2+y,1/2-z
1/2-x,1/2-y,-z
1/2+x,1/2+y,1/2-z
1/2-x,1/2+y,z
1/2+x,1/2-y,1/2+z
loop_
_atom_site_type_symbol
_atom_site_label
_atom_site_fract_x
_atom_site_fract_y
_atom_site_fract_z
Si Si1 0.676479 0.864959 0.594686
Si Si2 0.172210 0.786171 0.668932
Si Si3 0.677058 0.185999 0.672730
Si Si4 0.676897 0.882738 0.060472
Si Si5 0.826756 0.517313 0.922852
Si Si6 0.827669 0.054022 0.331327
O O1 0.500000 0.868733 0.596520
O O2 0.725691 0.817125 0.621699
O O3 0.738575 0.871317 0.516275
O O4 0.740626 0.902829 0.643911
O O5 0.197993 0.797328 0.750000
O O6 0.222761 0.735969 0.652419
O O7 0.000000 0.793760 0.649286
O O8 0.739022 0.174162 0.750000
O O9 0.500000 0.182709 0.674319
O O10 0.745065 0.151915 0.616344
O O11 0.500000 0.879419 0.059332
O O12 0.726309 0.931913 0.082462
O O13 0.730302 0.490069 0.868322
O O14 0.000000 0.511688 0.903911
O O15 0.794568 0.500000 0.000000
O O16 0.799167 0.047649 0.250000
O O17 0.000000 0.060954 0.349045
#
# Coordination Sequence:
#
# PCOD8258088 Si02
#       6
#    16  16  16  16  16  16
#     4  11  21  34  53  79 110 141 175 220 271 323
#     4   9  18  33  52  75 105 139 177 221 264 312
#     4   8  15  30  52  76 103 138 178 218 262 314
#     4   9  18  32  52  79 109 138 173 219 266 318
#     4  10  19  36  58  81 110 142 177 222 273 322
#     4  11  24  39  55  79 110 143 183 227 267 318
#
# _framework density 18.504619000000002
#
# number of rings (size 3 to 8) (size 9 to 14) (size 15 to 20)
#    0.000    2.333    1.667    2.500    0.000    5.333 
#    0.000    1.667    0.000    2.000    0.000    0.000 
#    0.000    0.000    0.000    0.000    0.000    0.000 
#
# Total GULP energy -595235.654884 kJ/mol
# GULP energy per Si atom -12400.742810 kJ/mol
# Density = 1.846250 g / cm^3
# Si number density = 18.504619 Si / 1000 Ang^3
#
#
#
# Elastic Constant Matrix: (Units=GPa)
#
#
# Indices 1 2 3 4 5 6 
#
# 1 53.3408 39.4540 48.1804 0.0000 0.0000 0.0000
# 2 39.4540 149.5039 75.9018 0.0000 0.0000 0.0000
# 3 48.1804 75.9018 103.1407 0.0000 0.0000 0.0000
# 4 0.0000 0.0000 0.0000 40.6528 0.0000 0.0000
# 5 0.0000 0.0000 0.0000 0.0000 22.6347 0.0000
# 6 0.0000 0.0000 0.0000 0.0000 0.0000 18.2042
#
#
#
# Elastic Compliance Matrix: (Units=1/GPa)
#
#
# Indices 1 2 3 4 5 6 
#
# 1 0.032612 -0.001392 -0.014210 0.000000 0.000000 0.000000
# 2 -0.001392 0.010738 -0.007252 0.000000 0.000000 0.000000
# 3 -0.014210 -0.007252 0.021670 0.000000 0.000000 0.000000
# 4 0.000000 0.000000 0.000000 0.024599 0.000000 0.000000
# 5 0.000000 0.000000 0.000000 0.000000 0.044180 0.000000
# 6 0.000000 0.000000 0.000000 0.000000 0.000000 0.054932
#
#
# Mechanical properties :
#
#
# Convention : Reuss Voigt Hill
#
# Bulk Modulus (GPa) = 51.77941 70.33975 61.05958
# Shear Modulus (GPa) = 20.75762 25.79494 23.27628
#
# Velocity S-wave (km/s) = 3.35289 3.73765 3.55048
# Velocity P-wave (km/s) = 6.55986 7.53135 7.06233
#
# Compressibility (1/GPa) = 0.01931270
#
# Stress axis : x y z
#
# Youngs Moduli (GPa) = 30.66343 93.12892 46.14704
#
# Poissons Ratio (x) = 0.12965 0.65573
# Poissons Ratio (y) = 0.04269 0.33464
# Poissons Ratio (z) = 0.43572 0.67534
#
# Static dielectric constant tensor:
#      x y z
#    x 3.069980 0.000000 0.000000 
#    y 0.000000 3.606990 0.000000 
#    z 0.000000 0.000000 3.637940 
# 
# 
# High freq. dielectric constant tensor:
#      x y z
#    x 1.683020 0.000000 0.000000 
#    y 0.000000 1.731880 0.000000 
#    z 0.000000 0.000000 1.723360 
# 
# From -- ./inp_files/51394.got.cif
#   From: 2010.03.12/outbox.cif.g09.slc.cpg/sg63_26_cif.got.tgz:51394.got - 2010.04.10 19:34:48.
