data_PCOD8258619
_publ_section_title
;
Structure prediction by ZEFSAII (Michael W. Deem and Ramdas Pophale) SiO2 
 PCOD8258619
Probable space group: C M C M
;
_chemical_formula_sum "Si O2"
_cell_formula_units_Z 96
_cell_length_a 24.907504
_cell_length_b 12.176810
_cell_length_c 17.842391
_cell_angle_alpha 90.000000
_cell_angle_beta 90.000000
_cell_angle_gamma 90.000000
_cell_volume 5411.489133
_symmetry_space_group_name_H-M "C M C M"
_symmetry_group_IT_number 63
_symmetry_cell_setting 'orthorhombic'
loop_
_space_group_symop_operation_xyz
x,y,z
-x,-y,1/2+z
x,-y,-z
-x,y,1/2-z
-x,-y,-z
x,y,1/2-z
-x,y,z
x,-y,1/2+z
1/2+x,1/2+y,z
1/2-x,1/2-y,1/2+z
1/2+x,1/2-y,-z
1/2-x,1/2+y,1/2-z
1/2-x,1/2-y,-z
1/2+x,1/2+y,1/2-z
1/2-x,1/2+y,z
1/2+x,1/2-y,1/2+z
loop_
_atom_site_type_symbol
_atom_site_label
_atom_site_fract_x
_atom_site_fract_y
_atom_site_fract_z
Si Si1 0.650278 0.612531 0.661650
Si Si2 0.437589 0.517785 0.414409
Si Si3 0.751805 0.490971 0.412071
Si Si4 0.850681 0.582460 0.835268
Si Si5 0.821693 0.351212 0.665143
Si Si6 0.561386 0.744587 0.162649
O O1 0.657522 0.602007 0.750000
O O2 0.592220 0.569381 0.637943
O O3 0.694587 0.539144 0.621236
O O4 0.653947 0.738617 0.633330
O O5 0.419536 0.500000 0.500000
O O6 0.500000 0.493485 0.403430
O O7 0.423084 0.640585 0.387930
O O8 0.747552 0.500000 0.500000
O O9 0.796953 0.400569 0.386143
O O10 0.768821 0.611419 0.381056
O O11 0.835905 0.614966 0.750000
O O12 0.865505 0.451509 0.839701
O O13 0.900480 0.655212 0.863762
O O14 0.802748 0.332380 0.750000
O O15 0.570091 0.715062 0.250000
O O16 0.500000 0.780931 0.148274
#
# Coordination Sequence:
#
# PCOD8258619 Si02
#       6
#    16  16  16  16  16  16
#     4  11  21  35  56  77 104 143 180 220 266 316
#     4  10  22  38  54  78 111 140 171 220 273 319
#     4  10  20  33  52  80 110 142 176 217 262 319
#     4   8  16  34  52  74 109 140 172 221 268 305
#     4   8  18  35  50  73 111 142 174 218 261 311
#     4   9  17  32  58  84 104 135 184 232 265 307
#
# _framework density 17.740034000000001
#
# number of rings (size 3 to 8) (size 9 to 14) (size 15 to 20)
#    1.000    1.667    0.000    2.000    0.000    4.333 
#    0.000    2.500    0.000    3.500    0.000    0.000 
#    0.000    0.000    0.000    0.000    0.000    0.000 
#
# Total GULP energy -594799.495242 kJ/mol
# GULP energy per Si atom -12391.656151 kJ/mol
# Density = 1.769966 g / cm^3
# Si number density = 17.740034 Si / 1000 Ang^3
#
#
#
# Elastic Constant Matrix: (Units=GPa)
#
#
# Indices 1 2 3 4 5 6 
#
# 1 80.7161 54.0289 43.2108 0.0000 0.0000 0.0000
# 2 54.0289 107.3527 49.7606 0.0000 0.0000 0.0000
# 3 43.2108 49.7606 94.0428 0.0000 0.0000 0.0000
# 4 0.0000 0.0000 0.0000 16.3940 0.0000 0.0000
# 5 0.0000 0.0000 0.0000 0.0000 26.5708 0.0000
# 6 0.0000 0.0000 0.0000 0.0000 0.0000 29.4780
#
#
#
# Elastic Compliance Matrix: (Units=1/GPa)
#
#
# Indices 1 2 3 4 5 6 
#
# 1 0.020461 -0.007870 -0.005237 0.000000 0.000000 0.000000
# 2 -0.007870 0.015369 -0.004516 0.000000 0.000000 0.000000
# 3 -0.005237 -0.004516 0.015429 0.000000 0.000000 0.000000
# 4 0.000000 0.000000 0.000000 0.060998 0.000000 0.000000
# 5 0.000000 0.000000 0.000000 0.000000 0.037635 0.000000
# 6 0.000000 0.000000 0.000000 0.000000 0.000000 0.033924
#
#
# Mechanical properties :
#
#
# Convention : Reuss Voigt Hill
#
# Bulk Modulus (GPa) = 62.44973 64.01247 63.23110
# Shear Modulus (GPa) = 22.28163 23.49600 22.88882
#
# Velocity S-wave (km/s) = 3.54787 3.64326 3.59588
# Velocity P-wave (km/s) = 7.21542 7.33892 7.27743
#
# Compressibility (1/GPa) = 0.01601288
#
# Stress axis : x y z
#
# Youngs Moduli (GPa) = 48.87430 65.06473 64.81126
#
# Poissons Ratio (x) = 0.51206 0.33942
# Poissons Ratio (y) = 0.38464 0.29270
# Poissons Ratio (z) = 0.25596 0.29385
#
# Static dielectric constant tensor:
#      x y z
#    x 3.148550 0.000000 0.000000 
#    y 0.000000 3.352800 0.000000 
#    z 0.000000 0.000000 3.232510 
# 
# 
# High freq. dielectric constant tensor:
#      x y z
#    x 1.670830 0.000000 0.000000 
#    y 0.000000 1.680980 0.000000 
#    z 0.000000 0.000000 1.683890 
# 
# From -- ./inp_files/57511.got.cif
#   From: 2010.03.12/outbox.cif.g09.slc.cpg/sg63_29_cif.got.tgz:57511.got - 2010.04.10 19:34:48.
