data_PCOD8258631
_publ_section_title
;
Structure prediction by ZEFSAII (Michael W. Deem and Ramdas Pophale) SiO2 
 PCOD8258631
Probable space group: C M C M
;
_chemical_formula_sum "Si O2"
_cell_formula_units_Z 96
_cell_length_a 7.686969
_cell_length_b 24.998473
_cell_length_c 26.647427
_cell_angle_alpha 90.000000
_cell_angle_beta 90.000000
_cell_angle_gamma 90.000000
_cell_volume 5120.635844
_symmetry_space_group_name_H-M "C M C M"
_symmetry_group_IT_number 63
_symmetry_cell_setting 'orthorhombic'
loop_
_space_group_symop_operation_xyz
x,y,z
-x,-y,1/2+z
x,-y,-z
-x,y,1/2-z
-x,-y,-z
x,y,1/2-z
-x,y,z
x,-y,1/2+z
1/2+x,1/2+y,z
1/2-x,1/2-y,1/2+z
1/2+x,1/2-y,-z
1/2-x,1/2+y,1/2-z
1/2-x,1/2-y,-z
1/2+x,1/2+y,1/2-z
1/2-x,1/2+y,z
1/2+x,1/2-y,1/2+z
loop_
_atom_site_type_symbol
_atom_site_label
_atom_site_fract_x
_atom_site_fract_y
_atom_site_fract_z
Si Si1 0.000000 0.017913 0.808261
Si Si2 0.701376 0.082498 0.548793
Si Si3 0.500000 0.356097 0.308181
Si Si4 0.203038 0.320119 0.121559
Si Si5 0.196699 0.489004 0.621845
Si Si6 0.297155 0.724569 0.052692
Si Si7 0.802892 0.106613 0.059228
O O1 0.000000 0.080966 0.818204
O O2 0.000000 0.003816 0.750000
O O3 0.825876 0.991686 0.831069
O O4 0.500000 0.077404 0.535178
O O5 0.741997 0.136105 0.579293
O O6 0.805105 0.083282 0.497011
O O7 0.763938 0.031742 0.580920
O O8 0.500000 0.341829 0.250000
O O9 0.675602 0.330623 0.330750
O O10 0.258749 0.263110 0.098212
O O11 0.000000 0.321662 0.137994
O O12 0.195090 0.430536 0.596996
O O13 0.000000 0.502839 0.639719
O O14 0.500000 0.715884 0.053264
O O15 0.213185 0.665665 0.059654
O O16 0.250000 0.750000 0.000000
O O17 0.000000 0.107901 0.078994
#
# Coordination Sequence:
#
# PCOD8258631 Si02
#       7
#     8  16   8  16  16  16  16
#     4  11  24  42  64  90 116 142 192 258 308 353
#     4  10  20  33  52  83 123 159 192 229 283 346
#     4  11  24  40  65  93 113 149 199 248 308 354
#     4  10  21  38  58  85 124 158 191 240 292 349
#     4  11  23  40  59  84 119 158 197 237 295 359
#     4  10  21  34  53  85 122 161 196 236 286 342
#     4  11  22  33  55  87 121 163 203 235 280 348
#
# _framework density 18.747671
#
# number of rings (size 3 to 8) (size 9 to 14) (size 15 to 20)
#    0.000    1.500    4.167    1.000    3.500    3.333 
#    0.000    1.667    0.000    1.000    0.000    0.000 
#    0.000    0.000    0.000    0.000    0.000    0.000 
#
# Total GULP energy -595274.811654 kJ/mol
# GULP energy per Si atom -12401.558576 kJ/mol
# Density = 1.870500 g / cm^3
# Si number density = 18.747671 Si / 1000 Ang^3
#
#
#
# Elastic Constant Matrix: (Units=GPa)
#
#
# Indices 1 2 3 4 5 6 
#
# 1 83.8020 28.1546 54.6484 0.0000 0.0000 0.0000
# 2 28.1546 125.9168 56.6397 0.0000 0.0000 0.0000
# 3 54.6484 56.6397 118.8468 0.0000 0.0000 0.0000
# 4 0.0000 0.0000 0.0000 21.9379 0.0000 0.0000
# 5 0.0000 0.0000 0.0000 0.0000 22.8145 0.0000
# 6 0.0000 0.0000 0.0000 0.0000 0.0000 21.5626
#
#
#
# Elastic Compliance Matrix: (Units=1/GPa)
#
#
# Indices 1 2 3 4 5 6 
#
# 1 0.017057 -0.000364 -0.007670 0.000000 0.000000 0.000000
# 2 -0.000364 0.010117 -0.004654 0.000000 0.000000 0.000000
# 3 -0.007670 -0.004654 0.014159 0.000000 0.000000 0.000000
# 4 0.000000 0.000000 0.000000 0.045583 0.000000 0.000000
# 5 0.000000 0.000000 0.000000 0.000000 0.043832 0.000000
# 6 0.000000 0.000000 0.000000 0.000000 0.000000 0.046377
#
#
# Mechanical properties :
#
#
# Convention : Reuss Voigt Hill
#
# Bulk Modulus (GPa) = 62.66823 67.49455 65.08139
# Shear Modulus (GPa) = 24.05958 25.87120 24.96539
#
# Velocity S-wave (km/s) = 3.58626 3.71882 3.65314
# Velocity P-wave (km/s) = 7.11675 7.38372 7.25146
#
# Compressibility (1/GPa) = 0.01595705
#
# Stress axis : x y z
#
# Youngs Moduli (GPa) = 58.62844 98.84771 70.62741
#
# Poissons Ratio (x) = 0.03597 0.54168
# Poissons Ratio (y) = 0.02133 0.32870
# Poissons Ratio (z) = 0.44965 0.46004
#
# Static dielectric constant tensor:
#      x y z
#    x 3.468620 0.000000 0.000000 
#    y 0.000000 3.783700 0.000000 
#    z 0.000000 0.000000 3.140800 
# 
# 
# High freq. dielectric constant tensor:
#      x y z
#    x 1.734780 0.000000 0.000000 
#    y 0.000000 1.735230 0.000000 
#    z 0.000000 0.000000 1.693160 
# 
# From -- ./inp_files/60060.got.cif
#   From: 2010.03.12/outbox.cif.g09.slc.cpg/sg63_31_cif.got.tgz:60060.got - 2010.04.10 19:34:48.
