data_PCOD8258935
_publ_section_title
;
Structure prediction by ZEFSAII (Michael W. Deem and Ramdas Pophale) SiO2 
 PCOD8258935
Probable space group: C M C M
;
_chemical_formula_sum "Si O2"
_cell_formula_units_Z 104
_cell_length_a 20.168267
_cell_length_b 29.503229
_cell_length_c 8.876389
_cell_angle_alpha 90.000000
_cell_angle_beta 90.000000
_cell_angle_gamma 90.000000
_cell_volume 5281.708869
_symmetry_space_group_name_H-M "C M C M"
_symmetry_group_IT_number 63
_symmetry_cell_setting 'orthorhombic'
loop_
_space_group_symop_operation_xyz
x,y,z
-x,-y,1/2+z
x,-y,-z
-x,y,1/2-z
-x,-y,-z
x,y,1/2-z
-x,y,z
x,-y,1/2+z
1/2+x,1/2+y,z
1/2-x,1/2-y,1/2+z
1/2+x,1/2-y,-z
1/2-x,1/2+y,1/2-z
1/2-x,1/2-y,-z
1/2+x,1/2+y,1/2-z
1/2-x,1/2+y,z
1/2+x,1/2-y,1/2+z
loop_
_atom_site_type_symbol
_atom_site_label
_atom_site_fract_x
_atom_site_fract_y
_atom_site_fract_z
Si Si1 0.325796 0.706842 0.927808
Si Si2 0.117145 0.954275 0.923771
Si Si3 0.728931 0.953388 0.573250
Si Si4 0.073846 0.867038 0.421345
Si Si5 0.621807 0.104644 0.927696
Si Si6 0.324416 0.799334 0.426251
Si Si7 0.500000 0.949259 0.930384
O O1 0.331732 0.709892 0.750000
O O2 0.375213 0.668873 0.992882
O O3 0.251701 0.693218 0.980859
O O4 0.351346 0.754745 0.991977
O O5 0.103020 0.959823 0.750000
O O6 0.194148 0.945557 0.959031
O O7 0.074828 0.913012 0.985316
O O8 0.091682 0.000000 0.000000
O O9 0.711476 0.953160 0.750000
O O10 0.691803 0.914037 0.484190
O O11 0.703856 0.000000 0.500000
O O12 0.094106 0.878225 0.250000
O O13 0.000000 0.846496 0.430519
O O14 0.612061 0.096312 0.750000
O O15 0.627143 0.158363 0.964660
O O16 0.563471 0.079575 0.017263
O O17 0.324334 0.790041 0.250000
O O18 0.500000 0.953748 0.750000
O O19 0.500000 0.000000 0.000000
#
# Coordination Sequence:
#
# PCOD8258935 Si02
#       7
#    16  16  16  16  16  16   8
#     4   9  18  35  58  84 114 147 185 230 280 337
#     4  10  21  36  56  82 112 146 186 233 279 329
#     4  10  20  34  54  82 112 143 183 230 281 333
#     4  10  21  37  56  79 110 148 187 228 277 333
#     4  11  22  38  59  84 115 151 190 234 287 344
#     4   9  19  35  58  85 112 144 182 230 286 336
#     4  12  26  44  62  82 114 156 200 244 293 350
#
# _framework density 19.690597
#
# number of rings (size 3 to 8) (size 9 to 14) (size 15 to 20)
#    0.000    2.000    0.000    3.462    0.000    5.538 
#    1.385    3.077    0.000    0.000    0.000    0.000 
#    0.000    0.000    0.000    0.000    0.000    0.000 
#
# Total GULP energy -644833.654488 kJ/mol
# GULP energy per Si atom -12400.647202 kJ/mol
# Density = 1.964578 g / cm^3
# Si number density = 19.690597 Si / 1000 Ang^3
#
#
#
# Elastic Constant Matrix: (Units=GPa)
#
#
# Indices 1 2 3 4 5 6 
#
# 1 70.9032 56.3680 34.1425 0.0000 0.0000 0.0000
# 2 56.3680 142.8002 48.9645 0.0000 0.0000 0.0000
# 3 34.1425 48.9645 75.3145 0.0000 0.0000 0.0000
# 4 0.0000 0.0000 0.0000 37.1228 0.0000 0.0000
# 5 0.0000 0.0000 0.0000 0.0000 25.5653 0.0000
# 6 0.0000 0.0000 0.0000 0.0000 0.0000 29.7389
#
#
#
# Elastic Compliance Matrix: (Units=1/GPa)
#
#
# Indices 1 2 3 4 5 6 
#
# 1 0.022270 -0.006858 -0.005637 0.000000 0.000000 0.000000
# 2 -0.006858 0.011124 -0.004123 0.000000 0.000000 0.000000
# 3 -0.005637 -0.004123 0.018514 0.000000 0.000000 0.000000
# 4 0.000000 0.000000 0.000000 0.026938 0.000000 0.000000
# 5 0.000000 0.000000 0.000000 0.000000 0.039115 0.000000
# 6 0.000000 0.000000 0.000000 0.000000 0.000000 0.033626
#
#
# Mechanical properties :
#
#
# Convention : Reuss Voigt Hill
#
# Bulk Modulus (GPa) = 53.55799 63.10755 58.33277
# Shear Modulus (GPa) = 26.17162 28.45492 27.31327
#
# Velocity S-wave (km/s) = 3.64970 3.80557 3.72845
# Velocity P-wave (km/s) = 6.70964 7.17140 6.94436
#
# Compressibility (1/GPa) = 0.01867135
#
# Stress axis : x y z
#
# Youngs Moduli (GPa) = 44.90274 89.89971 54.01414
#
# Poissons Ratio (x) = 0.61652 0.30450
# Poissons Ratio (y) = 0.30794 0.22269
# Poissons Ratio (z) = 0.25313 0.37064
#
# Static dielectric constant tensor:
#      x y z
#    x 3.562420 0.000000 0.000000 
#    y 0.000000 3.711310 0.000000 
#    z 0.000000 0.000000 3.521780 
# 
# 
# High freq. dielectric constant tensor:
#      x y z
#    x 1.760250 0.000000 0.000000 
#    y 0.000000 1.773600 0.000000 
#    z 0.000000 0.000000 1.767670 
# 
# From -- ./inp_files/8721.got.cif
#   From: 2010.03.12/outbox.cif.g09.slc.cpg/sg63_5_cif.got.tgz:8721.got - 2010.04.10 19:34:48.
