data_PCOD8258228
_publ_section_title
;
Structure prediction by ZEFSAII (Michael W. Deem and Ramdas Pophale) SiO2 
 PCOD8258228
Probable space group: C M C M
;
_chemical_formula_sum "Si O2"
_cell_formula_units_Z 104
_cell_length_a 28.955461
_cell_length_b 21.434119
_cell_length_c 9.235450
_cell_angle_alpha 90.000000
_cell_angle_beta 90.000000
_cell_angle_gamma 90.000000
_cell_volume 5731.841634
_symmetry_space_group_name_H-M "C M C M"
_symmetry_group_IT_number 63
_symmetry_cell_setting 'orthorhombic'
loop_
_space_group_symop_operation_xyz
x,y,z
-x,-y,1/2+z
x,-y,-z
-x,y,1/2-z
-x,-y,-z
x,y,1/2-z
-x,y,z
x,-y,1/2+z
1/2+x,1/2+y,z
1/2-x,1/2-y,1/2+z
1/2+x,1/2-y,-z
1/2-x,1/2+y,1/2-z
1/2-x,1/2-y,-z
1/2+x,1/2+y,1/2-z
1/2-x,1/2+y,z
1/2+x,1/2-y,1/2+z
loop_
_atom_site_type_symbol
_atom_site_label
_atom_site_fract_x
_atom_site_fract_y
_atom_site_fract_z
Si Si1 0.385684 0.762221 0.093820
Si Si2 0.554951 0.442516 0.911169
Si Si3 0.000000 0.435387 0.578538
Si Si4 0.215827 0.297314 0.419362
Si Si5 0.188703 0.563139 0.578155
Si Si6 0.412847 0.098488 0.907844
Si Si7 0.552919 0.322569 0.417483
O O1 0.391853 0.726837 0.250000
O O2 0.332691 0.764399 0.047647
O O3 0.403364 0.830492 0.120957
O O4 0.415057 0.734095 0.963188
O O5 0.575687 0.443319 0.750000
O O6 0.500000 0.446965 0.906612
O O7 0.576032 0.500000 0.000000
O O8 0.571179 0.380914 0.992132
O O9 0.000000 0.500000 0.500000
O O10 0.047105 0.403075 0.527293
O O11 0.000000 0.439163 0.750000
O O12 0.227775 0.296807 0.250000
O O13 0.250000 0.250000 0.500000
O O14 0.214291 0.371236 0.470597
O O15 0.208804 0.500000 0.500000
O O16 0.194743 0.555454 0.750000
O O17 0.134339 0.566351 0.536168
O O18 0.427705 0.069421 0.750000
O O19 0.559010 0.338147 0.250000
O O20 0.500000 0.306113 0.454544
#
# Coordination Sequence:
#
# PCOD8258228 Si02
#       7
#    16  16   8  16  16  16  16
#     4   9  19  35  53  73 100 134 170 208 256 311
#     4   9  16  27  44  65  90 123 164 206 251 301
#     4  12  24  34  46  66  96 134 177 218 255 296
#     4   9  19  36  57  82 108 135 170 215 265 320
#     4   9  18  33  54  80 108 135 172 217 261 313
#     4   9  19  35  51  69  97 135 175 216 259 304
#     4  10  20  31  45  70 103 134 169 213 254 299
#
# _framework density 18.144255999999999
#
# number of rings (size 3 to 8) (size 9 to 14) (size 15 to 20)
#    0.000    2.615    0.000    3.923    1.077    6.462 
#    0.000    3.077    0.000    0.923    0.000    2.154 
#    0.000    0.000    0.000    0.000    0.000    0.000 
#
# Total GULP energy -644181.602699 kJ/mol
# GULP energy per Si atom -12388.107744 kJ/mol
# Density = 1.810296 g / cm^3
# Si number density = 18.144256 Si / 1000 Ang^3
#
#
#
# Elastic Constant Matrix: (Units=GPa)
#
#
# Indices 1 2 3 4 5 6 
#
# 1 74.0200 44.6388 45.3208 0.0000 0.0000 0.0000
# 2 44.6388 93.0433 48.6834 0.0000 0.0000 0.0000
# 3 45.3208 48.6834 103.3307 0.0000 0.0000 0.0000
# 4 0.0000 0.0000 0.0000 33.4499 0.0000 0.0000
# 5 0.0000 0.0000 0.0000 0.0000 66.6426 0.0000
# 6 0.0000 0.0000 0.0000 0.0000 0.0000 22.4867
#
#
#
# Elastic Compliance Matrix: (Units=1/GPa)
#
#
# Indices 1 2 3 4 5 6 
#
# 1 0.021548 -0.007157 -0.006079 0.000000 0.000000 0.000000
# 2 -0.007157 0.016641 -0.004701 0.000000 0.000000 0.000000
# 3 -0.006079 -0.004701 0.014559 0.000000 0.000000 0.000000
# 4 0.000000 0.000000 0.000000 0.029895 0.000000 0.000000
# 5 0.000000 0.000000 0.000000 0.000000 0.015005 0.000000
# 6 0.000000 0.000000 0.000000 0.000000 0.000000 0.044471
#
#
# Mechanical properties :
#
#
# Convention : Reuss Voigt Hill
#
# Bulk Modulus (GPa) = 59.26489 60.85334 60.05912
# Shear Modulus (GPa) = 27.23025 33.29925 30.26475
#
# Velocity S-wave (km/s) = 3.87817 4.28863 4.08856
# Velocity P-wave (km/s) = 7.26551 7.62460 7.44722
#
# Compressibility (1/GPa) = 0.01687340
#
# Stress axis : x y z
#
# Youngs Moduli (GPa) = 46.40765 60.09119 68.68686
#
# Poissons Ratio (x) = 0.43009 0.41754
# Poissons Ratio (y) = 0.33216 0.32291
# Poissons Ratio (z) = 0.28211 0.28250
#
# Static dielectric constant tensor:
#      x y z
#    x 2.999180 0.000000 0.000000 
#    y 0.000000 3.508190 0.000000 
#    z 0.000000 0.000000 3.354190 
# 
# 
# High freq. dielectric constant tensor:
#      x y z
#    x 1.663700 0.000000 0.000000 
#    y 0.000000 1.707360 0.000000 
#    z 0.000000 0.000000 1.707750 
# 
# From -- ./inp_files/12496.got.cif
#   From: 2010.03.12/outbox.cif.g09.slc.cpg/sg63_7_cif.got.tgz:12496.got - 2010.04.10 19:34:48.
