data_PCOD8258091
_publ_section_title
;
Structure prediction by ZEFSAII (Michael W. Deem and Ramdas Pophale) SiO2 
 PCOD8258091
Probable space group: C M C M
;
_chemical_formula_sum "Si O2"
_cell_formula_units_Z 64
_cell_length_a 12.689863
_cell_length_b 12.981290
_cell_length_c 18.042585
_cell_angle_alpha 90.000000
_cell_angle_beta 90.000000
_cell_angle_gamma 90.000000
_cell_volume 2972.169311
_symmetry_space_group_name_H-M "C M C M"
_symmetry_group_IT_number 63
_symmetry_cell_setting 'orthorhombic'
loop_
_space_group_symop_operation_xyz
x,y,z
-x,-y,1/2+z
x,-y,-z
-x,y,1/2-z
-x,-y,-z
x,y,1/2-z
-x,y,z
x,-y,1/2+z
1/2+x,1/2+y,z
1/2-x,1/2-y,1/2+z
1/2+x,1/2-y,-z
1/2-x,1/2+y,1/2-z
1/2-x,1/2-y,-z
1/2+x,1/2+y,1/2-z
1/2-x,1/2+y,z
1/2+x,1/2-y,1/2+z
loop_
_atom_site_type_symbol
_atom_site_label
_atom_site_fract_x
_atom_site_fract_y
_atom_site_fract_z
Si Si1 0.693621 0.808821 0.334754
Si Si2 0.687995 0.387420 0.919409
Si Si3 0.880536 0.533210 0.164871
Si Si4 0.380037 0.608838 0.583706
O O1 0.686657 0.776142 0.250000
O O2 0.642525 0.715335 0.381318
O O3 0.628149 0.911610 0.352220
O O4 0.817200 0.827140 0.354477
O O5 0.808278 0.402712 0.891682
O O6 0.619346 0.487082 0.896327
O O7 0.683593 0.372599 0.007531
O O8 0.845407 0.554227 0.250000
O O9 0.000000 0.568528 0.151440
O O10 0.500000 0.648092 0.578808
#
# Coordination Sequence:
#
# PCOD8258091 Si02
#       4
#    16  16  16  16
#     4  10  21  37  57  82 112 146 186 231 279 332
#     4  10  19  36  58  82 112 149 187 226 277 331
#     4   9  19  35  54  80 113 146 186 235 280 327
#     4  10  22  39  58  84 116 147 185 232 278 329
#
# _framework density 21.533093999999998
#
# number of rings (size 3 to 8) (size 9 to 14) (size 15 to 20)
#    0.000    2.250    0.000    3.000    0.000    4.500 
#    0.000   10.000    0.000    6.750    0.000    0.000 
#    0.000    0.000    0.000    0.000    0.000    0.000 
#
# Total GULP energy -396796.160795 kJ/mol
# GULP energy per Si atom -12399.880025 kJ/mol
# Density = 2.148408 g / cm^3
# Si number density = 21.533094 Si / 1000 Ang^3
#
#
#
# Elastic Constant Matrix: (Units=GPa)
#
#
# Indices 1 2 3 4 5 6 
#
# 1 92.3170 -25.2469 12.8788 0.0000 0.0000 0.0000
# 2 -25.2469 32.2644 -8.4934 0.0000 0.0000 0.0000
# 3 12.8788 -8.4934 33.4624 0.0000 0.0000 0.0000
# 4 0.0000 0.0000 0.0000 33.3101 0.0000 0.0000
# 5 0.0000 0.0000 0.0000 0.0000 28.7828 0.0000
# 6 0.0000 0.0000 0.0000 0.0000 0.0000 10.1336
#
#
#
# Elastic Compliance Matrix: (Units=1/GPa)
#
#
# Indices 1 2 3 4 5 6 
#
# 1 0.014022 0.010235 -0.002799 0.000000 0.000000 0.000000
# 2 0.010235 0.040684 0.006387 0.000000 0.000000 0.000000
# 3 -0.002799 0.006387 0.032583 0.000000 0.000000 0.000000
# 4 0.000000 0.000000 0.000000 0.030021 0.000000 0.000000
# 5 0.000000 0.000000 0.000000 0.000000 0.034743 0.000000
# 6 0.000000 0.000000 0.000000 0.000000 0.000000 0.098681
#
#
# Mechanical properties :
#
#
# Convention : Reuss Voigt Hill
#
# Bulk Modulus (GPa) = 8.70044 12.92453 10.81249
# Shear Modulus (GPa) = 19.12787 26.37233 22.75010
#
# Velocity S-wave (km/s) = 2.98367 3.50342 3.25394
# Velocity P-wave (km/s) = 3.98986 4.73080 4.37604
#
# Compressibility (1/GPa) = 0.11493667
#
# Stress axis : x y z
#
# Youngs Moduli (GPa) = 71.31730 24.57943 30.69117
#
# Poissons Ratio (x) = -0.25158 0.08590
# Poissons Ratio (y) = -0.72996 -0.19603
# Poissons Ratio (z) = 0.19960 -0.15699
#
# Static dielectric constant tensor:
#      x y z
#    x 3.599560 0.000000 0.000000 
#    y 0.000000 3.938060 0.000000 
#    z 0.000000 0.000000 3.807360 
# 
# 
# High freq. dielectric constant tensor:
#      x y z
#    x 1.824960 0.000000 0.000000 
#    y 0.000000 1.852280 0.000000 
#    z 0.000000 0.000000 1.838080 
# 
# From -- ./inp_files/41492.got.cif
#   From: 2010.03.12/outbox.cif.g09.slc.cpg/sg63_21_cif.got.tgz:41492.got - 2010.04.10 19:34:48.
