data_PCOD8258271
_publ_section_title
;
Structure prediction by ZEFSAII (Michael W. Deem and Ramdas Pophale) SiO2 
 PCOD8258271
Probable space group: C M C M
;
_chemical_formula_sum "Si O2"
_cell_formula_units_Z 80
_cell_length_a 19.224743
_cell_length_b 24.474698
_cell_length_c 9.002249
_cell_angle_alpha 90.000000
_cell_angle_beta 90.000000
_cell_angle_gamma 90.000000
_cell_volume 4235.736210
_symmetry_space_group_name_H-M "C M C M"
_symmetry_group_IT_number 63
_symmetry_cell_setting 'orthorhombic'
loop_
_space_group_symop_operation_xyz
x,y,z
-x,-y,1/2+z
x,-y,-z
-x,y,1/2-z
-x,-y,-z
x,y,1/2-z
-x,y,z
x,-y,1/2+z
1/2+x,1/2+y,z
1/2-x,1/2-y,1/2+z
1/2+x,1/2-y,-z
1/2-x,1/2+y,1/2-z
1/2-x,1/2-y,-z
1/2+x,1/2+y,1/2-z
1/2-x,1/2+y,z
1/2+x,1/2-y,1/2+z
loop_
_atom_site_type_symbol
_atom_site_label
_atom_site_fract_x
_atom_site_fract_y
_atom_site_fract_z
Si Si1 0.500000 0.254427 0.914483
Si Si2 0.641559 0.260017 0.079466
Si Si3 0.762185 0.445711 0.418081
Si Si4 0.500000 0.380898 0.589060
Si Si5 0.752730 0.835174 0.579588
Si Si6 0.901741 0.948224 0.085328
O O1 0.500000 0.225955 0.750000
O O2 0.500000 0.317723 0.887837
O O3 0.569984 0.239630 0.004230
O O4 0.627278 0.276641 0.250000
O O5 0.692298 0.208844 0.068020
O O6 0.677712 0.312417 0.000889
O O7 0.792782 0.500000 0.500000
O O8 0.792418 0.443241 0.250000
O O9 0.779114 0.389931 0.505396
O O10 0.680130 0.449934 0.414037
O O11 0.500000 0.410005 0.750000
O O12 0.569912 0.395217 0.499122
O O13 0.772742 0.847882 0.750000
O O14 0.932191 0.948132 0.250000
O O15 0.933140 0.000000 0.000000
#
# Coordination Sequence:
#
# PCOD8258271 Si02
#       6
#     8  16  16   8  16  16
#     4  11  23  36  52  75 102 133 170 214 261 310
#     4  10  21  36  55  78 106 140 176 217 264 314
#     4  10  20  33  51  74 100 131 167 210 258 307
#     4  11  22  32  43  61  88 123 161 202 245 288
#     4  10  20  35  55  79 107 139 176 217 262 313
#     4  10  20  32  45  62  87 122 162 202 243 286
#
# _framework density 18.886917
#
# number of rings (size 3 to 8) (size 9 to 14) (size 15 to 20)
#    0.000    1.800    0.000    4.500    0.000    9.600 
#    0.000    0.000    0.000    0.000    0.000    0.700 
#    0.000    0.000    0.000    0.000    0.000    0.000 
#
# Total GULP energy -495838.825885 kJ/mol
# GULP energy per Si atom -12395.970647 kJ/mol
# Density = 1.884393 g / cm^3
# Si number density = 18.886917 Si / 1000 Ang^3
#
#
#
# Elastic Constant Matrix: (Units=GPa)
#
#
# Indices 1 2 3 4 5 6 
#
# 1 57.1753 -3.4437 29.2110 0.0000 0.0000 0.0000
# 2 -3.4437 77.6387 40.9019 0.0000 0.0000 0.0000
# 3 29.2110 40.9019 178.7243 0.0000 0.0000 0.0000
# 4 0.0000 0.0000 0.0000 33.0728 0.0000 0.0000
# 5 0.0000 0.0000 0.0000 0.0000 29.1237 0.0000
# 6 0.0000 0.0000 0.0000 0.0000 0.0000 17.9116
#
#
#
# Elastic Compliance Matrix: (Units=1/GPa)
#
#
# Indices 1 2 3 4 5 6 
#
# 1 0.019647 0.002915 -0.003878 0.000000 0.000000 0.000000
# 2 0.002915 0.015078 -0.003927 0.000000 0.000000 0.000000
# 3 -0.003878 -0.003927 0.007128 0.000000 0.000000 0.000000
# 4 0.000000 0.000000 0.000000 0.030236 0.000000 0.000000
# 5 0.000000 0.000000 0.000000 0.000000 0.034336 0.000000
# 6 0.000000 0.000000 0.000000 0.000000 0.000000 0.055830
#
#
# Mechanical properties :
#
#
# Convention : Reuss Voigt Hill
#
# Bulk Modulus (GPa) = 31.18012 49.65296 40.41654
# Shear Modulus (GPa) = 27.36316 32.47956 29.92136
#
# Velocity S-wave (km/s) = 3.81043 4.15141 3.98457
# Velocity P-wave (km/s) = 5.99198 7.02322 6.52799
#
# Compressibility (1/GPa) = 0.03207172
#
# Stress axis : x y z
#
# Youngs Moduli (GPa) = 50.89845 66.32024 140.29579
#
# Poissons Ratio (x) = -0.19329 0.54409
# Poissons Ratio (y) = -0.14835 0.55096
# Poissons Ratio (z) = 0.19739 0.26045
#
# Static dielectric constant tensor:
#      x y z
#    x 3.145080 0.000000 0.000000 
#    y 0.000000 3.457370 0.000000 
#    z 0.000000 0.000000 4.098090 
# 
# 
# High freq. dielectric constant tensor:
#      x y z
#    x 1.696750 0.000000 0.000000 
#    y 0.000000 1.724700 0.000000 
#    z 0.000000 0.000000 1.759160 
# 
# From -- ./inp_files/6474.got.cif
#   From: 2010.03.12/outbox.cif.g09.slc.cpg/sg63_4_cif.got.tgz:6474.got - 2010.04.10 19:34:48.
