data_PCOD8258608
_publ_section_title
;
Structure prediction by ZEFSAII (Michael W. Deem and Ramdas Pophale) SiO2 
 PCOD8258608
Probable space group: C M C M
;
_chemical_formula_sum "Si O2"
_cell_formula_units_Z 96
_cell_length_a 9.046991
_cell_length_b 23.571078
_cell_length_c 24.760914
_cell_angle_alpha 90.000000
_cell_angle_beta 90.000000
_cell_angle_gamma 90.000000
_cell_volume 5280.198812
_symmetry_space_group_name_H-M "C M C M"
_symmetry_group_IT_number 63
_symmetry_cell_setting 'orthorhombic'
loop_
_space_group_symop_operation_xyz
x,y,z
-x,-y,1/2+z
x,-y,-z
-x,y,1/2-z
-x,-y,-z
x,y,1/2-z
-x,y,z
x,-y,1/2+z
1/2+x,1/2+y,z
1/2-x,1/2-y,1/2+z
1/2+x,1/2-y,-z
1/2-x,1/2+y,1/2-z
1/2-x,1/2-y,-z
1/2+x,1/2+y,1/2-z
1/2-x,1/2+y,z
1/2+x,1/2-y,1/2+z
loop_
_atom_site_type_symbol
_atom_site_label
_atom_site_fract_x
_atom_site_fract_y
_atom_site_fract_z
Si Si1 0.669677 0.433642 0.995302
Si Si2 0.328131 0.557321 0.187251
Si Si3 0.672065 0.941576 0.312487
Si Si4 0.172327 0.251462 0.942826
Si Si5 0.672233 0.632195 0.603261
Si Si6 0.173794 0.372290 0.600604
O O1 0.500000 0.419300 0.980544
O O2 0.715325 0.404700 0.051239
O O3 0.696209 0.500000 0.000000
O O4 0.775532 0.410750 0.949034
O O5 0.299350 0.569141 0.250000
O O6 0.500000 0.553310 0.173017
O O7 0.254988 0.498442 0.168632
O O8 0.255367 0.609068 0.155157
O O9 0.704095 0.928610 0.250000
O O10 0.500000 0.950198 0.324041
O O11 0.733195 0.888555 0.345952
O O12 0.217453 0.197268 0.907140
O O13 0.218861 0.307207 0.909819
O O14 0.000000 0.250681 0.955689
O O15 0.250000 0.250000 0.000000
O O16 0.500000 0.625806 0.617237
O O17 0.000000 0.379626 0.608543
#
# Coordination Sequence:
#
# PCOD8258608 Si02
#       6
#    16  16  16  16  16  16
#     4  10  20  33  52  79 110 144 182 226 276 331
#     4  10  21  38  60  83 109 146 187 225 275 337
#     4  10  21  37  58  85 115 145 180 228 283 331
#     4  10  21  37  56  80 110 150 191 228 275 327
#     4  10  20  35  55  80 112 149 189 227 271 330
#     4  11  22  35  55  83 112 143 185 232 279 327
#
# _framework density 18.181134
#
# number of rings (size 3 to 8) (size 9 to 14) (size 15 to 20)
#    0.000    1.833    1.667    2.500    0.000    5.667 
#    0.000    0.833    0.000    5.000    0.000    0.000 
#    0.000    0.000    0.000    0.000    0.000    0.000 
#
# Total GULP energy -595461.095671 kJ/mol
# GULP energy per Si atom -12405.439493 kJ/mol
# Density = 1.813975 g / cm^3
# Si number density = 18.181134 Si / 1000 Ang^3
#
#
#
# Elastic Constant Matrix: (Units=GPa)
#
#
# Indices 1 2 3 4 5 6 
#
# 1 89.1515 59.0202 59.0042 0.0000 0.0000 0.0000
# 2 59.0202 139.5889 71.4310 0.0000 0.0000 0.0000
# 3 59.0042 71.4310 100.0307 0.0000 0.0000 0.0000
# 4 0.0000 0.0000 0.0000 17.2533 0.0000 0.0000
# 5 0.0000 0.0000 0.0000 0.0000 35.2119 0.0000
# 6 0.0000 0.0000 0.0000 0.0000 0.0000 16.1048
#
#
#
# Elastic Compliance Matrix: (Units=1/GPa)
#
#
# Indices 1 2 3 4 5 6 
#
# 1 0.019559 -0.003728 -0.008874 0.000000 0.000000 0.000000
# 2 -0.003728 0.012000 -0.006370 0.000000 0.000000 0.000000
# 3 -0.008874 -0.006370 0.019780 0.000000 0.000000 0.000000
# 4 0.000000 0.000000 0.000000 0.057960 0.000000 0.000000
# 5 0.000000 0.000000 0.000000 0.000000 0.028400 0.000000
# 6 0.000000 0.000000 0.000000 0.000000 0.000000 0.062093
#
#
# Mechanical properties :
#
#
# Convention : Reuss Voigt Hill
#
# Bulk Modulus (GPa) = 74.66318 78.63132 76.64725
# Shear Modulus (GPa) = 20.64400 23.00171 21.82286
#
# Velocity S-wave (km/s) = 3.37332 3.56074 3.46830
# Velocity P-wave (km/s) = 7.50519 7.76195 7.63465
#
# Compressibility (1/GPa) = 0.01339348
#
# Stress axis : x y z
#
# Youngs Moduli (GPa) = 51.12834 83.33423 50.55563
#
# Poissons Ratio (x) = 0.31070 0.44865
# Poissons Ratio (y) = 0.19063 0.32203
# Poissons Ratio (z) = 0.45374 0.53082
#
# Static dielectric constant tensor:
#      x y z
#    x 3.394550 0.000000 0.000000 
#    y 0.000000 3.515150 0.000000 
#    z 0.000000 0.000000 3.300970 
# 
# 
# High freq. dielectric constant tensor:
#      x y z
#    x 1.709850 0.000000 0.000000 
#    y 0.000000 1.709170 0.000000 
#    z 0.000000 0.000000 1.702590 
# 
# From -- ./inp_files/51328.got.cif
#   From: 2010.03.12/outbox.cif.g09.slc.cpg/sg63_26_cif.got.tgz:51328.got - 2010.04.10 19:34:48.
