data_PCOD8258333
_publ_section_title
;
Structure prediction by ZEFSAII (Michael W. Deem and Ramdas Pophale) SiO2 
 PCOD8258333
Probable space group: C M C M
;
_chemical_formula_sum "Si O2"
_cell_formula_units_Z 104
_cell_length_a 28.907107
_cell_length_b 21.692237
_cell_length_c 8.739551
_cell_angle_alpha 90.000000
_cell_angle_beta 90.000000
_cell_angle_gamma 90.000000
_cell_volume 5480.221242
_symmetry_space_group_name_H-M "C M C M"
_symmetry_group_IT_number 63
_symmetry_cell_setting 'orthorhombic'
loop_
_space_group_symop_operation_xyz
x,y,z
-x,-y,1/2+z
x,-y,-z
-x,y,1/2-z
-x,-y,-z
x,y,1/2-z
-x,y,z
x,-y,1/2+z
1/2+x,1/2+y,z
1/2-x,1/2-y,1/2+z
1/2+x,1/2-y,-z
1/2-x,1/2+y,1/2-z
1/2-x,1/2-y,-z
1/2+x,1/2+y,1/2-z
1/2-x,1/2+y,z
1/2+x,1/2-y,1/2+z
loop_
_atom_site_type_symbol
_atom_site_label
_atom_site_fract_x
_atom_site_fract_y
_atom_site_fract_z
Si Si1 0.385019 0.722351 0.420733
Si Si2 0.500000 0.564674 0.426224
Si Si3 0.908665 0.105456 0.923065
Si Si4 0.307974 0.433936 0.067900
Si Si5 0.281222 0.697170 0.423714
Si Si6 0.052966 0.316242 0.574331
Si Si7 0.446360 0.941651 0.081434
O O1 0.399083 0.698943 0.250000
O O2 0.398262 0.677039 0.558190
O O3 0.330356 0.731152 0.427122
O O4 0.412275 0.784249 0.456890
O O5 0.500000 0.500000 0.500000
O O6 0.500000 0.555857 0.250000
O O7 0.547224 0.597171 0.471138
O O8 0.921918 0.089089 0.750000
O O9 0.862747 0.068345 0.975227
O O10 0.300699 0.433685 0.250000
O O11 0.289349 0.500000 0.000000
O O12 0.282586 0.371798 0.002391
O O13 0.264453 0.685760 0.250000
O O14 0.250000 0.750000 0.500000
O O15 0.066022 0.303292 0.750000
O O16 0.060488 0.387287 0.538634
O O17 0.000000 0.295636 0.541313
O O18 0.424190 0.928873 0.250000
O O19 0.500000 0.955520 0.107023
O O20 0.422043 0.000000 0.000000
#
# Coordination Sequence:
#
# PCOD8258333 Si02
#       7
#    16   8  16  16  16  16  16
#     4  10  21  36  54  78 107 140 179 222 270 323
#     4  12  24  36  50  70 100 142 187 230 273 318
#     4  10  21  36  53  74 104 143 186 231 276 323
#     4  10  20  35  58  86 115 147 185 232 281 334
#     4  10  21  38  61  87 114 145 183 228 280 339
#     4  10  20  32  48  72 103 140 179 220 264 315
#     4   9  16  27  44  66  93 126 167 214 260 310
#
# _framework density 18.977336000000001
#
# number of rings (size 3 to 8) (size 9 to 14) (size 15 to 20)
#    0.000    2.000    0.000    3.923    1.077    7.692 
#    0.000    0.000    0.000    0.923    0.000    0.000 
#    0.000    0.000    0.000    0.000    0.000    0.000 
#
# Total GULP energy -644207.459378 kJ/mol
# GULP energy per Si atom -12388.604988 kJ/mol
# Density = 1.893414 g / cm^3
# Si number density = 18.977336 Si / 1000 Ang^3
#
#
#
# Elastic Constant Matrix: (Units=GPa)
#
#
# Indices 1 2 3 4 5 6 
#
# 1 59.2416 45.2178 42.2956 0.0000 0.0000 0.0000
# 2 45.2178 115.9665 47.8810 0.0000 0.0000 0.0000
# 3 42.2956 47.8810 118.8177 0.0000 0.0000 0.0000
# 4 0.0000 0.0000 0.0000 34.6393 0.0000 0.0000
# 5 0.0000 0.0000 0.0000 0.0000 23.3268 0.0000
# 6 0.0000 0.0000 0.0000 0.0000 0.0000 20.8097
#
#
#
# Elastic Compliance Matrix: (Units=1/GPa)
#
#
# Indices 1 2 3 4 5 6 
#
# 1 0.027797 -0.008101 -0.006630 0.000000 0.000000 0.000000
# 2 -0.008101 0.012705 -0.002236 0.000000 0.000000 0.000000
# 3 -0.006630 -0.002236 0.011678 0.000000 0.000000 0.000000
# 4 0.000000 0.000000 0.000000 0.028869 0.000000 0.000000
# 5 0.000000 0.000000 0.000000 0.000000 0.042869 0.000000
# 6 0.000000 0.000000 0.000000 0.000000 0.000000 0.048054
#
#
# Mechanical properties :
#
#
# Convention : Reuss Voigt Hill
#
# Bulk Modulus (GPa) = 54.81052 62.75717 58.78385
# Shear Modulus (GPa) = 23.58605 26.33059 24.95832
#
# Velocity S-wave (km/s) = 3.52924 3.72892 3.63045
# Velocity P-wave (km/s) = 6.74923 7.18896 6.97256
#
# Compressibility (1/GPa) = 0.01824467
#
# Stress axis : x y z
#
# Youngs Moduli (GPa) = 35.97477 78.70744 85.63385
#
# Poissons Ratio (x) = 0.63762 0.56779
# Poissons Ratio (y) = 0.29144 0.19149
# Poissons Ratio (z) = 0.23853 0.17600
#
# Static dielectric constant tensor:
#      x y z
#    x 3.201040 0.000000 0.000000 
#    y 0.000000 3.524410 0.000000 
#    z 0.000000 0.000000 3.771810 
# 
# 
# High freq. dielectric constant tensor:
#      x y z
#    x 1.696220 0.000000 0.000000 
#    y 0.000000 1.742460 0.000000 
#    z 0.000000 0.000000 1.757580 
# 
# From -- ./inp_files/12583.got.cif
#   From: 2010.03.12/outbox.cif.g09.slc.cpg/sg63_7_cif.got.tgz:12583.got - 2010.04.10 19:34:48.
