data_PCOD8258866
_publ_section_title
;
Structure prediction by ZEFSAII (Michael W. Deem and Ramdas Pophale) SiO2 
 PCOD8258866
Probable space group: C M C M
;
_chemical_formula_sum "Si O2"
_cell_formula_units_Z 88
_cell_length_a 21.332049
_cell_length_b 22.678418
_cell_length_c 9.369805
_cell_angle_alpha 90.000000
_cell_angle_beta 90.000000
_cell_angle_gamma 90.000000
_cell_volume 4532.897316
_symmetry_space_group_name_H-M "C M C M"
_symmetry_group_IT_number 63
_symmetry_cell_setting 'orthorhombic'
loop_
_space_group_symop_operation_xyz
x,y,z
-x,-y,1/2+z
x,-y,-z
-x,y,1/2-z
-x,-y,-z
x,y,1/2-z
-x,y,z
x,-y,1/2+z
1/2+x,1/2+y,z
1/2-x,1/2-y,1/2+z
1/2+x,1/2-y,-z
1/2-x,1/2+y,1/2-z
1/2-x,1/2-y,-z
1/2+x,1/2+y,1/2-z
1/2-x,1/2+y,z
1/2+x,1/2-y,1/2+z
loop_
_atom_site_type_symbol
_atom_site_label
_atom_site_fract_x
_atom_site_fract_y
_atom_site_fract_z
Si Si1 0.926457 0.946752 0.907474
Si Si2 0.500000 0.061964 0.582333
Si Si3 0.252125 0.056476 0.587780
Si Si4 0.812975 0.733853 0.084352
Si Si5 0.359371 0.360353 0.410115
Si Si6 0.872233 0.373207 0.083770
O O1 0.896276 0.948686 0.750000
O O2 0.000000 0.954406 0.896251
O O3 0.911418 0.884720 0.981928
O O4 0.896695 0.000000 0.000000
O O5 0.500000 0.047263 0.750000
O O6 0.560072 0.101449 0.539758
O O7 0.500000 0.000000 0.500000
O O8 0.244625 0.037712 0.750000
O O9 0.208292 0.112183 0.549328
O O10 0.323190 0.074586 0.553159
O O11 0.231283 0.000000 0.500000
O O12 0.796938 0.718804 0.250000
O O13 0.857867 0.790401 0.075893
O O14 0.750000 0.750000 0.000000
O O15 0.853286 0.682129 0.013155
O O16 0.378467 0.379110 0.250000
O O17 0.870101 0.353891 0.250000
#
# Coordination Sequence:
#
# PCOD8258866 Si02
#       6
#    16   8  16  16  16  16
#     4  10  21  37  57  82 112 148 188 231 282 340
#     4  10  22  40  66  92 124 166 207 258 311 362
#     4  10  20  34  53  81 116 146 184 236 287 345
#     4  11  22  39  62  87 116 153 193 240 294 354
#     4  10  21  37  56  81 113 150 190 236 288 343
#     4  10  21  40  60  85 121 159 199 246 299 357
#
# _framework density 19.413633000000001
#
# number of rings (size 3 to 8) (size 9 to 14) (size 15 to 20)
#    0.000    1.818    1.818    2.182    0.000    6.182 
#    1.636    0.000    0.000    0.000    0.000    0.000 
#    0.000    0.000    0.000    0.000    0.000    0.000 
#
# Total GULP energy -545633.650860 kJ/mol
# GULP energy per Si atom -12400.764792 kJ/mol
# Density = 1.936945 g / cm^3
# Si number density = 19.413633 Si / 1000 Ang^3
#
#
#
# Elastic Constant Matrix: (Units=GPa)
#
#
# Indices 1 2 3 4 5 6 
#
# 1 65.8451 39.5052 44.1465 0.0000 0.0000 0.0000
# 2 39.5052 121.9227 75.5623 0.0000 0.0000 0.0000
# 3 44.1465 75.5623 132.2415 0.0000 0.0000 0.0000
# 4 0.0000 0.0000 0.0000 40.1652 0.0000 0.0000
# 5 0.0000 0.0000 0.0000 0.0000 26.9845 0.0000
# 6 0.0000 0.0000 0.0000 0.0000 0.0000 29.2179
#
#
#
# Elastic Compliance Matrix: (Units=1/GPa)
#
#
# Indices 1 2 3 4 5 6 
#
# 1 0.020611 -0.003738 -0.004745 0.000000 0.000000 0.000000
# 2 -0.003738 0.013377 -0.006396 0.000000 0.000000 0.000000
# 3 -0.004745 -0.006396 0.012800 0.000000 0.000000 0.000000
# 4 0.000000 0.000000 0.000000 0.024897 0.000000 0.000000
# 5 0.000000 0.000000 0.000000 0.000000 0.037058 0.000000
# 6 0.000000 0.000000 0.000000 0.000000 0.000000 0.034226
#
#
# Mechanical properties :
#
#
# Convention : Reuss Voigt Hill
#
# Bulk Modulus (GPa) = 58.71443 70.93750 64.82596
# Shear Modulus (GPa) = 28.02646 29.99320 29.00983
#
# Velocity S-wave (km/s) = 3.80366 3.93486 3.86981
# Velocity P-wave (km/s) = 7.04273 7.56726 7.30970
#
# Compressibility (1/GPa) = 0.01703159
#
# Stress axis : x y z
#
# Youngs Moduli (GPa) = 48.51803 74.75671 78.12254
#
# Poissons Ratio (x) = 0.27941 0.37069
# Poissons Ratio (y) = 0.18134 0.49965
# Poissons Ratio (z) = 0.23021 0.47812
#
# Static dielectric constant tensor:
#      x y z
#    x 3.460420 0.000000 0.000000 
#    y 0.000000 3.494580 0.000000 
#    z 0.000000 0.000000 3.763420 
# 
# 
# High freq. dielectric constant tensor:
#      x y z
#    x 1.750550 0.000000 0.000000 
#    y 0.000000 1.754400 0.000000 
#    z 0.000000 0.000000 1.761910 
# 
# From -- ./inp_files/8201.got.cif
#   From: 2010.03.12/outbox.cif.g09.slc.cpg/sg63_5_cif.got.tgz:8201.got - 2010.04.10 19:34:48.
