data_PCOD8258628
_publ_section_title
;
Structure prediction by ZEFSAII (Michael W. Deem and Ramdas Pophale) SiO2 
 PCOD8258628
Probable space group: C M C M
;
_chemical_formula_sum "Si O2"
_cell_formula_units_Z 96
_cell_length_a 23.797136
_cell_length_b 25.272415
_cell_length_c 8.545807
_cell_angle_alpha 90.000000
_cell_angle_beta 90.000000
_cell_angle_gamma 90.000000
_cell_volume 5139.543161
_symmetry_space_group_name_H-M "C M C M"
_symmetry_group_IT_number 63
_symmetry_cell_setting 'orthorhombic'
loop_
_space_group_symop_operation_xyz
x,y,z
-x,-y,1/2+z
x,-y,-z
-x,y,1/2-z
-x,-y,-z
x,y,1/2-z
-x,y,z
x,-y,1/2+z
1/2+x,1/2+y,z
1/2-x,1/2-y,1/2+z
1/2+x,1/2-y,-z
1/2-x,1/2+y,1/2-z
1/2-x,1/2-y,-z
1/2+x,1/2+y,1/2-z
1/2-x,1/2+y,z
1/2+x,1/2-y,1/2+z
loop_
_atom_site_type_symbol
_atom_site_label
_atom_site_fract_x
_atom_site_fract_y
_atom_site_fract_z
Si Si1 0.500000 0.191009 0.429469
Si Si2 0.434662 0.557436 0.065574
Si Si3 0.688243 0.248552 0.066679
Si Si4 0.885449 0.655522 0.567935
Si Si5 0.500000 0.295334 0.926403
Si Si6 0.564278 0.057743 0.432317
Si Si7 0.105493 0.842039 0.066617
O O1 0.500000 0.169400 0.250000
O O2 0.446650 0.175603 0.528425
O O3 0.500000 0.254011 0.430350
O O4 0.423805 0.559051 0.250000
O O5 0.500000 0.571800 0.026318
O O6 0.420284 0.500000 0.000000
O O7 0.388982 0.595887 0.976724
O O8 0.691468 0.244777 0.250000
O O9 0.656585 0.302969 0.017322
O O10 0.750000 0.250000 0.000000
O O11 0.659117 0.194513 0.010208
O O12 0.872649 0.654984 0.750000
O O13 0.886885 0.595248 0.503735
O O14 0.500000 0.271407 0.750000
O O15 0.555008 0.329534 0.949114
O O16 0.574313 0.054827 0.250000
O O17 0.500000 0.078490 0.468680
O O18 0.572704 0.000000 0.500000
O O19 0.092083 0.834533 0.250000
#
# Coordination Sequence:
#
# PCOD8258628 Si02
#       7
#     8  16  16  16   8  16  16
#     4  12  22  34  51  80 117 152 188 231 287 345
#     4  10  20  33  52  81 118 155 192 229 275 336
#     4  11  25  43  62  84 113 150 195 243 295 346
#     4  12  23  36  58  85 117 154 193 236 288 348
#     4  12  22  32  51  82 115 150 188 227 281 345
#     4  10  20  34  54  82 121 159 194 234 282 341
#     4  11  22  36  57  82 116 153 187 233 287 341
#
# _framework density 18.678704
#
# number of rings (size 3 to 8) (size 9 to 14) (size 15 to 20)
#    0.000    1.000    3.333    5.000    0.000    3.333 
#    0.000    0.000    0.000    1.000    0.000    2.333 
#    0.000    0.000    0.000    0.000    0.000    0.000 
#
# Total GULP energy -594793.089700 kJ/mol
# GULP energy per Si atom -12391.522702 kJ/mol
# Density = 1.863619 g / cm^3
# Si number density = 18.678704 Si / 1000 Ang^3
#
#
#
# Elastic Constant Matrix: (Units=GPa)
#
#
# Indices 1 2 3 4 5 6 
#
# 1 109.4621 64.5179 44.0961 0.0000 0.0000 0.0000
# 2 64.5179 132.0908 54.3249 0.0000 0.0000 0.0000
# 3 44.0961 54.3249 99.8245 0.0000 0.0000 0.0000
# 4 0.0000 0.0000 0.0000 37.6695 0.0000 0.0000
# 5 0.0000 0.0000 0.0000 0.0000 28.4724 0.0000
# 6 0.0000 0.0000 0.0000 0.0000 0.0000 13.9299
#
#
#
# Elastic Compliance Matrix: (Units=1/GPa)
#
#
# Indices 1 2 3 4 5 6 
#
# 1 0.013519 -0.005343 -0.003064 0.000000 0.000000 0.000000
# 2 -0.005343 0.011865 -0.004097 0.000000 0.000000 0.000000
# 3 -0.003064 -0.004097 0.013601 0.000000 0.000000 0.000000
# 4 0.000000 0.000000 0.000000 0.026547 0.000000 0.000000
# 5 0.000000 0.000000 0.000000 0.000000 0.035122 0.000000
# 6 0.000000 0.000000 0.000000 0.000000 0.000000 0.071788
#
#
# Mechanical properties :
#
#
# Convention : Reuss Voigt Hill
#
# Bulk Modulus (GPa) = 71.54697 74.13946 72.84322
# Shear Modulus (GPa) = 24.73918 27.91028 26.32473
#
# Velocity S-wave (km/s) = 3.64326 3.86972 3.75820
# Velocity P-wave (km/s) = 7.48899 7.72945 7.61017
#
# Compressibility (1/GPa) = 0.01397683
#
# Stress axis : x y z
#
# Youngs Moduli (GPa) = 73.96871 84.28001 73.52565
#
# Poissons Ratio (x) = 0.45031 0.22530
# Poissons Ratio (y) = 0.39522 0.30123
# Poissons Ratio (z) = 0.22666 0.34528
#
# Static dielectric constant tensor:
#      x y z
#    x 3.084910 0.000000 0.000000 
#    y 0.000000 3.960700 0.000000 
#    z 0.000000 0.000000 3.626680 
# 
# 
# High freq. dielectric constant tensor:
#      x y z
#    x 1.673880 0.000000 0.000000 
#    y 0.000000 1.749070 0.000000 
#    z 0.000000 0.000000 1.742630 
# 
# From -- ./inp_files/12823.got.cif
#   From: 2010.03.12/outbox.cif.g09.slc.cpg/sg63_7_cif.got.tgz:12823.got - 2010.04.10 19:34:48.
