data_PCOD8258811
_publ_section_title
;
Structure prediction by ZEFSAII (Michael W. Deem and Ramdas Pophale) SiO2 
 PCOD8258811
Probable space group: C M C M
;
_chemical_formula_sum "Si O2"
_cell_formula_units_Z 112
_cell_length_a 14.232940
_cell_length_b 23.075050
_cell_length_c 17.495569
_cell_angle_alpha 90.000000
_cell_angle_beta 90.000000
_cell_angle_gamma 90.000000
_cell_volume 5745.996283
_symmetry_space_group_name_H-M "C M C M"
_symmetry_group_IT_number 63
_symmetry_cell_setting 'orthorhombic'
loop_
_space_group_symop_operation_xyz
x,y,z
-x,-y,1/2+z
x,-y,-z
-x,y,1/2-z
-x,-y,-z
x,y,1/2-z
-x,y,z
x,-y,1/2+z
1/2+x,1/2+y,z
1/2-x,1/2-y,1/2+z
1/2+x,1/2-y,-z
1/2-x,1/2+y,1/2-z
1/2-x,1/2-y,-z
1/2+x,1/2+y,1/2-z
1/2-x,1/2+y,z
1/2+x,1/2-y,1/2+z
loop_
_atom_site_type_symbol
_atom_site_label
_atom_site_fract_x
_atom_site_fract_y
_atom_site_fract_z
Si Si1 0.893449 0.573770 0.658819
Si Si2 0.892375 0.217529 0.100340
Si Si3 0.208390 0.539487 0.339762
Si Si4 0.109276 0.346089 0.836947
Si Si5 0.891903 0.229445 0.923278
Si Si6 0.895577 0.906958 0.660971
Si Si7 0.726649 0.182030 0.838123
O O1 0.895002 0.572566 0.750000
O O2 0.838676 0.517850 0.624334
O O3 0.838839 0.630543 0.629462
O O4 0.000000 0.574658 0.626908
O O5 0.867768 0.150637 0.114946
O O6 0.827741 0.257495 0.152844
O O7 0.000000 0.230002 0.122563
O O8 0.871827 0.232325 0.012708
O O9 0.189633 0.537433 0.250000
O O10 0.160681 0.597791 0.371956
O O11 0.320164 0.542613 0.358633
O O12 0.141792 0.332645 0.750000
O O13 0.135734 0.291680 0.889057
O O14 0.000000 0.359927 0.839617
O O15 0.824841 0.181680 0.884315
O O16 0.000000 0.212941 0.905390
O O17 0.891006 0.890762 0.750000
O O18 0.000000 0.929050 0.638232
O O19 0.751386 0.171645 0.750000
#
# Coordination Sequence:
#
# PCOD8258811 Si02
#       7
#    16  16  16  16  16  16  16
#     4   9  18  32  50  74 102 130 163 204 249 298
#     4  10  20  34  53  76 104 137 170 209 258 307
#     4   9  16  28  47  71  98 128 162 203 252 297
#     4   9  16  27  47  73  97 124 163 210 253 293
#     4  10  21  35  51  74 105 139 173 209 252 305
#     4   9  17  29  48  75 101 124 159 208 255 300
#     4  11  21  33  52  77 105 137 171 208 252 302
#
# _framework density 19.491834000000001
#
# number of rings (size 3 to 8) (size 9 to 14) (size 15 to 20)
#    0.000    2.429    0.000    3.000    0.000    5.143 
#    0.000    0.714    0.000    6.000    0.000   10.000 
#    0.000    0.000    0.000    0.000    0.000    0.000 
#
# Total GULP energy -694386.160895 kJ/mol
# GULP energy per Si atom -12399.752873 kJ/mol
# Density = 1.944747 g / cm^3
# Si number density = 19.491834 Si / 1000 Ang^3
#
#
#
# Elastic Constant Matrix: (Units=GPa)
#
#
# Indices 1 2 3 4 5 6 
#
# 1 123.6747 75.8809 13.7854 0.0000 0.0000 0.0000
# 2 75.8809 88.0389 15.0666 0.0000 0.0000 0.0000
# 3 13.7854 15.0666 30.9201 0.0000 0.0000 0.0000
# 4 0.0000 0.0000 0.0000 4.2091 0.0000 0.0000
# 5 0.0000 0.0000 0.0000 0.0000 21.5551 0.0000
# 6 0.0000 0.0000 0.0000 0.0000 0.0000 37.5397
#
#
#
# Elastic Compliance Matrix: (Units=1/GPa)
#
#
# Indices 1 2 3 4 5 6 
#
# 1 0.017167 -0.014714 -0.000484 0.000000 0.000000 0.000000
# 2 -0.014714 0.025003 -0.005623 0.000000 0.000000 0.000000
# 3 -0.000484 -0.005623 0.035297 0.000000 0.000000 0.000000
# 4 0.000000 0.000000 0.000000 0.237580 0.000000 0.000000
# 5 0.000000 0.000000 0.000000 0.000000 0.046393 0.000000
# 6 0.000000 0.000000 0.000000 0.000000 0.000000 0.026638
#
#
# Mechanical properties :
#
#
# Convention : Reuss Voigt Hill
#
# Bulk Modulus (GPa) = 27.91341 50.23327 39.07334
# Shear Modulus (GPa) = 11.32085 21.85416 16.58750
#
# Velocity S-wave (km/s) = 2.41259 3.35206 2.92035
# Velocity P-wave (km/s) = 4.70239 6.38820 5.60899
#
# Compressibility (1/GPa) = 0.03582507
#
# Stress axis : x y z
#
# Youngs Moduli (GPa) = 58.25019 39.99564 28.33068
#
# Poissons Ratio (x) = 0.58848 0.01372
# Poissons Ratio (y) = 0.85708 0.15931
# Poissons Ratio (z) = 0.02821 0.22491
#
# Static dielectric constant tensor:
#      x y z
#    x 3.874360 0.000000 0.000000 
#    y 0.000000 3.495870 0.000000 
#    z 0.000000 0.000000 3.203610 
# 
# 
# High freq. dielectric constant tensor:
#      x y z
#    x 1.779520 0.000000 0.000000 
#    y 0.000000 1.741620 0.000000 
#    z 0.000000 0.000000 1.721270 
# 
# From -- ./inp_files/32276.got.cif
#   From: 2010.03.12/outbox.cif.g09.slc.cpg/sg63_17_cif.got.tgz:32276.got - 2010.04.10 19:34:48.
