data_PCOD8258362
_publ_section_title
;
Structure prediction by ZEFSAII (Michael W. Deem and Ramdas Pophale) SiO2 
 PCOD8258362
Probable space group: C M C M
;
_chemical_formula_sum "Si O2"
_cell_formula_units_Z 88
_cell_length_a 19.157266
_cell_length_b 27.465630
_cell_length_c 9.308135
_cell_angle_alpha 90.000000
_cell_angle_beta 90.000000
_cell_angle_gamma 90.000000
_cell_volume 4897.627695
_symmetry_space_group_name_H-M "C M C M"
_symmetry_group_IT_number 63
_symmetry_cell_setting 'orthorhombic'
loop_
_space_group_symop_operation_xyz
x,y,z
-x,-y,1/2+z
x,-y,-z
-x,y,1/2-z
-x,-y,-z
x,y,1/2-z
-x,y,z
x,-y,1/2+z
1/2+x,1/2+y,z
1/2-x,1/2-y,1/2+z
1/2+x,1/2-y,-z
1/2-x,1/2+y,1/2-z
1/2-x,1/2-y,-z
1/2+x,1/2+y,1/2-z
1/2-x,1/2+y,z
1/2+x,1/2-y,1/2+z
loop_
_atom_site_type_symbol
_atom_site_label
_atom_site_fract_x
_atom_site_fract_y
_atom_site_fract_z
Si Si1 0.685988 0.151936 0.081466
Si Si2 0.326341 0.695254 0.410506
Si Si3 0.920854 0.730528 0.081321
Si Si4 0.000000 0.949838 0.418752
Si Si5 0.376905 0.586723 0.407835
Si Si6 0.726176 0.047859 0.416445
O O1 0.702469 0.147210 0.250000
O O2 0.748557 0.186928 0.021811
O O3 0.611871 0.177164 0.048023
O O4 0.687220 0.096529 0.021114
O O5 0.322822 0.718112 0.250000
O O6 0.373081 0.728987 0.510018
O O7 0.362185 0.643320 0.403897
O O8 0.920548 0.740784 0.250000
O O9 0.000000 0.731571 0.020766
O O10 0.068557 0.920896 0.465169
O O11 0.000000 0.957307 0.250000
O O12 0.000000 0.000000 0.500000
O O13 0.405981 0.570988 0.250000
O O14 0.308401 0.555143 0.441688
O O15 0.708012 0.039904 0.250000
O O16 0.699886 0.000000 0.500000
#
# Coordination Sequence:
#
# PCOD8258362 Si02
#       6
#    16  16  16   8  16  16
#     4   8  16  33  52  71  98 132 165 197 240 296
#     4   9  18  33  53  72  94 130 168 202 241 287
#     4  10  20  32  49  74 103 131 162 202 245 291
#     4  12  24  34  46  64  92 130 166 202 245 290
#     4   9  19  34  49  67  93 125 162 201 243 292
#     4   9  17  31  52  73  93 120 159 203 245 290
#
# _framework density 17.967883
#
# number of rings (size 3 to 8) (size 9 to 14) (size 15 to 20)
#    0.000    2.727    0.000    4.091    1.273    3.273 
#    0.000    3.636    0.000    0.545    0.000    0.000 
#    0.000    0.000    0.000    0.000    0.000    0.000 
#
# Total GULP energy -545333.404975 kJ/mol
# GULP energy per Si atom -12393.941022 kJ/mol
# Density = 1.792699 g / cm^3
# Si number density = 17.967883 Si / 1000 Ang^3
#
#
#
# Elastic Constant Matrix: (Units=GPa)
#
#
# Indices 1 2 3 4 5 6 
#
# 1 82.8272 53.5134 27.3608 0.0000 0.0000 0.0000
# 2 53.5134 99.2608 28.6229 0.0000 0.0000 0.0000
# 3 27.3608 28.6229 58.7900 0.0000 0.0000 0.0000
# 4 0.0000 0.0000 0.0000 25.7435 0.0000 0.0000
# 5 0.0000 0.0000 0.0000 0.0000 17.5329 0.0000
# 6 0.0000 0.0000 0.0000 0.0000 0.0000 10.5310
#
#
#
# Elastic Compliance Matrix: (Units=1/GPa)
#
#
# Indices 1 2 3 4 5 6 
#
# 1 0.019546 -0.009207 -0.004614 0.000000 0.000000 0.000000
# 2 -0.009207 0.016057 -0.003533 0.000000 0.000000 0.000000
# 3 -0.004614 -0.003533 0.020877 0.000000 0.000000 0.000000
# 4 0.000000 0.000000 0.000000 0.038845 0.000000 0.000000
# 5 0.000000 0.000000 0.000000 0.000000 0.057036 0.000000
# 6 0.000000 0.000000 0.000000 0.000000 0.000000 0.094958
#
#
# Mechanical properties :
#
#
# Convention : Reuss Voigt Hill
#
# Bulk Modulus (GPa) = 45.92979 51.09692 48.51335
# Shear Modulus (GPa) = 17.28409 19.52021 18.40215
#
# Velocity S-wave (km/s) = 3.10489 3.29963 3.20374
# Velocity P-wave (km/s) = 6.20253 6.55869 6.38309
#
# Compressibility (1/GPa) = 0.02177236
#
# Stress axis : x y z
#
# Youngs Moduli (GPa) = 51.16103 62.27861 47.89972
#
# Poissons Ratio (x) = 0.57341 0.22101
# Poissons Ratio (y) = 0.47105 0.16921
# Poissons Ratio (z) = 0.23606 0.22000
#
# Static dielectric constant tensor:
#      x y z
#    x 3.248800 0.000000 0.000000 
#    y 0.000000 3.371930 0.000000 
#    z 0.000000 0.000000 5.545420 
# 
# 
# High freq. dielectric constant tensor:
#      x y z
#    x 1.678260 0.000000 0.000000 
#    y 0.000000 1.701020 0.000000 
#    z 0.000000 0.000000 1.672160 
# 
# From -- ./inp_files/6839.got.cif
#   From: 2010.03.12/outbox.cif.g09.slc.cpg/sg63_4_cif.got.tgz:6839.got - 2010.04.10 19:34:48.
