data_PCOD8258311
_publ_section_title
;
Structure prediction by ZEFSAII (Michael W. Deem and Ramdas Pophale) SiO2 
 PCOD8258311
Probable space group: C M C M
;
_chemical_formula_sum "Si O2"
_cell_formula_units_Z 96
_cell_length_a 18.676058
_cell_length_b 32.923842
_cell_length_c 8.900131
_cell_angle_alpha 90.000000
_cell_angle_beta 90.000000
_cell_angle_gamma 90.000000
_cell_volume 5472.580037
_symmetry_space_group_name_H-M "C M C M"
_symmetry_group_IT_number 63
_symmetry_cell_setting 'orthorhombic'
loop_
_space_group_symop_operation_xyz
x,y,z
-x,-y,1/2+z
x,-y,-z
-x,y,1/2-z
-x,-y,-z
x,y,1/2-z
-x,y,z
x,-y,1/2+z
1/2+x,1/2+y,z
1/2-x,1/2-y,1/2+z
1/2+x,1/2-y,-z
1/2-x,1/2+y,1/2-z
1/2-x,1/2-y,-z
1/2+x,1/2+y,1/2-z
1/2-x,1/2+y,z
1/2+x,1/2-y,1/2+z
loop_
_atom_site_type_symbol
_atom_site_label
_atom_site_fract_x
_atom_site_fract_y
_atom_site_fract_z
Si Si1 0.644607 0.662559 0.073148
Si Si2 0.920018 0.669883 0.428320
Si Si3 0.917348 0.247032 0.077420
Si Si4 0.788394 0.620834 0.426689
Si Si5 0.209058 0.042214 0.071299
Si Si6 0.582001 0.413337 0.424038
O O1 0.630237 0.656576 0.250000
O O2 0.628676 0.708499 0.022415
O O3 0.726504 0.652809 0.029507
O O4 0.592274 0.632136 0.985839
O O5 0.919673 0.669652 0.250000
O O6 0.894414 0.714225 0.480260
O O7 0.864241 0.636418 0.493954
O O8 0.000000 0.660038 0.490087
O O9 0.901389 0.257391 0.250000
O O10 0.000000 0.235982 0.052079
O O11 0.796071 0.618697 0.250000
O O12 0.766679 0.576004 0.484705
O O13 0.206691 0.038751 0.250000
O O14 0.130355 0.054610 0.014647
O O15 0.233859 0.000000 0.000000
O O16 0.604060 0.414583 0.250000
O O17 0.500000 0.426414 0.447245
#
# Coordination Sequence:
#
# PCOD8258311 Si02
#       6
#    16  16  16  16  16  16
#     4   9  17  30  47  65  91 129 167 199 231 269
#     4   9  17  30  48  68  91 121 155 190 232 282
#     4   9  17  28  42  63  92 125 160 196 234 273
#     4   8  16  31  49  69  91 117 152 192 232 276
#     4  10  20  35  54  72  93 120 151 189 231 278
#     4  10  20  32  47  70  99 128 160 196 229 264
#
# _framework density 17.542000000000002
#
# number of rings (size 3 to 8) (size 9 to 14) (size 15 to 20)
#    0.000    2.833    0.000    2.500    0.000    3.667 
#    0.000    5.833    0.000    0.500    0.000    0.000 
#    0.000    0.000    0.000    0.000    0.000    0.667 
#
# Total GULP energy -595053.559898 kJ/mol
# GULP energy per Si atom -12396.949165 kJ/mol
# Density = 1.750207 g / cm^3
# Si number density = 17.542000 Si / 1000 Ang^3
#
#
#
# Elastic Constant Matrix: (Units=GPa)
#
#
# Indices 1 2 3 4 5 6 
#
# 1 100.0941 84.0696 27.6042 0.0000 0.0000 0.0000
# 2 84.0696 140.4684 33.2849 0.0000 0.0000 0.0000
# 3 27.6042 33.2849 45.6494 0.0000 0.0000 0.0000
# 4 0.0000 0.0000 0.0000 28.7572 0.0000 0.0000
# 5 0.0000 0.0000 0.0000 0.0000 14.7540 0.0000
# 6 0.0000 0.0000 0.0000 0.0000 0.0000 18.4651
#
#
#
# Elastic Compliance Matrix: (Units=1/GPa)
#
#
# Indices 1 2 3 4 5 6 
#
# 1 0.020740 -0.011413 -0.004220 0.000000 0.000000 0.000000
# 2 -0.011413 0.014886 -0.003953 0.000000 0.000000 0.000000
# 3 -0.004220 -0.003953 0.027340 0.000000 0.000000 0.000000
# 4 0.000000 0.000000 0.000000 0.034774 0.000000 0.000000
# 5 0.000000 0.000000 0.000000 0.000000 0.067778 0.000000
# 6 0.000000 0.000000 0.000000 0.000000 0.000000 0.054156
#
#
# Mechanical properties :
#
#
# Convention : Reuss Voigt Hill
#
# Bulk Modulus (GPa) = 42.02538 64.01436 53.01987
# Shear Modulus (GPa) = 18.74219 21.81215 20.27717
#
# Velocity S-wave (km/s) = 3.27221 3.53005 3.40357
# Velocity P-wave (km/s) = 6.18753 7.29289 6.76283
#
# Compressibility (1/GPa) = 0.02379514
#
# Stress axis : x y z
#
# Youngs Moduli (GPa) = 48.21562 67.17603 36.57641
#
# Poissons Ratio (x) = 0.76668 0.15435
# Poissons Ratio (y) = 0.55028 0.14458
# Poissons Ratio (z) = 0.20347 0.26553
#
# Static dielectric constant tensor:
#      x y z
#    x 3.495340 0.000000 0.000000 
#    y 0.000000 3.362650 0.000000 
#    z 0.000000 0.000000 3.113520 
# 
# 
# High freq. dielectric constant tensor:
#      x y z
#    x 1.667290 0.000000 0.000000 
#    y 0.000000 1.672040 0.000000 
#    z 0.000000 0.000000 1.663370 
# 
# From -- ./inp_files/8571.got.cif
#   From: 2010.03.12/outbox.cif.g09.slc.cpg/sg63_5_cif.got.tgz:8571.got - 2010.04.10 19:34:48.
