data_PCOD8258874
_publ_section_title
;
Structure prediction by ZEFSAII (Michael W. Deem and Ramdas Pophale) SiO2 
 PCOD8258874
Probable space group: C M C M
;
_chemical_formula_sum "Si O2"
_cell_formula_units_Z 88
_cell_length_a 18.387718
_cell_length_b 28.861483
_cell_length_c 9.029879
_cell_angle_alpha 90.000000
_cell_angle_beta 90.000000
_cell_angle_gamma 90.000000
_cell_volume 4792.127984
_symmetry_space_group_name_H-M "C M C M"
_symmetry_group_IT_number 63
_symmetry_cell_setting 'orthorhombic'
loop_
_space_group_symop_operation_xyz
x,y,z
-x,-y,1/2+z
x,-y,-z
-x,y,1/2-z
-x,-y,-z
x,y,1/2-z
-x,y,z
x,-y,1/2+z
1/2+x,1/2+y,z
1/2-x,1/2-y,1/2+z
1/2+x,1/2-y,-z
1/2-x,1/2+y,1/2-z
1/2-x,1/2-y,-z
1/2+x,1/2+y,1/2-z
1/2-x,1/2+y,z
1/2+x,1/2-y,1/2+z
loop_
_atom_site_type_symbol
_atom_site_label
_atom_site_fract_x
_atom_site_fract_y
_atom_site_fract_z
Si Si1 0.307454 0.282696 0.923555
Si Si2 0.500000 0.049953 0.926904
Si Si3 0.917890 0.047910 0.923521
Si Si4 0.079340 0.708657 0.576038
Si Si5 0.295839 0.619258 0.575086
Si Si6 0.134162 0.611979 0.924662
O O1 0.290608 0.286256 0.750000
O O2 0.383818 0.257759 0.957597
O O3 0.250000 0.250000 0.000000
O O4 0.309358 0.332888 0.993565
O O5 0.500000 0.045068 0.750000
O O6 0.572492 0.076806 0.985219
O O7 0.500000 0.000000 0.000000
O O8 0.910220 0.040098 0.750000
O O9 0.859611 0.085340 0.979897
O O10 0.000000 0.064032 0.965370
O O11 0.898022 0.000000 0.000000
O O12 0.073208 0.700860 0.750000
O O13 0.122014 0.663957 0.510667
O O14 0.000000 0.710188 0.502144
O O15 0.299612 0.628394 0.750000
O O16 0.216812 0.597666 0.530920
O O17 0.126025 0.612506 0.750000
#
# Coordination Sequence:
#
# PCOD8258874 Si02
#       6
#    16   8  16  16  16  16
#     4  11  21  33  52  79 109 140 176 219 266 310
#     4  10  20  34  54  76 102 134 172 218 267 308
#     4   9  19  36  57  79 106 141 176 217 270 325
#     4   9  16  29  51  75  97 131 181 218 243 298
#     4  10  20  35  55  79 107 139 178 218 265 319
#     4   9  16  30  52  73  94 133 175 208 251 310
#
# _framework density 18.363448999999999
#
# number of rings (size 3 to 8) (size 9 to 14) (size 15 to 20)
#    0.000    2.364    2.727    0.545    0.000    2.182 
#    0.000    0.909    0.000    1.636    0.000    0.000 
#    0.000    0.000    0.000    0.000    0.000    0.000 
#
# Total GULP energy -545340.791111 kJ/mol
# GULP energy per Si atom -12394.108889 kJ/mol
# Density = 1.832165 g / cm^3
# Si number density = 18.363449 Si / 1000 Ang^3
#
#
#
# Elastic Constant Matrix: (Units=GPa)
#
#
# Indices 1 2 3 4 5 6 
#
# 1 170.1636 98.3015 34.5173 0.0000 0.0000 0.0000
# 2 98.3015 154.9473 39.8343 0.0000 0.0000 0.0000
# 3 34.5173 39.8343 32.9165 0.0000 0.0000 0.0000
# 4 0.0000 0.0000 0.0000 33.4518 0.0000 0.0000
# 5 0.0000 0.0000 0.0000 0.0000 15.9526 0.0000
# 6 0.0000 0.0000 0.0000 0.0000 0.0000 31.7960
#
#
#
# Elastic Compliance Matrix: (Units=1/GPa)
#
#
# Indices 1 2 3 4 5 6 
#
# 1 0.009613 -0.005091 -0.003919 0.000000 0.000000 0.000000
# 2 -0.005091 0.012065 -0.009262 0.000000 0.000000 0.000000
# 3 -0.003919 -0.009262 0.045698 0.000000 0.000000 0.000000
# 4 0.000000 0.000000 0.000000 0.029894 0.000000 0.000000
# 5 0.000000 0.000000 0.000000 0.000000 0.062686 0.000000
# 6 0.000000 0.000000 0.000000 0.000000 0.000000 0.031451
#
#
# Mechanical properties :
#
#
# Convention : Reuss Voigt Hill
#
# Bulk Modulus (GPa) = 32.43446 78.14818 55.29132
# Shear Modulus (GPa) = 20.98848 28.59836 24.79342
#
# Velocity S-wave (km/s) = 3.38442 3.95061 3.67843
# Velocity P-wave (km/s) = 5.74223 7.96609 6.94377
#
# Compressibility (1/GPa) = 0.03083141
#
# Stress axis : x y z
#
# Youngs Moduli (GPa) = 104.02953 82.88749 21.88284
#
# Poissons Ratio (x) = 0.42197 0.08577
# Poissons Ratio (y) = 0.52960 0.20267
# Poissons Ratio (z) = 0.40773 0.76767
#
# Static dielectric constant tensor:
#      x y z
#    x 3.670680 0.000000 0.000000 
#    y 0.000000 3.064830 0.000000 
#    z 0.000000 0.000000 3.041470 
# 
# 
# High freq. dielectric constant tensor:
#      x y z
#    x 1.730180 0.000000 0.000000 
#    y 0.000000 1.710680 0.000000 
#    z 0.000000 0.000000 1.672420 
# 
# From -- ./inp_files/6889.got.cif
#   From: 2010.03.12/outbox.cif.g09.slc.cpg/sg63_4_cif.got.tgz:6889.got - 2010.04.10 19:34:48.
