data_PCOD8258795
_publ_section_title
;
Structure prediction by ZEFSAII (Michael W. Deem and Ramdas Pophale) SiO2 
 PCOD8258795
Probable space group: C M C M
;
_chemical_formula_sum "Si O2"
_cell_formula_units_Z 96
_cell_length_a 18.682777
_cell_length_b 28.845676
_cell_length_c 8.748756
_cell_angle_alpha 90.000000
_cell_angle_beta 90.000000
_cell_angle_gamma 90.000000
_cell_volume 4714.856243
_symmetry_space_group_name_H-M "C M C M"
_symmetry_group_IT_number 63
_symmetry_cell_setting 'orthorhombic'
loop_
_space_group_symop_operation_xyz
x,y,z
-x,-y,1/2+z
x,-y,-z
-x,y,1/2-z
-x,-y,-z
x,y,1/2-z
-x,y,z
x,-y,1/2+z
1/2+x,1/2+y,z
1/2-x,1/2-y,1/2+z
1/2+x,1/2-y,-z
1/2-x,1/2+y,1/2-z
1/2-x,1/2-y,-z
1/2+x,1/2+y,1/2-z
1/2-x,1/2+y,z
1/2+x,1/2-y,1/2+z
loop_
_atom_site_type_symbol
_atom_site_label
_atom_site_fract_x
_atom_site_fract_y
_atom_site_fract_z
Si Si1 0.421775 0.635976 0.078840
Si Si2 0.780216 0.548410 0.575282
Si Si3 0.111442 0.952935 0.074047
Si Si4 0.817494 0.198156 0.926158
Si Si5 0.580683 0.778569 0.571634
Si Si6 0.188307 0.645659 0.073173
O O1 0.388962 0.641263 0.250000
O O2 0.500000 0.659580 0.074627
O O3 0.429714 0.582910 0.032792
O O4 0.371823 0.655932 0.946524
O O5 0.807452 0.500000 0.500000
O O6 0.804415 0.546274 0.750000
O O7 0.696070 0.553525 0.555910
O O8 0.813836 0.595286 0.504839
O O9 0.087533 0.949462 0.250000
O O10 0.085550 0.000000 0.000000
O O11 0.797505 0.205628 0.750000
O O12 0.860783 0.242227 0.998384
O O13 0.745473 0.183959 0.013891
O O14 0.575579 0.766752 0.750000
O O15 0.500000 0.774617 0.500084
O O16 0.610697 0.830588 0.545708
O O17 0.204720 0.637445 0.250000
#
# Coordination Sequence:
#
# PCOD8258795 Si02
#       6
#    16  16  16  16  16  16
#     4  11  23  36  51  74 107 146 189 237 285 335
#     4  10  20  35  57  86 117 149 187 234 286 342
#     4  10  20  34  53  74 102 142 184 232 284 339
#     4  11  21  36  58  83 113 152 195 238 280 333
#     4   9  20  38  59  85 117 154 195 237 287 343
#     4  11  21  35  60  89 118 152 190 239 288 337
#
# _framework density 20.361173999999998
#
# number of rings (size 3 to 8) (size 9 to 14) (size 15 to 20)
#    0.000    1.667    1.667    3.500    0.000    3.667 
#    0.000    2.500    0.000    6.500    0.000    0.000 
#    0.000    0.000    0.000    0.000    0.000    0.000 
#
# Total GULP energy -594803.840584 kJ/mol
# GULP energy per Si atom -12391.746679 kJ/mol
# Density = 2.031483 g / cm^3
# Si number density = 20.361174 Si / 1000 Ang^3
#
#
#
# Elastic Constant Matrix: (Units=GPa)
#
#
# Indices 1 2 3 4 5 6 
#
# 1 65.3847 52.0744 26.1006 0.0000 0.0000 0.0000
# 2 52.0744 120.3333 34.3929 0.0000 0.0000 0.0000
# 3 26.1006 34.3929 94.2373 0.0000 0.0000 0.0000
# 4 0.0000 0.0000 0.0000 29.3126 0.0000 0.0000
# 5 0.0000 0.0000 0.0000 0.0000 4.4647 0.0000
# 6 0.0000 0.0000 0.0000 0.0000 0.0000 59.1680
#
#
#
# Elastic Compliance Matrix: (Units=1/GPa)
#
#
# Indices 1 2 3 4 5 6 
#
# 1 0.024179 -0.009545 -0.003213 0.000000 0.000000 0.000000
# 2 -0.009545 0.013046 -0.002118 0.000000 0.000000 0.000000
# 3 -0.003213 -0.002118 0.012274 0.000000 0.000000 0.000000
# 4 0.000000 0.000000 0.000000 0.034115 0.000000 0.000000
# 5 0.000000 0.000000 0.000000 0.000000 0.223977 0.000000
# 6 0.000000 0.000000 0.000000 0.000000 0.000000 0.016901
#
#
# Mechanical properties :
#
#
# Convention : Reuss Voigt Hill
#
# Bulk Modulus (GPa) = 50.63936 56.12124 53.38030
# Shear Modulus (GPa) = 13.85707 29.74824 21.80265
#
# Velocity S-wave (km/s) = 2.61159 3.82649 3.27585
# Velocity P-wave (km/s) = 5.83253 6.86625 6.37039
#
# Compressibility (1/GPa) = 0.01974748
#
# Stress axis : x y z
#
# Youngs Moduli (GPa) = 41.35879 76.65114 81.47100
#
# Poissons Ratio (x) = 0.73163 0.26178
# Poissons Ratio (y) = 0.39477 0.17253
# Poissons Ratio (z) = 0.13289 0.16232
#
# Static dielectric constant tensor:
#      x y z
#    x 3.510300 0.000000 0.000000 
#    y 0.000000 3.843240 0.000000 
#    z 0.000000 0.000000 3.574950 
# 
# 
# High freq. dielectric constant tensor:
#      x y z
#    x 1.770540 0.000000 0.000000 
#    y 0.000000 1.805090 0.000000 
#    z 0.000000 0.000000 1.786940 
# 
# From -- ./inp_files/8528.got.cif
#   From: 2010.03.12/outbox.cif.g09.slc.cpg/sg63_5_cif.got.tgz:8528.got - 2010.04.10 19:34:48.
