data_PCOD8258431
_publ_section_title
;
Structure prediction by ZEFSAII (Michael W. Deem and Ramdas Pophale) SiO2 
 PCOD8258431
Probable space group: C M C M
;
_chemical_formula_sum "Si O2"
_cell_formula_units_Z 96
_cell_length_a 9.098556
_cell_length_b 20.435715
_cell_length_c 29.526383
_cell_angle_alpha 90.000000
_cell_angle_beta 90.000000
_cell_angle_gamma 90.000000
_cell_volume 5490.002707
_symmetry_space_group_name_H-M "C M C M"
_symmetry_group_IT_number 63
_symmetry_cell_setting 'orthorhombic'
loop_
_space_group_symop_operation_xyz
x,y,z
-x,-y,1/2+z
x,-y,-z
-x,y,1/2-z
-x,-y,-z
x,y,1/2-z
-x,y,z
x,-y,1/2+z
1/2+x,1/2+y,z
1/2-x,1/2-y,1/2+z
1/2+x,1/2-y,-z
1/2-x,1/2+y,1/2-z
1/2-x,1/2-y,-z
1/2+x,1/2+y,1/2-z
1/2-x,1/2+y,z
1/2+x,1/2-y,1/2+z
loop_
_atom_site_type_symbol
_atom_site_label
_atom_site_fract_x
_atom_site_fract_y
_atom_site_fract_z
Si Si1 0.328290 0.439706 0.366263
Si Si2 0.328938 0.561543 0.970419
Si Si3 0.325333 0.303433 0.800710
Si Si4 0.672462 0.805750 0.471530
Si Si5 0.327773 0.807535 0.367042
Si Si6 0.174621 0.948706 0.800716
O O1 0.500000 0.430300 0.357349
O O2 0.295136 0.456018 0.418443
O O3 0.249449 0.373625 0.350697
O O4 0.262051 0.498957 0.336396
O O5 0.500000 0.577547 0.978192
O O6 0.236277 0.624121 0.986395
O O7 0.277615 0.500000 0.000000
O O8 0.273568 0.284140 0.750000
O O9 0.500000 0.303860 0.802950
O O10 0.262602 0.251517 0.836778
O O11 0.266205 0.376072 0.813097
O O12 0.500000 0.804883 0.481368
O O13 0.750000 0.750000 0.500000
O O14 0.709016 0.792056 0.419094
O O15 0.500000 0.816747 0.359407
O O16 0.225831 0.967907 0.750000
O O17 0.000000 0.948059 0.803315
#
# Coordination Sequence:
#
# PCOD8258431 Si02
#       6
#    16  16  16  16  16  16
#     4   9  17  29  46  67  91 118 147 182 224 269
#     4   9  18  32  49  69  93 121 154 192 233 278
#     4   8  14  26  45  68  92 118 151 189 224 262
#     4  10  20  33  49  69  95 125 157 195 236 279
#     4   9  18  31  47  68  93 120 150 186 227 270
#     4   8  14  25  42  65  90 115 147 185 220 257
#
# _framework density 17.486329999999999
#
# number of rings (size 3 to 8) (size 9 to 14) (size 15 to 20)
#    0.000    3.167    0.000    1.500    0.000    3.000 
#    0.000    5.000    0.000    1.000    0.000    2.333 
#    0.000    0.000    0.000    0.000    0.000    0.000 
#
# Total GULP energy -595087.706153 kJ/mol
# GULP energy per Si atom -12397.660545 kJ/mol
# Density = 1.744653 g / cm^3
# Si number density = 17.486330 Si / 1000 Ang^3
#
#
#
# Elastic Constant Matrix: (Units=GPa)
#
#
# Indices 1 2 3 4 5 6 
#
# 1 36.3150 48.4426 32.9478 0.0000 0.0000 0.0000
# 2 48.4426 183.6553 106.8694 0.0000 0.0000 0.0000
# 3 32.9478 106.8694 100.8508 0.0000 0.0000 0.0000
# 4 0.0000 0.0000 0.0000 43.8570 0.0000 0.0000
# 5 0.0000 0.0000 0.0000 0.0000 13.8673 0.0000
# 6 0.0000 0.0000 0.0000 0.0000 0.0000 29.2787
#
#
#
# Elastic Compliance Matrix: (Units=1/GPa)
#
#
# Indices 1 2 3 4 5 6 
#
# 1 0.043570 -0.008372 -0.005363 0.000000 0.000000 0.000000
# 2 -0.008372 0.015812 -0.014020 0.000000 0.000000 0.000000
# 3 -0.005363 -0.014020 0.026524 0.000000 0.000000 0.000000
# 4 0.000000 0.000000 0.000000 0.022801 0.000000 0.000000
# 5 0.000000 0.000000 0.000000 0.000000 0.072112 0.000000
# 6 0.000000 0.000000 0.000000 0.000000 0.000000 0.034154
#
#
# Mechanical properties :
#
#
# Convention : Reuss Voigt Hill
#
# Bulk Modulus (GPa) = 32.89849 77.48230 55.19040
# Shear Modulus (GPa) = 17.81796 26.23801 22.02799
#
# Velocity S-wave (km/s) = 3.19559 3.87781 3.55311
# Velocity P-wave (km/s) = 5.69828 8.02847 6.96156
#
# Compressibility (1/GPa) = 0.03039653
#
# Stress axis : x y z
#
# Youngs Moduli (GPa) = 22.95158 63.24509 37.70102
#
# Poissons Ratio (x) = 0.52947 0.20219
# Poissons Ratio (y) = 0.19214 0.52857
# Poissons Ratio (z) = 0.12309 0.88670
#
# Static dielectric constant tensor:
#      x y z
#    x 2.913130 0.000000 0.000000 
#    y 0.000000 3.557240 0.000000 
#    z 0.000000 0.000000 3.401750 
# 
# 
# High freq. dielectric constant tensor:
#      x y z
#    x 1.638240 0.000000 0.000000 
#    y 0.000000 1.685040 0.000000 
#    z 0.000000 0.000000 1.676230 
# 
# From -- ./inp_files/68294.got.cif
#   From: 2010.03.12/outbox.cif.g09.slc.cpg/sg63_35_cif.got.tgz:68294.got - 2010.04.10 19:34:48.
