data_PCOD8258819
_publ_section_title
;
Structure prediction by ZEFSAII (Michael W. Deem and Ramdas Pophale) SiO2 
 PCOD8258819
Probable space group: C M C M
;
_chemical_formula_sum "Si O2"
_cell_formula_units_Z 88
_cell_length_a 24.510063
_cell_length_b 24.568489
_cell_length_c 8.790890
_cell_angle_alpha 90.000000
_cell_angle_beta 90.000000
_cell_angle_gamma 90.000000
_cell_volume 5293.656060
_symmetry_space_group_name_H-M "C M C M"
_symmetry_group_IT_number 63
_symmetry_cell_setting 'orthorhombic'
loop_
_space_group_symop_operation_xyz
x,y,z
-x,-y,1/2+z
x,-y,-z
-x,y,1/2-z
-x,-y,-z
x,y,1/2-z
-x,y,z
x,-y,1/2+z
1/2+x,1/2+y,z
1/2-x,1/2-y,1/2+z
1/2+x,1/2-y,-z
1/2-x,1/2+y,1/2-z
1/2-x,1/2-y,-z
1/2+x,1/2+y,1/2-z
1/2-x,1/2+y,z
1/2+x,1/2-y,1/2+z
loop_
_atom_site_type_symbol
_atom_site_label
_atom_site_fract_x
_atom_site_fract_y
_atom_site_fract_z
Si Si1 0.405365 0.613047 0.076637
Si Si2 0.500000 0.444270 0.079038
Si Si3 0.162837 0.746947 0.572953
Si Si4 0.710899 0.440602 0.573165
Si Si5 0.740956 0.666126 0.573012
Si Si6 0.563282 0.278445 0.428736
O O1 0.424767 0.605779 0.250000
O O2 0.349931 0.581216 0.047649
O O3 0.447242 0.589456 0.957750
O O4 0.406753 0.676001 0.032046
O O5 0.500000 0.460248 0.250000
O O6 0.500000 0.500000 0.000000
O O7 0.149695 0.755754 0.750000
O O8 0.201380 0.695219 0.546142
O O9 0.193162 0.801730 0.514434
O O10 0.106612 0.731693 0.478184
O O11 0.718640 0.500000 0.500000
O O12 0.726193 0.444562 0.750000
O O13 0.748495 0.395248 0.491749
O O14 0.724940 0.664181 0.750000
O O15 0.565683 0.291298 0.250000
O O16 0.500000 0.267251 0.476449
#
# Coordination Sequence:
#
# PCOD8258819 Si02
#       6
#    16   8  16  16  16  16
#     4  11  22  35  50  68  92 126 169 213 253 297
#     4  12  24  36  48  62  84 120 168 216 259 298
#     4  10  20  34  53  77 101 131 169 210 257 306
#     4  11  23  36  52  73  99 131 169 210 256 304
#     4  10  20  34  54  76 101 131 168 212 256 305
#     4  11  22  34  51  74 101 134 170 211 256 302
#
# _framework density 16.623671000000002
#
# number of rings (size 3 to 8) (size 9 to 14) (size 15 to 20)
#    0.000    1.273    2.727    4.091    0.000    6.909 
#    0.000    0.000    0.000    0.000    0.000    0.000 
#    0.000    0.727    0.000    2.364    0.000    3.455 
#
# Total GULP energy -545280.502919 kJ/mol
# GULP energy per Si atom -12392.738703 kJ/mol
# Density = 1.658583 g / cm^3
# Si number density = 16.623671 Si / 1000 Ang^3
#
#
#
# Elastic Constant Matrix: (Units=GPa)
#
#
# Indices 1 2 3 4 5 6 
#
# 1 95.1910 45.1046 46.7324 0.0000 0.0000 0.0000
# 2 45.1046 88.1210 41.9495 0.0000 0.0000 0.0000
# 3 46.7324 41.9495 102.0888 0.0000 0.0000 0.0000
# 4 0.0000 0.0000 0.0000 28.7372 0.0000 0.0000
# 5 0.0000 0.0000 0.0000 0.0000 46.1762 0.0000
# 6 0.0000 0.0000 0.0000 0.0000 0.0000 20.0980
#
#
#
# Elastic Compliance Matrix: (Units=1/GPa)
#
#
# Indices 1 2 3 4 5 6 
#
# 1 0.015544 -0.005680 -0.004781 0.000000 0.000000 0.000000
# 2 -0.005680 0.016183 -0.004050 0.000000 0.000000 0.000000
# 3 -0.004781 -0.004050 0.013648 0.000000 0.000000 0.000000
# 4 0.000000 0.000000 0.000000 0.034798 0.000000 0.000000
# 5 0.000000 0.000000 0.000000 0.000000 0.021656 0.000000
# 6 0.000000 0.000000 0.000000 0.000000 0.000000 0.049756
#
#
# Mechanical properties :
#
#
# Convention : Reuss Voigt Hill
#
# Bulk Modulus (GPa) = 61.15098 61.44155 61.29626
# Shear Modulus (GPa) = 26.87316 29.10989 27.99152
#
# Velocity S-wave (km/s) = 4.02501 4.18917 4.10791
# Velocity P-wave (km/s) = 7.64632 7.77427 7.71056
#
# Compressibility (1/GPa) = 0.01635297
#
# Stress axis : x y z
#
# Youngs Moduli (GPa) = 64.33388 61.79255 73.26923
#
# Poissons Ratio (x) = 0.35098 0.35033
# Poissons Ratio (y) = 0.36541 0.29673
# Poissons Ratio (z) = 0.30761 0.25025
#
# Static dielectric constant tensor:
#      x y z
#    x 3.176490 0.000000 0.000000 
#    y 0.000000 3.072030 0.000000 
#    z 0.000000 0.000000 3.264630 
# 
# 
# High freq. dielectric constant tensor:
#      x y z
#    x 1.630050 0.000000 0.000000 
#    y 0.000000 1.614840 0.000000 
#    z 0.000000 0.000000 1.662160 
# 
# From -- ./inp_files/14359.got.cif
#   From: 2010.03.12/outbox.cif.g09.slc.cpg/sg63_8_cif.got.tgz:14359.got - 2010.04.10 19:34:48.
