data_PCOD8258582
_publ_section_title
;
Structure prediction by ZEFSAII (Michael W. Deem and Ramdas Pophale) SiO2 
 PCOD8258582
Probable space group: C M C M
;
_chemical_formula_sum "Si O2"
_cell_formula_units_Z 88
_cell_length_a 18.077901
_cell_length_b 30.393231
_cell_length_c 8.875767
_cell_angle_alpha 90.000000
_cell_angle_beta 90.000000
_cell_angle_gamma 90.000000
_cell_volume 4876.753087
_symmetry_space_group_name_H-M "C M C M"
_symmetry_group_IT_number 63
_symmetry_cell_setting 'orthorhombic'
loop_
_space_group_symop_operation_xyz
x,y,z
-x,-y,1/2+z
x,-y,-z
-x,y,1/2-z
-x,-y,-z
x,y,1/2-z
-x,y,z
x,-y,1/2+z
1/2+x,1/2+y,z
1/2-x,1/2-y,1/2+z
1/2+x,1/2-y,-z
1/2-x,1/2+y,1/2-z
1/2-x,1/2-y,-z
1/2+x,1/2+y,1/2-z
1/2-x,1/2+y,z
1/2+x,1/2-y,1/2+z
loop_
_atom_site_type_symbol
_atom_site_label
_atom_site_fract_x
_atom_site_fract_y
_atom_site_fract_z
Si Si1 0.500000 0.546616 0.074372
Si Si2 0.584255 0.850020 0.072714
Si Si3 0.582233 0.239006 0.420486
Si Si4 0.160742 0.047587 0.427872
Si Si5 0.717053 0.707270 0.576789
Si Si6 0.224837 0.620297 0.071534
O O1 0.500000 0.538739 0.250000
O O2 0.420785 0.568781 0.028825
O O3 0.500000 0.500000 0.000000
O O4 0.589084 0.855558 0.250000
O O5 0.500000 0.858823 0.015711
O O6 0.610465 0.800720 0.027577
O O7 0.641860 0.884061 0.996713
O O8 0.586121 0.220419 0.250000
O O9 0.500000 0.252574 0.468292
O O10 0.629101 0.283703 0.434306
O O11 0.167294 0.041917 0.250000
O O12 0.225118 0.079857 0.487204
O O13 0.172911 0.000000 0.500000
O O14 0.743500 0.702067 0.750000
O O15 0.750000 0.750000 0.500000
O O16 0.735703 0.664365 0.483465
O O17 0.219264 0.621102 0.250000
#
# Coordination Sequence:
#
# PCOD8258582 Si02
#       6
#     8  16  16  16  16  16
#     4   8  14  30  54  78 104 134 170 210 252 300
#     4  10  20  33  52  77 101 131 176 221 261 309
#     4   9  18  33  51  69  95 134 176 217 261 305
#     4   9  19  35  57  81 106 136 173 214 259 308
#     4  11  21  33  51  74 104 140 176 218 261 307
#     4  11  22  35  52  78 108 140 175 212 262 319
#
# _framework density 18.044792999999999
#
# number of rings (size 3 to 8) (size 9 to 14) (size 15 to 20)
#    0.000    2.182    1.818    1.636    0.000    3.273 
#    1.636    0.000    0.000    0.545    0.000    0.000 
#    0.000    0.000    0.000    0.000    0.000    0.000 
#
# Total GULP energy -545213.567183 kJ/mol
# GULP energy per Si atom -12391.217436 kJ/mol
# Density = 1.800372 g / cm^3
# Si number density = 18.044793 Si / 1000 Ang^3
#
#
#
# Elastic Constant Matrix: (Units=GPa)
#
#
# Indices 1 2 3 4 5 6 
#
# 1 137.4855 63.3377 37.6228 0.0000 0.0000 0.0000
# 2 63.3377 84.6074 24.9862 0.0000 0.0000 0.0000
# 3 37.6228 24.9862 55.9971 0.0000 0.0000 0.0000
# 4 0.0000 0.0000 0.0000 24.1909 0.0000 0.0000
# 5 0.0000 0.0000 0.0000 0.0000 27.1832 0.0000
# 6 0.0000 0.0000 0.0000 0.0000 0.0000 29.2748
#
#
#
# Elastic Compliance Matrix: (Units=1/GPa)
#
#
# Indices 1 2 3 4 5 6 
#
# 1 0.012091 -0.007662 -0.004705 0.000000 0.000000 0.000000
# 2 -0.007662 0.018468 -0.003093 0.000000 0.000000 0.000000
# 3 -0.004705 -0.003093 0.022399 0.000000 0.000000 0.000000
# 4 0.000000 0.000000 0.000000 0.041338 0.000000 0.000000
# 5 0.000000 0.000000 0.000000 0.000000 0.036787 0.000000
# 6 0.000000 0.000000 0.000000 0.000000 0.000000 0.034159
#
#
# Mechanical properties :
#
#
# Convention : Reuss Voigt Hill
#
# Bulk Modulus (GPa) = 45.37335 58.88704 52.13020
# Shear Modulus (GPa) = 24.56913 26.27266 25.42090
#
# Velocity S-wave (km/s) = 3.69394 3.81986 3.75743
# Velocity P-wave (km/s) = 6.58734 7.22217 6.91205
#
# Compressibility (1/GPa) = 0.02203937
#
# Stress axis : x y z
#
# Youngs Moduli (GPa) = 82.70925 54.14680 44.64470
#
# Poissons Ratio (x) = 0.41486 0.21004
# Poissons Ratio (y) = 0.63369 0.13808
# Poissons Ratio (z) = 0.38911 0.16747
#
# Static dielectric constant tensor:
#      x y z
#    x 4.116830 0.000000 0.000000 
#    y 0.000000 2.916660 0.000000 
#    z 0.000000 0.000000 3.356090 
# 
# 
# High freq. dielectric constant tensor:
#      x y z
#    x 1.724940 0.000000 0.000000 
#    y 0.000000 1.649810 0.000000 
#    z 0.000000 0.000000 1.704230 
# 
# From -- ./inp_files/6870.got.cif
#   From: 2010.03.12/outbox.cif.g09.slc.cpg/sg63_4_cif.got.tgz:6870.got - 2010.04.10 19:34:48.
