data_PCOD8258842
_publ_section_title
;
Structure prediction by ZEFSAII (Michael W. Deem and Ramdas Pophale) SiO2 
 PCOD8258842
Probable space group: C M C M
;
_chemical_formula_sum "Si O2"
_cell_formula_units_Z 80
_cell_length_a 28.687754
_cell_length_b 15.108984
_cell_length_c 9.460592
_cell_angle_alpha 90.000000
_cell_angle_beta 90.000000
_cell_angle_gamma 90.000000
_cell_volume 4100.625639
_symmetry_space_group_name_H-M "C M C M"
_symmetry_group_IT_number 63
_symmetry_cell_setting 'orthorhombic'
loop_
_space_group_symop_operation_xyz
x,y,z
-x,-y,1/2+z
x,-y,-z
-x,y,1/2-z
-x,-y,-z
x,y,1/2-z
-x,y,z
x,-y,1/2+z
1/2+x,1/2+y,z
1/2-x,1/2-y,1/2+z
1/2+x,1/2-y,-z
1/2-x,1/2+y,1/2-z
1/2-x,1/2-y,-z
1/2+x,1/2+y,1/2-z
1/2-x,1/2+y,z
1/2+x,1/2-y,1/2+z
loop_
_atom_site_type_symbol
_atom_site_label
_atom_site_fract_x
_atom_site_fract_y
_atom_site_fract_z
Si Si1 0.053357 0.574436 0.403991
Si Si2 0.708313 0.413474 0.415724
Si Si3 0.183691 0.583900 0.911255
Si Si4 0.550733 0.243369 0.591564
Si Si5 0.150670 0.776848 0.911148
O O1 0.078815 0.500000 0.500000
O O2 0.077848 0.578834 0.250000
O O3 0.056370 0.668558 0.476367
O O4 0.000000 0.545822 0.382981
O O5 0.691281 0.500000 0.500000
O O6 0.697102 0.424951 0.250000
O O7 0.762397 0.395200 0.444669
O O8 0.680663 0.330098 0.476659
O O9 0.177186 0.556422 0.750000
O O10 0.154487 0.672144 0.948398
O O11 0.165676 0.500000 0.000000
O O12 0.552262 0.202028 0.750000
O O13 0.500000 0.291833 0.569883
O O14 0.596041 0.306484 0.574161
O O15 0.168513 0.793429 0.750000
#
# Coordination Sequence:
#
# PCOD8258842 Si02
#       5
#    16  16  16  16  16
#     4   9  16  26  41  60  84 118 161 207 251 295
#     4  10  20  35  56  80 105 134 169 211 261 315
#     4   9  19  34  52  77 109 142 173 208 252 304
#     4   9  18  32  48  67  95 132 171 211 255 300
#     4  10  20  34  53  78 107 138 174 215 258 306
#
# _framework density 19.509218000000001
#
# number of rings (size 3 to 8) (size 9 to 14) (size 15 to 20)
#    0.000    2.600    0.000    1.800    0.000    5.600 
#    0.000    2.000    0.000    0.600    0.000    0.000 
#    0.000    0.000    0.000    0.000    0.000    0.000 
#
# Total GULP energy -495715.318336 kJ/mol
# GULP energy per Si atom -12392.882958 kJ/mol
# Density = 1.946481 g / cm^3
# Si number density = 19.509218 Si / 1000 Ang^3
#
#
#
# Elastic Constant Matrix: (Units=GPa)
#
#
# Indices 1 2 3 4 5 6 
#
# 1 94.1269 27.3815 36.1172 0.0000 0.0000 0.0000
# 2 27.3815 56.9754 30.4735 0.0000 0.0000 0.0000
# 3 36.1172 30.4735 113.3463 0.0000 0.0000 0.0000
# 4 0.0000 0.0000 0.0000 35.2376 0.0000 0.0000
# 5 0.0000 0.0000 0.0000 0.0000 14.5932 0.0000
# 6 0.0000 0.0000 0.0000 0.0000 0.0000 7.1480
#
#
#
# Elastic Compliance Matrix: (Units=1/GPa)
#
#
# Indices 1 2 3 4 5 6 
#
# 1 0.013120 -0.004753 -0.002903 0.000000 0.000000 0.000000
# 2 -0.004753 0.022221 -0.004460 0.000000 0.000000 0.000000
# 3 -0.002903 -0.004460 0.010947 0.000000 0.000000 0.000000
# 4 0.000000 0.000000 0.000000 0.028379 0.000000 0.000000
# 5 0.000000 0.000000 0.000000 0.000000 0.068525 0.000000
# 6 0.000000 0.000000 0.000000 0.000000 0.000000 0.139900
#
#
# Mechanical properties :
#
#
# Convention : Reuss Voigt Hill
#
# Bulk Modulus (GPa) = 45.33727 50.26588 47.80158
# Shear Modulus (GPa) = 15.88942 22.76083 19.32513
#
# Velocity S-wave (km/s) = 2.85697 3.41936 3.15074
# Velocity P-wave (km/s) = 5.84571 6.43510 6.14747
#
# Compressibility (1/GPa) = 0.02205691
#
# Stress axis : x y z
#
# Youngs Moduli (GPa) = 76.21696 45.00274 91.35310
#
# Poissons Ratio (x) = 0.21389 0.26519
# Poissons Ratio (y) = 0.36225 0.40741
# Poissons Ratio (z) = 0.22125 0.20070
#
# Static dielectric constant tensor:
#      x y z
#    x 3.777860 0.000000 0.000000 
#    y 0.000000 3.097750 0.000000 
#    z 0.000000 0.000000 3.731370 
# 
# 
# High freq. dielectric constant tensor:
#      x y z
#    x 1.767560 0.000000 0.000000 
#    y 0.000000 1.708730 0.000000 
#    z 0.000000 0.000000 1.770460 
# 
# From -- ./inp_files/12042.got.cif
#   From: 2010.03.12/outbox.cif.g09.slc.cpg/sg63_7_cif.got.tgz:12042.got - 2010.04.10 19:34:48.
