data_PCOD8258374
_publ_section_title
;
Structure prediction by ZEFSAII (Michael W. Deem and Ramdas Pophale) SiO2 
 PCOD8258374
Probable space group: C M C M
;
_chemical_formula_sum "Si O2"
_cell_formula_units_Z 96
_cell_length_a 9.333948
_cell_length_b 25.050013
_cell_length_c 23.258017
_cell_angle_alpha 90.000000
_cell_angle_beta 90.000000
_cell_angle_gamma 90.000000
_cell_volume 5438.085310
_symmetry_space_group_name_H-M "C M C M"
_symmetry_group_IT_number 63
_symmetry_cell_setting 'orthorhombic'
loop_
_space_group_symop_operation_xyz
x,y,z
-x,-y,1/2+z
x,-y,-z
-x,y,1/2-z
-x,-y,-z
x,y,1/2-z
-x,y,z
x,-y,1/2+z
1/2+x,1/2+y,z
1/2-x,1/2-y,1/2+z
1/2+x,1/2-y,-z
1/2-x,1/2+y,1/2-z
1/2-x,1/2-y,-z
1/2+x,1/2+y,1/2-z
1/2-x,1/2+y,z
1/2+x,1/2-y,1/2+z
loop_
_atom_site_type_symbol
_atom_site_label
_atom_site_fract_x
_atom_site_fract_y
_atom_site_fract_z
Si Si1 0.168226 0.551222 0.816354
Si Si2 0.664712 0.659213 0.117928
Si Si3 0.165475 0.746352 0.314740
Si Si4 0.665717 0.555007 0.183664
Si Si5 0.665669 0.644463 0.624528
Si Si6 0.664770 0.695595 0.506140
O O1 0.202679 0.564642 0.750000
O O2 0.238566 0.495206 0.833792
O O3 0.235193 0.595957 0.856721
O O4 0.000000 0.547648 0.827857
O O5 0.500000 0.667198 0.135134
O O6 0.748532 0.709372 0.142343
O O7 0.721184 0.604031 0.144820
O O8 0.686634 0.657942 0.049326
O O9 0.220811 0.737693 0.250000
O O10 0.190672 0.807648 0.331028
O O11 0.000000 0.730957 0.320658
O O12 0.688885 0.570963 0.250000
O O13 0.500000 0.541225 0.171224
O O14 0.500000 0.626184 0.624506
O O15 0.717085 0.662274 0.561211
O O16 0.500000 0.712093 0.514614
O O17 0.750000 0.750000 0.500000
#
# Coordination Sequence:
#
# PCOD8258374 Si02
#       6
#    16  16  16  16  16  16
#     4  10  21  36  55  80 106 134 174 223 270 313
#     4  10  20  34  54  80 107 137 177 221 264 310
#     4  10  20  32  49  76 108 140 174 214 262 317
#     4   9  18  34  55  77 104 139 174 211 263 322
#     4  10  20  35  54  76 105 143 181 213 258 319
#     4  10  20  35  55  78 106 142 181 218 259 310
#
# _framework density 17.653271
#
# number of rings (size 3 to 8) (size 9 to 14) (size 15 to 20)
#    0.000    2.167    1.667    1.500    0.000    4.667 
#    0.000    2.500    0.000    5.000    0.000    0.000 
#    0.000    0.000    0.000    0.000    0.000    0.000 
#
# Total GULP energy -595354.647870 kJ/mol
# GULP energy per Si atom -12403.221831 kJ/mol
# Density = 1.761309 g / cm^3
# Si number density = 17.653271 Si / 1000 Ang^3
#
#
#
# Elastic Constant Matrix: (Units=GPa)
#
#
# Indices 1 2 3 4 5 6 
#
# 1 62.1398 50.2283 31.6163 0.0000 0.0000 0.0000
# 2 50.2283 105.6232 42.6886 0.0000 0.0000 0.0000
# 3 31.6163 42.6886 89.7477 0.0000 0.0000 0.0000
# 4 0.0000 0.0000 0.0000 28.1087 0.0000 0.0000
# 5 0.0000 0.0000 0.0000 0.0000 24.5798 0.0000
# 6 0.0000 0.0000 0.0000 0.0000 0.0000 28.3446
#
#
#
# Elastic Compliance Matrix: (Units=1/GPa)
#
#
# Indices 1 2 3 4 5 6 
#
# 1 0.027406 -0.011304 -0.004278 0.000000 0.000000 0.000000
# 2 -0.011304 0.016383 -0.003811 0.000000 0.000000 0.000000
# 3 -0.004278 -0.003811 0.014462 0.000000 0.000000 0.000000
# 4 0.000000 0.000000 0.000000 0.035576 0.000000 0.000000
# 5 0.000000 0.000000 0.000000 0.000000 0.040684 0.000000
# 6 0.000000 0.000000 0.000000 0.000000 0.000000 0.035280
#
#
# Mechanical properties :
#
#
# Convention : Reuss Voigt Hill
#
# Bulk Modulus (GPa) = 51.37011 56.28635 53.82823
# Shear Modulus (GPa) = 23.24873 25.07178 24.16026
#
# Velocity S-wave (km/s) = 3.63294 3.77269 3.70347
# Velocity P-wave (km/s) = 6.83815 7.13661 6.98897
#
# Compressibility (1/GPa) = 0.01946657
#
# Stress axis : x y z
#
# Youngs Moduli (GPa) = 36.48773 61.03827 69.14724
#
# Poissons Ratio (x) = 0.68997 0.29581
# Poissons Ratio (y) = 0.41245 0.26349
# Poissons Ratio (z) = 0.15610 0.23259
#
# Static dielectric constant tensor:
#      x y z
#    x 3.247200 0.000000 0.000000 
#    y 0.000000 3.174090 0.000000 
#    z 0.000000 0.000000 3.517470 
# 
# 
# High freq. dielectric constant tensor:
#      x y z
#    x 1.679430 0.000000 0.000000 
#    y 0.000000 1.678080 0.000000 
#    z 0.000000 0.000000 1.687280 
# 
# From -- ./inp_files/51430.got.cif
#   From: 2010.03.12/outbox.cif.g09.slc.cpg/sg63_26_cif.got.tgz:51430.got - 2010.04.10 19:34:48.
