data_PCOD8258970
_publ_section_title
;
Structure prediction by ZEFSAII (Michael W. Deem and Ramdas Pophale) SiO2 
 PCOD8258970
Probable space group: C M C M
;
_chemical_formula_sum "Si O2"
_cell_formula_units_Z 104
_cell_length_a 20.721270
_cell_length_b 28.753321
_cell_length_c 8.771142
_cell_angle_alpha 90.000000
_cell_angle_beta 90.000000
_cell_angle_gamma 90.000000
_cell_volume 5225.893135
_symmetry_space_group_name_H-M "C M C M"
_symmetry_group_IT_number 63
_symmetry_cell_setting 'orthorhombic'
loop_
_space_group_symop_operation_xyz
x,y,z
-x,-y,1/2+z
x,-y,-z
-x,y,1/2-z
-x,-y,-z
x,y,1/2-z
-x,y,z
x,-y,1/2+z
1/2+x,1/2+y,z
1/2-x,1/2-y,1/2+z
1/2+x,1/2-y,-z
1/2-x,1/2+y,1/2-z
1/2-x,1/2-y,-z
1/2+x,1/2+y,1/2-z
1/2-x,1/2+y,z
1/2+x,1/2-y,1/2+z
loop_
_atom_site_type_symbol
_atom_site_label
_atom_site_fract_x
_atom_site_fract_y
_atom_site_fract_z
Si Si1 0.315620 0.700994 0.928668
Si Si2 0.129230 0.951316 0.928821
Si Si3 0.736686 0.952838 0.425132
Si Si4 0.071990 0.866300 0.424801
Si Si5 0.614701 0.110204 0.925430
Si Si6 0.317896 0.807516 0.571166
Si Si7 0.500000 0.948067 0.930942
O O1 0.301416 0.696542 0.750000
O O2 0.378324 0.672707 0.981532
O O3 0.330283 0.754084 0.974533
O O4 0.253917 0.679561 0.014644
O O5 0.132798 0.957166 0.750000
O O6 0.198871 0.935532 0.991843
O O7 0.077710 0.912406 0.973912
O O8 0.107037 0.000000 0.000000
O O9 0.753369 0.962880 0.250000
O O10 0.683418 0.913906 0.444182
O O11 0.709981 0.000000 0.500000
O O12 0.086239 0.879667 0.250000
O O13 0.000000 0.846099 0.444746
O O14 0.592348 0.113029 0.750000
O O15 0.625801 0.161912 0.991809
O O16 0.562379 0.080955 0.018421
O O17 0.322468 0.816385 0.750000
O O18 0.500000 0.953360 0.750000
O O19 0.500000 0.000000 0.000000
#
# Coordination Sequence:
#
# PCOD8258970 Si02
#       7
#    16  16  16  16  16  16   8
#     4   9  19  37  59  86 117 152 193 238 293 354
#     4  11  22  36  56  82 113 146 184 233 280 333
#     4  10  20  34  55  82 111 145 185 232 282 336
#     4  10  21  38  58  79 108 148 189 230 278 335
#     4  11  23  39  59  85 118 156 196 241 295 352
#     4  10  20  35  59  90 118 149 192 242 295 348
#     4  12  26  44  64  86 118 160 204 250 299 362
#
# _framework density 19.900905000000002
#
# number of rings (size 3 to 8) (size 9 to 14) (size 15 to 20)
#    0.000    1.692    0.000    5.769    0.000    9.231 
#    1.385    0.000    0.000    0.000    0.000    0.000 
#    0.000    0.000    0.000    0.000    0.000    0.000 
#
# Total GULP energy -644952.283594 kJ/mol
# GULP energy per Si atom -12402.928531 kJ/mol
# Density = 1.985561 g / cm^3
# Si number density = 19.900905 Si / 1000 Ang^3
#
#
#
# Elastic Constant Matrix: (Units=GPa)
#
#
# Indices 1 2 3 4 5 6 
#
# 1 95.5535 64.5641 45.1182 0.0000 0.0000 0.0000
# 2 64.5641 111.9277 48.3637 0.0000 0.0000 0.0000
# 3 45.1182 48.3637 122.9073 0.0000 0.0000 0.0000
# 4 0.0000 0.0000 0.0000 33.1466 0.0000 0.0000
# 5 0.0000 0.0000 0.0000 0.0000 31.1923 0.0000
# 6 0.0000 0.0000 0.0000 0.0000 0.0000 30.7780
#
#
#
# Elastic Compliance Matrix: (Units=1/GPa)
#
#
# Indices 1 2 3 4 5 6 
#
# 1 0.018049 -0.009095 -0.003047 0.000000 0.000000 0.000000
# 2 -0.009095 0.015348 -0.002701 0.000000 0.000000 0.000000
# 3 -0.003047 -0.002701 0.010317 0.000000 0.000000 0.000000
# 4 0.000000 0.000000 0.000000 0.030169 0.000000 0.000000
# 5 0.000000 0.000000 0.000000 0.000000 0.032059 0.000000
# 6 0.000000 0.000000 0.000000 0.000000 0.000000 0.032491
#
#
# Mechanical properties :
#
#
# Convention : Reuss Voigt Hill
#
# Bulk Modulus (GPa) = 71.27878 71.83118 71.55498
# Shear Modulus (GPa) = 28.93608 30.51288 29.72448
#
# Velocity S-wave (km/s) = 3.81728 3.91991 3.86894
# Velocity P-wave (km/s) = 7.43798 7.52731 7.48278
#
# Compressibility (1/GPa) = 0.01402942
#
# Stress axis : x y z
#
# Youngs Moduli (GPa) = 55.40349 65.15689 96.92403
#
# Poissons Ratio (x) = 0.59260 0.29532
# Poissons Ratio (y) = 0.50390 0.26175
# Poissons Ratio (z) = 0.16881 0.17596
#
# Static dielectric constant tensor:
#      x y z
#    x 3.552620 0.000000 0.000000 
#    y 0.000000 3.671240 0.000000 
#    z 0.000000 0.000000 3.688100 
# 
# 
# High freq. dielectric constant tensor:
#      x y z
#    x 1.768360 0.000000 0.000000 
#    y 0.000000 1.783030 0.000000 
#    z 0.000000 0.000000 1.782140 
# 
# From -- ./inp_files/8722.got.cif
#   From: 2010.03.12/outbox.cif.g09.slc.cpg/sg63_5_cif.got.tgz:8722.got - 2010.04.10 19:34:48.
