data_PCOD8258775
_publ_section_title
;
Structure prediction by ZEFSAII (Michael W. Deem and Ramdas Pophale) SiO2 
 PCOD8258775
Probable space group: C M C M
;
_chemical_formula_sum "Si O2"
_cell_formula_units_Z 80
_cell_length_a 31.206433
_cell_length_b 15.026860
_cell_length_c 8.864812
_cell_angle_alpha 90.000000
_cell_angle_beta 90.000000
_cell_angle_gamma 90.000000
_cell_volume 4157.017954
_symmetry_space_group_name_H-M "C M C M"
_symmetry_group_IT_number 63
_symmetry_cell_setting 'orthorhombic'
loop_
_space_group_symop_operation_xyz
x,y,z
-x,-y,1/2+z
x,-y,-z
-x,y,1/2-z
-x,-y,-z
x,y,1/2-z
-x,y,z
x,-y,1/2+z
1/2+x,1/2+y,z
1/2-x,1/2-y,1/2+z
1/2+x,1/2-y,-z
1/2-x,1/2+y,1/2-z
1/2-x,1/2-y,-z
1/2+x,1/2+y,1/2-z
1/2-x,1/2+y,z
1/2+x,1/2-y,1/2+z
loop_
_atom_site_type_symbol
_atom_site_label
_atom_site_fract_x
_atom_site_fract_y
_atom_site_fract_z
Si Si1 0.387455 0.273391 0.571215
Si Si2 0.724985 0.128392 0.084928
Si Si3 0.196777 0.171114 0.915626
Si Si4 0.868256 0.589055 0.069829
Si Si5 0.949539 0.091845 0.575818
O O1 0.388180 0.264048 0.750000
O O2 0.344607 0.326026 0.522603
O O3 0.391029 0.175728 0.497777
O O4 0.428327 0.327145 0.513489
O O5 0.734007 0.088000 0.250000
O O6 0.718081 0.233217 0.099837
O O7 0.681495 0.087304 0.016618
O O8 0.766380 0.106037 0.982357
O O9 0.182941 0.136280 0.750000
O O10 0.872681 0.591906 0.250000
O O11 0.889809 0.500000 0.000000
O O12 0.935096 0.091873 0.750000
O O13 0.000000 0.104702 0.559430
O O14 0.934453 0.000000 0.500000
#
# Coordination Sequence:
#
# PCOD8258775 Si02
#       5
#    16  16  16  16  16
#     4  11  21  34  55  81 111 146 183 223 269 322
#     4   8  15  27  43  65  95 133 177 223 269 314
#     4   9  16  27  45  69  98 133 176 223 268 314
#     4  10  20  34  52  76 108 146 190 234 274 319
#     4  10  21  39  63  89 115 140 169 210 263 325
#
# _framework density 19.244565000000001
#
# number of rings (size 3 to 8) (size 9 to 14) (size 15 to 20)
#    0.000    2.400    0.000    4.800    0.000    6.800 
#    0.000    1.000    0.000    3.000    0.000    0.000 
#    0.000    0.000    0.000    0.000    0.000    0.000 
#
# Total GULP energy -495858.331641 kJ/mol
# GULP energy per Si atom -12396.458291 kJ/mol
# Density = 1.920076 g / cm^3
# Si number density = 19.244565 Si / 1000 Ang^3
#
#
#
# Elastic Constant Matrix: (Units=GPa)
#
#
# Indices 1 2 3 4 5 6 
#
# 1 49.7894 40.2396 39.0919 0.0000 0.0000 0.0000
# 2 40.2396 103.3686 55.7461 0.0000 0.0000 0.0000
# 3 39.0919 55.7461 145.8097 0.0000 0.0000 0.0000
# 4 0.0000 0.0000 0.0000 28.8920 0.0000 0.0000
# 5 0.0000 0.0000 0.0000 0.0000 27.7994 0.0000
# 6 0.0000 0.0000 0.0000 0.0000 0.0000 14.9915
#
#
#
# Elastic Compliance Matrix: (Units=1/GPa)
#
#
# Indices 1 2 3 4 5 6 
#
# 1 0.031734 -0.009782 -0.004768 0.000000 0.000000 0.000000
# 2 -0.009782 0.015202 -0.003190 0.000000 0.000000 0.000000
# 3 -0.004768 -0.003190 0.009356 0.000000 0.000000 0.000000
# 4 0.000000 0.000000 0.000000 0.034612 0.000000 0.000000
# 5 0.000000 0.000000 0.000000 0.000000 0.035972 0.000000
# 6 0.000000 0.000000 0.000000 0.000000 0.000000 0.066704
#
#
# Mechanical properties :
#
#
# Convention : Reuss Voigt Hill
#
# Bulk Modulus (GPa) = 48.04720 63.23588 55.64154
# Shear Modulus (GPa) = 21.18668 25.26260 23.22464
#
# Velocity S-wave (km/s) = 3.32161 3.62707 3.47769
# Velocity P-wave (km/s) = 6.30330 7.10431 6.71576
#
# Compressibility (1/GPa) = 0.02081287
#
# Stress axis : x y z
#
# Youngs Moduli (GPa) = 31.51185 65.77978 106.88326
#
# Poissons Ratio (x) = 0.64347 0.50963
# Poissons Ratio (y) = 0.30825 0.34091
# Poissons Ratio (z) = 0.15025 0.20981
#
# Static dielectric constant tensor:
#      x y z
#    x 3.288560 0.000000 0.000000 
#    y 0.000000 3.396380 0.000000 
#    z 0.000000 0.000000 3.857340 
# 
# 
# High freq. dielectric constant tensor:
#      x y z
#    x 1.719150 0.000000 0.000000 
#    y 0.000000 1.733850 0.000000 
#    z 0.000000 0.000000 1.764340 
# 
# From -- ./inp_files/14051.got.cif
#   From: 2010.03.12/outbox.cif.g09.slc.cpg/sg63_8_cif.got.tgz:14051.got - 2010.04.10 19:34:48.
