data_PCOD8258889
_publ_section_title
;
Structure prediction by ZEFSAII (Michael W. Deem and Ramdas Pophale) SiO2 
 PCOD8258889
Probable space group: C M C M
;
_chemical_formula_sum "Si O2"
_cell_formula_units_Z 80
_cell_length_a 29.736042
_cell_length_b 5.273798
_cell_length_c 29.736286
_cell_angle_alpha 90.000000
_cell_angle_beta 90.000000
_cell_angle_gamma 90.000000
_cell_volume 4663.300240
_symmetry_space_group_name_H-M "C M C M"
_symmetry_group_IT_number 63
_symmetry_cell_setting 'orthorhombic'
loop_
_space_group_symop_operation_xyz
x,y,z
-x,-y,1/2+z
x,-y,-z
-x,y,1/2-z
-x,-y,-z
x,y,1/2-z
-x,y,z
x,-y,1/2+z
1/2+x,1/2+y,z
1/2-x,1/2-y,1/2+z
1/2+x,1/2-y,-z
1/2-x,1/2+y,1/2-z
1/2-x,1/2-y,-z
1/2+x,1/2+y,1/2-z
1/2-x,1/2+y,z
1/2+x,1/2-y,1/2+z
loop_
_atom_site_type_symbol
_atom_site_label
_atom_site_fract_x
_atom_site_fract_y
_atom_site_fract_z
Si Si1 0.949031 0.501567 0.300968
Si Si2 0.904445 0.745093 0.621202
Si Si3 0.553273 0.749972 0.475421
Si Si4 0.128797 0.251766 0.845559
Si Si5 0.274581 0.747231 0.803273
O O1 0.941925 0.403795 0.250000
O O2 0.938382 0.272846 0.335895
O O3 0.914105 0.730289 0.311619
O O4 0.000000 0.599342 0.308072
O O5 0.932924 0.750665 0.576162
O O6 0.871608 0.498452 0.621616
O O7 0.874829 0.998454 0.624813
O O8 0.572736 0.500000 0.500000
O O9 0.500000 0.750000 0.478024
O O10 0.572697 0.000000 0.500000
O O11 0.173838 0.246012 0.817084
O O12 0.271987 0.747650 0.750000
O O13 0.250079 0.997487 0.822713
#
# Coordination Sequence:
#
# PCOD8258889 Si02
#       5
#    16  16  16  16  16
#     4   9  20  34  50  73 107 152 188 215 251 306
#     4  10  21  35  53  76 109 143 184 221 270 313
#     4  10  20  34  54  78 106 142 185 231 279 325
#     4  10  21  35  53  76 109 142 183 221 270 314
#     4  10  20  34  54  78 106 142 185 231 279 325
#
# _framework density 17.155234
#
# number of rings (size 3 to 8) (size 9 to 14) (size 15 to 20)
#    1.200    1.000    0.000    3.600    0.000    3.200 
#    0.000    2.000    0.000    0.000    0.000    0.000 
#    0.000   56.000    0.000    0.000    0.000    0.000 
#
# Total GULP energy -495682.070593 kJ/mol
# GULP energy per Si atom -12392.051765 kJ/mol
# Density = 1.711619 g / cm^3
# Si number density = 17.155234 Si / 1000 Ang^3
#
#
#
# Elastic Constant Matrix: (Units=GPa)
#
#
# Indices 1 2 3 4 5 6 
#
# 1 84.2611 39.4920 14.7979 0.0000 0.0000 0.0000
# 2 39.4920 155.2074 39.4969 0.0000 0.0000 0.0000
# 3 14.7979 39.4969 84.1940 0.0000 0.0000 0.0000
# 4 0.0000 0.0000 0.0000 15.8728 0.0000 0.0000
# 5 0.0000 0.0000 0.0000 0.0000 25.4747 0.0000
# 6 0.0000 0.0000 0.0000 0.0000 0.0000 16.0310
#
#
#
# Elastic Compliance Matrix: (Units=1/GPa)
#
#
# Indices 1 2 3 4 5 6 
#
# 1 0.013530 -0.003222 -0.000866 0.000000 0.000000 0.000000
# 2 -0.003222 0.008084 -0.003226 0.000000 0.000000 0.000000
# 3 -0.000866 -0.003226 0.013543 0.000000 0.000000 0.000000
# 4 0.000000 0.000000 0.000000 0.063001 0.000000 0.000000
# 5 0.000000 0.000000 0.000000 0.000000 0.039255 0.000000
# 6 0.000000 0.000000 0.000000 0.000000 0.000000 0.062379
#
#
# Mechanical properties :
#
#
# Convention : Reuss Voigt Hill
#
# Bulk Modulus (GPa) = 48.71446 56.80401 52.75924
# Shear Modulus (GPa) = 22.59749 26.80075 24.69912
#
# Velocity S-wave (km/s) = 3.63331 3.95682 3.79851
# Velocity P-wave (km/s) = 6.78669 7.35247 7.07524
#
# Compressibility (1/GPa) = 0.02052779
#
# Stress axis : x y z
#
# Youngs Moduli (GPa) = 73.90849 123.70416 73.83912
#
# Poissons Ratio (x) = 0.39860 0.06398
# Poissons Ratio (y) = 0.23815 0.23820
# Poissons Ratio (z) = 0.06404 0.39906
#
# Static dielectric constant tensor:
#      x y z
#    x 2.977490 0.000000 0.000000 
#    y 0.000000 3.572220 0.000000 
#    z 0.000000 0.000000 2.977790 
# 
# 
# High freq. dielectric constant tensor:
#      x y z
#    x 1.639740 0.000000 0.000000 
#    y 0.000000 1.672720 0.000000 
#    z 0.000000 0.000000 1.639740 
# 
# From -- ./inp_files/74202.got.cif
#   From: 2010.03.12/outbox.cif.g09.slc.cpg/sg63_38_cif.got.tgz:74202.got - 2010.04.10 19:34:48.
