data_PCOD8258219
_publ_section_title
;
Structure prediction by ZEFSAII (Michael W. Deem and Ramdas Pophale) SiO2 
 PCOD8258219
Probable space group: C M C M
;
_chemical_formula_sum "Si O2"
_cell_formula_units_Z 96
_cell_length_a 9.321331
_cell_length_b 27.717727
_cell_length_c 23.227295
_cell_angle_alpha 90.000000
_cell_angle_beta 90.000000
_cell_angle_gamma 90.000000
_cell_volume 6001.145807
_symmetry_space_group_name_H-M "C M C M"
_symmetry_group_IT_number 63
_symmetry_cell_setting 'orthorhombic'
loop_
_space_group_symop_operation_xyz
x,y,z
-x,-y,1/2+z
x,-y,-z
-x,y,1/2-z
-x,-y,-z
x,y,1/2-z
-x,y,z
x,-y,1/2+z
1/2+x,1/2+y,z
1/2-x,1/2-y,1/2+z
1/2+x,1/2-y,-z
1/2-x,1/2+y,1/2-z
1/2-x,1/2-y,-z
1/2+x,1/2+y,1/2-z
1/2-x,1/2+y,z
1/2+x,1/2-y,1/2+z
loop_
_atom_site_type_symbol
_atom_site_label
_atom_site_fract_x
_atom_site_fract_y
_atom_site_fract_z
Si Si1 0.832289 0.180843 0.470070
Si Si2 0.666472 0.071625 0.683197
Si Si3 0.669058 0.426333 0.520556
Si Si4 0.165508 0.832378 0.184171
Si Si5 0.665676 0.262106 0.415404
Si Si6 0.669419 0.517331 0.909257
O O1 0.767633 0.126699 0.466781
O O2 0.755753 0.213112 0.421612
O O3 0.797560 0.200959 0.533358
O O4 0.000000 0.181629 0.456415
O O5 0.690012 0.059893 0.750000
O O6 0.500000 0.074254 0.666869
O O7 0.738138 0.122345 0.666513
O O8 0.743344 0.028894 0.648397
O O9 0.500000 0.422554 0.514422
O O10 0.708793 0.462627 0.572342
O O11 0.724641 0.446790 0.459547
O O12 0.192581 0.816865 0.250000
O O13 0.209094 0.787237 0.144533
O O14 0.000000 0.846942 0.173384
O O15 0.500000 0.247511 0.416395
O O16 0.500000 0.522795 0.897967
#
# Coordination Sequence:
#
# PCOD8258219 Si02
#       6
#    16  16  16  16  16  16
#     4   9  16  27  43  63  89 117 141 170 213 259
#     4  10  20  31  43  64  94 120 142 175 219 262
#     4   8  15  28  47  69  89 112 145 184 220 254
#     4   9  17  30  48  66  84 111 147 182 215 255
#     4   9  17  28  43  65  89 112 142 178 212 251
#     4   9  16  29  49  68  87 114 148 182 216 257
#
# _framework density 15.996945
#
# number of rings (size 3 to 8) (size 9 to 14) (size 15 to 20)
#    0.000    3.000    0.000    2.500    0.000    4.333 
#    0.000    6.667    0.000    1.000    0.000    4.667 
#    0.000    0.000    0.000    0.000    0.000    0.000 
#
# Total GULP energy -595139.945025 kJ/mol
# GULP energy per Si atom -12398.748855 kJ/mol
# Density = 1.596053 g / cm^3
# Si number density = 15.996945 Si / 1000 Ang^3
#
#
#
# Elastic Constant Matrix: (Units=GPa)
#
#
# Indices 1 2 3 4 5 6 
#
# 1 56.2671 47.3503 39.6040 0.0000 0.0000 0.0000
# 2 47.3503 138.7351 56.4264 0.0000 0.0000 0.0000
# 3 39.6040 56.4264 78.4509 0.0000 0.0000 0.0000
# 4 0.0000 0.0000 0.0000 27.4673 0.0000 0.0000
# 5 0.0000 0.0000 0.0000 0.0000 22.7597 0.0000
# 6 0.0000 0.0000 0.0000 0.0000 0.0000 23.8475
#
#
#
# Elastic Compliance Matrix: (Units=1/GPa)
#
#
# Indices 1 2 3 4 5 6 
#
# 1 0.030630 -0.005887 -0.011228 0.000000 0.000000 0.000000
# 2 -0.005887 0.011320 -0.005170 0.000000 0.000000 0.000000
# 3 -0.011228 -0.005170 0.022134 0.000000 0.000000 0.000000
# 4 0.000000 0.000000 0.000000 0.036407 0.000000 0.000000
# 5 0.000000 0.000000 0.000000 0.000000 0.043937 0.000000
# 6 0.000000 0.000000 0.000000 0.000000 0.000000 0.041933
#
#
# Mechanical properties :
#
#
# Convention : Reuss Voigt Hill
#
# Bulk Modulus (GPa) = 51.24910 62.24606 56.74758
# Shear Modulus (GPa) = 21.05831 23.48639 22.27235
#
# Velocity S-wave (km/s) = 3.63215 3.83584 3.73539
# Velocity P-wave (km/s) = 7.04957 7.65597 7.35902
#
# Compressibility (1/GPa) = 0.01951254
#
# Stress axis : x y z
#
# Youngs Moduli (GPa) = 32.64804 88.33900 45.17985
#
# Poissons Ratio (x) = 0.52006 0.50729
# Poissons Ratio (y) = 0.19220 0.23358
# Poissons Ratio (z) = 0.36658 0.45672
#
# Static dielectric constant tensor:
#      x y z
#    x 2.893510 0.000000 0.000000 
#    y 0.000000 3.203720 0.000000 
#    z 0.000000 0.000000 2.967100 
# 
# 
# High freq. dielectric constant tensor:
#      x y z
#    x 1.598380 0.000000 0.000000 
#    y 0.000000 1.608530 0.000000 
#    z 0.000000 0.000000 1.603060 
# 
# From -- ./inp_files/60194.got.cif
#   From: 2010.03.12/outbox.cif.g09.slc.cpg/sg63_31_cif.got.tgz:60194.got - 2010.04.10 19:34:48.
