data_PCOD8258796
_publ_section_title
;
Structure prediction by ZEFSAII (Michael W. Deem and Ramdas Pophale) SiO2 
 PCOD8258796
Probable space group: C M C M
;
_chemical_formula_sum "Si O2"
_cell_formula_units_Z 80
_cell_length_a 9.307266
_cell_length_b 25.646383
_cell_length_c 18.321501
_cell_angle_alpha 90.000000
_cell_angle_beta 90.000000
_cell_angle_gamma 90.000000
_cell_volume 4373.300305
_symmetry_space_group_name_H-M "C M C M"
_symmetry_group_IT_number 63
_symmetry_cell_setting 'orthorhombic'
loop_
_space_group_symop_operation_xyz
x,y,z
-x,-y,1/2+z
x,-y,-z
-x,y,1/2-z
-x,-y,-z
x,y,1/2-z
-x,y,z
x,-y,1/2+z
1/2+x,1/2+y,z
1/2-x,1/2-y,1/2+z
1/2+x,1/2-y,-z
1/2-x,1/2+y,1/2-z
1/2-x,1/2-y,-z
1/2+x,1/2+y,1/2-z
1/2-x,1/2+y,z
1/2+x,1/2-y,1/2+z
loop_
_atom_site_type_symbol
_atom_site_label
_atom_site_fract_x
_atom_site_fract_y
_atom_site_fract_z
Si Si1 0.330171 0.744922 0.924109
Si Si2 0.829711 0.560715 0.424631
Si Si3 0.166407 0.855868 0.166349
Si Si4 0.169889 0.555686 0.588844
Si Si5 0.171016 0.656223 0.331701
O O1 0.500000 0.747227 0.937727
O O2 0.283185 0.691735 0.884530
O O3 0.278025 0.792132 0.873110
O O4 0.250000 0.750000 0.000000
O O5 0.783126 0.503982 0.394787
O O6 0.776396 0.570167 0.507365
O O7 0.764860 0.605558 0.372929
O O8 0.000000 0.563375 0.425747
O O9 0.196615 0.840352 0.250000
O O10 0.254409 0.907488 0.147164
O O11 0.000000 0.868097 0.153673
O O12 0.000000 0.562725 0.596672
O O13 0.234188 0.657187 0.250000
O O14 0.000000 0.653496 0.329422
#
# Coordination Sequence:
#
# PCOD8258796 Si02
#       5
#    16  16  16  16  16
#     4  10  20  34  53  74  95 123 160 200 241 287
#     4   8  15  28  47  73 102 126 155 203 251 282
#     4  10  21  35  49  70 103 136 163 196 241 292
#     4   9  17  31  51  74  99 128 164 203 240 281
#     4   9  16  27  46  71  96 123 157 196 238 284
#
# _framework density 18.292822000000001
#
# number of rings (size 3 to 8) (size 9 to 14) (size 15 to 20)
#    0.000    2.800    0.000    3.000    0.000    6.000 
#    0.000    4.000    0.000    3.000    0.000    0.000 
#    0.000    0.000    0.000    0.000    0.000    0.000 
#
# Total GULP energy -495943.225001 kJ/mol
# GULP energy per Si atom -12398.580625 kJ/mol
# Density = 1.825119 g / cm^3
# Si number density = 18.292822 Si / 1000 Ang^3
#
#
#
# Elastic Constant Matrix: (Units=GPa)
#
#
# Indices 1 2 3 4 5 6 
#
# 1 26.4243 30.4221 29.8466 0.0000 0.0000 0.0000
# 2 30.4221 132.6600 61.3784 0.0000 0.0000 0.0000
# 3 29.8466 61.3784 114.2724 0.0000 0.0000 0.0000
# 4 0.0000 0.0000 0.0000 33.9630 0.0000 0.0000
# 5 0.0000 0.0000 0.0000 0.0000 26.2379 0.0000
# 6 0.0000 0.0000 0.0000 0.0000 0.0000 22.6881
#
#
#
# Elastic Compliance Matrix: (Units=1/GPa)
#
#
# Indices 1 2 3 4 5 6 
#
# 1 0.060418 -0.008721 -0.011096 0.000000 0.000000 0.000000
# 2 -0.008721 0.011290 -0.003786 0.000000 0.000000 0.000000
# 3 -0.011096 -0.003786 0.013683 0.000000 0.000000 0.000000
# 4 0.000000 0.000000 0.000000 0.029444 0.000000 0.000000
# 5 0.000000 0.000000 0.000000 0.000000 0.038113 0.000000
# 6 0.000000 0.000000 0.000000 0.000000 0.000000 0.044076
#
#
# Mechanical properties :
#
#
# Convention : Reuss Voigt Hill
#
# Bulk Modulus (GPa) = 26.18931 57.40565 41.79748
# Shear Modulus (GPa) = 19.45845 26.69179 23.07512
#
# Velocity S-wave (km/s) = 3.26501 3.82401 3.55551
# Velocity P-wave (km/s) = 5.34430 7.13772 6.30510
#
# Compressibility (1/GPa) = 0.03818352
#
# Stress axis : x y z
#
# Youngs Moduli (GPa) = 16.55139 88.57533 73.08475
#
# Poissons Ratio (x) = 0.77250 0.81094
# Poissons Ratio (y) = 0.14435 0.27671
# Poissons Ratio (z) = 0.18365 0.33535
#
# Static dielectric constant tensor:
#      x y z
#    x 2.855110 0.000000 0.000000 
#    y 0.000000 3.642950 0.000000 
#    z 0.000000 0.000000 3.531970 
# 
# 
# High freq. dielectric constant tensor:
#      x y z
#    x 1.654720 0.000000 0.000000 
#    y 0.000000 1.726220 0.000000 
#    z 0.000000 0.000000 1.716090 
# 
# From -- ./inp_files/40505.got.cif
#   From: 2010.03.12/outbox.cif.g09.slc.cpg/sg63_21_cif.got.tgz:40505.got - 2010.04.10 19:34:48.
