data_PCOD8258262
_publ_section_title
;
Structure prediction by ZEFSAII (Michael W. Deem and Ramdas Pophale) SiO2 
 PCOD8258262
Probable space group: C M C M
;
_chemical_formula_sum "Si O2"
_cell_formula_units_Z 104
_cell_length_a 31.362249
_cell_length_b 20.763344
_cell_length_c 8.840785
_cell_angle_alpha 90.000000
_cell_angle_beta 90.000000
_cell_angle_gamma 90.000000
_cell_volume 5756.988035
_symmetry_space_group_name_H-M "C M C M"
_symmetry_group_IT_number 63
_symmetry_cell_setting 'orthorhombic'
loop_
_space_group_symop_operation_xyz
x,y,z
-x,-y,1/2+z
x,-y,-z
-x,y,1/2-z
-x,-y,-z
x,y,1/2-z
-x,y,z
x,-y,1/2+z
1/2+x,1/2+y,z
1/2-x,1/2-y,1/2+z
1/2+x,1/2-y,-z
1/2-x,1/2+y,1/2-z
1/2-x,1/2-y,-z
1/2+x,1/2+y,1/2-z
1/2-x,1/2+y,z
1/2+x,1/2-y,1/2+z
loop_
_atom_site_type_symbol
_atom_site_label
_atom_site_fract_x
_atom_site_fract_y
_atom_site_fract_z
Si Si1 0.687782 0.565753 0.075978
Si Si2 0.500000 0.933490 0.423923
Si Si3 0.453745 0.296747 0.427342
Si Si4 0.837666 0.682662 0.576178
Si Si5 0.788570 0.566666 0.076379
Si Si6 0.359873 0.316444 0.430110
Si Si7 0.434015 0.831933 0.422122
O O1 0.673108 0.567318 0.250000
O O2 0.738131 0.572002 0.060271
O O3 0.671486 0.500000 0.000000
O O4 0.666875 0.623489 0.984886
O O5 0.500000 0.947300 0.250000
O O6 0.457518 0.896276 0.472734
O O7 0.500000 0.000000 0.500000
O O8 0.454572 0.306546 0.250000
O O9 0.500000 0.323889 0.491287
O O10 0.409147 0.327052 0.489834
O O11 0.451055 0.221869 0.465112
O O12 0.823769 0.692720 0.750000
O O13 0.806414 0.631142 0.500534
O O14 0.837522 0.752310 0.495778
O O15 0.884436 0.652965 0.561686
O O16 0.803248 0.564902 0.250000
O O17 0.804801 0.500000 0.000000
O O18 0.358854 0.311049 0.250000
O O19 0.445625 0.811375 0.250000
#
# Coordination Sequence:
#
# PCOD8258262 Si02
#       7
#    16   8  16  16  16  16  16
#     4  10  21  38  59  81 106 138 175 215 262 320
#     4  10  20  32  44  62  90 126 169 212 255 302
#     4   9  17  30  51  77 103 132 167 206 252 305
#     4  10  20  34  53  78 107 138 177 224 268 312
#     4  10  21  37  56  77 103 139 180 220 267 320
#     4  10  20  34  54  82 112 141 175 217 265 314
#     4   9  18  32  48  67  94 129 168 212 259 303
#
# _framework density 18.065000999999999
#
# number of rings (size 3 to 8) (size 9 to 14) (size 15 to 20)
#    0.000    2.308    0.769    1.846    0.000    4.923 
#    0.000    1.538    0.000    0.462    0.000    0.000 
#    0.000    0.000    0.000    0.000    0.000    0.000 
#
# Total GULP energy -644409.390971 kJ/mol
# GULP energy per Si atom -12392.488288 kJ/mol
# Density = 1.802388 g / cm^3
# Si number density = 18.065001 Si / 1000 Ang^3
#
#
#
# Elastic Constant Matrix: (Units=GPa)
#
#
# Indices 1 2 3 4 5 6 
#
# 1 45.2532 40.5886 31.1691 0.0000 0.0000 0.0000
# 2 40.5886 122.4166 47.4904 0.0000 0.0000 0.0000
# 3 31.1691 47.4904 80.7788 0.0000 0.0000 0.0000
# 4 0.0000 0.0000 0.0000 34.0716 0.0000 0.0000
# 5 0.0000 0.0000 0.0000 0.0000 18.9412 0.0000
# 6 0.0000 0.0000 0.0000 0.0000 0.0000 17.7329
#
#
#
# Elastic Compliance Matrix: (Units=1/GPa)
#
#
# Indices 1 2 3 4 5 6 
#
# 1 0.035739 -0.008420 -0.008840 0.000000 0.000000 0.000000
# 2 -0.008420 0.012566 -0.004139 0.000000 0.000000 0.000000
# 3 -0.008840 -0.004139 0.018224 0.000000 0.000000 0.000000
# 4 0.000000 0.000000 0.000000 0.029350 0.000000 0.000000
# 5 0.000000 0.000000 0.000000 0.000000 0.052795 0.000000
# 6 0.000000 0.000000 0.000000 0.000000 0.000000 0.056392
#
#
# Mechanical properties :
#
#
# Convention : Reuss Voigt Hill
#
# Bulk Modulus (GPa) = 42.13893 54.10499 48.12196
# Shear Modulus (GPa) = 19.54854 22.76253 21.15553
#
# Velocity S-wave (km/s) = 3.29313 3.55355 3.42581
# Velocity P-wave (km/s) = 6.15114 6.84486 6.50725
#
# Compressibility (1/GPa) = 0.02373102
#
# Stress axis : x y z
#
# Youngs Moduli (GPa) = 27.98084 79.57824 54.87400
#
# Poissons Ratio (x) = 0.67007 0.48507
# Poissons Ratio (y) = 0.23561 0.22711
# Poissons Ratio (z) = 0.24734 0.32935
#
# Static dielectric constant tensor:
#      x y z
#    x 11.868450 0.000000 0.000000 
#    y 0.000000 3.155990 0.000000 
#    z 0.000000 0.000000 3.341860 
# 
# 
# High freq. dielectric constant tensor:
#      x y z
#    x 1.706290 0.000000 0.000000 
#    y 0.000000 1.681930 0.000000 
#    z 0.000000 0.000000 1.706110 
# 
# From -- ./inp_files/14500.got.cif
#   From: 2010.03.12/outbox.cif.g09.slc.cpg/sg63_8_cif.got.tgz:14500.got - 2010.04.10 19:34:48.
