data_PCOD8258875
_publ_section_title
;
Structure prediction by ZEFSAII (Michael W. Deem and Ramdas Pophale) SiO2 
 PCOD8258875
Probable space group: C M C M
;
_chemical_formula_sum "Si O2"
_cell_formula_units_Z 104
_cell_length_a 19.840761
_cell_length_b 32.503203
_cell_length_c 9.103116
_cell_angle_alpha 90.000000
_cell_angle_beta 90.000000
_cell_angle_gamma 90.000000
_cell_volume 5870.492842
_symmetry_space_group_name_H-M "C M C M"
_symmetry_group_IT_number 63
_symmetry_cell_setting 'orthorhombic'
loop_
_space_group_symop_operation_xyz
x,y,z
-x,-y,1/2+z
x,-y,-z
-x,y,1/2-z
-x,-y,-z
x,y,1/2-z
-x,y,z
x,-y,1/2+z
1/2+x,1/2+y,z
1/2-x,1/2-y,1/2+z
1/2+x,1/2-y,-z
1/2-x,1/2+y,1/2-z
1/2-x,1/2-y,-z
1/2+x,1/2+y,1/2-z
1/2-x,1/2+y,z
1/2+x,1/2-y,1/2+z
loop_
_atom_site_type_symbol
_atom_site_label
_atom_site_fract_x
_atom_site_fract_y
_atom_site_fract_z
Si Si1 0.576230 0.816807 0.922512
Si Si2 0.809423 0.622936 0.081562
Si Si3 0.121670 0.921188 0.417203
Si Si4 0.665989 0.655908 0.082224
Si Si5 0.000000 0.042611 0.078776
Si Si6 0.076474 0.766693 0.579863
Si Si7 0.764578 0.457874 0.419653
O O1 0.584402 0.810973 0.750000
O O2 0.500000 0.828694 0.967102
O O3 0.624934 0.853196 0.978269
O O4 0.597923 0.773913 0.993663
O O5 0.818125 0.609115 0.250000
O O6 0.747023 0.654992 0.067288
O O7 0.802106 0.581335 0.988574
O O8 0.094878 0.922423 0.250000
O O9 0.139716 0.875090 0.459687
O O10 0.065802 0.933094 0.533495
O O11 0.184544 0.951751 0.436588
O O12 0.645332 0.643682 0.250000
O O13 0.632362 0.699216 0.039956
O O14 0.000000 0.034992 0.250000
O O15 0.000000 0.000000 0.000000
O O16 0.079305 0.755715 0.750000
O O17 0.000000 0.781053 0.536996
O O18 0.785939 0.500000 0.500000
O O19 0.785716 0.461183 0.250000
#
# Coordination Sequence:
#
# PCOD8258875 Si02
#       7
#    16  16  16  16   8  16  16
#     4   9  18  33  52  74 100 132 168 205 252 306
#     4   9  18  33  52  74 101 131 166 208 253 303
#     4  10  21  35  50  72  99 130 169 212 256 301
#     4   9  18  32  49  71  99 133 171 210 256 302
#     4  12  24  36  50  68  94 130 172 216 260 304
#     4   9  18  31  47  69  99 134 172 210 250 300
#     4  10  20  34  54  77 102 130 163 203 249 302
#
# _framework density 17.715717999999999
#
# number of rings (size 3 to 8) (size 9 to 14) (size 15 to 20)
#    0.000    2.462    0.000    2.077    1.077    4.923 
#    0.000    0.000    0.000    0.462    0.000    0.000 
#    0.000    0.000    0.000    0.000    0.000    0.000 
#
# Total GULP energy -644690.740594 kJ/mol
# GULP energy per Si atom -12397.898858 kJ/mol
# Density = 1.767540 g / cm^3
# Si number density = 17.715718 Si / 1000 Ang^3
#
#
#
# Elastic Constant Matrix: (Units=GPa)
#
#
# Indices 1 2 3 4 5 6 
#
# 1 87.0326 69.0185 41.8062 0.0000 0.0000 0.0000
# 2 69.0185 126.2502 55.7823 0.0000 0.0000 0.0000
# 3 41.8062 55.7823 87.9078 0.0000 0.0000 0.0000
# 4 0.0000 0.0000 0.0000 33.4485 0.0000 0.0000
# 5 0.0000 0.0000 0.0000 0.0000 19.9282 0.0000
# 6 0.0000 0.0000 0.0000 0.0000 0.0000 19.6862
#
#
#
# Elastic Compliance Matrix: (Units=1/GPa)
#
#
# Indices 1 2 3 4 5 6 
#
# 1 0.021151 -0.009892 -0.003782 0.000000 0.000000 0.000000
# 2 -0.009892 0.015633 -0.005216 0.000000 0.000000 0.000000
# 3 -0.003782 -0.005216 0.016484 0.000000 0.000000 0.000000
# 4 0.000000 0.000000 0.000000 0.029897 0.000000 0.000000
# 5 0.000000 0.000000 0.000000 0.000000 0.050180 0.000000
# 6 0.000000 0.000000 0.000000 0.000000 0.000000 0.050797
#
#
# Mechanical properties :
#
#
# Convention : Reuss Voigt Hill
#
# Bulk Modulus (GPa) = 64.56243 70.48940 67.52591
# Shear Modulus (GPa) = 22.01836 23.58483 22.80160
#
# Velocity S-wave (km/s) = 3.52926 3.65265 3.59149
# Velocity P-wave (km/s) = 7.28905 7.59373 7.44295
#
# Compressibility (1/GPa) = 0.01548888
#
# Stress axis : x y z
#
# Youngs Moduli (GPa) = 47.27917 63.96735 60.66595
#
# Poissons Ratio (x) = 0.63276 0.22943
# Poissons Ratio (y) = 0.46768 0.31642
# Poissons Ratio (z) = 0.17880 0.33364
#
# Static dielectric constant tensor:
#      x y z
#    x 3.308670 0.000000 0.000000 
#    y 0.000000 3.449400 0.000000 
#    z 0.000000 0.000000 3.296330 
# 
# 
# High freq. dielectric constant tensor:
#      x y z
#    x 1.672390 0.000000 0.000000 
#    y 0.000000 1.679290 0.000000 
#    z 0.000000 0.000000 1.689520 
# 
# From -- ./inp_files/9110.got.cif
#   From: 2010.03.12/outbox.cif.g09.slc.cpg/sg63_5_cif.got.tgz:9110.got - 2010.04.10 19:34:48.
