data_PCOD8258254
_publ_section_title
;
Structure prediction by ZEFSAII (Michael W. Deem and Ramdas Pophale) SiO2 
 PCOD8258254
Probable space group: C M C M
;
_chemical_formula_sum "Si O2"
_cell_formula_units_Z 96
_cell_length_a 31.276945
_cell_length_b 24.431719
_cell_length_c 9.073922
_cell_angle_alpha 90.000000
_cell_angle_beta 90.000000
_cell_angle_gamma 90.000000
_cell_volume 6933.833244
_symmetry_space_group_name_H-M "C M C M"
_symmetry_group_IT_number 63
_symmetry_cell_setting 'orthorhombic'
loop_
_space_group_symop_operation_xyz
x,y,z
-x,-y,1/2+z
x,-y,-z
-x,y,1/2-z
-x,-y,-z
x,y,1/2-z
-x,y,z
x,-y,1/2+z
1/2+x,1/2+y,z
1/2-x,1/2-y,1/2+z
1/2+x,1/2-y,-z
1/2-x,1/2+y,1/2-z
1/2-x,1/2-y,-z
1/2+x,1/2+y,1/2-z
1/2-x,1/2+y,z
1/2+x,1/2-y,1/2+z
loop_
_atom_site_type_symbol
_atom_site_label
_atom_site_fract_x
_atom_site_fract_y
_atom_site_fract_z
Si Si1 0.828554 0.886514 0.087277
Si Si2 0.687827 0.778547 0.083875
Si Si3 0.412386 0.556394 0.925414
Si Si4 0.382743 0.276539 0.084617
Si Si5 0.259190 0.666940 0.414916
Si Si6 0.950503 0.840906 0.919284
O O1 0.811118 0.900461 0.250000
O O2 0.862538 0.932239 0.034609
O O3 0.853269 0.829528 0.091972
O O4 0.788027 0.882612 0.978948
O O5 0.676996 0.796367 0.250000
O O6 0.713889 0.722361 0.082623
O O7 0.643644 0.772016 0.994201
O O8 0.716211 0.826130 0.009920
O O9 0.419313 0.554514 0.750000
O O10 0.426581 0.500000 0.000000
O O11 0.442318 0.603376 0.991745
O O12 0.395440 0.258082 0.250000
O O13 0.425023 0.290189 0.990937
O O14 0.245828 0.651065 0.250000
O O15 0.935659 0.848686 0.750000
O O16 0.000000 0.825710 0.929207
#
# Coordination Sequence:
#
# PCOD8258254 Si02
#       6
#    16  16  16  16  16  16
#     4   8  15  26  37  50  67  86 106 130 163 202
#     4   9  15  22  33  49  70  92 110 129 154 188
#     4  10  20  32  45  57  69  86 110 142 180 221
#     4   9  16  26  39  53  69  87 108 134 164 201
#     4   9  15  21  32  50  69  89 110 130 153 186
#     4  10  20  32  44  56  69  86 110 141 179 222
#
# _framework density 13.845155
#
# number of rings (size 3 to 8) (size 9 to 14) (size 15 to 20)
#    0.000    2.833    0.000    3.500    0.000   10.333 
#    0.000    0.000    0.000    0.000    0.000    0.000 
#    0.000    0.000    0.000    0.000    0.000    0.000 
#
# Total GULP energy -595024.437103 kJ/mol
# GULP energy per Si atom -12396.342440 kJ/mol
# Density = 1.381364 g / cm^3
# Si number density = 13.845155 Si / 1000 Ang^3
#
#
#
# Elastic Constant Matrix: (Units=GPa)
#
#
# Indices 1 2 3 4 5 6 
#
# 1 70.2063 20.3071 47.7153 0.0000 0.0000 0.0000
# 2 20.3071 6.9378 15.0390 0.0000 0.0000 0.0000
# 3 47.7153 15.0390 117.2322 0.0000 0.0000 0.0000
# 4 0.0000 0.0000 0.0000 13.9168 0.0000 0.0000
# 5 0.0000 0.0000 0.0000 0.0000 23.7477 0.0000
# 6 0.0000 0.0000 0.0000 0.0000 0.0000 14.7173
#
#
#
# Elastic Compliance Matrix: (Units=1/GPa)
#
#
# Indices 1 2 3 4 5 6 
#
# 1 0.094293 -0.267075 -0.004117 0.000000 0.000000 0.000000
# 2 -0.267075 0.956119 -0.013951 0.000000 0.000000 0.000000
# 3 -0.004117 -0.013951 0.011996 0.000000 0.000000 0.000000
# 4 0.000000 0.000000 0.000000 0.071855 0.000000 0.000000
# 5 0.000000 0.000000 0.000000 0.000000 0.042109 0.000000
# 6 0.000000 0.000000 0.000000 0.000000 0.000000 0.067947
#
#
# Mechanical properties :
#
#
# Convention : Reuss Voigt Hill
#
# Bulk Modulus (GPa) = 2.03202 40.05545 21.04373
# Shear Modulus (GPa) = 2.52698 17.89736 10.21217
#
# Velocity S-wave (km/s) = 1.35246 3.59929 2.71882
# Velocity P-wave (km/s) = 1.97730 6.80198 5.00883
#
# Compressibility (1/GPa) = 0.49212165
#
# Stress axis : x y z
#
# Youngs Moduli (GPa) = 10.60523 1.04589 83.36371
#
# Poissons Ratio (x) = 0.27933 0.34324
# Poissons Ratio (y) = 2.83239 1.16302
# Poissons Ratio (z) = 0.04367 0.01459
#
# Static dielectric constant tensor:
#      x y z
#    x 2.680630 0.000000 0.000000 
#    y 0.000000 2.312640 0.000000 
#    z 0.000000 0.000000 3.009820 
# 
# 
# High freq. dielectric constant tensor:
#      x y z
#    x 1.510820 0.000000 0.000000 
#    y 0.000000 1.456320 0.000000 
#    z 0.000000 0.000000 1.551600 
# 
# From -- ./inp_files/12736.got.cif
#   From: 2010.03.12/outbox.cif.g09.slc.cpg/sg63_7_cif.got.tgz:12736.got - 2010.04.10 19:34:48.
