data_PCOD8258994
_publ_section_title
;
Structure prediction by ZEFSAII (Michael W. Deem and Ramdas Pophale) SiO2 
 PCOD8258994
Probable space group: C M C M
;
_chemical_formula_sum "Si O2"
_cell_formula_units_Z 72
_cell_length_a 27.290839
_cell_length_b 14.367978
_cell_length_c 8.831070
_cell_angle_alpha 90.000000
_cell_angle_beta 90.000000
_cell_angle_gamma 90.000000
_cell_volume 3462.787722
_symmetry_space_group_name_H-M "C M C M"
_symmetry_group_IT_number 63
_symmetry_cell_setting 'orthorhombic'
loop_
_space_group_symop_operation_xyz
x,y,z
-x,-y,1/2+z
x,-y,-z
-x,y,1/2-z
-x,-y,-z
x,y,1/2-z
-x,y,z
x,-y,1/2+z
1/2+x,1/2+y,z
1/2-x,1/2-y,1/2+z
1/2+x,1/2-y,-z
1/2-x,1/2+y,1/2-z
1/2-x,1/2-y,-z
1/2+x,1/2+y,1/2-z
1/2-x,1/2+y,z
1/2+x,1/2-y,1/2+z
loop_
_atom_site_type_symbol
_atom_site_label
_atom_site_fract_x
_atom_site_fract_y
_atom_site_fract_z
Si Si1 0.784299 0.372793 0.581649
Si Si2 0.091569 0.203719 0.429549
Si Si3 0.309552 0.341042 0.081057
Si Si4 0.000000 0.101682 0.929680
Si Si5 0.116830 0.409777 0.426993
O O1 0.786752 0.416685 0.750000
O O2 0.732515 0.399985 0.504294
O O3 0.790088 0.262916 0.594652
O O4 0.826821 0.413930 0.477642
O O5 0.085807 0.191722 0.250000
O O6 0.141102 0.152934 0.482315
O O7 0.047196 0.157254 0.516209
O O8 0.091993 0.312764 0.477631
O O9 0.319170 0.381163 0.250000
O O10 0.000000 0.093427 0.750000
O O11 0.000000 0.000000 0.000000
O O12 0.089590 0.500000 0.500000
O O13 0.113780 0.420540 0.250000
#
# Coordination Sequence:
#
# PCOD8258994 Si02
#       5
#    16  16  16   8  16
#     4   9  16  27  46  74 111 154 197 237 278 328
#     4  10  21  39  62  88 118 153 194 241 294 349
#     4   9  16  28  49  78 111 149 193 237 283 335
#     4  12  26  46  71  94 115 142 181 234 296 356
#     4  10  20  34  55  84 121 162 201 240 283 338
#
# _framework density 20.792497000000001
#
# number of rings (size 3 to 8) (size 9 to 14) (size 15 to 20)
#    0.000    2.222    0.000    3.667    0.000    8.000 
#    0.000    1.667    0.000    0.000    0.000    0.000 
#    0.000    0.000    0.000    0.000    0.000    0.000 
#
# Total GULP energy -446316.361016 kJ/mol
# GULP energy per Si atom -12397.676695 kJ/mol
# Density = 2.074517 g / cm^3
# Si number density = 20.792497 Si / 1000 Ang^3
#
#
#
# Elastic Constant Matrix: (Units=GPa)
#
#
# Indices 1 2 3 4 5 6 
#
# 1 123.5539 56.3735 61.2872 0.0000 0.0000 0.0000
# 2 56.3735 99.2881 50.5990 0.0000 0.0000 0.0000
# 3 61.2872 50.5990 126.0523 0.0000 0.0000 0.0000
# 4 0.0000 0.0000 0.0000 30.1965 0.0000 0.0000
# 5 0.0000 0.0000 0.0000 0.0000 35.5014 0.0000
# 6 0.0000 0.0000 0.0000 0.0000 0.0000 0.5324
#
#
#
# Elastic Compliance Matrix: (Units=1/GPa)
#
#
# Indices 1 2 3 4 5 6 
#
# 1 0.012350 -0.004968 -0.004010 0.000000 0.000000 0.000000
# 2 -0.004968 0.014661 -0.003469 0.000000 0.000000 0.000000
# 3 -0.004010 -0.003469 0.011276 0.000000 0.000000 0.000000
# 4 0.000000 0.000000 0.000000 0.033116 0.000000 0.000000
# 5 0.000000 0.000000 0.000000 0.000000 0.028168 0.000000
# 6 0.000000 0.000000 0.000000 0.000000 0.000000 1.878180
#
#
# Mechanical properties :
#
#
# Convention : Reuss Voigt Hill
#
# Bulk Modulus (GPa) = 74.68049 76.15710 75.41879
# Shear Modulus (GPa) = 2.49114 25.28838 13.88976
#
# Velocity S-wave (km/s) = 1.09576 3.49123 2.58741
# Velocity P-wave (km/s) = 6.13155 7.27724 6.72883
#
# Compressibility (1/GPa) = 0.01339038
#
# Stress axis : x y z
#
# Youngs Moduli (GPa) = 80.97407 68.21011 88.68688
#
# Poissons Ratio (x) = 0.33888 0.35565
# Poissons Ratio (y) = 0.40229 0.30769
# Poissons Ratio (z) = 0.32472 0.23665
#
# Static dielectric constant tensor:
#      x y z
#    x 3.637050 0.000000 0.000000 
#    y 0.000000 3.973110 0.000000 
#    z 0.000000 0.000000 3.992630 
# 
# 
# High freq. dielectric constant tensor:
#      x y z
#    x 1.791220 0.000000 0.000000 
#    y 0.000000 1.808980 0.000000 
#    z 0.000000 0.000000 1.830820 
# 
# From -- ./inp_files/11693.got.cif
#   From: 2010.03.12/outbox.cif.g09.slc.cpg/sg63_6_cif.got.tgz:11693.got - 2010.04.10 19:34:48.
