data_PCOD8258081
_publ_section_title
;
Structure prediction by ZEFSAII (Michael W. Deem and Ramdas Pophale) SiO2 
 PCOD8258081
Probable space group: C M C M
;
_chemical_formula_sum "Si O2"
_cell_formula_units_Z 88
_cell_length_a 15.306331
_cell_length_b 19.550454
_cell_length_c 15.162526
_cell_angle_alpha 90.000000
_cell_angle_beta 90.000000
_cell_angle_gamma 90.000000
_cell_volume 4537.321012
_symmetry_space_group_name_H-M "C M C M"
_symmetry_group_IT_number 63
_symmetry_cell_setting 'orthorhombic'
loop_
_space_group_symop_operation_xyz
x,y,z
-x,-y,1/2+z
x,-y,-z
-x,y,1/2-z
-x,-y,-z
x,y,1/2-z
-x,y,z
x,-y,1/2+z
1/2+x,1/2+y,z
1/2-x,1/2-y,1/2+z
1/2+x,1/2-y,-z
1/2-x,1/2+y,1/2-z
1/2-x,1/2-y,-z
1/2+x,1/2+y,1/2-z
1/2-x,1/2+y,z
1/2+x,1/2-y,1/2+z
loop_
_atom_site_type_symbol
_atom_site_label
_atom_site_fract_x
_atom_site_fract_y
_atom_site_fract_z
Si Si1 0.601421 0.367592 0.848118
Si Si2 0.900426 0.220558 0.985632
Si Si3 0.721783 0.507393 0.350192
Si Si4 0.280082 0.354010 0.349275
Si Si5 0.595209 0.140583 0.931492
Si Si6 0.855570 0.500000 0.500000
O O1 0.629226 0.341610 0.750000
O O2 0.500000 0.383012 0.851668
O O3 0.645221 0.439737 0.870918
O O4 0.628076 0.310752 0.919649
O O5 0.832453 0.196696 0.912184
O O6 0.000000 0.199087 0.960939
O O7 0.891601 0.302346 0.992570
O O8 0.756951 0.514167 0.250000
O O9 0.684896 0.430837 0.366223
O O10 0.799232 0.524113 0.416595
O O11 0.298249 0.329815 0.250000
O O12 0.175318 0.354195 0.363759
O O13 0.500000 0.154145 0.885107
O O14 0.587506 0.065957 0.975609
#
# Coordination Sequence:
#
# PCOD8258081 Si02
#       6
#    16  16  16  16  16   8
#     4   9  17  30  50  77 108 141 176 216 264 315
#     4  10  21  36  54  80 112 141 175 219 264 317
#     4   9  18  32  51  77 107 140 180 220 258 311
#     4  10  21  36  55  80 110 145 179 213 260 314
#     4  10  21  37  57  79 103 136 180 227 271 314
#     4  10  19  36  57  74 100 138 177 224 276 318
#
# _framework density 19.394704999999998
#
# number of rings (size 3 to 8) (size 9 to 14) (size 15 to 20)
#    0.000    2.364    0.000    3.000    0.000    2.182 
#    0.000    8.636    0.000    2.727    0.000    0.000 
#    0.000    0.000    0.000    0.000    0.000    0.000 
#
# Total GULP energy -545424.493794 kJ/mol
# GULP energy per Si atom -12396.011223 kJ/mol
# Density = 1.935056 g / cm^3
# Si number density = 19.394705 Si / 1000 Ang^3
#
#
#
# Elastic Constant Matrix: (Units=GPa)
#
#
# Indices 1 2 3 4 5 6 
#
# 1 80.0782 46.6164 50.0936 0.0000 0.0000 0.0000
# 2 46.6164 106.5574 40.8229 0.0000 0.0000 0.0000
# 3 50.0936 40.8229 98.9207 0.0000 0.0000 0.0000
# 4 0.0000 0.0000 0.0000 16.7652 0.0000 0.0000
# 5 0.0000 0.0000 0.0000 0.0000 1.2471 0.0000
# 6 0.0000 0.0000 0.0000 0.0000 0.0000 33.0806
#
#
#
# Elastic Compliance Matrix: (Units=1/GPa)
#
#
# Indices 1 2 3 4 5 6 
#
# 1 0.021183 -0.006126 -0.008199 0.000000 0.000000 0.000000
# 2 -0.006126 0.012919 -0.002229 0.000000 0.000000 0.000000
# 3 -0.008199 -0.002229 0.015181 0.000000 0.000000 0.000000
# 4 0.000000 0.000000 0.000000 0.059647 0.000000 0.000000
# 5 0.000000 0.000000 0.000000 0.000000 0.801871 0.000000
# 6 0.000000 0.000000 0.000000 0.000000 0.000000 0.030229
#
#
# Mechanical properties :
#
#
# Convention : Reuss Voigt Hill
#
# Bulk Modulus (GPa) = 61.82601 62.29135 62.05868
# Shear Modulus (GPa) = 5.10449 20.08681 12.59565
#
# Velocity S-wave (km/s) = 1.62407 3.22170 2.55117
# Velocity P-wave (km/s) = 5.95515 6.78429 6.38319
#
# Compressibility (1/GPa) = 0.01617442
#
# Stress axis : x y z
#
# Youngs Moduli (GPa) = 47.20804 77.40811 65.87193
#
# Poissons Ratio (x) = 0.47420 0.54008
# Poissons Ratio (y) = 0.28919 0.14683
# Poissons Ratio (z) = 0.38706 0.17255
#
# Static dielectric constant tensor:
#      x y z
#    x 3.450090 0.000000 0.000000 
#    y 0.000000 3.669430 0.000000 
#    z 0.000000 0.000000 3.529700 
# 
# 
# High freq. dielectric constant tensor:
#      x y z
#    x 1.748270 0.000000 0.000000 
#    y 0.000000 1.764410 0.000000 
#    z 0.000000 0.000000 1.743770 
# 
# From -- ./inp_files/31778.got.cif
#   From: 2010.03.12/outbox.cif.g09.slc.cpg/sg63_16_cif.got.tgz:31778.got - 2010.04.10 19:34:48.
