data_PCOD8258297
_publ_section_title
;
Structure prediction by ZEFSAII (Michael W. Deem and Ramdas Pophale) SiO2 
 PCOD8258297
Probable space group: C M C M
;
_chemical_formula_sum "Si O2"
_cell_formula_units_Z 88
_cell_length_a 19.500407
_cell_length_b 30.811689
_cell_length_c 8.835266
_cell_angle_alpha 90.000000
_cell_angle_beta 90.000000
_cell_angle_gamma 90.000000
_cell_volume 5308.585428
_symmetry_space_group_name_H-M "C M C M"
_symmetry_group_IT_number 63
_symmetry_cell_setting 'orthorhombic'
loop_
_space_group_symop_operation_xyz
x,y,z
-x,-y,1/2+z
x,-y,-z
-x,y,1/2-z
-x,-y,-z
x,y,1/2-z
-x,y,z
x,-y,1/2+z
1/2+x,1/2+y,z
1/2-x,1/2-y,1/2+z
1/2+x,1/2-y,-z
1/2-x,1/2+y,1/2-z
1/2-x,1/2-y,-z
1/2+x,1/2+y,1/2-z
1/2-x,1/2+y,z
1/2+x,1/2-y,1/2+z
loop_
_atom_site_type_symbol
_atom_site_label
_atom_site_fract_x
_atom_site_fract_y
_atom_site_fract_z
Si Si1 0.150419 0.952601 0.928736
Si Si2 0.576747 0.772320 0.927349
Si Si3 0.809473 0.870639 0.071892
Si Si4 0.212930 0.291724 0.072662
Si Si5 0.422767 0.681566 0.079007
Si Si6 0.500000 0.545447 0.424533
O O1 0.164354 0.955212 0.750000
O O2 0.073565 0.932975 0.966326
O O3 0.204577 0.919020 0.006217
O O4 0.161808 0.000000 0.000000
O O5 0.588572 0.777690 0.750000
O O6 0.500000 0.788327 0.974061
O O7 0.635172 0.798898 0.014940
O O8 0.586034 0.722304 0.969352
O O9 0.821417 0.872646 0.250000
O O10 0.749920 0.836649 0.029195
O O11 0.877735 0.856560 0.985982
O O12 0.213231 0.283529 0.250000
O O13 0.250000 0.250000 0.000000
O O14 0.400596 0.694466 0.250000
O O15 0.500000 0.663774 0.078979
O O16 0.500000 0.500000 0.500000
O O17 0.500000 0.535681 0.250000
#
# Coordination Sequence:
#
# PCOD8258297 Si02
#       6
#    16  16  16  16  16   8
#     4  10  20  35  52  70  95 127 165 210 255 302
#     4  10  20  34  52  73  99 131 168 210 254 301
#     4  11  23  35  49  72  98 131 170 210 256 302
#     4  11  22  35  52  73 102 136 171 211 252 300
#     4  10  20  32  47  68  95 130 172 212 252 299
#     4   8  16  30  48  68  90 120 160 204 250 294
#
# _framework density 16.576920000000001
#
# number of rings (size 3 to 8) (size 9 to 14) (size 15 to 20)
#    0.000    1.818    1.818    2.727    1.273    5.091 
#    0.000    0.000    0.000    0.000    0.000    0.000 
#    0.000    0.727    0.000    2.364    0.000    3.455 
#
# Total GULP energy -545245.524407 kJ/mol
# GULP energy per Si atom -12391.943737 kJ/mol
# Density = 1.653919 g / cm^3
# Si number density = 16.576920 Si / 1000 Ang^3
#
#
#
# Elastic Constant Matrix: (Units=GPa)
#
#
# Indices 1 2 3 4 5 6 
#
# 1 90.3891 60.0850 47.8571 0.0000 0.0000 0.0000
# 2 60.0850 93.7512 43.5718 0.0000 0.0000 0.0000
# 3 47.8571 43.5718 74.0448 0.0000 0.0000 0.0000
# 4 0.0000 0.0000 0.0000 26.9943 0.0000 0.0000
# 5 0.0000 0.0000 0.0000 0.0000 25.1305 0.0000
# 6 0.0000 0.0000 0.0000 0.0000 0.0000 22.1404
#
#
#
# Elastic Compliance Matrix: (Units=1/GPa)
#
#
# Indices 1 2 3 4 5 6 
#
# 1 0.022474 -0.010534 -0.008327 0.000000 0.000000 0.000000
# 2 -0.010534 0.019619 -0.004737 0.000000 0.000000 0.000000
# 3 -0.008327 -0.004737 0.021675 0.000000 0.000000 0.000000
# 4 0.000000 0.000000 0.000000 0.037045 0.000000 0.000000
# 5 0.000000 0.000000 0.000000 0.000000 0.039792 0.000000
# 6 0.000000 0.000000 0.000000 0.000000 0.000000 0.045166
#
#
# Mechanical properties :
#
#
# Convention : Reuss Voigt Hill
#
# Bulk Modulus (GPa) = 60.33905 62.35700 61.34803
# Shear Modulus (GPa) = 20.96521 21.96445 21.46483
#
# Velocity S-wave (km/s) = 3.56015 3.64401 3.60232
# Velocity P-wave (km/s) = 7.30603 7.44335 7.37501
#
# Compressibility (1/GPa) = 0.01657301
#
# Stress axis : x y z
#
# Youngs Moduli (GPa) = 44.49550 50.97143 46.13666
#
# Poissons Ratio (x) = 0.53691 0.38419
# Poissons Ratio (y) = 0.46869 0.21853
# Poissons Ratio (z) = 0.37052 0.24143
#
# Static dielectric constant tensor:
#      x y z
#    x 3.356600 0.000000 0.000000 
#    y 0.000000 2.953820 0.000000 
#    z 0.000000 0.000000 3.223270 
# 
# 
# High freq. dielectric constant tensor:
#      x y z
#    x 1.616100 0.000000 0.000000 
#    y 0.000000 1.616330 0.000000 
#    z 0.000000 0.000000 1.657370 
# 
# From -- ./inp_files/6811.got.cif
#   From: 2010.03.12/outbox.cif.g09.slc.cpg/sg63_4_cif.got.tgz:6811.got - 2010.04.10 19:34:48.
