data_PCOD8258117
_publ_section_title
;
Structure prediction by ZEFSAII (Michael W. Deem and Ramdas Pophale) SiO2 
 PCOD8258117
Probable space group: C M C M
;
_chemical_formula_sum "Si O2"
_cell_formula_units_Z 96
_cell_length_a 23.482114
_cell_length_b 28.342886
_cell_length_c 7.691114
_cell_angle_alpha 90.000000
_cell_angle_beta 90.000000
_cell_angle_gamma 90.000000
_cell_volume 5118.827692
_symmetry_space_group_name_H-M "C M C M"
_symmetry_group_IT_number 63
_symmetry_cell_setting 'orthorhombic'
loop_
_space_group_symop_operation_xyz
x,y,z
-x,-y,1/2+z
x,-y,-z
-x,y,1/2-z
-x,-y,-z
x,y,1/2-z
-x,y,z
x,-y,1/2+z
1/2+x,1/2+y,z
1/2-x,1/2-y,1/2+z
1/2+x,1/2-y,-z
1/2-x,1/2+y,1/2-z
1/2-x,1/2-y,-z
1/2+x,1/2+y,1/2-z
1/2-x,1/2+y,z
1/2+x,1/2-y,1/2+z
loop_
_atom_site_type_symbol
_atom_site_label
_atom_site_fract_x
_atom_site_fract_y
_atom_site_fract_z
Si Si1 0.748041 0.195667 0.451061
Si Si2 0.933707 0.240680 0.250000
Si Si3 0.231949 0.554364 0.955110
Si Si4 0.567863 0.153906 0.750000
Si Si5 0.171065 0.117927 0.943350
Si Si6 0.854923 0.629653 0.053877
Si Si7 0.565174 0.330470 0.045611
O O1 0.762379 0.188630 0.250000
O O2 0.750000 0.250000 0.500000
O O3 0.796663 0.168249 0.556718
O O4 0.686898 0.172904 0.496488
O O5 0.907586 0.292750 0.250000
O O6 0.916265 0.213929 0.427503
O O7 0.000000 0.247971 0.250000
O O8 0.229112 0.563333 0.750000
O O9 0.289968 0.578006 0.036995
O O10 0.230745 0.500000 0.000000
O O11 0.178124 0.579874 0.041410
O O12 0.500000 0.149277 0.750000
O O13 0.591806 0.128834 0.576885
O O14 0.162832 0.099471 0.750000
O O15 0.106822 0.126537 0.015514
O O16 0.878230 0.635488 0.250000
O O17 0.574039 0.317621 0.250000
O O18 0.500000 0.345608 0.008326
#
# Coordination Sequence:
#
# PCOD8258117 Si02
#       7
#    16   8  16   8  16  16  16
#     4  10  21  31  48  75 108 147 177 221 280 324
#     4   9  20  34  50  75 104 148 194 224 263 312
#     4  10  19  36  60  86 113 141 176 226 284 340
#     4  11  24  40  60  81 114 156 187 228 277 322
#     4   9  19  32  49  75 106 139 181 226 273 329
#     4  10  22  39  57  84 113 144 187 225 275 337
#     4   9  18  33  51  73 107 150 195 237 272 312
#
# _framework density 18.754294000000002
#
# number of rings (size 3 to 8) (size 9 to 14) (size 15 to 20)
#    0.000    2.333    0.833    1.000    5.833    1.667 
#    0.000    1.667    0.000    1.000    0.000    0.000 
#    0.000    0.000    0.000    0.000    0.000    0.000 
#
# Total GULP energy -594808.819353 kJ/mol
# GULP energy per Si atom -12391.850403 kJ/mol
# Density = 1.871161 g / cm^3
# Si number density = 18.754294 Si / 1000 Ang^3
#
#
#
# Elastic Constant Matrix: (Units=GPa)
#
#
# Indices 1 2 3 4 5 6 
#
# 1 114.0776 51.2137 42.1885 0.0000 0.0000 0.0000
# 2 51.2137 122.6558 18.1273 0.0000 0.0000 0.0000
# 3 42.1885 18.1273 85.1672 0.0000 0.0000 0.0000
# 4 0.0000 0.0000 0.0000 20.2288 0.0000 0.0000
# 5 0.0000 0.0000 0.0000 0.0000 16.7152 0.0000
# 6 0.0000 0.0000 0.0000 0.0000 0.0000 16.9784
#
#
#
# Elastic Compliance Matrix: (Units=1/GPa)
#
#
# Indices 1 2 3 4 5 6 
#
# 1 0.012794 -0.004548 -0.005369 0.000000 0.000000 0.000000
# 2 -0.004548 0.010035 0.000117 0.000000 0.000000 0.000000
# 3 -0.005369 0.000117 0.014376 0.000000 0.000000 0.000000
# 4 0.000000 0.000000 0.000000 0.049434 0.000000 0.000000
# 5 0.000000 0.000000 0.000000 0.000000 0.059826 0.000000
# 6 0.000000 0.000000 0.000000 0.000000 0.000000 0.058899
#
#
# Mechanical properties :
#
#
# Convention : Reuss Voigt Hill
#
# Bulk Modulus (GPa) = 56.80583 60.55107 58.67845
# Shear Modulus (GPa) = 21.66075 24.80921 23.23498
#
# Velocity S-wave (km/s) = 3.40218 3.64105 3.52364
# Velocity P-wave (km/s) = 6.76671 7.07340 6.92175
#
# Compressibility (1/GPa) = 0.01760383
#
# Stress axis : x y z
#
# Youngs Moduli (GPa) = 78.16425 99.65454 69.55829
#
# Poissons Ratio (x) = 0.45326 0.37348
# Poissons Ratio (y) = 0.35551 -0.00815
# Poissons Ratio (z) = 0.41969 -0.01168
#
# Static dielectric constant tensor:
#      x y z
#    x 3.460560 0.000000 0.000000 
#    y 0.000000 3.365950 0.000000 
#    z 0.000000 0.000000 3.380220 
# 
# 
# High freq. dielectric constant tensor:
#      x y z
#    x 1.721170 0.000000 0.000000 
#    y 0.000000 1.699310 0.000000 
#    z 0.000000 0.000000 1.737260 
# 
# From -- ./inp_files/10786.got.cif
#   From: 2010.03.12/outbox.cif.g09.slc.cpg/sg63_6_cif.got.tgz:10786.got - 2010.04.10 19:34:48.
