data_PCOD8258560
_publ_section_title
;
Structure prediction by ZEFSAII (Michael W. Deem and Ramdas Pophale) SiO2 
 PCOD8258560
Probable space group: C M C M
;
_chemical_formula_sum "Si O2"
_cell_formula_units_Z 80
_cell_length_a 9.228424
_cell_length_b 25.377629
_cell_length_c 19.282282
_cell_angle_alpha 90.000000
_cell_angle_beta 90.000000
_cell_angle_gamma 90.000000
_cell_volume 4515.824070
_symmetry_space_group_name_H-M "C M C M"
_symmetry_group_IT_number 63
_symmetry_cell_setting 'orthorhombic'
loop_
_space_group_symop_operation_xyz
x,y,z
-x,-y,1/2+z
x,-y,-z
-x,y,1/2-z
-x,-y,-z
x,y,1/2-z
-x,y,z
x,-y,1/2+z
1/2+x,1/2+y,z
1/2-x,1/2-y,1/2+z
1/2+x,1/2-y,-z
1/2-x,1/2+y,1/2-z
1/2-x,1/2-y,-z
1/2+x,1/2+y,1/2-z
1/2-x,1/2+y,z
1/2+x,1/2-y,1/2+z
loop_
_atom_site_type_symbol
_atom_site_label
_atom_site_fract_x
_atom_site_fract_y
_atom_site_fract_z
Si Si1 0.670229 0.440110 0.827037
Si Si2 0.330251 0.145787 0.915021
Si Si3 0.834613 0.060014 0.831050
Si Si4 0.668010 0.254986 0.071640
Si Si5 0.335932 0.861356 0.923314
O O1 0.732183 0.428005 0.750000
O O2 0.500000 0.432036 0.826455
O O3 0.707846 0.499884 0.847999
O O4 0.734551 0.400896 0.882856
O O5 0.500000 0.154272 0.902610
O O6 0.276608 0.095437 0.873289
O O7 0.245481 0.197728 0.886072
O O8 0.293368 0.137516 0.995788
O O9 0.816395 0.071711 0.750000
O O10 0.000000 0.071550 0.853994
O O11 0.500000 0.269053 0.059147
O O12 0.682139 0.197800 0.108406
O O13 0.750000 0.250000 0.000000
O O14 0.500000 0.880740 0.914014
#
# Coordination Sequence:
#
# PCOD8258560 Si02
#       5
#    16  16  16  16  16
#     4   9  19  35  53  73  98 130 168 207 247 294
#     4  10  20  33  51  77 104 130 166 208 248 295
#     4   9  19  36  54  72  98 132 168 206 250 298
#     4   9  17  31  50  73 102 134 166 202 248 297
#     4   9  19  33  50  75 103 130 162 202 246 293
#
# _framework density 17.715482999999999
#
# number of rings (size 3 to 8) (size 9 to 14) (size 15 to 20)
#    0.000    2.800    0.000    3.600    0.000    7.200 
#    0.000    7.000    0.000    1.200    0.000    0.000 
#    0.000    0.000    0.000    0.000    0.000    0.000 
#
# Total GULP energy -495818.819186 kJ/mol
# GULP energy per Si atom -12395.470480 kJ/mol
# Density = 1.767516 g / cm^3
# Si number density = 17.715483 Si / 1000 Ang^3
#
#
#
# Elastic Constant Matrix: (Units=GPa)
#
#
# Indices 1 2 3 4 5 6 
#
# 1 96.4867 71.5135 38.6424 0.0000 0.0000 0.0000
# 2 71.5135 130.9895 54.8839 0.0000 0.0000 0.0000
# 3 38.6424 54.8839 50.5165 0.0000 0.0000 0.0000
# 4 0.0000 0.0000 0.0000 2686.2343 0.0000 0.0000
# 5 0.0000 0.0000 0.0000 0.0000 27.6114 0.0000
# 6 0.0000 0.0000 0.0000 0.0000 0.0000 37.7394
#
#
#
# Elastic Compliance Matrix: (Units=1/GPa)
#
#
# Indices 1 2 3 4 5 6 
#
# 1 0.018279 -0.007564 -0.005764 0.000000 0.000000 0.000000
# 2 -0.007564 0.017144 -0.012839 0.000000 0.000000 0.000000
# 3 -0.005764 -0.012839 0.038154 0.000000 0.000000 0.000000
# 4 0.000000 0.000000 0.000000 0.000372 0.000000 0.000000
# 5 0.000000 0.000000 0.000000 0.000000 0.036217 0.000000
# 6 0.000000 0.000000 0.000000 0.000000 0.000000 0.026497
#
#
# Mechanical properties :
#
#
# Convention : Reuss Voigt Hill
#
# Bulk Modulus (GPa) = 47.07874 67.56358 57.32116
# Shear Modulus (GPa) = 25.49976 557.84722 291.67349
#
# Velocity S-wave (km/s) = 3.79807 17.76446 12.84526
# Velocity P-wave (km/s) = 6.77247 21.42403 15.88797
#
# Compressibility (1/GPa) = 0.02124101
#
# Stress axis : x y z
#
# Youngs Moduli (GPa) = 54.70717 58.33094 26.20929
#
# Poissons Ratio (x) = 0.44123 0.15108
# Poissons Ratio (y) = 0.41382 0.33651
# Poissons Ratio (z) = 0.31535 0.74894
#
# Static dielectric constant tensor:
#      x y z
#    x 3.313680 0.000000 0.000000 
#    y 0.000000 3.789250 0.000000 
#    z 0.000000 0.000000 3.053720 
# 
# 
# High freq. dielectric constant tensor:
#      x y z
#    x 1.691230 0.000000 0.000000 
#    y 0.000000 1.699070 0.000000 
#    z 0.000000 0.000000 1.653110 
# 
# From -- ./inp_files/40433.got.cif
#   From: 2010.03.12/outbox.cif.g09.slc.cpg/sg63_21_cif.got.tgz:40433.got - 2010.04.10 19:34:48.
