data_PCOD8258939
_publ_section_title
;
Structure prediction by ZEFSAII (Michael W. Deem and Ramdas Pophale) SiO2 
 PCOD8258939
Probable space group: C M C M
;
_chemical_formula_sum "Si O2"
_cell_formula_units_Z 72
_cell_length_a 24.988497
_cell_length_b 17.034532
_cell_length_c 9.244952
_cell_angle_alpha 90.000000
_cell_angle_beta 90.000000
_cell_angle_gamma 90.000000
_cell_volume 3935.274235
_symmetry_space_group_name_H-M "C M C M"
_symmetry_group_IT_number 63
_symmetry_cell_setting 'orthorhombic'
loop_
_space_group_symop_operation_xyz
x,y,z
-x,-y,1/2+z
x,-y,-z
-x,y,1/2-z
-x,-y,-z
x,y,1/2-z
-x,y,z
x,-y,1/2+z
1/2+x,1/2+y,z
1/2-x,1/2-y,1/2+z
1/2+x,1/2-y,-z
1/2-x,1/2+y,1/2-z
1/2-x,1/2-y,-z
1/2+x,1/2+y,1/2-z
1/2-x,1/2+y,z
1/2+x,1/2-y,1/2+z
loop_
_atom_site_type_symbol
_atom_site_label
_atom_site_fract_x
_atom_site_fract_y
_atom_site_fract_z
Si Si1 0.194690 0.243625 0.918375
Si Si2 0.405388 0.800824 0.417435
Si Si3 0.346109 0.429370 0.414710
Si Si4 0.500000 0.083381 0.578464
Si Si5 0.939629 0.872725 0.588070
O O1 0.200003 0.266271 0.750000
O O2 0.182142 0.152630 0.940753
O O3 0.250000 0.250000 0.000000
O O4 0.149367 0.300069 0.988385
O O5 0.389232 0.812126 0.250000
O O6 0.446090 0.869546 0.467783
O O7 0.436376 0.719910 0.443814
O O8 0.315984 0.500000 0.500000
O O9 0.348202 0.454317 0.250000
O O10 0.406258 0.423130 0.474609
O O11 0.500000 0.071025 0.750000
O O12 0.500000 0.000000 0.500000
O O13 0.918089 0.889280 0.750000
O O14 0.000000 0.900464 0.570253
#
# Coordination Sequence:
#
# PCOD8258939 Si02
#       5
#    16  16  16   8  16
#     4  10  21  37  58  83 106 136 181 227 273 327
#     4   9  17  33  55  78 107 142 181 223 268 323
#     4  10  21  35  51  75 105 135 169 210 258 308
#     4  10  20  34  54  82 115 150 187 230 283 336
#     4   9  16  29  51  75 100 136 175 208 249 302
#
# _framework density 18.296057000000001
#
# number of rings (size 3 to 8) (size 9 to 14) (size 15 to 20)
#    0.000    2.444    1.111    1.333    0.000    4.444 
#    0.000    1.111    0.000    0.000    0.000    0.000 
#    0.000    0.000    0.000    0.000    0.000    0.000 
#
# Total GULP energy -446249.594540 kJ/mol
# GULP energy per Si atom -12395.822071 kJ/mol
# Density = 1.825441 g / cm^3
# Si number density = 18.296057 Si / 1000 Ang^3
#
#
#
# Elastic Constant Matrix: (Units=GPa)
#
#
# Indices 1 2 3 4 5 6 
#
# 1 124.3754 40.5785 71.6222 0.0000 0.0000 0.0000
# 2 40.5785 90.4769 57.4016 0.0000 0.0000 0.0000
# 3 71.6222 57.4016 117.3248 0.0000 0.0000 0.0000
# 4 0.0000 0.0000 0.0000 33.3997 0.0000 0.0000
# 5 0.0000 0.0000 0.0000 0.0000 30.2087 0.0000
# 6 0.0000 0.0000 0.0000 0.0000 0.0000 13.4324
#
#
#
# Elastic Compliance Matrix: (Units=1/GPa)
#
#
# Indices 1 2 3 4 5 6 
#
# 1 0.012475 -0.001107 -0.007074 0.000000 0.000000 0.000000
# 2 -0.001107 0.016126 -0.007214 0.000000 0.000000 0.000000
# 3 -0.007074 -0.007214 0.016371 0.000000 0.000000 0.000000
# 4 0.000000 0.000000 0.000000 0.029940 0.000000 0.000000
# 5 0.000000 0.000000 0.000000 0.000000 0.033103 0.000000
# 6 0.000000 0.000000 0.000000 0.000000 0.000000 0.074447
#
#
# Mechanical properties :
#
#
# Convention : Reuss Voigt Hill
#
# Bulk Modulus (GPa) = 70.51022 74.59798 72.55410
# Shear Modulus (GPa) = 22.93807 26.24649 24.59228
#
# Velocity S-wave (km/s) = 3.54463 3.79165 3.67022
# Velocity P-wave (km/s) = 7.44141 7.74790 7.59620
#
# Compressibility (1/GPa) = 0.01418234
#
# Stress axis : x y z
#
# Youngs Moduli (GPa) = 80.16147 62.01288 61.08389
#
# Poissons Ratio (x) = 0.06865 0.43209
# Poissons Ratio (y) = 0.08875 0.44064
# Poissons Ratio (z) = 0.56704 0.44734
#
# Static dielectric constant tensor:
#      x y z
#    x 3.277100 0.000000 0.000000 
#    y 0.000000 3.504600 0.000000 
#    z 0.000000 0.000000 3.475770 
# 
# 
# High freq. dielectric constant tensor:
#      x y z
#    x 1.697390 0.000000 0.000000 
#    y 0.000000 1.704100 0.000000 
#    z 0.000000 0.000000 1.712220 
# 
# From -- ./inp_files/9837.got.cif
#   From: 2010.03.12/outbox.cif.g09.slc.cpg/sg63_5_cif.got.tgz:9837.got - 2010.04.10 19:34:48.
