data_PCOD8258997
_publ_section_title
;
Structure prediction by ZEFSAII (Michael W. Deem and Ramdas Pophale) SiO2 
 PCOD8258997
Probable space group: C M C M
;
_chemical_formula_sum "Si O2"
_cell_formula_units_Z 96
_cell_length_a 17.550418
_cell_length_b 19.225921
_cell_length_c 14.816156
_cell_angle_alpha 90.000000
_cell_angle_beta 90.000000
_cell_angle_gamma 90.000000
_cell_volume 4999.311065
_symmetry_space_group_name_H-M "C M C M"
_symmetry_group_IT_number 63
_symmetry_cell_setting 'orthorhombic'
loop_
_space_group_symop_operation_xyz
x,y,z
-x,-y,1/2+z
x,-y,-z
-x,y,1/2-z
-x,-y,-z
x,y,1/2-z
-x,y,z
x,-y,1/2+z
1/2+x,1/2+y,z
1/2-x,1/2-y,1/2+z
1/2+x,1/2-y,-z
1/2-x,1/2+y,1/2-z
1/2-x,1/2-y,-z
1/2+x,1/2+y,1/2-z
1/2-x,1/2+y,z
1/2+x,1/2-y,1/2+z
loop_
_atom_site_type_symbol
_atom_site_label
_atom_site_fract_x
_atom_site_fract_y
_atom_site_fract_z
Si Si1 0.587190 0.135401 0.352211
Si Si2 0.909381 0.103110 0.499998
Si Si3 0.087191 0.635399 0.852210
Si Si4 0.147257 0.999999 0.147245
Si Si5 0.317076 0.999999 0.604768
Si Si6 0.409940 0.758856 0.000003
O O1 0.594334 0.160787 0.250000
O O2 0.500000 0.117583 0.378125
O O3 0.618390 0.198950 0.412309
O O4 0.635457 0.066989 0.368186
O O5 0.879918 0.067564 0.408165
O O6 0.875586 0.181322 0.499997
O O7 0.000000 0.099655 0.499998
O O8 0.879918 0.067566 0.591834
O O9 0.094335 0.660785 0.750000
O O10 0.135450 0.566981 0.868183
O O11 0.000000 0.617587 0.878127
O O12 0.118398 0.698943 0.912312
O O13 0.113659 0.999998 0.250000
O O14 0.238101 0.999998 0.157820
O O15 0.297668 0.000000 0.500000
O O16 0.500000 0.751252 0.000012
#
# Coordination Sequence:
#
# PCOD8258997 Si02
#       6
#    16  16  16  16  16  16
#     4  10  20  34  55  85 117 151 189 224 264 319
#     4  10  22  41  62  87 110 135 182 234 282 338
#     4  10  20  34  55  85 117 151 189 224 264 319
#     4  11  23  40  60  84 111 143 183 229 285 334
#     4  12  21  36  58  80 115 154 189 229 271 317
#     4   9  19  35  56  82 114 145 178 227 278 326
#
# _framework density 19.202646999999999
#
# number of rings (size 3 to 8) (size 9 to 14) (size 15 to 20)
#    0.000    1.667    3.333    3.000    0.000    4.667 
#    0.000    6.667    0.000    4.000    0.000    0.000 
#    0.000    0.000    0.000    0.000    0.000    0.000 
#
# Total GULP energy -595207.619995 kJ/mol
# GULP energy per Si atom -12400.158750 kJ/mol
# Density = 1.915894 g / cm^3
# Si number density = 19.202647 Si / 1000 Ang^3
#
#
#
# Elastic Constant Matrix: (Units=GPa)
#
#
# Indices 1 2 3 4 5 6 
#
# 1 73.5243 49.3853 29.1271 0.0000 0.0000 0.0000
# 2 49.3853 190.1983 74.1855 0.0000 0.0000 0.0000
# 3 29.1271 74.1855 162.6986 0.0000 0.0000 0.0000
# 4 0.0000 0.0000 0.0000 57.2448 0.0000 0.0000
# 5 0.0000 0.0000 0.0000 0.0000 24.3618 0.0000
# 6 0.0000 0.0000 0.0000 0.0000 0.0000 -17.8360
#
#
#
# Elastic Compliance Matrix: (Units=1/GPa)
#
#
# Indices 1 2 3 4 5 6 
#
# 1 0.016674 -0.003850 -0.001230 0.000000 0.000000 0.000000
# 2 -0.003850 0.007284 -0.002632 0.000000 0.000000 0.000000
# 3 -0.001230 -0.002632 0.007567 0.000000 0.000000 0.000000
# 4 0.000000 0.000000 0.000000 0.017469 0.000000 0.000000
# 5 0.000000 0.000000 0.000000 0.000000 0.041048 0.000000
# 6 0.000000 0.000000 0.000000 0.000000 0.000000 -0.056066
#
#
# Mechanical properties :
#
#
# Convention : Reuss Voigt Hill
#
# Bulk Modulus (GPa) = 62.10615 81.31298 71.70957
# Shear Modulus (GPa) = 91.29942 31.00234 61.15088
#
# Velocity S-wave (km/s) = 6.90279 4.02242 5.64926
# Velocity P-wave (km/s) = 9.79510 8.00061 8.94298
#
# Compressibility (1/GPa) = 0.01610146
#
# Stress axis : x y z
#
# Youngs Moduli (GPa) = 59.97387 137.28960 132.15998
#
# Poissons Ratio (x) = 0.52854 0.16251
# Poissons Ratio (y) = 0.23089 0.34785
# Poissons Ratio (z) = 0.07375 0.36135
#
# Static dielectric constant tensor:
#      x y z
#    x 3.379750 0.000000 0.000000 
#    y 0.000000 3.707240 0.000000 
#    z 0.000000 0.000000 3.780330 
# 
# 
# High freq. dielectric constant tensor:
#      x y z
#    x 1.731660 0.000000 0.000000 
#    y 0.000000 1.746700 0.000000 
#    z 0.000000 0.000000 1.762200 
# 
# From -- ./inp_files/31928.got.cif
#   From: 2010.03.12/outbox.cif.g09.slc.cpg/sg63_16_cif.got.tgz:31928.got - 2010.04.10 19:34:48.
