data_PCOD8258786
_publ_section_title
;
Structure prediction by ZEFSAII (Michael W. Deem and Ramdas Pophale) SiO2 
 PCOD8258786
Probable space group: C M C M
;
_chemical_formula_sum "Si O2"
_cell_formula_units_Z 96
_cell_length_a 12.883897
_cell_length_b 16.516410
_cell_length_c 23.972060
_cell_angle_alpha 90.000000
_cell_angle_beta 90.000000
_cell_angle_gamma 90.000000
_cell_volume 5101.151893
_symmetry_space_group_name_H-M "C M C M"
_symmetry_group_IT_number 63
_symmetry_cell_setting 'orthorhombic'
loop_
_space_group_symop_operation_xyz
x,y,z
-x,-y,1/2+z
x,-y,-z
-x,y,1/2-z
-x,-y,-z
x,y,1/2-z
-x,y,z
x,-y,1/2+z
1/2+x,1/2+y,z
1/2-x,1/2-y,1/2+z
1/2+x,1/2-y,-z
1/2-x,1/2+y,1/2-z
1/2-x,1/2-y,-z
1/2+x,1/2+y,1/2-z
1/2-x,1/2+y,z
1/2+x,1/2-y,1/2+z
loop_
_atom_site_type_symbol
_atom_site_label
_atom_site_fract_x
_atom_site_fract_y
_atom_site_fract_z
Si Si1 0.882096 0.688317 0.113387
Si Si2 0.797082 0.587050 0.017101
Si Si3 0.881353 0.317322 0.313489
Si Si4 0.721686 0.641081 0.903755
Si Si5 0.197471 0.139852 0.186079
Si Si6 0.118417 0.028732 0.405728
O O1 0.874730 0.633927 0.057785
O O2 0.846316 0.778908 0.100650
O O3 0.813815 0.649794 0.162556
O O4 0.000000 0.689209 0.134273
O O5 0.686268 0.572949 0.047069
O O6 0.845694 0.500000 0.000000
O O7 0.781209 0.642345 0.962735
O O8 0.852740 0.341203 0.250000
O O9 0.806696 0.366572 0.354668
O O10 0.867210 0.221747 0.322290
O O11 0.000000 0.340164 0.327130
O O12 0.645854 0.565136 0.899691
O O13 0.205733 0.113662 0.250000
O O14 0.136288 0.069812 0.154075
O O15 0.000000 0.037739 0.424558
#
# Coordination Sequence:
#
# PCOD8258786 Si02
#       6
#    16  16  16  16  16  16
#     4  10  20  34  53  77 106 139 173 212 260 310
#     4   9  20  36  52  74 104 137 176 216 252 300
#     4   9  18  34  55  76 100 133 171 211 254 300
#     4  10  20  34  52  79 109 135 168 212 261 312
#     4   9  19  36  55  76 102 132 173 216 251 301
#     4  10  20  34  54  78 103 133 169 212 260 306
#
# _framework density 18.819278000000001
#
# number of rings (size 3 to 8) (size 9 to 14) (size 15 to 20)
#    0.000    2.500    0.000    1.500    0.000    6.667 
#    0.000    6.667    0.000    3.000    0.000    0.000 
#    0.000    0.000    0.000    0.000    0.000    0.000 
#
# Total GULP energy -595320.145256 kJ/mol
# GULP energy per Si atom -12402.503026 kJ/mol
# Density = 1.877644 g / cm^3
# Si number density = 18.819278 Si / 1000 Ang^3
#
#
#
# Elastic Constant Matrix: (Units=GPa)
#
#
# Indices 1 2 3 4 5 6 
#
# 1 96.1276 20.0128 26.0602 0.0000 0.0000 0.0000
# 2 20.0128 48.8623 22.8180 0.0000 0.0000 0.0000
# 3 26.0602 22.8180 105.6943 0.0000 0.0000 0.0000
# 4 0.0000 0.0000 0.0000 28.6868 0.0000 0.0000
# 5 0.0000 0.0000 0.0000 0.0000 16.7400 0.0000
# 6 0.0000 0.0000 0.0000 0.0000 0.0000 21.3124
#
#
#
# Elastic Compliance Matrix: (Units=1/GPa)
#
#
# Indices 1 2 3 4 5 6 
#
# 1 0.011766 -0.003853 -0.002069 0.000000 0.000000 0.000000
# 2 -0.003853 0.024022 -0.004236 0.000000 0.000000 0.000000
# 3 -0.002069 -0.004236 0.010886 0.000000 0.000000 0.000000
# 4 0.000000 0.000000 0.000000 0.034859 0.000000 0.000000
# 5 0.000000 0.000000 0.000000 0.000000 0.059737 0.000000
# 6 0.000000 0.000000 0.000000 0.000000 0.000000 0.046921
#
#
# Mechanical properties :
#
#
# Convention : Reuss Voigt Hill
#
# Bulk Modulus (GPa) = 37.93968 43.16290 40.55129
# Shear Modulus (GPa) = 23.01040 25.46740 24.23890
#
# Velocity S-wave (km/s) = 3.50051 3.68266 3.59274
# Velocity P-wave (km/s) = 6.04499 6.40843 6.22936
#
# Compressibility (1/GPa) = 0.02635763
#
# Stress axis : x y z
#
# Youngs Moduli (GPa) = 84.99127 41.62877 91.86146
#
# Poissons Ratio (x) = 0.16038 0.19009
# Poissons Ratio (y) = 0.32745 0.38913
# Poissons Ratio (z) = 0.17587 0.17634
#
# Static dielectric constant tensor:
#      x y z
#    x 3.302510 0.000000 0.000000 
#    y 0.000000 3.414240 0.000000 
#    z 0.000000 0.000000 3.580770 
# 
# 
# High freq. dielectric constant tensor:
#      x y z
#    x 1.722240 0.000000 0.000000 
#    y 0.000000 1.728310 0.000000 
#    z 0.000000 0.000000 1.738570 
# 
# From -- ./inp_files/61444.got.cif
#   From: 2010.03.12/outbox.cif.g09.slc.cpg/sg63_31_cif.got.tgz:61444.got - 2010.04.10 19:34:48.
