data_PCOD8258918
_publ_section_title
;
Structure prediction by ZEFSAII (Michael W. Deem and Ramdas Pophale) SiO2 
 PCOD8258918
Probable space group: C M C M
;
_chemical_formula_sum "Si O2"
_cell_formula_units_Z 104
_cell_length_a 21.245369
_cell_length_b 26.594719
_cell_length_c 8.863480
_cell_angle_alpha 90.000000
_cell_angle_beta 90.000000
_cell_angle_gamma 90.000000
_cell_volume 5007.995772
_symmetry_space_group_name_H-M "C M C M"
_symmetry_group_IT_number 63
_symmetry_cell_setting 'orthorhombic'
loop_
_space_group_symop_operation_xyz
x,y,z
-x,-y,1/2+z
x,-y,-z
-x,y,1/2-z
-x,-y,-z
x,y,1/2-z
-x,y,z
x,-y,1/2+z
1/2+x,1/2+y,z
1/2-x,1/2-y,1/2+z
1/2+x,1/2-y,-z
1/2-x,1/2+y,1/2-z
1/2-x,1/2-y,-z
1/2+x,1/2+y,1/2-z
1/2-x,1/2+y,z
1/2+x,1/2-y,1/2+z
loop_
_atom_site_type_symbol
_atom_site_label
_atom_site_fract_x
_atom_site_fract_y
_atom_site_fract_z
Si Si1 0.000000 0.446853 0.926753
Si Si2 0.927359 0.269652 0.571644
Si Si3 0.573068 0.447490 0.423489
Si Si4 0.322923 0.605582 0.425399
Si Si5 0.308513 0.720694 0.073922
Si Si6 0.115240 0.380707 0.927298
Si Si7 0.785975 0.552119 0.572476
O O1 0.060523 0.417242 0.981657
O O2 0.000000 0.452860 0.750000
O O3 0.000000 0.500000 0.000000
O O4 0.923528 0.261947 0.750000
O O5 0.877391 0.232927 0.493306
O O6 0.905225 0.325181 0.525437
O O7 0.000000 0.260413 0.517792
O O8 0.591343 0.500000 0.500000
O O9 0.594295 0.449110 0.250000
O O10 0.500000 0.435822 0.439691
O O11 0.606605 0.401545 0.511510
O O12 0.319562 0.592274 0.250000
O O13 0.297763 0.661724 0.454928
O O14 0.284280 0.563721 0.518330
O O15 0.308899 0.733842 0.250000
O O16 0.250000 0.750000 0.000000
O O17 0.129462 0.383845 0.750000
O O18 0.175892 0.398944 0.017338
O O19 0.810918 0.500000 0.500000
O O20 0.790483 0.546345 0.750000
#
# Coordination Sequence:
#
# PCOD8258918 Si02
#       7
#     8  16  16  16  16  16  16
#     4  10  20  34  54  80 114 152 194 240 287 342
#     4  10  21  40  66  93 124 165 207 253 313 372
#     4  10  21  38  62  92 125 160 197 239 292 357
#     4  11  24  42  62  86 119 158 199 248 305 361
#     4  11  25  43  64  91 123 161 206 260 317 371
#     4  10  20  38  60  85 119 158 201 246 296 353
#     4  12  25  40  60  88 121 159 202 249 302 360
#
# _framework density 20.766791000000001
#
# number of rings (size 3 to 8) (size 9 to 14) (size 15 to 20)
#    0.000    1.385    0.769    4.615    0.000   10.462 
#    0.000    3.077    0.000    0.000    0.000    0.000 
#    0.000    0.000    0.000    0.000    0.000    0.000 
#
# Total GULP energy -644875.409869 kJ/mol
# GULP energy per Si atom -12401.450190 kJ/mol
# Density = 2.071953 g / cm^3
# Si number density = 20.766791 Si / 1000 Ang^3
#
#
#
# Elastic Constant Matrix: (Units=GPa)
#
#
# Indices 1 2 3 4 5 6 
#
# 1 108.6732 31.9368 46.9189 0.0000 0.0000 0.0000
# 2 31.9368 65.6432 42.9373 0.0000 0.0000 0.0000
# 3 46.9189 42.9373 95.2375 0.0000 0.0000 0.0000
# 4 0.0000 0.0000 0.0000 34.8918 0.0000 0.0000
# 5 0.0000 0.0000 0.0000 0.0000 34.6436 0.0000
# 6 0.0000 0.0000 0.0000 0.0000 0.0000 44.8856
#
#
#
# Elastic Compliance Matrix: (Units=1/GPa)
#
#
# Indices 1 2 3 4 5 6 
#
# 1 0.012042 -0.002805 -0.004667 0.000000 0.000000 0.000000
# 2 -0.002805 0.022259 -0.008653 0.000000 0.000000 0.000000
# 3 -0.004667 -0.008653 0.016701 0.000000 0.000000 0.000000
# 4 0.000000 0.000000 0.000000 0.028660 0.000000 0.000000
# 5 0.000000 0.000000 0.000000 0.000000 0.028865 0.000000
# 6 0.000000 0.000000 0.000000 0.000000 0.000000 0.022279
#
#
# Mechanical properties :
#
#
# Convention : Reuss Voigt Hill
#
# Bulk Modulus (GPa) = 53.33637 57.01555 55.17596
# Shear Modulus (GPa) = 29.53213 32.73491 31.13352
#
# Velocity S-wave (km/s) = 3.77514 3.97458 3.87615
# Velocity P-wave (km/s) = 6.68891 6.96978 6.83079
#
# Compressibility (1/GPa) = 0.01874893
#
# Stress axis : x y z
#
# Youngs Moduli (GPa) = 83.04609 44.92600 59.87770
#
# Poissons Ratio (x) = 0.12604 0.27948
# Poissons Ratio (y) = 0.23298 0.51813
# Poissons Ratio (z) = 0.38761 0.38875
#
# Static dielectric constant tensor:
#      x y z
#    x 4.020450 0.000000 0.000000 
#    y 0.000000 3.769370 0.000000 
#    z 0.000000 0.000000 3.664080 
# 
# 
# High freq. dielectric constant tensor:
#      x y z
#    x 1.829090 0.000000 0.000000 
#    y 0.000000 1.814910 0.000000 
#    z 0.000000 0.000000 1.810680 
# 
# From -- ./inp_files/8754.got.cif
#   From: 2010.03.12/outbox.cif.g09.slc.cpg/sg63_5_cif.got.tgz:8754.got - 2010.04.10 19:34:48.
