data_PCOD8258061
_publ_section_title
;
Structure prediction by ZEFSAII (Michael W. Deem and Ramdas Pophale) SiO2 
 PCOD8258061
Probable space group: C M C M
;
_chemical_formula_sum "Si O2"
_cell_formula_units_Z 96
_cell_length_a 18.295157
_cell_length_b 11.852831
_cell_length_c 23.503495
_cell_angle_alpha 90.000000
_cell_angle_beta 90.000000
_cell_angle_gamma 90.000000
_cell_volume 5096.718884
_symmetry_space_group_name_H-M "C M C M"
_symmetry_group_IT_number 63
_symmetry_cell_setting 'orthorhombic'
loop_
_space_group_symop_operation_xyz
x,y,z
-x,-y,1/2+z
x,-y,-z
-x,y,1/2-z
-x,-y,-z
x,y,1/2-z
-x,y,z
x,-y,1/2+z
1/2+x,1/2+y,z
1/2-x,1/2-y,1/2+z
1/2+x,1/2-y,-z
1/2-x,1/2+y,1/2-z
1/2-x,1/2-y,-z
1/2+x,1/2+y,1/2-z
1/2-x,1/2+y,z
1/2+x,1/2-y,1/2+z
loop_
_atom_site_type_symbol
_atom_site_label
_atom_site_fract_x
_atom_site_fract_y
_atom_site_fract_z
Si Si1 0.417205 0.950678 0.058934
Si Si2 0.664089 0.897426 0.641943
Si Si3 0.308028 0.314963 0.431080
Si Si4 0.650060 0.725671 0.446962
Si Si5 0.587074 0.463202 0.250000
Si Si6 0.913547 0.701400 0.250000
Si Si7 0.672813 0.536538 0.358525
O O1 0.500000 0.992486 0.066556
O O2 0.416050 0.814435 0.057124
O O3 0.370670 0.993179 0.112620
O O4 0.384268 0.000000 0.000000
O O5 0.659750 0.797826 0.596223
O O6 0.617518 0.862783 0.695946
O O7 0.746437 0.926260 0.661307
O O8 0.346983 0.335155 0.491755
O O9 0.221652 0.303076 0.438805
O O10 0.325767 0.419268 0.391276
O O11 0.639035 0.631742 0.399124
O O12 0.500000 0.477173 0.250000
O O13 0.610843 0.332116 0.250000
O O14 0.620194 0.525366 0.304676
O O15 0.000000 0.691075 0.250000
#
# Coordination Sequence:
#
# PCOD8258061 Si02
#       7
#    16  16  16  16   8   8  16
#     4  11  22  37  58  88 129 165 195 242 307 367
#     4  11  21  38  63  90 118 152 208 256 293 362
#     4  10  19  35  61  91 124 150 200 251 294 354
#     4  10  21  35  60  93 124 160 193 246 304 362
#     4  11  25  44  63  83 121 164 205 258 314 368
#     4  11  23  40  61  83 115 160 203 254 304 352
#     4  11  22  39  64  92 118 160 203 256 307 351
#
# _framework density 18.835647999999999
#
# number of rings (size 3 to 8) (size 9 to 14) (size 15 to 20)
#    0.000    1.333    5.000    1.500    0.000    0.667 
#    0.000    1.667    0.000    3.000    0.000    0.000 
#    0.000    0.000    0.000    0.000    0.000    0.000 
#
# Total GULP energy -595383.093710 kJ/mol
# GULP energy per Si atom -12403.814452 kJ/mol
# Density = 1.879278 g / cm^3
# Si number density = 18.835648 Si / 1000 Ang^3
#
#
#
# Elastic Constant Matrix: (Units=GPa)
#
#
# Indices 1 2 3 4 5 6 
#
# 1 66.9940 29.6181 50.5814 0.0000 0.0000 0.0000
# 2 29.6181 94.7053 47.4794 0.0000 0.0000 0.0000
# 3 50.5814 47.4794 140.9752 0.0000 0.0000 0.0000
# 4 0.0000 0.0000 0.0000 33.9958 0.0000 0.0000
# 5 0.0000 0.0000 0.0000 0.0000 18.7655 0.0000
# 6 0.0000 0.0000 0.0000 0.0000 0.0000 26.2476
#
#
#
# Elastic Compliance Matrix: (Units=1/GPa)
#
#
# Indices 1 2 3 4 5 6 
#
# 1 0.021352 -0.003413 -0.006511 0.000000 0.000000 0.000000
# 2 -0.003413 0.013250 -0.003238 0.000000 0.000000 0.000000
# 3 -0.006511 -0.003238 0.010520 0.000000 0.000000 0.000000
# 4 0.000000 0.000000 0.000000 0.029415 0.000000 0.000000
# 5 0.000000 0.000000 0.000000 0.000000 0.053289 0.000000
# 6 0.000000 0.000000 0.000000 0.000000 0.000000 0.038099
#
#
# Mechanical properties :
#
#
# Convention : Reuss Voigt Hill
#
# Bulk Modulus (GPa) = 53.19984 62.00358 57.60171
# Shear Modulus (GPa) = 25.18693 27.46816 26.32755
#
# Velocity S-wave (km/s) = 3.66073 3.82292 3.74271
# Velocity P-wave (km/s) = 6.79511 7.24403 7.02316
#
# Compressibility (1/GPa) = 0.01879705
#
# Stress axis : x y z
#
# Youngs Moduli (GPa) = 46.83421 75.47333 95.05526
#
# Poissons Ratio (x) = 0.25760 0.61895
# Poissons Ratio (y) = 0.15985 0.30777
# Poissons Ratio (z) = 0.30496 0.24437
#
# Static dielectric constant tensor:
#      x y z
#    x 3.299890 0.000000 0.000000 
#    y 0.000000 3.428470 0.000000 
#    z 0.000000 0.000000 3.563690 
# 
# 
# High freq. dielectric constant tensor:
#      x y z
#    x 1.719720 0.000000 0.000000 
#    y 0.000000 1.737170 0.000000 
#    z 0.000000 0.000000 1.737010 
# 
# From -- ./inp_files/56602.got.cif
#   From: 2010.03.12/outbox.cif.g09.slc.cpg/sg63_29_cif.got.tgz:56602.got - 2010.04.10 19:34:48.
