data_PCOD8258307
_publ_section_title
;
Structure prediction by ZEFSAII (Michael W. Deem and Ramdas Pophale) SiO2 
 PCOD8258307
Probable space group: C M C M
;
_chemical_formula_sum "Si O2"
_cell_formula_units_Z 96
_cell_length_a 8.975880
_cell_length_b 27.315383
_cell_length_c 23.721891
_cell_angle_alpha 90.000000
_cell_angle_beta 90.000000
_cell_angle_gamma 90.000000
_cell_volume 5816.123746
_symmetry_space_group_name_H-M "C M C M"
_symmetry_group_IT_number 63
_symmetry_cell_setting 'orthorhombic'
loop_
_space_group_symop_operation_xyz
x,y,z
-x,-y,1/2+z
x,-y,-z
-x,y,1/2-z
-x,-y,-z
x,y,1/2-z
-x,y,z
x,-y,1/2+z
1/2+x,1/2+y,z
1/2-x,1/2-y,1/2+z
1/2+x,1/2-y,-z
1/2-x,1/2+y,1/2-z
1/2-x,1/2-y,-z
1/2+x,1/2+y,1/2-z
1/2-x,1/2+y,z
1/2+x,1/2-y,1/2+z
loop_
_atom_site_type_symbol
_atom_site_label
_atom_site_fract_x
_atom_site_fract_y
_atom_site_fract_z
Si Si1 0.175673 0.020518 0.416777
Si Si2 0.673887 0.272067 0.916315
Si Si3 0.826056 0.324287 0.483921
Si Si4 0.826169 0.082368 0.313576
Si Si5 0.825608 0.684501 0.314294
Si Si6 0.823456 0.923866 0.026794
O O1 0.229085 0.039524 0.355659
O O2 0.230202 0.057805 0.465206
O O3 0.000000 0.019019 0.421094
O O4 0.230506 0.965003 0.428013
O O5 0.500000 0.283255 0.912944
O O6 0.708091 0.217745 0.938376
O O7 0.745463 0.276301 0.854451
O O8 0.745724 0.312403 0.957285
O O9 0.761499 0.374113 0.458093
O O10 0.000000 0.329275 0.496133
O O11 0.794534 0.064284 0.250000
O O12 0.734619 0.130677 0.328028
O O13 0.000000 0.094341 0.322685
O O14 0.788477 0.699109 0.250000
O O15 0.000000 0.685192 0.326210
O O16 0.000000 0.914574 0.029431
#
# Coordination Sequence:
#
# PCOD8258307 Si02
#       6
#    16  16  16  16  16  16
#     4   8  15  27  43  65  89 116 152 187 218 259
#     4  10  20  33  49  68  92 124 157 187 225 276
#     4  10  20  32  47  70  96 119 150 193 235 274
#     4   9  16  27  45  67  91 120 152 184 221 269
#     4  10  20  32  47  70  98 123 150 189 233 272
#     4   9  16  28  46  64  87 120 153 185 222 266
#
# _framework density 16.505839000000002
#
# number of rings (size 3 to 8) (size 9 to 14) (size 15 to 20)
#    0.000    2.667    0.000    3.500    0.000    4.333 
#    0.000    2.500    0.000    1.000    0.000    2.333 
#    0.000    0.000    0.000    0.000    0.000    0.000 
#
# Total GULP energy -595147.993100 kJ/mol
# GULP energy per Si atom -12398.916523 kJ/mol
# Density = 1.646827 g / cm^3
# Si number density = 16.505839 Si / 1000 Ang^3
#
#
#
# Elastic Constant Matrix: (Units=GPa)
#
#
# Indices 1 2 3 4 5 6 
#
# 1 70.8455 47.1552 46.8257 0.0000 0.0000 0.0000
# 2 47.1552 109.4789 60.9101 0.0000 0.0000 0.0000
# 3 46.8257 60.9101 115.4469 0.0000 0.0000 0.0000
# 4 0.0000 0.0000 0.0000 26.3052 0.0000 0.0000
# 5 0.0000 0.0000 0.0000 0.0000 21.7495 0.0000
# 6 0.0000 0.0000 0.0000 0.0000 0.0000 25.8819
#
#
#
# Elastic Compliance Matrix: (Units=1/GPa)
#
#
# Indices 1 2 3 4 5 6 
#
# 1 0.022057 -0.006402 -0.005569 0.000000 0.000000 0.000000
# 2 -0.006402 0.014788 -0.005205 0.000000 0.000000 0.000000
# 3 -0.005569 -0.005205 0.013667 0.000000 0.000000 0.000000
# 4 0.000000 0.000000 0.000000 0.038015 0.000000 0.000000
# 5 0.000000 0.000000 0.000000 0.000000 0.045978 0.000000
# 6 0.000000 0.000000 0.000000 0.000000 0.000000 0.038637
#
#
# Mechanical properties :
#
#
# Convention : Reuss Voigt Hill
#
# Bulk Modulus (GPa) = 61.88295 67.28368 64.58331
# Shear Modulus (GPa) = 23.48724 24.17935 23.83329
#
# Velocity S-wave (km/s) = 3.77631 3.83155 3.80403
# Velocity P-wave (km/s) = 7.52243 7.77344 7.64897
#
# Compressibility (1/GPa) = 0.01615954
#
# Stress axis : x y z
#
# Youngs Moduli (GPa) = 45.33646 67.62285 73.16924
#
# Poissons Ratio (x) = 0.43295 0.40745
# Poissons Ratio (y) = 0.29026 0.38087
# Poissons Ratio (z) = 0.25246 0.35200
#
# Static dielectric constant tensor:
#      x y z
#    x 3.001130 0.000000 0.000000 
#    y 0.000000 3.118960 0.000000 
#    z 0.000000 0.000000 3.237210 
# 
# 
# High freq. dielectric constant tensor:
#      x y z
#    x 1.628030 0.000000 0.000000 
#    y 0.000000 1.625410 0.000000 
#    z 0.000000 0.000000 1.627880 
# 
# From -- ./inp_files/59907.got.cif
#   From: 2010.03.12/outbox.cif.g09.slc.cpg/sg63_30_cif.got.tgz:59907.got - 2010.04.10 19:34:48.
