data_PCOD8258397
_publ_section_title
;
Structure prediction by ZEFSAII (Michael W. Deem and Ramdas Pophale) SiO2 
 PCOD8258397
Probable space group: C M C M
;
_chemical_formula_sum "Si O2"
_cell_formula_units_Z 104
_cell_length_a 22.160126
_cell_length_b 17.982460
_cell_length_c 14.500363
_cell_angle_alpha 90.000000
_cell_angle_beta 90.000000
_cell_angle_gamma 90.000000
_cell_volume 5778.301554
_symmetry_space_group_name_H-M "C M C M"
_symmetry_group_IT_number 63
_symmetry_cell_setting 'orthorhombic'
loop_
_space_group_symop_operation_xyz
x,y,z
-x,-y,1/2+z
x,-y,-z
-x,y,1/2-z
-x,-y,-z
x,y,1/2-z
-x,y,z
x,-y,1/2+z
1/2+x,1/2+y,z
1/2-x,1/2-y,1/2+z
1/2+x,1/2-y,-z
1/2-x,1/2+y,1/2-z
1/2-x,1/2-y,-z
1/2+x,1/2+y,1/2-z
1/2-x,1/2+y,z
1/2+x,1/2-y,1/2+z
loop_
_atom_site_type_symbol
_atom_site_label
_atom_site_fract_x
_atom_site_fract_y
_atom_site_fract_z
Si Si1 0.760349 0.740068 0.143970
Si Si2 0.844623 0.507618 0.858214
Si Si3 0.117061 0.653082 0.146465
Si Si4 0.932458 0.759806 0.498331
Si Si5 0.759778 0.000000 0.000000
Si Si6 0.568447 0.139229 0.856377
Si Si7 0.185484 0.156978 0.499277
O O1 0.743665 0.759800 0.250000
O O2 0.815143 0.682798 0.137923
O O3 0.777111 0.815238 0.088870
O O4 0.704424 0.701048 0.093174
O O5 0.830238 0.509635 0.750000
O O6 0.881088 0.432863 0.884289
O O7 0.781197 0.511486 0.910191
O O8 0.886059 0.575774 0.891371
O O9 0.092468 0.661101 0.250000
O O10 0.071934 0.699298 0.083156
O O11 0.917782 0.716207 0.592363
O O12 0.885726 0.827504 0.485515
O O13 0.000000 0.793259 0.498459
O O14 0.803956 0.930156 0.986878
O O15 0.579715 0.156009 0.750000
O O16 0.500000 0.112250 0.875054
#
# Coordination Sequence:
#
# PCOD8258397 Si02
#       7
#    16  16  16  16   8  16  16
#     4   9  18  35  55  78 107 136 172 216 265 318
#     4  10  20  32  51  79 112 146 173 207 262 323
#     4   9  17  32  52  77 106 136 171 212 259 317
#     4  10  21  37  53  73 101 138 185 227 266 305
#     4  12  22  36  52  78 116 136 176 222 268 320
#     4   9  19  34  51  74 105 141 181 217 253 310
#     4  10  22  35  54  80 105 141 177 219 268 314
#
# _framework density 17.998367999999999
#
# number of rings (size 3 to 8) (size 9 to 14) (size 15 to 20)
#    0.000    2.308    1.538    0.923    4.308    2.154 
#    0.000    3.846    0.000    0.000    0.000    0.000 
#    0.000    6.154    0.000    0.000    0.000    0.000 
#
# Total GULP energy -644832.826935 kJ/mol
# GULP energy per Si atom -12400.631287 kJ/mol
# Density = 1.795740 g / cm^3
# Si number density = 17.998368 Si / 1000 Ang^3
#
#
#
# Elastic Constant Matrix: (Units=GPa)
#
#
# Indices 1 2 3 4 5 6 
#
# 1 93.9124 64.6846 35.7860 0.0000 0.0000 0.0000
# 2 64.6846 84.8869 22.8840 0.0000 0.0000 0.0000
# 3 35.7860 22.8840 88.6324 0.0000 0.0000 0.0000
# 4 0.0000 0.0000 0.0000 18.4327 0.0000 0.0000
# 5 0.0000 0.0000 0.0000 0.0000 22.2728 0.0000
# 6 0.0000 0.0000 0.0000 0.0000 0.0000 21.0259
#
#
#
# Elastic Compliance Matrix: (Units=1/GPa)
#
#
# Indices 1 2 3 4 5 6 
#
# 1 0.024667 -0.017317 -0.005488 0.000000 0.000000 0.000000
# 2 -0.017317 0.024819 0.000584 0.000000 0.000000 0.000000
# 3 -0.005488 0.000584 0.013348 0.000000 0.000000 0.000000
# 4 0.000000 0.000000 0.000000 0.054251 0.000000 0.000000
# 5 0.000000 0.000000 0.000000 0.000000 0.044898 0.000000
# 6 0.000000 0.000000 0.000000 0.000000 0.000000 0.047560
#
#
# Mechanical properties :
#
#
# Convention : Reuss Voigt Hill
#
# Bulk Modulus (GPa) = 54.37574 57.12676 55.75125
# Shear Modulus (GPa) = 19.22214 21.95142 20.58678
#
# Velocity S-wave (km/s) = 3.27156 3.49611 3.38570
# Velocity P-wave (km/s) = 6.67442 6.93585 6.80639
#
# Compressibility (1/GPa) = 0.01839055
#
# Stress axis : x y z
#
# Youngs Moduli (GPa) = 40.53965 40.29221 74.91868
#
# Poissons Ratio (x) = 0.69774 0.41119
# Poissons Ratio (y) = 0.70203 -0.04375
# Poissons Ratio (z) = 0.22250 -0.02353
#
# Static dielectric constant tensor:
#      x y z
#    x 3.162250 0.000000 0.000000 
#    y 0.000000 3.162820 0.000000 
#    z 0.000000 0.000000 3.543580 
# 
# 
# High freq. dielectric constant tensor:
#      x y z
#    x 1.681570 0.000000 0.000000 
#    y 0.000000 1.675100 0.000000 
#    z 0.000000 0.000000 1.709570 
# 
# From -- ./inp_files/35603.got.cif
#   From: 2010.03.12/outbox.cif.g09.slc.cpg/sg63_18_cif.got.tgz:35603.got - 2010.04.10 19:34:48.
