data_PCOD8258635
_publ_section_title
;
Structure prediction by ZEFSAII (Michael W. Deem and Ramdas Pophale) SiO2 
 PCOD8258635
Probable space group: C M C M
;
_chemical_formula_sum "Si O2"
_cell_formula_units_Z 96
_cell_length_a 18.858160
_cell_length_b 30.352157
_cell_length_c 9.214990
_cell_angle_alpha 90.000000
_cell_angle_beta 90.000000
_cell_angle_gamma 90.000000
_cell_volume 5274.529728
_symmetry_space_group_name_H-M "C M C M"
_symmetry_group_IT_number 63
_symmetry_cell_setting 'orthorhombic'
loop_
_space_group_symop_operation_xyz
x,y,z
-x,-y,1/2+z
x,-y,-z
-x,y,1/2-z
-x,-y,-z
x,y,1/2-z
-x,y,z
x,-y,1/2+z
1/2+x,1/2+y,z
1/2-x,1/2-y,1/2+z
1/2+x,1/2-y,-z
1/2-x,1/2+y,1/2-z
1/2-x,1/2-y,-z
1/2+x,1/2+y,1/2-z
1/2-x,1/2+y,z
1/2+x,1/2-y,1/2+z
loop_
_atom_site_type_symbol
_atom_site_label
_atom_site_fract_x
_atom_site_fract_y
_atom_site_fract_z
Si Si1 0.175424 0.301678 0.419522
Si Si2 0.921091 0.124981 0.077959
Si Si3 0.329088 0.456295 0.920169
Si Si4 0.165995 0.456256 0.919212
Si Si5 0.417228 0.870063 0.918938
Si Si6 0.818001 0.200389 0.081463
O O1 0.179024 0.312246 0.250000
O O2 0.112136 0.328995 0.490845
O O3 0.159586 0.250410 0.450097
O O4 0.249975 0.314814 0.490606
O O5 0.925189 0.122297 0.250000
O O6 0.876084 0.083772 0.018826
O O7 0.883468 0.170298 0.030721
O O8 0.000000 0.124035 0.010295
O O9 0.339739 0.463287 0.750000
O O10 0.247517 0.445955 0.958194
O O11 0.355759 0.500000 0.000000
O O12 0.155189 0.464791 0.750000
O O13 0.119924 0.414915 0.972820
O O14 0.139039 0.500000 0.000000
O O15 0.401095 0.861772 0.750000
O O16 0.500000 0.874417 0.950740
O O17 0.799120 0.192938 0.250000
#
# Coordination Sequence:
#
# PCOD8258635 Si02
#       6
#    16  16  16  16  16  16
#     4  10  20  33  53  79 103 130 168 215 259 299
#     4   9  17  30  50  74  98 129 168 204 241 291
#     4   9  17  30  49  71  95 125 162 204 245 289
#     4   9  18  33  52  73  97 129 170 212 253 298
#     4  10  21  36  53  74 104 141 173 203 250 312
#     4   9  18  34  55  76 100 132 170 212 255 301
#
# _framework density 18.200673999999999
#
# number of rings (size 3 to 8) (size 9 to 14) (size 15 to 20)
#    0.000    2.667    0.000    1.500    0.000    5.667 
#    0.000    5.833    0.000    1.500    0.000    0.000 
#    0.000    0.000    0.000    0.000    0.000    0.000 
#
# Total GULP energy -595306.640127 kJ/mol
# GULP energy per Si atom -12402.221669 kJ/mol
# Density = 1.815925 g / cm^3
# Si number density = 18.200674 Si / 1000 Ang^3
#
#
#
# Elastic Constant Matrix: (Units=GPa)
#
#
# Indices 1 2 3 4 5 6 
#
# 1 127.7273 87.2211 41.2727 0.0000 0.0000 0.0000
# 2 87.2211 135.2599 44.5410 0.0000 0.0000 0.0000
# 3 41.2727 44.5410 47.2969 0.0000 0.0000 0.0000
# 4 0.0000 0.0000 0.0000 31.0742 0.0000 0.0000
# 5 0.0000 0.0000 0.0000 0.0000 21.1872 0.0000
# 6 0.0000 0.0000 0.0000 0.0000 0.0000 21.0251
#
#
#
# Elastic Compliance Matrix: (Units=1/GPa)
#
#
# Indices 1 2 3 4 5 6 
#
# 1 0.015002 -0.007774 -0.005771 0.000000 0.000000 0.000000
# 2 -0.007774 0.014745 -0.007102 0.000000 0.000000 0.000000
# 3 -0.005771 -0.007102 0.032867 0.000000 0.000000 0.000000
# 4 0.000000 0.000000 0.000000 0.032181 0.000000 0.000000
# 5 0.000000 0.000000 0.000000 0.000000 0.047198 0.000000
# 6 0.000000 0.000000 0.000000 0.000000 0.000000 0.047562
#
#
# Mechanical properties :
#
#
# Convention : Reuss Voigt Hill
#
# Bulk Modulus (GPa) = 46.90191 72.92821 59.91506
# Shear Modulus (GPa) = 21.01235 23.80725 22.40980
#
# Velocity S-wave (km/s) = 3.40145 3.62061 3.51274
# Velocity P-wave (km/s) = 6.42275 7.59173 7.03158
#
# Compressibility (1/GPa) = 0.02132109
#
# Stress axis : x y z
#
# Youngs Moduli (GPa) = 66.65596 67.82076 30.42590
#
# Poissons Ratio (x) = 0.52723 0.17558
# Poissons Ratio (y) = 0.51818 0.21608
# Poissons Ratio (z) = 0.38465 0.48165
#
# Static dielectric constant tensor:
#      x y z
#    x 3.423570 0.000000 0.000000 
#    y 0.000000 3.492880 0.000000 
#    z 0.000000 0.000000 3.154720 
# 
# 
# High freq. dielectric constant tensor:
#      x y z
#    x 1.702450 0.000000 0.000000 
#    y 0.000000 1.716400 0.000000 
#    z 0.000000 0.000000 1.682340 
# 
# From -- ./inp_files/21333.got.cif
#   From: 2010.03.12/outbox.cif.g09.slc.cpg/sg63_11_cif.got.tgz:21333.got - 2010.04.10 19:34:48.
