data_PCOD8258888
_publ_section_title
;
Structure prediction by ZEFSAII (Michael W. Deem and Ramdas Pophale) SiO2 
 PCOD8258888
Probable space group: C M C M
;
_chemical_formula_sum "Si O2"
_cell_formula_units_Z 96
_cell_length_a 22.923141
_cell_length_b 23.941911
_cell_length_c 9.009474
_cell_angle_alpha 90.000000
_cell_angle_beta 90.000000
_cell_angle_gamma 90.000000
_cell_volume 4944.613772
_symmetry_space_group_name_H-M "C M C M"
_symmetry_group_IT_number 63
_symmetry_cell_setting 'orthorhombic'
loop_
_space_group_symop_operation_xyz
x,y,z
-x,-y,1/2+z
x,-y,-z
-x,y,1/2-z
-x,-y,-z
x,y,1/2-z
-x,y,z
x,-y,1/2+z
1/2+x,1/2+y,z
1/2-x,1/2-y,1/2+z
1/2+x,1/2-y,-z
1/2-x,1/2+y,1/2-z
1/2-x,1/2-y,-z
1/2+x,1/2+y,1/2-z
1/2-x,1/2+y,z
1/2+x,1/2-y,1/2+z
loop_
_atom_site_type_symbol
_atom_site_label
_atom_site_fract_x
_atom_site_fract_y
_atom_site_fract_z
Si Si1 0.432418 0.058526 0.924557
Si Si2 0.875357 0.771898 0.922733
Si Si3 0.132561 0.339875 0.577945
Si Si4 0.434253 0.629974 0.580517
Si Si5 0.172141 0.057196 0.921158
Si Si6 0.731820 0.345573 0.580506
O O1 0.420283 0.053681 0.750000
O O2 0.500000 0.072863 0.957302
O O3 0.392014 0.106673 0.992140
O O4 0.415000 0.000000 0.000000
O O5 0.882727 0.758847 0.750000
O O6 0.809365 0.792644 0.960470
O O7 0.894261 0.716681 0.011756
O O8 0.920774 0.819398 0.970425
O O9 0.115747 0.345972 0.750000
O O10 0.201248 0.331537 0.553435
O O11 0.423095 0.649797 0.750000
O O12 0.500000 0.609673 0.555474
O O13 0.393491 0.577273 0.542461
O O14 0.182862 0.047164 0.750000
O O15 0.217948 0.102897 0.975066
O O16 0.185898 0.000000 0.000000
O O17 0.719440 0.363258 0.750000
#
# Coordination Sequence:
#
# PCOD8258888 Si02
#       6
#    16  16  16  16  16  16
#     4  10  22  41  62  83 109 140 175 218 267 316
#     4  10  20  35  55  80 111 143 177 221 270 316
#     4  11  22  36  58  85 110 141 180 217 260 318
#     4   9  19  36  55  76 105 142 183 225 269 317
#     4  10  20  34  54  78 106 142 181 223 271 319
#     4   9  20  37  55  78 109 143 179 221 267 315
#
# _framework density 19.415064999999998
#
# number of rings (size 3 to 8) (size 9 to 14) (size 15 to 20)
#    0.000    2.167    0.000    2.500    0.000    5.667 
#    0.000    0.000    0.000    0.000    0.000    0.000 
#    0.000    0.000    0.000    0.000    0.000    0.000 
#
# Total GULP energy -595292.449784 kJ/mol
# GULP energy per Si atom -12401.926037 kJ/mol
# Density = 1.937088 g / cm^3
# Si number density = 19.415065 Si / 1000 Ang^3
#
#
#
# Elastic Constant Matrix: (Units=GPa)
#
#
# Indices 1 2 3 4 5 6 
#
# 1 26.3056 -3.4987 12.2405 0.0000 0.0000 0.0000
# 2 -3.4987 102.6533 52.3891 0.0000 0.0000 0.0000
# 3 12.2405 52.3891 94.0533 0.0000 0.0000 0.0000
# 4 0.0000 0.0000 0.0000 36.9156 0.0000 0.0000
# 5 0.0000 0.0000 0.0000 0.0000 28.2406 0.0000
# 6 0.0000 0.0000 0.0000 0.0000 0.0000 11.6559
#
#
#
# Elastic Compliance Matrix: (Units=1/GPa)
#
#
# Indices 1 2 3 4 5 6 
#
# 1 0.042985 0.006036 -0.008956 0.000000 0.000000 0.000000
# 2 0.006036 0.014458 -0.008839 0.000000 0.000000 0.000000
# 3 -0.008956 -0.008839 0.016721 0.000000 0.000000 0.000000
# 4 0.000000 0.000000 0.000000 0.027089 0.000000 0.000000
# 5 0.000000 0.000000 0.000000 0.000000 0.035410 0.000000
# 6 0.000000 0.000000 0.000000 0.000000 0.000000 0.085794
#
#
# Mechanical properties :
#
#
# Convention : Reuss Voigt Hill
#
# Bulk Modulus (GPa) = 19.74495 38.36376 29.05435
# Shear Modulus (GPa) = 19.02168 26.15451 22.58809
#
# Velocity S-wave (km/s) = 3.13347 3.67430 3.41461
# Velocity P-wave (km/s) = 4.82530 6.14844 5.52661
#
# Compressibility (1/GPa) = 0.05064587
#
# Stress axis : x y z
#
# Youngs Moduli (GPa) = 23.26385 69.16473 59.80379
#
# Poissons Ratio (x) = -0.41748 0.53563
# Poissons Ratio (y) = -0.14042 0.52861
# Poissons Ratio (z) = 0.20836 0.61135
#
# Static dielectric constant tensor:
#      x y z
#    x 3.471060 0.000000 0.000000 
#    y 0.000000 3.395280 0.000000 
#    z 0.000000 0.000000 3.649250 
# 
# 
# High freq. dielectric constant tensor:
#      x y z
#    x 1.748520 0.000000 0.000000 
#    y 0.000000 1.755080 0.000000 
#    z 0.000000 0.000000 1.767100 
# 
# From -- ./inp_files/10489.got.cif
#   From: 2010.03.12/outbox.cif.g09.slc.cpg/sg63_6_cif.got.tgz:10489.got - 2010.04.10 19:34:48.
