data_PCOD8258302
_publ_section_title
;
Structure prediction by ZEFSAII (Michael W. Deem and Ramdas Pophale) SiO2 
 PCOD8258302
Probable space group: C M C M
;
_chemical_formula_sum "Si O2"
_cell_formula_units_Z 80
_cell_length_a 18.293891
_cell_length_b 27.085246
_cell_length_c 9.393361
_cell_angle_alpha 90.000000
_cell_angle_beta 90.000000
_cell_angle_gamma 90.000000
_cell_volume 4654.359069
_symmetry_space_group_name_H-M "C M C M"
_symmetry_group_IT_number 63
_symmetry_cell_setting 'orthorhombic'
loop_
_space_group_symop_operation_xyz
x,y,z
-x,-y,1/2+z
x,-y,-z
-x,y,1/2-z
-x,-y,-z
x,y,1/2-z
-x,y,z
x,-y,1/2+z
1/2+x,1/2+y,z
1/2-x,1/2-y,1/2+z
1/2+x,1/2-y,-z
1/2-x,1/2+y,1/2-z
1/2-x,1/2-y,-z
1/2+x,1/2+y,1/2-z
1/2-x,1/2+y,z
1/2+x,1/2-y,1/2+z
loop_
_atom_site_type_symbol
_atom_site_label
_atom_site_fract_x
_atom_site_fract_y
_atom_site_fract_z
Si Si1 0.803040 0.896422 0.911567
Si Si2 0.918632 0.352392 0.580542
Si Si3 0.344794 0.951030 0.914943
Si Si4 0.084394 0.049216 0.914033
Si Si5 0.220518 0.703909 0.414939
O O1 0.831682 0.901358 0.750000
O O2 0.739163 0.935932 0.939627
O O3 0.775006 0.841441 0.940126
O O4 0.868997 0.906148 0.020354
O O5 0.914411 0.353674 0.750000
O O6 0.896282 0.406902 0.526503
O O7 0.860339 0.311436 0.527404
O O8 0.000000 0.338896 0.525458
O O9 0.360269 0.961369 0.750000
O O10 0.364576 0.000000 0.000000
O O11 0.105808 0.040857 0.750000
O O12 0.000000 0.063749 0.930494
O O13 0.103559 0.000000 0.000000
O O14 0.216652 0.718436 0.250000
O O15 0.250000 0.750000 0.500000
#
# Coordination Sequence:
#
# PCOD8258302 Si02
#       5
#    16  16  16  16  16
#     4   9  18  32  48  67  93 125 160 195 233 282
#     4   8  15  30  50  69  92 124 157 186 221 271
#     4   9  17  28  44  68  95 123 156 189 221 264
#     4  10  20  32  47  69  96 126 160 197 238 284
#     4   9  18  33  53  74  94 120 156 197 240 282
#
# _framework density 17.188188
#
# number of rings (size 3 to 8) (size 9 to 14) (size 15 to 20)
#    0.000    3.000    0.000    3.600    0.000    4.800 
#    0.000    4.000    0.000    5.400    0.000    0.000 
#    0.000    0.000    0.000    0.000    0.000    0.000 
#
# Total GULP energy -495906.207132 kJ/mol
# GULP energy per Si atom -12397.655178 kJ/mol
# Density = 1.714907 g / cm^3
# Si number density = 17.188188 Si / 1000 Ang^3
#
#
#
# Elastic Constant Matrix: (Units=GPa)
#
#
# Indices 1 2 3 4 5 6 
#
# 1 115.0994 67.2224 57.5780 0.0000 0.0000 0.0000
# 2 67.2224 116.6627 52.9043 0.0000 0.0000 0.0000
# 3 57.5780 52.9043 79.6077 0.0000 0.0000 0.0000
# 4 0.0000 0.0000 0.0000 34.6343 0.0000 0.0000
# 5 0.0000 0.0000 0.0000 0.0000 22.1313 0.0000
# 6 0.0000 0.0000 0.0000 0.0000 0.0000 18.6240
#
#
#
# Elastic Compliance Matrix: (Units=1/GPa)
#
#
# Indices 1 2 3 4 5 6 
#
# 1 0.015831 -0.005625 -0.007712 0.000000 0.000000 0.000000
# 2 -0.005625 0.014268 -0.005414 0.000000 0.000000 0.000000
# 3 -0.007712 -0.005414 0.021737 0.000000 0.000000 0.000000
# 4 0.000000 0.000000 0.000000 0.028873 0.000000 0.000000
# 5 0.000000 0.000000 0.000000 0.000000 0.045185 0.000000
# 6 0.000000 0.000000 0.000000 0.000000 0.000000 0.053694
#
#
# Mechanical properties :
#
#
# Convention : Reuss Voigt Hill
#
# Bulk Modulus (GPa) = 69.75895 74.08656 71.92275
# Shear Modulus (GPa) = 22.53593 23.98893 23.26243
#
# Velocity S-wave (km/s) = 3.62488 3.73991 3.68284
# Velocity P-wave (km/s) = 7.62845 7.86422 7.74723
#
# Compressibility (1/GPa) = 0.01433508
#
# Stress axis : x y z
#
# Youngs Moduli (GPa) = 63.16614 70.08826 46.00384
#
# Poissons Ratio (x) = 0.39423 0.35479
# Poissons Ratio (y) = 0.35530 0.24904
# Poissons Ratio (z) = 0.48716 0.37943
#
# Static dielectric constant tensor:
#      x y z
#    x 3.334460 0.000000 0.000000 
#    y 0.000000 3.019990 0.000000 
#    z 0.000000 0.000000 2.944530 
# 
# 
# High freq. dielectric constant tensor:
#      x y z
#    x 1.665340 0.000000 0.000000 
#    y 0.000000 1.651340 0.000000 
#    z 0.000000 0.000000 1.643640 
# 
# From -- ./inp_files/6401.got.cif
#   From: 2010.03.12/outbox.cif.g09.slc.cpg/sg63_4_cif.got.tgz:6401.got - 2010.04.10 19:34:48.
