data_PCOD8258597
_publ_section_title
;
Structure prediction by ZEFSAII (Michael W. Deem and Ramdas Pophale) SiO2 
 PCOD8258597
Probable space group: C M C M
;
_chemical_formula_sum "Si O2"
_cell_formula_units_Z 80
_cell_length_a 8.801395
_cell_length_b 15.440464
_cell_length_c 29.914659
_cell_angle_alpha 90.000000
_cell_angle_beta 90.000000
_cell_angle_gamma 90.000000
_cell_volume 4065.331040
_symmetry_space_group_name_H-M "C M C M"
_symmetry_group_IT_number 63
_symmetry_cell_setting 'orthorhombic'
loop_
_space_group_symop_operation_xyz
x,y,z
-x,-y,1/2+z
x,-y,-z
-x,y,1/2-z
-x,-y,-z
x,y,1/2-z
-x,y,z
x,-y,1/2+z
1/2+x,1/2+y,z
1/2-x,1/2-y,1/2+z
1/2+x,1/2-y,-z
1/2-x,1/2+y,1/2-z
1/2-x,1/2-y,-z
1/2+x,1/2+y,1/2-z
1/2-x,1/2+y,z
1/2+x,1/2-y,1/2+z
loop_
_atom_site_type_symbol
_atom_site_label
_atom_site_fract_x
_atom_site_fract_y
_atom_site_fract_z
Si Si1 0.680159 0.724623 0.863171
Si Si2 0.666271 0.973298 0.045561
Si Si3 0.682154 0.961590 0.358657
Si Si4 0.180459 0.379254 0.800095
Si Si5 0.667189 0.229071 0.954389
O O1 0.500000 0.716653 0.864705
O O2 0.747792 0.632208 0.848106
O O3 0.737117 0.795500 0.827332
O O4 0.736200 0.758936 0.911460
O O5 0.500000 0.018844 0.042473
O O6 0.742270 0.999170 0.093009
O O7 0.646918 0.872087 0.048458
O O8 0.758538 0.000000 0.000000
O O9 0.500000 0.951884 0.360310
O O10 0.737881 0.030743 0.322023
O O11 0.247090 0.374055 0.750000
O O12 0.000000 0.380077 0.799505
O O13 0.500000 0.273246 0.953567
O O14 0.750000 0.250000 0.000000
#
# Coordination Sequence:
#
# PCOD8258597 Si02
#       5
#    16  16  16  16  16
#     4  10  20  35  56  80 112 147 183 229 281 332
#     4   8  15  27  47  72  97 130 174 211 250 312
#     4   9  18  34  55  77 106 142 181 227 272 322
#     4   9  19  35  57  83 107 142 192 232 270 332
#     4  10  20  33  52  78 110 144 182 223 271 329
#
# _framework density 19.678595000000001
#
# number of rings (size 3 to 8) (size 9 to 14) (size 15 to 20)
#    0.000    2.800    0.000    2.400    2.800    0.800 
#    0.000    2.000    0.000    7.200    0.000    0.000 
#    0.000    0.000    0.000    0.000    0.000    0.000 
#
# Total GULP energy -495575.226123 kJ/mol
# GULP energy per Si atom -12389.380653 kJ/mol
# Density = 1.963381 g / cm^3
# Si number density = 19.678595 Si / 1000 Ang^3
#
#
#
# Elastic Constant Matrix: (Units=GPa)
#
#
# Indices 1 2 3 4 5 6 
#
# 1 59.3574 30.0254 36.2270 0.0000 0.0000 0.0000
# 2 30.0254 99.4179 87.7157 0.0000 0.0000 0.0000
# 3 36.2270 87.7157 205.6472 0.0000 0.0000 0.0000
# 4 0.0000 0.0000 0.0000 38.9092 0.0000 0.0000
# 5 0.0000 0.0000 0.0000 0.0000 17.2373 0.0000
# 6 0.0000 0.0000 0.0000 0.0000 0.0000 23.8061
#
#
#
# Elastic Compliance Matrix: (Units=1/GPa)
#
#
# Indices 1 2 3 4 5 6 
#
# 1 0.020182 -0.004743 -0.001532 0.000000 0.000000 0.000000
# 2 -0.004743 0.017243 -0.006519 0.000000 0.000000 0.000000
# 3 -0.001532 -0.006519 0.007913 0.000000 0.000000 0.000000
# 4 0.000000 0.000000 0.000000 0.025701 0.000000 0.000000
# 5 0.000000 0.000000 0.000000 0.000000 0.058014 0.000000
# 6 0.000000 0.000000 0.000000 0.000000 0.000000 0.042006
#
#
# Mechanical properties :
#
#
# Convention : Reuss Voigt Hill
#
# Bulk Modulus (GPa) = 50.63640 74.70651 62.67145
# Shear Modulus (GPa) = 24.60269 30.02081 27.31175
#
# Velocity S-wave (km/s) = 3.53969 3.91007 3.72948
# Velocity P-wave (km/s) = 6.51870 7.64400 7.10366
#
# Compressibility (1/GPa) = 0.01974864
#
# Stress axis : x y z
#
# Youngs Moduli (GPa) = 49.55030 57.99504 126.37150
#
# Poissons Ratio (x) = 0.27510 0.19360
# Poissons Ratio (y) = 0.23504 0.82382
# Poissons Ratio (z) = 0.07591 0.37807
#
# Static dielectric constant tensor:
#      x y z
#    x 3.314180 0.000000 0.000000 
#    y 0.000000 2.730390 0.000000 
#    z 0.000000 0.000000 3.328150 
# 
# 
# High freq. dielectric constant tensor:
#      x y z
#    x 1.725230 0.000000 0.000000 
#    y 0.000000 1.761090 0.000000 
#    z 0.000000 0.000000 1.781680 
# 
# From -- ./inp_files/71562.got.cif
#   From: 2010.03.12/outbox.cif.g09.slc.cpg/sg63_36_cif.got.tgz:71562.got - 2010.04.10 19:34:48.
