data_PCOD8258887
_publ_section_title
;
Structure prediction by ZEFSAII (Michael W. Deem and Ramdas Pophale) SiO2 
 PCOD8258887
Probable space group: C M C M
;
_chemical_formula_sum "Si O2"
_cell_formula_units_Z 72
_cell_length_a 31.701347
_cell_length_b 13.352545
_cell_length_c 8.855454
_cell_angle_alpha 90.000000
_cell_angle_beta 90.000000
_cell_angle_gamma 90.000000
_cell_volume 3748.457556
_symmetry_space_group_name_H-M "C M C M"
_symmetry_group_IT_number 63
_symmetry_cell_setting 'orthorhombic'
loop_
_space_group_symop_operation_xyz
x,y,z
-x,-y,1/2+z
x,-y,-z
-x,y,1/2-z
-x,-y,-z
x,y,1/2-z
-x,y,z
x,-y,1/2+z
1/2+x,1/2+y,z
1/2-x,1/2-y,1/2+z
1/2+x,1/2-y,-z
1/2-x,1/2+y,1/2-z
1/2-x,1/2-y,-z
1/2+x,1/2+y,1/2-z
1/2-x,1/2+y,z
1/2+x,1/2-y,1/2+z
loop_
_atom_site_type_symbol
_atom_site_label
_atom_site_fract_x
_atom_site_fract_y
_atom_site_fract_z
Si Si1 0.649210 0.094513 0.415163
Si Si2 0.572424 0.239866 0.418185
Si Si3 0.204856 0.741279 0.573525
Si Si4 0.369825 0.608620 0.071065
Si Si5 0.000000 0.611986 0.930226
O O1 0.666515 0.064477 0.250000
O O2 0.613410 0.174891 0.396389
O O3 0.687197 0.135736 0.515917
O O4 0.629316 0.000000 0.500000
O O5 0.554054 0.265132 0.250000
O O6 0.587548 0.340463 0.504014
O O7 0.539974 0.176506 0.517783
O O8 0.211007 0.736631 0.750000
O O9 0.250000 0.750000 0.500000
O O10 0.172649 0.830351 0.527970
O O11 0.375519 0.601462 0.250000
O O12 0.364659 0.500000 0.000000
O O13 0.000000 0.600555 0.750000
O O14 0.000000 0.500000 0.000000
#
# Coordination Sequence:
#
# PCOD8258887 Si02
#       5
#    16  16  16  16   8
#     4  10  20  34  54  78 106 141 179 220 271 328
#     4  10  21  38  59  84 114 147 185 230 278 332
#     4  10  21  36  54  78 110 144 184 232 279 329
#     4  10  21  38  60  84 111 149 192 235 284 338
#     4  12  24  38  59  88 121 154 188 228 278 336
#
# _framework density 19.207901
#
# number of rings (size 3 to 8) (size 9 to 14) (size 15 to 20)
#    0.000    1.778    0.000    4.333    0.000    8.000 
#    0.000    2.778    0.000    0.000    0.000    0.000 
#    0.000    0.000    0.000    0.000    0.000    0.000 
#
# Total GULP energy -446259.201415 kJ/mol
# GULP energy per Si atom -12396.088928 kJ/mol
# Density = 1.916418 g / cm^3
# Si number density = 19.207901 Si / 1000 Ang^3
#
#
#
# Elastic Constant Matrix: (Units=GPa)
#
#
# Indices 1 2 3 4 5 6 
#
# 1 87.1928 26.3957 56.1422 0.0000 0.0000 0.0000
# 2 26.3957 100.8529 68.7841 0.0000 0.0000 0.0000
# 3 56.1422 68.7841 152.0143 0.0000 0.0000 0.0000
# 4 0.0000 0.0000 0.0000 37.1895 0.0000 0.0000
# 5 0.0000 0.0000 0.0000 0.0000 29.1060 0.0000
# 6 0.0000 0.0000 0.0000 0.0000 0.0000 3.4461
#
#
#
# Elastic Compliance Matrix: (Units=1/GPa)
#
#
# Indices 1 2 3 4 5 6 
#
# 1 0.015050 -0.000214 -0.005461 0.000000 0.000000 0.000000
# 2 -0.000214 0.014344 -0.006411 0.000000 0.000000 0.000000
# 3 -0.005461 -0.006411 0.011496 0.000000 0.000000 0.000000
# 4 0.000000 0.000000 0.000000 0.026889 0.000000 0.000000
# 5 0.000000 0.000000 0.000000 0.000000 0.034357 0.000000
# 6 0.000000 0.000000 0.000000 0.000000 0.000000 0.290185
#
#
# Mechanical properties :
#
#
# Convention : Reuss Voigt Hill
#
# Bulk Modulus (GPa) = 59.82022 71.41157 65.61589
# Shear Modulus (GPa) = 11.84642 26.53085 19.18864
#
# Velocity S-wave (km/s) = 2.48613 3.72054 3.16412
# Velocity P-wave (km/s) = 6.28111 7.46428 6.89811
#
# Compressibility (1/GPa) = 0.01671676
#
# Stress axis : x y z
#
# Youngs Moduli (GPa) = 66.44408 69.71431 86.98327
#
# Poissons Ratio (x) = 0.01493 0.47506
# Poissons Ratio (y) = 0.01423 0.55769
# Poissons Ratio (z) = 0.36288 0.44697
#
# Static dielectric constant tensor:
#      x y z
#    x 3.589130 0.000000 0.000000 
#    y 0.000000 3.575010 0.000000 
#    z 0.000000 0.000000 -0.401030 
# 
# 
# High freq. dielectric constant tensor:
#      x y z
#    x 1.737420 0.000000 0.000000 
#    y 0.000000 1.744610 0.000000 
#    z 0.000000 0.000000 1.771320 
# 
# From -- ./inp_files/13937.got.cif
#   From: 2010.03.12/outbox.cif.g09.slc.cpg/sg63_7_cif.got.tgz:13937.got - 2010.04.10 19:34:48.
