data_PCOD8258555
_publ_section_title
;
Structure prediction by ZEFSAII (Michael W. Deem and Ramdas Pophale) SiO2 
 PCOD8258555
Probable space group: C M C M
;
_chemical_formula_sum "Si O2"
_cell_formula_units_Z 128
_cell_length_a 19.022539
_cell_length_b 18.827864
_cell_length_c 19.703105
_cell_angle_alpha 90.000000
_cell_angle_beta 90.000000
_cell_angle_gamma 90.000000
_cell_volume 7056.741479
_symmetry_space_group_name_H-M "C M C M"
_symmetry_group_IT_number 63
_symmetry_cell_setting 'orthorhombic'
loop_
_space_group_symop_operation_xyz
x,y,z
-x,-y,1/2+z
x,-y,-z
-x,y,1/2-z
-x,-y,-z
x,y,1/2-z
-x,y,z
x,-y,1/2+z
1/2+x,1/2+y,z
1/2-x,1/2-y,1/2+z
1/2+x,1/2-y,-z
1/2-x,1/2+y,1/2-z
1/2-x,1/2-y,-z
1/2+x,1/2+y,1/2-z
1/2-x,1/2+y,z
1/2+x,1/2-y,1/2+z
loop_
_atom_site_type_symbol
_atom_site_label
_atom_site_fract_x
_atom_site_fract_y
_atom_site_fract_z
Si Si1 0.417097 0.428643 0.469067
Si Si2 0.681063 0.171697 0.049316
Si Si3 0.422629 0.955081 0.565872
Si Si4 0.340732 0.783443 0.171466
Si Si5 0.340496 0.695962 0.043989
Si Si6 0.417888 0.927924 0.327821
Si Si7 0.081608 0.886067 0.323826
Si Si8 0.815928 0.242088 0.676375
O O1 0.383524 0.500000 0.500000
O O2 0.500000 0.429848 0.475926
O O3 0.393324 0.359957 0.511139
O O4 0.394090 0.430753 0.389504
O O5 0.635706 0.101163 0.042888
O O6 0.764027 0.159195 0.038238
O O7 0.667375 0.195180 0.125852
O O8 0.654440 0.230982 0.997358
O O9 0.500000 0.922415 0.586276
O O10 0.436226 0.000000 0.500000
O O11 0.393617 0.005226 0.626709
O O12 0.358923 0.763562 0.250000
O O13 0.361846 0.717445 0.121680
O O14 0.378566 0.856030 0.149257
O O15 0.257686 0.797473 0.159989
O O16 0.399397 0.946199 0.250000
O O17 0.500000 0.913059 0.338265
O O18 0.097222 0.923673 0.250000
O O19 0.121199 0.812461 0.327226
O O20 0.000000 0.867727 0.329995
O O21 0.811259 0.278111 0.750000
#
# Coordination Sequence:
#
# PCOD8258555 Si02
#       8
#    16  16  16  16  16  16  16  16
#     4  10  21  37  55  78 107 138 172 217 271 315
#     4  10  20  33  51  76 104 138 172 214 263 310
#     4  10  21  35  50  74 105 136 171 213 260 310
#     4   9  18  33  54  76 105 141 177 219 260 304
#     4  10  20  35  52  76 104 135 177 219 262 312
#     4   9  18  34  54  76 105 139 174 212 255 307
#     4   9  17  32  54  77 103 134 169 209 254 311
#     4   9  17  31  51  76 105 134 170 213 256 304
#
# _framework density 18.138684000000001
#
# number of rings (size 3 to 8) (size 9 to 14) (size 15 to 20)
#    0.000    2.500    1.250    0.750    0.000    2.500 
#    2.250    0.625    0.000    0.750    0.000    0.000 
#    0.000    0.000    0.000    0.000    0.000    0.000 
#
# Total GULP energy -793072.060041 kJ/mol
# GULP energy per Si atom -12391.750938 kJ/mol
# Density = 1.809740 g / cm^3
# Si number density = 18.138684 Si / 1000 Ang^3
#
#
#
# Elastic Constant Matrix: (Units=GPa)
#
#
# Indices 1 2 3 4 5 6 
#
# 1 34.4581 33.7526 25.2903 0.0000 0.0000 0.0000
# 2 33.7526 81.4941 49.2801 0.0000 0.0000 0.0000
# 3 25.2903 49.2801 119.2758 0.0000 0.0000 0.0000
# 4 0.0000 0.0000 0.0000 29.5448 0.0000 0.0000
# 5 0.0000 0.0000 0.0000 0.0000 27.0954 0.0000
# 6 0.0000 0.0000 0.0000 0.0000 0.0000 15.8372
#
#
#
# Elastic Compliance Matrix: (Units=1/GPa)
#
#
# Indices 1 2 3 4 5 6 
#
# 1 0.049474 -0.018859 -0.002698 0.000000 0.000000 0.000000
# 2 -0.018859 0.023547 -0.005730 0.000000 0.000000 0.000000
# 3 -0.002698 -0.005730 0.011323 0.000000 0.000000 0.000000
# 4 0.000000 0.000000 0.000000 0.033847 0.000000 0.000000
# 5 0.000000 0.000000 0.000000 0.000000 0.036907 0.000000
# 6 0.000000 0.000000 0.000000 0.000000 0.000000 0.063142
#
#
# Mechanical properties :
#
#
# Convention : Reuss Voigt Hill
#
# Bulk Modulus (GPa) = 33.59120 50.20823 41.89971
# Shear Modulus (GPa) = 17.68424 22.95582 20.32003
#
# Velocity S-wave (km/s) = 3.12580 3.56135 3.35066
# Velocity P-wave (km/s) = 5.62021 6.68216 6.17406
#
# Compressibility (1/GPa) = 0.02976970
#
# Stress axis : x y z
#
# Youngs Moduli (GPa) = 20.21261 42.46895 88.31295
#
# Poissons Ratio (x) = 0.80093 0.23829
# Poissons Ratio (y) = 0.38119 0.50602
# Poissons Ratio (z) = 0.05454 0.24334
#
# Static dielectric constant tensor:
#      x y z
#    x 3.358740 0.000000 0.000000 
#    y 0.000000 3.073470 0.000000 
#    z 0.000000 0.000000 3.947890 
# 
# 
# High freq. dielectric constant tensor:
#      x y z
#    x 1.699330 0.000000 0.000000 
#    y 0.000000 1.668750 0.000000 
#    z 0.000000 0.000000 1.727770 
# 
# From -- ./inp_files/56981.got.cif
#   From: 2010.03.12/outbox.cif.g09.slc.cpg/sg63_29_cif.got.tgz:56981.got - 2010.04.10 19:34:48.
