data_PCOD8258099
_publ_section_title
;
Structure prediction by ZEFSAII (Michael W. Deem and Ramdas Pophale) SiO2 
 PCOD8258099
Probable space group: C M C M
;
_chemical_formula_sum "Si O2"
_cell_formula_units_Z 112
_cell_length_a 13.867198
_cell_length_b 13.281560
_cell_length_c 32.052820
_cell_angle_alpha 90.000000
_cell_angle_beta 90.000000
_cell_angle_gamma 90.000000
_cell_volume 5903.424996
_symmetry_space_group_name_H-M "C M C M"
_symmetry_group_IT_number 63
_symmetry_cell_setting 'orthorhombic'
loop_
_space_group_symop_operation_xyz
x,y,z
-x,-y,1/2+z
x,-y,-z
-x,y,1/2-z
-x,-y,-z
x,y,1/2-z
-x,y,z
x,-y,1/2+z
1/2+x,1/2+y,z
1/2-x,1/2-y,1/2+z
1/2+x,1/2-y,-z
1/2-x,1/2+y,1/2-z
1/2-x,1/2-y,-z
1/2+x,1/2+y,1/2-z
1/2-x,1/2+y,z
1/2+x,1/2-y,1/2+z
loop_
_atom_site_type_symbol
_atom_site_label
_atom_site_fract_x
_atom_site_fract_y
_atom_site_fract_z
Si Si1 0.766685 0.497440 0.702394
Si Si2 0.759648 0.689374 0.649989
Si Si3 0.388530 0.751904 0.012331
Si Si4 0.389094 0.380182 0.656106
Si Si5 0.776867 0.145944 0.554375
Si Si6 0.610330 0.195034 0.297668
Si Si7 0.109247 0.050314 0.063348
O O1 0.760688 0.535070 0.750000
O O2 0.795401 0.588315 0.672223
O O3 0.664515 0.446707 0.690774
O O4 0.851282 0.417304 0.695777
O O5 0.846090 0.768510 0.653347
O O6 0.730944 0.669278 0.602768
O O7 0.663868 0.726312 0.673020
O O8 0.500000 0.783751 0.011340
O O9 0.327726 0.844119 0.032152
O O10 0.368178 0.654794 0.040896
O O11 0.350574 0.727210 0.965892
O O12 0.500000 0.370294 0.669264
O O13 0.376232 0.436645 0.612439
O O14 0.817522 0.033937 0.546589
O O15 0.625280 0.229584 0.250000
O O16 0.500000 0.196213 0.311159
O O17 0.000000 0.015237 0.053297
#
# Coordination Sequence:
#
# PCOD8258099 Si02
#       7
#    16  16  16  16  16  16  16
#     4  10  21  38  58  82 114 149 185 229 280 332
#     4  11  21  35  58  85 113 145 186 232 280 331
#     4  10  22  39  58  83 114 149 188 233 282 334
#     4  10  21  37  58  84 115 146 186 236 278 327
#     4  11  21  34  60  86 113 146 188 235 281 333
#     4   9  20  38  56  77 110 150 187 224 272 333
#     4  10  19  36  59  82 108 145 189 228 274 332
#
# _framework density 18.972035999999999
#
# number of rings (size 3 to 8) (size 9 to 14) (size 15 to 20)
#    0.000    1.857    2.857    1.286    0.000    4.286 
#    0.000    0.000    0.000    7.714    0.000    0.000 
#    0.000    0.000    0.000    0.000    0.000    0.000 
#
# Total GULP energy -694566.717705 kJ/mol
# GULP energy per Si atom -12402.977102 kJ/mol
# Density = 1.892886 g / cm^3
# Si number density = 18.972036 Si / 1000 Ang^3
#
#
#
# Elastic Constant Matrix: (Units=GPa)
#
#
# Indices 1 2 3 4 5 6 
#
# 1 81.9841 -1.6089 -14.8719 0.0000 0.0000 0.0000
# 2 -1.6089 41.0942 -13.7411 0.0000 0.0000 0.0000
# 3 -14.8719 -13.7411 58.7400 0.0000 0.0000 0.0000
# 4 0.0000 0.0000 0.0000 -8.6317 0.0000 0.0000
# 5 0.0000 0.0000 0.0000 0.0000 22.0160 0.0000
# 6 0.0000 0.0000 0.0000 0.0000 0.0000 24.4960
#
#
#
# Elastic Compliance Matrix: (Units=1/GPa)
#
#
# Indices 1 2 3 4 5 6 
#
# 1 0.012897 0.001732 0.003671 0.000000 0.000000 0.000000
# 2 0.001732 0.026632 0.006669 0.000000 0.000000 0.000000
# 3 0.003671 0.006669 0.019514 0.000000 0.000000 0.000000
# 4 0.000000 0.000000 0.000000 -0.115852 0.000000 0.000000
# 5 0.000000 0.000000 0.000000 0.000000 0.045422 0.000000
# 6 0.000000 0.000000 0.000000 0.000000 0.000000 0.040823
#
#
# Mechanical properties :
#
#
# Convention : Reuss Voigt Hill
#
# Bulk Modulus (GPa) = 12.02124 13.48605 12.75364
# Shear Modulus (GPa) = 151.41719 21.71206 86.56462
#
# Velocity S-wave (km/s) = 8.94338 3.38660 6.76214
# Velocity P-wave (km/s) = 10.62993 4.73455 8.22834
#
# Compressibility (1/GPa) = 0.08318610
#
# Stress axis : x y z
#
# Youngs Moduli (GPa) = 77.53539 37.54879 51.24652
#
# Poissons Ratio (x) = -0.06505 -0.18811
# Poissons Ratio (y) = -0.13432 -0.34175
# Poissons Ratio (z) = -0.28460 -0.25040
#
# Static dielectric constant tensor:
#      x y z
#    x 3.496500 0.000000 0.000000 
#    y 0.000000 3.402380 0.000000 
#    z 0.000000 0.000000 3.608930 
# 
# 
# High freq. dielectric constant tensor:
#      x y z
#    x 1.735860 0.000000 0.000000 
#    y 0.000000 1.730420 0.000000 
#    z 0.000000 0.000000 1.749640 
# 
# From -- ./inp_files/73447.got.cif
#   From: 2010.03.12/outbox.cif.g09.slc.cpg/sg63_37_cif.got.tgz:73447.got - 2010.04.10 19:34:48.
