data_PCOD8258730
_publ_section_title
;
Structure prediction by ZEFSAII (Michael W. Deem and Ramdas Pophale) SiO2 
 PCOD8258730
Probable space group: C M C M
;
_chemical_formula_sum "Si O2"
_cell_formula_units_Z 88
_cell_length_a 23.145895
_cell_length_b 8.111241
_cell_length_c 22.110765
_cell_angle_alpha 90.000000
_cell_angle_beta 90.000000
_cell_angle_gamma 90.000000
_cell_volume 4151.117750
_symmetry_space_group_name_H-M "C M C M"
_symmetry_group_IT_number 63
_symmetry_cell_setting 'orthorhombic'
loop_
_space_group_symop_operation_xyz
x,y,z
-x,-y,1/2+z
x,-y,-z
-x,y,1/2-z
-x,-y,-z
x,y,1/2-z
-x,y,z
x,-y,1/2+z
1/2+x,1/2+y,z
1/2-x,1/2-y,1/2+z
1/2+x,1/2-y,-z
1/2-x,1/2+y,1/2-z
1/2-x,1/2-y,-z
1/2+x,1/2+y,1/2-z
1/2-x,1/2+y,z
1/2+x,1/2-y,1/2+z
loop_
_atom_site_type_symbol
_atom_site_label
_atom_site_fract_x
_atom_site_fract_y
_atom_site_fract_z
Si Si1 0.161111 0.778127 0.318444
Si Si2 0.728852 0.608132 0.318486
Si Si3 0.063976 0.234079 0.046275
Si Si4 0.816202 0.703703 0.572786
Si Si5 0.436172 0.632108 0.589279
Si Si6 0.267417 0.500000 0.500000
O O1 0.136407 0.782300 0.250000
O O2 0.201283 0.616816 0.330486
O O3 0.108734 0.785279 0.364904
O O4 0.206163 0.925763 0.330319
O O5 0.716642 0.666376 0.250000
O O6 0.694606 0.736715 0.359785
O O7 0.116358 0.352872 0.067611
O O8 0.000000 0.300685 0.065260
O O9 0.076322 0.060177 0.078973
O O10 0.066464 0.224055 0.974288
O O11 0.773293 0.554661 0.556024
O O12 0.807189 0.851783 0.523622
O O13 0.500000 0.653935 0.617521
#
# Coordination Sequence:
#
# PCOD8258730 Si02
#       6
#    16  16  16  16  16   8
#     4  10  20  34  51  78 105 135 174 215 260 307
#     4  10  21  34  52  74 107 143 172 213 259 310
#     4   9  18  31  51  73 103 139 169 210 261 310
#     4  11  20  36  52  77 112 132 182 207 269 314
#     4   9  17  31  50  75 102 135 171 211 260 305
#     4  10  24  30  52  86 104 140 160 230 260 312
#
# _framework density 21.199110999999998
#
# number of rings (size 3 to 8) (size 9 to 14) (size 15 to 20)
#    0.000    2.182    1.818    3.273    5.091    0.364 
#    0.000    0.455    0.000    0.545    0.000    1.273 
#    0.000    7.273    0.000    0.000    0.000    0.000 
#
# Total GULP energy -545422.353663 kJ/mol
# GULP energy per Si atom -12395.962583 kJ/mol
# Density = 2.115086 g / cm^3
# Si number density = 21.199111 Si / 1000 Ang^3
#
#
#
# Elastic Constant Matrix: (Units=GPa)
#
#
# Indices 1 2 3 4 5 6 
#
# 1 156.4367 3.4685 31.9876 0.0000 0.0000 0.0000
# 2 3.4685 13.8575 -11.7012 0.0000 0.0000 0.0000
# 3 31.9876 -11.7012 52.8414 0.0000 0.0000 0.0000
# 4 0.0000 0.0000 0.0000 13.0892 0.0000 0.0000
# 5 0.0000 0.0000 0.0000 0.0000 39.7711 0.0000
# 6 0.0000 0.0000 0.0000 0.0000 0.0000 23.7051
#
#
#
# Elastic Compliance Matrix: (Units=1/GPa)
#
#
# Indices 1 2 3 4 5 6 
#
# 1 0.007862 -0.007364 -0.006390 0.000000 0.000000 0.000000
# 2 -0.007364 0.095656 0.025640 0.000000 0.000000 0.000000
# 3 -0.006390 0.025640 0.028470 0.000000 0.000000 0.000000
# 4 0.000000 0.000000 0.000000 0.076399 0.000000 0.000000
# 5 0.000000 0.000000 0.000000 0.000000 0.025144 0.000000
# 6 0.000000 0.000000 0.000000 0.000000 0.000000 0.042185
#
#
# Mechanical properties :
#
#
# Convention : Reuss Voigt Hill
#
# Bulk Modulus (GPa) = 6.42008 30.07172 18.24590
# Shear Modulus (GPa) = 16.45469 28.60514 22.52991
#
# Velocity S-wave (km/s) = 2.78905 3.67734 3.26356
# Velocity P-wave (km/s) = 3.66153 5.67861 4.77773
#
# Compressibility (1/GPa) = 0.15576122
#
# Stress axis : x y z
#
# Youngs Moduli (GPa) = 127.19031 10.45408 35.12417
#
# Poissons Ratio (x) = 0.07698 0.22444
# Poissons Ratio (y) = 0.93658 -0.90057
# Poissons Ratio (z) = 0.81275 -0.26804
#
# Static dielectric constant tensor:
#      x y z
#    x 4.026760 0.000000 0.000000 
#    y 0.000000 3.591860 0.000000 
#    z 0.000000 0.000000 3.796420 
# 
# 
# High freq. dielectric constant tensor:
#      x y z
#    x 1.836080 0.000000 0.000000 
#    y 0.000000 1.798860 0.000000 
#    z 0.000000 0.000000 1.826740 
# 
# From -- ./inp_files/64436.got.cif
#   From: 2010.03.12/outbox.cif.g09.slc.cpg/sg63_33_cif.got.tgz:64436.got - 2010.04.10 19:34:48.
