data_PCOD8258020
_publ_section_title
;
Structure prediction by ZEFSAII (Michael W. Deem and Ramdas Pophale) SiO2 
 PCOD8258020
Probable space group: C M C M
;
_chemical_formula_sum "Si O2"
_cell_formula_units_Z 64
_cell_length_a 20.621067
_cell_length_b 18.419413
_cell_length_c 8.404118
_cell_angle_alpha 90.000000
_cell_angle_beta 90.000000
_cell_angle_gamma 90.000000
_cell_volume 3192.118908
_symmetry_space_group_name_H-M "C M C M"
_symmetry_group_IT_number 63
_symmetry_cell_setting 'orthorhombic'
loop_
_space_group_symop_operation_xyz
x,y,z
-x,-y,1/2+z
x,-y,-z
-x,y,1/2-z
-x,-y,-z
x,y,1/2-z
-x,y,z
x,-y,1/2+z
1/2+x,1/2+y,z
1/2-x,1/2-y,1/2+z
1/2+x,1/2-y,-z
1/2-x,1/2+y,1/2-z
1/2-x,1/2-y,-z
1/2+x,1/2+y,1/2-z
1/2-x,1/2+y,z
1/2+x,1/2-y,1/2+z
loop_
_atom_site_type_symbol
_atom_site_label
_atom_site_fract_x
_atom_site_fract_y
_atom_site_fract_z
Si Si1 0.641603 0.648411 0.568013
Si Si2 0.238202 0.421374 0.566066
Si Si3 0.361470 0.808224 0.437990
Si Si4 0.500000 0.181027 0.928860
Si Si5 0.500000 0.331859 0.431618
O O1 0.662857 0.637031 0.750000
O O2 0.686161 0.597037 0.459656
O O3 0.652290 0.732708 0.525789
O O4 0.566553 0.623044 0.541873
O O5 0.221027 0.500000 0.500000
O O6 0.220345 0.417958 0.750000
O O7 0.196173 0.362886 0.471653
O O8 0.366796 0.792980 0.250000
O O9 0.430366 0.843162 0.503639
O O10 0.500000 0.153007 0.750000
O O11 0.500000 0.268305 0.939006
O O12 0.500000 0.300397 0.250000
#
# Coordination Sequence:
#
# PCOD8258020 Si02
#       5
#    16  16  16   8   8
#     4  10  19  35  58  85 112 142 178 220 265 316
#     4  12  25  40  55  76 106 144 184 226 271 320
#     4  10  19  35  58  85 112 142 178 220 265 316
#     4   8  16  30  53  82 111 138 172 216 264 312
#     4   8  16  30  53  82 111 138 172 216 264 312
#
# _framework density 20.049378000000001
#
# number of rings (size 3 to 8) (size 9 to 14) (size 15 to 20)
#    0.000    2.000    0.000    4.500    0.000    2.000 
#    0.000    1.250    0.000    0.000    0.000    0.000 
#    0.000    0.000    0.000    0.000    0.000    0.000 
#
# Total GULP energy -396531.639281 kJ/mol
# GULP energy per Si atom -12391.613728 kJ/mol
# Density = 2.000374 g / cm^3
# Si number density = 20.049378 Si / 1000 Ang^3
#
#
#
# Elastic Constant Matrix: (Units=GPa)
#
#
# Indices 1 2 3 4 5 6 
#
# 1 88.3827 -2.0931 12.0969 0.0000 0.0000 0.0000
# 2 -2.0931 30.7744 3.5972 0.0000 0.0000 0.0000
# 3 12.0969 3.5972 53.2823 0.0000 0.0000 0.0000
# 4 0.0000 0.0000 0.0000 27.6715 0.0000 0.0000
# 5 0.0000 0.0000 0.0000 0.0000 22.0984 0.0000
# 6 0.0000 0.0000 0.0000 0.0000 0.0000 -5.8182
#
#
#
# Elastic Compliance Matrix: (Units=1/GPa)
#
#
# Indices 1 2 3 4 5 6 
#
# 1 0.011715 0.001117 -0.002735 0.000000 0.000000 0.000000
# 2 0.001117 0.032859 -0.002472 0.000000 0.000000 0.000000
# 3 -0.002735 -0.002472 0.019556 0.000000 0.000000 0.000000
# 4 0.000000 0.000000 0.000000 0.036138 0.000000 0.000000
# 5 0.000000 0.000000 0.000000 0.000000 0.045252 0.000000
# 6 0.000000 0.000000 0.000000 0.000000 0.000000 -0.171875
#
#
# Mechanical properties :
#
#
# Convention : Reuss Voigt Hill
#
# Bulk Modulus (GPa) = 17.87327 22.18237 20.02782
# Shear Modulus (GPa) = 10489.34465 19.37958 5254.36212
#
# Velocity S-wave (km/s) = 72.40935 3.11238 51.24842
# Velocity P-wave (km/s) = 83.66452 4.89936 59.26110
#
# Compressibility (1/GPa) = 0.05594948
#
# Stress axis : x y z
#
# Youngs Moduli (GPa) = 85.35898 30.43267 51.13572
#
# Poissons Ratio (x) = -0.03398 0.13986
# Poissons Ratio (y) = -0.09530 0.12640
# Poissons Ratio (z) = 0.23347 0.07523
#
# Static dielectric constant tensor:
#      x y z
#    x 4.197780 0.000000 0.000000 
#    y 0.000000 3.151190 0.000000 
#    z 0.000000 0.000000 3.625490 
# 
# 
# High freq. dielectric constant tensor:
#      x y z
#    x 1.812560 0.000000 0.000000 
#    y 0.000000 1.727890 0.000000 
#    z 0.000000 0.000000 1.784760 
# 
# From -- ./inp_files/7490.got.cif
#   From: 2010.03.12/outbox.cif.g09.slc.cpg/sg63_4_cif.got.tgz:7490.got - 2010.04.10 19:34:48.
