data_PCOD8258272
_publ_section_title
;
Structure prediction by ZEFSAII (Michael W. Deem and Ramdas Pophale) SiO2 
 PCOD8258272
Probable space group: C M C M
;
_chemical_formula_sum "Si O2"
_cell_formula_units_Z 96
_cell_length_a 23.168269
_cell_length_b 24.650327
_cell_length_c 9.238144
_cell_angle_alpha 90.000000
_cell_angle_beta 90.000000
_cell_angle_gamma 90.000000
_cell_volume 5275.953988
_symmetry_space_group_name_H-M "C M C M"
_symmetry_group_IT_number 63
_symmetry_cell_setting 'orthorhombic'
loop_
_space_group_symop_operation_xyz
x,y,z
-x,-y,1/2+z
x,-y,-z
-x,y,1/2-z
-x,-y,-z
x,y,1/2-z
-x,y,z
x,-y,1/2+z
1/2+x,1/2+y,z
1/2-x,1/2-y,1/2+z
1/2+x,1/2-y,-z
1/2-x,1/2+y,1/2-z
1/2-x,1/2-y,-z
1/2+x,1/2+y,1/2-z
1/2-x,1/2+y,z
1/2+x,1/2-y,1/2+z
loop_
_atom_site_type_symbol
_atom_site_label
_atom_site_fract_x
_atom_site_fract_y
_atom_site_fract_z
Si Si1 0.063750 0.854455 0.921597
Si Si2 0.380956 0.863363 0.920832
Si Si3 0.565875 0.047953 0.908610
Si Si4 0.933001 0.731917 0.919508
Si Si5 0.218304 0.554406 0.082126
Si Si6 0.650193 0.445329 0.579728
O O1 0.062222 0.857129 0.750000
O O2 0.080617 0.793493 0.967304
O O3 0.110524 0.896836 0.982451
O O4 0.000000 0.869208 0.982387
O O5 0.390985 0.860766 0.750000
O O6 0.320751 0.893480 0.961359
O O7 0.431273 0.897286 0.998820
O O8 0.387300 0.803503 0.988056
O O9 0.595662 0.053659 0.750000
O O10 0.500000 0.032398 0.883617
O O11 0.596953 0.000000 0.000000
O O12 0.921078 0.722495 0.750000
O O13 0.000000 0.717960 0.954677
O O14 0.211180 0.541355 0.250000
O O15 0.283893 0.569969 0.042315
O O16 0.198912 0.500000 0.000000
O O17 0.631017 0.500000 0.500000
O O18 0.641275 0.453964 0.750000
#
# Coordination Sequence:
#
# PCOD8258272 Si02
#       6
#    16  16  16  16  16  16
#     4   8  15  30  53  77  99 126 159 192 230 283
#     4  11  21  31  45  66  92 124 163 202 240 283
#     4  10  20  32  45  63  88 117 152 198 249 295
#     4   9  18  33  51  70  93 124 163 202 239 283
#     4   9  19  33  48  68  95 128 162 197 238 283
#     4   9  17  32  53  75 101 129 156 190 234 283
#
# _framework density 18.195761000000001
#
# number of rings (size 3 to 8) (size 9 to 14) (size 15 to 20)
#    0.000    2.667    0.000    3.000    0.000    6.333 
#    0.000    1.667    0.000    1.000    0.000    0.000 
#    0.000    0.000    0.000    0.000    0.000    0.000 
#
# Total GULP energy -594930.713020 kJ/mol
# GULP energy per Si atom -12394.389855 kJ/mol
# Density = 1.815435 g / cm^3
# Si number density = 18.195761 Si / 1000 Ang^3
#
#
#
# Elastic Constant Matrix: (Units=GPa)
#
#
# Indices 1 2 3 4 5 6 
#
# 1 97.1119 78.5159 42.9422 0.0000 0.0000 0.0000
# 2 78.5159 149.4875 56.3862 0.0000 0.0000 0.0000
# 3 42.9422 56.3862 76.0458 0.0000 0.0000 0.0000
# 4 0.0000 0.0000 0.0000 29.1683 0.0000 0.0000
# 5 0.0000 0.0000 0.0000 0.0000 10.8127 0.0000
# 6 0.0000 0.0000 0.0000 0.0000 0.0000 33.5015
#
#
#
# Elastic Compliance Matrix: (Units=1/GPa)
#
#
# Indices 1 2 3 4 5 6 
#
# 1 0.019000 -0.008236 -0.004622 0.000000 0.000000 0.000000
# 2 -0.008236 0.012857 -0.004882 0.000000 0.000000 0.000000
# 3 -0.004622 -0.004882 0.019380 0.000000 0.000000 0.000000
# 4 0.000000 0.000000 0.000000 0.034284 0.000000 0.000000
# 5 0.000000 0.000000 0.000000 0.000000 0.092484 0.000000
# 6 0.000000 0.000000 0.000000 0.000000 0.000000 0.029849
#
#
# Mechanical properties :
#
#
# Convention : Reuss Voigt Hill
#
# Bulk Modulus (GPa) = 63.46788 75.37044 69.41916
# Shear Modulus (GPa) = 20.11355 24.34988 22.23171
#
# Velocity S-wave (km/s) = 3.32836 3.66213 3.49923
# Velocity P-wave (km/s) = 7.05173 7.70672 7.38649
#
# Compressibility (1/GPa) = 0.01575600
#
# Stress axis : x y z
#
# Youngs Moduli (GPa) = 52.63061 77.77863 51.59862
#
# Poissons Ratio (x) = 0.64059 0.23851
# Poissons Ratio (y) = 0.43347 0.25192
# Poissons Ratio (z) = 0.24328 0.37974
#
# Static dielectric constant tensor:
#      x y z
#    x 3.423380 0.000000 0.000000 
#    y 0.000000 3.465010 0.000000 
#    z 0.000000 0.000000 3.326890 
# 
# 
# High freq. dielectric constant tensor:
#      x y z
#    x 1.693480 0.000000 0.000000 
#    y 0.000000 1.699900 0.000000 
#    z 0.000000 0.000000 1.691500 
# 
# From -- ./inp_files/10479.got.cif
#   From: 2010.03.12/outbox.cif.g09.slc.cpg/sg63_6_cif.got.tgz:10479.got - 2010.04.10 19:34:48.
