data_PCOD8258322
_publ_section_title
;
Structure prediction by ZEFSAII (Michael W. Deem and Ramdas Pophale) SiO2 
 PCOD8258322
Probable space group: C M C M
;
_chemical_formula_sum "Si O2"
_cell_formula_units_Z 96
_cell_length_a 9.538336
_cell_length_b 27.970307
_cell_length_c 20.428250
_cell_angle_alpha 90.000000
_cell_angle_beta 90.000000
_cell_angle_gamma 90.000000
_cell_volume 5450.056621
_symmetry_space_group_name_H-M "C M C M"
_symmetry_group_IT_number 63
_symmetry_cell_setting 'orthorhombic'
loop_
_space_group_symop_operation_xyz
x,y,z
-x,-y,1/2+z
x,-y,-z
-x,y,1/2-z
-x,-y,-z
x,y,1/2-z
-x,y,z
x,-y,1/2+z
1/2+x,1/2+y,z
1/2-x,1/2-y,1/2+z
1/2+x,1/2-y,-z
1/2-x,1/2+y,1/2-z
1/2-x,1/2-y,-z
1/2+x,1/2+y,1/2-z
1/2-x,1/2+y,z
1/2+x,1/2-y,1/2+z
loop_
_atom_site_type_symbol
_atom_site_label
_atom_site_fract_x
_atom_site_fract_y
_atom_site_fract_z
Si Si1 0.162856 0.287587 0.542784
Si Si2 0.842798 0.559816 0.889927
Si Si3 0.158191 0.977943 0.927826
Si Si4 0.344846 0.154138 0.826507
Si Si5 0.342822 0.895941 0.532483
Si Si6 0.838708 0.241703 0.675981
O O1 0.250000 0.250000 0.500000
O O2 0.210950 0.341439 0.525445
O O3 0.188618 0.282219 0.621398
O O4 0.000000 0.279356 0.525754
O O5 0.741074 0.514607 0.880849
O O6 0.782585 0.602498 0.845081
O O7 0.000000 0.544715 0.868294
O O8 0.845952 0.578668 0.963232
O O9 0.235854 0.926632 0.923221
O O10 0.000000 0.971232 0.902010
O O11 0.157700 0.000000 0.000000
O O12 0.357790 0.158086 0.750000
O O13 0.500000 0.159900 0.858976
O O14 0.244794 0.195958 0.851527
O O15 0.500000 0.896414 0.563259
O O16 0.791339 0.257829 0.750000
O O17 0.000000 0.226520 0.678118
#
# Coordination Sequence:
#
# PCOD8258322 Si02
#       6
#    16  16  16  16  16  16
#     4  10  20  32  48  71  97 124 156 196 238 278
#     4   9  16  27  44  64  88 116 144 179 224 271
#     4   9  17  28  43  64  87 112 144 180 219 267
#     4   9  17  29  46  68  92 119 153 189 223 266
#     4   9  17  29  44  63  88 118 150 183 224 270
#     4   9  18  32  48  67  94 127 159 190 229 278
#
# _framework density 17.614497
#
# number of rings (size 3 to 8) (size 9 to 14) (size 15 to 20)
#    0.000    2.833    0.000    1.500    0.000    5.333 
#    0.000    3.333    0.000    1.000    0.000    4.667 
#    0.000    0.000    0.000    0.000    0.000    0.000 
#
# Total GULP energy -594895.850657 kJ/mol
# GULP energy per Si atom -12393.663555 kJ/mol
# Density = 1.757441 g / cm^3
# Si number density = 17.614497 Si / 1000 Ang^3
#
#
#
# Elastic Constant Matrix: (Units=GPa)
#
#
# Indices 1 2 3 4 5 6 
#
# 1 78.9120 49.6566 15.5516 0.0000 0.0000 0.0000
# 2 49.6566 104.2894 11.9522 0.0000 0.0000 0.0000
# 3 15.5516 11.9522 29.3079 0.0000 0.0000 0.0000
# 4 0.0000 0.0000 0.0000 25.7245 0.0000 0.0000
# 5 0.0000 0.0000 0.0000 0.0000 15.5664 0.0000
# 6 0.0000 0.0000 0.0000 0.0000 0.0000 29.1449
#
#
#
# Elastic Compliance Matrix: (Units=1/GPa)
#
#
# Indices 1 2 3 4 5 6 
#
# 1 0.019309 -0.008413 -0.006815 0.000000 0.000000 0.000000
# 2 -0.008413 0.013724 -0.001133 0.000000 0.000000 0.000000
# 3 -0.006815 -0.001133 0.038199 0.000000 0.000000 0.000000
# 4 0.000000 0.000000 0.000000 0.038873 0.000000 0.000000
# 5 0.000000 0.000000 0.000000 0.000000 0.064241 0.000000
# 6 0.000000 0.000000 0.000000 0.000000 0.000000 0.034311
#
#
# Mechanical properties :
#
#
# Convention : Reuss Voigt Hill
#
# Bulk Modulus (GPa) = 25.96688 40.75890 33.36289
# Shear Modulus (GPa) = 19.66822 23.11042 21.38932
#
# Velocity S-wave (km/s) = 3.34517 3.62610 3.48846
# Velocity P-wave (km/s) = 5.44922 6.38131 5.93359
#
# Compressibility (1/GPa) = 0.03851059
#
# Stress axis : x y z
#
# Youngs Moduli (GPa) = 51.78815 72.86336 26.17883
#
# Poissons Ratio (x) = 0.61300 0.17841
# Poissons Ratio (y) = 0.43569 0.02966
# Poissons Ratio (z) = 0.35294 0.08254
#
# Static dielectric constant tensor:
#      x y z
#    x 3.596270 0.000000 0.000000 
#    y 0.000000 3.551980 0.000000 
#    z 0.000000 0.000000 3.099970 
# 
# 
# High freq. dielectric constant tensor:
#      x y z
#    x 1.680060 0.000000 0.000000 
#    y 0.000000 1.676080 0.000000 
#    z 0.000000 0.000000 1.647280 
# 
# From -- ./inp_files/51346.got.cif
#   From: 2010.03.12/outbox.cif.g09.slc.cpg/sg63_26_cif.got.tgz:51346.got - 2010.04.10 19:34:48.
