data_PCOD8258035
_publ_section_title
;
Structure prediction by ZEFSAII (Michael W. Deem and Ramdas Pophale) SiO2 
 PCOD8258035
Probable space group: C M C M
;
_chemical_formula_sum "Si O2"
_cell_formula_units_Z 96
_cell_length_a 9.191235
_cell_length_b 24.683190
_cell_length_c 23.172671
_cell_angle_alpha 90.000000
_cell_angle_beta 90.000000
_cell_angle_gamma 90.000000
_cell_volume 5257.160693
_symmetry_space_group_name_H-M "C M C M"
_symmetry_group_IT_number 63
_symmetry_cell_setting 'orthorhombic'
loop_
_space_group_symop_operation_xyz
x,y,z
-x,-y,1/2+z
x,-y,-z
-x,y,1/2-z
-x,-y,-z
x,y,1/2-z
-x,y,z
x,-y,1/2+z
1/2+x,1/2+y,z
1/2-x,1/2-y,1/2+z
1/2+x,1/2-y,-z
1/2-x,1/2+y,1/2-z
1/2-x,1/2-y,-z
1/2+x,1/2+y,1/2-z
1/2-x,1/2+y,z
1/2+x,1/2-y,1/2+z
loop_
_atom_site_type_symbol
_atom_site_label
_atom_site_fract_x
_atom_site_fract_y
_atom_site_fract_z
Si Si1 0.327986 0.105915 0.250000
Si Si2 0.167697 0.971663 0.058292
Si Si3 0.333694 0.429453 0.860985
Si Si4 0.169679 0.832023 0.943991
Si Si5 0.666668 0.764579 0.138670
Si Si6 0.667603 0.138272 0.556344
Si Si7 0.827811 0.269493 0.750000
O O1 0.500000 0.101730 0.250000
O O2 0.268751 0.075366 0.305942
O O3 0.274966 0.168161 0.250000
O O4 0.259272 0.918511 0.071499
O O5 0.000000 0.954819 0.049353
O O6 0.187852 0.011189 0.112491
O O7 0.225419 0.000000 0.000000
O O8 0.500000 0.419699 0.841716
O O9 0.288478 0.385801 0.908889
O O10 0.217974 0.779881 0.907698
O O11 0.000000 0.830658 0.959556
O O12 0.259026 0.831545 0.002756
O O13 0.500000 0.753099 0.156633
O O14 0.685409 0.824085 0.112319
O O15 0.767515 0.761098 0.194321
O O16 0.500000 0.128581 0.541052
O O17 0.000000 0.265271 0.750000
#
# Coordination Sequence:
#
# PCOD8258035 Si02
#       7
#     8  16  16  16  16  16   8
#     4  11  23  37  56  87 122 145 178 238 295 334
#     4  10  20  38  60  83 111 148 194 233 272 335
#     4  10  20  36  61  86 110 149 195 229 272 338
#     4  10  19  35  59  84 114 152 188 230 279 336
#     4  10  22  39  58  82 115 154 193 230 282 346
#     4  11  23  36  55  87 120 152 188 232 288 340
#     4  11  23  37  58  87 114 147 190 236 285 338
#
# _framework density 18.260808000000001
#
# number of rings (size 3 to 8) (size 9 to 14) (size 15 to 20)
#    0.000    1.667    3.333    1.500    0.000    4.333 
#    0.000    0.833    0.000    0.000    0.000    0.000 
#    0.000    0.000    0.000    0.000    0.000    0.000 
#
# Total GULP energy -595483.825540 kJ/mol
# GULP energy per Si atom -12405.913032 kJ/mol
# Density = 1.821925 g / cm^3
# Si number density = 18.260808 Si / 1000 Ang^3
#
#
#
# Elastic Constant Matrix: (Units=GPa)
#
#
# Indices 1 2 3 4 5 6 
#
# 1 84.1040 47.5892 58.2816 0.0000 0.0000 0.0000
# 2 47.5892 109.6620 41.7466 0.0000 0.0000 0.0000
# 3 58.2816 41.7466 106.8117 0.0000 0.0000 0.0000
# 4 0.0000 0.0000 0.0000 24.6635 0.0000 0.0000
# 5 0.0000 0.0000 0.0000 0.0000 30.4254 0.0000
# 6 0.0000 0.0000 0.0000 0.0000 0.0000 31.3972
#
#
#
# Elastic Compliance Matrix: (Units=1/GPa)
#
#
# Indices 1 2 3 4 5 6 
#
# 1 0.021878 -0.005815 -0.009665 0.000000 0.000000 0.000000
# 2 -0.005815 0.012258 -0.001618 0.000000 0.000000 0.000000
# 3 -0.009665 -0.001618 0.015268 0.000000 0.000000 0.000000
# 4 0.000000 0.000000 0.000000 0.040546 0.000000 0.000000
# 5 0.000000 0.000000 0.000000 0.000000 0.032867 0.000000
# 6 0.000000 0.000000 0.000000 0.000000 0.000000 0.031850
#
#
# Mechanical properties :
#
#
# Convention : Reuss Voigt Hill
#
# Bulk Modulus (GPa) = 65.75230 66.20139 65.97685
# Shear Modulus (GPa) = 25.78210 27.49457 26.63834
#
# Velocity S-wave (km/s) = 3.76158 3.88449 3.82353
# Velocity P-wave (km/s) = 7.41293 7.51339 7.46333
#
# Compressibility (1/GPa) = 0.01520859
#
# Stress axis : x y z
#
# Youngs Moduli (GPa) = 45.70851 81.57661 65.49499
#
# Poissons Ratio (x) = 0.47436 0.63300
# Poissons Ratio (y) = 0.26579 0.10599
# Poissons Ratio (z) = 0.44177 0.13201
#
# Static dielectric constant tensor:
#      x y z
#    x 3.318510 0.000000 0.000000 
#    y 0.000000 3.360120 0.000000 
#    z 0.000000 0.000000 3.380990 
# 
# 
# High freq. dielectric constant tensor:
#      x y z
#    x 1.706430 0.000000 0.000000 
#    y 0.000000 1.709920 0.000000 
#    z 0.000000 0.000000 1.704810 
# 
# From -- ./inp_files/60088.got.cif
#   From: 2010.03.12/outbox.cif.g09.slc.cpg/sg63_31_cif.got.tgz:60088.got - 2010.04.10 19:34:48.
