data_PCOD8258142
_publ_section_title
;
Structure prediction by ZEFSAII (Michael W. Deem and Ramdas Pophale) SiO2 
 PCOD8258142
Probable space group: C M C M
;
_chemical_formula_sum "Si O2"
_cell_formula_units_Z 96
_cell_length_a 14.306492
_cell_length_b 14.802093
_cell_length_c 23.580265
_cell_angle_alpha 90.000000
_cell_angle_beta 90.000000
_cell_angle_gamma 90.000000
_cell_volume 4993.498990
_symmetry_space_group_name_H-M "C M C M"
_symmetry_group_IT_number 63
_symmetry_cell_setting 'orthorhombic'
loop_
_space_group_symop_operation_xyz
x,y,z
-x,-y,1/2+z
x,-y,-z
-x,y,1/2-z
-x,-y,-z
x,y,1/2-z
-x,y,z
x,-y,1/2+z
1/2+x,1/2+y,z
1/2-x,1/2-y,1/2+z
1/2+x,1/2-y,-z
1/2-x,1/2+y,1/2-z
1/2-x,1/2-y,-z
1/2+x,1/2+y,1/2-z
1/2-x,1/2+y,z
1/2+x,1/2-y,1/2+z
loop_
_atom_site_type_symbol
_atom_site_label
_atom_site_fract_x
_atom_site_fract_y
_atom_site_fract_z
Si Si1 0.000000 0.723551 0.023320
Si Si2 0.500000 0.364995 0.925748
Si Si3 0.202054 0.753856 0.186472
Si Si4 0.199743 0.654809 0.494200
Si Si5 0.500000 0.425104 0.083859
Si Si6 0.803239 0.109904 0.117299
Si Si7 0.700228 0.591895 0.597053
Si Si8 0.000000 0.775874 0.345036
O O1 0.000000 0.817541 0.987153
O O2 0.911325 0.663237 0.007461
O O3 0.000000 0.745799 0.089247
O O4 0.500000 0.471983 0.934433
O O5 0.404724 0.341946 0.891753
O O6 0.234442 0.778908 0.250000
O O7 0.253523 0.661335 0.168812
O O8 0.229152 0.832809 0.142906
O O9 0.090404 0.737626 0.186766
O O10 0.250000 0.750000 0.500000
O O11 0.237728 0.610297 0.437458
O O12 0.221611 0.591384 0.548294
O O13 0.398410 0.384696 0.064153
O O14 0.500000 0.387680 0.150718
O O15 0.812970 0.003015 0.130456
#
# Coordination Sequence:
#
# PCOD8258142 Si02
#       8
#     8   8  16  16   8  16  16   8
#     4  12  20  32  58  81 121 155 187 233 285 344
#     4  10  20  31  55  89 116 149 183 226 298 363
#     4  11  22  39  61  82 111 151 195 242 288 336
#     4  12  20  36  57  85 120 154 185 233 289 346
#     4   8  18  32  52  84 118 146 178 232 289 352
#     4  11  22  38  58  87 119 153 191 234 294 350
#     4  10  21  37  58  86 119 149 192 236 290 350
#     4  10  19  37  55  81 110 147 191 242 288 341
#
# _framework density 19.224996999999998
#
# number of rings (size 3 to 8) (size 9 to 14) (size 15 to 20)
#    0.000    1.333    5.000    1.750    0.000    1.000 
#    0.000    2.917    0.000    3.000    0.000    0.000 
#    0.000    0.000    0.000    0.000    0.000    0.000 
#
# Total GULP energy -594645.055518 kJ/mol
# GULP energy per Si atom -12388.438657 kJ/mol
# Density = 1.918124 g / cm^3
# Si number density = 19.224997 Si / 1000 Ang^3
#
#
#
# Elastic Constant Matrix: (Units=GPa)
#
#
# Indices 1 2 3 4 5 6 
#
# 1 131.1307 31.8710 38.1229 0.0000 0.0000 0.0000
# 2 31.8710 63.8445 23.8038 0.0000 0.0000 0.0000
# 3 38.1229 23.8038 103.3064 0.0000 0.0000 0.0000
# 4 0.0000 0.0000 0.0000 13.9944 0.0000 0.0000
# 5 0.0000 0.0000 0.0000 0.0000 14.3661 0.0000
# 6 0.0000 0.0000 0.0000 0.0000 0.0000 29.8107
#
#
#
# Elastic Compliance Matrix: (Units=1/GPa)
#
#
# Indices 1 2 3 4 5 6 
#
# 1 0.009265 -0.003665 -0.002575 0.000000 0.000000 0.000000
# 2 -0.003665 0.018585 -0.002930 0.000000 0.000000 0.000000
# 3 -0.002575 -0.002930 0.011305 0.000000 0.000000 0.000000
# 4 0.000000 0.000000 0.000000 0.071457 0.000000 0.000000
# 5 0.000000 0.000000 0.000000 0.000000 0.069608 0.000000
# 6 0.000000 0.000000 0.000000 0.000000 0.000000 0.033545
#
#
# Mechanical properties :
#
#
# Convention : Reuss Voigt Hill
#
# Bulk Modulus (GPa) = 48.03952 53.98633 51.01292
# Shear Modulus (GPa) = 20.91663 25.26650 23.09157
#
# Velocity S-wave (km/s) = 3.30205 3.62920 3.46948
# Velocity P-wave (km/s) = 6.29129 6.76045 6.53009
#
# Compressibility (1/GPa) = 0.02081620
#
# Stress axis : x y z
#
# Youngs Moduli (GPa) = 107.92939 53.80651 88.45554
#
# Poissons Ratio (x) = 0.19722 0.22774
# Poissons Ratio (y) = 0.39559 0.25915
# Poissons Ratio (z) = 0.27788 0.15764
#
# Static dielectric constant tensor:
#      x y z
#    x 3.881010 0.000000 0.000000 
#    y 0.000000 3.549360 0.000000 
#    z 0.000000 0.000000 3.237680 
# 
# 
# High freq. dielectric constant tensor:
#      x y z
#    x 1.760510 0.000000 0.000000 
#    y 0.000000 1.737630 0.000000 
#    z 0.000000 0.000000 1.716230 
# 
# From -- ./inp_files/62945.got.cif
#   From: 2010.03.12/outbox.cif.g09.slc.cpg/sg63_32_cif.got.tgz:62945.got - 2010.04.10 19:34:48.
