data_PCOD8258357
_publ_section_title
;
Structure prediction by ZEFSAII (Michael W. Deem and Ramdas Pophale) SiO2 
 PCOD8258357
Probable space group: C M C M
;
_chemical_formula_sum "Si O2"
_cell_formula_units_Z 96
_cell_length_a 25.196900
_cell_length_b 25.263312
_cell_length_c 8.746063
_cell_angle_alpha 90.000000
_cell_angle_beta 90.000000
_cell_angle_gamma 90.000000
_cell_volume 5567.368903
_symmetry_space_group_name_H-M "C M C M"
_symmetry_group_IT_number 63
_symmetry_cell_setting 'orthorhombic'
loop_
_space_group_symop_operation_xyz
x,y,z
-x,-y,1/2+z
x,-y,-z
-x,y,1/2-z
-x,-y,-z
x,y,1/2-z
-x,y,z
x,-y,1/2+z
1/2+x,1/2+y,z
1/2-x,1/2-y,1/2+z
1/2+x,1/2-y,-z
1/2-x,1/2+y,1/2-z
1/2-x,1/2-y,-z
1/2+x,1/2+y,1/2-z
1/2-x,1/2+y,z
1/2+x,1/2-y,1/2+z
loop_
_atom_site_type_symbol
_atom_site_label
_atom_site_fract_x
_atom_site_fract_y
_atom_site_fract_z
Si Si1 0.254053 0.445913 0.428995
Si Si2 0.169861 0.250677 0.071399
Si Si3 0.753931 0.334444 0.928227
Si Si4 0.441335 0.256376 0.078172
Si Si5 0.558196 0.380676 0.417354
Si Si6 0.866867 0.950134 0.573945
O O1 0.227984 0.500000 0.500000
O O2 0.244132 0.448399 0.250000
O O3 0.232261 0.389903 0.489901
O O4 0.315543 0.444719 0.469616
O O5 0.178331 0.262272 0.250000
O O6 0.196378 0.192944 0.030457
O O7 0.199817 0.294346 0.972524
O O8 0.107517 0.257440 0.033052
O O9 0.755492 0.346684 0.750000
O O10 0.430050 0.234909 0.250000
O O11 0.500000 0.234904 0.022423
O O12 0.444953 0.318583 0.081457
O O13 0.578514 0.399956 0.250000
O O14 0.500000 0.404405 0.449102
O O15 0.596786 0.398887 0.553113
O O16 0.850976 0.957113 0.750000
O O17 0.898467 0.000000 0.500000
#
# Coordination Sequence:
#
# PCOD8258357 Si02
#       6
#    16  16  16  16  16  16
#     4  11  21  34  51  70  94 123 157 195 237 286
#     4  10  20  32  49  74 101 131 165 202 245 291
#     4  10  20  34  51  73 101 131 164 202 245 293
#     4   9  18  32  49  68  92 124 158 193 237 287
#     4   9  18  32  47  62  82 111 149 192 237 282
#     4  11  21  32  45  61  82 111 149 191 236 282
#
# _framework density 17.243333
#
# number of rings (size 3 to 8) (size 9 to 14) (size 15 to 20)
#    0.000    2.000    0.000    7.000    0.000    6.333 
#    0.000    1.667    0.000    0.000    0.000    0.000 
#    0.000    0.667    0.000    2.500    0.000    3.833 
#
# Total GULP energy -594630.253767 kJ/mol
# GULP energy per Si atom -12388.130287 kJ/mol
# Density = 1.720409 g / cm^3
# Si number density = 17.243333 Si / 1000 Ang^3
#
#
#
# Elastic Constant Matrix: (Units=GPa)
#
#
# Indices 1 2 3 4 5 6 
#
# 1 68.8990 13.2349 19.4138 0.0000 0.0000 0.0000
# 2 13.2349 77.2360 35.2993 0.0000 0.0000 0.0000
# 3 19.4138 35.2993 93.5921 0.0000 0.0000 0.0000
# 4 0.0000 0.0000 0.0000 28.1026 0.0000 0.0000
# 5 0.0000 0.0000 0.0000 0.0000 17.0761 0.0000
# 6 0.0000 0.0000 0.0000 0.0000 0.0000 16.9543
#
#
#
# Elastic Compliance Matrix: (Units=1/GPa)
#
#
# Indices 1 2 3 4 5 6 
#
# 1 0.015546 -0.001438 -0.002682 0.000000 0.000000 0.000000
# 2 -0.001438 0.015777 -0.005652 0.000000 0.000000 0.000000
# 3 -0.002682 -0.005652 0.013373 0.000000 0.000000 0.000000
# 4 0.000000 0.000000 0.000000 0.035584 0.000000 0.000000
# 5 0.000000 0.000000 0.000000 0.000000 0.058561 0.000000
# 6 0.000000 0.000000 0.000000 0.000000 0.000000 0.058982
#
#
# Mechanical properties :
#
#
# Convention : Reuss Voigt Hill
#
# Bulk Modulus (GPa) = 39.76015 41.73588 40.74802
# Shear Modulus (GPa) = 22.14824 23.87855 23.01340
#
# Velocity S-wave (km/s) = 3.58781 3.72533 3.65722
# Velocity P-wave (km/s) = 6.34599 6.53917 6.44330
#
# Compressibility (1/GPa) = 0.02515081
#
# Stress axis : x y z
#
# Youngs Moduli (GPa) = 64.32505 63.38353 74.77840
#
# Poissons Ratio (x) = 0.09114 0.20058
# Poissons Ratio (y) = 0.09250 0.42266
# Poissons Ratio (z) = 0.17254 0.35826
#
# Static dielectric constant tensor:
#      x y z
#    x 3.164770 0.000000 0.000000 
#    y 0.000000 3.585590 0.000000 
#    z 0.000000 0.000000 3.320960 
# 
# 
# High freq. dielectric constant tensor:
#      x y z
#    x 1.636500 0.000000 0.000000 
#    y 0.000000 1.646680 0.000000 
#    z 0.000000 0.000000 1.674850 
# 
# From -- ./inp_files/10403.got.cif
#   From: 2010.03.12/outbox.cif.g09.slc.cpg/sg63_6_cif.got.tgz:10403.got - 2010.04.10 19:34:48.
