data_PCOD8258009
_publ_section_title
;
Structure prediction by ZEFSAII (Michael W. Deem and Ramdas Pophale) SiO2 
 PCOD8258009
Probable space group: C M C M
;
_chemical_formula_sum "Si O2"
_cell_formula_units_Z 80
_cell_length_a 8.540273
_cell_length_b 18.298491
_cell_length_c 26.006242
_cell_angle_alpha 90.000000
_cell_angle_beta 90.000000
_cell_angle_gamma 90.000000
_cell_volume 4064.102287
_symmetry_space_group_name_H-M "C M C M"
_symmetry_group_IT_number 63
_symmetry_cell_setting 'orthorhombic'
loop_
_space_group_symop_operation_xyz
x,y,z
-x,-y,1/2+z
x,-y,-z
-x,y,1/2-z
-x,-y,-z
x,y,1/2-z
-x,y,z
x,-y,1/2+z
1/2+x,1/2+y,z
1/2-x,1/2-y,1/2+z
1/2+x,1/2-y,-z
1/2-x,1/2+y,1/2-z
1/2-x,1/2-y,-z
1/2+x,1/2+y,1/2-z
1/2-x,1/2+y,z
1/2+x,1/2-y,1/2+z
loop_
_atom_site_type_symbol
_atom_site_label
_atom_site_fract_x
_atom_site_fract_y
_atom_site_fract_z
Si Si1 0.183068 0.299472 0.750000
Si Si2 0.186073 0.537041 0.250000
Si Si3 0.316962 0.452024 0.854705
Si Si4 0.318219 0.205373 0.953222
Si Si5 0.183260 0.459279 0.053032
Si Si6 0.316776 0.208438 0.139359
O O1 0.253671 0.380452 0.750000
O O2 0.229853 0.259911 0.696508
O O3 0.000000 0.312689 0.750000
O O4 0.257641 0.505019 0.196889
O O5 0.000000 0.526873 0.250000
O O6 0.500000 0.434557 0.850970
O O7 0.284404 0.504318 0.902438
O O8 0.221412 0.377276 0.863830
O O9 0.500000 0.201440 0.962772
O O10 0.252275 0.123217 0.952491
O O11 0.283509 0.245238 0.899968
O O12 0.250000 0.250000 0.000000
O O13 0.000000 0.462090 0.067555
O O14 0.217260 0.500000 0.000000
O O15 0.500000 0.218760 0.127426
#
# Coordination Sequence:
#
# PCOD8258009 Si02
#       6
#     8   8  16  16  16  16
#     4   7  14  29  52  79 104 141 185 219 259 317
#     4   9  17  33  56  81 114 153 189 225 275 335
#     4  11  21  34  57  88 117 146 189 238 278 324
#     4  11  23  38  58  84 112 144 186 235 285 339
#     4  10  22  40  59  79 108 149 191 231 283 342
#     4  10  19  35  58  82 113 151 188 227 276 332
#
# _framework density 19.684542
#
# number of rings (size 3 to 8) (size 9 to 14) (size 15 to 20)
#    0.000    2.000    0.000    5.700    0.000    3.600 
#    0.000    2.500    0.000    4.800    0.000    0.000 
#    0.000    0.000    0.000    0.000    0.000    0.000 
#
# Total GULP energy -495846.590294 kJ/mol
# GULP energy per Si atom -12396.164757 kJ/mol
# Density = 1.963974 g / cm^3
# Si number density = 19.684542 Si / 1000 Ang^3
#
#
#
# Elastic Constant Matrix: (Units=GPa)
#
#
# Indices 1 2 3 4 5 6 
#
# 1 46.4139 5.1861 19.3340 0.0000 0.0000 0.0000
# 2 5.1861 89.0681 48.5331 0.0000 0.0000 0.0000
# 3 19.3340 48.5331 150.1254 0.0000 0.0000 0.0000
# 4 0.0000 0.0000 0.0000 27.2505 0.0000 0.0000
# 5 0.0000 0.0000 0.0000 0.0000 35.7383 0.0000
# 6 0.0000 0.0000 0.0000 0.0000 0.0000 24.7604
#
#
#
# Elastic Compliance Matrix: (Units=1/GPa)
#
#
# Indices 1 2 3 4 5 6 
#
# 1 0.022775 0.000330 -0.003040 0.000000 0.000000 0.000000
# 2 0.000330 0.013633 -0.004450 0.000000 0.000000 0.000000
# 3 -0.003040 -0.004450 0.008491 0.000000 0.000000 0.000000
# 4 0.000000 0.000000 0.000000 0.036697 0.000000 0.000000
# 5 0.000000 0.000000 0.000000 0.000000 0.027981 0.000000
# 6 0.000000 0.000000 0.000000 0.000000 0.000000 0.040387
#
#
# Mechanical properties :
#
#
# Convention : Reuss Voigt Hill
#
# Bulk Modulus (GPa) = 32.70117 47.96821 40.33469
# Shear Modulus (GPa) = 28.65734 31.72013 30.18873
#
# Velocity S-wave (km/s) = 3.81967 4.01861 3.92040
# Velocity P-wave (km/s) = 6.00848 6.77891 6.40529
#
# Compressibility (1/GPa) = 0.03057995
#
# Stress axis : x y z
#
# Youngs Moduli (GPa) = 43.90850 73.35236 117.76989
#
# Poissons Ratio (x) = -0.02423 0.35800
# Poissons Ratio (y) = -0.01450 0.52405
# Poissons Ratio (z) = 0.13347 0.32640
#
# Static dielectric constant tensor:
#      x y z
#    x 3.451180 0.000000 0.000000 
#    y 0.000000 4.347360 0.000000 
#    z 0.000000 0.000000 4.054110 
# 
# 
# High freq. dielectric constant tensor:
#      x y z
#    x 1.763540 0.000000 0.000000 
#    y 0.000000 1.735360 0.000000 
#    z 0.000000 0.000000 1.794310 
# 
# From -- ./inp_files/66651.got.cif
#   From: 2010.03.12/outbox.cif.g09.slc.cpg/sg63_34_cif.got.tgz:66651.got - 2010.04.10 19:34:48.
