data_PCOD8258603
_publ_section_title
;
Structure prediction by ZEFSAII (Michael W. Deem and Ramdas Pophale) SiO2 
 PCOD8258603
Probable space group: C M C M
;
_chemical_formula_sum "Si O2"
_cell_formula_units_Z 104
_cell_length_a 20.041323
_cell_length_b 29.317445
_cell_length_c 9.303959
_cell_angle_alpha 90.000000
_cell_angle_beta 90.000000
_cell_angle_gamma 90.000000
_cell_volume 5466.637730
_symmetry_space_group_name_H-M "C M C M"
_symmetry_group_IT_number 63
_symmetry_cell_setting 'orthorhombic'
loop_
_space_group_symop_operation_xyz
x,y,z
-x,-y,1/2+z
x,-y,-z
-x,y,1/2-z
-x,-y,-z
x,y,1/2-z
-x,y,z
x,-y,1/2+z
1/2+x,1/2+y,z
1/2-x,1/2-y,1/2+z
1/2+x,1/2-y,-z
1/2-x,1/2+y,1/2-z
1/2-x,1/2-y,-z
1/2+x,1/2+y,1/2-z
1/2-x,1/2+y,z
1/2+x,1/2-y,1/2+z
loop_
_atom_site_type_symbol
_atom_site_label
_atom_site_fract_x
_atom_site_fract_y
_atom_site_fract_z
Si Si1 0.327904 0.708155 0.917810
Si Si2 0.115833 0.955331 0.915900
Si Si3 0.727842 0.955545 0.584492
Si Si4 0.074827 0.870018 0.413008
Si Si5 0.631610 0.104509 0.916503
Si Si6 0.324730 0.796715 0.415110
Si Si7 0.500000 0.951607 0.081662
O O1 0.337829 0.715692 0.750000
O O2 0.375547 0.668133 0.974681
O O3 0.252409 0.693939 0.957827
O O4 0.351846 0.754798 0.992203
O O5 0.095830 0.960615 0.750000
O O6 0.194241 0.947421 0.935678
O O7 0.077280 0.913301 0.983899
O O8 0.092044 0.000000 0.000000
O O9 0.707485 0.961419 0.750000
O O10 0.691263 0.912583 0.516167
O O11 0.702764 0.000000 0.500000
O O12 0.095368 0.883962 0.250000
O O13 0.000000 0.850273 0.415943
O O14 0.648914 0.094931 0.750000
O O15 0.629029 0.158955 0.944171
O O16 0.563436 0.079292 0.961568
O O17 0.328867 0.781980 0.250000
O O18 0.500000 0.962771 0.250000
O O19 0.500000 0.000000 0.000000
#
# Coordination Sequence:
#
# PCOD8258603 Si02
#       7
#    16  16  16  16  16  16   8
#     4   9  18  34  55  79 107 138 173 217 267 320
#     4  10  21  36  55  80 109 140 177 222 267 315
#     4  10  20  33  52  79 107 136 174 221 271 320
#     4  10  21  37  56  78 107 144 181 217 262 315
#     4  10  20  35  54  77 106 142 182 225 272 323
#     4   9  18  33  55  80 105 135 173 219 271 318
#     4  10  22  38  54  74 106 146 186 228 271 326
#
# _framework density 19.02449
#
# number of rings (size 3 to 8) (size 9 to 14) (size 15 to 20)
#    0.000    2.308    0.000    2.308    0.000    6.769 
#    1.385    3.077    0.000    0.000    0.000    0.000 
#    0.000    0.000    0.000    0.000    0.000    0.000 
#
# Total GULP energy -644908.789413 kJ/mol
# GULP energy per Si atom -12402.092104 kJ/mol
# Density = 1.898119 g / cm^3
# Si number density = 19.024490 Si / 1000 Ang^3
#
#
#
# Elastic Constant Matrix: (Units=GPa)
#
#
# Indices 1 2 3 4 5 6 
#
# 1 62.5545 55.2317 33.3392 0.0000 0.0000 0.0000
# 2 55.2317 139.4554 54.0206 0.0000 0.0000 0.0000
# 3 33.3392 54.0206 77.8466 0.0000 0.0000 0.0000
# 4 0.0000 0.0000 0.0000 39.1896 0.0000 0.0000
# 5 0.0000 0.0000 0.0000 0.0000 21.7040 0.0000
# 6 0.0000 0.0000 0.0000 0.0000 0.0000 28.7167
#
#
#
# Elastic Compliance Matrix: (Units=1/GPa)
#
#
# Indices 1 2 3 4 5 6 
#
# 1 0.026196 -0.008246 -0.005497 0.000000 0.000000 0.000000
# 2 -0.008246 0.012402 -0.005075 0.000000 0.000000 0.000000
# 3 -0.005497 -0.005075 0.018722 0.000000 0.000000 0.000000
# 4 0.000000 0.000000 0.000000 0.025517 0.000000 0.000000
# 5 0.000000 0.000000 0.000000 0.000000 0.046074 0.000000
# 6 0.000000 0.000000 0.000000 0.000000 0.000000 0.034823
#
#
# Mechanical properties :
#
#
# Convention : Reuss Voigt Hill
#
# Bulk Modulus (GPa) = 50.80073 62.78215 56.79144
# Shear Modulus (GPa) = 24.04631 27.07305 25.55968
#
# Velocity S-wave (km/s) = 3.55909 3.77644 3.66937
# Velocity P-wave (km/s) = 6.60683 7.21718 6.91874
#
# Compressibility (1/GPa) = 0.01968476
#
# Stress axis : x y z
#
# Youngs Moduli (GPa) = 38.17341 80.62929 53.41373
#
# Poissons Ratio (x) = 0.66485 0.29362
# Poissons Ratio (y) = 0.31477 0.27108
# Poissons Ratio (z) = 0.20984 0.40920
#
# Static dielectric constant tensor:
#      x y z
#    x 3.399530 0.000000 0.000000 
#    y 0.000000 3.474540 0.000000 
#    z 0.000000 0.000000 3.499540 
# 
# 
# High freq. dielectric constant tensor:
#      x y z
#    x 1.729620 0.000000 0.000000 
#    y 0.000000 1.741480 0.000000 
#    z 0.000000 0.000000 1.737860 
# 
# From -- ./inp_files/8719.got.cif
#   From: 2010.03.12/outbox.cif.g09.slc.cpg/sg63_5_cif.got.tgz:8719.got - 2010.04.10 19:34:48.
