data_PCOD8258060
_publ_section_title
;
Structure prediction by ZEFSAII (Michael W. Deem and Ramdas Pophale) SiO2 
 PCOD8258060
Probable space group: C M C M
;
_chemical_formula_sum "Si O2"
_cell_formula_units_Z 96
_cell_length_a 14.952454
_cell_length_b 22.711232
_cell_length_c 14.429393
_cell_angle_alpha 90.000000
_cell_angle_beta 90.000000
_cell_angle_gamma 90.000000
_cell_volume 4900.058115
_symmetry_space_group_name_H-M "C M C M"
_symmetry_group_IT_number 63
_symmetry_cell_setting 'orthorhombic'
loop_
_space_group_symop_operation_xyz
x,y,z
-x,-y,1/2+z
x,-y,-z
-x,y,1/2-z
-x,-y,-z
x,y,1/2-z
-x,y,z
x,-y,1/2+z
1/2+x,1/2+y,z
1/2-x,1/2-y,1/2+z
1/2+x,1/2-y,-z
1/2-x,1/2+y,1/2-z
1/2-x,1/2-y,-z
1/2+x,1/2+y,1/2-z
1/2-x,1/2+y,z
1/2+x,1/2-y,1/2+z
loop_
_atom_site_type_symbol
_atom_site_label
_atom_site_fract_x
_atom_site_fract_y
_atom_site_fract_z
Si Si1 0.601245 0.503026 0.608954
Si Si2 0.097878 0.507364 0.859706
Si Si3 0.249684 0.593556 0.854977
Si Si4 0.748852 0.681721 0.480224
Si Si5 0.102399 0.872808 0.853674
Si Si6 0.896243 0.625375 0.142641
O O1 0.609675 0.500000 0.500000
O O2 0.500000 0.514905 0.641648
O O3 0.659578 0.556040 0.648669
O O4 0.635920 0.440530 0.648016
O O5 0.095752 0.508208 0.750000
O O6 0.171060 0.552685 0.897421
O O7 0.121628 0.441340 0.891447
O O8 0.000000 0.525663 0.898579
O O9 0.228275 0.614765 0.750000
O O10 0.256650 0.649665 0.920730
O O11 0.750000 0.750000 0.500000
O O12 0.660877 0.666218 0.421985
O O13 0.837560 0.667025 0.422272
O O14 0.110885 0.847094 0.750000
O O15 0.000000 0.870495 0.889247
O O16 0.867464 0.633432 0.250000
O O17 0.000000 0.642307 0.130449
#
# Coordination Sequence:
#
# PCOD8258060 Si02
#       6
#    16  16  16  16  16  16
#     4  10  19  35  61  91 122 148 181 235 302 365
#     4   8  16  33  58  88 118 142 173 227 292 357
#     4  11  23  37  56  85 121 157 192 234 294 356
#     4  12  26  40  57  80 116 160 208 249 281 324
#     4  10  21  39  64  90 115 148 190 239 297 356
#     4   9  19  38  64  91 115 143 186 241 300 357
#
# _framework density 19.591604
#
# number of rings (size 3 to 8) (size 9 to 14) (size 15 to 20)
#    0.000    2.000    1.667    3.000    0.000    5.000 
#    0.000    1.667    0.000    2.000    0.000    0.000 
#    0.000    0.000    0.000    0.000    0.000    0.000 
#
# Total GULP energy -595223.448161 kJ/mol
# GULP energy per Si atom -12400.488503 kJ/mol
# Density = 1.954701 g / cm^3
# Si number density = 19.591604 Si / 1000 Ang^3
#
#
#
# Elastic Constant Matrix: (Units=GPa)
#
#
# Indices 1 2 3 4 5 6 
#
# 1 110.5215 70.1207 45.0217 0.0000 0.0000 0.0000
# 2 70.1207 143.4254 56.4991 0.0000 0.0000 0.0000
# 3 45.0217 56.4991 105.7679 0.0000 0.0000 0.0000
# 4 0.0000 0.0000 0.0000 -0.5820 0.0000 0.0000
# 5 0.0000 0.0000 0.0000 0.0000 30.3519 0.0000
# 6 0.0000 0.0000 0.0000 0.0000 0.0000 13.2543
#
#
#
# Elastic Compliance Matrix: (Units=1/GPa)
#
#
# Indices 1 2 3 4 5 6 
#
# 1 0.013771 -0.005603 -0.002869 0.000000 0.000000 0.000000
# 2 -0.005603 0.011110 -0.003550 0.000000 0.000000 0.000000
# 3 -0.002869 -0.003550 0.012572 0.000000 0.000000 0.000000
# 4 0.000000 0.000000 0.000000 -1.718088 0.000000 0.000000
# 5 0.000000 0.000000 0.000000 0.000000 0.032947 0.000000
# 6 0.000000 0.000000 0.000000 0.000000 0.000000 0.075447
#
#
# Mechanical properties :
#
#
# Convention : Reuss Voigt Hill
#
# Bulk Modulus (GPa) = 74.57013 78.11085 76.34049
# Shear Modulus (GPa) = -3.23891 21.14305 8.95207
#
# Velocity S-wave (km/s) = -1.28717 3.28867 2.13992
# Velocity P-wave (km/s) = 5.99465 7.37404 6.71984
#
# Compressibility (1/GPa) = 0.01341019
#
# Stress axis : x y z
#
# Youngs Moduli (GPa) = 72.61436 90.01129 79.54052
#
# Poissons Ratio (x) = 0.50429 0.22822
# Poissons Ratio (y) = 0.40683 0.28235
# Poissons Ratio (z) = 0.20835 0.31952
#
# Static dielectric constant tensor:
#      x y z
#    x 2.955850 0.000000 0.000000 
#    y 0.000000 3.236130 0.000000 
#    z 0.000000 0.000000 3.604640 
# 
# 
# High freq. dielectric constant tensor:
#      x y z
#    x 1.775840 0.000000 0.000000 
#    y 0.000000 1.723550 0.000000 
#    z 0.000000 0.000000 1.774510 
# 
# From -- ./inp_files/31955.got.cif
#   From: 2010.03.12/outbox.cif.g09.slc.cpg/sg63_16_cif.got.tgz:31955.got - 2010.04.10 19:34:48.
