data_PCOD8258457
_publ_section_title
;
Structure prediction by ZEFSAII (Michael W. Deem and Ramdas Pophale) SiO2 
 PCOD8258457
Probable space group: C M C M
;
_chemical_formula_sum "Si O2"
_cell_formula_units_Z 96
_cell_length_a 10.290643
_cell_length_b 19.317299
_cell_length_c 26.639461
_cell_angle_alpha 90.000000
_cell_angle_beta 90.000000
_cell_angle_gamma 90.000000
_cell_volume 5295.589928
_symmetry_space_group_name_H-M "C M C M"
_symmetry_group_IT_number 63
_symmetry_cell_setting 'orthorhombic'
loop_
_space_group_symop_operation_xyz
x,y,z
-x,-y,1/2+z
x,-y,-z
-x,y,1/2-z
-x,-y,-z
x,y,1/2-z
-x,y,z
x,-y,1/2+z
1/2+x,1/2+y,z
1/2-x,1/2-y,1/2+z
1/2+x,1/2-y,-z
1/2-x,1/2+y,1/2-z
1/2-x,1/2-y,-z
1/2+x,1/2+y,1/2-z
1/2-x,1/2+y,z
1/2+x,1/2-y,1/2+z
loop_
_atom_site_type_symbol
_atom_site_label
_atom_site_fract_x
_atom_site_fract_y
_atom_site_fract_z
Si Si1 0.359529 0.550572 0.046014
Si Si2 0.847838 0.390941 0.805337
Si Si3 0.355501 0.159853 0.903844
Si Si4 0.350199 0.006793 0.879353
Si Si5 0.210154 0.326259 0.513131
Si Si6 0.355024 0.778151 0.883886
O O1 0.500000 0.550335 0.074187
O O2 0.240934 0.528295 0.080030
O O3 0.336406 0.627573 0.024732
O O4 0.367195 0.500000 0.000000
O O5 0.782905 0.385052 0.750000
O O6 0.819216 0.467841 0.826995
O O7 0.795858 0.330176 0.841973
O O8 0.000000 0.379775 0.800717
O O9 0.500000 0.185653 0.887796
O O10 0.245925 0.215008 0.888737
O O11 0.321239 0.088579 0.874755
O O12 0.361884 0.143703 0.963852
O O13 0.500000 0.994590 0.895578
O O14 0.250000 0.250000 0.500000
O O15 0.126574 0.321221 0.564249
O O16 0.500000 0.750708 0.869475
#
# Coordination Sequence:
#
# PCOD8258457 Si02
#       6
#    16  16  16  16  16  16
#     4  11  22  35  53  80 112 147 182 219 265 318
#     4   9  18  35  59  83 104 134 182 232 275 323
#     4  10  21  34  52  79 114 147 177 218 268 322
#     4  10  20  36  56  79 107 143 184 226 271 322
#     4  10  20  33  49  76 111 146 179 213 259 318
#     4  10  20  34  55  79 107 144 184 222 266 319
#
# _framework density 18.128291999999998
#
# number of rings (size 3 to 8) (size 9 to 14) (size 15 to 20)
#    0.000    2.000    3.333    0.500    0.000    7.000 
#    0.000    0.833    0.000    3.000    0.000    0.000 
#    0.000    0.000    0.000    0.000    0.000    0.000 
#
# Total GULP energy -594668.158273 kJ/mol
# GULP energy per Si atom -12388.919964 kJ/mol
# Density = 1.808703 g / cm^3
# Si number density = 18.128292 Si / 1000 Ang^3
#
#
#
# Elastic Constant Matrix: (Units=GPa)
#
#
# Indices 1 2 3 4 5 6 
#
# 1 95.6595 59.1790 31.7785 0.0000 0.0000 0.0000
# 2 59.1790 129.3195 57.3719 0.0000 0.0000 0.0000
# 3 31.7785 57.3719 111.3405 0.0000 0.0000 0.0000
# 4 0.0000 0.0000 0.0000 23.7182 0.0000 0.0000
# 5 0.0000 0.0000 0.0000 0.0000 13.5006 0.0000
# 6 0.0000 0.0000 0.0000 0.0000 0.0000 38.6157
#
#
#
# Elastic Compliance Matrix: (Units=1/GPa)
#
#
# Indices 1 2 3 4 5 6 
#
# 1 0.014658 -0.006289 -0.000943 0.000000 0.000000 0.000000
# 2 -0.006289 0.012723 -0.004761 0.000000 0.000000 0.000000
# 3 -0.000943 -0.004761 0.011704 0.000000 0.000000 0.000000
# 4 0.000000 0.000000 0.000000 0.042162 0.000000 0.000000
# 5 0.000000 0.000000 0.000000 0.000000 0.074071 0.000000
# 6 0.000000 0.000000 0.000000 0.000000 0.000000 0.025896
#
#
# Mechanical properties :
#
#
# Convention : Reuss Voigt Hill
#
# Bulk Modulus (GPa) = 66.23171 70.33093 68.28132
# Shear Modulus (GPa) = 23.78318 27.69957 25.74138
#
# Velocity S-wave (km/s) = 3.62600 3.91317 3.77232
# Velocity P-wave (km/s) = 7.35831 7.70050 7.53135
#
# Compressibility (1/GPa) = 0.01509851
#
# Stress axis : x y z
#
# Youngs Moduli (GPa) = 68.22286 78.59722 85.44275
#
# Poissons Ratio (x) = 0.49433 0.08055
# Poissons Ratio (y) = 0.42908 0.40678
# Poissons Ratio (z) = 0.06432 0.37419
#
# Static dielectric constant tensor:
#      x y z
#    x 3.459110 0.000000 0.000000 
#    y 0.000000 3.437510 0.000000 
#    z 0.000000 0.000000 3.767130 
# 
# 
# High freq. dielectric constant tensor:
#      x y z
#    x 1.688710 0.000000 0.000000 
#    y 0.000000 1.711550 0.000000 
#    z 0.000000 0.000000 1.675870 
# 
# From -- ./inp_files/61651.got.cif
#   From: 2010.03.12/outbox.cif.g09.slc.cpg/sg63_31_cif.got.tgz:61651.got - 2010.04.10 19:34:48.
