data_PCOD8258421
_publ_section_title
;
Structure prediction by ZEFSAII (Michael W. Deem and Ramdas Pophale) SiO2 
 PCOD8258421
Probable space group: C M C M
;
_chemical_formula_sum "Si O2"
_cell_formula_units_Z 112
_cell_length_a 27.169140
_cell_length_b 25.399125
_cell_length_c 9.423519
_cell_angle_alpha 90.000000
_cell_angle_beta 90.000000
_cell_angle_gamma 90.000000
_cell_volume 6502.910213
_symmetry_space_group_name_H-M "C M C M"
_symmetry_group_IT_number 63
_symmetry_cell_setting 'orthorhombic'
loop_
_space_group_symop_operation_xyz
x,y,z
-x,-y,1/2+z
x,-y,-z
-x,y,1/2-z
-x,-y,-z
x,y,1/2-z
-x,y,z
x,-y,1/2+z
1/2+x,1/2+y,z
1/2-x,1/2-y,1/2+z
1/2+x,1/2-y,-z
1/2-x,1/2+y,1/2-z
1/2-x,1/2-y,-z
1/2+x,1/2+y,1/2-z
1/2-x,1/2+y,z
1/2+x,1/2-y,1/2+z
loop_
_atom_site_type_symbol
_atom_site_label
_atom_site_fract_x
_atom_site_fract_y
_atom_site_fract_z
Si Si1 0.056789 0.247588 0.416629
Si Si2 0.628418 0.339530 0.910794
Si Si3 0.056787 0.350722 0.914256
Si Si4 0.875542 0.448645 0.582202
Si Si5 0.835032 0.050642 0.419367
Si Si6 0.262816 0.300049 0.589132
Si Si7 0.730001 0.089490 0.418133
O O1 0.067520 0.255443 0.250000
O O2 0.086757 0.197629 0.481629
O O3 0.074162 0.300561 0.495180
O O4 0.000000 0.236099 0.448062
O O5 0.612165 0.348274 0.750000
O O6 0.634273 0.398363 0.975656
O O7 0.679303 0.308923 0.920688
O O8 0.065424 0.336990 0.750000
O O9 0.089181 0.400603 0.960470
O O10 0.000000 0.364685 0.945264
O O11 0.894860 0.500000 0.500000
O O12 0.876865 0.459279 0.750000
O O13 0.820232 0.436602 0.526507
O O14 0.839532 0.044201 0.250000
O O15 0.777861 0.056702 0.466604
O O16 0.856881 0.000000 0.500000
O O17 0.246305 0.289663 0.750000
O O18 0.250000 0.250000 0.500000
O O19 0.234104 0.350594 0.525049
O O20 0.730186 0.093084 0.250000
#
# Coordination Sequence:
#
# PCOD8258421 Si02
#       7
#    16  16  16  16  16  16  16
#     4   9  17  31  52  73  91 117 156 193 225 273
#     4   8  16  30  46  67  95 123 148 184 234 272
#     4   9  19  34  49  67  92 120 148 186 239 283
#     4  10  20  33  48  66  89 119 154 190 228 272
#     4   9  16  29  48  66  90 122 153 186 222 264
#     4   9  17  29  44  64  92 123 151 181 223 272
#     4   8  16  30  45  62  88 122 152 180 223 271
#
# _framework density 17.223058999999999
#
# number of rings (size 3 to 8) (size 9 to 14) (size 15 to 20)
#    0.000    3.143    0.000    2.143    2.000    0.857 
#    0.000    4.286    0.000    0.429    0.000    0.000 
#    0.000    0.000    0.000    0.000    0.000    0.000 
#
# Total GULP energy -694073.177190 kJ/mol
# GULP energy per Si atom -12394.163878 kJ/mol
# Density = 1.718386 g / cm^3
# Si number density = 17.223059 Si / 1000 Ang^3
#
#
#
# Elastic Constant Matrix: (Units=GPa)
#
#
# Indices 1 2 3 4 5 6 
#
# 1 70.0555 63.9715 23.5068 0.0000 0.0000 0.0000
# 2 63.9715 169.2188 51.5100 0.0000 0.0000 0.0000
# 3 23.5068 51.5100 38.6224 0.0000 0.0000 0.0000
# 4 0.0000 0.0000 0.0000 32.1089 0.0000 0.0000
# 5 0.0000 0.0000 0.0000 0.0000 14.8839 0.0000
# 6 0.0000 0.0000 0.0000 0.0000 0.0000 27.0666
#
#
#
# Elastic Compliance Matrix: (Units=1/GPa)
#
#
# Indices 1 2 3 4 5 6 
#
# 1 0.022142 -0.007186 -0.003893 0.000000 0.000000 0.000000
# 2 -0.007186 0.012280 -0.012004 0.000000 0.000000 0.000000
# 3 -0.003893 -0.012004 0.044271 0.000000 0.000000 0.000000
# 4 0.000000 0.000000 0.000000 0.031144 0.000000 0.000000
# 5 0.000000 0.000000 0.000000 0.000000 0.067187 0.000000
# 6 0.000000 0.000000 0.000000 0.000000 0.000000 0.036946
#
#
# Mechanical properties :
#
#
# Convention : Reuss Voigt Hill
#
# Bulk Modulus (GPa) = 30.74338 61.76372 46.25355
# Shear Modulus (GPa) = 18.45163 24.07245 21.26204
#
# Velocity S-wave (km/s) = 3.27667 3.74262 3.51737
# Velocity P-wave (km/s) = 5.67489 7.39021 6.58861
#
# Compressibility (1/GPa) = 0.03252733
#
# Stress axis : x y z
#
# Youngs Moduli (GPa) = 45.16239 81.43283 22.58804
#
# Poissons Ratio (x) = 0.58514 0.08794
# Poissons Ratio (y) = 0.32452 0.27115
# Poissons Ratio (z) = 0.17583 0.97755
#
# Static dielectric constant tensor:
#      x y z
#    x 3.181180 0.000000 0.000000 
#    y 0.000000 3.336810 0.000000 
#    z 0.000000 0.000000 2.860670 
# 
# 
# High freq. dielectric constant tensor:
#      x y z
#    x 1.652940 0.000000 0.000000 
#    y 0.000000 1.675640 0.000000 
#    z 0.000000 0.000000 1.630550 
# 
# From -- ./inp_files/25190.got.cif
#   From: 2010.03.12/outbox.cif.g09.slc.cpg/sg63_13_cif.got.tgz:25190.got - 2010.04.10 19:34:48.
