data_PCOD8258816
_publ_section_title
;
Structure prediction by ZEFSAII (Michael W. Deem and Ramdas Pophale) SiO2 
 PCOD8258816
Probable space group: C M C M
;
_chemical_formula_sum "Si O2"
_cell_formula_units_Z 56
_cell_length_a 32.171140
_cell_length_b 5.320704
_cell_length_c 14.211430
_cell_angle_alpha 90.000000
_cell_angle_beta 90.000000
_cell_angle_gamma 90.000000
_cell_volume 2432.614717
_symmetry_space_group_name_H-M "C M C M"
_symmetry_group_IT_number 63
_symmetry_cell_setting 'orthorhombic'
loop_
_space_group_symop_operation_xyz
x,y,z
-x,-y,1/2+z
x,-y,-z
-x,y,1/2-z
-x,-y,-z
x,y,1/2-z
-x,y,z
x,-y,1/2+z
1/2+x,1/2+y,z
1/2-x,1/2-y,1/2+z
1/2+x,1/2-y,-z
1/2-x,1/2+y,1/2-z
1/2-x,1/2-y,-z
1/2+x,1/2+y,1/2-z
1/2-x,1/2+y,z
1/2+x,1/2-y,1/2+z
loop_
_atom_site_type_symbol
_atom_site_label
_atom_site_fract_x
_atom_site_fract_y
_atom_site_fract_z
Si Si1 0.343211 0.000000 0.500000
Si Si2 0.581131 0.766831 0.907802
Si Si3 0.952746 0.767173 0.609870
Si Si4 0.275883 0.852047 0.358734
O O1 0.371593 0.203448 0.444669
O O2 0.316288 0.847442 0.424148
O O3 0.574123 0.506587 0.851094
O O4 0.567464 0.011475 0.847115
O O5 0.550170 0.748639 0.997084
O O6 0.000000 0.794324 0.643899
O O7 0.289828 0.851432 0.250000
O O8 0.250367 0.104177 0.382855
#
# Coordination Sequence:
#
# PCOD8258816 Si02
#       4
#     8  16  16  16
#     4  10  20  34  53  76 108 130 160 214 255 288
#     4   9  17  23  38  66  92 124 162 194 240 291
#     4   9  14  24  37  59  98 128 158 203 233 274
#     4  10  22  38  56  77  99 131 170 202 247 308
#
# _framework density 23.020498
#
# number of rings (size 3 to 8) (size 9 to 14) (size 15 to 20)
#    0.000    2.857    0.000    5.143    0.000    9.143 
#    0.000    0.000    0.000    0.000    0.000    0.000 
#    0.000  150.857    0.000    0.000    0.000    0.000 
#
# Total GULP energy -346932.059297 kJ/mol
# GULP energy per Si atom -12390.430689 kJ/mol
# Density = 2.296810 g / cm^3
# Si number density = 23.020498 Si / 1000 Ang^3
#
#
#
# Elastic Constant Matrix: (Units=GPa)
#
#
# Indices 1 2 3 4 5 6 
#
# 1 163.6654 72.6322 41.2139 0.0000 0.0000 0.0000
# 2 72.6322 246.3894 14.6345 0.0000 0.0000 0.0000
# 3 41.2139 14.6345 47.3272 0.0000 0.0000 0.0000
# 4 0.0000 0.0000 0.0000 -1.4452 0.0000 0.0000
# 5 0.0000 0.0000 0.0000 0.0000 -29.6451 0.0000
# 6 0.0000 0.0000 0.0000 0.0000 0.0000 22.9134
#
#
#
# Elastic Compliance Matrix: (Units=1/GPa)
#
#
# Indices 1 2 3 4 5 6 
#
# 1 0.008854 -0.002192 -0.007032 0.000000 0.000000 0.000000
# 2 -0.002192 0.004677 0.000463 0.000000 0.000000 0.000000
# 3 -0.007032 0.000463 0.027110 0.000000 0.000000 0.000000
# 4 0.000000 0.000000 0.000000 -0.691936 0.000000 0.000000
# 5 0.000000 0.000000 0.000000 0.000000 -0.033732 0.000000
# 6 0.000000 0.000000 0.000000 0.000000 0.000000 0.043643
#
#
# Mechanical properties :
#
#
# Convention : Reuss Voigt Hill
#
# Bulk Modulus (GPa) = 43.25646 79.37146 61.31396
# Shear Modulus (GPa) = -8.11485 20.29139 6.08827
#
# Velocity S-wave (km/s) = -1.87955 2.97214 1.62802
# Velocity P-wave (km/s) = 3.75778 6.80673 5.49784
#
# Compressibility (1/GPa) = 0.02311793
#
# Stress axis : x y z
#
# Youngs Moduli (GPa) = 112.94625 213.79470 36.88641
#
# Poissons Ratio (x) = 0.46870 0.25939
# Poissons Ratio (y) = 0.24761 -0.01707
# Poissons Ratio (z) = 0.79426 -0.09894
#
# Static dielectric constant tensor:
#      x y z
#    x 3.877480 0.000000 0.000000 
#    y 0.000000 5.813260 0.000000 
#    z 0.000000 0.000000 3.551790 
# 
# 
# High freq. dielectric constant tensor:
#      x y z
#    x 1.893870 0.000000 0.000000 
#    y 0.000000 1.937040 0.000000 
#    z 0.000000 0.000000 1.863510 
# 
# From -- ./inp_files/48597.got.cif
#   From: 2010.03.12/outbox.cif.g09.slc.cpg/sg63_25_cif.got.tgz:48597.got - 2010.04.10 19:34:48.
