data_PCOD8258666
_publ_section_title
;
Structure prediction by ZEFSAII (Michael W. Deem and Ramdas Pophale) SiO2 
 PCOD8258666
Probable space group: C M C M
;
_chemical_formula_sum "Si O2"
_cell_formula_units_Z 96
_cell_length_a 9.231705
_cell_length_b 20.498991
_cell_length_c 27.796879
_cell_angle_alpha 90.000000
_cell_angle_beta 90.000000
_cell_angle_gamma 90.000000
_cell_volume 5260.299108
_symmetry_space_group_name_H-M "C M C M"
_symmetry_group_IT_number 63
_symmetry_cell_setting 'orthorhombic'
loop_
_space_group_symop_operation_xyz
x,y,z
-x,-y,1/2+z
x,-y,-z
-x,y,1/2-z
-x,-y,-z
x,y,1/2-z
-x,y,z
x,-y,1/2+z
1/2+x,1/2+y,z
1/2-x,1/2-y,1/2+z
1/2+x,1/2-y,-z
1/2-x,1/2+y,1/2-z
1/2-x,1/2-y,-z
1/2+x,1/2+y,1/2-z
1/2-x,1/2+y,z
1/2+x,1/2-y,1/2+z
loop_
_atom_site_type_symbol
_atom_site_label
_atom_site_fract_x
_atom_site_fract_y
_atom_site_fract_z
Si Si1 0.834184 0.511165 0.896916
Si Si2 0.170748 0.126073 0.945208
Si Si3 0.330842 0.756974 0.891241
Si Si4 0.169138 0.194263 0.304663
Si Si5 0.664672 0.062514 0.196085
Si Si6 0.667640 0.119768 0.455007
O O1 0.728382 0.568746 0.911492
O O2 0.802081 0.495620 0.840968
O O3 0.800216 0.447560 0.928310
O O4 0.000000 0.533286 0.904704
O O5 0.216453 0.194544 0.921941
O O6 0.000000 0.119077 0.949937
O O7 0.237553 0.121480 0.997618
O O8 0.500000 0.756369 0.879418
O O9 0.245566 0.755170 0.840716
O O10 0.285184 0.821129 0.920694
O O11 0.201810 0.216554 0.250000
O O12 0.229593 0.122207 0.314112
O O13 0.000000 0.193046 0.315570
O O14 0.686055 0.034889 0.250000
O O15 0.500000 0.087851 0.187936
O O16 0.500000 0.126227 0.469577
#
# Coordination Sequence:
#
# PCOD8258666 Si02
#       6
#    16  16  16  16  16  16
#     4  10  20  36  57  81 110 146 184 222 267 323
#     4  11  24  37  53  80 113 146 181 227 278 323
#     4  10  21  39  58  79 109 147 187 222 267 327
#     4  10  20  33  54  86 115 138 173 225 277 319
#     4   9  17  33  58  83 107 141 183 222 265 321
#     4  10  20  37  59  80 104 143 191 229 266 320
#
# _framework density 18.249914
#
# number of rings (size 3 to 8) (size 9 to 14) (size 15 to 20)
#    0.000    2.000    1.667    2.000    0.000    6.333 
#    0.000    0.833    0.000    3.000    0.000    0.000 
#    0.000    0.000    0.000    0.000    0.000    0.000 
#
# Total GULP energy -595351.875665 kJ/mol
# GULP energy per Si atom -12403.164076 kJ/mol
# Density = 1.820838 g / cm^3
# Si number density = 18.249914 Si / 1000 Ang^3
#
#
#
# Elastic Constant Matrix: (Units=GPa)
#
#
# Indices 1 2 3 4 5 6 
#
# 1 64.6577 34.0717 54.6572 0.0000 0.0000 0.0000
# 2 34.0717 71.7060 33.8981 0.0000 0.0000 0.0000
# 3 54.6572 33.8981 125.7713 0.0000 0.0000 0.0000
# 4 0.0000 0.0000 0.0000 -36.8513 0.0000 0.0000
# 5 0.0000 0.0000 0.0000 0.0000 28.1788 0.0000
# 6 0.0000 0.0000 0.0000 0.0000 0.0000 25.8084
#
#
#
# Elastic Compliance Matrix: (Units=1/GPa)
#
#
# Indices 1 2 3 4 5 6 
#
# 1 0.028631 -0.008850 -0.010057 0.000000 0.000000 0.000000
# 2 -0.008850 0.018718 -0.001199 0.000000 0.000000 0.000000
# 3 -0.010057 -0.001199 0.012645 0.000000 0.000000 0.000000
# 4 0.000000 0.000000 0.000000 -0.027136 0.000000 0.000000
# 5 0.000000 0.000000 0.000000 0.000000 0.035488 0.000000
# 6 0.000000 0.000000 0.000000 0.000000 0.000000 0.038747
#
#
# Mechanical properties :
#
#
# Convention : Reuss Voigt Hill
#
# Bulk Modulus (GPa) = 50.55198 56.37655 53.46426
# Shear Modulus (GPa) = 32.48905 12.72773 22.60839
#
# Velocity S-wave (km/s) = 4.22385 2.64372 3.52351
# Velocity P-wave (km/s) = 7.17969 6.34646 6.77589
#
# Compressibility (1/GPa) = 0.01978162
#
# Stress axis : x y z
#
# Youngs Moduli (GPa) = 34.92690 53.42539 79.08474
#
# Poissons Ratio (x) = 0.47281 0.79537
# Poissons Ratio (y) = 0.30910 0.09481
# Poissons Ratio (z) = 0.35127 0.06405
#
# Static dielectric constant tensor:
#      x y z
#    x 3.368960 0.000000 0.000000 
#    y 0.000000 3.264980 0.000000 
#    z 0.000000 0.000000 3.607150 
# 
# 
# High freq. dielectric constant tensor:
#      x y z
#    x 1.707090 0.000000 0.000000 
#    y 0.000000 1.690700 0.000000 
#    z 0.000000 0.000000 1.724010 
# 
# From -- ./inp_files/66905.got.cif
#   From: 2010.03.12/outbox.cif.g09.slc.cpg/sg63_34_cif.got.tgz:66905.got - 2010.04.10 19:34:48.
