data_PCOD8258959
_publ_section_title
;
Structure prediction by ZEFSAII (Michael W. Deem and Ramdas Pophale) SiO2 
 PCOD8258959
Probable space group: C M C M
;
_chemical_formula_sum "Si O2"
_cell_formula_units_Z 96
_cell_length_a 8.987645
_cell_length_b 20.550677
_cell_length_c 27.856155
_cell_angle_alpha 90.000000
_cell_angle_beta 90.000000
_cell_angle_gamma 90.000000
_cell_volume 5145.092816
_symmetry_space_group_name_H-M "C M C M"
_symmetry_group_IT_number 63
_symmetry_cell_setting 'orthorhombic'
loop_
_space_group_symop_operation_xyz
x,y,z
-x,-y,1/2+z
x,-y,-z
-x,y,1/2-z
-x,-y,-z
x,y,1/2-z
-x,y,z
x,-y,1/2+z
1/2+x,1/2+y,z
1/2-x,1/2-y,1/2+z
1/2+x,1/2-y,-z
1/2-x,1/2+y,1/2-z
1/2-x,1/2-y,-z
1/2+x,1/2+y,1/2-z
1/2-x,1/2+y,z
1/2+x,1/2-y,1/2+z
loop_
_atom_site_type_symbol
_atom_site_label
_atom_site_fract_x
_atom_site_fract_y
_atom_site_fract_z
Si Si1 0.672628 0.870785 0.888783
Si Si2 0.828810 0.497890 0.444471
Si Si3 0.324873 0.618763 0.607700
Si Si4 0.674386 0.069121 0.695610
Si Si5 0.172616 0.067354 0.304699
Si Si6 0.324448 0.253484 0.448588
O O1 0.500000 0.865031 0.875078
O O2 0.765841 0.876534 0.839548
O O3 0.729099 0.806963 0.916390
O O4 0.704729 0.931558 0.923116
O O5 0.787409 0.500000 0.500000
O O6 0.722794 0.446070 0.419641
O O7 0.000000 0.477220 0.436383
O O8 0.500000 0.619069 0.615325
O O9 0.248198 0.621545 0.660139
O O10 0.271428 0.681043 0.577735
O O11 0.711857 0.090029 0.750000
O O12 0.500000 0.065734 0.686074
O O13 0.738806 0.998315 0.683657
O O14 0.199650 0.089939 0.250000
O O15 0.000000 0.054107 0.314787
O O16 0.500000 0.251606 0.456287
O O17 0.250000 0.250000 0.500000
#
# Coordination Sequence:
#
# PCOD8258959 Si02
#       6
#    16  16  16  16  16  16
#     4  10  20  36  57  81 111 149 192 230 274 335
#     4  10  20  34  55  81 108 143 188 236 281 331
#     4  11  22  36  56  84 116 147 186 236 286 334
#     4  10  20  35  57  84 113 148 189 230 279 340
#     4  10  20  34  55  85 117 146 180 229 288 338
#     4  10  23  41  59  82 113 154 194 231 280 335
#
# _framework density 18.658556000000001
#
# number of rings (size 3 to 8) (size 9 to 14) (size 15 to 20)
#    0.000    1.833    1.667    2.500    0.000    5.667 
#    0.000    0.833    0.000    5.000    0.000    0.000 
#    0.000    0.000    0.000    0.000    0.000    0.000 
#
# Total GULP energy -595406.985965 kJ/mol
# GULP energy per Si atom -12404.312208 kJ/mol
# Density = 1.861609 g / cm^3
# Si number density = 18.658556 Si / 1000 Ang^3
#
#
#
# Elastic Constant Matrix: (Units=GPa)
#
#
# Indices 1 2 3 4 5 6 
#
# 1 73.8710 43.0431 57.4984 0.0000 0.0000 0.0000
# 2 43.0431 98.1550 58.5174 0.0000 0.0000 0.0000
# 3 57.4984 58.5174 150.7698 0.0000 0.0000 0.0000
# 4 0.0000 0.0000 0.0000 33.3651 0.0000 0.0000
# 5 0.0000 0.0000 0.0000 0.0000 36.7806 0.0000
# 6 0.0000 0.0000 0.0000 0.0000 0.0000 25.0796
#
#
#
# Elastic Compliance Matrix: (Units=1/GPa)
#
#
# Indices 1 2 3 4 5 6 
#
# 1 0.021622 -0.005940 -0.005940 0.000000 0.000000 0.000000
# 2 -0.005940 0.014887 -0.003513 0.000000 0.000000 0.000000
# 3 -0.005940 -0.003513 0.010261 0.000000 0.000000 0.000000
# 4 0.000000 0.000000 0.000000 0.029971 0.000000 0.000000
# 5 0.000000 0.000000 0.000000 0.000000 0.027188 0.000000
# 6 0.000000 0.000000 0.000000 0.000000 0.000000 0.039873
#
#
# Mechanical properties :
#
#
# Convention : Reuss Voigt Hill
#
# Bulk Modulus (GPa) = 62.56229 71.21261 66.88745
# Shear Modulus (GPa) = 27.79046 29.96086 28.87566
#
# Velocity S-wave (km/s) = 3.86349 4.01152 3.93820
# Velocity P-wave (km/s) = 7.31471 7.72693 7.52364
#
# Compressibility (1/GPa) = 0.01598407
#
# Stress axis : x y z
#
# Youngs Moduli (GPa) = 46.24888 67.17259 97.45264
#
# Poissons Ratio (x) = 0.39903 0.57890
# Poissons Ratio (y) = 0.27473 0.34231
# Poissons Ratio (z) = 0.27474 0.23595
#
# Static dielectric constant tensor:
#      x y z
#    x 3.411240 0.000000 0.000000 
#    y 0.000000 3.374060 0.000000 
#    z 0.000000 0.000000 3.682790 
# 
# 
# High freq. dielectric constant tensor:
#      x y z
#    x 1.726250 0.000000 0.000000 
#    y 0.000000 1.706230 0.000000 
#    z 0.000000 0.000000 1.743280 
# 
# From -- ./inp_files/66904.got.cif
#   From: 2010.03.12/outbox.cif.g09.slc.cpg/sg63_34_cif.got.tgz:66904.got - 2010.04.10 19:34:48.
