data_PCOD8258562
_publ_section_title
;
Structure prediction by ZEFSAII (Michael W. Deem and Ramdas Pophale) SiO2 
 PCOD8258562
Probable space group: C M C M
;
_chemical_formula_sum "Si O2"
_cell_formula_units_Z 104
_cell_length_a 26.761458
_cell_length_b 23.771001
_cell_length_c 8.917435
_cell_angle_alpha 90.000000
_cell_angle_beta 90.000000
_cell_angle_gamma 90.000000
_cell_volume 5672.796356
_symmetry_space_group_name_H-M "C M C M"
_symmetry_group_IT_number 63
_symmetry_cell_setting 'orthorhombic'
loop_
_space_group_symop_operation_xyz
x,y,z
-x,-y,1/2+z
x,-y,-z
-x,y,1/2-z
-x,-y,-z
x,y,1/2-z
-x,y,z
x,-y,1/2+z
1/2+x,1/2+y,z
1/2-x,1/2-y,1/2+z
1/2+x,1/2-y,-z
1/2-x,1/2+y,1/2-z
1/2-x,1/2-y,-z
1/2+x,1/2+y,1/2-z
1/2-x,1/2+y,z
1/2+x,1/2-y,1/2+z
loop_
_atom_site_type_symbol
_atom_site_label
_atom_site_fract_x
_atom_site_fract_y
_atom_site_fract_z
Si Si1 0.290884 0.132974 0.578776
Si Si2 0.861672 0.261978 0.081778
Si Si3 0.000000 0.058935 0.923251
Si Si4 0.627814 0.939247 0.571687
Si Si5 0.558008 0.849231 0.426088
Si Si6 0.107213 0.060329 0.573448
Si Si7 0.180254 0.845671 0.427516
O O1 0.287964 0.110813 0.750000
O O2 0.319165 0.191493 0.571019
O O3 0.319012 0.086055 0.480669
O O4 0.236127 0.145195 0.509742
O O5 0.865969 0.238212 0.250000
O O6 0.914250 0.290583 0.031919
O O7 0.846087 0.211838 0.974465
O O8 0.052601 0.088596 0.966077
O O9 0.000000 0.045500 0.750000
O O10 0.000000 0.000000 0.000000
O O11 0.627168 0.943927 0.750000
O O12 0.581922 0.900348 0.518326
O O13 0.619922 0.000000 0.500000
O O14 0.566123 0.861910 0.250000
O O15 0.500000 0.843341 0.468811
O O16 0.113755 0.052565 0.750000
O O17 0.148042 0.102717 0.508018
O O18 0.114979 0.000000 0.500000
O O19 0.181567 0.845021 0.250000
#
# Coordination Sequence:
#
# PCOD8258562 Si02
#       7
#    16  16   8  16  16  16  16
#     4   9  19  36  54  73 103 141 178 219 265 312
#     4   9  18  33  53  76 102 136 176 215 260 313
#     4   8  14  28  48  64  86 120 156 190 235 288
#     4  11  22  36  56  82 111 143 182 223 268 324
#     4   9  19  38  60  80 109 146 181 223 272 316
#     4   9  18  32  49  70  96 128 164 206 254 303
#     4  10  20  33  51  77 106 135 172 217 266 318
#
# _framework density 18.333110999999999
#
# number of rings (size 3 to 8) (size 9 to 14) (size 15 to 20)
#    0.000    2.615    0.000    2.769    0.000    4.923 
#    1.385    1.538    0.000    0.000    0.000    0.000 
#    0.000    0.000    0.000    0.000    0.000    0.000 
#
# Total GULP energy -644494.944632 kJ/mol
# GULP energy per Si atom -12394.133551 kJ/mol
# Density = 1.829138 g / cm^3
# Si number density = 18.333111 Si / 1000 Ang^3
#
#
#
# Elastic Constant Matrix: (Units=GPa)
#
#
# Indices 1 2 3 4 5 6 
#
# 1 170.5837 72.0274 43.8384 0.0000 0.0000 0.0000
# 2 72.0274 67.8561 29.0577 0.0000 0.0000 0.0000
# 3 43.8384 29.0577 57.6164 0.0000 0.0000 0.0000
# 4 0.0000 0.0000 0.0000 30.8546 0.0000 0.0000
# 5 0.0000 0.0000 0.0000 0.0000 23.1883 0.0000
# 6 0.0000 0.0000 0.0000 0.0000 0.0000 16.2490
#
#
#
# Elastic Compliance Matrix: (Units=1/GPa)
#
#
# Indices 1 2 3 4 5 6 
#
# 1 0.011063 -0.010380 -0.003182 0.000000 0.000000 0.000000
# 2 -0.010380 0.028536 -0.006494 0.000000 0.000000 0.000000
# 3 -0.003182 -0.006494 0.023052 0.000000 0.000000 0.000000
# 4 0.000000 0.000000 0.000000 0.032410 0.000000 0.000000
# 5 0.000000 0.000000 0.000000 0.000000 0.043125 0.000000
# 6 0.000000 0.000000 0.000000 0.000000 0.000000 0.061542
#
#
# Mechanical properties :
#
#
# Convention : Reuss Voigt Hill
#
# Bulk Modulus (GPa) = 44.36742 65.10035 54.73389
# Shear Modulus (GPa) = 20.21383 24.13388 22.17385
#
# Velocity S-wave (km/s) = 3.32412 3.63217 3.48156
# Velocity P-wave (km/s) = 6.24390 7.29226 6.78835
#
# Compressibility (1/GPa) = 0.02253906
#
# Stress axis : x y z
#
# Youngs Moduli (GPa) = 90.39053 35.04308 43.37930
#
# Poissons Ratio (x) = 0.36376 0.13805
# Poissons Ratio (y) = 0.93829 0.28169
# Poissons Ratio (z) = 0.28766 0.22756
#
# Static dielectric constant tensor:
#      x y z
#    x 4.240920 0.000000 0.000000 
#    y 0.000000 3.238880 0.000000 
#    z 0.000000 0.000000 3.290080 
# 
# 
# High freq. dielectric constant tensor:
#      x y z
#    x 1.726900 0.000000 0.000000 
#    y 0.000000 1.696750 0.000000 
#    z 0.000000 0.000000 1.700290 
# 
# From -- ./inp_files/12524.got.cif
#   From: 2010.03.12/outbox.cif.g09.slc.cpg/sg63_7_cif.got.tgz:12524.got - 2010.04.10 19:34:48.
