data_PCOD8258899
_publ_section_title
;
Structure prediction by ZEFSAII (Michael W. Deem and Ramdas Pophale) SiO2 
 PCOD8258899
Probable space group: C M C M
;
_chemical_formula_sum "Si O2"
_cell_formula_units_Z 80
_cell_length_a 18.710117
_cell_length_b 25.758064
_cell_length_c 9.016125
_cell_angle_alpha 90.000000
_cell_angle_beta 90.000000
_cell_angle_gamma 90.000000
_cell_volume 4345.198745
_symmetry_space_group_name_H-M "C M C M"
_symmetry_group_IT_number 63
_symmetry_cell_setting 'orthorhombic'
loop_
_space_group_symop_operation_xyz
x,y,z
-x,-y,1/2+z
x,-y,-z
-x,y,1/2-z
-x,-y,-z
x,y,1/2-z
-x,y,z
x,-y,1/2+z
1/2+x,1/2+y,z
1/2-x,1/2-y,1/2+z
1/2+x,1/2-y,-z
1/2-x,1/2+y,1/2-z
1/2-x,1/2-y,-z
1/2+x,1/2+y,1/2-z
1/2-x,1/2+y,z
1/2+x,1/2-y,1/2+z
loop_
_atom_site_type_symbol
_atom_site_label
_atom_site_fract_x
_atom_site_fract_y
_atom_site_fract_z
Si Si1 0.331167 0.860751 0.081929
Si Si2 0.083993 0.947397 0.579237
Si Si3 0.837113 0.854088 0.077212
Si Si4 0.081720 0.447558 0.576250
Si Si5 0.174684 0.246172 0.077726
O O1 0.345076 0.879352 0.250000
O O2 0.246987 0.860774 0.047620
O O3 0.363210 0.802437 0.059373
O O4 0.370573 0.899037 0.970874
O O5 0.107836 0.949819 0.750000
O O6 0.122675 0.901052 0.497651
O O7 0.000000 0.938836 0.563102
O O8 0.108730 0.000000 0.500000
O O9 0.855440 0.852139 0.250000
O O10 0.867254 0.800881 0.002296
O O11 0.110451 0.500000 0.500000
O O12 0.089191 0.455362 0.750000
O O13 0.000000 0.436843 0.528296
O O14 0.185182 0.232691 0.250000
O O15 0.250000 0.250000 0.000000
#
# Coordination Sequence:
#
# PCOD8258899 Si02
#       5
#    16  16  16  16  16
#     4   9  19  34  53  78 105 134 169 209 253 302
#     4  10  21  37  56  77 103 137 175 214 260 312
#     4  10  20  34  54  80 107 136 173 214 257 306
#     4  10  21  36  54  75 100 133 171 210 255 305
#     4   9  17  31  51  76 106 138 171 209 257 308
#
# _framework density 18.411125999999999
#
# number of rings (size 3 to 8) (size 9 to 14) (size 15 to 20)
#    0.000    2.400    0.000    3.600    0.000    8.000 
#    0.000    1.000    0.000    1.200    0.000    0.000 
#    0.000    0.000    0.000    0.000    0.000    0.000 
#
# Total GULP energy -495926.915114 kJ/mol
# GULP energy per Si atom -12398.172878 kJ/mol
# Density = 1.836922 g / cm^3
# Si number density = 18.411126 Si / 1000 Ang^3
#
#
#
# Elastic Constant Matrix: (Units=GPa)
#
#
# Indices 1 2 3 4 5 6 
#
# 1 21.2123 36.5603 32.0710 0.0000 0.0000 0.0000
# 2 36.5603 164.0100 84.9428 0.0000 0.0000 0.0000
# 3 32.0710 84.9428 138.6958 0.0000 0.0000 0.0000
# 4 0.0000 0.0000 0.0000 43.6613 0.0000 0.0000
# 5 0.0000 0.0000 0.0000 0.0000 26.4713 0.0000
# 6 0.0000 0.0000 0.0000 0.0000 0.0000 47.7736
#
#
#
# Elastic Compliance Matrix: (Units=1/GPa)
#
#
# Indices 1 2 3 4 5 6 
#
# 1 0.088965 -0.013440 -0.012340 0.000000 0.000000 0.000000
# 2 -0.013440 0.010960 -0.003605 0.000000 0.000000 0.000000
# 3 -0.012340 -0.003605 0.012271 0.000000 0.000000 0.000000
# 4 0.000000 0.000000 0.000000 0.022904 0.000000 0.000000
# 5 0.000000 0.000000 0.000000 0.000000 0.037777 0.000000
# 6 0.000000 0.000000 0.000000 0.000000 0.000000 0.020932
#
#
# Mechanical properties :
#
#
# Convention : Reuss Voigt Hill
#
# Bulk Modulus (GPa) = 18.71763 70.11849 44.41806
# Shear Modulus (GPa) = 18.49203 34.93749 26.71476
#
# Velocity S-wave (km/s) = 3.17266 4.36090 3.81335
# Velocity P-wave (km/s) = 4.85897 7.97021 6.60052
#
# Compressibility (1/GPa) = 0.05342557
#
# Stress axis : x y z
#
# Youngs Moduli (GPa) = 11.24043 91.24010 81.49291
#
# Poissons Ratio (x) = 1.22631 1.00563
# Poissons Ratio (y) = 0.15108 0.29374
# Poissons Ratio (z) = 0.13871 0.32888
#
# Static dielectric constant tensor:
#      x y z
#    x 3.069770 0.000000 0.000000 
#    y 0.000000 3.753550 0.000000 
#    z 0.000000 0.000000 3.865890 
# 
# 
# High freq. dielectric constant tensor:
#      x y z
#    x 1.676210 0.000000 0.000000 
#    y 0.000000 1.733750 0.000000 
#    z 0.000000 0.000000 1.731560 
# 
# From -- ./inp_files/6406.got.cif
#   From: 2010.03.12/outbox.cif.g09.slc.cpg/sg63_4_cif.got.tgz:6406.got - 2010.04.10 19:34:48.
