data_PCOD8258564
_publ_section_title
;
Structure prediction by ZEFSAII (Michael W. Deem and Ramdas Pophale) SiO2 
 PCOD8258564
Probable space group: C M C M
;
_chemical_formula_sum "Si O2"
_cell_formula_units_Z 96
_cell_length_a 23.072281
_cell_length_b 23.865884
_cell_length_c 9.318099
_cell_angle_alpha 90.000000
_cell_angle_beta 90.000000
_cell_angle_gamma 90.000000
_cell_volume 5130.921593
_symmetry_space_group_name_H-M "C M C M"
_symmetry_group_IT_number 63
_symmetry_cell_setting 'orthorhombic'
loop_
_space_group_symop_operation_xyz
x,y,z
-x,-y,1/2+z
x,-y,-z
-x,y,1/2-z
-x,-y,-z
x,y,1/2-z
-x,y,z
x,-y,1/2+z
1/2+x,1/2+y,z
1/2-x,1/2-y,1/2+z
1/2+x,1/2-y,-z
1/2-x,1/2+y,1/2-z
1/2-x,1/2-y,-z
1/2+x,1/2+y,1/2-z
1/2-x,1/2+y,z
1/2+x,1/2-y,1/2+z
loop_
_atom_site_type_symbol
_atom_site_label
_atom_site_fract_x
_atom_site_fract_y
_atom_site_fract_z
Si Si1 0.828401 0.943580 0.416265
Si Si2 0.135349 0.334497 0.584480
Si Si3 0.433131 0.944309 0.917286
Si Si4 0.623247 0.274697 0.916398
Si Si5 0.434657 0.630056 0.587221
Si Si6 0.230253 0.150913 0.086786
O O1 0.814973 0.953451 0.250000
O O2 0.894026 0.923238 0.443977
O O3 0.784045 0.897780 0.475549
O O4 0.817142 0.000000 0.500000
O O5 0.119008 0.324605 0.750000
O O6 0.106751 0.392579 0.530930
O O7 0.109647 0.283881 0.492627
O O8 0.203808 0.333162 0.559924
O O9 0.423849 0.956123 0.750000
O O10 0.500000 0.929957 0.952370
O O11 0.412778 0.000000 0.000000
O O12 0.609699 0.267104 0.750000
O O13 0.689364 0.295288 0.943502
O O14 0.578877 0.319900 0.979191
O O15 0.424460 0.651548 0.750000
O O16 0.500000 0.609455 0.562622
O O17 0.220262 0.129754 0.250000
#
# Coordination Sequence:
#
# PCOD8258564 Si02
#       6
#    16  16  16  16  16  16
#     4  10  20  34  53  76 103 136 173 214 261 310
#     4  10  20  34  54  78 103 135 173 208 248 304
#     4   9  19  36  55  74  98 128 162 203 250 296
#     4  10  20  33  51  77 107 136 168 210 258 303
#     4   9  19  36  55  74 100 137 177 214 256 307
#     4   9  19  35  52  73 104 138 172 212 255 300
#
# _framework density 18.710089
#
# number of rings (size 3 to 8) (size 9 to 14) (size 15 to 20)
#    0.000    2.500    0.000    1.500    0.000    4.667 
#    0.000    3.333    0.000    0.000    0.000    0.000 
#    0.000    0.000    0.000    0.000    0.000    0.000 
#
# Total GULP energy -595289.094945 kJ/mol
# GULP energy per Si atom -12401.856145 kJ/mol
# Density = 1.866750 g / cm^3
# Si number density = 18.710089 Si / 1000 Ang^3
#
#
#
# Elastic Constant Matrix: (Units=GPa)
#
#
# Indices 1 2 3 4 5 6 
#
# 1 23.9071 -4.9325 4.6278 0.0000 0.0000 0.0000
# 2 -4.9325 98.3618 49.9464 0.0000 0.0000 0.0000
# 3 4.6278 49.9464 83.1906 0.0000 0.0000 0.0000
# 4 0.0000 0.0000 0.0000 34.8046 0.0000 0.0000
# 5 0.0000 0.0000 0.0000 0.0000 24.5144 0.0000
# 6 0.0000 0.0000 0.0000 0.0000 0.0000 15.1868
#
#
#
# Elastic Compliance Matrix: (Units=1/GPa)
#
#
# Indices 1 2 3 4 5 6 
#
# 1 0.043898 0.004951 -0.005414 0.000000 0.000000 0.000000
# 2 0.004951 0.015184 -0.009391 0.000000 0.000000 0.000000
# 3 -0.005414 -0.009391 0.017960 0.000000 0.000000 0.000000
# 4 0.000000 0.000000 0.000000 0.028732 0.000000 0.000000
# 5 0.000000 0.000000 0.000000 0.000000 0.040792 0.000000
# 6 0.000000 0.000000 0.000000 0.000000 0.000000 0.065847
#
#
# Mechanical properties :
#
#
# Convention : Reuss Voigt Hill
#
# Bulk Modulus (GPa) = 17.44233 33.86031 25.65132
# Shear Modulus (GPa) = 19.90183 25.28903 22.59543
#
# Velocity S-wave (km/s) = 3.26497 3.68043 3.47891
# Velocity P-wave (km/s) = 4.85346 6.01643 5.46596
#
# Compressibility (1/GPa) = 0.05733179
#
# Stress axis : x y z
#
# Youngs Moduli (GPa) = 22.78005 65.86067 55.67867
#
# Poissons Ratio (x) = -0.32605 0.30146
# Poissons Ratio (y) = -0.11277 0.52290
# Poissons Ratio (z) = 0.12334 0.61852
#
# Static dielectric constant tensor:
#      x y z
#    x 3.377220 0.000000 0.000000 
#    y 0.000000 3.299330 0.000000 
#    z 0.000000 0.000000 3.478400 
# 
# 
# High freq. dielectric constant tensor:
#      x y z
#    x 1.720920 0.000000 0.000000 
#    y 0.000000 1.721940 0.000000 
#    z 0.000000 0.000000 1.729950 
# 
# From -- ./inp_files/10412.got.cif
#   From: 2010.03.12/outbox.cif.g09.slc.cpg/sg63_6_cif.got.tgz:10412.got - 2010.04.10 19:34:48.
