data_PCOD8258330
_publ_section_title
;
Structure prediction by ZEFSAII (Michael W. Deem and Ramdas Pophale) SiO2 
 PCOD8258330
Probable space group: C M C M
;
_chemical_formula_sum "Si O2"
_cell_formula_units_Z 96
_cell_length_a 19.389398
_cell_length_b 24.914977
_cell_length_c 10.360386
_cell_angle_alpha 90.000000
_cell_angle_beta 90.000000
_cell_angle_gamma 90.000000
_cell_volume 5004.961629
_symmetry_space_group_name_H-M "C M C M"
_symmetry_group_IT_number 63
_symmetry_cell_setting 'orthorhombic'
loop_
_space_group_symop_operation_xyz
x,y,z
-x,-y,1/2+z
x,-y,-z
-x,y,1/2-z
-x,-y,-z
x,y,1/2-z
-x,y,z
x,-y,1/2+z
1/2+x,1/2+y,z
1/2-x,1/2-y,1/2+z
1/2+x,1/2-y,-z
1/2-x,1/2+y,1/2-z
1/2-x,1/2-y,-z
1/2+x,1/2+y,1/2-z
1/2-x,1/2+y,z
1/2+x,1/2-y,1/2+z
loop_
_atom_site_type_symbol
_atom_site_label
_atom_site_fract_x
_atom_site_fract_y
_atom_site_fract_z
Si Si1 0.922495 0.757601 0.991969
Si Si2 0.285640 0.281332 0.887314
Si Si3 0.825624 0.453662 0.901216
Si Si4 0.921475 0.128592 0.895220
Si Si5 0.423606 0.142160 0.401641
Si Si6 0.185299 0.900258 0.604713
O O1 0.915494 0.806915 0.092501
O O2 0.900734 0.701857 0.058055
O O3 0.000000 0.755103 0.934721
O O4 0.867646 0.768981 0.879516
O O5 0.253510 0.263594 0.750000
O O6 0.274030 0.344215 0.908079
O O7 0.250000 0.250000 0.000000
O O8 0.841578 0.467751 0.750000
O O9 0.868791 0.401830 0.948941
O O10 0.743756 0.444704 0.919451
O O11 0.848597 0.500000 0.000000
O O12 0.898015 0.113285 0.750000
O O13 0.000000 0.110282 0.919814
O O14 0.874880 0.095940 0.997989
O O15 0.426675 0.141533 0.250000
O O16 0.500000 0.128867 0.457908
O O17 0.153960 0.906034 0.750000
#
# Coordination Sequence:
#
# PCOD8258330 Si02
#       6
#    16  16  16  16  16  16
#     4   9  17  30  49  74 106 141 172 200 235 285
#     4  10  20  32  48  72 102 135 168 203 244 292
#     4  10  21  37  55  74  96 125 168 219 265 306
#     4   9  17  29  49  80 112 137 164 199 237 283
#     4   9  17  31  52  75 101 136 173 206 245 298
#     4   9  19  34  50  70  98 133 169 203 245 301
#
# _framework density 19.180966000000002
#
# number of rings (size 3 to 8) (size 9 to 14) (size 15 to 20)
#    0.000    2.667    0.000    1.500    0.000    8.333 
#    0.000    5.833    0.000    1.500    0.000    0.000 
#    0.000    0.000    0.000    0.000    0.000    0.000 
#
# Total GULP energy -594811.509427 kJ/mol
# GULP energy per Si atom -12391.906446 kJ/mol
# Density = 1.913731 g / cm^3
# Si number density = 19.180966 Si / 1000 Ang^3
#
#
#
# Elastic Constant Matrix: (Units=GPa)
#
#
# Indices 1 2 3 4 5 6 
#
# 1 52.2806 18.2818 29.4507 0.0000 0.0000 0.0000
# 2 18.2818 41.1051 5.8725 0.0000 0.0000 0.0000
# 3 29.4507 5.8725 87.4258 0.0000 0.0000 0.0000
# 4 0.0000 0.0000 0.0000 17.2358 0.0000 0.0000
# 5 0.0000 0.0000 0.0000 0.0000 27.8910 0.0000
# 6 0.0000 0.0000 0.0000 0.0000 0.0000 24.0687
#
#
#
# Elastic Compliance Matrix: (Units=1/GPa)
#
#
# Indices 1 2 3 4 5 6 
#
# 1 0.027909 -0.011177 -0.008651 0.000000 0.000000 0.000000
# 2 -0.011177 0.029040 0.001814 0.000000 0.000000 0.000000
# 3 -0.008651 0.001814 0.014231 0.000000 0.000000 0.000000
# 4 0.000000 0.000000 0.000000 0.058019 0.000000 0.000000
# 5 0.000000 0.000000 0.000000 0.000000 0.035854 0.000000
# 6 0.000000 0.000000 0.000000 0.000000 0.000000 0.041548
#
#
# Mechanical properties :
#
#
# Convention : Reuss Voigt Hill
#
# Bulk Modulus (GPa) = 28.44722 32.00239 30.22481
# Shear Modulus (GPa) = 19.65843 22.31953 20.98898
#
# Velocity S-wave (km/s) = 3.20487 3.41490 3.31155
# Velocity P-wave (km/s) = 5.34397 5.68062 5.51487
#
# Compressibility (1/GPa) = 0.03515282
#
# Stress axis : x y z
#
# Youngs Moduli (GPa) = 35.83056 34.43573 70.27137
#
# Poissons Ratio (x) = 0.38488 0.60791
# Poissons Ratio (y) = 0.40047 -0.12750
# Poissons Ratio (z) = 0.30996 -0.06248
#
# Static dielectric constant tensor:
#      x y z
#    x 3.842780 0.000000 0.000000 
#    y 0.000000 3.402620 0.000000 
#    z 0.000000 0.000000 3.371160 
# 
# 
# High freq. dielectric constant tensor:
#      x y z
#    x 1.753590 0.000000 0.000000 
#    y 0.000000 1.719500 0.000000 
#    z 0.000000 0.000000 1.731300 
# 
# From -- ./inp_files/21330.got.cif
#   From: 2010.03.12/outbox.cif.g09.slc.cpg/sg63_11_cif.got.tgz:21330.got - 2010.04.10 19:34:48.
