data_PCOD8258856
_publ_section_title
;
Structure prediction by ZEFSAII (Michael W. Deem and Ramdas Pophale) SiO2 
 PCOD8258856
Probable space group: C M C M
;
_chemical_formula_sum "Si O2"
_cell_formula_units_Z 72
_cell_length_a 16.163255
_cell_length_b 12.624801
_cell_length_c 17.756086
_cell_angle_alpha 90.000000
_cell_angle_beta 90.000000
_cell_angle_gamma 90.000000
_cell_volume 3623.269229
_symmetry_space_group_name_H-M "C M C M"
_symmetry_group_IT_number 63
_symmetry_cell_setting 'orthorhombic'
loop_
_space_group_symop_operation_xyz
x,y,z
-x,-y,1/2+z
x,-y,-z
-x,y,1/2-z
-x,-y,-z
x,y,1/2-z
-x,y,z
x,-y,1/2+z
1/2+x,1/2+y,z
1/2-x,1/2-y,1/2+z
1/2+x,1/2-y,-z
1/2-x,1/2+y,1/2-z
1/2-x,1/2-y,-z
1/2+x,1/2+y,1/2-z
1/2-x,1/2+y,z
1/2+x,1/2-y,1/2+z
loop_
_atom_site_type_symbol
_atom_site_label
_atom_site_fract_x
_atom_site_fract_y
_atom_site_fract_z
Si Si1 0.405252 0.203111 0.987563
Si Si2 0.091318 0.030447 0.336055
Si Si3 0.183315 0.500000 0.500000
Si Si4 0.691807 0.638695 0.586399
Si Si5 0.668176 0.750056 0.163337
O O1 0.500000 0.226488 0.008022
O O2 0.392806 0.192358 0.896820
O O3 0.376691 0.094632 0.028932
O O4 0.344973 0.297180 0.015586
O O5 0.086996 0.998849 0.250000
O O6 0.115848 0.922585 0.377137
O O7 0.000000 0.066239 0.364926
O O8 0.156876 0.124373 0.348943
O O9 0.241503 0.449947 0.436344
O O10 0.736748 0.718594 0.645049
O O11 0.645732 0.781512 0.250000
#
# Coordination Sequence:
#
# PCOD8258856 Si02
#       5
#    16  16   8  16  16
#     4  11  22  36  57  83 111 142 178 225 274 319
#     4  10  20  34  53  79 111 143 177 223 273 316
#     4  10  21  36  53  76 106 138 174 218 271 320
#     4  11  20  36  57  82 106 141 184 224 265 322
#     4  10  21  36  55  80 110 144 182 221 265 321
#
# _framework density 19.871556999999999
#
# number of rings (size 3 to 8) (size 9 to 14) (size 15 to 20)
#    0.000    1.556    0.000    7.667    0.000    1.333 
#    0.000    3.333    0.000    1.333    0.000    0.000 
#    0.000    0.000    0.000    0.000    0.000    0.000 
#
# Total GULP energy -446148.174014 kJ/mol
# GULP energy per Si atom -12393.004834 kJ/mol
# Density = 1.982633 g / cm^3
# Si number density = 19.871557 Si / 1000 Ang^3
#
#
#
# Elastic Constant Matrix: (Units=GPa)
#
#
# Indices 1 2 3 4 5 6 
#
# 1 107.9687 52.1206 50.2411 0.0000 0.0000 0.0000
# 2 52.1206 107.7550 55.0424 0.0000 0.0000 0.0000
# 3 50.2411 55.0424 88.9359 0.0000 0.0000 0.0000
# 4 0.0000 0.0000 0.0000 23.6875 0.0000 0.0000
# 5 0.0000 0.0000 0.0000 0.0000 19.2530 0.0000
# 6 0.0000 0.0000 0.0000 0.0000 0.0000 34.2434
#
#
#
# Elastic Compliance Matrix: (Units=1/GPa)
#
#
# Indices 1 2 3 4 5 6 
#
# 1 0.013589 -0.003878 -0.005277 0.000000 0.000000 0.000000
# 2 -0.003878 0.014677 -0.006893 0.000000 0.000000 0.000000
# 3 -0.005277 -0.006893 0.018491 0.000000 0.000000 0.000000
# 4 0.000000 0.000000 0.000000 0.042216 0.000000 0.000000
# 5 0.000000 0.000000 0.000000 0.000000 0.051940 0.000000
# 6 0.000000 0.000000 0.000000 0.000000 0.000000 0.029203
#
#
# Mechanical properties :
#
#
# Convention : Reuss Voigt Hill
#
# Bulk Modulus (GPa) = 68.20226 68.82973 68.51600
# Shear Modulus (GPa) = 24.14302 25.25380 24.69841
#
# Velocity S-wave (km/s) = 3.48940 3.56877 3.52931
# Velocity P-wave (km/s) = 7.11552 7.18985 7.15278
#
# Compressibility (1/GPa) = 0.01466227
#
# Stress axis : x y z
#
# Youngs Moduli (GPa) = 73.58718 68.13424 54.07980
#
# Poissons Ratio (x) = 0.26419 0.28538
# Poissons Ratio (y) = 0.28534 0.37277
# Poissons Ratio (z) = 0.38832 0.46965
#
# Static dielectric constant tensor:
#      x y z
#    x 3.746130 0.000000 0.000000 
#    y 0.000000 3.756860 0.000000 
#    z 0.000000 0.000000 3.478360 
# 
# 
# High freq. dielectric constant tensor:
#      x y z
#    x 1.776090 0.000000 0.000000 
#    y 0.000000 1.776750 0.000000 
#    z 0.000000 0.000000 1.758870 
# 
# From -- ./inp_files/45219.got.cif
#   From: 2010.03.12/outbox.cif.g09.slc.cpg/sg63_23_cif.got.tgz:45219.got - 2010.04.10 19:34:48.
