data_PCOD8258759
_publ_section_title
;
Structure prediction by ZEFSAII (Michael W. Deem and Ramdas Pophale) SiO2 
 PCOD8258759
Probable space group: C M C M
;
_chemical_formula_sum "Si O2"
_cell_formula_units_Z 96
_cell_length_a 20.086887
_cell_length_b 27.815966
_cell_length_c 9.085360
_cell_angle_alpha 90.000000
_cell_angle_beta 90.000000
_cell_angle_gamma 90.000000
_cell_volume 5076.319212
_symmetry_space_group_name_H-M "C M C M"
_symmetry_group_IT_number 63
_symmetry_cell_setting 'orthorhombic'
loop_
_space_group_symop_operation_xyz
x,y,z
-x,-y,1/2+z
x,-y,-z
-x,y,1/2-z
-x,-y,-z
x,y,1/2-z
-x,y,z
x,-y,1/2+z
1/2+x,1/2+y,z
1/2-x,1/2-y,1/2+z
1/2+x,1/2-y,-z
1/2-x,1/2+y,1/2-z
1/2-x,1/2-y,-z
1/2+x,1/2+y,1/2-z
1/2-x,1/2+y,z
1/2+x,1/2-y,1/2+z
loop_
_atom_site_type_symbol
_atom_site_label
_atom_site_fract_x
_atom_site_fract_y
_atom_site_fract_z
Si Si1 0.922631 0.048575 0.421281
Si Si2 0.811649 0.775179 0.422824
Si Si3 0.073242 0.389871 0.425090
Si Si4 0.577131 0.218532 0.919231
Si Si5 0.303647 0.950019 0.422726
Si Si6 0.177550 0.113930 0.579313
O O1 0.907290 0.042721 0.250000
O O2 0.883606 0.094111 0.484400
O O3 0.000000 0.057775 0.453050
O O4 0.897694 0.000000 0.500000
O O5 0.805674 0.766651 0.250000
O O6 0.750000 0.750000 0.500000
O O7 0.881041 0.754063 0.479592
O O8 0.810066 0.831154 0.463268
O O9 0.073621 0.389660 0.250000
O O10 0.089449 0.335723 0.476800
O O11 0.128337 0.426621 0.486470
O O12 0.000000 0.405675 0.482988
O O13 0.600377 0.223590 0.750000
O O14 0.500000 0.232617 0.935117
O O15 0.309498 0.958971 0.250000
O O16 0.244148 0.914395 0.462301
O O17 0.289639 0.000000 0.500000
O O18 0.159155 0.107929 0.750000
#
# Coordination Sequence:
#
# PCOD8258759 Si02
#       6
#    16  16  16  16  16  16
#     4  10  21  37  58  83 110 141 178 221 269 323
#     4  11  23  38  57  81 110 144 184 230 279 330
#     4   8  15  31  55  78 103 140 178 208 247 308
#     4   9  18  35  59  83 108 142 182 220 264 324
#     4  10  20  34  52  75 103 134 173 217 259 305
#     4  10  22  38  55  76 105 143 183 223 267 322
#
# _framework density 18.911341
#
# number of rings (size 3 to 8) (size 9 to 14) (size 15 to 20)
#    0.000    2.333    0.000    3.500    0.000    8.333 
#    0.000    5.833    0.000    1.000    0.000    0.000 
#    0.000    0.000    0.000    0.000    0.000    0.000 
#
# Total GULP energy -595316.821768 kJ/mol
# GULP energy per Si atom -12402.433787 kJ/mol
# Density = 1.886830 g / cm^3
# Si number density = 18.911341 Si / 1000 Ang^3
#
#
#
# Elastic Constant Matrix: (Units=GPa)
#
#
# Indices 1 2 3 4 5 6 
#
# 1 98.0360 63.5638 50.6595 0.0000 0.0000 0.0000
# 2 63.5638 130.2189 59.7575 0.0000 0.0000 0.0000
# 3 50.6595 59.7575 70.5032 0.0000 0.0000 0.0000
# 4 0.0000 0.0000 0.0000 29.1693 0.0000 0.0000
# 5 0.0000 0.0000 0.0000 0.0000 24.6269 0.0000
# 6 0.0000 0.0000 0.0000 0.0000 0.0000 36.8312
#
#
#
# Elastic Compliance Matrix: (Units=1/GPa)
#
#
# Indices 1 2 3 4 5 6 
#
# 1 0.017766 -0.004605 -0.008862 0.000000 0.000000 0.000000
# 2 -0.004605 0.013761 -0.008355 0.000000 0.000000 0.000000
# 3 -0.008862 -0.008355 0.027633 0.000000 0.000000 0.000000
# 4 0.000000 0.000000 0.000000 0.034283 0.000000 0.000000
# 5 0.000000 0.000000 0.000000 0.000000 0.040606 0.000000
# 6 0.000000 0.000000 0.000000 0.000000 0.000000 0.027151
#
#
# Mechanical properties :
#
#
# Convention : Reuss Voigt Hill
#
# Bulk Modulus (GPa) = 64.45085 71.85774 68.15430
# Shear Modulus (GPa) = 23.80771 26.44395 25.12583
#
# Velocity S-wave (km/s) = 3.55196 3.74346 3.64897
# Velocity P-wave (km/s) = 7.13978 7.53421 7.33964
#
# Compressibility (1/GPa) = 0.01551570
#
# Stress axis : x y z
#
# Youngs Moduli (GPa) = 56.28852 72.66709 36.18843
#
# Poissons Ratio (x) = 0.33464 0.32071
# Poissons Ratio (y) = 0.25921 0.30235
# Poissons Ratio (z) = 0.49884 0.60713
#
# Static dielectric constant tensor:
#      x y z
#    x 3.691370 0.000000 0.000000 
#    y 0.000000 3.506760 0.000000 
#    z 0.000000 0.000000 3.271860 
# 
# 
# High freq. dielectric constant tensor:
#      x y z
#    x 1.748970 0.000000 0.000000 
#    y 0.000000 1.738080 0.000000 
#    z 0.000000 0.000000 1.714940 
# 
# From -- ./inp_files/8626.got.cif
#   From: 2010.03.12/outbox.cif.g09.slc.cpg/sg63_5_cif.got.tgz:8626.got - 2010.04.10 19:34:48.
