data_PCOD8258031
_publ_section_title
;
Structure prediction by ZEFSAII (Michael W. Deem and Ramdas Pophale) SiO2 
 PCOD8258031
Probable space group: C M C M
;
_chemical_formula_sum "Si O2"
_cell_formula_units_Z 80
_cell_length_a 11.645710
_cell_length_b 23.886768
_cell_length_c 14.472339
_cell_angle_alpha 90.000000
_cell_angle_beta 90.000000
_cell_angle_gamma 90.000000
_cell_volume 4025.891716
_symmetry_space_group_name_H-M "C M C M"
_symmetry_group_IT_number 63
_symmetry_cell_setting 'orthorhombic'
loop_
_space_group_symop_operation_xyz
x,y,z
-x,-y,1/2+z
x,-y,-z
-x,y,1/2-z
-x,-y,-z
x,y,1/2-z
-x,y,z
x,-y,1/2+z
1/2+x,1/2+y,z
1/2-x,1/2-y,1/2+z
1/2+x,1/2-y,-z
1/2-x,1/2+y,1/2-z
1/2-x,1/2-y,-z
1/2+x,1/2+y,1/2-z
1/2-x,1/2+y,z
1/2+x,1/2-y,1/2+z
loop_
_atom_site_type_symbol
_atom_site_label
_atom_site_fract_x
_atom_site_fract_y
_atom_site_fract_z
Si Si1 0.751384 0.637758 0.858785
Si Si2 0.865305 0.564743 0.495450
Si Si3 0.500000 0.217569 0.359364
Si Si4 0.127274 0.249866 0.140371
Si Si5 0.500000 0.659200 0.859306
Si Si6 0.280331 0.149614 0.358481
O O1 0.769524 0.630366 0.750000
O O2 0.831958 0.592091 0.906831
O O3 0.789284 0.699962 0.892611
O O4 0.617780 0.627751 0.888173
O O5 0.833063 0.500000 0.500000
O O6 0.785821 0.591726 0.414914
O O7 0.000000 0.573327 0.474501
O O8 0.500000 0.222704 0.250000
O O9 0.500000 0.279039 0.404586
O O10 0.389037 0.184811 0.392789
O O11 0.123209 0.252184 0.250000
O O12 0.172295 0.188060 0.112109
O O13 0.000000 0.258272 0.098109
O O14 0.500000 0.666801 0.750000
O O15 0.281457 0.135322 0.250000
#
# Coordination Sequence:
#
# PCOD8258031 Si02
#       6
#    16  16   8  16   8  16
#     4  10  20  37  60  85 116 149 181 225 280 333
#     4  11  25  41  56  80 110 145 196 242 274 322
#     4   9  14  28  55  84 109 141 180 222 273 329
#     4   9  17  31  55  88 120 146 175 219 280 343
#     4   9  16  32  59  88 115 145 182 222 271 337
#     4  10  19  35  59  83 113 148 181 225 280 333
#
# _framework density 19.871372999999998
#
# number of rings (size 3 to 8) (size 9 to 14) (size 15 to 20)
#    0.000    2.200    3.000    0.600    0.000    2.800 
#    1.800    2.500    0.000    0.000    0.000    0.000 
#    0.000    0.000    0.000    0.000    0.000    0.000 
#
# Total GULP energy -495840.128547 kJ/mol
# GULP energy per Si atom -12396.003214 kJ/mol
# Density = 1.982614 g / cm^3
# Si number density = 19.871373 Si / 1000 Ang^3
#
#
#
# Elastic Constant Matrix: (Units=GPa)
#
#
# Indices 1 2 3 4 5 6 
#
# 1 110.2285 43.3958 21.8365 0.0000 0.0000 0.0000
# 2 43.3958 131.6401 42.2932 0.0000 0.0000 0.0000
# 3 21.8365 42.2932 60.7643 0.0000 0.0000 0.0000
# 4 0.0000 0.0000 0.0000 27.0297 0.0000 0.0000
# 5 0.0000 0.0000 0.0000 0.0000 21.3039 0.0000
# 6 0.0000 0.0000 0.0000 0.0000 0.0000 25.7494
#
#
#
# Elastic Compliance Matrix: (Units=1/GPa)
#
#
# Indices 1 2 3 4 5 6 
#
# 1 0.010571 -0.002916 -0.001769 0.000000 0.000000 0.000000
# 2 -0.002916 0.010589 -0.006322 0.000000 0.000000 0.000000
# 3 -0.001769 -0.006322 0.021493 0.000000 0.000000 0.000000
# 4 0.000000 0.000000 0.000000 0.036996 0.000000 0.000000
# 5 0.000000 0.000000 0.000000 0.000000 0.046940 0.000000
# 6 0.000000 0.000000 0.000000 0.000000 0.000000 0.038836
#
#
# Mechanical properties :
#
#
# Convention : Reuss Voigt Hill
#
# Bulk Modulus (GPa) = 48.45441 57.52045 52.98743
# Shear Modulus (GPa) = 25.73089 27.82373 26.77731
#
# Velocity S-wave (km/s) = 3.60234 3.74597 3.67486
# Velocity P-wave (km/s) = 6.46060 6.90789 6.68799
#
# Compressibility (1/GPa) = 0.02063796
#
# Stress axis : x y z
#
# Youngs Moduli (GPa) = 94.60178 94.43721 46.52666
#
# Poissons Ratio (x) = 0.27541 0.08230
# Poissons Ratio (y) = 0.27589 0.29415
# Poissons Ratio (z) = 0.16734 0.59705
#
# Static dielectric constant tensor:
#      x y z
#    x 4.017710 0.000000 0.000000 
#    y 0.000000 3.409730 0.000000 
#    z 0.000000 0.000000 3.402470 
# 
# 
# High freq. dielectric constant tensor:
#      x y z
#    x 1.778570 0.000000 0.000000 
#    y 0.000000 1.743400 0.000000 
#    z 0.000000 0.000000 1.766840 
# 
# From -- ./inp_files/29764.got.cif
#   From: 2010.03.12/outbox.cif.g09.slc.cpg/sg63_15_cif.got.tgz:29764.got - 2010.04.10 19:34:48.
