data_PCOD8258464
_publ_section_title
;
Structure prediction by ZEFSAII (Michael W. Deem and Ramdas Pophale) SiO2 
 PCOD8258464
Probable space group: C M C M
;
_chemical_formula_sum "Si O2"
_cell_formula_units_Z 96
_cell_length_a 19.067516
_cell_length_b 31.043012
_cell_length_c 9.089210
_cell_angle_alpha 90.000000
_cell_angle_beta 90.000000
_cell_angle_gamma 90.000000
_cell_volume 5380.022722
_symmetry_space_group_name_H-M "C M C M"
_symmetry_group_IT_number 63
_symmetry_cell_setting 'orthorhombic'
loop_
_space_group_symop_operation_xyz
x,y,z
-x,-y,1/2+z
x,-y,-z
-x,y,1/2-z
-x,-y,-z
x,y,1/2-z
-x,y,z
x,-y,1/2+z
1/2+x,1/2+y,z
1/2-x,1/2-y,1/2+z
1/2+x,1/2-y,-z
1/2-x,1/2+y,1/2-z
1/2-x,1/2-y,-z
1/2+x,1/2+y,1/2-z
1/2-x,1/2+y,z
1/2+x,1/2-y,1/2+z
loop_
_atom_site_type_symbol
_atom_site_label
_atom_site_fract_x
_atom_site_fract_y
_atom_site_fract_z
Si Si1 0.416613 0.713302 0.913796
Si Si2 0.160672 0.456066 0.422779
Si Si3 0.416489 0.204715 0.585120
Si Si4 0.083181 0.620163 0.417995
Si Si5 0.822272 0.956487 0.422207
Si Si6 0.921685 0.118710 0.574612
O O1 0.385395 0.719946 0.750000
O O2 0.500000 0.716221 0.905095
O O3 0.395988 0.666162 0.978111
O O4 0.386277 0.750756 0.018376
O O5 0.136377 0.500000 0.500000
O O6 0.146833 0.460391 0.250000
O O7 0.114545 0.417983 0.486444
O O8 0.241677 0.446309 0.458762
O O9 0.386826 0.199225 0.750000
O O10 0.500000 0.206005 0.586919
O O11 0.389941 0.165129 0.485915
O O12 0.109315 0.617187 0.250000
O O13 0.000000 0.616838 0.427393
O O14 0.834692 0.962598 0.250000
O O15 0.868437 0.917215 0.486241
O O16 0.847639 0.000000 0.500000
O O17 0.922719 0.119046 0.750000
O O18 0.000000 0.108654 0.514847
#
# Coordination Sequence:
#
# PCOD8258464 Si02
#       6
#    16  16  16  16  16  16
#     4   8  13  23  41  64  90 122 157 189 223 267
#     4  10  20  34  51  69  92 123 157 192 231 278
#     4   9  16  26  42  66  96 125 150 182 227 275
#     4  10  20  33  50  72  95 119 151 191 232 275
#     4   9  18  32  49  69  93 124 160 194 231 277
#     4   8  14  26  46  71  97 125 158 195 233 272
#
# _framework density 17.843791
#
# number of rings (size 3 to 8) (size 9 to 14) (size 15 to 20)
#    0.000    3.000    0.000    2.500    0.000    4.333 
#    0.000    0.833    0.000    2.000    0.000    0.000 
#    0.000    0.000    0.000    0.000    0.000    0.000 
#
# Total GULP energy -595066.509718 kJ/mol
# GULP energy per Si atom -12397.218952 kJ/mol
# Density = 1.780318 g / cm^3
# Si number density = 17.843791 Si / 1000 Ang^3
#
#
#
# Elastic Constant Matrix: (Units=GPa)
#
#
# Indices 1 2 3 4 5 6 
#
# 1 26.0817 39.2741 22.5831 0.0000 0.0000 0.0000
# 2 39.2741 164.3535 60.5996 0.0000 0.0000 0.0000
# 3 22.5831 60.5996 87.5732 0.0000 0.0000 0.0000
# 4 0.0000 0.0000 0.0000 32.4113 0.0000 0.0000
# 5 0.0000 0.0000 0.0000 0.0000 12.7402 0.0000
# 6 0.0000 0.0000 0.0000 0.0000 0.0000 -0.9954
#
#
#
# Elastic Compliance Matrix: (Units=1/GPa)
#
#
# Indices 1 2 3 4 5 6 
#
# 1 0.063733 -0.012311 -0.007916 0.000000 0.000000 0.000000
# 2 -0.012311 0.010547 -0.004123 0.000000 0.000000 0.000000
# 3 -0.007916 -0.004123 0.016314 0.000000 0.000000 0.000000
# 4 0.000000 0.000000 0.000000 0.030853 0.000000 0.000000
# 5 0.000000 0.000000 0.000000 0.000000 0.078492 0.000000
# 6 0.000000 0.000000 0.000000 0.000000 0.000000 -1.004626
#
#
# Mechanical properties :
#
#
# Convention : Reuss Voigt Hill
#
# Bulk Modulus (GPa) = 23.87070 58.10245 40.98658
# Shear Modulus (GPa) = -6.73835 19.20134 6.23149
#
# Velocity S-wave (km/s) = -1.94538 3.28392 1.87078
# Velocity P-wave (km/s) = 2.89148 6.85648 5.26175
#
# Compressibility (1/GPa) = 0.04189237
#
# Stress axis : x y z
#
# Youngs Moduli (GPa) = 15.69037 94.81683 61.29761
#
# Poissons Ratio (x) = 1.16728 0.48526
# Poissons Ratio (y) = 0.19316 0.25276
# Poissons Ratio (z) = 0.12421 0.39097
#
# Static dielectric constant tensor:
#      x y z
#    x 2.984380 0.000000 0.000000 
#    y 0.000000 3.650000 0.000000 
#    z 0.000000 0.000000 3.320530 
# 
# 
# High freq. dielectric constant tensor:
#      x y z
#    x 1.643430 0.000000 0.000000 
#    y 0.000000 1.707880 0.000000 
#    z 0.000000 0.000000 1.680940 
# 
# From -- ./inp_files/8633.got.cif
#   From: 2010.03.12/outbox.cif.g09.slc.cpg/sg63_5_cif.got.tgz:8633.got - 2010.04.10 19:34:48.
