data_PCOD8258644
_publ_section_title
;
Structure prediction by ZEFSAII (Michael W. Deem and Ramdas Pophale) SiO2 
 PCOD8258644
Probable space group: C M C M
;
_chemical_formula_sum "Si O2"
_cell_formula_units_Z 80
_cell_length_a 8.749297
_cell_length_b 29.364587
_cell_length_c 16.002095
_cell_angle_alpha 90.000000
_cell_angle_beta 90.000000
_cell_angle_gamma 90.000000
_cell_volume 4111.250133
_symmetry_space_group_name_H-M "C M C M"
_symmetry_group_IT_number 63
_symmetry_cell_setting 'orthorhombic'
loop_
_space_group_symop_operation_xyz
x,y,z
-x,-y,1/2+z
x,-y,-z
-x,y,1/2-z
-x,-y,-z
x,y,1/2-z
-x,y,z
x,-y,1/2+z
1/2+x,1/2+y,z
1/2-x,1/2-y,1/2+z
1/2+x,1/2-y,-z
1/2-x,1/2+y,1/2-z
1/2-x,1/2-y,-z
1/2+x,1/2+y,1/2-z
1/2-x,1/2+y,z
1/2+x,1/2-y,1/2+z
loop_
_atom_site_type_symbol
_atom_site_label
_atom_site_fract_x
_atom_site_fract_y
_atom_site_fract_z
Si Si1 0.817982 0.712055 0.250000
Si Si2 0.681365 0.053680 0.916273
Si Si3 0.177816 0.647379 0.654346
Si Si4 0.818162 0.546044 0.102831
Si Si5 0.317373 0.108722 0.250000
Si Si6 0.320077 0.265884 0.086674
O O1 0.755268 0.660320 0.250000
O O2 0.756389 0.736794 0.165877
O O3 0.000000 0.713384 0.250000
O O4 0.500000 0.052214 0.917019
O O5 0.739498 0.096241 0.861894
O O6 0.739759 0.005658 0.877638
O O7 0.740660 0.060067 0.011093
O O8 0.206557 0.659824 0.750000
O O9 0.274499 0.681633 0.598029
O O10 0.000000 0.651487 0.629908
O O11 0.751813 0.582005 0.169295
O O12 0.000000 0.547239 0.106943
O O13 0.500000 0.109143 0.250000
O O14 0.500000 0.260703 0.080663
O O15 0.250000 0.250000 0.000000
#
# Coordination Sequence:
#
# PCOD8258644 Si02
#       6
#     8  16  16  16   8  16
#     4   9  20  36  52  75 109 141 175 223 276 327
#     4   8  15  26  41  67 104 139 168 209 260 312
#     4  10  20  33  53  80 110 142 178 220 269 324
#     4   8  14  24  39  64 100 136 170 208 257 313
#     4   9  16  24  41  65  95 135 169 203 258 319
#     4  11  23  40  59  80 108 143 184 230 278 328
#
# _framework density 19.458801999999999
#
# number of rings (size 3 to 8) (size 9 to 14) (size 15 to 20)
#    0.000    2.800    1.000    1.800    4.200    0.000 
#    0.000    0.000    0.000    0.000    0.000    2.800 
#    0.000    0.000    0.000    0.000    0.000    0.000 
#
# Total GULP energy -495783.940059 kJ/mol
# GULP energy per Si atom -12394.598501 kJ/mol
# Density = 1.941451 g / cm^3
# Si number density = 19.458802 Si / 1000 Ang^3
#
#
#
# Elastic Constant Matrix: (Units=GPa)
#
#
# Indices 1 2 3 4 5 6 
#
# 1 24.0988 19.9112 24.0208 0.0000 0.0000 0.0000
# 2 19.9112 144.8171 61.6200 0.0000 0.0000 0.0000
# 3 24.0208 61.6200 114.0097 0.0000 0.0000 0.0000
# 4 0.0000 0.0000 0.0000 41.1421 0.0000 0.0000
# 5 0.0000 0.0000 0.0000 0.0000 16.6284 0.0000
# 6 0.0000 0.0000 0.0000 0.0000 0.0000 17.7717
#
#
#
# Elastic Compliance Matrix: (Units=1/GPa)
#
#
# Indices 1 2 3 4 5 6 
#
# 1 0.053742 -0.003339 -0.009518 0.000000 0.000000 0.000000
# 2 -0.003339 0.009175 -0.004255 0.000000 0.000000 0.000000
# 3 -0.009518 -0.004255 0.013077 0.000000 0.000000 0.000000
# 4 0.000000 0.000000 0.000000 0.024306 0.000000 0.000000
# 5 0.000000 0.000000 0.000000 0.000000 0.060138 0.000000
# 6 0.000000 0.000000 0.000000 0.000000 0.000000 0.056269
#
#
# Mechanical properties :
#
#
# Convention : Reuss Voigt Hill
#
# Bulk Modulus (GPa) = 23.94161 54.89218 39.41689
# Shear Modulus (GPa) = 18.87822 26.93335 22.90578
#
# Velocity S-wave (km/s) = 3.11812 3.72441 3.43467
# Velocity P-wave (km/s) = 5.02932 6.83854 6.00249
#
# Compressibility (1/GPa) = 0.04176829
#
# Stress axis : x y z
#
# Youngs Moduli (GPa) = 18.60733 108.99122 76.47261
#
# Poissons Ratio (x) = 0.36393 0.72789
# Poissons Ratio (y) = 0.06213 0.32542
# Poissons Ratio (z) = 0.17711 0.46380
#
# Static dielectric constant tensor:
#      x y z
#    x 2.859360 0.000000 0.000000 
#    y 0.000000 3.984740 0.000000 
#    z 0.000000 0.000000 3.736460 
# 
# 
# High freq. dielectric constant tensor:
#      x y z
#    x 1.683260 0.000000 0.000000 
#    y 0.000000 1.774930 0.000000 
#    z 0.000000 0.000000 1.764680 
# 
# From -- ./inp_files/40549.got.cif
#   From: 2010.03.12/outbox.cif.g09.slc.cpg/sg63_21_cif.got.tgz:40549.got - 2010.04.10 19:34:48.
