data_PCOD8258716
_publ_section_title
;
Structure prediction by ZEFSAII (Michael W. Deem and Ramdas Pophale) SiO2 
 PCOD8258716
Probable space group: C M C M
;
_chemical_formula_sum "Si O2"
_cell_formula_units_Z 96
_cell_length_a 28.997178
_cell_length_b 20.750594
_cell_length_c 8.981670
_cell_angle_alpha 90.000000
_cell_angle_beta 90.000000
_cell_angle_gamma 90.000000
_cell_volume 5404.348691
_symmetry_space_group_name_H-M "C M C M"
_symmetry_group_IT_number 63
_symmetry_cell_setting 'orthorhombic'
loop_
_space_group_symop_operation_xyz
x,y,z
-x,-y,1/2+z
x,-y,-z
-x,y,1/2-z
-x,-y,-z
x,y,1/2-z
-x,y,z
x,-y,1/2+z
1/2+x,1/2+y,z
1/2-x,1/2-y,1/2+z
1/2+x,1/2-y,-z
1/2-x,1/2+y,1/2-z
1/2-x,1/2-y,-z
1/2+x,1/2+y,1/2-z
1/2-x,1/2+y,z
1/2+x,1/2-y,1/2+z
loop_
_atom_site_type_symbol
_atom_site_label
_atom_site_fract_x
_atom_site_fract_y
_atom_site_fract_z
Si Si1 0.945898 0.296453 0.076956
Si Si2 0.389347 0.562364 0.082877
Si Si3 0.945282 0.560714 0.913992
Si Si4 0.719831 0.440070 0.587534
Si Si5 0.285424 0.298831 0.571010
Si Si6 0.116918 0.194101 0.573070
O O1 0.931554 0.286907 0.250000
O O2 0.932629 0.368798 0.020661
O O3 0.000000 0.284510 0.059088
O O4 0.920420 0.247531 0.968285
O O5 0.410128 0.568303 0.250000
O O6 0.334913 0.553314 0.094681
O O7 0.410951 0.500000 0.000000
O O8 0.401451 0.625817 0.988379
O O9 0.924389 0.556366 0.750000
O O10 0.000000 0.553912 0.909345
O O11 0.923110 0.500000 0.000000
O O12 0.741995 0.500000 0.500000
O O13 0.741848 0.444633 0.750000
O O14 0.731584 0.370048 0.519215
O O15 0.287674 0.293537 0.750000
O O16 0.250000 0.250000 0.500000
O O17 0.335586 0.284926 0.504636
O O18 0.123535 0.189683 0.750000
#
# Coordination Sequence:
#
# PCOD8258716 Si02
#       6
#    16  16  16  16  16  16
#     4   9  18  33  51  71  98 132 166 201 244 292
#     4   9  16  28  46  69  96 125 160 202 244 286
#     4   8  14  25  43  67  93 121 155 196 241 286
#     4   8  15  26  43  67  93 120 153 193 234 278
#     4  10  20  34  51  73 100 130 164 202 245 293
#     4  11  21  32  49  74 102 132 165 202 245 292
#
# _framework density 17.763473999999999
#
# number of rings (size 3 to 8) (size 9 to 14) (size 15 to 20)
#    0.000    2.833    0.000    4.500    0.000    5.667 
#    0.000    1.667    0.000    1.500    0.000    7.000 
#    0.000    0.000    0.000    0.000    0.000    0.000 
#
# Total GULP energy -594819.150248 kJ/mol
# GULP energy per Si atom -12392.065630 kJ/mol
# Density = 1.772304 g / cm^3
# Si number density = 17.763474 Si / 1000 Ang^3
#
#
#
# Elastic Constant Matrix: (Units=GPa)
#
#
# Indices 1 2 3 4 5 6 
#
# 1 32.8784 43.1168 28.6172 0.0000 0.0000 0.0000
# 2 43.1168 161.1761 69.3414 0.0000 0.0000 0.0000
# 3 28.6172 69.3414 112.3383 0.0000 0.0000 0.0000
# 4 0.0000 0.0000 0.0000 37.1694 0.0000 0.0000
# 5 0.0000 0.0000 0.0000 0.0000 20.1595 0.0000
# 6 0.0000 0.0000 0.0000 0.0000 0.0000 23.4970
#
#
#
# Elastic Compliance Matrix: (Units=1/GPa)
#
#
# Indices 1 2 3 4 5 6 
#
# 1 0.049713 -0.010689 -0.006066 0.000000 0.000000 0.000000
# 2 -0.010689 0.010746 -0.003910 0.000000 0.000000 0.000000
# 3 -0.006066 -0.003910 0.012860 0.000000 0.000000 0.000000
# 4 0.000000 0.000000 0.000000 0.026904 0.000000 0.000000
# 5 0.000000 0.000000 0.000000 0.000000 0.049604 0.000000
# 6 0.000000 0.000000 0.000000 0.000000 0.000000 0.042559
#
#
# Mechanical properties :
#
#
# Convention : Reuss Voigt Hill
#
# Bulk Modulus (GPa) = 31.26094 65.39372 48.32733
# Shear Modulus (GPa) = 20.46001 27.18635 23.82318
#
# Velocity S-wave (km/s) = 3.39750 3.91636 3.66612
# Velocity P-wave (km/s) = 5.74694 7.57258 6.72203
#
# Compressibility (1/GPa) = 0.03198880
#
# Stress axis : x y z
#
# Youngs Moduli (GPa) = 20.11566 93.05716 77.75763
#
# Poissons Ratio (x) = 0.99470 0.47167
# Poissons Ratio (y) = 0.21502 0.30404
# Poissons Ratio (z) = 0.12202 0.36387
#
# Static dielectric constant tensor:
#      x y z
#    x 2.707620 0.000000 0.000000 
#    y 0.000000 3.668880 0.000000 
#    z 0.000000 0.000000 3.535020 
# 
# 
# High freq. dielectric constant tensor:
#      x y z
#    x 1.620940 0.000000 0.000000 
#    y 0.000000 1.708610 0.000000 
#    z 0.000000 0.000000 1.691440 
# 
# From -- ./inp_files/12393.got.cif
#   From: 2010.03.12/outbox.cif.g09.slc.cpg/sg63_7_cif.got.tgz:12393.got - 2010.04.10 19:34:48.
