data_PCOD8258001
_publ_section_title
;
Structure prediction by ZEFSAII (Michael W. Deem and Ramdas Pophale) SiO2 
 PCOD8258001
Probable space group: C M C M
;
_chemical_formula_sum "Si O2"
_cell_formula_units_Z 80
_cell_length_a 8.963102
_cell_length_b 20.547341
_cell_length_c 23.094886
_cell_angle_alpha 90.000000
_cell_angle_beta 90.000000
_cell_angle_gamma 90.000000
_cell_volume 4253.336960
_symmetry_space_group_name_H-M "C M C M"
_symmetry_group_IT_number 63
_symmetry_cell_setting 'orthorhombic'
loop_
_space_group_symop_operation_xyz
x,y,z
-x,-y,1/2+z
x,-y,-z
-x,y,1/2-z
-x,-y,-z
x,y,1/2-z
-x,y,z
x,-y,1/2+z
1/2+x,1/2+y,z
1/2-x,1/2-y,1/2+z
1/2+x,1/2-y,-z
1/2-x,1/2+y,1/2-z
1/2-x,1/2-y,-z
1/2+x,1/2+y,1/2-z
1/2-x,1/2+y,z
1/2+x,1/2-y,1/2+z
loop_
_atom_site_type_symbol
_atom_site_label
_atom_site_fract_x
_atom_site_fract_y
_atom_site_fract_z
Si Si1 0.174228 0.879518 0.551851
Si Si2 0.823206 0.624352 0.571404
Si Si3 0.325879 0.504200 0.870466
Si Si4 0.822735 0.757794 0.873359
Si Si5 0.678082 0.699223 0.250000
Si Si6 0.176805 0.053173 0.250000
O O1 0.262750 0.883809 0.492695
O O2 0.207192 0.944982 0.586636
O O3 0.235096 0.818501 0.588684
O O4 0.000000 0.872009 0.537939
O O5 0.768635 0.566137 0.611423
O O6 0.761443 0.691426 0.598821
O O7 0.000000 0.624235 0.569384
O O8 0.500000 0.522161 0.871041
O O9 0.269009 0.485114 0.806646
O O10 0.762667 0.764000 0.807444
O O11 0.000000 0.759108 0.872658
O O12 0.500000 0.697023 0.250000
O O13 0.743137 0.625992 0.250000
O O14 0.000000 0.059334 0.250000
#
# Coordination Sequence:
#
# PCOD8258001 Si02
#       6
#    16  16  16  16   8   8
#     4  10  19  35  58  79 101 136 183 226 257 297
#     4  11  23  35  49  78 116 147 172 207 264 322
#     4  10  20  35  57  82 104 133 177 224 264 305
#     4   9  18  32  53  80 106 134 173 220 266 311
#     4   9  14  29  56  81 101 126 173 228 264 302
#     4   9  16  31  57  83 101 126 173 228 268 302
#
# _framework density 18.808761000000001
#
# number of rings (size 3 to 8) (size 9 to 14) (size 15 to 20)
#    0.000    2.200    2.000    1.800    0.000    4.000 
#    0.000    2.500    0.000    0.000    0.000    3.500 
#    0.000    0.000    0.000    0.000    0.000    0.000 
#
# Total GULP energy -496033.738506 kJ/mol
# GULP energy per Si atom -12400.843463 kJ/mol
# Density = 1.876595 g / cm^3
# Si number density = 18.808761 Si / 1000 Ang^3
#
#
#
# Elastic Constant Matrix: (Units=GPa)
#
#
# Indices 1 2 3 4 5 6 
#
# 1 28.5635 27.8670 25.7691 0.0000 0.0000 0.0000
# 2 27.8670 120.0030 49.7512 0.0000 0.0000 0.0000
# 3 25.7691 49.7512 149.0921 0.0000 0.0000 0.0000
# 4 0.0000 0.0000 0.0000 103.2557 0.0000 0.0000
# 5 0.0000 0.0000 0.0000 0.0000 9.4076 0.0000
# 6 0.0000 0.0000 0.0000 0.0000 0.0000 23.5120
#
#
#
# Elastic Compliance Matrix: (Units=1/GPa)
#
#
# Indices 1 2 3 4 5 6 
#
# 1 0.048735 -0.009081 -0.005393 0.000000 0.000000 0.000000
# 2 -0.009081 0.011363 -0.002222 0.000000 0.000000 0.000000
# 3 -0.005393 -0.002222 0.008381 0.000000 0.000000 0.000000
# 4 0.000000 0.000000 0.000000 0.009685 0.000000 0.000000
# 5 0.000000 0.000000 0.000000 0.000000 0.106297 0.000000
# 6 0.000000 0.000000 0.000000 0.000000 0.000000 0.042532
#
#
# Mechanical properties :
#
#
# Convention : Reuss Voigt Hill
#
# Bulk Modulus (GPa) = 28.50136 56.04813 42.27475
# Shear Modulus (GPa) = 18.37691 40.18649 29.28170
#
# Velocity S-wave (km/s) = 3.12915 4.62733 3.94993
# Velocity P-wave (km/s) = 5.31428 7.64286 6.58236
#
# Compressibility (1/GPa) = 0.03508604
#
# Stress axis : x y z
#
# Youngs Moduli (GPa) = 20.51917 88.00275 119.31841
#
# Poissons Ratio (x) = 0.79918 0.64348
# Poissons Ratio (y) = 0.18634 0.26515
# Poissons Ratio (z) = 0.11066 0.19556
#
# Static dielectric constant tensor:
#      x y z
#    x 2.985230 0.000000 0.000000 
#    y 0.000000 3.654520 0.000000 
#    z 0.000000 0.000000 3.722780 
# 
# 
# High freq. dielectric constant tensor:
#      x y z
#    x 1.682940 0.000000 0.000000 
#    y 0.000000 1.741910 0.000000 
#    z 0.000000 0.000000 1.750430 
# 
# From -- ./inp_files/50897.got.cif
#   From: 2010.03.12/outbox.cif.g09.slc.cpg/sg63_26_cif.got.tgz:50897.got - 2010.04.10 19:34:48.
