data_PCOD8258323
_publ_section_title
;
Structure prediction by ZEFSAII (Michael W. Deem and Ramdas Pophale) SiO2 
 PCOD8258323
Probable space group: C M C M
;
_chemical_formula_sum "Si O2"
_cell_formula_units_Z 96
_cell_length_a 17.474827
_cell_length_b 28.531285
_cell_length_c 9.264011
_cell_angle_alpha 90.000000
_cell_angle_beta 90.000000
_cell_angle_gamma 90.000000
_cell_volume 4618.843837
_symmetry_space_group_name_H-M "C M C M"
_symmetry_group_IT_number 63
_symmetry_cell_setting 'orthorhombic'
loop_
_space_group_symop_operation_xyz
x,y,z
-x,-y,1/2+z
x,-y,-z
-x,y,1/2-z
-x,-y,-z
x,y,1/2-z
-x,y,z
x,-y,1/2+z
1/2+x,1/2+y,z
1/2-x,1/2-y,1/2+z
1/2+x,1/2-y,-z
1/2-x,1/2+y,1/2-z
1/2-x,1/2-y,-z
1/2+x,1/2+y,1/2-z
1/2-x,1/2+y,z
1/2+x,1/2-y,1/2+z
loop_
_atom_site_type_symbol
_atom_site_label
_atom_site_fract_x
_atom_site_fract_y
_atom_site_fract_z
Si Si1 0.912749 0.040171 0.905172
Si Si2 0.590777 0.802263 0.587564
Si Si3 0.588356 0.288086 0.584422
Si Si4 0.909438 0.393289 0.416929
Si Si5 0.205351 0.547361 0.079842
Si Si6 0.653495 0.613772 0.086066
O O1 0.870683 0.041906 0.750000
O O2 0.000000 0.026202 0.880917
O O3 0.908835 0.089912 0.983316
O O4 0.871169 0.000000 0.000000
O O5 0.624678 0.806449 0.750000
O O6 0.500000 0.802794 0.592556
O O7 0.618406 0.753836 0.516054
O O8 0.620114 0.845357 0.491130
O O9 0.593714 0.271501 0.750000
O O10 0.500000 0.302069 0.548940
O O11 0.647233 0.330858 0.554583
O O12 0.883260 0.393483 0.250000
O O13 0.873340 0.436718 0.503947
O O14 0.000000 0.398518 0.429857
O O15 0.192806 0.538286 0.250000
O O16 0.264657 0.590238 0.052400
O O17 0.233120 0.500000 0.000000
O O18 0.629052 0.603610 0.250000
#
# Coordination Sequence:
#
# PCOD8258323 Si02
#       6
#    16  16  16  16  16  16
#     4  10  20  32  48  71  99 135 182 234 283 329
#     4   9  17  31  54  85 118 148 180 223 274 326
#     4   9  17  31  53  81 114 152 192 232 272 316
#     4  10  21  39  64  90 113 140 177 222 276 339
#     4  11  24  41  60  83 112 146 185 229 281 339
#     4  10  21  36  54  77 108 148 190 231 276 326
#
# _framework density 20.784423
#
# number of rings (size 3 to 8) (size 9 to 14) (size 15 to 20)
#    0.000    2.167    0.000    3.000    0.000    8.333 
#    0.000    2.500    0.000    0.000    0.000    0.000 
#    0.000    0.000    0.000    0.000    0.000    0.000 
#
# Total GULP energy -595046.856535 kJ/mol
# GULP energy per Si atom -12396.809511 kJ/mol
# Density = 2.073712 g / cm^3
# Si number density = 20.784423 Si / 1000 Ang^3
#
#
#
# Elastic Constant Matrix: (Units=GPa)
#
#
# Indices 1 2 3 4 5 6 
#
# 1 43.7646 35.5852 37.2460 0.0000 0.0000 0.0000
# 2 35.5852 106.4129 69.2410 0.0000 0.0000 0.0000
# 3 37.2460 69.2410 160.6984 0.0000 0.0000 0.0000
# 4 0.0000 0.0000 0.0000 42.8339 0.0000 0.0000
# 5 0.0000 0.0000 0.0000 0.0000 19.5976 0.0000
# 6 0.0000 0.0000 0.0000 0.0000 0.0000 19.8473
#
#
#
# Elastic Compliance Matrix: (Units=1/GPa)
#
#
# Indices 1 2 3 4 5 6 
#
# 1 0.033170 -0.008462 -0.004042 0.000000 0.000000 0.000000
# 2 -0.008462 0.015217 -0.004595 0.000000 0.000000 0.000000
# 3 -0.004042 -0.004595 0.009140 0.000000 0.000000 0.000000
# 4 0.000000 0.000000 0.000000 0.023346 0.000000 0.000000
# 5 0.000000 0.000000 0.000000 0.000000 0.051027 0.000000
# 6 0.000000 0.000000 0.000000 0.000000 0.000000 0.050385
#
#
# Mechanical properties :
#
#
# Convention : Reuss Voigt Hill
#
# Bulk Modulus (GPa) = 42.86697 66.11337 54.49017
# Shear Modulus (GPa) = 22.29558 27.70935 25.00246
#
# Velocity S-wave (km/s) = 3.27877 3.65523 3.47211
# Velocity P-wave (km/s) = 5.91635 7.04929 6.50752
#
# Compressibility (1/GPa) = 0.02332798
#
# Stress axis : x y z
#
# Youngs Moduli (GPa) = 30.14762 65.71424 109.41297
#
# Poissons Ratio (x) = 0.55610 0.44222
# Poissons Ratio (y) = 0.25512 0.50280
# Poissons Ratio (z) = 0.12185 0.30199
#
# Static dielectric constant tensor:
#      x y z
#    x 3.369260 0.000000 0.000000 
#    y 0.000000 3.764320 0.000000 
#    z 0.000000 0.000000 4.122700 
# 
# 
# High freq. dielectric constant tensor:
#      x y z
#    x 1.781910 0.000000 0.000000 
#    y 0.000000 1.812750 0.000000 
#    z 0.000000 0.000000 1.826790 
# 
# From -- ./inp_files/8520.got.cif
#   From: 2010.03.12/outbox.cif.g09.slc.cpg/sg63_5_cif.got.tgz:8520.got - 2010.04.10 19:34:48.
