data_PCOD8258470
_publ_section_title
;
Structure prediction by ZEFSAII (Michael W. Deem and Ramdas Pophale) SiO2 
 PCOD8258470
Probable space group: C M C M
;
_chemical_formula_sum "Si O2"
_cell_formula_units_Z 96
_cell_length_a 20.523055
_cell_length_b 27.756979
_cell_length_c 9.026104
_cell_angle_alpha 90.000000
_cell_angle_beta 90.000000
_cell_angle_gamma 90.000000
_cell_volume 5141.792412
_symmetry_space_group_name_H-M "C M C M"
_symmetry_group_IT_number 63
_symmetry_cell_setting 'orthorhombic'
loop_
_space_group_symop_operation_xyz
x,y,z
-x,-y,1/2+z
x,-y,-z
-x,y,1/2-z
-x,-y,-z
x,y,1/2-z
-x,y,z
x,-y,1/2+z
1/2+x,1/2+y,z
1/2-x,1/2-y,1/2+z
1/2+x,1/2-y,-z
1/2-x,1/2+y,1/2-z
1/2-x,1/2-y,-z
1/2+x,1/2+y,1/2-z
1/2-x,1/2+y,z
1/2+x,1/2-y,1/2+z
loop_
_atom_site_type_symbol
_atom_site_label
_atom_site_fract_x
_atom_site_fract_y
_atom_site_fract_z
Si Si1 0.573734 0.951037 0.576837
Si Si2 0.192575 0.050278 0.076779
Si Si3 0.927516 0.889152 0.926062
Si Si4 0.071766 0.781434 0.925872
Si Si5 0.312786 0.119188 0.077510
Si Si6 0.307374 0.779519 0.426108
O O1 0.579169 0.960730 0.750000
O O2 0.500000 0.937542 0.528970
O O3 0.620627 0.907445 0.529828
O O4 0.597263 0.000000 0.500000
O O5 0.185702 0.040803 0.250000
O O6 0.126539 0.074226 0.010686
O O7 0.252476 0.084962 0.041187
O O8 0.206007 0.000000 0.000000
O O9 0.923114 0.888367 0.750000
O O10 0.912754 0.835248 0.985847
O O11 0.000000 0.905658 0.977050
O O12 0.072614 0.782904 0.750000
O O13 0.125139 0.743889 0.984282
O O14 0.000000 0.765115 0.981954
O O15 0.313603 0.134000 0.250000
O O16 0.305380 0.165710 0.976825
O O17 0.300593 0.776435 0.250000
O O18 0.250000 0.750000 0.500000
#
# Coordination Sequence:
#
# PCOD8258470 Si02
#       6
#    16  16  16  16  16  16
#     4   9  18  33  53  76 103 136 172 212 260 312
#     4  10  20  33  50  72  98 129 165 205 248 294
#     4   8  14  27  48  71  95 125 159 195 239 290
#     4   8  15  30  52  76 101 131 169 209 247 294
#     4  10  21  36  52  72 101 135 171 211 256 305
#     4  11  22  35  54  79 106 136 172 214 259 307
#
# _framework density 18.670532999999999
#
# number of rings (size 3 to 8) (size 9 to 14) (size 15 to 20)
#    0.000    2.667    0.000    3.000    0.000    5.000 
#    0.000    0.000    0.000    1.500    0.000    4.667 
#    0.000    0.000    0.000    0.000    0.000    0.000 
#
# Total GULP energy -595105.797446 kJ/mol
# GULP energy per Si atom -12398.037447 kJ/mol
# Density = 1.862804 g / cm^3
# Si number density = 18.670533 Si / 1000 Ang^3
#
#
#
# Elastic Constant Matrix: (Units=GPa)
#
#
# Indices 1 2 3 4 5 6 
#
# 1 143.7143 78.9498 39.9565 0.0000 0.0000 0.0000
# 2 78.9498 130.5249 44.9663 0.0000 0.0000 0.0000
# 3 39.9565 44.9663 38.7992 0.0000 0.0000 0.0000
# 4 0.0000 0.0000 0.0000 26.5729 0.0000 0.0000
# 5 0.0000 0.0000 0.0000 0.0000 12.7620 0.0000
# 6 0.0000 0.0000 0.0000 0.0000 0.0000 26.5516
#
#
#
# Elastic Compliance Matrix: (Units=1/GPa)
#
#
# Indices 1 2 3 4 5 6 
#
# 1 0.011239 -0.004679 -0.006152 0.000000 0.000000 0.000000
# 2 -0.004679 0.014701 -0.012219 0.000000 0.000000 0.000000
# 3 -0.006152 -0.012219 0.046271 0.000000 0.000000 0.000000
# 4 0.000000 0.000000 0.000000 0.037632 0.000000 0.000000
# 5 0.000000 0.000000 0.000000 0.000000 0.078358 0.000000
# 6 0.000000 0.000000 0.000000 0.000000 0.000000 0.037663
#
#
# Mechanical properties :
#
#
# Convention : Reuss Voigt Hill
#
# Bulk Modulus (GPa) = 38.29836 71.19819 54.74827
# Shear Modulus (GPa) = 17.81472 23.12165 20.46819
#
# Velocity S-wave (km/s) = 3.09230 3.52291 3.31461
# Velocity P-wave (km/s) = 5.77123 7.40032 6.63595
#
# Compressibility (1/GPa) = 0.02611078
#
# Stress axis : x y z
#
# Youngs Moduli (GPa) = 88.97716 68.02256 21.61194
#
# Poissons Ratio (x) = 0.31826 0.13295
# Poissons Ratio (y) = 0.41630 0.26409
# Poissons Ratio (z) = 0.54736 0.83120
#
# Static dielectric constant tensor:
#      x y z
#    x 3.959160 0.000000 0.000000 
#    y 0.000000 3.411650 0.000000 
#    z 0.000000 0.000000 3.054460 
# 
# 
# High freq. dielectric constant tensor:
#      x y z
#    x 1.745500 0.000000 0.000000 
#    y 0.000000 1.725430 0.000000 
#    z 0.000000 0.000000 1.684930 
# 
# From -- ./inp_files/8588.got.cif
#   From: 2010.03.12/outbox.cif.g09.slc.cpg/sg63_5_cif.got.tgz:8588.got - 2010.04.10 19:34:48.
