data_PCOD8258844
_publ_section_title
;
Structure prediction by ZEFSAII (Michael W. Deem and Ramdas Pophale) SiO2 
 PCOD8258844
Probable space group: C M C M
;
_chemical_formula_sum "Si O2"
_cell_formula_units_Z 96
_cell_length_a 9.074078
_cell_length_b 19.825745
_cell_length_c 29.166892
_cell_angle_alpha 90.000000
_cell_angle_beta 90.000000
_cell_angle_gamma 90.000000
_cell_volume 5247.134270
_symmetry_space_group_name_H-M "C M C M"
_symmetry_group_IT_number 63
_symmetry_cell_setting 'orthorhombic'
loop_
_space_group_symop_operation_xyz
x,y,z
-x,-y,1/2+z
x,-y,-z
-x,y,1/2-z
-x,-y,-z
x,y,1/2-z
-x,y,z
x,-y,1/2+z
1/2+x,1/2+y,z
1/2-x,1/2-y,1/2+z
1/2+x,1/2-y,-z
1/2-x,1/2+y,1/2-z
1/2-x,1/2-y,-z
1/2+x,1/2+y,1/2-z
1/2-x,1/2+y,z
1/2+x,1/2-y,1/2+z
loop_
_atom_site_type_symbol
_atom_site_label
_atom_site_fract_x
_atom_site_fract_y
_atom_site_fract_z
Si Si1 0.674468 0.234772 0.377390
Si Si2 0.671691 0.565003 0.524409
Si Si3 0.174966 0.110001 0.623102
Si Si4 0.825327 0.366614 0.699681
Si Si5 0.328443 0.697256 0.031882
Si Si6 0.671855 0.017433 0.696574
O O1 0.500000 0.229528 0.385423
O O2 0.724502 0.312133 0.372343
O O3 0.729263 0.192752 0.333387
O O4 0.756490 0.198441 0.418635
O O5 0.745807 0.500000 0.500000
O O6 0.500000 0.551786 0.532002
O O7 0.738611 0.580839 0.574866
O O8 0.701049 0.624854 0.489500
O O9 0.238675 0.069612 0.665848
O O10 0.000000 0.104945 0.624598
O O11 0.759158 0.351278 0.750000
O O12 0.775587 0.441460 0.683538
O O13 0.000000 0.367077 0.702603
O O14 0.500000 0.714738 0.034884
O O15 0.250000 0.750000 0.000000
O O16 0.705610 0.031851 0.750000
O O17 0.500000 0.027031 0.686193
#
# Coordination Sequence:
#
# PCOD8258844 Si02
#       6
#    16  16  16  16  16  16
#     4  10  20  35  55  81 108 135 176 223 262 308
#     4   9  19  35  52  74 107 143 174 210 259 313
#     4  10  20  34  53  78 107 138 177 218 258 310
#     4   8  16  33  56  78 103 138 175 214 263 316
#     4  11  21  36  57  78 106 143 178 213 261 313
#     4   9  19  36  55  76 105 139 173 213 264 316
#
# _framework density 18.295701999999999
#
# number of rings (size 3 to 8) (size 9 to 14) (size 15 to 20)
#    0.000    2.500    1.667    1.500    2.333    1.667 
#    0.000    1.667    0.000    4.000    0.000    0.000 
#    0.000    0.000    0.000    0.000    0.000    0.000 
#
# Total GULP energy -595048.372389 kJ/mol
# GULP energy per Si atom -12396.841091 kJ/mol
# Density = 1.825406 g / cm^3
# Si number density = 18.295702 Si / 1000 Ang^3
#
#
#
# Elastic Constant Matrix: (Units=GPa)
#
#
# Indices 1 2 3 4 5 6 
#
# 1 29.2023 28.1844 32.0020 0.0000 0.0000 0.0000
# 2 28.1844 99.3691 73.7741 0.0000 0.0000 0.0000
# 3 32.0020 73.7741 136.4226 0.0000 0.0000 0.0000
# 4 0.0000 0.0000 0.0000 32.8999 0.0000 0.0000
# 5 0.0000 0.0000 0.0000 0.0000 30.0906 0.0000
# 6 0.0000 0.0000 0.0000 0.0000 0.0000 13.7220
#
#
#
# Elastic Compliance Matrix: (Units=1/GPa)
#
#
# Indices 1 2 3 4 5 6 
#
# 1 0.050747 -0.009282 -0.006885 0.000000 0.000000 0.000000
# 2 -0.009282 0.018512 -0.007833 0.000000 0.000000 0.000000
# 3 -0.006885 -0.007833 0.013181 0.000000 0.000000 0.000000
# 4 0.000000 0.000000 0.000000 0.030395 0.000000 0.000000
# 5 0.000000 0.000000 0.000000 0.000000 0.033233 0.000000
# 6 0.000000 0.000000 0.000000 0.000000 0.000000 0.072876
#
#
# Mechanical properties :
#
#
# Convention : Reuss Voigt Hill
#
# Bulk Modulus (GPa) = 29.03612 59.21280 44.12446
# Shear Modulus (GPa) = 17.95816 24.07808 21.01812
#
# Velocity S-wave (km/s) = 3.13637 3.63168 3.39307
# Velocity P-wave (km/s) = 5.38708 7.07248 6.28652
#
# Compressibility (1/GPa) = 0.03443987
#
# Stress axis : x y z
#
# Youngs Moduli (GPa) = 19.70546 54.01909 75.86522
#
# Poissons Ratio (x) = 0.50142 0.52231
# Poissons Ratio (y) = 0.18291 0.59428
# Poissons Ratio (z) = 0.13567 0.42315
#
# Static dielectric constant tensor:
#      x y z
#    x 2.890310 0.000000 0.000000 
#    y 0.000000 3.506950 0.000000 
#    z 0.000000 0.000000 3.481200 
# 
# 
# High freq. dielectric constant tensor:
#      x y z
#    x 1.671650 0.000000 0.000000 
#    y 0.000000 1.720970 0.000000 
#    z 0.000000 0.000000 1.721600 
# 
# From -- ./inp_files/66888.got.cif
#   From: 2010.03.12/outbox.cif.g09.slc.cpg/sg63_34_cif.got.tgz:66888.got - 2010.04.10 19:34:48.
