data_PCOD8258440
_publ_section_title
;
Structure prediction by ZEFSAII (Michael W. Deem and Ramdas Pophale) SiO2 
 PCOD8258440
Probable space group: C M C M
;
_chemical_formula_sum "Si O2"
_cell_formula_units_Z 80
_cell_length_a 9.296710
_cell_length_b 27.710529
_cell_length_c 17.629514
_cell_angle_alpha 90.000000
_cell_angle_beta 90.000000
_cell_angle_gamma 90.000000
_cell_volume 4541.658137
_symmetry_space_group_name_H-M "C M C M"
_symmetry_group_IT_number 63
_symmetry_cell_setting 'orthorhombic'
loop_
_space_group_symop_operation_xyz
x,y,z
-x,-y,1/2+z
x,-y,-z
-x,y,1/2-z
-x,-y,-z
x,y,1/2-z
-x,y,z
x,-y,1/2+z
1/2+x,1/2+y,z
1/2-x,1/2-y,1/2+z
1/2+x,1/2-y,-z
1/2-x,1/2+y,1/2-z
1/2-x,1/2-y,-z
1/2+x,1/2+y,1/2-z
1/2-x,1/2+y,z
1/2+x,1/2-y,1/2+z
loop_
_atom_site_type_symbol
_atom_site_label
_atom_site_fract_x
_atom_site_fract_y
_atom_site_fract_z
Si Si1 0.833197 0.190176 0.101852
Si Si2 0.664882 0.894831 0.833611
Si Si3 0.668811 0.640640 0.945625
Si Si4 0.167055 0.292968 0.161244
Si Si5 0.331495 0.945642 0.984653
O O1 0.753480 0.154124 0.158278
O O2 0.781577 0.244314 0.118996
O O3 0.000000 0.184657 0.120430
O O4 0.797662 0.176855 0.015077
O O5 0.694263 0.917058 0.750000
O O6 0.500000 0.879918 0.843722
O O7 0.707442 0.934164 0.896977
O O8 0.500000 0.632931 0.933194
O O9 0.738508 0.663054 0.870377
O O10 0.741433 0.588936 0.960275
O O11 0.197324 0.287663 0.250000
O O12 0.000000 0.303620 0.144616
O O13 0.500000 0.938389 0.001870
O O14 0.281978 0.000000 0.000000
#
# Coordination Sequence:
#
# PCOD8258440 Si02
#       5
#    16  16  16  16  16
#     4   9  18  32  50  72  98 130 164 196 237 290
#     4   9  17  29  47  73 100 123 154 201 250 290
#     4  10  20  33  51  74  99 127 161 204 249 293
#     4  10  20  33  49  70  99 135 170 200 233 282
#     4   9  18  34  54  72  94 128 167 204 245 295
#
# _framework density 17.614711
#
# number of rings (size 3 to 8) (size 9 to 14) (size 15 to 20)
#    0.000    2.600    0.000    1.800    0.000    3.600 
#    0.000    1.000    0.000    3.600    0.000    0.000 
#    0.000    0.000    0.000    0.000    0.000    0.000 
#
# Total GULP energy -496053.094410 kJ/mol
# GULP energy per Si atom -12401.327360 kJ/mol
# Density = 1.757462 g / cm^3
# Si number density = 17.614711 Si / 1000 Ang^3
#
#
#
# Elastic Constant Matrix: (Units=GPa)
#
#
# Indices 1 2 3 4 5 6 
#
# 1 60.7666 56.7052 36.6128 0.0000 0.0000 0.0000
# 2 56.7052 134.6015 53.2677 0.0000 0.0000 0.0000
# 3 36.6128 53.2677 64.6242 0.0000 0.0000 0.0000
# 4 0.0000 0.0000 0.0000 18.7284 0.0000 0.0000
# 5 0.0000 0.0000 0.0000 0.0000 23.7149 0.0000
# 6 0.0000 0.0000 0.0000 0.0000 0.0000 28.9854
#
#
#
# Elastic Compliance Matrix: (Units=1/GPa)
#
#
# Indices 1 2 3 4 5 6 
#
# 1 0.030993 -0.009065 -0.010087 0.000000 0.000000 0.000000
# 2 -0.009065 0.013677 -0.006138 0.000000 0.000000 0.000000
# 3 -0.010087 -0.006138 0.026248 0.000000 0.000000 0.000000
# 4 0.000000 0.000000 0.000000 0.053395 0.000000 0.000000
# 5 0.000000 0.000000 0.000000 0.000000 0.042168 0.000000
# 6 0.000000 0.000000 0.000000 0.000000 0.000000 0.034500
#
#
# Mechanical properties :
#
#
# Convention : Reuss Voigt Hill
#
# Bulk Modulus (GPa) = 49.16789 61.46265 55.31527
# Shear Modulus (GPa) = 19.35423 21.84618 20.60021
#
# Velocity S-wave (km/s) = 3.31834 3.52550 3.42349
# Velocity P-wave (km/s) = 6.53111 7.17919 6.86281
#
# Compressibility (1/GPa) = 0.02033848
#
# Stress axis : x y z
#
# Youngs Moduli (GPa) = 32.26518 73.11364 38.09752
#
# Poissons Ratio (x) = 0.66277 0.38430
# Poissons Ratio (y) = 0.29248 0.23385
# Poissons Ratio (z) = 0.32547 0.44878
#
# Static dielectric constant tensor:
#      x y z
#    x 3.229590 0.000000 0.000000 
#    y 0.000000 3.153100 0.000000 
#    z 0.000000 0.000000 3.296900 
# 
# 
# High freq. dielectric constant tensor:
#      x y z
#    x 1.679850 0.000000 0.000000 
#    y 0.000000 1.666220 0.000000 
#    z 0.000000 0.000000 1.680180 
# 
# From -- ./inp_files/40424.got.cif
#   From: 2010.03.12/outbox.cif.g09.slc.cpg/sg63_21_cif.got.tgz:40424.got - 2010.04.10 19:34:48.
