data_PCOD8258105
_publ_section_title
;
Structure prediction by ZEFSAII (Michael W. Deem and Ramdas Pophale) SiO2 
 PCOD8258105
Probable space group: C M C M
;
_chemical_formula_sum "Si O2"
_cell_formula_units_Z 96
_cell_length_a 8.870378
_cell_length_b 24.905763
_cell_length_c 23.633080
_cell_angle_alpha 90.000000
_cell_angle_beta 90.000000
_cell_angle_gamma 90.000000
_cell_volume 5221.103510
_symmetry_space_group_name_H-M "C M C M"
_symmetry_group_IT_number 63
_symmetry_cell_setting 'orthorhombic'
loop_
_space_group_symop_operation_xyz
x,y,z
-x,-y,1/2+z
x,-y,-z
-x,y,1/2-z
-x,-y,-z
x,y,1/2-z
-x,y,z
x,-y,1/2+z
1/2+x,1/2+y,z
1/2-x,1/2-y,1/2+z
1/2+x,1/2-y,-z
1/2-x,1/2+y,1/2-z
1/2-x,1/2-y,-z
1/2+x,1/2+y,1/2-z
1/2-x,1/2+y,z
1/2+x,1/2-y,1/2+z
loop_
_atom_site_type_symbol
_atom_site_label
_atom_site_fract_x
_atom_site_fract_y
_atom_site_fract_z
Si Si1 0.179368 0.601765 0.750000
Si Si2 0.322404 0.835930 0.063630
Si Si3 0.177176 0.768476 0.632031
Si Si4 0.177792 0.929763 0.135255
Si Si5 0.675719 0.142024 0.062820
Si Si6 0.675536 0.981830 0.936957
Si Si7 0.320541 0.224192 0.750000
O O1 0.242443 0.571434 0.695674
O O2 0.238015 0.663119 0.750000
O O3 0.000000 0.598988 0.750000
O O4 0.500000 0.848179 0.070401
O O5 0.277308 0.778190 0.088230
O O6 0.232795 0.880857 0.097088
O O7 0.270476 0.837477 0.998602
O O8 0.244102 0.824682 0.611978
O O9 0.241738 0.754207 0.694230
O O10 0.000000 0.774790 0.635257
O O11 0.000000 0.926479 0.143147
O O12 0.222314 0.985787 0.106641
O O13 0.500000 0.151567 0.069285
O O14 0.718642 0.080156 0.070562
O O15 0.500000 0.992894 0.924431
O O16 0.716391 0.000000 0.000000
O O17 0.500000 0.223281 0.750000
#
# Coordination Sequence:
#
# PCOD8258105 Si02
#       7
#     8  16  16  16  16  16   8
#     4  11  21  41  66  83 114 157 200 236 281 353
#     4  10  19  36  59  83 115 158 196 230 283 357
#     4  10  20  35  57  84 115 151 195 238 292 350
#     4  12  24  36  57  93 125 146 188 249 302 338
#     4  10  21  36  57  85 116 152 197 239 285 347
#     4  10  20  39  63  82 110 157 204 239 283 352
#     4   9  18  35  60  83 106 149 198 232 273 347
#
# _framework density 18.386918000000001
#
# number of rings (size 3 to 8) (size 9 to 14) (size 15 to 20)
#    0.000    1.667    3.333    2.250    0.000    2.333 
#    0.000    1.250    0.000    4.000    0.000    0.000 
#    0.000    0.000    0.000    0.000    0.000    0.000 
#
# Total GULP energy -595383.501376 kJ/mol
# GULP energy per Si atom -12403.822945 kJ/mol
# Density = 1.834507 g / cm^3
# Si number density = 18.386918 Si / 1000 Ang^3
#
#
#
# Elastic Constant Matrix: (Units=GPa)
#
#
# Indices 1 2 3 4 5 6 
#
# 1 57.9658 43.4028 46.5462 0.0000 0.0000 0.0000
# 2 43.4028 118.3184 68.8051 0.0000 0.0000 0.0000
# 3 46.5462 68.8051 134.0741 0.0000 0.0000 0.0000
# 4 0.0000 0.0000 0.0000 31.1377 0.0000 0.0000
# 5 0.0000 0.0000 0.0000 0.0000 25.2525 0.0000
# 6 0.0000 0.0000 0.0000 0.0000 0.0000 25.7243
#
#
#
# Elastic Compliance Matrix: (Units=1/GPa)
#
#
# Indices 1 2 3 4 5 6 
#
# 1 0.026869 -0.006317 -0.006086 0.000000 0.000000 0.000000
# 2 -0.006317 0.013532 -0.004751 0.000000 0.000000 0.000000
# 3 -0.006086 -0.004751 0.012010 0.000000 0.000000 0.000000
# 4 0.000000 0.000000 0.000000 0.032115 0.000000 0.000000
# 5 0.000000 0.000000 0.000000 0.000000 0.039600 0.000000
# 6 0.000000 0.000000 0.000000 0.000000 0.000000 0.038874
#
#
# Mechanical properties :
#
#
# Convention : Reuss Voigt Hill
#
# Bulk Modulus (GPa) = 55.24416 69.76296 62.50356
# Shear Modulus (GPa) = 24.58903 26.52985 25.55944
#
# Velocity S-wave (km/s) = 3.66089 3.80263 3.73243
# Velocity P-wave (km/s) = 6.92677 7.56994 7.25548
#
# Compressibility (1/GPa) = 0.01810146
#
# Stress axis : x y z
#
# Youngs Moduli (GPa) = 37.21812 73.89817 83.26507
#
# Poissons Ratio (x) = 0.46682 0.50676
# Poissons Ratio (y) = 0.23511 0.39563
# Poissons Ratio (z) = 0.22651 0.35112
#
# Static dielectric constant tensor:
#      x y z
#    x 3.187800 0.000000 0.000000 
#    y 0.000000 3.481470 0.000000 
#    z 0.000000 0.000000 2.997460 
# 
# 
# High freq. dielectric constant tensor:
#      x y z
#    x 1.697060 0.000000 0.000000 
#    y 0.000000 1.714690 0.000000 
#    z 0.000000 0.000000 1.719570 
# 
# From -- ./inp_files/60029.got.cif
#   From: 2010.03.12/outbox.cif.g09.slc.cpg/sg63_31_cif.got.tgz:60029.got - 2010.04.10 19:34:48.
