data_PCOD8258992
_publ_section_title
;
Structure prediction by ZEFSAII (Michael W. Deem and Ramdas Pophale) SiO2 
 PCOD8258992
Probable space group: C M C M
;
_chemical_formula_sum "Si O2"
_cell_formula_units_Z 104
_cell_length_a 21.083580
_cell_length_b 27.952134
_cell_length_c 8.989378
_cell_angle_alpha 90.000000
_cell_angle_beta 90.000000
_cell_angle_gamma 90.000000
_cell_volume 5297.719606
_symmetry_space_group_name_H-M "C M C M"
_symmetry_group_IT_number 63
_symmetry_cell_setting 'orthorhombic'
loop_
_space_group_symop_operation_xyz
x,y,z
-x,-y,1/2+z
x,-y,-z
-x,y,1/2-z
-x,-y,-z
x,y,1/2-z
-x,y,z
x,-y,1/2+z
1/2+x,1/2+y,z
1/2-x,1/2-y,1/2+z
1/2+x,1/2-y,-z
1/2-x,1/2+y,1/2-z
1/2-x,1/2-y,-z
1/2+x,1/2+y,1/2-z
1/2-x,1/2+y,z
1/2+x,1/2-y,1/2+z
loop_
_atom_site_type_symbol
_atom_site_label
_atom_site_fract_x
_atom_site_fract_y
_atom_site_fract_z
Si Si1 0.851080 0.305229 0.080101
Si Si2 0.322258 0.952062 0.924697
Si Si3 0.572117 0.101114 0.575868
Si Si4 0.904528 0.123524 0.923574
Si Si5 0.930475 0.229156 0.923603
Si Si6 0.256401 0.626783 0.578439
Si Si7 0.500000 0.552778 0.428513
O O1 0.860508 0.291290 0.250000
O O2 0.897657 0.348127 0.033600
O O3 0.778248 0.321816 0.047513
O O4 0.871863 0.258318 0.991151
O O5 0.324980 0.958695 0.750000
O O6 0.392325 0.940379 0.985940
O O7 0.272822 0.911258 0.967003
O O8 0.296665 0.000000 0.000000
O O9 0.579427 0.090484 0.750000
O O10 0.500000 0.101342 0.522985
O O11 0.918692 0.113679 0.750000
O O12 0.931926 0.174232 0.977724
O O13 0.830134 0.127654 0.955797
O O14 0.937088 0.081212 0.017833
O O15 0.917665 0.229506 0.750000
O O16 0.000000 0.251152 0.963845
O O17 0.241943 0.612384 0.750000
O O18 0.500000 0.500000 0.500000
O O19 0.500000 0.548567 0.250000
#
# Coordination Sequence:
#
# PCOD8258992 Si02
#       7
#    16  16  16  16  16  16   8
#     4   9  18  33  53  82 116 153 195 235 282 338
#     4  11  22  36  55  78 108 143 184 236 289 347
#     4   9  18  34  54  76 108 149 192 239 286 336
#     4  10  21  42  66  87 117 155 193 237 291 346
#     4  10  20  34  55  84 119 157 196 238 286 339
#     4   9  20  39  61  82 111 152 195 241 290 345
#     4  12  26  44  68  96 124 154 192 242 299 362
#
# _framework density 19.631087000000001
#
# number of rings (size 3 to 8) (size 9 to 14) (size 15 to 20)
#    0.000    2.154    0.769    3.462    0.000    6.462 
#    0.000    0.000    0.000    0.000    0.000    0.000 
#    0.000    0.000    0.000    0.000    0.000    0.000 
#
# Total GULP energy -644664.916154 kJ/mol
# GULP energy per Si atom -12397.402234 kJ/mol
# Density = 1.958641 g / cm^3
# Si number density = 19.631087 Si / 1000 Ang^3
#
#
#
# Elastic Constant Matrix: (Units=GPa)
#
#
# Indices 1 2 3 4 5 6 
#
# 1 134.8743 45.2085 39.1983 0.0000 0.0000 0.0000
# 2 45.2085 115.6494 53.5432 0.0000 0.0000 0.0000
# 3 39.1983 53.5432 87.7934 0.0000 0.0000 0.0000
# 4 0.0000 0.0000 0.0000 34.6336 0.0000 0.0000
# 5 0.0000 0.0000 0.0000 0.0000 26.7654 0.0000
# 6 0.0000 0.0000 0.0000 0.0000 0.0000 22.1082
#
#
#
# Elastic Compliance Matrix: (Units=1/GPa)
#
#
# Indices 1 2 3 4 5 6 
#
# 1 0.008936 -0.002294 -0.002591 0.000000 0.000000 0.000000
# 2 -0.002294 0.012638 -0.006683 0.000000 0.000000 0.000000
# 3 -0.002591 -0.006683 0.016623 0.000000 0.000000 0.000000
# 4 0.000000 0.000000 0.000000 0.028874 0.000000 0.000000
# 5 0.000000 0.000000 0.000000 0.000000 0.037362 0.000000
# 6 0.000000 0.000000 0.000000 0.000000 0.000000 0.045232
#
#
# Mechanical properties :
#
#
# Convention : Reuss Voigt Hill
#
# Bulk Modulus (GPa) = 66.39640 68.24635 67.32138
# Shear Modulus (GPa) = 28.11818 30.05924 29.08871
#
# Velocity S-wave (km/s) = 3.78872 3.91731 3.85355
# Velocity P-wave (km/s) = 7.28249 7.43642 7.35986
#
# Compressibility (1/GPa) = 0.01506106
#
# Stress axis : x y z
#
# Youngs Moduli (GPa) = 111.90521 79.12844 60.15671
#
# Poissons Ratio (x) = 0.18149 0.15587
# Poissons Ratio (y) = 0.25667 0.40205
# Poissons Ratio (z) = 0.28995 0.52884
#
# Static dielectric constant tensor:
#      x y z
#    x 3.731720 0.000000 0.000000 
#    y 0.000000 3.567680 0.000000 
#    z 0.000000 0.000000 3.414770 
# 
# 
# High freq. dielectric constant tensor:
#      x y z
#    x 1.773570 0.000000 0.000000 
#    y 0.000000 1.760330 0.000000 
#    z 0.000000 0.000000 1.752180 
# 
# From -- ./inp_files/8784.got.cif
#   From: 2010.03.12/outbox.cif.g09.slc.cpg/sg63_5_cif.got.tgz:8784.got - 2010.04.10 19:34:48.
