data_PCOD8258096
_publ_section_title
;
Structure prediction by ZEFSAII (Michael W. Deem and Ramdas Pophale) SiO2 
 PCOD8258096
Probable space group: C M C M
;
_chemical_formula_sum "Si O2"
_cell_formula_units_Z 96
_cell_length_a 15.994386
_cell_length_b 18.486514
_cell_length_c 18.134167
_cell_angle_alpha 90.000000
_cell_angle_beta 90.000000
_cell_angle_gamma 90.000000
_cell_volume 5361.918490
_symmetry_space_group_name_H-M "C M C M"
_symmetry_group_IT_number 63
_symmetry_cell_setting 'orthorhombic'
loop_
_space_group_symop_operation_xyz
x,y,z
-x,-y,1/2+z
x,-y,-z
-x,y,1/2-z
-x,-y,-z
x,y,1/2-z
-x,y,z
x,-y,1/2+z
1/2+x,1/2+y,z
1/2-x,1/2-y,1/2+z
1/2+x,1/2-y,-z
1/2-x,1/2+y,1/2-z
1/2-x,1/2-y,-z
1/2+x,1/2+y,1/2-z
1/2-x,1/2+y,z
1/2+x,1/2-y,1/2+z
loop_
_atom_site_type_symbol
_atom_site_label
_atom_site_fract_x
_atom_site_fract_y
_atom_site_fract_z
Si Si1 0.906232 0.396544 0.663372
Si Si2 0.668261 0.363548 0.939254
Si Si3 0.500000 0.425507 0.337476
Si Si4 0.177873 0.130270 0.892516
Si Si5 0.286558 0.006277 0.084246
Si Si6 0.500000 0.556953 0.068322
Si Si7 0.271919 0.778779 0.834085
O O1 0.908172 0.406061 0.750000
O O2 0.867706 0.470635 0.630754
O O3 0.851815 0.326536 0.640252
O O4 0.000000 0.385438 0.632261
O O5 0.717632 0.432357 0.909817
O O6 0.573424 0.385906 0.932804
O O7 0.692821 0.296229 0.886823
O O8 0.686209 0.342603 0.023591
O O9 0.500000 0.413953 0.250000
O O10 0.417197 0.390828 0.373321
O O11 0.500000 0.510696 0.356447
O O12 0.205134 0.194784 0.839260
O O13 0.243366 0.064820 0.881363
O O14 0.315739 0.000000 0.000000
O O15 0.500000 0.500000 0.000000
O O16 0.247435 0.796854 0.750000
#
# Coordination Sequence:
#
# PCOD8258096 Si02
#       7
#    16  16   8  16  16   8  16
#     4   9  19  35  52  72 102 140 175 215 273 329
#     4  10  19  36  59  79 110 153 188 217 279 344
#     4  12  24  32  54  92 118 141 179 237 299 331
#     4  11  20  36  56  82 114 145 182 230 284 338
#     4   9  18  33  57  80 103 136 181 230 268 321
#     4  12  18  38  60  84 116 149 185 234 274 339
#     4  10  22  36  53  79 112 144 184 233 279 333
#
# _framework density 17.904039000000001
#
# number of rings (size 3 to 8) (size 9 to 14) (size 15 to 20)
#    0.000    1.833    3.333    1.500    1.167    2.333 
#    0.000    0.000    1.833    0.000    0.000    0.000 
#    0.000    0.000    0.000    0.000    0.000    0.000 
#
# Total GULP energy -595088.258843 kJ/mol
# GULP energy per Si atom -12397.672059 kJ/mol
# Density = 1.786329 g / cm^3
# Si number density = 17.904039 Si / 1000 Ang^3
#
#
#
# Elastic Constant Matrix: (Units=GPa)
#
#
# Indices 1 2 3 4 5 6 
#
# 1 100.2623 36.9222 32.4828 0.0000 0.0000 0.0000
# 2 36.9222 82.6158 25.7112 0.0000 0.0000 0.0000
# 3 32.4828 25.7112 63.6754 0.0000 0.0000 0.0000
# 4 0.0000 0.0000 0.0000 31.7405 0.0000 0.0000
# 5 0.0000 0.0000 0.0000 0.0000 23.4253 0.0000
# 6 0.0000 0.0000 0.0000 0.0000 0.0000 14.1975
#
#
#
# Elastic Compliance Matrix: (Units=1/GPa)
#
#
# Indices 1 2 3 4 5 6 
#
# 1 0.013185 -0.004345 -0.004971 0.000000 0.000000 0.000000
# 2 -0.004345 0.015276 -0.003952 0.000000 0.000000 0.000000
# 3 -0.004971 -0.003952 0.019836 0.000000 0.000000 0.000000
# 4 0.000000 0.000000 0.000000 0.031506 0.000000 0.000000
# 5 0.000000 0.000000 0.000000 0.000000 0.042689 0.000000
# 6 0.000000 0.000000 0.000000 0.000000 0.000000 0.070435
#
#
# Mechanical properties :
#
#
# Convention : Reuss Voigt Hill
#
# Bulk Modulus (GPa) = 45.95475 48.53180 47.24328
# Shear Modulus (GPa) = 22.05402 23.96847 23.01124
#
# Velocity S-wave (km/s) = 3.51349 3.66282 3.58893
# Velocity P-wave (km/s) = 6.49481 6.71221 6.60440
#
# Compressibility (1/GPa) = 0.02176053
#
# Stress axis : x y z
#
# Youngs Moduli (GPa) = 75.84604 65.46234 50.41270
#
# Poissons Ratio (x) = 0.28445 0.25062
# Poissons Ratio (y) = 0.32957 0.19921
# Poissons Ratio (z) = 0.37706 0.25868
#
# Static dielectric constant tensor:
#      x y z
#    x 3.546150 0.000000 0.000000 
#    y 0.000000 3.267600 0.000000 
#    z 0.000000 0.000000 3.391530 
# 
# 
# High freq. dielectric constant tensor:
#      x y z
#    x 1.688110 0.000000 0.000000 
#    y 0.000000 1.682510 0.000000 
#    z 0.000000 0.000000 1.694280 
# 
# From -- ./inp_files/45815.got.cif
#   From: 2010.03.12/outbox.cif.g09.slc.cpg/sg63_23_cif.got.tgz:45815.got - 2010.04.10 19:34:48.
