data_PCOD8258251
_publ_section_title
;
Structure prediction by ZEFSAII (Michael W. Deem and Ramdas Pophale) SiO2 
 PCOD8258251
Probable space group: C M C M
;
_chemical_formula_sum "Si O2"
_cell_formula_units_Z 64
_cell_length_a 17.672408
_cell_length_b 8.975013
_cell_length_c 20.562970
_cell_angle_alpha 90.000000
_cell_angle_beta 90.000000
_cell_angle_gamma 90.000000
_cell_volume 3261.494554
_symmetry_space_group_name_H-M "C M C M"
_symmetry_group_IT_number 63
_symmetry_cell_setting 'orthorhombic'
loop_
_space_group_symop_operation_xyz
x,y,z
-x,-y,1/2+z
x,-y,-z
-x,y,1/2-z
-x,-y,-z
x,y,1/2-z
-x,y,z
x,-y,1/2+z
1/2+x,1/2+y,z
1/2-x,1/2-y,1/2+z
1/2+x,1/2-y,-z
1/2-x,1/2+y,1/2-z
1/2-x,1/2-y,-z
1/2+x,1/2+y,1/2-z
1/2-x,1/2+y,z
1/2+x,1/2-y,1/2+z
loop_
_atom_site_type_symbol
_atom_site_label
_atom_site_fract_x
_atom_site_fract_y
_atom_site_fract_z
Si Si1 0.349408 0.757487 0.969855
Si Si2 0.649011 0.758696 0.378787
Si Si3 0.742969 0.495791 0.590418
Si Si4 0.500000 0.137108 0.676240
Si Si5 0.500000 0.899069 0.564501
O O1 0.317747 0.600354 0.945557
O O2 0.425621 0.797004 0.931117
O O3 0.285627 0.886113 0.961289
O O4 0.371748 0.749135 0.045072
O O5 0.697485 0.612176 0.359826
O O6 0.697690 0.909296 0.367121
O O7 0.573813 0.761479 0.335878
O O8 0.500000 0.079598 0.750000
O O9 0.500000 0.997785 0.628691
O O10 0.500000 0.000000 0.500000
#
# Coordination Sequence:
#
# PCOD8258251 Si02
#       5
#    16  16  16   8   8
#     4  11  18  32  58  93 122 145 183 238 295 344
#     4  11  19  36  57  87 121 150 188 232 292 347
#     4  10  20  31  59  96 123 144 180 242 296 347
#     4  12  26  41  57  79 117 162 201 242 293 352
#     4  12  20  37  59  86 111 156 199 244 292 349
#
# _framework density 19.622904999999999
#
# number of rings (size 3 to 8) (size 9 to 14) (size 15 to 20)
#    0.000    1.000    5.000    6.000    0.000    1.000 
#    0.000    3.750    0.000    3.000    0.000    0.000 
#    0.000    0.000    0.000    0.000    0.000    0.000 
#
# Total GULP energy -396781.465972 kJ/mol
# GULP energy per Si atom -12399.420812 kJ/mol
# Density = 1.957824 g / cm^3
# Si number density = 19.622905 Si / 1000 Ang^3
#
#
#
# Elastic Constant Matrix: (Units=GPa)
#
#
# Indices 1 2 3 4 5 6 
#
# 1 123.2383 49.2854 40.6156 0.0000 0.0000 0.0000
# 2 49.2854 124.3076 23.0528 0.0000 0.0000 0.0000
# 3 40.6156 23.0528 75.4129 0.0000 0.0000 0.0000
# 4 0.0000 0.0000 0.0000 13.9030 0.0000 0.0000
# 5 0.0000 0.0000 0.0000 0.0000 12.8926 0.0000
# 6 0.0000 0.0000 0.0000 0.0000 0.0000 32.8987
#
#
#
# Elastic Compliance Matrix: (Units=1/GPa)
#
#
# Indices 1 2 3 4 5 6 
#
# 1 0.011139 -0.003503 -0.004929 0.000000 0.000000 0.000000
# 2 -0.003503 0.009629 -0.001057 0.000000 0.000000 0.000000
# 3 -0.004929 -0.001057 0.016238 0.000000 0.000000 0.000000
# 4 0.000000 0.000000 0.000000 0.071927 0.000000 0.000000
# 5 0.000000 0.000000 0.000000 0.000000 0.077564 0.000000
# 6 0.000000 0.000000 0.000000 0.000000 0.000000 0.030396
#
#
# Mechanical properties :
#
#
# Convention : Reuss Voigt Hill
#
# Bulk Modulus (GPa) = 55.46368 60.98516 58.22442
# Shear Modulus (GPa) = 20.67130 25.93916 23.30523
#
# Velocity S-wave (km/s) = 3.24917 3.63971 3.44997
# Velocity P-wave (km/s) = 6.51171 6.98637 6.75321
#
# Compressibility (1/GPa) = 0.01802982
#
# Stress axis : x y z
#
# Youngs Moduli (GPa) = 89.77096 103.84977 61.58382
#
# Poissons Ratio (x) = 0.36374 0.30353
# Poissons Ratio (y) = 0.31442 0.06511
# Poissons Ratio (z) = 0.44246 0.10979
#
# Static dielectric constant tensor:
#      x y z
#    x 4.024390 0.000000 0.000000 
#    y 0.000000 3.933780 0.000000 
#    z 0.000000 0.000000 2.947570 
# 
# 
# High freq. dielectric constant tensor:
#      x y z
#    x 1.785770 0.000000 0.000000 
#    y 0.000000 1.774720 0.000000 
#    z 0.000000 0.000000 1.695070 
# 
# From -- ./inp_files/55042.got.cif
#   From: 2010.03.12/outbox.cif.g09.slc.cpg/sg63_28_cif.got.tgz:55042.got - 2010.04.10 19:34:48.
