data_PCOD8258444
_publ_section_title
;
Structure prediction by ZEFSAII (Michael W. Deem and Ramdas Pophale) SiO2 
 PCOD8258444
Probable space group: C M C M
;
_chemical_formula_sum "Si O2"
_cell_formula_units_Z 120
_cell_length_a 26.952877
_cell_length_b 27.634591
_cell_length_c 9.264549
_cell_angle_alpha 90.000000
_cell_angle_beta 90.000000
_cell_angle_gamma 90.000000
_cell_volume 6900.530079
_symmetry_space_group_name_H-M "C M C M"
_symmetry_group_IT_number 63
_symmetry_cell_setting 'orthorhombic'
loop_
_space_group_symop_operation_xyz
x,y,z
-x,-y,1/2+z
x,-y,-z
-x,y,1/2-z
-x,-y,-z
x,y,1/2-z
-x,y,z
x,-y,1/2+z
1/2+x,1/2+y,z
1/2-x,1/2-y,1/2+z
1/2+x,1/2-y,-z
1/2-x,1/2+y,1/2-z
1/2-x,1/2-y,-z
1/2+x,1/2+y,1/2-z
1/2-x,1/2+y,z
1/2+x,1/2-y,1/2+z
loop_
_atom_site_type_symbol
_atom_site_label
_atom_site_fract_x
_atom_site_fract_y
_atom_site_fract_z
Si Si1 0.117075 0.452796 0.580526
Si Si2 0.197964 0.598436 0.914841
Si Si3 0.944401 0.641212 0.081033
Si Si4 0.205817 0.776569 0.918034
Si Si5 0.192364 0.124532 0.917970
Si Si6 0.107990 0.949132 0.081107
Si Si7 0.135875 0.309212 0.412793
Si Si8 0.000000 0.048532 0.585157
O O1 0.096565 0.500000 0.500000
O O2 0.120781 0.462318 0.750000
O O3 0.171595 0.439748 0.520234
O O4 0.078777 0.410512 0.540633
O O5 0.185085 0.584628 0.750000
O O6 0.256520 0.595705 0.942696
O O7 0.179358 0.652627 0.951922
O O8 0.943985 0.649795 0.250000
O O9 0.000000 0.643117 0.018886
O O10 0.912194 0.684086 0.012263
O O11 0.220526 0.782439 0.750000
O O12 0.156593 0.744353 0.935718
O O13 0.250000 0.750000 0.000000
O O14 0.192194 0.827736 0.985963
O O15 0.186385 0.139152 0.750000
O O16 0.148106 0.089930 0.972567
O O17 0.115802 0.959557 0.250000
O O18 0.052838 0.925327 0.050324
O O19 0.115354 0.000000 0.000000
O O20 0.118094 0.317621 0.250000
O O21 0.000000 0.033112 0.750000
O O22 0.000000 0.000000 0.500000
#
# Coordination Sequence:
#
# PCOD8258444 Si02
#       8
#    16  16  16  16  16  16  16   8
#     4  10  20  33  49  71  99 133 171 211 259 309
#     4   9  17  32  49  67  97 131 166 206 250 304
#     4   9  19  35  54  76 100 128 170 220 263 309
#     4  11  21  34  54  80 107 137 173 212 254 304
#     4  10  20  34  51  77 108 139 170 211 258 304
#     4   9  18  32  52  75 104 136 172 212 254 300
#     4   9  18  33  52  74  99 130 168 208 253 306
#     4   8  14  28  50  74  94 126 168 208 248 296
#
# _framework density 17.389969000000001
#
# number of rings (size 3 to 8) (size 9 to 14) (size 15 to 20)
#    0.000    2.533    1.333    0.800    0.000    3.733 
#    0.000    1.333    1.467    0.000    0.000    0.000 
#    0.000    0.000    0.000    0.000    0.000    0.000 
#
# Total GULP energy -743807.863798 kJ/mol
# GULP energy per Si atom -12396.797730 kJ/mol
# Density = 1.735039 g / cm^3
# Si number density = 17.389969 Si / 1000 Ang^3
#
#
#
# Elastic Constant Matrix: (Units=GPa)
#
#
# Indices 1 2 3 4 5 6 
#
# 1 144.1384 51.2717 47.9994 0.0000 0.0000 0.0000
# 2 51.2717 79.8885 44.5899 0.0000 0.0000 0.0000
# 3 47.9994 44.5899 69.1815 0.0000 0.0000 0.0000
# 4 0.0000 0.0000 0.0000 31.9204 0.0000 0.0000
# 5 0.0000 0.0000 0.0000 0.0000 25.0018 0.0000
# 6 0.0000 0.0000 0.0000 0.0000 0.0000 18.7573
#
#
#
# Elastic Compliance Matrix: (Units=1/GPa)
#
#
# Indices 1 2 3 4 5 6 
#
# 1 0.009732 -0.003869 -0.004259 0.000000 0.000000 0.000000
# 2 -0.003869 0.021089 -0.010908 0.000000 0.000000 0.000000
# 3 -0.004259 -0.010908 0.024440 0.000000 0.000000 0.000000
# 4 0.000000 0.000000 0.000000 0.031328 0.000000 0.000000
# 5 0.000000 0.000000 0.000000 0.000000 0.039997 0.000000
# 6 0.000000 0.000000 0.000000 0.000000 0.000000 0.053313
#
#
# Mechanical properties :
#
#
# Convention : Reuss Voigt Hill
#
# Bulk Modulus (GPa) = 58.17467 64.54780 61.36123
# Shear Modulus (GPa) = 22.35131 25.09240 23.72186
#
# Velocity S-wave (km/s) = 3.58900 3.80270 3.69739
# Velocity P-wave (km/s) = 7.12040 7.51526 7.32050
#
# Compressibility (1/GPa) = 0.01718961
#
# Stress axis : x y z
#
# Youngs Moduli (GPa) = 102.75150 47.41815 40.91636
#
# Poissons Ratio (x) = 0.18346 0.17425
# Poissons Ratio (y) = 0.39755 0.44632
# Poissons Ratio (z) = 0.43758 0.51724
#
# Static dielectric constant tensor:
#      x y z
#    x 3.552770 0.000000 0.000000 
#    y 0.000000 3.065500 0.000000 
#    z 0.000000 0.000000 3.257670 
# 
# 
# High freq. dielectric constant tensor:
#      x y z
#    x 1.673840 0.000000 0.000000 
#    y 0.000000 1.650350 0.000000 
#    z 0.000000 0.000000 1.674800 
# 
# From -- ./inp_files/13159.got.cif
#   From: 2010.03.12/outbox.cif.g09.slc.cpg/sg63_7_cif.got.tgz:13159.got - 2010.04.10 19:34:48.
