data_PCOD8258677
_publ_section_title
;
Structure prediction by ZEFSAII (Michael W. Deem and Ramdas Pophale) SiO2 
 PCOD8258677
Probable space group: C M C M
;
_chemical_formula_sum "Si O2"
_cell_formula_units_Z 104
_cell_length_a 17.639089
_cell_length_b 13.095632
_cell_length_c 24.892644
_cell_angle_alpha 90.000000
_cell_angle_beta 90.000000
_cell_angle_gamma 90.000000
_cell_volume 5750.076758
_symmetry_space_group_name_H-M "C M C M"
_symmetry_group_IT_number 63
_symmetry_cell_setting 'orthorhombic'
loop_
_space_group_symop_operation_xyz
x,y,z
-x,-y,1/2+z
x,-y,-z
-x,y,1/2-z
-x,-y,-z
x,y,1/2-z
-x,y,z
x,-y,1/2+z
1/2+x,1/2+y,z
1/2-x,1/2-y,1/2+z
1/2+x,1/2-y,-z
1/2-x,1/2+y,1/2-z
1/2-x,1/2-y,-z
1/2+x,1/2+y,1/2-z
1/2-x,1/2+y,z
1/2+x,1/2-y,1/2+z
loop_
_atom_site_type_symbol
_atom_site_label
_atom_site_fract_x
_atom_site_fract_y
_atom_site_fract_z
Si Si1 0.588699 0.295453 0.476341
Si Si2 0.728556 0.965627 0.395964
Si Si3 0.822889 0.000000 0.500000
Si Si4 0.586248 0.907996 0.041651
Si Si5 0.162758 0.394179 0.812733
Si Si6 0.000000 0.851916 0.310224
Si Si7 0.853023 0.185230 0.638126
Si Si8 0.500000 0.891616 0.810110
O O1 0.500000 0.315609 0.470919
O O2 0.626159 0.398732 0.498789
O O3 0.606500 0.199971 0.514359
O O4 0.622550 0.265563 0.418575
O O5 0.769791 0.010600 0.448140
O O6 0.645550 0.922002 0.410128
O O7 0.777053 0.877923 0.368574
O O8 0.724022 0.052666 0.350533
O O9 0.500000 0.906620 0.064165
O O10 0.595825 0.000000 0.000000
O O11 0.175577 0.421246 0.750000
O O12 0.167784 0.272340 0.819015
O O13 0.079153 0.430789 0.835135
O O14 0.077427 0.886669 0.340390
O O15 0.000000 0.896529 0.250000
O O16 0.000000 0.730226 0.311688
O O17 0.500000 0.931616 0.750000
#
# Coordination Sequence:
#
# PCOD8258677 Si02
#       8
#    16  16   8  16  16   8  16   8
#     4  10  20  36  58  81 112 151 188 232 274 342
#     4  11  23  35  55  84 115 151 183 229 282 342
#     4  10  23  36  55  84 120 148 188 230 283 337
#     4  10  21  36  55  81 115 153 190 230 280 338
#     4  10  21  36  55  79 109 145 188 233 279 331
#     4   9  16  32  54  78 105 133 181 233 282 323
#     4  10  20  33  56  81 110 140 182 231 286 326
#     4   7  14  30  52  74  96 132 174 229 275 313
#
# _framework density 18.086715999999999
#
# number of rings (size 3 to 8) (size 9 to 14) (size 15 to 20)
#    0.000    2.154    1.538    2.538    3.231    2.462 
#    0.000    0.000    0.000    0.000    0.000    0.000 
#    0.000    0.000    0.000    0.000    0.000    0.000 
#
# Total GULP energy -644501.494052 kJ/mol
# GULP energy per Si atom -12394.259501 kJ/mol
# Density = 1.804555 g / cm^3
# Si number density = 18.086716 Si / 1000 Ang^3
#
#
#
# Elastic Constant Matrix: (Units=GPa)
#
#
# Indices 1 2 3 4 5 6 
#
# 1 109.0874 43.4107 43.1915 0.0000 0.0000 0.0000
# 2 43.4107 78.3021 37.0159 0.0000 0.0000 0.0000
# 3 43.1915 37.0159 72.4832 0.0000 0.0000 0.0000
# 4 0.0000 0.0000 0.0000 23.0007 0.0000 0.0000
# 5 0.0000 0.0000 0.0000 0.0000 22.4318 0.0000
# 6 0.0000 0.0000 0.0000 0.0000 0.0000 20.4705
#
#
#
# Elastic Compliance Matrix: (Units=1/GPa)
#
#
# Indices 1 2 3 4 5 6 
#
# 1 0.013215 -0.004751 -0.005448 0.000000 0.000000 0.000000
# 2 -0.004751 0.018543 -0.006639 0.000000 0.000000 0.000000
# 3 -0.005448 -0.006639 0.020433 0.000000 0.000000 0.000000
# 4 0.000000 0.000000 0.000000 0.043477 0.000000 0.000000
# 5 0.000000 0.000000 0.000000 0.000000 0.044580 0.000000
# 6 0.000000 0.000000 0.000000 0.000000 0.000000 0.048851
#
#
# Mechanical properties :
#
#
# Convention : Reuss Voigt Hill
#
# Bulk Modulus (GPa) = 54.00900 56.34544 55.17722
# Shear Modulus (GPa) = 21.83924 22.26424 22.05174
#
# Velocity S-wave (km/s) = 3.47864 3.51233 3.49553
# Velocity P-wave (km/s) = 6.78679 6.90429 6.84579
#
# Compressibility (1/GPa) = 0.01851543
#
# Stress axis : x y z
#
# Youngs Moduli (GPa) = 75.67383 53.92815 48.93985
#
# Poissons Ratio (x) = 0.25619 0.26664
# Poissons Ratio (y) = 0.35949 0.32491
# Poissons Ratio (z) = 0.41230 0.35802
#
# Static dielectric constant tensor:
#      x y z
#    x 3.675650 0.000000 0.000000 
#    y 0.000000 3.067340 0.000000 
#    z 0.000000 0.000000 3.307250 
# 
# 
# High freq. dielectric constant tensor:
#      x y z
#    x 1.714900 0.000000 0.000000 
#    y 0.000000 1.670420 0.000000 
#    z 0.000000 0.000000 1.695550 
# 
# From -- ./inp_files/55667.got.cif
#   From: 2010.03.12/outbox.cif.g09.slc.cpg/sg63_28_cif.got.tgz:55667.got - 2010.04.10 19:34:48.
