data_PCOD8258433
_publ_section_title
;
Structure prediction by ZEFSAII (Michael W. Deem and Ramdas Pophale) SiO2 
 PCOD8258433
Probable space group: C M C M
;
_chemical_formula_sum "Si O2"
_cell_formula_units_Z 80
_cell_length_a 27.728391
_cell_length_b 20.479620
_cell_length_c 8.732863
_cell_angle_alpha 90.000000
_cell_angle_beta 90.000000
_cell_angle_gamma 90.000000
_cell_volume 4959.103935
_symmetry_space_group_name_H-M "C M C M"
_symmetry_group_IT_number 63
_symmetry_cell_setting 'orthorhombic'
loop_
_space_group_symop_operation_xyz
x,y,z
-x,-y,1/2+z
x,-y,-z
-x,y,1/2-z
-x,-y,-z
x,y,1/2-z
-x,y,z
x,-y,1/2+z
1/2+x,1/2+y,z
1/2-x,1/2-y,1/2+z
1/2+x,1/2-y,-z
1/2-x,1/2+y,1/2-z
1/2-x,1/2-y,-z
1/2+x,1/2+y,1/2-z
1/2-x,1/2+y,z
1/2+x,1/2-y,1/2+z
loop_
_atom_site_type_symbol
_atom_site_label
_atom_site_fract_x
_atom_site_fract_y
_atom_site_fract_z
Si Si1 0.446130 0.221222 0.924788
Si Si2 0.817558 0.068388 0.930575
Si Si3 0.285361 0.931287 0.931708
Si Si4 0.865117 0.186770 0.423460
Si Si5 0.144784 0.316112 0.929587
O O1 0.447510 0.196538 0.750000
O O2 0.500000 0.223058 0.994949
O O3 0.422188 0.294094 0.931681
O O4 0.411450 0.172214 0.021313
O O5 0.812754 0.061125 0.750000
O O6 0.766288 0.088792 0.001036
O O7 0.856350 0.123563 0.972841
O O8 0.835597 0.000000 0.000000
O O9 0.281403 0.936923 0.750000
O O10 0.323706 0.877197 0.984543
O O11 0.302925 0.000000 0.000000
O O12 0.848348 0.172593 0.250000
O O13 0.835626 0.249925 0.488166
O O14 0.148646 0.305813 0.750000
#
# Coordination Sequence:
#
# PCOD8258433 Si02
#       5
#    16  16  16  16  16
#     4   8  16  31  51  73  96 124 156 194 242 290
#     4  11  21  33  50  70  97 130 165 197 236 284
#     4  10  20  33  49  69  98 131 165 197 237 285
#     4   9  18  32  50  72  98 126 159 198 238 283
#     4   9  18  31  48  74  98 124 159 200 240 282
#
# _framework density 16.131945999999999
#
# number of rings (size 3 to 8) (size 9 to 14) (size 15 to 20)
#    1.200    1.400    0.000    4.200    0.000    4.400 
#    0.000    0.000    0.000    1.200    0.000    0.000 
#    0.000    0.000    0.000    0.000    0.000    0.000 
#
# Total GULP energy -495616.899746 kJ/mol
# GULP energy per Si atom -12390.422494 kJ/mol
# Density = 1.609523 g / cm^3
# Si number density = 16.131946 Si / 1000 Ang^3
#
#
#
# Elastic Constant Matrix: (Units=GPa)
#
#
# Indices 1 2 3 4 5 6 
#
# 1 37.7434 9.5697 9.5786 0.0000 0.0000 0.0000
# 2 9.5697 51.7376 17.9342 0.0000 0.0000 0.0000
# 3 9.5786 17.9342 72.8867 0.0000 0.0000 0.0000
# 4 0.0000 0.0000 0.0000 28.8354 0.0000 0.0000
# 5 0.0000 0.0000 0.0000 0.0000 21.1093 0.0000
# 6 0.0000 0.0000 0.0000 0.0000 0.0000 10.0031
#
#
#
# Elastic Compliance Matrix: (Units=1/GPa)
#
#
# Indices 1 2 3 4 5 6 
#
# 1 0.028260 -0.004307 -0.002654 0.000000 0.000000 0.000000
# 2 -0.004307 0.021787 -0.004795 0.000000 0.000000 0.000000
# 3 -0.002654 -0.004795 0.015249 0.000000 0.000000 0.000000
# 4 0.000000 0.000000 0.000000 0.034680 0.000000 0.000000
# 5 0.000000 0.000000 0.000000 0.000000 0.047372 0.000000
# 6 0.000000 0.000000 0.000000 0.000000 0.000000 0.099969
#
#
# Mechanical properties :
#
#
# Convention : Reuss Voigt Hill
#
# Bulk Modulus (GPa) = 23.93277 26.28141 25.10709
# Shear Modulus (GPa) = 17.55883 20.34191 18.95037
#
# Velocity S-wave (km/s) = 3.30275 3.55487 3.43112
# Velocity P-wave (km/s) = 5.42329 5.75989 5.59412
#
# Compressibility (1/GPa) = 0.04178372
#
# Stress axis : x y z
#
# Youngs Moduli (GPa) = 35.38532 45.89892 65.58020
#
# Poissons Ratio (x) = 0.19769 0.17406
# Poissons Ratio (y) = 0.15241 0.31444
# Poissons Ratio (z) = 0.09392 0.22007
#
# Static dielectric constant tensor:
#      x y z
#    x 2.935680 0.000000 0.000000 
#    y 0.000000 2.950090 0.000000 
#    z 0.000000 0.000000 3.088370 
# 
# 
# High freq. dielectric constant tensor:
#      x y z
#    x 1.596580 0.000000 0.000000 
#    y 0.000000 1.605050 0.000000 
#    z 0.000000 0.000000 1.635410 
# 
# From -- ./inp_files/12006.got.cif
#   From: 2010.03.12/outbox.cif.g09.slc.cpg/sg63_7_cif.got.tgz:12006.got - 2010.04.10 19:34:48.
