data_PCOD8258324
_publ_section_title
;
Structure prediction by ZEFSAII (Michael W. Deem and Ramdas Pophale) SiO2 
 PCOD8258324
Probable space group: C M C M
;
_chemical_formula_sum "Si O2"
_cell_formula_units_Z 96
_cell_length_a 9.120442
_cell_length_b 24.699256
_cell_length_c 24.840209
_cell_angle_alpha 90.000000
_cell_angle_beta 90.000000
_cell_angle_gamma 90.000000
_cell_volume 5595.707475
_symmetry_space_group_name_H-M "C M C M"
_symmetry_group_IT_number 63
_symmetry_cell_setting 'orthorhombic'
loop_
_space_group_symop_operation_xyz
x,y,z
-x,-y,1/2+z
x,-y,-z
-x,y,1/2-z
-x,-y,-z
x,y,1/2-z
-x,y,z
x,-y,1/2+z
1/2+x,1/2+y,z
1/2-x,1/2-y,1/2+z
1/2+x,1/2-y,-z
1/2-x,1/2+y,1/2-z
1/2-x,1/2-y,-z
1/2+x,1/2+y,1/2-z
1/2-x,1/2+y,z
1/2+x,1/2-y,1/2+z
loop_
_atom_site_type_symbol
_atom_site_label
_atom_site_fract_x
_atom_site_fract_y
_atom_site_fract_z
Si Si1 0.329524 0.565909 0.895757
Si Si2 0.331957 0.136409 0.313611
Si Si3 0.162204 0.759717 0.686114
Si Si4 0.670789 0.560688 0.392284
Si Si5 0.334318 0.935653 0.998334
Si Si6 0.670874 0.860849 0.312520
O O1 0.500000 0.577918 0.903879
O O2 0.299537 0.502806 0.885948
O O3 0.246067 0.587253 0.948827
O O4 0.270272 0.597012 0.844101
O O5 0.311246 0.130838 0.250000
O O6 0.500000 0.130448 0.331036
O O7 0.275562 0.194959 0.334378
O O8 0.237842 0.088912 0.339965
O O9 0.155315 0.758845 0.750000
O O10 0.210729 0.699832 0.667047
O O11 0.000000 0.773571 0.663503
O O12 0.500000 0.573949 0.396664
O O13 0.748909 0.584524 0.445454
O O14 0.500000 0.913257 0.996829
O O15 0.331659 0.000000 0.000000
O O16 0.709405 0.867862 0.250000
O O17 0.500000 0.872967 0.322947
#
# Coordination Sequence:
#
# PCOD8258324 Si02
#       6
#    16  16  16  16  16  16
#     4  10  20  32  48  72 100 129 161 197 238 284
#     4  10  20  32  48  72  99 127 161 200 240 283
#     4   8  15  30  50  69  91 123 162 199 236 281
#     4  10  20  33  49  70  98 130 162 197 238 285
#     4   9  17  31  51  71  92 122 161 201 238 280
#     4   9  18  32  50  72  98 129 163 198 238 284
#
# _framework density 17.156008
#
# number of rings (size 3 to 8) (size 9 to 14) (size 15 to 20)
#    0.000    2.667    0.000    3.000    0.000    6.667 
#    0.000    5.000    0.000    1.000    0.000    0.000 
#    0.000    0.000    0.000    0.000    0.000    0.000 
#
# Total GULP energy -595174.964236 kJ/mol
# GULP energy per Si atom -12399.478422 kJ/mol
# Density = 1.711696 g / cm^3
# Si number density = 17.156008 Si / 1000 Ang^3
#
#
#
# Elastic Constant Matrix: (Units=GPa)
#
#
# Indices 1 2 3 4 5 6 
#
# 1 129.5367 60.0281 56.3536 0.0000 0.0000 0.0000
# 2 60.0281 68.2343 42.9158 0.0000 0.0000 0.0000
# 3 56.3536 42.9158 70.7790 0.0000 0.0000 0.0000
# 4 0.0000 0.0000 0.0000 3.1059 0.0000 0.0000
# 5 0.0000 0.0000 0.0000 0.0000 33.0496 0.0000
# 6 0.0000 0.0000 0.0000 0.0000 0.0000 28.0234
#
#
#
# Elastic Compliance Matrix: (Units=1/GPa)
#
#
# Indices 1 2 3 4 5 6 
#
# 1 0.014529 -0.008900 -0.006171 0.000000 0.000000 0.000000
# 2 -0.008900 0.029142 -0.010583 0.000000 0.000000 0.000000
# 3 -0.006171 -0.010583 0.025459 0.000000 0.000000 0.000000
# 4 0.000000 0.000000 0.000000 0.321970 0.000000 0.000000
# 5 0.000000 0.000000 0.000000 0.000000 0.030258 0.000000
# 6 0.000000 0.000000 0.000000 0.000000 0.000000 0.035684
#
#
# Mechanical properties :
#
#
# Convention : Reuss Voigt Hill
#
# Bulk Modulus (GPa) = 56.11695 65.23836 60.67766
# Shear Modulus (GPa) = 9.72211 20.11929 14.92070
#
# Velocity S-wave (km/s) = 2.38310 3.42822 2.95228
# Velocity P-wave (km/s) = 6.35241 7.33344 6.86048
#
# Compressibility (1/GPa) = 0.01781993
#
# Stress axis : x y z
#
# Youngs Moduli (GPa) = 68.82778 34.31524 39.27877
#
# Poissons Ratio (x) = 0.30541 0.24240
# Poissons Ratio (y) = 0.61258 0.41570
# Poissons Ratio (z) = 0.42476 0.36317
#
# Static dielectric constant tensor:
#      x y z
#    x 3.366120 0.000000 0.000000 
#    y 0.000000 3.123270 0.000000 
#    z 0.000000 0.000000 3.067670 
# 
# 
# High freq. dielectric constant tensor:
#      x y z
#    x 1.674600 0.000000 0.000000 
#    y 0.000000 1.642610 0.000000 
#    z 0.000000 0.000000 1.645780 
# 
# From -- ./inp_files/51349.got.cif
#   From: 2010.03.12/outbox.cif.g09.slc.cpg/sg63_26_cif.got.tgz:51349.got - 2010.04.10 19:34:48.
