data_PCOD8258880
_publ_section_title
;
Structure prediction by ZEFSAII (Michael W. Deem and Ramdas Pophale) SiO2 
 PCOD8258880
Probable space group: C M C M
;
_chemical_formula_sum "Si O2"
_cell_formula_units_Z 80
_cell_length_a 9.429941
_cell_length_b 15.766265
_cell_length_c 28.976865
_cell_angle_alpha 90.000000
_cell_angle_beta 90.000000
_cell_angle_gamma 90.000000
_cell_volume 4308.133919
_symmetry_space_group_name_H-M "C M C M"
_symmetry_group_IT_number 63
_symmetry_cell_setting 'orthorhombic'
loop_
_space_group_symop_operation_xyz
x,y,z
-x,-y,1/2+z
x,-y,-z
-x,y,1/2-z
-x,-y,-z
x,y,1/2-z
-x,y,z
x,-y,1/2+z
1/2+x,1/2+y,z
1/2-x,1/2-y,1/2+z
1/2+x,1/2-y,-z
1/2-x,1/2+y,1/2-z
1/2-x,1/2-y,-z
1/2+x,1/2+y,1/2-z
1/2-x,1/2+y,z
1/2+x,1/2-y,1/2+z
loop_
_atom_site_type_symbol
_atom_site_label
_atom_site_fract_x
_atom_site_fract_y
_atom_site_fract_z
Si Si1 0.666639 0.091026 0.800715
Si Si2 0.159961 0.076282 0.199143
Si Si3 0.831959 0.666197 0.606121
Si Si4 0.164159 0.852222 0.897114
Si Si5 0.333084 0.999469 0.053521
O O1 0.708958 0.127037 0.750000
O O2 0.500000 0.076339 0.804302
O O3 0.719798 0.153739 0.840938
O O4 0.734639 0.000329 0.809763
O O5 0.187588 0.117693 0.250000
O O6 0.183303 0.144128 0.158487
O O7 0.000000 0.040395 0.196874
O O8 0.779580 0.758347 0.588290
O O9 0.774819 0.589471 0.574268
O O10 0.000000 0.666621 0.604498
O O11 0.000000 0.865656 0.910921
O O12 0.256545 0.922035 0.922593
O O13 0.500000 0.009684 0.062296
O O14 0.294579 0.000000 0.000000
#
# Coordination Sequence:
#
# PCOD8258880 Si02
#       5
#    16  16  16  16  16
#     4   9  16  28  50  75  99 134 175 208 243 296
#     4   9  17  29  47  73 104 134 164 202 250 298
#     4   9  18  33  52  76 105 133 167 211 255 304
#     4  10  20  34  54  78 104 135 170 211 255 303
#     4  10  21  38  57  75 101 136 171 215 269 314
#
# _framework density 18.569524999999999
#
# number of rings (size 3 to 8) (size 9 to 14) (size 15 to 20)
#    0.000    2.600    2.000    0.000    0.000    2.000 
#    0.000    6.000    0.000    0.000    0.000    5.600 
#    0.000    0.000    0.000    0.000    0.000    0.000 
#
# Total GULP energy -495687.217247 kJ/mol
# GULP energy per Si atom -12392.180431 kJ/mol
# Density = 1.852726 g / cm^3
# Si number density = 18.569525 Si / 1000 Ang^3
#
#
#
# Elastic Constant Matrix: (Units=GPa)
#
#
# Indices 1 2 3 4 5 6 
#
# 1 26.7212 29.8145 33.2853 0.0000 0.0000 0.0000
# 2 29.8145 148.9360 78.7843 0.0000 0.0000 0.0000
# 3 33.2853 78.7843 124.9262 0.0000 0.0000 0.0000
# 4 0.0000 0.0000 0.0000 12.6495 0.0000 0.0000
# 5 0.0000 0.0000 0.0000 0.0000 18.9005 0.0000
# 6 0.0000 0.0000 0.0000 0.0000 0.0000 22.5468
#
#
#
# Elastic Compliance Matrix: (Units=1/GPa)
#
#
# Indices 1 2 3 4 5 6 
#
# 1 0.058588 -0.005208 -0.012326 0.000000 0.000000 0.000000
# 2 -0.005208 0.010538 -0.005258 0.000000 0.000000 0.000000
# 3 -0.012326 -0.005258 0.014605 0.000000 0.000000 0.000000
# 4 0.000000 0.000000 0.000000 0.079054 0.000000 0.000000
# 5 0.000000 0.000000 0.000000 0.000000 0.052909 0.000000
# 6 0.000000 0.000000 0.000000 0.000000 0.000000 0.044352
#
#
# Mechanical properties :
#
#
# Convention : Reuss Voigt Hill
#
# Bulk Modulus (GPa) = 26.21437 64.92795 45.57116
# Shear Modulus (GPa) = 15.70611 21.39931 18.55271
#
# Velocity S-wave (km/s) = 2.91142 3.39837 3.16427
# Velocity P-wave (km/s) = 5.04473 7.10206 6.15989
#
# Compressibility (1/GPa) = 0.03814702
#
# Stress axis : x y z
#
# Youngs Moduli (GPa) = 17.06826 94.89030 68.47008
#
# Poissons Ratio (x) = 0.49422 0.84394
# Poissons Ratio (y) = 0.08890 0.36004
# Poissons Ratio (z) = 0.21038 0.49897
#
# Static dielectric constant tensor:
#      x y z
#    x 3.192450 0.000000 0.000000 
#    y 0.000000 3.475320 0.000000 
#    z 0.000000 0.000000 3.791350 
# 
# 
# High freq. dielectric constant tensor:
#      x y z
#    x 1.691090 0.000000 0.000000 
#    y 0.000000 1.711270 0.000000 
#    z 0.000000 0.000000 1.730930 
# 
# From -- ./inp_files/68101.got.cif
#   From: 2010.03.12/outbox.cif.g09.slc.cpg/sg63_35_cif.got.tgz:68101.got - 2010.04.10 19:34:48.
