data_PCOD8258046
_publ_section_title
;
Structure prediction by ZEFSAII (Michael W. Deem and Ramdas Pophale) SiO2 
 PCOD8258046
Probable space group: C M C M
;
_chemical_formula_sum "Si O2"
_cell_formula_units_Z 128
_cell_length_a 9.451539
_cell_length_b 26.210032
_cell_length_c 27.354431
_cell_angle_alpha 90.000000
_cell_angle_beta 90.000000
_cell_angle_gamma 90.000000
_cell_volume 6776.380239
_symmetry_space_group_name_H-M "C M C M"
_symmetry_group_IT_number 63
_symmetry_cell_setting 'orthorhombic'
loop_
_space_group_symop_operation_xyz
x,y,z
-x,-y,1/2+z
x,-y,-z
-x,y,1/2-z
-x,-y,-z
x,y,1/2-z
-x,y,z
x,-y,1/2+z
1/2+x,1/2+y,z
1/2-x,1/2-y,1/2+z
1/2+x,1/2-y,-z
1/2-x,1/2+y,1/2-z
1/2-x,1/2-y,-z
1/2+x,1/2+y,1/2-z
1/2-x,1/2+y,z
1/2+x,1/2-y,1/2+z
loop_
_atom_site_type_symbol
_atom_site_label
_atom_site_fract_x
_atom_site_fract_y
_atom_site_fract_z
Si Si1 0.332377 0.266492 0.695436
Si Si2 0.831771 0.128232 0.352833
Si Si3 0.654013 0.792024 0.476902
Si Si4 0.332145 0.522814 0.195196
Si Si5 0.153243 0.056020 0.517870
Si Si6 0.831760 0.327322 0.128344
Si Si7 0.156012 0.617913 0.050889
Si Si8 0.666688 0.571581 0.629523
O O1 0.271241 0.258432 0.750000
O O2 0.500000 0.266545 0.696503
O O3 0.280289 0.321495 0.676103
O O4 0.279624 0.220100 0.661443
O O5 0.758698 0.130318 0.404935
O O6 0.000000 0.127906 0.360505
O O7 0.779042 0.077395 0.325058
O O8 0.500000 0.768447 0.463889
O O9 0.750000 0.750000 0.500000
O O10 0.717999 0.815739 0.427203
O O11 0.637251 0.832832 0.518569
O O12 0.272443 0.515585 0.250000
O O13 0.500000 0.523321 0.195499
O O14 0.278004 0.476040 0.161911
O O15 0.275518 0.075834 0.483325
O O16 0.204320 0.057971 0.573819
O O17 0.000000 0.085043 0.513027
O O18 0.124730 0.000000 0.500000
O O19 0.751337 0.378027 0.146380
O O20 0.000000 0.336444 0.132024
O O21 0.000000 0.599633 0.068716
O O22 0.500000 0.580844 0.637436
#
# Coordination Sequence:
#
# PCOD8258046 Si02
#       8
#    16  16  16  16  16  16  16  16
#     4   9  18  33  57  86 109 138 185 236 283 329
#     4  10  19  35  60  85 111 142 183 234 284 335
#     4  10  21  35  52  76 107 143 182 223 269 322
#     4   9  18  34  58  86 112 140 181 236 287 328
#     4  10  20  35  55  79 108 143 186 231 271 320
#     4  10  20  36  54  76 113 150 184 226 271 329
#     4  11  22  35  52  79 113 146 179 217 272 336
#     4  10  20  34  54  81 112 145 184 229 274 327
#
# _framework density 18.889140000000001
#
# number of rings (size 3 to 8) (size 9 to 14) (size 15 to 20)
#    0.000    2.125    1.250    2.250    0.000    6.750 
#    0.000    2.500    0.000    3.000    0.000    0.000 
#    0.000    0.000    0.000    0.000    0.000    0.000 
#
# Total GULP energy -793380.890292 kJ/mol
# GULP energy per Si atom -12396.576411 kJ/mol
# Density = 1.884615 g / cm^3
# Si number density = 18.889140 Si / 1000 Ang^3
#
#
#
# Elastic Constant Matrix: (Units=GPa)
#
#
# Indices 1 2 3 4 5 6 
#
# 1 48.3007 36.6718 27.9392 0.0000 0.0000 0.0000
# 2 36.6718 147.1003 64.3244 0.0000 0.0000 0.0000
# 3 27.9392 64.3244 139.7199 0.0000 0.0000 0.0000
# 4 0.0000 0.0000 0.0000 35.1547 0.0000 0.0000
# 5 0.0000 0.0000 0.0000 0.0000 19.0335 0.0000
# 6 0.0000 0.0000 0.0000 0.0000 0.0000 27.3334
#
#
#
# Elastic Compliance Matrix: (Units=1/GPa)
#
#
# Indices 1 2 3 4 5 6 
#
# 1 0.026393 -0.005349 -0.002815 0.000000 0.000000 0.000000
# 2 -0.005349 0.009596 -0.003348 0.000000 0.000000 0.000000
# 3 -0.002815 -0.003348 0.009262 0.000000 0.000000 0.000000
# 4 0.000000 0.000000 0.000000 0.028446 0.000000 0.000000
# 5 0.000000 0.000000 0.000000 0.000000 0.052539 0.000000
# 6 0.000000 0.000000 0.000000 0.000000 0.000000 0.036585
#
#
# Mechanical properties :
#
#
# Convention : Reuss Voigt Hill
#
# Bulk Modulus (GPa) = 44.99217 65.88796 55.44006
# Shear Modulus (GPa) = 25.87286 30.05002 27.96144
#
# Velocity S-wave (km/s) = 3.70499 3.99289 3.85163
# Velocity P-wave (km/s) = 6.49410 7.49764 7.01384
#
# Compressibility (1/GPa) = 0.02222609
#
# Stress axis : x y z
#
# Youngs Moduli (GPa) = 37.88885 104.21519 107.97373
#
# Poissons Ratio (x) = 0.55741 0.30398
# Poissons Ratio (y) = 0.20265 0.36150
# Poissons Ratio (z) = 0.10667 0.34892
#
# Static dielectric constant tensor:
#      x y z
#    x 3.488040 0.000000 0.000000 
#    y 0.000000 3.577690 0.000000 
#    z 0.000000 0.000000 3.659370 
# 
# 
# High freq. dielectric constant tensor:
#      x y z
#    x 1.703260 0.000000 0.000000 
#    y 0.000000 1.739490 0.000000 
#    z 0.000000 0.000000 1.742230 
# 
# From -- ./inp_files/62024.got.cif
#   From: 2010.03.12/outbox.cif.g09.slc.cpg/sg63_32_cif.got.tgz:62024.got - 2010.04.10 19:34:48.
