data_PCOD8258496
_publ_section_title
;
Structure prediction by ZEFSAII (Michael W. Deem and Ramdas Pophale) SiO2 
 PCOD8258496
Probable space group: C M C M
;
_chemical_formula_sum "Si O2"
_cell_formula_units_Z 80
_cell_length_a 13.861578
_cell_length_b 18.154358
_cell_length_c 16.030132
_cell_angle_alpha 90.000000
_cell_angle_beta 90.000000
_cell_angle_gamma 90.000000
_cell_volume 4033.951450
_symmetry_space_group_name_H-M "C M C M"
_symmetry_group_IT_number 63
_symmetry_cell_setting 'orthorhombic'
loop_
_space_group_symop_operation_xyz
x,y,z
-x,-y,1/2+z
x,-y,-z
-x,y,1/2-z
-x,-y,-z
x,y,1/2-z
-x,y,z
x,-y,1/2+z
1/2+x,1/2+y,z
1/2-x,1/2-y,1/2+z
1/2+x,1/2-y,-z
1/2-x,1/2+y,1/2-z
1/2-x,1/2-y,-z
1/2+x,1/2+y,1/2-z
1/2-x,1/2+y,z
1/2+x,1/2-y,1/2+z
loop_
_atom_site_type_symbol
_atom_site_label
_atom_site_fract_x
_atom_site_fract_y
_atom_site_fract_z
Si Si1 0.304633 0.167809 0.849150
Si Si2 0.395815 0.389434 0.154118
Si Si3 0.696664 0.528723 0.405770
Si Si4 0.604512 0.022548 0.595127
Si Si5 0.887724 0.175520 0.346954
O O1 0.312309 0.154287 0.750000
O O2 0.194342 0.156952 0.882485
O O3 0.373404 0.109584 0.895529
O O4 0.337762 0.248859 0.874480
O O5 0.405757 0.369509 0.250000
O O6 0.500000 0.370552 0.110905
O O7 0.375953 0.476773 0.145305
O O8 0.699909 0.500000 0.500000
O O9 0.805055 0.522776 0.365787
O O10 0.659946 0.611872 0.402382
O O11 0.500000 0.005767 0.638489
O O12 0.594832 0.000000 0.500000
O O13 0.869052 0.158538 0.250000
O O14 0.000000 0.181236 0.367210
#
# Coordination Sequence:
#
# PCOD8258496 Si02
#       5
#    16  16  16  16  16
#     4   9  18  33  54  78 101 129 170 212 248 295
#     4   9  17  31  51  73 100 134 166 201 250 301
#     4  10  20  33  50  74 102 132 170 209 245 295
#     4   9  18  34  53  73 101 135 169 207 253 300
#     4  10  20  34  53  77 104 132 164 208 257 296
#
# _framework density 19.831671
#
# number of rings (size 3 to 8) (size 9 to 14) (size 15 to 20)
#    0.000    2.600    0.000    1.800    0.000    5.200 
#    0.000   10.000    0.000    6.000    0.000    0.000 
#    0.000    0.000    0.000    0.000    0.000    0.000 
#
# Total GULP energy -495649.226441 kJ/mol
# GULP energy per Si atom -12391.230661 kJ/mol
# Density = 1.978653 g / cm^3
# Si number density = 19.831671 Si / 1000 Ang^3
#
#
#
# Elastic Constant Matrix: (Units=GPa)
#
#
# Indices 1 2 3 4 5 6 
#
# 1 195.3460 79.7227 24.6816 0.0000 0.0000 0.0000
# 2 79.7227 160.5910 34.2812 0.0000 0.0000 0.0000
# 3 24.6816 34.2812 32.5990 0.0000 0.0000 0.0000
# 4 0.0000 0.0000 0.0000 30.8202 0.0000 0.0000
# 5 0.0000 0.0000 0.0000 0.0000 16.6685 0.0000
# 6 0.0000 0.0000 0.0000 0.0000 0.0000 1.5797
#
#
#
# Elastic Compliance Matrix: (Units=1/GPa)
#
#
# Indices 1 2 3 4 5 6 
#
# 1 0.006517 -0.002814 -0.001975 0.000000 0.000000 0.000000
# 2 -0.002814 0.009244 -0.007591 0.000000 0.000000 0.000000
# 3 -0.001975 -0.007591 0.040154 0.000000 0.000000 0.000000
# 4 0.000000 0.000000 0.000000 0.032446 0.000000 0.000000
# 5 0.000000 0.000000 0.000000 0.000000 0.059993 0.000000
# 6 0.000000 0.000000 0.000000 0.000000 0.000000 0.633051
#
#
# Mechanical properties :
#
#
# Convention : Reuss Voigt Hill
#
# Bulk Modulus (GPa) = 32.09719 73.98966 53.04343
# Shear Modulus (GPa) = 6.12332 26.47038 16.29685
#
# Velocity S-wave (km/s) = 1.75908 3.65739 2.86974
# Velocity P-wave (km/s) = 4.51063 7.43136 6.14699
#
# Compressibility (1/GPa) = 0.03115537
#
# Stress axis : x y z
#
# Youngs Moduli (GPa) = 153.44611 108.17626 24.90398
#
# Poissons Ratio (x) = 0.30436 0.04920
# Poissons Ratio (y) = 0.43173 0.18905
# Poissons Ratio (z) = 0.30312 0.82117
#
# Static dielectric constant tensor:
#      x y z
#    x 4.467210 0.000000 0.000000 
#    y 0.000000 3.450700 0.000000 
#    z 0.000000 0.000000 3.280490 
# 
# 
# High freq. dielectric constant tensor:
#      x y z
#    x 1.799420 0.000000 0.000000 
#    y 0.000000 1.753890 0.000000 
#    z 0.000000 0.000000 1.743290 
# 
# From -- ./inp_files/43941.got.cif
#   From: 2010.03.12/outbox.cif.g09.slc.cpg/sg63_22_cif.got.tgz:43941.got - 2010.04.10 19:34:48.
