data_PCOD8258620
_publ_section_title
;
Structure prediction by ZEFSAII (Michael W. Deem and Ramdas Pophale) SiO2 
 PCOD8258620
Probable space group: C M C M
;
_chemical_formula_sum "Si O2"
_cell_formula_units_Z 96
_cell_length_a 9.098147
_cell_length_b 30.053632
_cell_length_c 19.193722
_cell_angle_alpha 90.000000
_cell_angle_beta 90.000000
_cell_angle_gamma 90.000000
_cell_volume 5248.184739
_symmetry_space_group_name_H-M "C M C M"
_symmetry_group_IT_number 63
_symmetry_cell_setting 'orthorhombic'
loop_
_space_group_symop_operation_xyz
x,y,z
-x,-y,1/2+z
x,-y,-z
-x,y,1/2-z
-x,-y,-z
x,y,1/2-z
-x,y,z
x,-y,1/2+z
1/2+x,1/2+y,z
1/2-x,1/2-y,1/2+z
1/2+x,1/2-y,-z
1/2-x,1/2+y,1/2-z
1/2-x,1/2-y,-z
1/2+x,1/2+y,1/2-z
1/2-x,1/2+y,z
1/2+x,1/2-y,1/2+z
loop_
_atom_site_type_symbol
_atom_site_label
_atom_site_fract_x
_atom_site_fract_y
_atom_site_fract_z
Si Si1 0.825440 0.314200 0.172767
Si Si2 0.172684 0.785598 0.670656
Si Si3 0.830431 0.548396 0.168130
Si Si4 0.673684 0.520600 0.926319
Si Si5 0.825686 0.386622 0.436342
Si Si6 0.327999 0.137436 0.408206
O O1 0.767619 0.327285 0.250000
O O2 0.772547 0.264429 0.153470
O O3 0.765331 0.349164 0.116549
O O4 0.000000 0.314653 0.173076
O O5 0.215375 0.797906 0.750000
O O6 0.250328 0.818159 0.617132
O O7 0.000000 0.789839 0.659638
O O8 0.805656 0.547851 0.250000
O O9 0.728681 0.510816 0.135344
O O10 0.779284 0.596172 0.139596
O O11 0.000000 0.539340 0.147874
O O12 0.500000 0.526043 0.921554
O O13 0.748512 0.567899 0.915437
O O14 0.723137 0.500000 0.000000
O O15 0.777340 0.372223 0.513303
O O16 0.000000 0.393298 0.430898
O O17 0.500000 0.145891 0.403399
#
# Coordination Sequence:
#
# PCOD8258620 Si02
#       6
#    16  16  16  16  16  16
#     4   8  16  33  55  79 106 138 180 223 262 314
#     4   9  18  33  53  76 106 144 180 217 265 320
#     4  10  21  37  57  80 107 143 185 225 266 320
#     4  11  23  38  56  79 110 144 177 220 277 330
#     4  10  20  35  58  81 105 142 183 223 269 320
#     4  10  20  33  52  80 111 140 177 224 269 317
#
# _framework density 18.292038999999999
#
# number of rings (size 3 to 8) (size 9 to 14) (size 15 to 20)
#    0.000    2.333    1.667    2.000    0.000    4.667 
#    0.000    2.500    0.000    1.000    0.000    0.000 
#    0.000    0.000    0.000    0.000    0.000    0.000 
#
# Total GULP energy -595280.202556 kJ/mol
# GULP energy per Si atom -12401.670887 kJ/mol
# Density = 1.825041 g / cm^3
# Si number density = 18.292039 Si / 1000 Ang^3
#
#
#
# Elastic Constant Matrix: (Units=GPa)
#
#
# Indices 1 2 3 4 5 6 
#
# 1 31.3535 33.8221 28.8007 0.0000 0.0000 0.0000
# 2 33.8221 134.1359 66.1057 0.0000 0.0000 0.0000
# 3 28.8007 66.1057 109.0661 0.0000 0.0000 0.0000
# 4 0.0000 0.0000 0.0000 35.7248 0.0000 0.0000
# 5 0.0000 0.0000 0.0000 0.0000 22.9676 0.0000
# 6 0.0000 0.0000 0.0000 0.0000 0.0000 29.8400
#
#
#
# Elastic Compliance Matrix: (Units=1/GPa)
#
#
# Indices 1 2 3 4 5 6 
#
# 1 0.047845 -0.008324 -0.007589 0.000000 0.000000 0.000000
# 2 -0.008324 0.012079 -0.005123 0.000000 0.000000 0.000000
# 3 -0.007589 -0.005123 0.014278 0.000000 0.000000 0.000000
# 4 0.000000 0.000000 0.000000 0.027992 0.000000 0.000000
# 5 0.000000 0.000000 0.000000 0.000000 0.043540 0.000000
# 6 0.000000 0.000000 0.000000 0.000000 0.000000 0.033512
#
#
# Mechanical properties :
#
#
# Convention : Reuss Voigt Hill
#
# Bulk Modulus (GPa) = 31.12397 59.11249 45.11823
# Shear Modulus (GPa) = 21.54928 27.42828 24.48878
#
# Velocity S-wave (km/s) = 3.43602 3.87649 3.66289
# Velocity P-wave (km/s) = 5.72657 7.24033 6.52748
#
# Compressibility (1/GPa) = 0.03212958
#
# Stress axis : x y z
#
# Youngs Moduli (GPa) = 20.90091 82.79058 70.03881
#
# Poissons Ratio (x) = 0.68914 0.53153
# Poissons Ratio (y) = 0.17398 0.35880
# Poissons Ratio (z) = 0.15862 0.42413
#
# Static dielectric constant tensor:
#      x y z
#    x 3.096810 0.000000 0.000000 
#    y 0.000000 3.504140 0.000000 
#    z 0.000000 0.000000 3.561580 
# 
# 
# High freq. dielectric constant tensor:
#      x y z
#    x 1.684140 0.000000 0.000000 
#    y 0.000000 1.720070 0.000000 
#    z 0.000000 0.000000 1.715830 
# 
# From -- ./inp_files/51286.got.cif
#   From: 2010.03.12/outbox.cif.g09.slc.cpg/sg63_26_cif.got.tgz:51286.got - 2010.04.10 19:34:48.
