data_PCOD8258640
_publ_section_title
;
Structure prediction by ZEFSAII (Michael W. Deem and Ramdas Pophale) SiO2 
 PCOD8258640
Probable space group: C M C M
;
_chemical_formula_sum "Si O2"
_cell_formula_units_Z 72
_cell_length_a 16.113300
_cell_length_b 27.218675
_cell_length_c 8.778744
_cell_angle_alpha 90.000000
_cell_angle_beta 90.000000
_cell_angle_gamma 90.000000
_cell_volume 3850.205034
_symmetry_space_group_name_H-M "C M C M"
_symmetry_group_IT_number 63
_symmetry_cell_setting 'orthorhombic'
loop_
_space_group_symop_operation_xyz
x,y,z
-x,-y,1/2+z
x,-y,-z
-x,y,1/2-z
-x,-y,-z
x,y,1/2-z
-x,y,z
x,-y,1/2+z
1/2+x,1/2+y,z
1/2-x,1/2-y,1/2+z
1/2+x,1/2-y,-z
1/2-x,1/2+y,1/2-z
1/2-x,1/2-y,-z
1/2+x,1/2+y,1/2-z
1/2-x,1/2+y,z
1/2+x,1/2-y,1/2+z
loop_
_atom_site_type_symbol
_atom_site_label
_atom_site_fract_x
_atom_site_fract_y
_atom_site_fract_z
Si Si1 0.500000 0.554877 0.068192
Si Si2 0.658325 0.391798 0.431071
Si Si3 0.822524 0.551728 0.926902
Si Si4 0.248982 0.803331 0.570767
Si Si5 0.408074 0.863618 0.924344
O O1 0.500000 0.550576 0.250000
O O2 0.500000 0.500000 0.000000
O O3 0.421156 0.585652 0.012898
O O4 0.644350 0.389760 0.250000
O O5 0.734308 0.426582 0.480049
O O6 0.678088 0.336962 0.492228
O O7 0.823771 0.544114 0.750000
O O8 0.839404 0.500000 0.000000
O O9 0.896152 0.588004 0.974663
O O10 0.231040 0.801301 0.750000
O O11 0.250000 0.750000 0.500000
O O12 0.340619 0.823064 0.531274
O O13 0.396775 0.879666 0.750000
O O14 0.500000 0.842002 0.955244
#
# Coordination Sequence:
#
# PCOD8258640 Si02
#       5
#     8  16  16  16  16
#     4  12  24  38  58  86 120 156 194 238 291 348
#     4  10  21  38  58  82 112 148 191 237 285 338
#     4  10  20  33  53  79 108 144 183 221 269 323
#     4  10  20  37  60  83 111 146 187 234 286 341
#     4   9  19  36  56  78 105 139 180 224 271 322
#
# _framework density 18.700302000000001
#
# number of rings (size 3 to 8) (size 9 to 14) (size 15 to 20)
#    0.000    2.000    0.000    3.667    0.000    6.222 
#    2.000    0.000    0.000    0.000    0.000    0.000 
#    0.000    0.000    0.000    0.000    0.000    0.000 
#
# Total GULP energy -446426.455578 kJ/mol
# GULP energy per Si atom -12400.734877 kJ/mol
# Density = 1.865774 g / cm^3
# Si number density = 18.700302 Si / 1000 Ang^3
#
#
#
# Elastic Constant Matrix: (Units=GPa)
#
#
# Indices 1 2 3 4 5 6 
#
# 1 119.9218 60.5839 45.4730 0.0000 0.0000 0.0000
# 2 60.5839 147.7624 46.9870 0.0000 0.0000 0.0000
# 3 45.4730 46.9870 75.5087 0.0000 0.0000 0.0000
# 4 0.0000 0.0000 0.0000 37.5251 0.0000 0.0000
# 5 0.0000 0.0000 0.0000 0.0000 28.4007 0.0000
# 6 0.0000 0.0000 0.0000 0.0000 0.0000 19.9267
#
#
#
# Elastic Compliance Matrix: (Units=1/GPa)
#
#
# Indices 1 2 3 4 5 6 
#
# 1 0.011942 -0.003253 -0.005167 0.000000 0.000000 0.000000
# 2 -0.003253 0.009323 -0.003843 0.000000 0.000000 0.000000
# 3 -0.005167 -0.003843 0.018746 0.000000 0.000000 0.000000
# 4 0.000000 0.000000 0.000000 0.026649 0.000000 0.000000
# 5 0.000000 0.000000 0.000000 0.000000 0.035210 0.000000
# 6 0.000000 0.000000 0.000000 0.000000 0.000000 0.050184
#
#
# Mechanical properties :
#
#
# Convention : Reuss Voigt Hill
#
# Bulk Modulus (GPa) = 64.57584 72.14230 68.35907
# Shear Modulus (GPa) = 27.51154 29.84710 28.67932
#
# Velocity S-wave (km/s) = 3.83976 3.99943 3.92041
# Velocity P-wave (km/s) = 7.36650 7.74526 7.55825
#
# Compressibility (1/GPa) = 0.01548567
#
# Stress axis : x y z
#
# Youngs Moduli (GPa) = 83.74150 107.25833 53.34345
#
# Poissons Ratio (x) = 0.34891 0.27564
# Poissons Ratio (y) = 0.27241 0.20498
# Poissons Ratio (z) = 0.43271 0.41215
#
# Static dielectric constant tensor:
#      x y z
#    x 3.563910 0.000000 0.000000 
#    y 0.000000 3.515460 0.000000 
#    z 0.000000 0.000000 3.663580 
# 
# 
# High freq. dielectric constant tensor:
#      x y z
#    x 1.726730 0.000000 0.000000 
#    y 0.000000 1.725200 0.000000 
#    z 0.000000 0.000000 1.739430 
# 
# From -- ./inp_files/4598.got.cif
#   From: 2010.03.12/outbox.cif.g09.slc.cpg/sg63_3_cif.got.tgz:4598.got - 2010.04.10 19:34:48.
