data_PCOD8258329
_publ_section_title
;
Structure prediction by ZEFSAII (Michael W. Deem and Ramdas Pophale) SiO2 
 PCOD8258329
Probable space group: C M C M
;
_chemical_formula_sum "Si O2"
_cell_formula_units_Z 88
_cell_length_a 22.612819
_cell_length_b 24.454982
_cell_length_c 8.872512
_cell_angle_alpha 90.000000
_cell_angle_beta 90.000000
_cell_angle_gamma 90.000000
_cell_volume 4906.464370
_symmetry_space_group_name_H-M "C M C M"
_symmetry_group_IT_number 63
_symmetry_cell_setting 'orthorhombic'
loop_
_space_group_symop_operation_xyz
x,y,z
-x,-y,1/2+z
x,-y,-z
-x,y,1/2-z
-x,-y,-z
x,y,1/2-z
-x,y,z
x,-y,1/2+z
1/2+x,1/2+y,z
1/2-x,1/2-y,1/2+z
1/2+x,1/2-y,-z
1/2-x,1/2+y,1/2-z
1/2-x,1/2-y,-z
1/2+x,1/2+y,1/2-z
1/2-x,1/2+y,z
1/2+x,1/2-y,1/2+z
loop_
_atom_site_type_symbol
_atom_site_label
_atom_site_fract_x
_atom_site_fract_y
_atom_site_fract_z
Si Si1 0.655593 0.942495 0.428983
Si Si2 0.432540 0.152527 0.573861
Si Si3 0.067449 0.764146 0.427428
Si Si4 0.000000 0.059004 0.428061
Si Si5 0.279020 0.443037 0.927707
Si Si6 0.889795 0.130268 0.425879
O O1 0.660966 0.948495 0.250000
O O2 0.606845 0.898481 0.477701
O O3 0.718146 0.923393 0.496934
O O4 0.635920 0.000000 0.500000
O O5 0.426334 0.163656 0.750000
O O6 0.500000 0.139281 0.528090
O O7 0.409192 0.206424 0.489664
O O8 0.072291 0.763101 0.250000
O O9 0.108818 0.811972 0.490091
O O10 0.000000 0.774008 0.481993
O O11 0.942311 0.091401 0.484991
O O12 0.000000 0.051705 0.250000
O O13 0.000000 0.000000 0.500000
O O14 0.270154 0.451584 0.750000
O O15 0.327509 0.397404 0.964000
O O16 0.300299 0.500000 0.000000
O O17 0.897781 0.141404 0.250000
#
# Coordination Sequence:
#
# PCOD8258329 Si02
#       6
#    16  16  16   8  16  16
#     4  10  20  35  56  80 106 138 171 207 257 310
#     4   9  19  36  57  79 105 137 171 208 255 313
#     4  10  20  33  52  79 106 135 172 216 264 308
#     4  10  20  32  48  72 102 134 171 218 263 302
#     4  10  20  34  53  76 103 139 178 215 259 308
#     4  10  20  34  52  73 101 140 179 214 259 311
#
# _framework density 17.935521999999999
#
# number of rings (size 3 to 8) (size 9 to 14) (size 15 to 20)
#    0.000    2.182    0.909    3.273    0.000    4.727 
#    0.000    0.909    0.000    0.000    0.000    0.000 
#    0.000    0.000    0.000    0.000    0.000    0.000 
#
# Total GULP energy -545742.097906 kJ/mol
# GULP energy per Si atom -12403.229498 kJ/mol
# Density = 1.789470 g / cm^3
# Si number density = 17.935522 Si / 1000 Ang^3
#
#
#
# Elastic Constant Matrix: (Units=GPa)
#
#
# Indices 1 2 3 4 5 6 
#
# 1 101.8655 93.5877 47.5662 0.0000 0.0000 0.0000
# 2 93.5877 163.7540 62.9272 0.0000 0.0000 0.0000
# 3 47.5662 62.9272 71.4988 0.0000 0.0000 0.0000
# 4 0.0000 0.0000 0.0000 33.4218 0.0000 0.0000
# 5 0.0000 0.0000 0.0000 0.0000 25.6286 0.0000
# 6 0.0000 0.0000 0.0000 0.0000 0.0000 30.9537
#
#
#
# Elastic Compliance Matrix: (Units=1/GPa)
#
#
# Indices 1 2 3 4 5 6 
#
# 1 0.021962 -0.010482 -0.005385 0.000000 0.000000 0.000000
# 2 -0.010482 0.014231 -0.005551 0.000000 0.000000 0.000000
# 3 -0.005385 -0.005551 0.022454 0.000000 0.000000 0.000000
# 4 0.000000 0.000000 0.000000 0.029921 0.000000 0.000000
# 5 0.000000 0.000000 0.000000 0.000000 0.039019 0.000000
# 6 0.000000 0.000000 0.000000 0.000000 0.000000 0.032306
#
#
# Mechanical properties :
#
#
# Convention : Reuss Voigt Hill
#
# Bulk Modulus (GPa) = 63.25052 82.80896 73.02974
# Shear Modulus (GPa) = 24.03859 26.86997 25.45428
#
# Velocity S-wave (km/s) = 3.66495 3.87478 3.77133
# Velocity P-wave (km/s) = 7.29734 8.14182 7.73112
#
# Compressibility (1/GPa) = 0.01581015
#
# Stress axis : x y z
#
# Youngs Moduli (GPa) = 45.53386 70.27157 44.53464
#
# Poissons Ratio (x) = 0.73659 0.23982
# Poissons Ratio (y) = 0.47729 0.24722
# Poissons Ratio (z) = 0.24521 0.39008
#
# Static dielectric constant tensor:
#      x y z
#    x 3.331940 0.000000 0.000000 
#    y 0.000000 3.328420 0.000000 
#    z 0.000000 0.000000 3.305110 
# 
# 
# High freq. dielectric constant tensor:
#      x y z
#    x 1.685330 0.000000 0.000000 
#    y 0.000000 1.697780 0.000000 
#    z 0.000000 0.000000 1.699580 
# 
# From -- ./inp_files/8186.got.cif
#   From: 2010.03.12/outbox.cif.g09.slc.cpg/sg63_5_cif.got.tgz:8186.got - 2010.04.10 19:34:48.
