data_PCOD8258764
_publ_section_title
;
Structure prediction by ZEFSAII (Michael W. Deem and Ramdas Pophale) SiO2 
 PCOD8258764
Probable space group: C M C M
;
_chemical_formula_sum "Si O2"
_cell_formula_units_Z 104
_cell_length_a 20.969770
_cell_length_b 27.692137
_cell_length_c 9.152371
_cell_angle_alpha 90.000000
_cell_angle_beta 90.000000
_cell_angle_gamma 90.000000
_cell_volume 5314.761189
_symmetry_space_group_name_H-M "C M C M"
_symmetry_group_IT_number 63
_symmetry_cell_setting 'orthorhombic'
loop_
_space_group_symop_operation_xyz
x,y,z
-x,-y,1/2+z
x,-y,-z
-x,y,1/2-z
-x,-y,-z
x,y,1/2-z
-x,y,z
x,-y,1/2+z
1/2+x,1/2+y,z
1/2-x,1/2-y,1/2+z
1/2+x,1/2-y,-z
1/2-x,1/2+y,1/2-z
1/2-x,1/2-y,-z
1/2+x,1/2+y,1/2-z
1/2-x,1/2+y,z
1/2+x,1/2-y,1/2+z
loop_
_atom_site_type_symbol
_atom_site_label
_atom_site_fract_x
_atom_site_fract_y
_atom_site_fract_z
Si Si1 0.172834 0.546957 0.419514
Si Si2 0.402512 0.632792 0.079097
Si Si3 0.072766 0.602437 0.581756
Si Si4 0.000000 0.948984 0.580589
Si Si5 0.755785 0.860585 0.581395
Si Si6 0.845255 0.303753 0.419913
Si Si7 0.929197 0.227904 0.580886
O O1 0.199932 0.500000 0.500000
O O2 0.165649 0.535909 0.250000
O O3 0.103737 0.560739 0.483639
O O4 0.221886 0.589263 0.454508
O O5 0.412631 0.644494 0.250000
O O6 0.436866 0.582158 0.039648
O O7 0.328406 0.630865 0.036293
O O8 0.434288 0.674355 0.983569
O O9 0.080596 0.587482 0.750000
O O10 0.105435 0.653435 0.550018
O O11 0.000000 0.607490 0.534344
O O12 0.000000 0.961686 0.750000
O O13 0.000000 0.000000 0.500000
O O14 0.748202 0.846174 0.750000
O O15 0.723522 0.817467 0.488277
O O16 0.835466 0.292541 0.250000
O O17 0.874586 0.256634 0.494792
O O18 0.909479 0.226040 0.750000
O O19 0.000000 0.251283 0.562701
#
# Coordination Sequence:
#
# PCOD8258764 Si02
#       7
#    16  16  16   8  16  16  16
#     4  10  20  34  52  75 104 139 180 226 278 333
#     4  10  21  40  63  86 114 150 190 233 285 343
#     4   9  18  33  52  75 104 139 183 231 275 324
#     4  10  22  40  64  92 120 152 192 240 297 358
#     4   9  20  38  58  81 112 147 188 238 286 339
#     4  10  20  35  57  84 114 152 193 232 281 339
#     4  11  23  37  57  86 119 153 191 236 284 336
#
# _framework density 19.568142000000002
#
# number of rings (size 3 to 8) (size 9 to 14) (size 15 to 20)
#    0.000    2.154    0.769    1.846    0.000    5.846 
#    0.000    0.000    0.000    0.000    0.000    0.000 
#    0.000    0.000    0.000    0.000    0.000    0.000 
#
# Total GULP energy -644890.489656 kJ/mol
# GULP energy per Si atom -12401.740186 kJ/mol
# Density = 1.952360 g / cm^3
# Si number density = 19.568142 Si / 1000 Ang^3
#
#
#
# Elastic Constant Matrix: (Units=GPa)
#
#
# Indices 1 2 3 4 5 6 
#
# 1 137.4929 46.2627 50.5573 0.0000 0.0000 0.0000
# 2 46.2627 110.3843 62.4002 0.0000 0.0000 0.0000
# 3 50.5573 62.4002 98.5198 0.0000 0.0000 0.0000
# 4 0.0000 0.0000 0.0000 37.1567 0.0000 0.0000
# 5 0.0000 0.0000 0.0000 0.0000 26.7444 0.0000
# 6 0.0000 0.0000 0.0000 0.0000 0.0000 20.8249
#
#
#
# Elastic Compliance Matrix: (Units=1/GPa)
#
#
# Indices 1 2 3 4 5 6 
#
# 1 0.009201 -0.001849 -0.003550 0.000000 0.000000 0.000000
# 2 -0.001849 0.014484 -0.008225 0.000000 0.000000 0.000000
# 3 -0.003550 -0.008225 0.017182 0.000000 0.000000 0.000000
# 4 0.000000 0.000000 0.000000 0.026913 0.000000 0.000000
# 5 0.000000 0.000000 0.000000 0.000000 0.037391 0.000000
# 6 0.000000 0.000000 0.000000 0.000000 0.000000 0.048020
#
#
# Mechanical properties :
#
#
# Convention : Reuss Voigt Hill
#
# Bulk Modulus (GPa) = 73.43439 73.87081 73.65260
# Shear Modulus (GPa) = 27.03037 29.42365 28.22701
#
# Velocity S-wave (km/s) = 3.72068 3.88190 3.80214
# Velocity P-wave (km/s) = 7.48778 7.61083 7.54956
#
# Compressibility (1/GPa) = 0.01361760
#
# Stress axis : x y z
#
# Youngs Moduli (GPa) = 108.68652 69.04343 58.20198
#
# Poissons Ratio (x) = 0.12767 0.20664
# Poissons Ratio (y) = 0.20097 0.47870
# Poissons Ratio (z) = 0.38588 0.56786
#
# Static dielectric constant tensor:
#      x y z
#    x 3.724080 0.000000 0.000000 
#    y 0.000000 3.475490 0.000000 
#    z 0.000000 0.000000 3.549000 
# 
# 
# High freq. dielectric constant tensor:
#      x y z
#    x 1.768370 0.000000 0.000000 
#    y 0.000000 1.757450 0.000000 
#    z 0.000000 0.000000 1.762890 
# 
# From -- ./inp_files/8825.got.cif
#   From: 2010.03.12/outbox.cif.g09.slc.cpg/sg63_5_cif.got.tgz:8825.got - 2010.04.10 19:34:48.
