data_PCOD8258403
_publ_section_title
;
Structure prediction by ZEFSAII (Michael W. Deem and Ramdas Pophale) SiO2 
 PCOD8258403
Probable space group: C M C M
;
_chemical_formula_sum "Si O2"
_cell_formula_units_Z 72
_cell_length_a 7.602000
_cell_length_b 18.494486
_cell_length_c 29.544330
_cell_angle_alpha 90.000000
_cell_angle_beta 90.000000
_cell_angle_gamma 90.000000
_cell_volume 4153.787516
_symmetry_space_group_name_H-M "C M C M"
_symmetry_group_IT_number 63
_symmetry_cell_setting 'orthorhombic'
loop_
_space_group_symop_operation_xyz
x,y,z
-x,-y,1/2+z
x,-y,-z
-x,y,1/2-z
-x,-y,-z
x,y,1/2-z
-x,y,z
x,-y,1/2+z
1/2+x,1/2+y,z
1/2-x,1/2-y,1/2+z
1/2+x,1/2-y,-z
1/2-x,1/2+y,1/2-z
1/2-x,1/2-y,-z
1/2+x,1/2+y,1/2-z
1/2-x,1/2+y,z
1/2+x,1/2-y,1/2+z
loop_
_atom_site_type_symbol
_atom_site_label
_atom_site_fract_x
_atom_site_fract_y
_atom_site_fract_z
Si Si1 0.500000 0.931024 0.968400
Si Si2 0.194969 0.702570 0.126422
Si Si3 0.204105 0.818458 0.198240
Si Si4 0.500000 0.931109 0.302173
Si Si5 0.694887 0.317610 0.970324
Si Si6 0.500000 0.068336 0.365126
O O1 0.327715 0.883452 0.978361
O O2 0.500000 0.959216 0.916892
O O3 0.500000 0.000000 0.000000
O O4 0.267943 0.751871 0.167058
O O5 0.315113 0.707409 0.082171
O O6 0.000000 0.730113 0.111561
O O7 0.173701 0.618857 0.143252
O O8 0.237085 0.794645 0.250000
O O9 0.323951 0.886853 0.185742
O O10 0.000000 0.838952 0.190260
O O11 0.500000 0.954143 0.250000
O O12 0.500000 0.002656 0.331365
O O13 0.500000 0.343465 0.984513
O O14 0.750000 0.250000 0.000000
#
# Coordination Sequence:
#
# PCOD8258403 Si02
#       6
#     8  16  16   8  16   8
#     4  10  22  40  54  80 115 140 181 230 267 326
#     4   8  17  34  53  76 105 140 178 215 261 321
#     4   9  18  33  53  78 108 138 176 223 263 312
#     4  10  20  32  52  80 107 140 181 218 267 316
#     4  11  20  35  58  82 108 143 180 225 273 323
#     4   8  18  36  52  74 107 140 175 214 263 316
#
# _framework density 17.333577999999999
#
# number of rings (size 3 to 8) (size 9 to 14) (size 15 to 20)
#    0.667    2.000    2.222    0.000    1.556    3.111 
#    0.000    4.444    0.000    0.000    0.000    0.000 
#    0.000    0.000    0.000    0.000    0.000    0.000 
#
# Total GULP energy -446104.646114 kJ/mol
# GULP energy per Si atom -12391.795725 kJ/mol
# Density = 1.729413 g / cm^3
# Si number density = 17.333578 Si / 1000 Ang^3
#
#
#
# Elastic Constant Matrix: (Units=GPa)
#
#
# Indices 1 2 3 4 5 6 
#
# 1 107.2489 52.4007 41.7707 0.0000 0.0000 0.0000
# 2 52.4007 141.2757 99.5698 0.0000 0.0000 0.0000
# 3 41.7707 99.5698 103.4629 0.0000 0.0000 0.0000
# 4 0.0000 0.0000 0.0000 43.9254 0.0000 0.0000
# 5 0.0000 0.0000 0.0000 0.0000 20.5912 0.0000
# 6 0.0000 0.0000 0.0000 0.0000 0.0000 19.6055
#
#
#
# Elastic Compliance Matrix: (Units=1/GPa)
#
#
# Indices 1 2 3 4 5 6 
#
# 1 0.011480 -0.003082 -0.001669 0.000000 0.000000 0.000000
# 2 -0.003082 0.022828 -0.020725 0.000000 0.000000 0.000000
# 3 -0.001669 -0.020725 0.030284 0.000000 0.000000 0.000000
# 4 0.000000 0.000000 0.000000 0.022766 0.000000 0.000000
# 5 0.000000 0.000000 0.000000 0.000000 0.048564 0.000000
# 6 0.000000 0.000000 0.000000 0.000000 0.000000 0.051006
#
#
# Mechanical properties :
#
#
# Convention : Reuss Voigt Hill
#
# Bulk Modulus (GPa) = 73.30896 82.16332 77.73614
# Shear Modulus (GPa) = 20.62474 27.37417 23.99945
#
# Velocity S-wave (km/s) = 3.45319 3.97830 3.72501
# Velocity P-wave (km/s) = 7.63441 8.28291 7.96526
#
# Compressibility (1/GPa) = 0.01364090
#
# Stress axis : x y z
#
# Youngs Moduli (GPa) = 87.10942 43.80529 33.02038
#
# Poissons Ratio (x) = 0.13500 0.05511
# Poissons Ratio (y) = 0.26845 0.68435
# Poissons Ratio (z) = 0.14537 0.90787
#
# Static dielectric constant tensor:
#      x y z
#    x 3.562340 0.000000 0.000000 
#    y 0.000000 3.012980 0.000000 
#    z 0.000000 0.000000 3.207340 
# 
# 
# High freq. dielectric constant tensor:
#      x y z
#    x 1.666850 0.000000 0.000000 
#    y 0.000000 1.650170 0.000000 
#    z 0.000000 0.000000 1.671920 
# 
# From -- ./inp_files/66518.got.cif
#   From: 2010.03.12/outbox.cif.g09.slc.cpg/sg63_34_cif.got.tgz:66518.got - 2010.04.10 19:34:48.
