data_PCOD8258036
_publ_section_title
;
Structure prediction by ZEFSAII (Michael W. Deem and Ramdas Pophale) SiO2 
 PCOD8258036
Probable space group: C M C M
;
_chemical_formula_sum "Si O2"
_cell_formula_units_Z 96
_cell_length_a 8.896372
_cell_length_b 20.074300
_cell_length_c 28.085017
_cell_angle_alpha 90.000000
_cell_angle_beta 90.000000
_cell_angle_gamma 90.000000
_cell_volume 5015.659386
_symmetry_space_group_name_H-M "C M C M"
_symmetry_group_IT_number 63
_symmetry_cell_setting 'orthorhombic'
loop_
_space_group_symop_operation_xyz
x,y,z
-x,-y,1/2+z
x,-y,-z
-x,y,1/2-z
-x,-y,-z
x,y,1/2-z
-x,y,z
x,-y,1/2+z
1/2+x,1/2+y,z
1/2-x,1/2-y,1/2+z
1/2+x,1/2-y,-z
1/2-x,1/2+y,1/2-z
1/2-x,1/2-y,-z
1/2+x,1/2+y,1/2-z
1/2-x,1/2+y,z
1/2+x,1/2-y,1/2+z
loop_
_atom_site_type_symbol
_atom_site_label
_atom_site_fract_x
_atom_site_fract_y
_atom_site_fract_z
Si Si1 0.825996 0.634062 0.052101
Si Si2 0.675102 0.731092 0.895659
Si Si3 0.676626 0.891185 0.055919
Si Si4 0.321704 0.199300 0.301833
Si Si5 0.177059 0.014929 0.396088
Si Si6 0.676081 0.951614 0.696496
O O1 0.796390 0.710208 0.066595
O O2 0.726729 0.587144 0.085426
O O3 0.000000 0.614793 0.059847
O O4 0.775719 0.626390 0.997693
O O5 0.500000 0.711687 0.893695
O O6 0.770006 0.667062 0.909452
O O7 0.737653 0.753480 0.843858
O O8 0.500000 0.900197 0.061053
O O9 0.754560 0.960014 0.069141
O O10 0.268907 0.226766 0.250000
O O11 0.500000 0.196130 0.304290
O O12 0.263739 0.123991 0.308559
O O13 0.000000 0.008320 0.396908
O O14 0.235353 0.003894 0.342017
O O15 0.709541 0.977997 0.750000
O O16 0.500000 0.956118 0.685203
#
# Coordination Sequence:
#
# PCOD8258036 Si02
#       6
#    16  16  16  16  16  16
#     4  10  21  39  61  83 109 148 194 239 285 339
#     4  10  19  35  59  85 115 145 183 233 286 341
#     4  11  24  39  56  79 114 154 194 237 284 339
#     4   8  14  28  55  86 111 140 178 221 273 333
#     4  12  24  37  57  85 117 150 189 237 284 336
#     4   9  17  34  61  87 112 146 187 229 278 337
#
# _framework density 19.140053999999999
#
# number of rings (size 3 to 8) (size 9 to 14) (size 15 to 20)
#    0.000    2.000    1.667    4.000    0.000    4.333 
#    0.000    0.833    0.000    3.500    0.000    0.000 
#    0.000    0.000    0.000    0.000    0.000    0.000 
#
# Total GULP energy -595240.428016 kJ/mol
# GULP energy per Si atom -12400.842250 kJ/mol
# Density = 1.909649 g / cm^3
# Si number density = 19.140054 Si / 1000 Ang^3
#
#
#
# Elastic Constant Matrix: (Units=GPa)
#
#
# Indices 1 2 3 4 5 6 
#
# 1 65.6654 14.9862 25.3279 0.0000 0.0000 0.0000
# 2 14.9862 42.4662 8.5976 0.0000 0.0000 0.0000
# 3 25.3279 8.5976 113.0509 0.0000 0.0000 0.0000
# 4 0.0000 0.0000 0.0000 15.2660 0.0000 0.0000
# 5 0.0000 0.0000 0.0000 0.0000 22.7049 0.0000
# 6 0.0000 0.0000 0.0000 0.0000 0.0000 30.9540
#
#
#
# Elastic Compliance Matrix: (Units=1/GPa)
#
#
# Indices 1 2 3 4 5 6 
#
# 1 0.017885 -0.005586 -0.003582 0.000000 0.000000 0.000000
# 2 -0.005586 0.025661 -0.000700 0.000000 0.000000 0.000000
# 3 -0.003582 -0.000700 0.009701 0.000000 0.000000 0.000000
# 4 0.000000 0.000000 0.000000 0.065505 0.000000 0.000000
# 5 0.000000 0.000000 0.000000 0.000000 0.044043 0.000000
# 6 0.000000 0.000000 0.000000 0.000000 0.000000 0.032306
#
#
# Mechanical properties :
#
#
# Convention : Reuss Voigt Hill
#
# Bulk Modulus (GPa) = 29.84111 35.44508 32.64310
# Shear Modulus (GPa) = 22.12292 25.26970 23.69631
#
# Velocity S-wave (km/s) = 3.40346 3.63747 3.52241
# Velocity P-wave (km/s) = 5.57400 6.01669 5.79957
#
# Compressibility (1/GPa) = 0.03351082
#
# Stress axis : x y z
#
# Youngs Moduli (GPa) = 55.91170 38.96923 103.07840
#
# Poissons Ratio (x) = 0.21770 0.36925
# Poissons Ratio (y) = 0.31235 0.07215
# Poissons Ratio (z) = 0.20029 0.02728
#
# Static dielectric constant tensor:
#      x y z
#    x 3.231760 0.000000 0.000000 
#    y 0.000000 3.298460 0.000000 
#    z 0.000000 0.000000 3.990750 
# 
# 
# High freq. dielectric constant tensor:
#      x y z
#    x 1.719890 0.000000 0.000000 
#    y 0.000000 1.725620 0.000000 
#    z 0.000000 0.000000 1.765630 
# 
# From -- ./inp_files/66951.got.cif
#   From: 2010.03.12/outbox.cif.g09.slc.cpg/sg63_34_cif.got.tgz:66951.got - 2010.04.10 19:34:48.
