data_PCOD8258195
_publ_section_title
;
Structure prediction by ZEFSAII (Michael W. Deem and Ramdas Pophale) SiO2 
 PCOD8258195
Probable space group: C M C M
;
_chemical_formula_sum "Si O2"
_cell_formula_units_Z 88
_cell_length_a 27.333287
_cell_length_b 18.682656
_cell_length_c 9.694009
_cell_angle_alpha 90.000000
_cell_angle_beta 90.000000
_cell_angle_gamma 90.000000
_cell_volume 4950.327110
_symmetry_space_group_name_H-M "C M C M"
_symmetry_group_IT_number 63
_symmetry_cell_setting 'orthorhombic'
loop_
_space_group_symop_operation_xyz
x,y,z
-x,-y,1/2+z
x,-y,-z
-x,y,1/2-z
-x,-y,-z
x,y,1/2-z
-x,y,z
x,-y,1/2+z
1/2+x,1/2+y,z
1/2-x,1/2-y,1/2+z
1/2+x,1/2-y,-z
1/2-x,1/2+y,1/2-z
1/2-x,1/2-y,-z
1/2+x,1/2+y,1/2-z
1/2-x,1/2+y,z
1/2+x,1/2-y,1/2+z
loop_
_atom_site_type_symbol
_atom_site_label
_atom_site_fract_x
_atom_site_fract_y
_atom_site_fract_z
Si Si1 0.000000 0.434919 0.096844
Si Si2 0.573756 0.184320 0.904235
Si Si3 0.447012 0.685982 0.589704
Si Si4 0.315749 0.797875 0.091923
Si Si5 0.339013 0.336240 0.409436
Si Si6 0.748673 0.430297 0.409861
O O1 0.048679 0.390598 0.067012
O O2 0.000000 0.465290 0.250000
O O3 0.000000 0.500000 0.000000
O O4 0.561799 0.212637 0.750000
O O5 0.630647 0.169505 0.923131
O O6 0.551590 0.239841 0.010734
O O7 0.444450 0.703579 0.750000
O O8 0.500000 0.646150 0.557836
O O9 0.395924 0.646258 0.546685
O O10 0.303684 0.775815 0.250000
O O11 0.279749 0.860972 0.041542
O O12 0.313330 0.726961 0.997391
O O13 0.336220 0.311960 0.250000
O O14 0.308363 0.409035 0.431956
O O15 0.761452 0.500000 0.500000
O O16 0.759758 0.448325 0.250000
#
# Coordination Sequence:
#
# PCOD8258195 Si02
#       6
#     8  16  16  16  16  16
#     4  10  20  30  40  56  84 122 155 186 225 268
#     4   9  17  30  45  63  89 118 150 190 234 274
#     4   9  16  27  47  72  94 116 147 189 235 280
#     4   9  18  32  51  73  95 122 159 201 240 284
#     4   9  18  32  50  74 100 125 157 199 242 285
#     4  10  21  35  50  70  98 130 163 198 239 288
#
# _framework density 17.776603000000001
#
# number of rings (size 3 to 8) (size 9 to 14) (size 15 to 20)
#    0.000    2.727    0.909    0.545    0.000    2.909 
#    0.000    0.000    0.000    0.545    0.000    0.000 
#    0.000    0.000    0.000    0.000    0.000    0.000 
#
# Total GULP energy -545093.305906 kJ/mol
# GULP energy per Si atom -12388.484225 kJ/mol
# Density = 1.773614 g / cm^3
# Si number density = 17.776603 Si / 1000 Ang^3
#
#
#
# Elastic Constant Matrix: (Units=GPa)
#
#
# Indices 1 2 3 4 5 6 
#
# 1 94.5196 19.2261 16.4806 0.0000 0.0000 0.0000
# 2 19.2261 42.4518 22.2575 0.0000 0.0000 0.0000
# 3 16.4806 22.2575 38.5965 0.0000 0.0000 0.0000
# 4 0.0000 0.0000 0.0000 22.6027 0.0000 0.0000
# 5 0.0000 0.0000 0.0000 0.0000 21.6960 0.0000
# 6 0.0000 0.0000 0.0000 0.0000 0.0000 178.4989
#
#
#
# Elastic Compliance Matrix: (Units=1/GPa)
#
#
# Indices 1 2 3 4 5 6 
#
# 1 0.011864 -0.003894 -0.002820 0.000000 0.000000 0.000000
# 2 -0.003894 0.035043 -0.018546 0.000000 0.000000 0.000000
# 3 -0.002820 -0.018546 0.037808 0.000000 0.000000 0.000000
# 4 0.000000 0.000000 0.000000 0.044242 0.000000 0.000000
# 5 0.000000 0.000000 0.000000 0.000000 0.046091 0.000000
# 6 0.000000 0.000000 0.000000 0.000000 0.000000 0.005602
#
#
# Mechanical properties :
#
#
# Convention : Reuss Voigt Hill
#
# Bulk Modulus (GPa) = 29.24404 32.38846 30.81625
# Shear Modulus (GPa) = 20.61267 52.39977 36.50622
#
# Velocity S-wave (km/s) = 3.40890 5.43515 4.53659
# Velocity P-wave (km/s) = 5.65514 7.59256 6.69431
#
# Compressibility (1/GPa) = 0.03419500
#
# Stress axis : x y z
#
# Youngs Moduli (GPa) = 84.29088 28.53609 26.44952
#
# Poissons Ratio (x) = 0.11113 0.07459
# Poissons Ratio (y) = 0.32827 0.49052
# Poissons Ratio (z) = 0.23769 0.52922
#
# Static dielectric constant tensor:
#      x y z
#    x 3.771340 0.000000 0.000000 
#    y 0.000000 2.819040 0.000000 
#    z 0.000000 0.000000 3.356070 
# 
# 
# High freq. dielectric constant tensor:
#      x y z
#    x 1.715880 0.000000 0.000000 
#    y 0.000000 1.638030 0.000000 
#    z 0.000000 0.000000 1.688080 
# 
# From -- ./inp_files/14157.got.cif
#   From: 2010.03.12/outbox.cif.g09.slc.cpg/sg63_8_cif.got.tgz:14157.got - 2010.04.10 19:34:48.
