data_PCOD8258344
_publ_section_title
;
Structure prediction by ZEFSAII (Michael W. Deem and Ramdas Pophale) SiO2 
 PCOD8258344
Probable space group: C M C M
;
_chemical_formula_sum "Si O2"
_cell_formula_units_Z 96
_cell_length_a 8.805531
_cell_length_b 20.596291
_cell_length_c 28.492414
_cell_angle_alpha 90.000000
_cell_angle_beta 90.000000
_cell_angle_gamma 90.000000
_cell_volume 5167.420642
_symmetry_space_group_name_H-M "C M C M"
_symmetry_group_IT_number 63
_symmetry_cell_setting 'orthorhombic'
loop_
_space_group_symop_operation_xyz
x,y,z
-x,-y,1/2+z
x,-y,-z
-x,y,1/2-z
-x,-y,-z
x,y,1/2-z
-x,y,z
x,-y,1/2+z
1/2+x,1/2+y,z
1/2-x,1/2-y,1/2+z
1/2+x,1/2-y,-z
1/2-x,1/2+y,1/2-z
1/2-x,1/2-y,-z
1/2+x,1/2+y,1/2-z
1/2-x,1/2+y,z
1/2+x,1/2-y,1/2+z
loop_
_atom_site_type_symbol
_atom_site_label
_atom_site_fract_x
_atom_site_fract_y
_atom_site_fract_z
Si Si1 0.319655 0.426694 0.994602
Si Si2 0.819434 0.993100 0.346593
Si Si3 0.819622 0.875233 0.407831
Si Si4 0.180522 0.249266 0.851638
Si Si5 0.319601 0.292885 0.250000
Si Si6 0.319795 0.622681 0.105307
Si Si7 0.681105 0.439412 0.250000
O O1 0.500000 0.432180 0.992720
O O2 0.260775 0.392127 0.947336
O O3 0.253881 0.500000 0.000000
O O4 0.266471 0.381318 0.038026
O O5 0.754443 0.938295 0.381321
O O6 0.756811 0.978303 0.294809
O O7 0.000000 0.990711 0.348079
O O8 0.762731 0.063639 0.362178
O O9 0.755822 0.810623 0.382838
O O10 0.000000 0.874602 0.404443
O O11 0.237840 0.242900 0.797494
O O12 0.243787 0.313529 0.874788
O O13 0.000000 0.250664 0.852906
O O14 0.500000 0.295410 0.250000
O O15 0.255137 0.366157 0.250000
O O16 0.500000 0.630930 0.106595
O O17 0.500000 0.436818 0.250000
#
# Coordination Sequence:
#
# PCOD8258344 Si02
#       7
#    16  16  16  16   8  16   8
#     4   9  15  26  47  73  97 124 162 205 245 284
#     4   9  15  25  44  71  95 116 154 207 246 271
#     4   9  15  26  47  72  93 120 163 206 235 271
#     4  10  20  33  50  72  99 129 162 200 242 290
#     4   9  16  29  49  71  93 124 163 200 240 286
#     4  10  20  32  48  74 105 131 156 195 249 298
#     4   9  14  23  44  73  95 112 155 216 250 268
#
# _framework density 18.577933000000002
#
# number of rings (size 3 to 8) (size 9 to 14) (size 15 to 20)
#    0.000    2.667    3.333    0.000    0.000    1.333 
#    0.000    1.250    0.000    1.500    0.000    0.000 
#    0.000    0.000    0.000    0.000    0.000    0.000 
#
# Total GULP energy -594934.850269 kJ/mol
# GULP energy per Si atom -12394.476047 kJ/mol
# Density = 1.853565 g / cm^3
# Si number density = 18.577933 Si / 1000 Ang^3
#
#
#
# Elastic Constant Matrix: (Units=GPa)
#
#
# Indices 1 2 3 4 5 6 
#
# 1 6.5726 14.0532 13.5747 0.0000 0.0000 0.0000
# 2 14.0532 167.3455 99.8071 0.0000 0.0000 0.0000
# 3 13.5747 99.8071 199.0048 0.0000 0.0000 0.0000
# 4 0.0000 0.0000 0.0000 40.0398 0.0000 0.0000
# 5 0.0000 0.0000 0.0000 0.0000 10.1933 0.0000
# 6 0.0000 0.0000 0.0000 0.0000 0.0000 20.3331
#
#
#
# Elastic Compliance Matrix: (Units=1/GPa)
#
#
# Indices 1 2 3 4 5 6 
#
# 1 0.192341 -0.011881 -0.007162 0.000000 0.000000 0.000000
# 2 -0.011881 0.009260 -0.003834 0.000000 0.000000 0.000000
# 3 -0.007162 -0.003834 0.007436 0.000000 0.000000 0.000000
# 4 0.000000 0.000000 0.000000 0.024975 0.000000 0.000000
# 5 0.000000 0.000000 0.000000 0.000000 0.098104 0.000000
# 6 0.000000 0.000000 0.000000 0.000000 0.000000 0.049181
#
#
# Mechanical properties :
#
#
# Convention : Reuss Voigt Hill
#
# Bulk Modulus (GPa) = 6.12426 69.75477 37.93951
# Shear Modulus (GPa) = 10.38470 30.47910 20.43190
#
# Velocity S-wave (km/s) = 2.36684 4.05484 3.31991
# Velocity P-wave (km/s) = 3.28221 7.71692 5.92975
#
# Compressibility (1/GPa) = 0.16328513
#
# Stress axis : x y z
#
# Youngs Moduli (GPa) = 5.19909 107.99329 134.47704
#
# Poissons Ratio (x) = 1.28307 0.96306
# Poissons Ratio (y) = 0.06177 0.51554
# Poissons Ratio (z) = 0.03723 0.41401
#
# Static dielectric constant tensor:
#      x y z
#    x 2.650950 0.000000 0.000000 
#    y 0.000000 3.488280 0.000000 
#    z 0.000000 0.000000 3.912550 
# 
# 
# High freq. dielectric constant tensor:
#      x y z
#    x 1.640180 0.000000 0.000000 
#    y 0.000000 1.724370 0.000000 
#    z 0.000000 0.000000 1.743480 
# 
# From -- ./inp_files/68388.got.cif
#   From: 2010.03.12/outbox.cif.g09.slc.cpg/sg63_35_cif.got.tgz:68388.got - 2010.04.10 19:34:48.
