data_PCOD8258525
_publ_section_title
;
Structure prediction by ZEFSAII (Michael W. Deem and Ramdas Pophale) SiO2 
 PCOD8258525
Probable space group: C M C M
;
_chemical_formula_sum "Si O2"
_cell_formula_units_Z 96
_cell_length_a 9.767190
_cell_length_b 28.905883
_cell_length_c 18.785494
_cell_angle_alpha 90.000000
_cell_angle_beta 90.000000
_cell_angle_gamma 90.000000
_cell_volume 5303.694458
_symmetry_space_group_name_H-M "C M C M"
_symmetry_group_IT_number 63
_symmetry_cell_setting 'orthorhombic'
loop_
_space_group_symop_operation_xyz
x,y,z
-x,-y,1/2+z
x,-y,-z
-x,y,1/2-z
-x,-y,-z
x,y,1/2-z
-x,y,z
x,-y,1/2+z
1/2+x,1/2+y,z
1/2-x,1/2-y,1/2+z
1/2+x,1/2-y,-z
1/2-x,1/2+y,1/2-z
1/2-x,1/2-y,-z
1/2+x,1/2+y,1/2-z
1/2-x,1/2+y,z
1/2+x,1/2-y,1/2+z
loop_
_atom_site_type_symbol
_atom_site_label
_atom_site_fract_x
_atom_site_fract_y
_atom_site_fract_z
Si Si1 0.657733 0.738872 0.167529
Si Si2 0.343802 0.655372 0.431460
Si Si3 0.342648 0.931210 0.551623
Si Si4 0.654111 0.401506 0.330256
Si Si5 0.840125 0.811855 0.414684
Si Si6 0.656832 0.030296 0.897471
O O1 0.702698 0.739563 0.250000
O O2 0.500000 0.754568 0.158901
O O3 0.677395 0.687092 0.137787
O O4 0.752121 0.772120 0.121370
O O5 0.500000 0.638128 0.438275
O O6 0.250052 0.610655 0.421854
O O7 0.305505 0.685297 0.501562
O O8 0.500000 0.915290 0.555378
O O9 0.303307 0.946674 0.472436
O O10 0.317303 0.975310 0.602541
O O11 0.663823 0.383092 0.250000
O O12 0.500000 0.416074 0.350238
O O13 0.705374 0.360491 0.380823
O O14 0.748338 0.446627 0.338068
O O15 0.000000 0.801504 0.400465
O O16 0.500000 0.040883 0.878896
#
# Coordination Sequence:
#
# PCOD8258525 Si02
#       6
#    16  16  16  16  16  16
#     4  10  22  38  54  76 107 140 175 217 266 319
#     4  10  20  35  56  81 106 137 177 220 264 312
#     4   9  18  33  54  79 105 133 171 218 261 304
#     4  10  20  33  50  76 110 142 174 217 266 315
#     4  10  20  35  55  79 105 137 178 221 264 312
#     4   9  18  33  52  76 106 138 172 213 260 309
#
# _framework density 18.10059
#
# number of rings (size 3 to 8) (size 9 to 14) (size 15 to 20)
#    0.000    2.333    1.667    2.000    0.000    4.000 
#    0.000    2.500    0.000    3.000    0.000    0.000 
#    0.000    0.000    0.000    0.000    0.000    0.000 
#
# Total GULP energy -595257.393438 kJ/mol
# GULP energy per Si atom -12401.195697 kJ/mol
# Density = 1.805939 g / cm^3
# Si number density = 18.100590 Si / 1000 Ang^3
#
#
#
# Elastic Constant Matrix: (Units=GPa)
#
#
# Indices 1 2 3 4 5 6 
#
# 1 69.7146 55.8603 19.0415 0.0000 0.0000 0.0000
# 2 55.8603 92.7720 24.0578 0.0000 0.0000 0.0000
# 3 19.0415 24.0578 51.5226 0.0000 0.0000 0.0000
# 4 0.0000 0.0000 0.0000 17.0383 0.0000 0.0000
# 5 0.0000 0.0000 0.0000 0.0000 24.2428 0.0000
# 6 0.0000 0.0000 0.0000 0.0000 0.0000 41.6201
#
#
#
# Elastic Compliance Matrix: (Units=1/GPa)
#
#
# Indices 1 2 3 4 5 6 
#
# 1 0.028073 -0.016171 -0.002824 0.000000 0.000000 0.000000
# 2 -0.016171 0.021579 -0.004100 0.000000 0.000000 0.000000
# 3 -0.002824 -0.004100 0.022367 0.000000 0.000000 0.000000
# 4 0.000000 0.000000 0.000000 0.058691 0.000000 0.000000
# 5 0.000000 0.000000 0.000000 0.000000 0.041249 0.000000
# 6 0.000000 0.000000 0.000000 0.000000 0.000000 0.024027
#
#
# Mechanical properties :
#
#
# Convention : Reuss Voigt Hill
#
# Bulk Modulus (GPa) = 38.71577 45.76983 42.24280
# Shear Modulus (GPa) = 19.93729 24.25024 22.09377
#
# Velocity S-wave (km/s) = 3.32244 3.66423 3.49751
# Velocity P-wave (km/s) = 6.01281 6.57597 6.30068
#
# Compressibility (1/GPa) = 0.02582927
#
# Stress axis : x y z
#
# Youngs Moduli (GPa) = 35.62142 46.34081 44.70868
#
# Poissons Ratio (x) = 0.74938 0.12627
# Poissons Ratio (y) = 0.57604 0.18329
# Poissons Ratio (z) = 0.10060 0.18998
#
# Static dielectric constant tensor:
#      x y z
#    x 3.308430 0.000000 0.000000 
#    y 0.000000 3.242090 0.000000 
#    z 0.000000 0.000000 3.271090 
# 
# 
# High freq. dielectric constant tensor:
#      x y z
#    x 1.701320 0.000000 0.000000 
#    y 0.000000 1.696420 0.000000 
#    z 0.000000 0.000000 1.691630 
# 
# From -- ./inp_files/51298.got.cif
#   From: 2010.03.12/outbox.cif.g09.slc.cpg/sg63_26_cif.got.tgz:51298.got - 2010.04.10 19:34:48.
