data_PCOD8258858
_publ_section_title
;
Structure prediction by ZEFSAII (Michael W. Deem and Ramdas Pophale) SiO2 
 PCOD8258858
Probable space group: C M C M
;
_chemical_formula_sum "Si O2"
_cell_formula_units_Z 112
_cell_length_a 28.458796
_cell_length_b 14.237206
_cell_length_c 14.435735
_cell_angle_alpha 90.000000
_cell_angle_beta 90.000000
_cell_angle_gamma 90.000000
_cell_volume 5848.980756
_symmetry_space_group_name_H-M "C M C M"
_symmetry_group_IT_number 63
_symmetry_cell_setting 'orthorhombic'
loop_
_space_group_symop_operation_xyz
x,y,z
-x,-y,1/2+z
x,-y,-z
-x,y,1/2-z
-x,-y,-z
x,y,1/2-z
-x,y,z
x,-y,1/2+z
1/2+x,1/2+y,z
1/2-x,1/2-y,1/2+z
1/2+x,1/2-y,-z
1/2-x,1/2+y,1/2-z
1/2-x,1/2-y,-z
1/2+x,1/2+y,1/2-z
1/2-x,1/2+y,z
1/2+x,1/2-y,1/2+z
loop_
_atom_site_type_symbol
_atom_site_label
_atom_site_fract_x
_atom_site_fract_y
_atom_site_fract_z
Si Si1 0.204818 0.799324 0.459501
Si Si2 0.446870 0.313612 0.644826
Si Si3 0.774016 0.013409 0.646633
Si Si4 0.306365 0.117851 0.354359
Si Si5 0.638700 0.578571 0.074781
Si Si6 0.092224 0.456446 0.643039
Si Si7 0.445896 0.871649 0.464847
O O1 0.250000 0.750000 0.500000
O O2 0.224350 0.889596 0.406933
O O3 0.181392 0.719347 0.396361
O O4 0.164356 0.830018 0.531306
O O5 0.440924 0.276040 0.750000
O O6 0.500000 0.352396 0.630818
O O7 0.409476 0.395561 0.626282
O O8 0.436260 0.232696 0.570624
O O9 0.757309 0.036256 0.750000
O O10 0.736827 0.940743 0.598675
O O11 0.825299 0.966140 0.648111
O O12 0.290808 0.138420 0.250000
O O13 0.351976 0.053111 0.360211
O O14 0.625580 0.500000 0.000000
O O15 0.074007 0.444197 0.750000
O O16 0.082189 0.559528 0.603373
O O17 0.068783 0.380401 0.573147
O O18 0.500000 0.899456 0.455314
#
# Coordination Sequence:
#
# PCOD8258858 Si02
#       7
#    16  16  16  16  16  16  16
#     4  11  21  35  55  79 109 146 187 230 280 329
#     4  10  21  38  60  85 113 145 186 240 295 344
#     4  10  21  37  54  77 109 145 184 228 275 331
#     4  10  21  36  52  77 112 147 188 232 275 331
#     4  10  21  37  57  83 110 144 187 231 284 343
#     4  10  20  34  53  79 114 153 190 232 283 339
#     4  10  21  36  55  83 114 147 191 239 285 340
#
# _framework density 19.148636
#
# number of rings (size 3 to 8) (size 9 to 14) (size 15 to 20)
#    0.000    1.857    1.429    3.000    0.000    5.429 
#    0.000    1.429    0.000    0.857    0.000    0.000 
#    0.000    0.000    0.000    0.000    0.000    0.000 
#
# Total GULP energy -694155.204135 kJ/mol
# GULP energy per Si atom -12395.628645 kJ/mol
# Density = 1.910505 g / cm^3
# Si number density = 19.148636 Si / 1000 Ang^3
#
#
#
# Elastic Constant Matrix: (Units=GPa)
#
#
# Indices 1 2 3 4 5 6 
#
# 1 104.5210 55.5767 37.2052 0.0000 0.0000 0.0000
# 2 55.5767 94.9165 36.4488 0.0000 0.0000 0.0000
# 3 37.2052 36.4488 103.4414 0.0000 0.0000 0.0000
# 4 0.0000 0.0000 0.0000 22.3991 0.0000 0.0000
# 5 0.0000 0.0000 0.0000 0.0000 30.0216 0.0000
# 6 0.0000 0.0000 0.0000 0.0000 0.0000 32.7981
#
#
#
# Elastic Compliance Matrix: (Units=1/GPa)
#
#
# Indices 1 2 3 4 5 6 
#
# 1 0.014458 -0.007481 -0.002564 0.000000 0.000000 0.000000
# 2 -0.007481 0.016055 -0.002966 0.000000 0.000000 0.000000
# 3 -0.002564 -0.002966 0.011635 0.000000 0.000000 0.000000
# 4 0.000000 0.000000 0.000000 0.044645 0.000000 0.000000
# 5 0.000000 0.000000 0.000000 0.000000 0.033309 0.000000
# 6 0.000000 0.000000 0.000000 0.000000 0.000000 0.030490
#
#
# Mechanical properties :
#
#
# Convention : Reuss Voigt Hill
#
# Bulk Modulus (GPa) = 62.01666 62.37116 62.19391
# Shear Modulus (GPa) = 27.47408 28.62031 28.04720
#
# Velocity S-wave (km/s) = 3.79196 3.87025 3.83130
# Velocity P-wave (km/s) = 7.18535 7.25359 7.21955
#
# Compressibility (1/GPa) = 0.01612470
#
# Stress axis : x y z
#
# Youngs Moduli (GPa) = 69.16568 62.28554 85.94868
#
# Poissons Ratio (x) = 0.46596 0.22039
# Poissons Ratio (y) = 0.51743 0.25497
# Poissons Ratio (z) = 0.17735 0.18477
#
# Static dielectric constant tensor:
#      x y z
#    x 3.529560 0.000000 0.000000 
#    y 0.000000 3.499010 0.000000 
#    z 0.000000 0.000000 3.644050 
# 
# 
# High freq. dielectric constant tensor:
#      x y z
#    x 1.748900 0.000000 0.000000 
#    y 0.000000 1.737410 0.000000 
#    z 0.000000 0.000000 1.748080 
# 
# From -- ./inp_files/37936.got.cif
#   From: 2010.03.12/outbox.cif.g09.slc.cpg/sg63_19_cif.got.tgz:37936.got - 2010.04.10 19:34:48.
