data_PCOD8258363
_publ_section_title
;
Structure prediction by ZEFSAII (Michael W. Deem and Ramdas Pophale) SiO2 
 PCOD8258363
Probable space group: C M C M
;
_chemical_formula_sum "Si O2"
_cell_formula_units_Z 80
_cell_length_a 27.455317
_cell_length_b 18.084801
_cell_length_c 8.683821
_cell_angle_alpha 90.000000
_cell_angle_beta 90.000000
_cell_angle_gamma 90.000000
_cell_volume 4311.725055
_symmetry_space_group_name_H-M "C M C M"
_symmetry_group_IT_number 63
_symmetry_cell_setting 'orthorhombic'
loop_
_space_group_symop_operation_xyz
x,y,z
-x,-y,1/2+z
x,-y,-z
-x,y,1/2-z
-x,-y,-z
x,y,1/2-z
-x,y,z
x,-y,1/2+z
1/2+x,1/2+y,z
1/2-x,1/2-y,1/2+z
1/2+x,1/2-y,-z
1/2-x,1/2+y,1/2-z
1/2-x,1/2-y,-z
1/2+x,1/2+y,1/2-z
1/2-x,1/2+y,z
1/2+x,1/2-y,1/2+z
loop_
_atom_site_type_symbol
_atom_site_label
_atom_site_fract_x
_atom_site_fract_y
_atom_site_fract_z
Si Si1 0.946054 0.717142 0.572030
Si Si2 0.349645 0.703682 0.431386
Si Si3 0.095818 0.577719 0.428939
Si Si4 0.789934 0.080365 0.567917
Si Si5 0.805287 0.345472 0.568229
O O1 0.937745 0.698878 0.750000
O O2 0.904840 0.775296 0.518423
O O3 0.941674 0.640147 0.483072
O O4 0.000000 0.750451 0.540867
O O5 0.344772 0.689144 0.250000
O O6 0.336773 0.629708 0.524811
O O7 0.312211 0.768209 0.479718
O O8 0.081086 0.500000 0.500000
O O9 0.090523 0.568910 0.250000
O O10 0.150623 0.600022 0.476483
O O11 0.782183 0.076197 0.750000
O O12 0.743402 0.116091 0.487450
O O13 0.799336 0.000000 0.500000
O O14 0.803175 0.329679 0.750000
#
# Coordination Sequence:
#
# PCOD8258363 Si02
#       5
#    16  16  16  16  16
#     4   9  19  36  57  78 100 131 172 216 262 311
#     4  10  20  36  57  80 107 138 173 214 259 307
#     4  10  20  32  49  74 106 142 177 215 256 301
#     4  12  24  37  54  78 108 140 175 214 259 308
#     4  10  20  35  54  78 108 143 181 214 251 301
#
# _framework density 18.55406
#
# number of rings (size 3 to 8) (size 9 to 14) (size 15 to 20)
#    0.000    1.800    0.000    4.800    0.000    5.600 
#    0.000    0.000    0.000    0.600    0.000    0.000 
#    0.000    0.000    0.000    0.000    0.000    0.000 
#
# Total GULP energy -496117.712785 kJ/mol
# GULP energy per Si atom -12402.942820 kJ/mol
# Density = 1.851183 g / cm^3
# Si number density = 18.554060 Si / 1000 Ang^3
#
#
#
# Elastic Constant Matrix: (Units=GPa)
#
#
# Indices 1 2 3 4 5 6 
#
# 1 100.8372 47.2775 15.2158 0.0000 0.0000 0.0000
# 2 47.2775 103.1421 18.4439 0.0000 0.0000 0.0000
# 3 15.2158 18.4439 49.3921 0.0000 0.0000 0.0000
# 4 0.0000 0.0000 0.0000 31.9232 0.0000 0.0000
# 5 0.0000 0.0000 0.0000 0.0000 22.9934 0.0000
# 6 0.0000 0.0000 0.0000 0.0000 0.0000 18.6349
#
#
#
# Elastic Compliance Matrix: (Units=1/GPa)
#
#
# Indices 1 2 3 4 5 6 
#
# 1 0.012792 -0.005528 -0.001876 0.000000 0.000000 0.000000
# 2 -0.005528 0.012778 -0.003069 0.000000 0.000000 0.000000
# 3 -0.001876 -0.003069 0.021970 0.000000 0.000000 0.000000
# 4 0.000000 0.000000 0.000000 0.031325 0.000000 0.000000
# 5 0.000000 0.000000 0.000000 0.000000 0.043491 0.000000
# 6 0.000000 0.000000 0.000000 0.000000 0.000000 0.053663
#
#
# Mechanical properties :
#
#
# Convention : Reuss Voigt Hill
#
# Bulk Modulus (GPa) = 37.60246 46.13841 41.87044
# Shear Modulus (GPa) = 24.29198 26.20590 25.24894
#
# Velocity S-wave (km/s) = 3.62229 3.76228 3.69295
# Velocity P-wave (km/s) = 6.14858 6.61770 6.38745
#
# Compressibility (1/GPa) = 0.02659400
#
# Stress axis : x y z
#
# Youngs Moduli (GPa) = 78.17460 78.26004 45.51646
#
# Poissons Ratio (x) = 0.43261 0.08541
# Poissons Ratio (y) = 0.43214 0.13967
# Poissons Ratio (z) = 0.14669 0.24015
#
# Static dielectric constant tensor:
#      x y z
#    x 3.503980 0.000000 0.000000 
#    y 0.000000 3.451740 0.000000 
#    z 0.000000 0.000000 3.514840 
# 
# 
# High freq. dielectric constant tensor:
#      x y z
#    x 1.715380 0.000000 0.000000 
#    y 0.000000 1.707540 0.000000 
#    z 0.000000 0.000000 1.732700 
# 
# From -- ./inp_files/11989.got.cif
#   From: 2010.03.12/outbox.cif.g09.slc.cpg/sg63_6_cif.got.tgz:11989.got - 2010.04.10 19:34:48.
