data_PCOD8258993
_publ_section_title
;
Structure prediction by ZEFSAII (Michael W. Deem and Ramdas Pophale) SiO2 
 PCOD8258993
Probable space group: C M C M
;
_chemical_formula_sum "Si O2"
_cell_formula_units_Z 64
_cell_length_a 8.740430
_cell_length_b 22.094455
_cell_length_c 15.981068
_cell_angle_alpha 90.000000
_cell_angle_beta 90.000000
_cell_angle_gamma 90.000000
_cell_volume 3086.184543
_symmetry_space_group_name_H-M "C M C M"
_symmetry_group_IT_number 63
_symmetry_cell_setting 'orthorhombic'
loop_
_space_group_symop_operation_xyz
x,y,z
-x,-y,1/2+z
x,-y,-z
-x,y,1/2-z
-x,-y,-z
x,y,1/2-z
-x,y,z
x,-y,1/2+z
1/2+x,1/2+y,z
1/2-x,1/2-y,1/2+z
1/2+x,1/2-y,-z
1/2-x,1/2+y,1/2-z
1/2-x,1/2-y,-z
1/2+x,1/2+y,1/2-z
1/2-x,1/2+y,z
1/2+x,1/2-y,1/2+z
loop_
_atom_site_type_symbol
_atom_site_label
_atom_site_fract_x
_atom_site_fract_y
_atom_site_fract_z
Si Si1 0.166647 0.261185 0.384754
Si Si2 0.180775 0.055890 0.250000
Si Si3 0.175674 0.314016 0.750000
Si Si4 0.681067 0.955539 0.924792
Si Si5 0.832567 0.844484 0.491494
O O1 0.290910 0.228151 0.328398
O O2 0.139860 0.219534 0.464904
O O3 0.231657 0.327990 0.409555
O O4 0.000000 0.270539 0.340898
O O5 0.217739 0.127100 0.250000
O O6 0.248784 0.024989 0.334610
O O7 0.000000 0.046791 0.250000
O O8 0.000000 0.335418 0.750000
O O9 0.500000 0.953760 0.915160
O O10 0.742134 0.889313 0.947388
O O11 0.732339 0.000000 0.000000
O O12 0.000000 0.871952 0.467827
#
# Coordination Sequence:
#
# PCOD8258993 Si02
#       5
#    16   8   8  16  16
#     4  10  20  34  55  84 120 155 192 242 300 361
#     4  12  24  40  63  92 123 160 208 260 312 370
#     4  12  22  34  57  88 123 158 200 252 304 366
#     4  11  24  42  65  92 124 165 211 261 315 370
#     4  10  20  35  57  85 118 155 196 243 299 361
#
# _framework density 20.737580000000001
#
# number of rings (size 3 to 8) (size 9 to 14) (size 15 to 20)
#    0.000    1.250    2.500    4.500    0.000    4.000 
#    0.000    1.250    0.000    4.500    0.000    0.000 
#    0.000    0.000    0.000    0.000    0.000    0.000 
#
# Total GULP energy -396612.456969 kJ/mol
# GULP energy per Si atom -12394.139280 kJ/mol
# Density = 2.069038 g / cm^3
# Si number density = 20.737580 Si / 1000 Ang^3
#
#
#
# Elastic Constant Matrix: (Units=GPa)
#
#
# Indices 1 2 3 4 5 6 
#
# 1 144.7527 30.8293 52.1260 0.0000 0.0000 0.0000
# 2 30.8293 43.5271 42.5997 0.0000 0.0000 0.0000
# 3 52.1260 42.5997 122.4650 0.0000 0.0000 0.0000
# 4 0.0000 0.0000 0.0000 38.3293 0.0000 0.0000
# 5 0.0000 0.0000 0.0000 0.0000 28.8042 0.0000
# 6 0.0000 0.0000 0.0000 0.0000 0.0000 22.2129
#
#
#
# Elastic Compliance Matrix: (Units=1/GPa)
#
#
# Indices 1 2 3 4 5 6 
#
# 1 0.008551 -0.003782 -0.002324 0.000000 0.000000 0.000000
# 2 -0.003782 0.036505 -0.011089 0.000000 0.000000 0.000000
# 3 -0.002324 -0.011089 0.013012 0.000000 0.000000 0.000000
# 4 0.000000 0.000000 0.000000 0.026090 0.000000 0.000000
# 5 0.000000 0.000000 0.000000 0.000000 0.034717 0.000000
# 6 0.000000 0.000000 0.000000 0.000000 0.000000 0.045019
#
#
# Mechanical properties :
#
#
# Convention : Reuss Voigt Hill
#
# Bulk Modulus (GPa) = 42.23170 62.42831 52.33000
# Shear Modulus (GPa) = 24.25114 30.21524 27.23319
#
# Velocity S-wave (km/s) = 3.42340 3.82125 3.62778
# Velocity P-wave (km/s) = 6.00294 7.04546 6.54499
#
# Compressibility (1/GPa) = 0.02367889
#
# Stress axis : x y z
#
# Youngs Moduli (GPa) = 116.95011 27.39332 76.85188
#
# Poissons Ratio (x) = 0.10359 0.17860
# Poissons Ratio (y) = 0.44228 0.85219
# Poissons Ratio (z) = 0.27179 0.30376
#
# Static dielectric constant tensor:
#      x y z
#    x 4.194350 0.000000 0.000000 
#    y 0.000000 3.410760 0.000000 
#    z 0.000000 0.000000 3.888150 
# 
# 
# High freq. dielectric constant tensor:
#      x y z
#    x 1.834500 0.000000 0.000000 
#    y 0.000000 1.773040 0.000000 
#    z 0.000000 0.000000 1.805040 
# 
# From -- ./inp_files/39894.got.cif
#   From: 2010.03.12/outbox.cif.g09.slc.cpg/sg63_20_cif.got.tgz:39894.got - 2010.04.10 19:34:48.
