data_PCOD8258284
_publ_section_title
;
Structure prediction by ZEFSAII (Michael W. Deem and Ramdas Pophale) SiO2 
 PCOD8258284
Probable space group: C M C M
;
_chemical_formula_sum "Si O2"
_cell_formula_units_Z 112
_cell_length_a 19.802588
_cell_length_b 18.895708
_cell_length_c 17.880375
_cell_angle_alpha 90.000000
_cell_angle_beta 90.000000
_cell_angle_gamma 90.000000
_cell_volume 6690.548817
_symmetry_space_group_name_H-M "C M C M"
_symmetry_group_IT_number 63
_symmetry_cell_setting 'orthorhombic'
loop_
_space_group_symop_operation_xyz
x,y,z
-x,-y,1/2+z
x,-y,-z
-x,y,1/2-z
-x,-y,-z
x,y,1/2-z
-x,y,z
x,-y,1/2+z
1/2+x,1/2+y,z
1/2-x,1/2-y,1/2+z
1/2+x,1/2-y,-z
1/2-x,1/2+y,1/2-z
1/2-x,1/2-y,-z
1/2+x,1/2+y,1/2-z
1/2-x,1/2+y,z
1/2+x,1/2-y,1/2+z
loop_
_atom_site_type_symbol
_atom_site_label
_atom_site_fract_x
_atom_site_fract_y
_atom_site_fract_z
Si Si1 0.310902 0.443855 0.562112
Si Si2 0.687680 0.298334 0.015352
Si Si3 0.377336 0.763085 0.115514
Si Si4 0.710016 0.977509 0.165515
Si Si5 0.924049 0.883846 0.834832
Si Si6 0.074954 0.591507 0.836740
Si Si7 0.264143 0.679257 0.832950
O O1 0.332839 0.500000 0.500000
O O2 0.291050 0.373354 0.518874
O O3 0.245401 0.467697 0.609633
O O4 0.374312 0.431269 0.615889
O O5 0.677347 0.304210 0.105454
O O6 0.750000 0.250000 0.000000
O O7 0.624371 0.263857 0.971501
O O8 0.410590 0.700296 0.162658
O O9 0.420624 0.834648 0.118462
O O10 0.302795 0.776124 0.148602
O O11 0.710944 0.008535 0.250000
O O12 0.632215 0.964710 0.138102
O O13 0.748890 0.903579 0.163209
O O14 0.914785 0.909291 0.750000
O O15 0.000000 0.898580 0.862888
O O16 0.088023 0.610297 0.750000
O O17 0.000000 0.559234 0.849785
O O18 0.290248 0.700052 0.750000
#
# Coordination Sequence:
#
# PCOD8258284 Si02
#       7
#    16  16  16  16  16  16  16
#     4  11  20  32  49  69  95 131 163 200 249 286
#     4   9  18  30  44  70  96 129 160 201 242 289
#     4   9  16  26  45  69 100 126 156 197 248 299
#     4   9  17  29  47  71  96 126 163 202 243 296
#     4  10  20  32  46  67  96 128 161 199 246 299
#     4   9  16  27  47  75 104 133 163 199 250 307
#     4   9  15  26  44  67  94 125 161 200 241 288
#
# _framework density 16.740031999999999
#
# number of rings (size 3 to 8) (size 9 to 14) (size 15 to 20)
#    0.000    2.571    1.429    3.000    0.000    1.429 
#    0.000    0.714    0.000    0.429    0.000    0.000 
#    0.000   10.286    0.000    4.143    0.000    0.000 
#
# Total GULP energy -693984.092879 kJ/mol
# GULP energy per Si atom -12392.573087 kJ/mol
# Density = 1.670193 g / cm^3
# Si number density = 16.740032 Si / 1000 Ang^3
#
#
#
# Elastic Constant Matrix: (Units=GPa)
#
#
# Indices 1 2 3 4 5 6 
#
# 1 86.9803 40.7750 47.0104 0.0000 0.0000 0.0000
# 2 40.7750 68.8713 35.6999 0.0000 0.0000 0.0000
# 3 47.0104 35.6999 118.4360 0.0000 0.0000 0.0000
# 4 0.0000 0.0000 0.0000 17.6655 0.0000 0.0000
# 5 0.0000 0.0000 0.0000 0.0000 14.0075 0.0000
# 6 0.0000 0.0000 0.0000 0.0000 0.0000 18.3839
#
#
#
# Elastic Compliance Matrix: (Units=1/GPa)
#
#
# Indices 1 2 3 4 5 6 
#
# 1 0.017813 -0.008155 -0.004612 0.000000 0.000000 0.000000
# 2 -0.008155 0.020942 -0.003076 0.000000 0.000000 0.000000
# 3 -0.004612 -0.003076 0.011201 0.000000 0.000000 0.000000
# 4 0.000000 0.000000 0.000000 0.056608 0.000000 0.000000
# 5 0.000000 0.000000 0.000000 0.000000 0.071391 0.000000
# 6 0.000000 0.000000 0.000000 0.000000 0.000000 0.054395
#
#
# Mechanical properties :
#
#
# Convention : Reuss Voigt Hill
#
# Bulk Modulus (GPa) = 54.73360 57.91757 56.32559
# Shear Modulus (GPa) = 18.50993 20.06486 19.28739
#
# Velocity S-wave (km/s) = 3.32886 3.46586 3.39805
# Velocity P-wave (km/s) = 6.89509 7.11966 7.00828
#
# Compressibility (1/GPa) = 0.01827031
#
# Stress axis : x y z
#
# Youngs Moduli (GPa) = 56.14008 47.75013 89.27693
#
# Poissons Ratio (x) = 0.38941 0.41175
# Poissons Ratio (y) = 0.45783 0.27458
# Poissons Ratio (z) = 0.25892 0.14686
#
# Static dielectric constant tensor:
#      x y z
#    x 3.457540 0.000000 0.000000 
#    y 0.000000 3.017240 0.000000 
#    z 0.000000 0.000000 3.733460 
# 
# 
# High freq. dielectric constant tensor:
#      x y z
#    x 1.615730 0.000000 0.000000 
#    y 0.000000 1.631740 0.000000 
#    z 0.000000 0.000000 1.649130 
# 
# From -- ./inp_files/47368.got.cif
#   From: 2010.03.12/outbox.cif.g09.slc.cpg/sg63_24_cif.got.tgz:47368.got - 2010.04.10 19:34:48.
