data_PCOD8258131
_publ_section_title
;
Structure prediction by ZEFSAII (Michael W. Deem and Ramdas Pophale) SiO2 
 PCOD8258131
Probable space group: C M C M
;
_chemical_formula_sum "Si O2"
_cell_formula_units_Z 96
_cell_length_a 18.099861
_cell_length_b 20.955392
_cell_length_c 13.555475
_cell_angle_alpha 90.000000
_cell_angle_beta 90.000000
_cell_angle_gamma 90.000000
_cell_volume 5141.451808
_symmetry_space_group_name_H-M "C M C M"
_symmetry_group_IT_number 63
_symmetry_cell_setting 'orthorhombic'
loop_
_space_group_symop_operation_xyz
x,y,z
-x,-y,1/2+z
x,-y,-z
-x,y,1/2-z
-x,-y,-z
x,y,1/2-z
-x,y,z
x,-y,1/2+z
1/2+x,1/2+y,z
1/2-x,1/2-y,1/2+z
1/2+x,1/2-y,-z
1/2-x,1/2+y,1/2-z
1/2-x,1/2-y,-z
1/2+x,1/2+y,1/2-z
1/2-x,1/2+y,z
1/2+x,1/2-y,1/2+z
loop_
_atom_site_type_symbol
_atom_site_label
_atom_site_fract_x
_atom_site_fract_y
_atom_site_fract_z
Si Si1 0.661544 0.928917 0.515404
Si Si2 0.270489 0.600125 0.634748
Si Si3 0.585359 0.649634 0.135724
Si Si4 0.172083 0.219211 0.526636
Si Si5 0.585171 0.173440 0.362546
Si Si6 0.802737 0.041526 0.363076
O O1 0.686736 0.899648 0.409738
O O2 0.599013 0.888257 0.569103
O O3 0.736780 0.925313 0.578151
O O4 0.629987 0.000000 0.500000
O O5 0.262842 0.611510 0.750000
O O6 0.320570 0.654662 0.588389
O O7 0.310829 0.532915 0.606928
O O8 0.593658 0.669522 0.250000
O O9 0.500000 0.644648 0.104260
O O10 0.621887 0.580129 0.116738
O O11 0.625779 0.704602 0.072453
O O12 0.250000 0.250000 0.500000
O O13 0.130032 0.267123 0.597558
O O14 0.608897 0.158606 0.250000
O O15 0.500000 0.191305 0.368871
O O16 0.778954 0.045631 0.250000
#
# Coordination Sequence:
#
# PCOD8258131 Si02
#       6
#    16  16  16  16  16  16
#     4  10  19  36  62  86 110 143 190 239 291 339
#     4  10  20  34  56  86 115 144 191 245 286 329
#     4  10  21  37  58  86 120 157 196 238 289 347
#     4  12  22  38  59  83 114 158 197 242 279 337
#     4  11  24  41  59  84 119 154 189 232 288 352
#     4   9  17  33  58  85 114 145 189 242 291 341
#
# _framework density 18.671768
#
# number of rings (size 3 to 8) (size 9 to 14) (size 15 to 20)
#    0.000    1.667    3.333    1.500    0.000    3.667 
#    0.000    2.500    0.000    4.500    0.000    0.000 
#    0.000    0.000    0.000    0.000    0.000    0.000 
#
# Total GULP energy -595216.344721 kJ/mol
# GULP energy per Si atom -12400.340515 kJ/mol
# Density = 1.862927 g / cm^3
# Si number density = 18.671768 Si / 1000 Ang^3
#
#
#
# Elastic Constant Matrix: (Units=GPa)
#
#
# Indices 1 2 3 4 5 6 
#
# 1 92.3653 36.6096 44.4769 0.0000 0.0000 0.0000
# 2 36.6096 88.0584 41.0552 0.0000 0.0000 0.0000
# 3 44.4769 41.0552 88.7896 0.0000 0.0000 0.0000
# 4 0.0000 0.0000 0.0000 33.5607 0.0000 0.0000
# 5 0.0000 0.0000 0.0000 0.0000 30.9412 0.0000
# 6 0.0000 0.0000 0.0000 0.0000 0.0000 27.7059
#
#
#
# Elastic Compliance Matrix: (Units=1/GPa)
#
#
# Indices 1 2 3 4 5 6 
#
# 1 0.015070 -0.003500 -0.005930 0.000000 0.000000 0.000000
# 2 -0.003500 0.015290 -0.005317 0.000000 0.000000 0.000000
# 3 -0.005930 -0.005317 0.016692 0.000000 0.000000 0.000000
# 4 0.000000 0.000000 0.000000 0.029797 0.000000 0.000000
# 5 0.000000 0.000000 0.000000 0.000000 0.032319 0.000000
# 6 0.000000 0.000000 0.000000 0.000000 0.000000 0.036093
#
#
# Mechanical properties :
#
#
# Convention : Reuss Voigt Hill
#
# Bulk Modulus (GPa) = 56.95736 57.05520 57.00628
# Shear Modulus (GPa) = 27.68444 28.24635 27.96539
#
# Velocity S-wave (km/s) = 3.85475 3.89367 3.87426
# Velocity P-wave (km/s) = 7.09809 7.13004 7.11408
#
# Compressibility (1/GPa) = 0.01755699
#
# Stress axis : x y z
#
# Youngs Moduli (GPa) = 66.35918 65.40220 59.91067
#
# Poissons Ratio (x) = 0.22892 0.35529
# Poissons Ratio (y) = 0.23227 0.31852
# Poissons Ratio (z) = 0.39353 0.34772
#
# Static dielectric constant tensor:
#      x y z
#    x 3.305810 0.000000 0.000000 
#    y 0.000000 3.570720 0.000000 
#    z 0.000000 0.000000 3.760550 
# 
# 
# High freq. dielectric constant tensor:
#      x y z
#    x 1.699800 0.000000 0.000000 
#    y 0.000000 1.731110 0.000000 
#    z 0.000000 0.000000 1.744320 
# 
# From -- ./inp_files/31905.got.cif
#   From: 2010.03.12/outbox.cif.g09.slc.cpg/sg63_16_cif.got.tgz:31905.got - 2010.04.10 19:34:48.
