data_PCOD8258170
_publ_section_title
;
Structure prediction by ZEFSAII (Michael W. Deem and Ramdas Pophale) SiO2 
 PCOD8258170
Probable space group: C M C M
;
_chemical_formula_sum "Si O2"
_cell_formula_units_Z 88
_cell_length_a 18.136092
_cell_length_b 28.924483
_cell_length_c 8.852487
_cell_angle_alpha 90.000000
_cell_angle_beta 90.000000
_cell_angle_gamma 90.000000
_cell_volume 4643.811823
_symmetry_space_group_name_H-M "C M C M"
_symmetry_group_IT_number 63
_symmetry_cell_setting 'orthorhombic'
loop_
_space_group_symop_operation_xyz
x,y,z
-x,-y,1/2+z
x,-y,-z
-x,y,1/2-z
-x,-y,-z
x,y,1/2-z
-x,y,z
x,-y,1/2+z
1/2+x,1/2+y,z
1/2-x,1/2-y,1/2+z
1/2+x,1/2-y,-z
1/2-x,1/2+y,1/2-z
1/2-x,1/2-y,-z
1/2+x,1/2+y,1/2-z
1/2-x,1/2+y,z
1/2+x,1/2-y,1/2+z
loop_
_atom_site_type_symbol
_atom_site_label
_atom_site_fract_x
_atom_site_fract_y
_atom_site_fract_z
Si Si1 0.794615 0.617863 0.571391
Si Si2 0.314293 0.220776 0.927977
Si Si3 0.370867 0.389804 0.428099
Si Si4 0.000000 0.949190 0.570191
Si Si5 0.417028 0.048674 0.928193
Si Si6 0.413642 0.711880 0.580292
O O1 0.801746 0.620381 0.750000
O O2 0.809475 0.668983 0.505527
O O3 0.713697 0.597874 0.528719
O O4 0.858298 0.584983 0.504405
O O5 0.305777 0.220259 0.750000
O O6 0.250000 0.250000 0.000000
O O7 0.390464 0.245422 0.974519
O O8 0.387062 0.395613 0.250000
O O9 0.426285 0.422676 0.518355
O O10 0.381023 0.336630 0.478205
O O11 0.000000 0.952942 0.750000
O O12 0.000000 0.000000 0.500000
O O13 0.408836 0.043863 0.750000
O O14 0.500000 0.064515 0.972212
O O15 0.397337 0.000000 0.000000
O O16 0.384776 0.721251 0.750000
O O17 0.500000 0.707433 0.574902
#
# Coordination Sequence:
#
# PCOD8258170 Si02
#       6
#    16  16  16   8  16  16
#     4   9  19  35  58  84 113 150 189 231 282 339
#     4  11  21  35  55  82 115 151 191 232 280 334
#     4  10  19  38  61  80 109 151 192 234 292 346
#     4  12  26  42  60  86 116 148 194 244 297 348
#     4   9  18  35  58  82 109 142 179 223 278 335
#     4  10  20  36  57  80 111 153 193 233 289 343
#
# _framework density 18.949950999999999
#
# number of rings (size 3 to 8) (size 9 to 14) (size 15 to 20)
#    0.000    2.000    2.727    1.364    0.000    2.545 
#    0.000    6.364    0.000    2.182    0.000    0.000 
#    0.000    0.000    0.000    0.000    0.000    0.000 
#
# Total GULP energy -545546.068703 kJ/mol
# GULP energy per Si atom -12398.774289 kJ/mol
# Density = 1.890682 g / cm^3
# Si number density = 18.949951 Si / 1000 Ang^3
#
#
#
# Elastic Constant Matrix: (Units=GPa)
#
#
# Indices 1 2 3 4 5 6 
#
# 1 139.4576 96.0180 35.2580 0.0000 0.0000 0.0000
# 2 96.0180 140.4017 44.3949 0.0000 0.0000 0.0000
# 3 35.2580 44.3949 56.1697 0.0000 0.0000 0.0000
# 4 0.0000 0.0000 0.0000 29.9335 0.0000 0.0000
# 5 0.0000 0.0000 0.0000 0.0000 26.1448 0.0000
# 6 0.0000 0.0000 0.0000 0.0000 0.0000 38.6224
#
#
#
# Elastic Compliance Matrix: (Units=1/GPa)
#
#
# Indices 1 2 3 4 5 6 
#
# 1 0.013657 -0.008838 -0.001587 0.000000 0.000000 0.000000
# 2 -0.008838 0.015215 -0.006478 0.000000 0.000000 0.000000
# 3 -0.001587 -0.006478 0.023919 0.000000 0.000000 0.000000
# 4 0.000000 0.000000 0.000000 0.033407 0.000000 0.000000
# 5 0.000000 0.000000 0.000000 0.000000 0.038248 0.000000
# 6 0.000000 0.000000 0.000000 0.000000 0.000000 0.025892
#
#
# Mechanical properties :
#
#
# Convention : Reuss Voigt Hill
#
# Bulk Modulus (GPa) = 52.67257 76.37454 64.52355
# Shear Modulus (GPa) = 26.25053 29.63069 27.94061
#
# Velocity S-wave (km/s) = 3.72594 3.95856 3.84401
# Velocity P-wave (km/s) = 6.80927 7.82844 7.33657
#
# Compressibility (1/GPa) = 0.01898521
#
# Stress axis : x y z
#
# Youngs Moduli (GPa) = 73.22358 65.72636 41.80707
#
# Poissons Ratio (x) = 0.58087 0.06636
# Poissons Ratio (y) = 0.64713 0.27081
# Poissons Ratio (z) = 0.11623 0.42576
#
# Static dielectric constant tensor:
#      x y z
#    x 3.841150 0.000000 0.000000 
#    y 0.000000 3.686620 0.000000 
#    z 0.000000 0.000000 3.938700 
# 
# 
# High freq. dielectric constant tensor:
#      x y z
#    x 1.751680 0.000000 0.000000 
#    y 0.000000 1.737490 0.000000 
#    z 0.000000 0.000000 1.710870 
# 
# From -- ./inp_files/6873.got.cif
#   From: 2010.03.12/outbox.cif.g09.slc.cpg/sg63_4_cif.got.tgz:6873.got - 2010.04.10 19:34:48.
