data_PCOD8258963
_publ_section_title
;
Structure prediction by ZEFSAII (Michael W. Deem and Ramdas Pophale) SiO2 
 PCOD8258963
Probable space group: C M C M
;
_chemical_formula_sum "Si O2"
_cell_formula_units_Z 96
_cell_length_a 28.118480
_cell_length_b 10.211095
_cell_length_c 18.263249
_cell_angle_alpha 90.000000
_cell_angle_beta 90.000000
_cell_angle_gamma 90.000000
_cell_volume 5243.752646
_symmetry_space_group_name_H-M "C M C M"
_symmetry_group_IT_number 63
_symmetry_cell_setting 'orthorhombic'
loop_
_space_group_symop_operation_xyz
x,y,z
-x,-y,1/2+z
x,-y,-z
-x,y,1/2-z
-x,-y,-z
x,y,1/2-z
-x,y,z
x,-y,1/2+z
1/2+x,1/2+y,z
1/2-x,1/2-y,1/2+z
1/2+x,1/2-y,-z
1/2-x,1/2+y,1/2-z
1/2-x,1/2-y,-z
1/2+x,1/2+y,1/2-z
1/2-x,1/2+y,z
1/2+x,1/2-y,1/2+z
loop_
_atom_site_type_symbol
_atom_site_label
_atom_site_fract_x
_atom_site_fract_y
_atom_site_fract_z
Si Si1 0.051818 0.632339 0.663198
Si Si2 0.148579 0.490652 0.163435
Si Si3 0.802922 0.747992 0.590284
Si Si4 0.358253 0.493570 0.085472
Si Si5 0.693310 0.770607 0.580033
Si Si6 0.553432 0.572654 0.335386
O O1 0.051595 0.640531 0.750000
O O2 0.094610 0.539896 0.636503
O O3 0.059639 0.779747 0.633675
O O4 0.000000 0.579281 0.635922
O O5 0.151351 0.513991 0.250000
O O6 0.182711 0.370488 0.142887
O O7 0.163584 0.620338 0.121759
O O8 0.747967 0.781273 0.602853
O O9 0.812805 0.707049 0.506585
O O10 0.831897 0.876480 0.613963
O O11 0.325794 0.370050 0.105498
O O12 0.409349 0.478571 0.124018
O O13 0.367363 0.500000 0.000000
O O14 0.564771 0.567129 0.250000
O O15 0.500000 0.522096 0.351323
#
# Coordination Sequence:
#
# PCOD8258963 Si02
#       6
#    16  16  16  16  16  16
#     4   8  15  30  53  78 103 138 180 214 257 324
#     4  11  21  34  56  85 110 138 177 227 275 310
#     4  10  20  39  59  74 103 153 190 209 255 332
#     4  10  20  34  55  82 106 139 184 227 267 307
#     4  10  22  37  55  79 110 143 180 223 270 322
#     4   9  17  32  55  78 103 142 185 219 261 327
#
# _framework density 18.307500000000001
#
# number of rings (size 3 to 8) (size 9 to 14) (size 15 to 20)
#    0.000    2.333    1.667    2.500    0.000    4.333 
#    0.000    2.500    0.000    5.000    0.000    0.000 
#    0.000    0.000    0.000    0.000    0.000    0.000 
#
# Total GULP energy -595184.661736 kJ/mol
# GULP energy per Si atom -12399.680453 kJ/mol
# Density = 1.826583 g / cm^3
# Si number density = 18.307500 Si / 1000 Ang^3
#
#
#
# Elastic Constant Matrix: (Units=GPa)
#
#
# Indices 1 2 3 4 5 6 
#
# 1 122.1573 30.4037 34.2846 0.0000 0.0000 0.0000
# 2 30.4037 65.9343 28.5436 0.0000 0.0000 0.0000
# 3 34.2846 28.5436 32.8574 0.0000 0.0000 0.0000
# 4 0.0000 0.0000 0.0000 25.3497 0.0000 0.0000
# 5 0.0000 0.0000 0.0000 0.0000 30.7608 0.0000
# 6 0.0000 0.0000 0.0000 0.0000 0.0000 26.7790
#
#
#
# Elastic Compliance Matrix: (Units=1/GPa)
#
#
# Indices 1 2 3 4 5 6 
#
# 1 0.011578 -0.000175 -0.011929 0.000000 0.000000 0.000000
# 2 -0.000175 0.024311 -0.020937 0.000000 0.000000 0.000000
# 3 -0.011929 -0.020937 0.061070 0.000000 0.000000 0.000000
# 4 0.000000 0.000000 0.000000 0.039448 0.000000 0.000000
# 5 0.000000 0.000000 0.000000 0.000000 0.032509 0.000000
# 6 0.000000 0.000000 0.000000 0.000000 0.000000 0.037343
#
#
# Mechanical properties :
#
#
# Convention : Reuss Voigt Hill
#
# Bulk Modulus (GPa) = 32.38610 45.26811 38.82711
# Shear Modulus (GPa) = 17.69086 25.09238 21.39162
#
# Velocity S-wave (km/s) = 3.11194 3.70619 3.42199
# Velocity P-wave (km/s) = 5.53540 6.56465 6.07187
#
# Compressibility (1/GPa) = 0.03087744
#
# Stress axis : x y z
#
# Youngs Moduli (GPa) = 86.37405 41.13362 16.37466
#
# Poissons Ratio (x) = 0.00718 0.19533
# Poissons Ratio (y) = 0.01508 0.34284
# Poissons Ratio (z) = 1.03034 0.86122
#
# Static dielectric constant tensor:
#      x y z
#    x 3.727130 0.000000 0.000000 
#    y 0.000000 3.325910 0.000000 
#    z 0.000000 0.000000 3.137390 
# 
# 
# High freq. dielectric constant tensor:
#      x y z
#    x 1.727530 0.000000 0.000000 
#    y 0.000000 1.697710 0.000000 
#    z 0.000000 0.000000 1.686190 
# 
# From -- ./inp_files/57508.got.cif
#   From: 2010.03.12/outbox.cif.g09.slc.cpg/sg63_29_cif.got.tgz:57508.got - 2010.04.10 19:34:48.
