data_PCOD8258075
_publ_section_title
;
Structure prediction by ZEFSAII (Michael W. Deem and Ramdas Pophale) SiO2 
 PCOD8258075
Probable space group: C M C M
;
_chemical_formula_sum "Si O2"
_cell_formula_units_Z 88
_cell_length_a 15.647986
_cell_length_b 19.594467
_cell_length_c 15.139224
_cell_angle_alpha 90.000000
_cell_angle_beta 90.000000
_cell_angle_gamma 90.000000
_cell_volume 4641.897199
_symmetry_space_group_name_H-M "C M C M"
_symmetry_group_IT_number 63
_symmetry_cell_setting 'orthorhombic'
loop_
_space_group_symop_operation_xyz
x,y,z
-x,-y,1/2+z
x,-y,-z
-x,y,1/2-z
-x,-y,-z
x,y,1/2-z
-x,y,z
x,-y,1/2+z
1/2+x,1/2+y,z
1/2-x,1/2-y,1/2+z
1/2+x,1/2-y,-z
1/2-x,1/2+y,1/2-z
1/2-x,1/2-y,-z
1/2+x,1/2+y,1/2-z
1/2-x,1/2+y,z
1/2+x,1/2-y,1/2+z
loop_
_atom_site_type_symbol
_atom_site_label
_atom_site_fract_x
_atom_site_fract_y
_atom_site_fract_z
Si Si1 0.598337 0.368862 0.850623
Si Si2 0.846546 0.229672 0.995212
Si Si3 0.726171 0.512218 0.349279
Si Si4 0.278243 0.356885 0.349119
Si Si5 0.592923 0.141045 0.933751
Si Si6 0.855981 0.500000 0.500000
O O1 0.615440 0.344105 0.750000
O O2 0.500000 0.385957 0.866359
O O3 0.627642 0.309896 0.916248
O O4 0.648012 0.438383 0.871638
O O5 0.902237 0.299372 0.990771
O O6 0.750000 0.250000 0.000000
O O7 0.849084 0.183414 0.907233
O O8 0.761445 0.524667 0.250000
O O9 0.693553 0.435048 0.359384
O O10 0.800599 0.527265 0.418171
O O11 0.288508 0.329812 0.250000
O O12 0.176910 0.349605 0.372911
O O13 0.500000 0.150275 0.884902
O O14 0.588024 0.065421 0.974714
#
# Coordination Sequence:
#
# PCOD8258075 Si02
#       6
#    16  16  16  16  16   8
#     4  10  20  34  54  81 110 137 170 218 268 306
#     4  10  20  34  51  75 106 137 172 213 257 312
#     4   9  17  32  54  78 104 137 178 214 249 306
#     4   9  19  35  55  78 105 140 177 211 251 306
#     4  10  20  34  54  78 103 133 172 221 269 308
#     4  10  19  36  55  74 104 142 176 214 263 314
#
# _framework density 18.957764999999998
#
# number of rings (size 3 to 8) (size 9 to 14) (size 15 to 20)
#    0.000    2.364    0.000    4.091    0.000    3.273 
#    0.000    5.909    0.000    7.091    0.000    0.000 
#    0.000    0.000    0.000    0.000    0.000    0.000 
#
# Total GULP energy -545095.003733 kJ/mol
# GULP energy per Si atom -12388.522812 kJ/mol
# Density = 1.891462 g / cm^3
# Si number density = 18.957765 Si / 1000 Ang^3
#
#
#
# Elastic Constant Matrix: (Units=GPa)
#
#
# Indices 1 2 3 4 5 6 
#
# 1 91.3185 48.2458 37.6530 0.0000 0.0000 0.0000
# 2 48.2458 114.1803 44.4150 0.0000 0.0000 0.0000
# 3 37.6530 44.4150 99.0874 0.0000 0.0000 0.0000
# 4 0.0000 0.0000 0.0000 21.7320 0.0000 0.0000
# 5 0.0000 0.0000 0.0000 0.0000 13.9226 0.0000
# 6 0.0000 0.0000 0.0000 0.0000 0.0000 -34.0993
#
#
#
# Elastic Compliance Matrix: (Units=1/GPa)
#
#
# Indices 1 2 3 4 5 6 
#
# 1 0.015021 -0.004998 -0.003468 0.000000 0.000000 0.000000
# 2 -0.004998 0.012271 -0.003601 0.000000 0.000000 0.000000
# 3 -0.003468 -0.003601 0.013024 0.000000 0.000000 0.000000
# 4 0.000000 0.000000 0.000000 0.046015 0.000000 0.000000
# 5 0.000000 0.000000 0.000000 0.000000 0.071825 0.000000
# 6 0.000000 0.000000 0.000000 0.000000 0.000000 -0.029326
#
#
# Mechanical properties :
#
#
# Convention : Reuss Voigt Hill
#
# Bulk Modulus (GPa) = 61.79597 62.80151 62.29874
# Shear Modulus (GPa) = 31.57409 11.92924 21.75167
#
# Velocity S-wave (km/s) = 4.08548 2.51121 3.39097
# Velocity P-wave (km/s) = 7.41095 6.45037 6.94728
#
# Compressibility (1/GPa) = 0.01618229
#
# Stress axis : x y z
#
# Youngs Moduli (GPa) = 66.57298 81.49467 76.78202
#
# Poissons Ratio (x) = 0.40732 0.26625
# Poissons Ratio (y) = 0.33274 0.27649
# Poissons Ratio (z) = 0.23085 0.29346
#
# Static dielectric constant tensor:
#      x y z
#    x 3.464520 0.000000 0.000000 
#    y 0.000000 4.109390 0.000000 
#    z 0.000000 0.000000 3.843510 
# 
# 
# High freq. dielectric constant tensor:
#      x y z
#    x 1.721100 0.000000 0.000000 
#    y 0.000000 1.755670 0.000000 
#    z 0.000000 0.000000 1.724120 
# 
# From -- ./inp_files/31777.got.cif
#   From: 2010.03.12/outbox.cif.g09.slc.cpg/sg63_16_cif.got.tgz:31777.got - 2010.04.10 19:34:48.
