data_PCOD8258275
_publ_section_title
;
Structure prediction by ZEFSAII (Michael W. Deem and Ramdas Pophale) SiO2 
 PCOD8258275
Probable space group: C M C M
;
_chemical_formula_sum "Si O2"
_cell_formula_units_Z 88
_cell_length_a 17.948026
_cell_length_b 28.917817
_cell_length_c 9.357928
_cell_angle_alpha 90.000000
_cell_angle_beta 90.000000
_cell_angle_gamma 90.000000
_cell_volume 4856.930561
_symmetry_space_group_name_H-M "C M C M"
_symmetry_group_IT_number 63
_symmetry_cell_setting 'orthorhombic'
loop_
_space_group_symop_operation_xyz
x,y,z
-x,-y,1/2+z
x,-y,-z
-x,y,1/2-z
-x,-y,-z
x,y,1/2-z
-x,y,z
x,-y,1/2+z
1/2+x,1/2+y,z
1/2-x,1/2-y,1/2+z
1/2+x,1/2-y,-z
1/2-x,1/2+y,1/2-z
1/2-x,1/2-y,-z
1/2+x,1/2+y,1/2-z
1/2-x,1/2+y,z
1/2+x,1/2-y,1/2+z
loop_
_atom_site_type_symbol
_atom_site_label
_atom_site_fract_x
_atom_site_fract_y
_atom_site_fract_z
Si Si1 0.000000 0.952539 0.417237
Si Si2 0.911950 0.707631 0.594355
Si Si3 0.359619 0.391738 0.416007
Si Si4 0.085485 0.192544 0.079689
Si Si5 0.718013 0.046893 0.917174
Si Si6 0.416744 0.108268 0.579115
O O1 0.927307 0.924318 0.463971
O O2 0.000000 0.963590 0.250000
O O3 0.000000 0.000000 0.500000
O O4 0.873291 0.706916 0.750000
O O5 0.889347 0.756373 0.519776
O O6 0.892155 0.658984 0.514989
O O7 0.000000 0.708879 0.615451
O O8 0.365940 0.378943 0.250000
O O9 0.361064 0.344591 0.505800
O O10 0.283159 0.417298 0.452523
O O11 0.094778 0.190486 0.250000
O O12 0.000000 0.182187 0.036206
O O13 0.714960 0.035401 0.750000
O O14 0.640654 0.069236 0.972898
O O15 0.733451 0.000000 0.000000
O O16 0.415476 0.112442 0.750000
O O17 0.500000 0.094711 0.526341
#
# Coordination Sequence:
#
# PCOD8258275 Si02
#       6
#     8  16  16  16  16  16
#     4  10  20  32  46  62  84 120 162 200 235 272
#     4   7  11  22  43  71  98 121 151 192 232 273
#     4  10  20  33  46  65  96 130 161 194 238 287
#     4   9  16  27  47  74  97 122 160 200 234 271
#     4  10  21  35  51  71  95 125 160 199 243 286
#     4   8  14  28  51  75  97 123 156 193 235 286
#
# _framework density 18.118438999999999
#
# number of rings (size 3 to 8) (size 9 to 14) (size 15 to 20)
#    0.000    3.091    0.909    2.727    0.000    1.818 
#    0.000    0.909    0.000    1.091    0.000    2.545 
#    0.000    0.000    0.000    0.000    0.000    0.000 
#
# Total GULP energy -545150.095748 kJ/mol
# GULP energy per Si atom -12389.774903 kJ/mol
# Density = 1.807720 g / cm^3
# Si number density = 18.118439 Si / 1000 Ang^3
#
#
#
# Elastic Constant Matrix: (Units=GPa)
#
#
# Indices 1 2 3 4 5 6 
#
# 1 79.0164 24.5991 17.2927 0.0000 0.0000 0.0000
# 2 24.5991 78.2643 28.8864 0.0000 0.0000 0.0000
# 3 17.2927 28.8864 24.5102 0.0000 0.0000 0.0000
# 4 0.0000 0.0000 0.0000 9.5336 0.0000 0.0000
# 5 0.0000 0.0000 0.0000 0.0000 6.4359 0.0000
# 6 0.0000 0.0000 0.0000 0.0000 0.0000 17.7789
#
#
#
# Elastic Compliance Matrix: (Units=1/GPa)
#
#
# Indices 1 2 3 4 5 6 
#
# 1 0.015057 -0.001437 -0.008930 0.000000 0.000000 0.000000
# 2 -0.001437 0.022751 -0.025800 0.000000 0.000000 0.000000
# 3 -0.008930 -0.025800 0.077506 0.000000 0.000000 0.000000
# 4 0.000000 0.000000 0.000000 0.104892 0.000000 0.000000
# 5 0.000000 0.000000 0.000000 0.000000 0.155379 0.000000
# 6 0.000000 0.000000 0.000000 0.000000 0.000000 0.056246
#
#
# Mechanical properties :
#
#
# Convention : Reuss Voigt Hill
#
# Bulk Modulus (GPa) = 23.26595 35.92747 29.59671
# Shear Modulus (GPa) = 9.64336 14.15054 11.89695
#
# Velocity S-wave (km/s) = 2.30954 2.79767 2.56524
# Velocity P-wave (km/s) = 4.47000 5.50529 5.01443
#
# Compressibility (1/GPa) = 0.04298127
#
# Stress axis : x y z
#
# Youngs Moduli (GPa) = 66.41330 43.95411 12.90224
#
# Poissons Ratio (x) = 0.06314 0.11522
# Poissons Ratio (y) = 0.09540 0.33287
# Poissons Ratio (z) = 0.59310 1.13400
#
# Static dielectric constant tensor:
#      x y z
#    x 3.297800 0.000000 0.000000 
#    y 0.000000 3.646810 0.000000 
#    z 0.000000 0.000000 2.869540 
# 
# 
# High freq. dielectric constant tensor:
#      x y z
#    x 1.683770 0.000000 0.000000 
#    y 0.000000 1.721320 0.000000 
#    z 0.000000 0.000000 1.649230 
# 
# From -- ./inp_files/6813.got.cif
#   From: 2010.03.12/outbox.cif.g09.slc.cpg/sg63_4_cif.got.tgz:6813.got - 2010.04.10 19:34:48.
