data_PCOD8258162
_publ_section_title
;
Structure prediction by ZEFSAII (Michael W. Deem and Ramdas Pophale) SiO2 
 PCOD8258162
Probable space group: C M C M
;
_chemical_formula_sum "Si O2"
_cell_formula_units_Z 80
_cell_length_a 8.846696
_cell_length_b 27.632756
_cell_length_c 16.045246
_cell_angle_alpha 90.000000
_cell_angle_beta 90.000000
_cell_angle_gamma 90.000000
_cell_volume 3922.398245
_symmetry_space_group_name_H-M "C M C M"
_symmetry_group_IT_number 63
_symmetry_cell_setting 'orthorhombic'
loop_
_space_group_symop_operation_xyz
x,y,z
-x,-y,1/2+z
x,-y,-z
-x,y,1/2-z
-x,-y,-z
x,y,1/2-z
-x,y,z
x,-y,1/2+z
1/2+x,1/2+y,z
1/2-x,1/2-y,1/2+z
1/2+x,1/2-y,-z
1/2-x,1/2+y,1/2-z
1/2-x,1/2-y,-z
1/2+x,1/2+y,1/2-z
1/2-x,1/2+y,z
1/2+x,1/2-y,1/2+z
loop_
_atom_site_type_symbol
_atom_site_label
_atom_site_fract_x
_atom_site_fract_y
_atom_site_fract_z
Si Si1 0.327100 0.970596 0.655354
Si Si2 0.819130 0.768139 0.250000
Si Si3 0.180249 0.225118 0.081642
Si Si4 0.177307 0.886432 0.574873
Si Si5 0.678757 0.562673 0.593186
Si Si6 0.679436 0.378604 0.250000
O O1 0.305416 0.987856 0.750000
O O2 0.500000 0.968619 0.628654
O O3 0.257640 0.916889 0.647438
O O4 0.243382 0.008451 0.595090
O O5 0.751075 0.745043 0.166643
O O6 0.765723 0.823553 0.250000
O O7 0.000000 0.762311 0.250000
O O8 0.226716 0.169057 0.078022
O O9 0.000000 0.232454 0.081576
O O10 0.250000 0.250000 0.000000
O O11 0.233485 0.909630 0.488588
O O12 0.000000 0.891515 0.586982
O O13 0.500000 0.558402 0.597260
O O14 0.744240 0.594276 0.669229
O O15 0.500000 0.380195 0.250000
#
# Coordination Sequence:
#
# PCOD8258162 Si02
#       6
#    16   8  16  16  16   8
#     4  11  24  39  56  86 125 159 197 247 308 368
#     4  11  23  41  66  95 130 169 214 269 324 381
#     4  11  24  44  67  96 130 168 216 269 323 382
#     4  10  23  40  62  88 119 159 209 252 296 366
#     4  10  19  37  63  88 113 154 204 248 297 360
#     4   9  18  35  62  89 116 155 202 249 302 363
#
# _framework density 20.395685
#
# number of rings (size 3 to 8) (size 9 to 14) (size 15 to 20)
#    0.000    1.600    1.000    3.300    1.400    9.200 
#    0.000    4.000    0.000    0.000    0.000    0.000 
#    0.000    0.000    0.000    0.000    0.000    0.000 
#
# Total GULP energy -496095.491945 kJ/mol
# GULP energy per Si atom -12402.387299 kJ/mol
# Density = 2.034926 g / cm^3
# Si number density = 20.395685 Si / 1000 Ang^3
#
#
#
# Elastic Constant Matrix: (Units=GPa)
#
#
# Indices 1 2 3 4 5 6 
#
# 1 55.9001 46.7836 38.6814 0.0000 0.0000 0.0000
# 2 46.7836 159.3992 49.5543 0.0000 0.0000 0.0000
# 3 38.6814 49.5543 106.8020 0.0000 0.0000 0.0000
# 4 0.0000 0.0000 0.0000 40.1210 0.0000 0.0000
# 5 0.0000 0.0000 0.0000 0.0000 31.3647 0.0000
# 6 0.0000 0.0000 0.0000 0.0000 0.0000 34.1305
#
#
#
# Elastic Compliance Matrix: (Units=1/GPa)
#
#
# Indices 1 2 3 4 5 6 
#
# 1 0.027937 -0.005906 -0.007378 0.000000 0.000000 0.000000
# 2 -0.005906 0.008579 -0.001842 0.000000 0.000000 0.000000
# 3 -0.007378 -0.001842 0.012890 0.000000 0.000000 0.000000
# 4 0.000000 0.000000 0.000000 0.024925 0.000000 0.000000
# 5 0.000000 0.000000 0.000000 0.000000 0.031883 0.000000
# 6 0.000000 0.000000 0.000000 0.000000 0.000000 0.029299
#
#
# Mechanical properties :
#
#
# Convention : Reuss Voigt Hill
#
# Bulk Modulus (GPa) = 52.20516 65.79331 58.99924
# Shear Modulus (GPa) = 29.04448 33.59538 31.31993
#
# Velocity S-wave (km/s) = 3.77775 4.06295 3.92294
# Velocity P-wave (km/s) = 6.68433 7.37147 7.03629
#
# Compressibility (1/GPa) = 0.01915519
#
# Stress axis : x y z
#
# Youngs Moduli (GPa) = 35.79460 116.55711 77.58043
#
# Poissons Ratio (x) = 0.68837 0.57239
# Poissons Ratio (y) = 0.21140 0.14288
# Poissons Ratio (z) = 0.26409 0.21467
#
# Static dielectric constant tensor:
#      x y z
#    x 3.524150 0.000000 0.000000 
#    y 0.000000 3.902080 0.000000 
#    z 0.000000 0.000000 3.374870 
# 
# 
# High freq. dielectric constant tensor:
#      x y z
#    x 1.783990 0.000000 0.000000 
#    y 0.000000 1.812790 0.000000 
#    z 0.000000 0.000000 1.811000 
# 
# From -- ./inp_files/40742.got.cif
#   From: 2010.03.12/outbox.cif.g09.slc.cpg/sg63_21_cif.got.tgz:40742.got - 2010.04.10 19:34:48.
