data_PCOD8258343
_publ_section_title
;
Structure prediction by ZEFSAII (Michael W. Deem and Ramdas Pophale) SiO2 
 PCOD8258343
Probable space group: C M C M
;
_chemical_formula_sum "Si O2"
_cell_formula_units_Z 64
_cell_length_a 9.694985
_cell_length_b 40.572792
_cell_length_c 9.152368
_cell_angle_alpha 90.000000
_cell_angle_beta 90.000000
_cell_angle_gamma 90.000000
_cell_volume 3600.107839
_symmetry_space_group_name_H-M "C M C M"
_symmetry_group_IT_number 63
_symmetry_cell_setting 'orthorhombic'
loop_
_space_group_symop_operation_xyz
x,y,z
-x,-y,1/2+z
x,-y,-z
-x,y,1/2-z
-x,-y,-z
x,y,1/2-z
-x,y,z
x,-y,1/2+z
1/2+x,1/2+y,z
1/2-x,1/2-y,1/2+z
1/2+x,1/2-y,-z
1/2-x,1/2+y,1/2-z
1/2-x,1/2-y,-z
1/2+x,1/2+y,1/2-z
1/2-x,1/2+y,z
1/2+x,1/2-y,1/2+z
loop_
_atom_site_type_symbol
_atom_site_label
_atom_site_fract_x
_atom_site_fract_y
_atom_site_fract_z
Si Si1 0.654468 0.775550 0.919971
Si Si2 0.838879 0.649427 0.417766
Si Si3 0.340199 0.403018 0.079012
Si Si4 0.335913 0.531683 0.414886
O O1 0.659841 0.767687 0.750000
O O2 0.500000 0.770866 0.979910
O O3 0.703048 0.812870 0.949637
O O4 0.750000 0.750000 0.000000
O O5 0.805400 0.640272 0.250000
O O6 0.748410 0.627749 0.526044
O O7 0.000000 0.643735 0.449915
O O8 0.317648 0.408551 0.250000
O O9 0.500000 0.396152 0.042294
O O10 0.285641 0.435512 0.996789
O O11 0.275795 0.500000 0.500000
O O12 0.277599 0.531792 0.250000
O O13 0.500000 0.530069 0.413821
#
# Coordination Sequence:
#
# PCOD8258343 Si02
#       4
#    16  16  16  16
#     4   9  19  35  53  74 100 129 163 203 246 294
#     4   9  19  36  54  71  96 132 169 203 244 295
#     4  10  20  32  48  74 104 131 164 206 248 292
#     4   9  16  27  45  69  98 131 165 203 247 292
#
# _framework density 17.777245000000001
#
# number of rings (size 3 to 8) (size 9 to 14) (size 15 to 20)
#    0.000    2.750    0.000    3.000    0.000    7.500 
#    0.000    7.500    0.000    0.750    0.000    0.000 
#    0.000    0.000    0.000    0.000    0.000    0.000 
#
# Total GULP energy -396800.332506 kJ/mol
# GULP energy per Si atom -12400.010391 kJ/mol
# Density = 1.773678 g / cm^3
# Si number density = 17.777245 Si / 1000 Ang^3
#
#
#
# Elastic Constant Matrix: (Units=GPa)
#
#
# Indices 1 2 3 4 5 6 
#
# 1 47.8943 51.4526 39.5024 0.0000 0.0000 0.0000
# 2 51.4526 129.6648 71.4256 0.0000 0.0000 0.0000
# 3 39.5024 71.4256 109.2843 0.0000 0.0000 0.0000
# 4 0.0000 0.0000 0.0000 42.5222 0.0000 0.0000
# 5 0.0000 0.0000 0.0000 0.0000 28.1889 0.0000
# 6 0.0000 0.0000 0.0000 0.0000 0.0000 20.1263
#
#
#
# Elastic Compliance Matrix: (Units=1/GPa)
#
#
# Indices 1 2 3 4 5 6 
#
# 1 0.038916 -0.012022 -0.006210 0.000000 0.000000 0.000000
# 2 -0.012022 0.015764 -0.005958 0.000000 0.000000 0.000000
# 3 -0.006210 -0.005958 0.015289 0.000000 0.000000 0.000000
# 4 0.000000 0.000000 0.000000 0.023517 0.000000 0.000000
# 5 0.000000 0.000000 0.000000 0.000000 0.035475 0.000000
# 6 0.000000 0.000000 0.000000 0.000000 0.000000 0.049686
#
#
# Mechanical properties :
#
#
# Convention : Reuss Voigt Hill
#
# Bulk Modulus (GPa) = 46.31594 67.95604 57.13599
# Shear Modulus (GPa) = 21.34724 26.46501 23.90613
#
# Velocity S-wave (km/s) = 3.46904 3.86256 3.67108
# Velocity P-wave (km/s) = 6.49274 7.62901 7.08370
#
# Compressibility (1/GPa) = 0.02159084
#
# Stress axis : x y z
#
# Youngs Moduli (GPa) = 25.69655 63.43408 65.40708
#
# Poissons Ratio (x) = 0.76259 0.40615
# Poissons Ratio (y) = 0.30892 0.38968
# Poissons Ratio (z) = 0.15956 0.37793
#
# Static dielectric constant tensor:
#      x y z
#    x 3.306930 0.000000 0.000000 
#    y 0.000000 3.056570 0.000000 
#    z 0.000000 0.000000 3.327610 
# 
# 
# High freq. dielectric constant tensor:
#      x y z
#    x 1.654020 0.000000 0.000000 
#    y 0.000000 1.699240 0.000000 
#    z 0.000000 0.000000 1.694380 
# 
# From -- ./inp_files/3115.got.cif
#   From: 2010.03.12/outbox.cif.g09.slc.cpg/sg63_2_cif.got.tgz:3115.got - 2010.04.10 19:34:48.
