data_PCOD8258641
_publ_section_title
;
Structure prediction by ZEFSAII (Michael W. Deem and Ramdas Pophale) SiO2 
 PCOD8258641
Probable space group: C M C M
;
_chemical_formula_sum "Si O2"
_cell_formula_units_Z 80
_cell_length_a 13.545227
_cell_length_b 18.343080
_cell_length_c 16.951732
_cell_angle_alpha 90.000000
_cell_angle_beta 90.000000
_cell_angle_gamma 90.000000
_cell_volume 4211.847378
_symmetry_space_group_name_H-M "C M C M"
_symmetry_group_IT_number 63
_symmetry_cell_setting 'orthorhombic'
loop_
_space_group_symop_operation_xyz
x,y,z
-x,-y,1/2+z
x,-y,-z
-x,y,1/2-z
-x,-y,-z
x,y,1/2-z
-x,y,z
x,-y,1/2+z
1/2+x,1/2+y,z
1/2-x,1/2-y,1/2+z
1/2+x,1/2-y,-z
1/2-x,1/2+y,1/2-z
1/2-x,1/2-y,-z
1/2+x,1/2+y,1/2-z
1/2-x,1/2+y,z
1/2+x,1/2-y,1/2+z
loop_
_atom_site_type_symbol
_atom_site_label
_atom_site_fract_x
_atom_site_fract_y
_atom_site_fract_z
Si Si1 0.703631 0.227817 0.158803
Si Si2 0.111682 0.146984 0.387161
Si Si3 0.799539 0.000910 0.839970
Si Si4 0.109091 0.578930 0.343685
Si Si5 0.614047 0.636960 0.927775
O O1 0.681012 0.244140 0.250000
O O2 0.819436 0.211038 0.146745
O O3 0.640822 0.159049 0.126178
O O4 0.676258 0.297717 0.108449
O O5 0.129718 0.136117 0.479465
O O6 0.000000 0.170566 0.369039
O O7 0.134419 0.071616 0.342858
O O8 0.797744 0.029620 0.750000
O O9 0.845047 0.061001 0.896172
O O10 0.688423 0.981798 0.870683
O O11 0.109578 0.581912 0.250000
O O12 0.000000 0.559441 0.376644
O O13 0.500000 0.645402 0.903572
#
# Coordination Sequence:
#
# PCOD8258641 Si02
#       5
#    16  16  16  16  16
#     4  10  20  34  55  80 103 132 174 222 266 312
#     4  10  21  37  55  75 105 145 179 211 262 325
#     4  10  20  33  53  80 106 137 179 223 264 310
#     4   8  15  30  51  73  98 130 168 209 255 308
#     4  11  22  35  53  78 108 139 173 220 273 316
#
# _framework density 18.994039999999998
#
# number of rings (size 3 to 8) (size 9 to 14) (size 15 to 20)
#    0.000    2.200    0.000    4.800    0.000    6.400 
#    0.000    1.000    0.000   13.200    0.000    0.000 
#    0.000    0.000    0.000    0.000    0.000    0.000 
#
# Total GULP energy -496037.667733 kJ/mol
# GULP energy per Si atom -12400.941693 kJ/mol
# Density = 1.895081 g / cm^3
# Si number density = 18.994040 Si / 1000 Ang^3
#
#
#
# Elastic Constant Matrix: (Units=GPa)
#
#
# Indices 1 2 3 4 5 6 
#
# 1 111.4843 29.5270 14.6369 0.0000 0.0000 0.0000
# 2 29.5270 71.6864 4.8309 0.0000 0.0000 0.0000
# 3 14.6369 4.8309 39.2724 0.0000 0.0000 0.0000
# 4 0.0000 0.0000 0.0000 33.1772 0.0000 0.0000
# 5 0.0000 0.0000 0.0000 0.0000 25.9213 0.0000
# 6 0.0000 0.0000 0.0000 0.0000 0.0000 22.7774
#
#
#
# Elastic Compliance Matrix: (Units=1/GPa)
#
#
# Indices 1 2 3 4 5 6 
#
# 1 0.010502 -0.004096 -0.003410 0.000000 0.000000 0.000000
# 2 -0.004096 0.015664 -0.000400 0.000000 0.000000 0.000000
# 3 -0.003410 -0.000400 0.026783 0.000000 0.000000 0.000000
# 4 0.000000 0.000000 0.000000 0.030141 0.000000 0.000000
# 5 0.000000 0.000000 0.000000 0.000000 0.038578 0.000000
# 6 0.000000 0.000000 0.000000 0.000000 0.000000 0.043903
#
#
# Mechanical properties :
#
#
# Convention : Reuss Voigt Hill
#
# Bulk Modulus (GPa) = 26.92782 35.60364 31.26573
# Shear Modulus (GPa) = 25.80451 27.93840 26.87145
#
# Velocity S-wave (km/s) = 3.68986 3.83940 3.76537
# Velocity P-wave (km/s) = 5.68869 6.20000 5.94984
#
# Compressibility (1/GPa) = 0.03713632
#
# Stress axis : x y z
#
# Youngs Moduli (GPa) = 95.21556 63.84173 37.33648
#
# Poissons Ratio (x) = 0.26150 0.12733
# Poissons Ratio (y) = 0.39001 0.01494
# Poissons Ratio (z) = 0.32473 0.02555
#
# Static dielectric constant tensor:
#      x y z
#    x 3.875240 0.000000 0.000000 
#    y 0.000000 3.285200 0.000000 
#    z 0.000000 0.000000 3.366110 
# 
# 
# High freq. dielectric constant tensor:
#      x y z
#    x 1.749560 0.000000 0.000000 
#    y 0.000000 1.723870 0.000000 
#    z 0.000000 0.000000 1.729440 
# 
# From -- ./inp_files/43942.got.cif
#   From: 2010.03.12/outbox.cif.g09.slc.cpg/sg63_22_cif.got.tgz:43942.got - 2010.04.10 19:34:48.
