data_PCOD8258158
_publ_section_title
;
Structure prediction by ZEFSAII (Michael W. Deem and Ramdas Pophale) SiO2 
 PCOD8258158
Probable space group: C M C M
;
_chemical_formula_sum "Si O2"
_cell_formula_units_Z 80
_cell_length_a 8.838968
_cell_length_b 24.874259
_cell_length_c 18.728331
_cell_angle_alpha 90.000000
_cell_angle_beta 90.000000
_cell_angle_gamma 90.000000
_cell_volume 4117.662906
_symmetry_space_group_name_H-M "C M C M"
_symmetry_group_IT_number 63
_symmetry_cell_setting 'orthorhombic'
loop_
_space_group_symop_operation_xyz
x,y,z
-x,-y,1/2+z
x,-y,-z
-x,y,1/2-z
-x,-y,-z
x,y,1/2-z
-x,y,z
x,-y,1/2+z
1/2+x,1/2+y,z
1/2-x,1/2-y,1/2+z
1/2+x,1/2-y,-z
1/2-x,1/2+y,1/2-z
1/2-x,1/2-y,-z
1/2+x,1/2+y,1/2-z
1/2-x,1/2+y,z
1/2+x,1/2-y,1/2+z
loop_
_atom_site_type_symbol
_atom_site_label
_atom_site_fract_x
_atom_site_fract_y
_atom_site_fract_z
Si Si1 0.821562 0.235020 0.830803
Si Si2 0.821518 0.162560 0.398294
Si Si3 0.825032 0.440859 0.833652
Si Si4 0.679636 0.648394 0.557484
Si Si5 0.823244 0.972433 0.075494
O O1 0.776408 0.219899 0.750000
O O2 0.753597 0.292482 0.849644
O O3 0.755155 0.188972 0.882818
O O4 0.000000 0.239672 0.839672
O O5 0.776210 0.104377 0.370212
O O6 0.764657 0.168561 0.479972
O O7 0.000000 0.168422 0.393014
O O8 0.795108 0.440236 0.750000
O O9 0.772300 0.498282 0.863401
O O10 0.000000 0.430712 0.851886
O O11 0.500000 0.647182 0.559018
O O12 0.738877 0.588469 0.572981
O O13 0.000000 0.974959 0.095082
O O14 0.791345 0.000000 0.000000
#
# Coordination Sequence:
#
# PCOD8258158 Si02
#       5
#    16  16  16  16  16
#     4  10  21  37  56  81 115 151 187 230 283 344
#     4  11  21  37  60  84 112 147 192 242 287 337
#     4  11  24  39  56  84 120 154 191 236 288 344
#     4   9  19  36  59  85 113 147 188 233 284 343
#     4  10  19  37  62  87 115 147 190 240 283 336
#
# _framework density 19.428497
#
# number of rings (size 3 to 8) (size 9 to 14) (size 15 to 20)
#    0.000    1.800    2.000    2.400    0.000    5.600 
#    0.000    4.000    0.000    0.000    0.000    0.000 
#    0.000    0.000    0.000    0.000    0.000    0.000 
#
# Total GULP energy -496146.844147 kJ/mol
# GULP energy per Si atom -12403.671104 kJ/mol
# Density = 1.938428 g / cm^3
# Si number density = 19.428497 Si / 1000 Ang^3
#
#
#
# Elastic Constant Matrix: (Units=GPa)
#
#
# Indices 1 2 3 4 5 6 
#
# 1 4.6183 23.2222 48.0337 0.0000 0.0000 0.0000
# 2 23.2222 92.9754 42.5585 0.0000 0.0000 0.0000
# 3 48.0337 42.5585 130.4374 0.0000 0.0000 0.0000
# 4 0.0000 0.0000 0.0000 38.5807 0.0000 0.0000
# 5 0.0000 0.0000 0.0000 0.0000 27.8963 0.0000
# 6 0.0000 0.0000 0.0000 0.0000 0.0000 20.3253
#
#
#
# Elastic Compliance Matrix: (Units=1/GPa)
#
#
# Indices 1 2 3 4 5 6 
#
# 1 -0.072511 0.006922 0.024444 0.000000 0.000000 0.000000
# 2 0.006922 0.011983 -0.006459 0.000000 0.000000 0.000000
# 3 0.024444 -0.006459 0.000772 0.000000 0.000000 0.000000
# 4 0.000000 0.000000 0.000000 0.025920 0.000000 0.000000
# 5 0.000000 0.000000 0.000000 0.000000 0.035847 0.000000
# 6 0.000000 0.000000 0.000000 0.000000 0.000000 0.049200
#
#
# Mechanical properties :
#
#
# Convention : Reuss Voigt Hill
#
# Bulk Modulus (GPa) = -100.58592 50.62886 -24.97853
# Shear Modulus (GPa) = -2607.27896 24.97491 -1291.15203
#
# Velocity S-wave (km/s) = -36.67288 3.58925 -25.80715
# Velocity P-wave (km/s) = 42.95445 6.57971 30.01493
#
# Compressibility (1/GPa) = -0.00994175
#
# Stress axis : x y z
#
# Youngs Moduli (GPa) = -13.79092 83.45084 1294.72534
#
# Poissons Ratio (x) = -0.57765 -31.64820
# Poissons Ratio (y) = 0.09546 8.36242
# Poissons Ratio (z) = 0.33710 0.53900
#
# Static dielectric constant tensor:
#      x y z
#    x 3.297550 0.000000 0.000000 
#    y 0.000000 3.723860 0.000000 
#    z 0.000000 0.000000 3.746020 
# 
# 
# High freq. dielectric constant tensor:
#      x y z
#    x 1.733870 0.000000 0.000000 
#    y 0.000000 1.767520 0.000000 
#    z 0.000000 0.000000 1.767070 
# 
# From -- ./inp_files/40522.got.cif
#   From: 2010.03.12/outbox.cif.g09.slc.cpg/sg63_21_cif.got.tgz:40522.got - 2010.04.10 19:34:48.
