data_PCOD8258062
_publ_section_title
;
Structure prediction by ZEFSAII (Michael W. Deem and Ramdas Pophale) SiO2 
 PCOD8258062
Probable space group: C M C M
;
_chemical_formula_sum "Si O2"
_cell_formula_units_Z 96
_cell_length_a 22.225435
_cell_length_b 14.237301
_cell_length_c 13.812932
_cell_angle_alpha 90.000000
_cell_angle_beta 90.000000
_cell_angle_gamma 90.000000
_cell_volume 4370.828945
_symmetry_space_group_name_H-M "C M C M"
_symmetry_group_IT_number 63
_symmetry_cell_setting 'orthorhombic'
loop_
_space_group_symop_operation_xyz
x,y,z
-x,-y,1/2+z
x,-y,-z
-x,y,1/2-z
-x,-y,-z
x,y,1/2-z
-x,y,z
x,-y,1/2+z
1/2+x,1/2+y,z
1/2-x,1/2-y,1/2+z
1/2+x,1/2-y,-z
1/2-x,1/2+y,1/2-z
1/2-x,1/2-y,-z
1/2+x,1/2+y,1/2-z
1/2-x,1/2+y,z
1/2+x,1/2-y,1/2+z
loop_
_atom_site_type_symbol
_atom_site_label
_atom_site_fract_x
_atom_site_fract_y
_atom_site_fract_z
Si Si1 0.101666 0.159298 0.140873
Si Si2 0.165519 0.348723 0.866276
Si Si3 0.721718 0.237986 0.862343
Si Si4 0.365098 0.452878 0.360765
Si Si5 0.770899 0.465815 0.364554
Si Si6 0.932728 0.223421 0.947477
O O1 0.082452 0.188539 0.250000
O O2 0.170811 0.185560 0.119853
O O3 0.095544 0.047319 0.127369
O O4 0.061509 0.217020 0.064528
O O5 0.159656 0.347819 0.750000
O O6 0.215394 0.274870 0.906821
O O7 0.186696 0.451059 0.906092
O O8 0.102184 0.317078 0.912919
O O9 0.735204 0.225596 0.750000
O O10 0.703258 0.134675 0.901705
O O11 0.361391 0.420244 0.250000
O O12 0.298100 0.472274 0.401230
O O13 0.397956 0.370406 0.417294
O O14 0.771709 0.478004 0.250000
O O15 0.000000 0.227602 0.903603
#
# Coordination Sequence:
#
# PCOD8258062 Si02
#       6
#    16  16  16  16  16  16
#     4  10  22  40  60  82 115 160 209 263 310 352
#     4  10  19  35  61  92 127 160 193 245 309 368
#     4   9  16  32  60  90 120 152 198 255 309 362
#     4  10  19  36  61  90 124 159 194 244 309 367
#     4   9  16  31  58  92 128 158 189 242 308 371
#     4  12  26  40  56  87 128 168 210 245 291 370
#
# _framework density 21.963797
#
# number of rings (size 3 to 8) (size 9 to 14) (size 15 to 20)
#    0.000    2.000    3.333    1.000    0.000    3.667 
#    0.000    2.500    0.000    2.000    0.000    4.667 
#    0.000    0.000    0.000    0.000    0.000    0.000 
#
# Total GULP energy -594968.465013 kJ/mol
# GULP energy per Si atom -12395.176354 kJ/mol
# Density = 2.191381 g / cm^3
# Si number density = 21.963797 Si / 1000 Ang^3
#
#
#
# Elastic Constant Matrix: (Units=GPa)
#
#
# Indices 1 2 3 4 5 6 
#
# 1 115.0193 64.4425 23.4382 0.0000 0.0000 0.0000
# 2 64.4425 146.8030 32.6271 0.0000 0.0000 0.0000
# 3 23.4382 32.6271 51.4362 0.0000 0.0000 0.0000
# 4 0.0000 0.0000 0.0000 15.2920 0.0000 0.0000
# 5 0.0000 0.0000 0.0000 0.0000 12.1069 0.0000
# 6 0.0000 0.0000 0.0000 0.0000 0.0000 14.6503
#
#
#
# Elastic Compliance Matrix: (Units=1/GPa)
#
#
# Indices 1 2 3 4 5 6 
#
# 1 0.011785 -0.004633 -0.002431 0.000000 0.000000 0.000000
# 2 -0.004633 0.009751 -0.004074 0.000000 0.000000 0.000000
# 3 -0.002431 -0.004074 0.023134 0.000000 0.000000 0.000000
# 4 0.000000 0.000000 0.000000 0.065393 0.000000 0.000000
# 5 0.000000 0.000000 0.000000 0.000000 0.082597 0.000000
# 6 0.000000 0.000000 0.000000 0.000000 0.000000 0.068258
#
#
# Mechanical properties :
#
#
# Convention : Reuss Voigt Hill
#
# Bulk Modulus (GPa) = 44.65685 61.58599 53.12142
# Shear Modulus (GPa) = 17.20218 21.25991 19.23105
#
# Velocity S-wave (km/s) = 2.80162 3.11457 2.96223
# Velocity P-wave (km/s) = 5.55352 6.40583 5.99484
#
# Compressibility (1/GPa) = 0.02239298
#
# Stress axis : x y z
#
# Youngs Moduli (GPa) = 84.85014 102.55203 43.22673
#
# Poissons Ratio (x) = 0.47513 0.10510
# Poissons Ratio (y) = 0.39312 0.17611
# Poissons Ratio (z) = 0.20631 0.41781
#
# Static dielectric constant tensor:
#      x y z
#    x 3.583310 0.000000 0.000000 
#    y 0.000000 4.142280 0.000000 
#    z 0.000000 0.000000 4.042900 
# 
# 
# High freq. dielectric constant tensor:
#      x y z
#    x 1.819100 0.000000 0.000000 
#    y 0.000000 1.861900 0.000000 
#    z 0.000000 0.000000 1.873970 
# 
# From -- ./inp_files/35381.got.cif
#   From: 2010.03.12/outbox.cif.g09.slc.cpg/sg63_18_cif.got.tgz:35381.got - 2010.04.10 19:34:48.
