data_PCOD8258531
_publ_section_title
;
Structure prediction by ZEFSAII (Michael W. Deem and Ramdas Pophale) SiO2 
 PCOD8258531
Probable space group: C M C M
;
_chemical_formula_sum "Si O2"
_cell_formula_units_Z 112
_cell_length_a 26.441026
_cell_length_b 12.543123
_cell_length_c 18.075872
_cell_angle_alpha 90.000000
_cell_angle_beta 90.000000
_cell_angle_gamma 90.000000
_cell_volume 5994.917924
_symmetry_space_group_name_H-M "C M C M"
_symmetry_group_IT_number 63
_symmetry_cell_setting 'orthorhombic'
loop_
_space_group_symop_operation_xyz
x,y,z
-x,-y,1/2+z
x,-y,-z
-x,y,1/2-z
-x,-y,-z
x,y,1/2-z
-x,y,z
x,-y,1/2+z
1/2+x,1/2+y,z
1/2-x,1/2-y,1/2+z
1/2+x,1/2-y,-z
1/2-x,1/2+y,1/2-z
1/2-x,1/2-y,-z
1/2+x,1/2+y,1/2-z
1/2-x,1/2+y,z
1/2+x,1/2-y,1/2+z
loop_
_atom_site_type_symbol
_atom_site_label
_atom_site_fract_x
_atom_site_fract_y
_atom_site_fract_z
Si Si1 0.844242 0.294972 0.893832
Si Si2 0.295984 0.408656 0.164300
Si Si3 0.104929 0.967255 0.665578
Si Si4 0.814694 0.483565 0.165593
Si Si5 0.056826 0.195815 0.060141
Si Si6 0.879413 0.608697 0.962007
Si Si7 0.556676 0.672374 0.608018
O O1 0.805516 0.197315 0.883958
O O2 0.826526 0.391598 0.842307
O O3 0.901409 0.260586 0.869417
O O4 0.843140 0.329599 0.979862
O O5 0.298629 0.375106 0.250000
O O6 0.338532 0.495753 0.145863
O O7 0.243065 0.461560 0.142647
O O8 0.100358 0.929952 0.750000
O O9 0.093811 0.866363 0.614620
O O10 0.065644 0.063154 0.651917
O O11 0.824786 0.448904 0.250000
O O12 0.849485 0.412383 0.113208
O O13 0.072175 0.320048 0.057623
O O14 0.000000 0.188297 0.090640
O O15 0.061307 0.144931 0.978780
O O16 0.899024 0.500000 0.000000
O O17 0.500000 0.715090 0.626549
#
# Coordination Sequence:
#
# PCOD8258531 Si02
#       7
#    16  16  16  16  16  16  16
#     4   9  18  35  55  76 102 131 173 220 254 297
#     4   9  19  34  53  77 105 141 176 206 253 310
#     4  10  20  33  50  78 112 137 165 208 254 306
#     4  10  20  35  54  75 102 135 170 213 263 313
#     4  10  20  34  53  75 103 140 174 205 251 310
#     4   9  20  37  54  75 101 131 175 222 259 296
#     4   9  18  34  55  76 101 136 174 211 252 299
#
# _framework density 18.682490000000001
#
# number of rings (size 3 to 8) (size 9 to 14) (size 15 to 20)
#    0.000    2.571    0.000    1.286    0.000    5.429 
#    0.000   16.429    0.000    0.857    0.000    0.000 
#    0.000    0.000    0.000    0.000    0.000    0.000 
#
# Total GULP energy -694452.227128 kJ/mol
# GULP energy per Si atom -12400.932627 kJ/mol
# Density = 1.863997 g / cm^3
# Si number density = 18.682490 Si / 1000 Ang^3
#
#
#
# Elastic Constant Matrix: (Units=GPa)
#
#
# Indices 1 2 3 4 5 6 
#
# 1 66.2029 29.7491 15.9194 0.0000 0.0000 0.0000
# 2 29.7491 95.3674 31.3351 0.0000 0.0000 0.0000
# 3 15.9194 31.3351 59.5822 0.0000 0.0000 0.0000
# 4 0.0000 0.0000 0.0000 28.9176 0.0000 0.0000
# 5 0.0000 0.0000 0.0000 0.0000 22.6461 0.0000
# 6 0.0000 0.0000 0.0000 0.0000 0.0000 25.1958
#
#
#
# Elastic Compliance Matrix: (Units=1/GPa)
#
#
# Indices 1 2 3 4 5 6 
#
# 1 0.017807 -0.004825 -0.002220 0.000000 0.000000 0.000000
# 2 -0.004825 0.013984 -0.006065 0.000000 0.000000 0.000000
# 3 -0.002220 -0.006065 0.020566 0.000000 0.000000 0.000000
# 4 0.000000 0.000000 0.000000 0.034581 0.000000 0.000000
# 5 0.000000 0.000000 0.000000 0.000000 0.044158 0.000000
# 6 0.000000 0.000000 0.000000 0.000000 0.000000 0.039689
#
#
# Mechanical properties :
#
#
# Convention : Reuss Voigt Hill
#
# Bulk Modulus (GPa) = 38.26066 41.68440 39.97253
# Shear Modulus (GPa) = 24.30507 24.96183 24.63345
#
# Velocity S-wave (km/s) = 3.61079 3.65925 3.63510
# Velocity P-wave (km/s) = 6.15691 6.34144 6.24986
#
# Compressibility (1/GPa) = 0.02613651
#
# Stress axis : x y z
#
# Youngs Moduli (GPa) = 56.15680 71.51135 48.62304
#
# Poissons Ratio (x) = 0.34507 0.10795
# Poissons Ratio (y) = 0.27098 0.29490
# Poissons Ratio (z) = 0.12467 0.43372
#
# Static dielectric constant tensor:
#      x y z
#    x 3.449880 0.000000 0.000000 
#    y 0.000000 3.377090 0.000000 
#    z 0.000000 0.000000 3.402730 
# 
# 
# High freq. dielectric constant tensor:
#      x y z
#    x 1.720440 0.000000 0.000000 
#    y 0.000000 1.720120 0.000000 
#    z 0.000000 0.000000 1.723410 
# 
# From -- ./inp_files/57610.got.cif
#   From: 2010.03.12/outbox.cif.g09.slc.cpg/sg63_29_cif.got.tgz:57610.got - 2010.04.10 19:34:48.
