data_PCOD8258504
_publ_section_title
;
Structure prediction by ZEFSAII (Michael W. Deem and Ramdas Pophale) SiO2 
 PCOD8258504
Probable space group: C M C M
;
_chemical_formula_sum "Si O2"
_cell_formula_units_Z 80
_cell_length_a 26.530979
_cell_length_b 18.573597
_cell_length_c 8.916681
_cell_angle_alpha 90.000000
_cell_angle_beta 90.000000
_cell_angle_gamma 90.000000
_cell_volume 4393.923828
_symmetry_space_group_name_H-M "C M C M"
_symmetry_group_IT_number 63
_symmetry_cell_setting 'orthorhombic'
loop_
_space_group_symop_operation_xyz
x,y,z
-x,-y,1/2+z
x,-y,-z
-x,y,1/2-z
-x,-y,-z
x,y,1/2-z
-x,y,z
x,-y,1/2+z
1/2+x,1/2+y,z
1/2-x,1/2-y,1/2+z
1/2+x,1/2-y,-z
1/2-x,1/2+y,1/2-z
1/2-x,1/2-y,-z
1/2+x,1/2+y,1/2-z
1/2-x,1/2+y,z
1/2+x,1/2-y,1/2+z
loop_
_atom_site_type_symbol
_atom_site_label
_atom_site_fract_x
_atom_site_fract_y
_atom_site_fract_z
Si Si1 0.202651 0.716045 0.420249
Si Si2 0.941221 0.074258 0.423859
Si Si3 0.097167 0.786694 0.423100
Si Si4 0.648309 0.074391 0.428789
Si Si5 0.057582 0.351085 0.423801
O O1 0.218713 0.707010 0.250000
O O2 0.250000 0.750000 0.500000
O O3 0.155928 0.769414 0.439847
O O4 0.186842 0.637053 0.482212
O O5 0.926647 0.071409 0.250000
O O6 0.909903 0.135720 0.505231
O O7 0.000000 0.089766 0.447654
O O8 0.925034 0.000000 0.500000
O O9 0.080245 0.786465 0.250000
O O10 0.063413 0.728952 0.510618
O O11 0.645774 0.069104 0.250000
O O12 0.592356 0.092380 0.487886
O O13 0.667559 0.000000 0.500000
O O14 0.073386 0.350056 0.250000
O O15 0.000000 0.376029 0.444106
#
# Coordination Sequence:
#
# PCOD8258504 Si02
#       5
#    16  16  16  16  16
#     4   9  20  37  57  80 103 131 170 214 260 310
#     4  10  20  33  50  74 104 139 177 215 259 310
#     4  10  20  34  52  76 105 136 173 216 261 310
#     4  10  21  37  56  80 108 138 173 212 258 309
#     4  10  20  33  51  77 107 141 179 214 252 301
#
# _framework density 18.206961
#
# number of rings (size 3 to 8) (size 9 to 14) (size 15 to 20)
#    0.000    2.200    0.000    4.200    0.000   10.400 
#    0.000    1.000    0.000    2.400    0.000    0.000 
#    0.000    0.000    0.000    0.000    0.000    0.000 
#
# Total GULP energy -496079.523253 kJ/mol
# GULP energy per Si atom -12401.988081 kJ/mol
# Density = 1.816552 g / cm^3
# Si number density = 18.206961 Si / 1000 Ang^3
#
#
#
# Elastic Constant Matrix: (Units=GPa)
#
#
# Indices 1 2 3 4 5 6 
#
# 1 80.7716 52.1108 48.7771 0.0000 0.0000 0.0000
# 2 52.1108 147.8010 60.2883 0.0000 0.0000 0.0000
# 3 48.7771 60.2883 111.9990 0.0000 0.0000 0.0000
# 4 0.0000 0.0000 0.0000 39.2394 0.0000 0.0000
# 5 0.0000 0.0000 0.0000 0.0000 31.9994 0.0000
# 6 0.0000 0.0000 0.0000 0.0000 0.0000 17.6348
#
#
#
# Elastic Compliance Matrix: (Units=1/GPa)
#
#
# Indices 1 2 3 4 5 6 
#
# 1 0.018610 -0.004171 -0.005860 0.000000 0.000000 0.000000
# 2 -0.004171 0.009604 -0.003353 0.000000 0.000000 0.000000
# 3 -0.005860 -0.003353 0.013286 0.000000 0.000000 0.000000
# 4 0.000000 0.000000 0.000000 0.025485 0.000000 0.000000
# 5 0.000000 0.000000 0.000000 0.000000 0.031251 0.000000
# 6 0.000000 0.000000 0.000000 0.000000 0.000000 0.056706
#
#
# Mechanical properties :
#
#
# Convention : Reuss Voigt Hill
#
# Bulk Modulus (GPa) = 67.88035 73.65821 70.76928
# Shear Modulus (GPa) = 26.79228 29.73443 28.26336
#
# Velocity S-wave (km/s) = 3.84023 4.04559 3.94425
# Velocity P-wave (km/s) = 7.55160 7.89723 7.72635
#
# Compressibility (1/GPa) = 0.01473180
#
# Stress axis : x y z
#
# Youngs Moduli (GPa) = 53.73348 104.11920 75.26917
#
# Poissons Ratio (x) = 0.43432 0.44105
# Poissons Ratio (y) = 0.22414 0.25240
# Poissons Ratio (z) = 0.31486 0.34914
#
# Static dielectric constant tensor:
#      x y z
#    x 3.147800 0.000000 0.000000 
#    y 0.000000 3.466350 0.000000 
#    z 0.000000 0.000000 3.513910 
# 
# 
# High freq. dielectric constant tensor:
#      x y z
#    x 1.685850 0.000000 0.000000 
#    y 0.000000 1.711240 0.000000 
#    z 0.000000 0.000000 1.721010 
# 
# From -- ./inp_files/11998.got.cif
#   From: 2010.03.12/outbox.cif.g09.slc.cpg/sg63_6_cif.got.tgz:11998.got - 2010.04.10 19:34:48.
