data_PCOD8258327
_publ_section_title
;
Structure prediction by ZEFSAII (Michael W. Deem and Ramdas Pophale) SiO2 
 PCOD8258327
Probable space group: C M C M
;
_chemical_formula_sum "Si O2"
_cell_formula_units_Z 72
_cell_length_a 21.607111
_cell_length_b 19.153378
_cell_length_c 9.633361
_cell_angle_alpha 90.000000
_cell_angle_beta 90.000000
_cell_angle_gamma 90.000000
_cell_volume 3986.758401
_symmetry_space_group_name_H-M "C M C M"
_symmetry_group_IT_number 63
_symmetry_cell_setting 'orthorhombic'
loop_
_space_group_symop_operation_xyz
x,y,z
-x,-y,1/2+z
x,-y,-z
-x,y,1/2-z
-x,-y,-z
x,y,1/2-z
-x,y,z
x,-y,1/2+z
1/2+x,1/2+y,z
1/2-x,1/2-y,1/2+z
1/2+x,1/2-y,-z
1/2-x,1/2+y,1/2-z
1/2-x,1/2-y,-z
1/2+x,1/2+y,1/2-z
1/2-x,1/2+y,z
1/2+x,1/2-y,1/2+z
loop_
_atom_site_type_symbol
_atom_site_label
_atom_site_fract_x
_atom_site_fract_y
_atom_site_fract_z
Si Si1 0.136917 0.565733 0.589428
Si Si2 0.113909 0.832606 0.410471
Si Si3 0.928361 0.292410 0.411943
Si Si4 0.000000 0.069610 0.911599
Si Si5 0.778768 0.935094 0.409211
O O1 0.114305 0.500000 0.500000
O O2 0.127854 0.546305 0.750000
O O3 0.095232 0.631126 0.546124
O O4 0.208131 0.584514 0.556089
O O5 0.107509 0.810919 0.250000
O O6 0.110621 0.763570 0.502426
O O7 0.060097 0.886105 0.452536
O O8 0.179850 0.867763 0.443002
O O9 0.917060 0.278194 0.250000
O O10 0.000000 0.286626 0.452410
O O11 0.000000 0.049246 0.750000
O O12 0.000000 0.000000 0.000000
O O13 0.787213 0.957747 0.250000
O O14 0.801956 0.000000 0.500000
#
# Coordination Sequence:
#
# PCOD8258327 Si02
#       5
#    16  16  16   8  16
#     4   9  19  36  55  77 103 131 168 212 258 307
#     4  10  20  34  51  74 104 136 170 209 253 301
#     4  10  21  36  53  74 103 137 172 212 255 302
#     4  10  20  32  48  72 101 132 169 208 243 290
#     4   9  18  33  53  76 104 135 168 210 255 302
#
# _framework density 18.059784000000001
#
# number of rings (size 3 to 8) (size 9 to 14) (size 15 to 20)
#    0.000    2.444    1.111    0.667    0.000    4.000 
#    0.000    0.000    0.000    0.000    0.000    0.000 
#    0.000    0.000    0.000    0.000    0.000    0.000 
#
# Total GULP energy -446546.739000 kJ/mol
# GULP energy per Si atom -12404.076083 kJ/mol
# Density = 1.801868 g / cm^3
# Si number density = 18.059784 Si / 1000 Ang^3
#
#
#
# Elastic Constant Matrix: (Units=GPa)
#
#
# Indices 1 2 3 4 5 6 
#
# 1 45.6850 38.6259 30.4729 0.0000 0.0000 0.0000
# 2 38.6259 134.8758 72.5442 0.0000 0.0000 0.0000
# 3 30.4729 72.5442 68.1476 0.0000 0.0000 0.0000
# 4 0.0000 0.0000 0.0000 42.1292 0.0000 0.0000
# 5 0.0000 0.0000 0.0000 0.0000 19.1993 0.0000
# 6 0.0000 0.0000 0.0000 0.0000 0.0000 30.7307
#
#
#
# Elastic Compliance Matrix: (Units=1/GPa)
#
#
# Indices 1 2 3 4 5 6 
#
# 1 0.031852 -0.003418 -0.010604 0.000000 0.000000 0.000000
# 2 -0.003418 0.017712 -0.017327 0.000000 0.000000 0.000000
# 3 -0.010604 -0.017327 0.037860 0.000000 0.000000 0.000000
# 4 0.000000 0.000000 0.000000 0.023737 0.000000 0.000000
# 5 0.000000 0.000000 0.000000 0.000000 0.052085 0.000000
# 6 0.000000 0.000000 0.000000 0.000000 0.000000 0.032541
#
#
# Mechanical properties :
#
#
# Convention : Reuss Voigt Hill
#
# Bulk Modulus (GPa) = 40.44209 59.11047 49.77628
# Shear Modulus (GPa) = 18.74565 25.54952 22.14759
#
# Velocity S-wave (km/s) = 3.22526 3.76536 3.50573
# Velocity P-wave (km/s) = 6.02593 7.19064 6.63390
#
# Compressibility (1/GPa) = 0.02472671
#
# Stress axis : x y z
#
# Youngs Moduli (GPa) = 31.39480 56.45743 26.41289
#
# Poissons Ratio (x) = 0.19299 0.28009
# Poissons Ratio (y) = 0.10732 0.45765
# Poissons Ratio (z) = 0.33292 0.97822
#
# Static dielectric constant tensor:
#      x y z
#    x 3.445480 0.000000 0.000000 
#    y 0.000000 3.222050 0.000000 
#    z 0.000000 0.000000 3.320900 
# 
# 
# High freq. dielectric constant tensor:
#      x y z
#    x 1.705270 0.000000 0.000000 
#    y 0.000000 1.695210 0.000000 
#    z 0.000000 0.000000 1.696520 
# 
# From -- ./inp_files/7795.got.cif
#   From: 2010.03.12/outbox.cif.g09.slc.cpg/sg63_4_cif.got.tgz:7795.got - 2010.04.10 19:34:48.
