data_PCOD8258259
_publ_section_title
;
Structure prediction by ZEFSAII (Michael W. Deem and Ramdas Pophale) SiO2 
 PCOD8258259
Probable space group: C M C M
;
_chemical_formula_sum "Si O2"
_cell_formula_units_Z 104
_cell_length_a 34.425285
_cell_length_b 17.993335
_cell_length_c 10.001787
_cell_angle_alpha 90.000000
_cell_angle_beta 90.000000
_cell_angle_gamma 90.000000
_cell_volume 6195.363768
_symmetry_space_group_name_H-M "C M C M"
_symmetry_group_IT_number 63
_symmetry_cell_setting 'orthorhombic'
loop_
_space_group_symop_operation_xyz
x,y,z
-x,-y,1/2+z
x,-y,-z
-x,y,1/2-z
-x,-y,-z
x,y,1/2-z
-x,y,z
x,-y,1/2+z
1/2+x,1/2+y,z
1/2-x,1/2-y,1/2+z
1/2+x,1/2-y,-z
1/2-x,1/2+y,1/2-z
1/2-x,1/2-y,-z
1/2+x,1/2+y,1/2-z
1/2-x,1/2+y,z
1/2+x,1/2-y,1/2+z
loop_
_atom_site_type_symbol
_atom_site_label
_atom_site_fract_x
_atom_site_fract_y
_atom_site_fract_z
Si Si1 0.312168 0.062468 0.902774
Si Si2 0.000000 0.929078 0.405703
Si Si3 0.430089 0.319866 0.096650
Si Si4 0.715369 0.773371 0.405391
Si Si5 0.132797 0.217493 0.101307
Si Si6 0.604354 0.885388 0.103480
Si Si7 0.955807 0.653552 0.098086
O O1 0.303066 0.040610 0.750000
O O2 0.293474 0.141183 0.938533
O O3 0.358389 0.064535 0.928218
O O4 0.294065 0.000000 0.000000
O O5 0.038326 0.881865 0.439735
O O6 0.000000 0.952637 0.250000
O O7 0.000000 0.000000 0.500000
O O8 0.416532 0.326740 0.250000
O O9 0.449737 0.240528 0.069108
O O10 0.391927 0.331328 0.004093
O O11 0.726866 0.764209 0.250000
O O12 0.750000 0.750000 0.500000
O O13 0.678261 0.721060 0.438662
O O14 0.128044 0.182774 0.250000
O O15 0.117229 0.300494 0.101757
O O16 0.587549 0.905296 0.250000
O O17 0.571060 0.898708 0.993807
O O18 0.944877 0.634846 0.250000
O O19 0.000000 0.633196 0.065869
#
# Coordination Sequence:
#
# PCOD8258259 Si02
#       7
#    16   8  16  16  16  16  16
#     4   9  18  32  49  70  97 126 156 192 233 277
#     4  10  20  32  44  62  90 122 157 200 245 288
#     4   9  16  28  44  62  87 117 150 190 236 281
#     4   9  18  32  50  75 105 130 156 197 243 288
#     4   8  15  28  45  66  92 118 145 184 232 277
#     4   8  15  27  41  61  89 117 145 181 223 265
#     4   9  15  24  40  62  87 113 143 184 230 272
#
# _framework density 16.786746000000001
#
# number of rings (size 3 to 8) (size 9 to 14) (size 15 to 20)
#    0.000    3.231    0.769    1.846    0.000    2.769 
#    0.000    3.077    0.000    1.385    0.000    0.000 
#    0.000    0.000    0.000    0.000    0.000    0.000 
#
# Total GULP energy -644533.197046 kJ/mol
# GULP energy per Si atom -12394.869174 kJ/mol
# Density = 1.674854 g / cm^3
# Si number density = 16.786746 Si / 1000 Ang^3
#
#
#
# Elastic Constant Matrix: (Units=GPa)
#
#
# Indices 1 2 3 4 5 6 
#
# 1 106.0128 26.3793 79.1553 0.0000 0.0000 0.0000
# 2 26.3793 47.1602 44.5038 0.0000 0.0000 0.0000
# 3 79.1553 44.5038 113.7100 0.0000 0.0000 0.0000
# 4 0.0000 0.0000 0.0000 25.8358 0.0000 0.0000
# 5 0.0000 0.0000 0.0000 0.0000 37.4058 0.0000
# 6 0.0000 0.0000 0.0000 0.0000 0.0000 14.1606
#
#
#
# Elastic Compliance Matrix: (Units=1/GPa)
#
#
# Indices 1 2 3 4 5 6 
#
# 1 0.019920 0.003081 -0.015073 0.000000 0.000000 0.000000
# 2 0.003081 0.034099 -0.015490 0.000000 0.000000 0.000000
# 3 -0.015073 -0.015490 0.025349 0.000000 0.000000 0.000000
# 4 0.000000 0.000000 0.000000 0.038706 0.000000 0.000000
# 5 0.000000 0.000000 0.000000 0.000000 0.026734 0.000000
# 6 0.000000 0.000000 0.000000 0.000000 0.000000 0.070619
#
#
# Mechanical properties :
#
#
# Convention : Reuss Voigt Hill
#
# Bulk Modulus (GPa) = 40.97622 62.99554 51.98588
# Shear Modulus (GPa) = 17.95167 23.27007 20.61087
#
# Velocity S-wave (km/s) = 3.27371 3.72723 3.50781
# Velocity P-wave (km/s) = 6.22514 7.49209 6.88781
#
# Compressibility (1/GPa) = 0.02440440
#
# Stress axis : x y z
#
# Youngs Moduli (GPa) = 50.20005 29.32663 39.44880
#
# Poissons Ratio (x) = -0.09036 0.59460
# Poissons Ratio (y) = -0.15468 0.61108
# Poissons Ratio (z) = 0.75665 0.45428
#
# Static dielectric constant tensor:
#      x y z
#    x 3.162020 0.000000 0.000000 
#    y 0.000000 2.768970 0.000000 
#    z 0.000000 0.000000 3.352640 
# 
# 
# High freq. dielectric constant tensor:
#      x y z
#    x 1.636450 0.000000 0.000000 
#    y 0.000000 1.609980 0.000000 
#    z 0.000000 0.000000 1.654000 
# 
# From -- ./inp_files/26051.got.cif
#   From: 2010.03.12/outbox.cif.g09.slc.cpg/sg63_14_cif.got.tgz:26051.got - 2010.04.10 19:34:48.
