data_PCOD8258073
_publ_section_title
;
Structure prediction by ZEFSAII (Michael W. Deem and Ramdas Pophale) SiO2 
 PCOD8258073
Probable space group: C M C M
;
_chemical_formula_sum "Si O2"
_cell_formula_units_Z 104
_cell_length_a 22.176690
_cell_length_b 9.079321
_cell_length_c 27.691397
_cell_angle_alpha 90.000000
_cell_angle_beta 90.000000
_cell_angle_gamma 90.000000
_cell_volume 5575.643048
_symmetry_space_group_name_H-M "C M C M"
_symmetry_group_IT_number 63
_symmetry_cell_setting 'orthorhombic'
loop_
_space_group_symop_operation_xyz
x,y,z
-x,-y,1/2+z
x,-y,-z
-x,y,1/2-z
-x,-y,-z
x,y,1/2-z
-x,y,z
x,-y,1/2+z
1/2+x,1/2+y,z
1/2-x,1/2-y,1/2+z
1/2+x,1/2-y,-z
1/2-x,1/2+y,1/2-z
1/2-x,1/2-y,-z
1/2+x,1/2+y,1/2-z
1/2-x,1/2+y,z
1/2+x,1/2-y,1/2+z
loop_
_atom_site_type_symbol
_atom_site_label
_atom_site_fract_x
_atom_site_fract_y
_atom_site_fract_z
Si Si1 0.566412 0.750160 0.942914
Si Si2 0.240893 0.899270 0.140210
Si Si3 0.645655 0.178573 0.586924
Si Si4 0.161527 0.005690 0.054167
Si Si5 0.184253 0.363151 0.693902
Si Si6 0.875801 0.500000 0.500000
Si Si7 0.568160 0.967074 0.855922
O O1 0.500000 0.689245 0.953275
O O2 0.609584 0.612521 0.941850
O O3 0.582422 0.863841 0.985119
O O4 0.569381 0.829836 0.891647
O O5 0.297853 0.804219 0.122504
O O6 0.212716 0.974792 0.093147
O O7 0.193253 0.792017 0.166270
O O8 0.264203 0.023691 0.176875
O O9 0.630844 0.336321 0.564095
O O10 0.663730 0.059062 0.545079
O O11 0.587771 0.116738 0.616213
O O12 0.189619 0.000000 0.000000
O O13 0.193094 0.333342 0.750000
O O14 0.117102 0.428501 0.685343
O O15 0.500000 0.989339 0.834985
#
# Coordination Sequence:
#
# PCOD8258073 Si02
#       7
#    16  16  16  16  16   8  16
#     4  10  20  35  54  78 116 155 198 242 281 334
#     4  11  23  40  57  88 122 148 192 245 295 354
#     4  10  22  36  56  80 117 156 194 242 290 332
#     4  12  23  36  55  87 120 161 200 235 284 345
#     4  11  22  40  66  89 113 150 192 246 304 355
#     4  10  19  36  52  80 108 158 205 238 282 334
#     4   9  20  39  60  84 114 152 192 240 295 348
#
# _framework density 18.652557000000002
#
# number of rings (size 3 to 8) (size 9 to 14) (size 15 to 20)
#    0.000    1.538    4.615    0.692    1.077    2.462 
#    0.000    0.000    0.000    0.000    0.000    0.000 
#    0.000    0.000    0.000    0.000    0.000    0.000 
#
# Total GULP energy -644641.101199 kJ/mol
# GULP energy per Si atom -12396.944254 kJ/mol
# Density = 1.861010 g / cm^3
# Si number density = 18.652557 Si / 1000 Ang^3
#
#
#
# Elastic Constant Matrix: (Units=GPa)
#
#
# Indices 1 2 3 4 5 6 
#
# 1 103.1830 42.3831 40.3225 0.0000 0.0000 0.0000
# 2 42.3831 98.8154 30.1298 0.0000 0.0000 0.0000
# 3 40.3225 30.1298 95.2082 0.0000 0.0000 0.0000
# 4 0.0000 0.0000 0.0000 23.9991 0.0000 0.0000
# 5 0.0000 0.0000 0.0000 0.0000 19.1377 0.0000
# 6 0.0000 0.0000 0.0000 0.0000 0.0000 14.4535
#
#
#
# Elastic Compliance Matrix: (Units=1/GPa)
#
#
# Indices 1 2 3 4 5 6 
#
# 1 0.013110 -0.004350 -0.004176 0.000000 0.000000 0.000000
# 2 -0.004350 0.012644 -0.002159 0.000000 0.000000 0.000000
# 3 -0.004176 -0.002159 0.012955 0.000000 0.000000 0.000000
# 4 0.000000 0.000000 0.000000 0.041668 0.000000 0.000000
# 5 0.000000 0.000000 0.000000 0.000000 0.052253 0.000000
# 6 0.000000 0.000000 0.000000 0.000000 0.000000 0.069187
#
#
# Mechanical properties :
#
#
# Convention : Reuss Voigt Hill
#
# Bulk Modulus (GPa) = 57.67131 58.09748 57.88439
# Shear Modulus (GPa) = 21.83721 23.80947 22.82334
#
# Velocity S-wave (km/s) = 3.42531 3.57665 3.50180
# Velocity P-wave (km/s) = 6.82858 6.94776 6.88843
#
# Compressibility (1/GPa) = 0.01733964
#
# Stress axis : x y z
#
# Youngs Moduli (GPa) = 76.27707 79.08949 77.18965
#
# Poissons Ratio (x) = 0.34403 0.32233
# Poissons Ratio (y) = 0.33179 0.16666
# Poissons Ratio (z) = 0.31852 0.17076
#
# Static dielectric constant tensor:
#      x y z
#    x 3.389300 0.000000 0.000000 
#    y 0.000000 3.446110 0.000000 
#    z 0.000000 0.000000 3.368420 
# 
# 
# High freq. dielectric constant tensor:
#      x y z
#    x 1.714720 0.000000 0.000000 
#    y 0.000000 1.728350 0.000000 
#    z 0.000000 0.000000 1.713400 
# 
# From -- ./inp_files/74085.got.cif
#   From: 2010.03.12/outbox.cif.g09.slc.cpg/sg63_38_cif.got.tgz:74085.got - 2010.04.10 19:34:48.
