data_PCOD8258030
_publ_section_title
;
Structure prediction by ZEFSAII (Michael W. Deem and Ramdas Pophale) SiO2 
 PCOD8258030
Probable space group: C M C M
;
_chemical_formula_sum "Si O2"
_cell_formula_units_Z 112
_cell_length_a 18.898195
_cell_length_b 10.994767
_cell_length_c 27.008556
_cell_angle_alpha 90.000000
_cell_angle_beta 90.000000
_cell_angle_gamma 90.000000
_cell_volume 5611.871547
_symmetry_space_group_name_H-M "C M C M"
_symmetry_group_IT_number 63
_symmetry_cell_setting 'orthorhombic'
loop_
_space_group_symop_operation_xyz
x,y,z
-x,-y,1/2+z
x,-y,-z
-x,y,1/2-z
-x,-y,-z
x,y,1/2-z
-x,y,z
x,-y,1/2+z
1/2+x,1/2+y,z
1/2-x,1/2-y,1/2+z
1/2+x,1/2-y,-z
1/2-x,1/2+y,1/2-z
1/2-x,1/2-y,-z
1/2+x,1/2+y,1/2-z
1/2-x,1/2+y,z
1/2+x,1/2-y,1/2+z
loop_
_atom_site_type_symbol
_atom_site_label
_atom_site_fract_x
_atom_site_fract_y
_atom_site_fract_z
Si Si1 0.081376 0.118841 0.032722
Si Si2 0.676478 0.680263 0.632206
Si Si3 0.580563 0.974390 0.394136
Si Si4 0.919314 0.713436 0.055655
Si Si5 0.170499 0.765274 0.613587
Si Si6 0.803945 0.946982 0.693802
Si Si7 0.143528 0.598801 0.195389
O O1 0.140434 0.131406 0.075878
O O2 0.000000 0.108448 0.052694
O O3 0.088526 0.243834 0.000805
O O4 0.099396 0.000000 0.000000
O O5 0.618839 0.686204 0.589169
O O6 0.749105 0.721959 0.604994
O O7 0.671168 0.548095 0.655477
O O8 0.655938 0.764522 0.678113
O O9 0.500000 0.941296 0.405562
O O10 0.622367 0.850360 0.395833
O O11 0.609686 0.075456 0.433950
O O12 0.588457 0.029691 0.339428
O O13 0.000000 0.713508 0.073296
O O14 0.169002 0.819758 0.669651
O O15 0.834396 0.955842 0.750000
O O16 0.719756 0.965715 0.695190
O O17 0.110323 0.599443 0.250000
#
# Coordination Sequence:
#
# PCOD8258030 Si02
#       7
#    16  16  16  16  16  16  16
#     4  10  21  39  61  85 118 161 201 237 292 361
#     4  10  19  35  59  83 113 145 192 248 290 339
#     4  10  20  36  56  82 118 151 189 245 297 351
#     4   9  20  38  60  84 111 152 198 238 293 360
#     4  11  22  35  57  88 117 151 196 243 292 350
#     4  10  20  35  56  82 115 152 191 236 289 352
#     4   9  18  32  52  79 109 148 190 228 284 350
#
# _framework density 19.957692000000002
#
# number of rings (size 3 to 8) (size 9 to 14) (size 15 to 20)
#    0.000    2.143    1.429    1.714    0.000    2.571 
#    0.000    2.857    0.000    4.286    0.000    0.000 
#    0.000    0.000    0.000    0.000    0.000    0.000 
#
# Total GULP energy -693959.970432 kJ/mol
# GULP energy per Si atom -12392.142329 kJ/mol
# Density = 1.991227 g / cm^3
# Si number density = 19.957692 Si / 1000 Ang^3
#
#
#
# Elastic Constant Matrix: (Units=GPa)
#
#
# Indices 1 2 3 4 5 6 
#
# 1 47.3386 24.9105 32.1271 0.0000 0.0000 0.0000
# 2 24.9105 78.1979 22.9640 0.0000 0.0000 0.0000
# 3 32.1271 22.9640 83.3785 0.0000 0.0000 0.0000
# 4 0.0000 0.0000 0.0000 24.3128 0.0000 0.0000
# 5 0.0000 0.0000 0.0000 0.0000 21.5677 0.0000
# 6 0.0000 0.0000 0.0000 0.0000 0.0000 31.5802
#
#
#
# Elastic Compliance Matrix: (Units=1/GPa)
#
#
# Indices 1 2 3 4 5 6 
#
# 1 0.031878 -0.007124 -0.010321 0.000000 0.000000 0.000000
# 2 -0.007124 0.015505 -0.001526 0.000000 0.000000 0.000000
# 3 -0.010321 -0.001526 0.016390 0.000000 0.000000 0.000000
# 4 0.000000 0.000000 0.000000 0.041131 0.000000 0.000000
# 5 0.000000 0.000000 0.000000 0.000000 0.046366 0.000000
# 6 0.000000 0.000000 0.000000 0.000000 0.000000 0.031665
#
#
# Mechanical properties :
#
#
# Convention : Reuss Voigt Hill
#
# Bulk Modulus (GPa) = 38.71049 40.99092 39.85070
# Shear Modulus (GPa) = 21.78773 24.08635 22.93704
#
# Velocity S-wave (km/s) = 3.30767 3.47777 3.39379
# Velocity P-wave (km/s) = 5.83317 6.05888 5.94710
#
# Compressibility (1/GPa) = 0.02583279
#
# Stress axis : x y z
#
# Youngs Moduli (GPa) = 31.36994 64.49341 61.01108
#
# Poissons Ratio (x) = 0.45945 0.62969
# Poissons Ratio (y) = 0.22348 0.09307
# Poissons Ratio (z) = 0.32377 0.09839
#
# Static dielectric constant tensor:
#      x y z
#    x 3.591400 0.000000 0.000000 
#    y 0.000000 3.714700 0.000000 
#    z 0.000000 0.000000 3.669280 
# 
# 
# High freq. dielectric constant tensor:
#      x y z
#    x 1.759830 0.000000 0.000000 
#    y 0.000000 1.788750 0.000000 
#    z 0.000000 0.000000 1.773290 
# 
# From -- ./inp_files/64657.got.cif
#   From: 2010.03.12/outbox.cif.g09.slc.cpg/sg63_33_cif.got.tgz:64657.got - 2010.04.10 19:34:48.
