data_PCOD8258048
_publ_section_title
;
Structure prediction by ZEFSAII (Michael W. Deem and Ramdas Pophale) SiO2 
 PCOD8258048
Probable space group: C M C M
;
_chemical_formula_sum "Si O2"
_cell_formula_units_Z 96
_cell_length_a 11.619363
_cell_length_b 24.717268
_cell_length_c 17.423939
_cell_angle_alpha 90.000000
_cell_angle_beta 90.000000
_cell_angle_gamma 90.000000
_cell_volume 5004.136276
_symmetry_space_group_name_H-M "C M C M"
_symmetry_group_IT_number 63
_symmetry_cell_setting 'orthorhombic'
loop_
_space_group_symop_operation_xyz
x,y,z
-x,-y,1/2+z
x,-y,-z
-x,y,1/2-z
-x,-y,-z
x,y,1/2-z
-x,y,z
x,-y,1/2+z
1/2+x,1/2+y,z
1/2-x,1/2-y,1/2+z
1/2+x,1/2-y,-z
1/2-x,1/2+y,1/2-z
1/2-x,1/2-y,-z
1/2+x,1/2+y,1/2-z
1/2-x,1/2+y,z
1/2+x,1/2-y,1/2+z
loop_
_atom_site_type_symbol
_atom_site_label
_atom_site_fract_x
_atom_site_fract_y
_atom_site_fract_z
Si Si1 0.718331 0.463846 0.839508
Si Si2 0.500000 0.529251 0.659155
Si Si3 0.863930 0.139808 0.080290
Si Si4 0.132379 0.563181 0.839767
Si Si5 0.000000 0.148400 0.839837
Si Si6 0.632711 0.750020 0.164257
Si Si7 0.729509 0.339714 0.413707
O O1 0.707041 0.449170 0.750000
O O2 0.611683 0.498619 0.869898
O O3 0.714323 0.408922 0.887525
O O4 0.831010 0.500689 0.855801
O O5 0.500000 0.534583 0.750000
O O6 0.500000 0.588565 0.622198
O O7 0.849417 0.188242 0.140126
O O8 0.000000 0.125052 0.070455
O O9 0.803802 0.156874 0.001984
O O10 0.149458 0.576461 0.750000
O O11 0.213307 0.604207 0.885998
O O12 0.000000 0.569937 0.865046
O O13 0.115134 0.177331 0.867647
O O14 0.000000 0.146467 0.750000
O O15 0.684955 0.758210 0.250000
O O16 0.500000 0.765351 0.166195
O O17 0.686018 0.789938 0.101298
#
# Coordination Sequence:
#
# PCOD8258048 Si02
#       7
#    16   8  16  16   8  16  16
#     4  10  19  35  60  86 116 152 195 239 282 339
#     4   9  16  29  53  85 113 145 187 234 279 324
#     4  11  23  38  57  88 121 152 188 235 297 347
#     4  10  21  38  61  86 114 155 202 241 279 334
#     4  11  20  33  55  85 118 153 193 235 282 336
#     4  10  22  41  65  86 108 147 198 241 280 342
#     4  12  22  37  56  88 120 148 187 240 297 343
#
# _framework density 19.18413
#
# number of rings (size 3 to 8) (size 9 to 14) (size 15 to 20)
#    0.000    1.500    3.333    3.000    0.000    2.667 
#    0.000    4.167    1.833    0.000    0.000    0.000 
#    0.000    0.000    0.000    0.000    0.000    0.000 
#
# Total GULP energy -595119.483621 kJ/mol
# GULP energy per Si atom -12398.322575 kJ/mol
# Density = 1.914047 g / cm^3
# Si number density = 19.184130 Si / 1000 Ang^3
#
#
#
# Elastic Constant Matrix: (Units=GPa)
#
#
# Indices 1 2 3 4 5 6 
#
# 1 90.0425 28.3436 34.3251 0.0000 0.0000 0.0000
# 2 28.3436 74.8596 18.7712 0.0000 0.0000 0.0000
# 3 34.3251 18.7712 71.2150 0.0000 0.0000 0.0000
# 4 0.0000 0.0000 0.0000 25.2981 0.0000 0.0000
# 5 0.0000 0.0000 0.0000 0.0000 23.5912 0.0000
# 6 0.0000 0.0000 0.0000 0.0000 0.0000 31.1252
#
#
#
# Elastic Compliance Matrix: (Units=1/GPa)
#
#
# Indices 1 2 3 4 5 6 
#
# 1 0.014669 -0.004049 -0.006003 0.000000 0.000000 0.000000
# 2 -0.004049 0.015421 -0.002113 0.000000 0.000000 0.000000
# 3 -0.006003 -0.002113 0.017492 0.000000 0.000000 0.000000
# 4 0.000000 0.000000 0.000000 0.039529 0.000000 0.000000
# 5 0.000000 0.000000 0.000000 0.000000 0.042389 0.000000
# 6 0.000000 0.000000 0.000000 0.000000 0.000000 0.032128
#
#
# Mechanical properties :
#
#
# Convention : Reuss Voigt Hill
#
# Bulk Modulus (GPa) = 43.00661 44.33297 43.66979
# Shear Modulus (GPa) = 25.81192 26.31471 26.06331
#
# Velocity S-wave (km/s) = 3.67206 3.70765 3.68990
# Velocity P-wave (km/s) = 6.35965 6.44114 6.40053
#
# Compressibility (1/GPa) = 0.02325224
#
# Stress axis : x y z
#
# Youngs Moduli (GPa) = 68.17219 64.84583 57.16744
#
# Poissons Ratio (x) = 0.26254 0.34318
# Poissons Ratio (y) = 0.27601 0.12082
# Poissons Ratio (z) = 0.40924 0.13704
#
# Static dielectric constant tensor:
#      x y z
#    x 3.543260 0.000000 0.000000 
#    y 0.000000 3.492300 0.000000 
#    z 0.000000 0.000000 3.374700 
# 
# 
# High freq. dielectric constant tensor:
#      x y z
#    x 1.743110 0.000000 0.000000 
#    y 0.000000 1.745650 0.000000 
#    z 0.000000 0.000000 1.737390 
# 
# From -- ./inp_files/42545.got.cif
#   From: 2010.03.12/outbox.cif.g09.slc.cpg/sg63_22_cif.got.tgz:42545.got - 2010.04.10 19:34:48.
