data_PCOD8258805
_publ_section_title
;
Structure prediction by ZEFSAII (Michael W. Deem and Ramdas Pophale) SiO2 
 PCOD8258805
Probable space group: C M C M
;
_chemical_formula_sum "Si O2"
_cell_formula_units_Z 96
_cell_length_a 19.551799
_cell_length_b 20.457080
_cell_length_c 13.828306
_cell_angle_alpha 90.000000
_cell_angle_beta 90.000000
_cell_angle_gamma 90.000000
_cell_volume 5530.945112
_symmetry_space_group_name_H-M "C M C M"
_symmetry_group_IT_number 63
_symmetry_cell_setting 'orthorhombic'
loop_
_space_group_symop_operation_xyz
x,y,z
-x,-y,1/2+z
x,-y,-z
-x,y,1/2-z
-x,-y,-z
x,y,1/2-z
-x,y,z
x,-y,1/2+z
1/2+x,1/2+y,z
1/2-x,1/2-y,1/2+z
1/2+x,1/2-y,-z
1/2-x,1/2+y,1/2-z
1/2-x,1/2-y,-z
1/2+x,1/2+y,1/2-z
1/2-x,1/2+y,z
1/2+x,1/2-y,1/2+z
loop_
_atom_site_type_symbol
_atom_site_label
_atom_site_fract_x
_atom_site_fract_y
_atom_site_fract_z
Si Si1 0.704225 0.997282 0.750000
Si Si2 0.422960 0.083357 0.750000
Si Si3 0.718498 0.683001 0.538400
Si Si4 0.922347 0.626036 0.538980
Si Si5 0.294567 0.064426 0.449662
Si Si6 0.073970 0.189866 0.750000
Si Si7 0.576198 0.267500 0.043118
Si Si8 0.285761 0.367240 0.250000
O O1 0.713337 0.947670 0.837141
O O2 0.626648 0.021894 0.750000
O O3 0.756524 0.058971 0.750000
O O4 0.500000 0.055898 0.750000
O O5 0.408846 0.126579 0.654473
O O6 0.750000 0.750000 0.500000
O O7 0.747740 0.625052 0.475197
O O8 0.636775 0.682294 0.515979
O O9 0.737501 0.671123 0.652217
O O10 0.872669 0.575663 0.484665
O O11 0.905830 0.698217 0.502725
O O12 0.000000 0.605287 0.514628
O O13 0.265211 0.000000 0.500000
O O14 0.079392 0.238854 0.840793
O O15 0.131217 0.132712 0.750000
O O16 0.000000 0.153660 0.750000
O O17 0.500000 0.291441 0.009564
#
# Coordination Sequence:
#
# PCOD8258805 Si02
#       8
#     8   8  16  16  16   8  16   8
#     4  12  24  38  56  80 117 154 192 229 289 334
#     4  10  20  34  53  75 107 160 200 220 266 339
#     4  11  21  37  60  86 113 149 195 236 288 336
#     4  10  20  35  55  81 113 152 192 231 277 333
#     4  12  23  38  57  82 114 152 187 235 282 338
#     4   8  16  31  55  83 111 142 180 233 294 337
#     4   9  18  34  57  85 116 144 182 236 287 337
#     4  10  20  35  58  80 113 154 184 238 285 340
#
# _framework density 17.356888000000001
#
# number of rings (size 3 to 8) (size 9 to 14) (size 15 to 20)
#    0.000    1.667    5.000    0.000    0.000    2.333 
#    0.000    1.667    0.000    1.500    0.000    0.000 
#    0.000    0.000    0.000    0.000    0.000    0.000 
#
# Total GULP energy -594829.212652 kJ/mol
# GULP energy per Si atom -12392.275264 kJ/mol
# Density = 1.731738 g / cm^3
# Si number density = 17.356888 Si / 1000 Ang^3
#
#
#
# Elastic Constant Matrix: (Units=GPa)
#
#
# Indices 1 2 3 4 5 6 
#
# 1 106.9105 65.7239 59.7786 0.0000 0.0000 0.0000
# 2 65.7239 112.3941 66.9614 0.0000 0.0000 0.0000
# 3 59.7786 66.9614 139.6536 0.0000 0.0000 0.0000
# 4 0.0000 0.0000 0.0000 34.7629 0.0000 0.0000
# 5 0.0000 0.0000 0.0000 0.0000 20.6481 0.0000
# 6 0.0000 0.0000 0.0000 0.0000 0.0000 25.5617
#
#
#
# Elastic Compliance Matrix: (Units=1/GPa)
#
#
# Indices 1 2 3 4 5 6 
#
# 1 0.015573 -0.007188 -0.003219 0.000000 0.000000 0.000000
# 2 -0.007188 0.015774 -0.004486 0.000000 0.000000 0.000000
# 3 -0.003219 -0.004486 0.010690 0.000000 0.000000 0.000000
# 4 0.000000 0.000000 0.000000 0.028766 0.000000 0.000000
# 5 0.000000 0.000000 0.000000 0.000000 0.048431 0.000000
# 6 0.000000 0.000000 0.000000 0.000000 0.000000 0.039121
#
#
# Mechanical properties :
#
#
# Convention : Reuss Voigt Hill
#
# Bulk Modulus (GPa) = 81.64371 82.65399 82.14885
# Shear Modulus (GPa) = 26.01130 27.29415 26.65272
#
# Velocity S-wave (km/s) = 3.87540 3.96981 3.92289
# Velocity P-wave (km/s) = 8.19544 8.29073 8.24322
#
# Compressibility (1/GPa) = 0.01224834
#
# Stress axis : x y z
#
# Youngs Moduli (GPa) = 64.21464 63.39738 93.54946
#
# Poissons Ratio (x) = 0.45573 0.30115
# Poissons Ratio (y) = 0.46161 0.41967
# Poissons Ratio (z) = 0.20672 0.28441
#
# Static dielectric constant tensor:
#      x y z
#    x 3.622750 0.000000 0.000000 
#    y 0.000000 3.145560 0.000000 
#    z 0.000000 0.000000 3.462150 
# 
# 
# High freq. dielectric constant tensor:
#      x y z
#    x 1.684090 0.000000 0.000000 
#    y 0.000000 1.641300 0.000000 
#    z 0.000000 0.000000 1.680440 
# 
# From -- ./inp_files/22854.got.cif
#   From: 2010.03.12/outbox.cif.g09.slc.cpg/sg63_12_cif.got.tgz:22854.got - 2010.04.10 19:34:48.
