data_PCOD8258258
_publ_section_title
;
Structure prediction by ZEFSAII (Michael W. Deem and Ramdas Pophale) SiO2 
 PCOD8258258
Probable space group: C M C M
;
_chemical_formula_sum "Si O2"
_cell_formula_units_Z 88
_cell_length_a 12.922811
_cell_length_b 27.952537
_cell_length_c 15.007706
_cell_angle_alpha 90.000000
_cell_angle_beta 90.000000
_cell_angle_gamma 90.000000
_cell_volume 5421.163892
_symmetry_space_group_name_H-M "C M C M"
_symmetry_group_IT_number 63
_symmetry_cell_setting 'orthorhombic'
loop_
_space_group_symop_operation_xyz
x,y,z
-x,-y,1/2+z
x,-y,-z
-x,y,1/2-z
-x,-y,-z
x,y,1/2-z
-x,y,z
x,-y,1/2+z
1/2+x,1/2+y,z
1/2-x,1/2-y,1/2+z
1/2+x,1/2-y,-z
1/2-x,1/2+y,1/2-z
1/2-x,1/2-y,-z
1/2+x,1/2+y,1/2-z
1/2-x,1/2+y,z
1/2+x,1/2-y,1/2+z
loop_
_atom_site_type_symbol
_atom_site_label
_atom_site_fract_x
_atom_site_fract_y
_atom_site_fract_z
Si Si1 0.881190 0.960530 0.351553
Si Si2 0.259298 0.000000 0.500000
Si Si3 0.623177 0.830172 0.651028
Si Si4 0.614794 0.724610 0.855506
Si Si5 0.260763 0.365466 0.352273
Si Si6 0.377333 0.902536 0.998637
O O1 0.864172 0.977358 0.250000
O O2 0.811977 0.994434 0.413186
O O3 0.849504 0.905312 0.362925
O O4 0.000000 0.965523 0.380432
O O5 0.332259 0.045090 0.483357
O O6 0.666287 0.842279 0.750000
O O7 0.500000 0.829666 0.653886
O O8 0.659926 0.777137 0.620269
O O9 0.664157 0.869639 0.582226
O O10 0.605320 0.719435 0.750000
O O11 0.500000 0.717423 0.897357
O O12 0.692570 0.683950 0.891128
O O13 0.224648 0.360485 0.250000
O O14 0.160118 0.379735 0.408634
O O15 0.500000 0.905658 0.001125
#
# Coordination Sequence:
#
# PCOD8258258 Si02
#       6
#    16   8  16  16  16  16
#     4   9  17  30  48  69  91 111 134 172 222 272
#     4  10  20  32  46  64  86 116 154 188 220 258
#     4   8  15  28  45  64  85 110 142 181 223 262
#     4   8  13  24  44  68  91 111 134 172 221 269
#     4   9  17  28  44  67  91 115 142 171 212 266
#     4  10  20  32  44  60  86 120 156 191 220 247
#
# _framework density 16.232676999999999
#
# number of rings (size 3 to 8) (size 9 to 14) (size 15 to 20)
#    0.000    3.091    0.000    2.182    0.000    4.000 
#    0.000    0.000    0.000    3.273    0.000    1.273 
#    0.000    2.909    0.000    0.000    0.000    0.000 
#
# Total GULP energy -545450.333339 kJ/mol
# GULP energy per Si atom -12396.598485 kJ/mol
# Density = 1.619573 g / cm^3
# Si number density = 16.232677 Si / 1000 Ang^3
#
#
#
# Elastic Constant Matrix: (Units=GPa)
#
#
# Indices 1 2 3 4 5 6 
#
# 1 79.8306 52.8467 45.0528 0.0000 0.0000 0.0000
# 2 52.8467 128.5670 61.2961 0.0000 0.0000 0.0000
# 3 45.0528 61.2961 84.3004 0.0000 0.0000 0.0000
# 4 0.0000 0.0000 0.0000 25.4442 0.0000 0.0000
# 5 0.0000 0.0000 0.0000 0.0000 18.5569 0.0000
# 6 0.0000 0.0000 0.0000 0.0000 0.0000 18.5173
#
#
#
# Elastic Compliance Matrix: (Units=1/GPa)
#
#
# Indices 1 2 3 4 5 6 
#
# 1 0.019628 -0.004694 -0.007077 0.000000 0.000000 0.000000
# 2 -0.004694 0.013028 -0.006964 0.000000 0.000000 0.000000
# 3 -0.007077 -0.006964 0.020708 0.000000 0.000000 0.000000
# 4 0.000000 0.000000 0.000000 0.039302 0.000000 0.000000
# 5 0.000000 0.000000 0.000000 0.000000 0.053888 0.000000
# 6 0.000000 0.000000 0.000000 0.000000 0.000000 0.054004
#
#
# Mechanical properties :
#
#
# Convention : Reuss Voigt Hill
#
# Bulk Modulus (GPa) = 62.91641 67.89880 65.40760
# Shear Modulus (GPa) = 20.54877 21.40385 20.97631
#
# Velocity S-wave (km/s) = 3.56179 3.63515 3.59866
# Velocity P-wave (km/s) = 7.46716 7.71611 7.59265
#
# Compressibility (1/GPa) = 0.01589411
#
# Stress axis : x y z
#
# Youngs Moduli (GPa) = 50.94889 76.75973 48.29079
#
# Poissons Ratio (x) = 0.36031 0.34173
# Poissons Ratio (y) = 0.23915 0.33630
# Poissons Ratio (z) = 0.36054 0.53456
#
# Static dielectric constant tensor:
#      x y z
#    x 2.857320 0.000000 0.000000 
#    y 0.000000 3.249450 0.000000 
#    z 0.000000 0.000000 3.095460 
# 
# 
# High freq. dielectric constant tensor:
#      x y z
#    x 1.601620 0.000000 0.000000 
#    y 0.000000 1.631840 0.000000 
#    z 0.000000 0.000000 1.611520 
# 
# From -- ./inp_files/32394.got.cif
#   From: 2010.03.12/outbox.cif.g09.slc.cpg/sg63_17_cif.got.tgz:32394.got - 2010.04.10 19:34:48.
