data_PCOD8258876
_publ_section_title
;
Structure prediction by ZEFSAII (Michael W. Deem and Ramdas Pophale) SiO2 
 PCOD8258876
Probable space group: C M C M
;
_chemical_formula_sum "Si O2"
_cell_formula_units_Z 72
_cell_length_a 15.570206
_cell_length_b 26.823016
_cell_length_c 8.921169
_cell_angle_alpha 90.000000
_cell_angle_beta 90.000000
_cell_angle_gamma 90.000000
_cell_volume 3725.835992
_symmetry_space_group_name_H-M "C M C M"
_symmetry_group_IT_number 63
_symmetry_cell_setting 'orthorhombic'
loop_
_space_group_symop_operation_xyz
x,y,z
-x,-y,1/2+z
x,-y,-z
-x,y,1/2-z
-x,-y,-z
x,y,1/2-z
-x,y,z
x,-y,1/2+z
1/2+x,1/2+y,z
1/2-x,1/2-y,1/2+z
1/2+x,1/2-y,-z
1/2-x,1/2+y,1/2-z
1/2-x,1/2-y,-z
1/2+x,1/2+y,1/2-z
1/2-x,1/2+y,z
1/2+x,1/2-y,1/2+z
loop_
_atom_site_type_symbol
_atom_site_label
_atom_site_fract_x
_atom_site_fract_y
_atom_site_fract_z
Si Si1 0.500000 0.275246 0.428006
Si Si2 0.000000 0.446498 0.074403
Si Si3 0.164973 0.053349 0.925909
Si Si4 0.671421 0.221205 0.427798
Si Si5 0.833187 0.614791 0.925787
Si Si6 0.500000 0.387209 0.428504
O O1 0.500000 0.276820 0.250000
O O2 0.584040 0.246669 0.486710
O O3 0.500000 0.331233 0.493911
O O4 0.916678 0.415810 0.023516
O O5 0.000000 0.455556 0.250000
O O6 0.000000 0.500000 0.000000
O O7 0.156799 0.045610 0.750000
O O8 0.251024 0.082250 0.969028
O O9 0.084199 0.084479 0.988624
O O10 0.166661 0.000000 0.000000
O O11 0.679375 0.224534 0.250000
O O12 0.750000 0.250000 0.500000
O O13 0.671130 0.164432 0.478196
O O14 0.835027 0.628184 0.750000
O O15 0.500000 0.385125 0.250000
#
# Coordination Sequence:
#
# PCOD8258876 Si02
#       6
#     8   8  16  16  16   8
#     4   9  19  36  57  80 109 146 185 220 268 333
#     4  10  21  36  56  81 111 146 185 232 283 333
#     4  10  20  34  54  77 104 138 175 217 265 315
#     4  11  22  37  59  85 112 146 186 230 277 330
#     4  10  21  37  55  78 109 145 182 224 274 327
#     4   9  17  32  53  75 101 136 173 212 259 314
#
# _framework density 19.324522000000002
#
# number of rings (size 3 to 8) (size 9 to 14) (size 15 to 20)
#    0.000    2.000    0.000    3.667    0.000    5.333 
#    0.000    1.667    0.000    2.667    0.000    0.000 
#    0.000    0.000    0.000    0.000    0.000    0.000 
#
# Total GULP energy -446534.188525 kJ/mol
# GULP energy per Si atom -12403.727459 kJ/mol
# Density = 1.928054 g / cm^3
# Si number density = 19.324522 Si / 1000 Ang^3
#
#
#
# Elastic Constant Matrix: (Units=GPa)
#
#
# Indices 1 2 3 4 5 6 
#
# 1 220.8237 113.5530 49.7767 0.0000 0.0000 0.0000
# 2 113.5530 199.5777 57.1092 0.0000 0.0000 0.0000
# 3 49.7767 57.1092 44.0154 0.0000 0.0000 0.0000
# 4 0.0000 0.0000 0.0000 34.2508 0.0000 0.0000
# 5 0.0000 0.0000 0.0000 0.0000 -7.3525 0.0000
# 6 0.0000 0.0000 0.0000 0.0000 0.0000 37.8540
#
#
#
# Elastic Compliance Matrix: (Units=1/GPa)
#
#
# Indices 1 2 3 4 5 6 
#
# 1 0.006877 -0.002684 -0.004295 0.000000 0.000000 0.000000
# 2 -0.002684 0.009017 -0.008664 0.000000 0.000000 0.000000
# 3 -0.004295 -0.008664 0.038818 0.000000 0.000000 0.000000
# 4 0.000000 0.000000 0.000000 0.029196 0.000000 0.000000
# 5 0.000000 0.000000 0.000000 0.000000 -0.136008 0.000000
# 6 0.000000 0.000000 0.000000 0.000000 0.000000 0.026417
#
#
# Mechanical properties :
#
#
# Convention : Reuss Voigt Hill
#
# Bulk Modulus (GPa) = 42.68741 100.58827 71.63784
# Shear Modulus (GPa) = 372.84432 29.21567 201.02999
#
# Velocity S-wave (km/s) = 13.90530 3.89246 10.21050
# Velocity P-wave (km/s) = 16.73163 8.50687 13.27242
#
# Compressibility (1/GPa) = 0.02342611
#
# Stress axis : x y z
#
# Youngs Moduli (GPa) = 145.42152 110.90527 25.76134
#
# Poissons Ratio (x) = 0.29762 0.11064
# Poissons Ratio (y) = 0.39025 0.22320
# Poissons Ratio (z) = 0.62455 0.96090
#
# Static dielectric constant tensor:
#      x y z
#    x 3.465430 0.000000 0.000000 
#    y 0.000000 3.606210 0.000000 
#    z 0.000000 0.000000 3.287100 
# 
# 
# High freq. dielectric constant tensor:
#      x y z
#    x 1.776500 0.000000 0.000000 
#    y 0.000000 1.770330 0.000000 
#    z 0.000000 0.000000 1.723620 
# 
# From -- ./inp_files/4693.got.cif
#   From: 2010.03.12/outbox.cif.g09.slc.cpg/sg63_3_cif.got.tgz:4693.got - 2010.04.10 19:34:48.
