data_PCOD8258660
_publ_section_title
;
Structure prediction by ZEFSAII (Michael W. Deem and Ramdas Pophale) SiO2 
 PCOD8258660
Probable space group: C M C M
;
_chemical_formula_sum "Si O2"
_cell_formula_units_Z 96
_cell_length_a 12.243171
_cell_length_b 17.066476
_cell_length_c 25.066651
_cell_angle_alpha 90.000000
_cell_angle_beta 90.000000
_cell_angle_gamma 90.000000
_cell_volume 5237.621180
_symmetry_space_group_name_H-M "C M C M"
_symmetry_group_IT_number 63
_symmetry_cell_setting 'orthorhombic'
loop_
_space_group_symop_operation_xyz
x,y,z
-x,-y,1/2+z
x,-y,-z
-x,y,1/2-z
-x,-y,-z
x,y,1/2-z
-x,y,z
x,-y,1/2+z
1/2+x,1/2+y,z
1/2-x,1/2-y,1/2+z
1/2+x,1/2-y,-z
1/2-x,1/2+y,1/2-z
1/2-x,1/2-y,-z
1/2+x,1/2+y,1/2-z
1/2-x,1/2+y,z
1/2+x,1/2-y,1/2+z
loop_
_atom_site_type_symbol
_atom_site_label
_atom_site_fract_x
_atom_site_fract_y
_atom_site_fract_z
Si Si1 0.802628 0.741760 0.863819
Si Si2 0.627037 0.665784 0.037993
Si Si3 0.000000 0.468791 0.686962
Si Si4 0.125169 0.153760 0.579039
Si Si5 0.500000 0.147316 0.686676
Si Si6 0.625421 0.523565 0.105805
Si Si7 0.270218 0.097076 0.312838
O O1 0.849943 0.763214 0.921959
O O2 0.693873 0.691128 0.872989
O O3 0.768980 0.816664 0.829227
O O4 0.891854 0.691296 0.832925
O O5 0.500000 0.652437 0.029279
O O6 0.675133 0.585768 0.063413
O O7 0.673189 0.681930 0.978492
O O8 0.106219 0.420578 0.667426
O O9 0.000000 0.474462 0.750000
O O10 0.000000 0.558026 0.664363
O O11 0.000000 0.179470 0.587983
O O12 0.138499 0.060839 0.580343
O O13 0.500000 0.148541 0.750000
O O14 0.500000 0.543675 0.119292
O O15 0.692181 0.531769 0.160778
O O16 0.259228 0.087292 0.250000
#
# Coordination Sequence:
#
# PCOD8258660 Si02
#       7
#    16  16   8  16   8  16  16
#     4  11  21  34  55  83 111 141 186 231 274 330
#     4   9  17  33  53  79 108 143 181 222 270 328
#     4   9  20  38  56  73 102 147 186 219 276 341
#     4  10  20  33  54  80 112 146 176 222 277 329
#     4  11  22  38  60  83 109 145 191 241 282 321
#     4   9  18  33  54  81 107 138 182 223 272 327
#     4  10  21  36  56  77 105 143 183 228 280 335
#
# _framework density 18.328931000000001
#
# number of rings (size 3 to 8) (size 9 to 14) (size 15 to 20)
#    0.000    2.167    0.833    2.500    2.333    2.333 
#    0.000    0.833    0.000    2.000    0.000    7.000 
#    0.000    0.000    0.000    0.000    0.000    0.000 
#
# Total GULP energy -595104.391355 kJ/mol
# GULP energy per Si atom -12398.008153 kJ/mol
# Density = 1.828721 g / cm^3
# Si number density = 18.328931 Si / 1000 Ang^3
#
#
#
# Elastic Constant Matrix: (Units=GPa)
#
#
# Indices 1 2 3 4 5 6 
#
# 1 84.9090 22.9431 43.9541 0.0000 0.0000 0.0000
# 2 22.9431 50.0195 12.7690 0.0000 0.0000 0.0000
# 3 43.9541 12.7690 80.3727 0.0000 0.0000 0.0000
# 4 0.0000 0.0000 0.0000 19.5286 0.0000 0.0000
# 5 0.0000 0.0000 0.0000 0.0000 22.6710 0.0000
# 6 0.0000 0.0000 0.0000 0.0000 0.0000 33.3564
#
#
#
# Elastic Compliance Matrix: (Units=1/GPa)
#
#
# Indices 1 2 3 4 5 6 
#
# 1 0.017997 -0.005985 -0.008891 0.000000 0.000000 0.000000
# 2 -0.005985 0.022828 -0.000353 0.000000 0.000000 0.000000
# 3 -0.008891 -0.000353 0.017361 0.000000 0.000000 0.000000
# 4 0.000000 0.000000 0.000000 0.051207 0.000000 0.000000
# 5 0.000000 0.000000 0.000000 0.000000 0.044109 0.000000
# 6 0.000000 0.000000 0.000000 0.000000 0.000000 0.029979
#
#
# Mechanical properties :
#
#
# Convention : Reuss Voigt Hill
#
# Bulk Modulus (GPa) = 36.06797 41.62597 38.84697
# Shear Modulus (GPa) = 22.40308 24.15352 23.27830
#
# Velocity S-wave (km/s) = 3.49990 3.63406 3.56761
# Velocity P-wave (km/s) = 6.00444 6.35361 6.18149
#
# Compressibility (1/GPa) = 0.02772543
#
# Stress axis : x y z
#
# Youngs Moduli (GPa) = 55.56374 43.80627 57.60119
#
# Poissons Ratio (x) = 0.26219 0.51216
# Poissons Ratio (y) = 0.33256 0.02036
# Poissons Ratio (z) = 0.49404 0.01548
#
# Static dielectric constant tensor:
#      x y z
#    x 3.458970 0.000000 0.000000 
#    y 0.000000 3.360440 0.000000 
#    z 0.000000 0.000000 3.389310 
# 
# 
# High freq. dielectric constant tensor:
#      x y z
#    x 1.708450 0.000000 0.000000 
#    y 0.000000 1.711940 0.000000 
#    z 0.000000 0.000000 1.706130 
# 
# From -- ./inp_files/68349.got.cif
#   From: 2010.03.12/outbox.cif.g09.slc.cpg/sg63_35_cif.got.tgz:68349.got - 2010.04.10 19:34:48.
