data_PCOD8258577
_publ_section_title
;
Structure prediction by ZEFSAII (Michael W. Deem and Ramdas Pophale) SiO2 
 PCOD8258577
Probable space group: C M C M
;
_chemical_formula_sum "Si O2"
_cell_formula_units_Z 88
_cell_length_a 34.931357
_cell_length_b 5.755970
_cell_length_c 22.749623
_cell_angle_alpha 90.000000
_cell_angle_beta 90.000000
_cell_angle_gamma 90.000000
_cell_volume 4574.126626
_symmetry_space_group_name_H-M "C M C M"
_symmetry_group_IT_number 63
_symmetry_cell_setting 'orthorhombic'
loop_
_space_group_symop_operation_xyz
x,y,z
-x,-y,1/2+z
x,-y,-z
-x,y,1/2-z
-x,-y,-z
x,y,1/2-z
-x,y,z
x,-y,1/2+z
1/2+x,1/2+y,z
1/2-x,1/2-y,1/2+z
1/2+x,1/2-y,-z
1/2-x,1/2+y,1/2-z
1/2-x,1/2-y,-z
1/2+x,1/2+y,1/2-z
1/2-x,1/2+y,z
1/2+x,1/2-y,1/2+z
loop_
_atom_site_type_symbol
_atom_site_label
_atom_site_fract_x
_atom_site_fract_y
_atom_site_fract_z
Si Si1 0.456926 0.643527 0.079062
Si Si2 0.084170 0.500000 0.000000
Si Si3 0.102871 0.766597 0.106441
Si Si4 0.924881 0.389068 0.315670
Si Si5 0.234362 0.809361 0.818210
Si Si6 0.649065 0.575385 0.184157
O O1 0.500000 0.555814 0.067764
O O2 0.427330 0.435494 0.076534
O O3 0.455580 0.762670 0.143230
O O4 0.444634 0.812986 0.026979
O O5 0.112322 0.409117 0.947455
O O6 0.081414 0.649138 0.161457
O O7 0.140954 0.884609 0.133269
O O8 0.941490 0.395201 0.250000
O O9 0.883738 0.266694 0.319105
O O10 0.245742 0.810789 0.750000
O O11 0.250277 0.560774 0.844886
O O12 0.189029 0.800928 0.829685
O O13 0.650196 0.462708 0.250000
#
# Coordination Sequence:
#
# PCOD8258577 Si02
#       6
#    16   8  16  16  16  16
#     4  10  21  36  53  74 101 133 173 221 272 321
#     4  10  21  36  54  74  98 128 180 228 272 320
#     4  10  20  33  52  76 101 134 177 218 272 320
#     4   9  19  34  51  74 104 139 176 211 258 321
#     4   9  18  30  48  79 114 147 183 223 270 325
#     4   9  18  32  52  75 107 144 176 215 261 322
#
# _framework density 19.238645999999999
#
# number of rings (size 3 to 8) (size 9 to 14) (size 15 to 20)
#    0.000    2.545    0.000    1.364    2.545    5.455 
#    0.000    0.000    0.000    0.000    0.000    1.273 
#    0.000    0.000    0.000    0.000    0.000    0.000 
#
# Total GULP energy -545124.975336 kJ/mol
# GULP energy per Si atom -12389.203985 kJ/mol
# Density = 1.919486 g / cm^3
# Si number density = 19.238646 Si / 1000 Ang^3
#
#
#
# Elastic Constant Matrix: (Units=GPa)
#
#
# Indices 1 2 3 4 5 6 
#
# 1 66.2560 6.6775 6.0738 0.0000 0.0000 0.0000
# 2 6.6775 73.3513 12.5430 0.0000 0.0000 0.0000
# 3 6.0738 12.5430 95.0898 0.0000 0.0000 0.0000
# 4 0.0000 0.0000 0.0000 29.8974 0.0000 0.0000
# 5 0.0000 0.0000 0.0000 0.0000 13.9511 0.0000
# 6 0.0000 0.0000 0.0000 0.0000 0.0000 11.2132
#
#
#
# Elastic Compliance Matrix: (Units=1/GPa)
#
#
# Indices 1 2 3 4 5 6 
#
# 1 0.015294 -0.001253 -0.000812 0.000000 0.000000 0.000000
# 2 -0.001253 0.014050 -0.001773 0.000000 0.000000 0.000000
# 3 -0.000812 -0.001773 0.010802 0.000000 0.000000 0.000000
# 4 0.000000 0.000000 0.000000 0.033448 0.000000 0.000000
# 5 0.000000 0.000000 0.000000 0.000000 0.071679 0.000000
# 6 0.000000 0.000000 0.000000 0.000000 0.000000 0.089180
#
#
# Mechanical properties :
#
#
# Convention : Reuss Voigt Hill
#
# Bulk Modulus (GPa) = 30.79805 31.69843 31.24824
# Shear Modulus (GPa) = 19.76651 24.97253 22.36952
#
# Velocity S-wave (km/s) = 3.20884 3.60674 3.41359
# Velocity P-wave (km/s) = 5.45638 5.81867 5.64044
#
# Compressibility (1/GPa) = 0.03246958
#
# Stress axis : x y z
#
# Youngs Moduli (GPa) = 65.38638 71.17251 92.57447
#
# Poissons Ratio (x) = 0.08921 0.07513
# Poissons Ratio (y) = 0.08196 0.16416
# Poissons Ratio (z) = 0.05306 0.12621
#
# Static dielectric constant tensor:
#      x y z
#    x 3.203100 0.000000 0.000000 
#    y 0.000000 3.780630 0.000000 
#    z 0.000000 0.000000 3.591600 
# 
# 
# High freq. dielectric constant tensor:
#      x y z
#    x 1.717920 0.000000 0.000000 
#    y 0.000000 1.758980 0.000000 
#    z 0.000000 0.000000 1.735030 
# 
# From -- ./inp_files/65703.got.cif
#   From: 2010.03.12/outbox.cif.g09.slc.cpg/sg63_33_cif.got.tgz:65703.got - 2010.04.10 19:34:48.
