data_PCOD8258494
_publ_section_title
;
Structure prediction by ZEFSAII (Michael W. Deem and Ramdas Pophale) SiO2 
 PCOD8258494
Probable space group: C M C M
;
_chemical_formula_sum "Si O2"
_cell_formula_units_Z 80
_cell_length_a 12.469594
_cell_length_b 26.288904
_cell_length_c 13.057407
_cell_angle_alpha 90.000000
_cell_angle_beta 90.000000
_cell_angle_gamma 90.000000
_cell_volume 4280.374176
_symmetry_space_group_name_H-M "C M C M"
_symmetry_group_IT_number 63
_symmetry_cell_setting 'orthorhombic'
loop_
_space_group_symop_operation_xyz
x,y,z
-x,-y,1/2+z
x,-y,-z
-x,y,1/2-z
-x,-y,-z
x,y,1/2-z
-x,y,z
x,-y,1/2+z
1/2+x,1/2+y,z
1/2-x,1/2-y,1/2+z
1/2+x,1/2-y,-z
1/2-x,1/2+y,1/2-z
1/2-x,1/2-y,-z
1/2+x,1/2+y,1/2-z
1/2-x,1/2+y,z
1/2+x,1/2-y,1/2+z
loop_
_atom_site_type_symbol
_atom_site_label
_atom_site_fract_x
_atom_site_fract_y
_atom_site_fract_z
Si Si1 0.250049 0.330467 0.507662
Si Si2 0.880152 0.424250 0.939457
Si Si3 0.687265 0.028503 0.636689
Si Si4 0.879543 0.097790 0.633272
Si Si5 0.873952 0.746813 0.629851
O O1 0.183383 0.371774 0.572767
O O2 0.339559 0.356327 0.437207
O O3 0.166565 0.301483 0.434279
O O4 0.308783 0.295633 0.590659
O O5 0.816796 0.467804 0.877517
O O6 0.000000 0.417749 0.895510
O O7 0.889194 0.441559 0.058290
O O8 0.647492 0.042974 0.750000
O O9 0.809223 0.046889 0.617810
O O10 0.873394 0.117180 0.750000
O O11 0.000000 0.083362 0.601588
O O12 0.850378 0.738596 0.750000
O O13 0.000000 0.754425 0.609589
#
# Coordination Sequence:
#
# PCOD8258494 Si02
#       5
#    16  16  16  16  16
#     4  10  20  35  54  76 103 132 169 212 256 305
#     4  10  20  33  50  74 101 131 168 206 247 296
#     4   9  18  32  49  72 103 135 166 202 243 291
#     4   9  17  31  52  77 104 135 170 206 245 291
#     4  10  21  37  56  77 102 133 169 212 262 312
#
# _framework density 18.689955000000001
#
# number of rings (size 3 to 8) (size 9 to 14) (size 15 to 20)
#    0.000    2.400    0.000    3.000    0.000    3.200 
#    0.000    9.000    0.000   13.800    0.000    0.000 
#    0.000    0.000    0.000    0.000    0.000    0.000 
#
# Total GULP energy -495942.807543 kJ/mol
# GULP energy per Si atom -12398.570189 kJ/mol
# Density = 1.864742 g / cm^3
# Si number density = 18.689955 Si / 1000 Ang^3
#
#
#
# Elastic Constant Matrix: (Units=GPa)
#
#
# Indices 1 2 3 4 5 6 
#
# 1 100.1572 37.5075 13.2254 0.0000 0.0000 0.0000
# 2 37.5075 94.4564 5.0212 0.0000 0.0000 0.0000
# 3 13.2254 5.0212 51.0099 0.0000 0.0000 0.0000
# 4 0.0000 0.0000 0.0000 22.2334 0.0000 0.0000
# 5 0.0000 0.0000 0.0000 0.0000 25.5005 0.0000
# 6 0.0000 0.0000 0.0000 0.0000 0.0000 22.5425
#
#
#
# Elastic Compliance Matrix: (Units=1/GPa)
#
#
# Indices 1 2 3 4 5 6 
#
# 1 0.012081 -0.004655 -0.002674 0.000000 0.000000 0.000000
# 2 -0.004655 0.012436 -0.000017 0.000000 0.000000 0.000000
# 3 -0.002674 -0.000017 0.020299 0.000000 0.000000 0.000000
# 4 0.000000 0.000000 0.000000 0.044977 0.000000 0.000000
# 5 0.000000 0.000000 0.000000 0.000000 0.039215 0.000000
# 6 0.000000 0.000000 0.000000 0.000000 0.000000 0.044361
#
#
# Mechanical properties :
#
#
# Convention : Reuss Voigt Hill
#
# Bulk Modulus (GPa) = 33.19662 39.68129 36.43895
# Shear Modulus (GPa) = 25.23951 26.71326 25.97638
#
# Velocity S-wave (km/s) = 3.67881 3.78469 3.73212
# Velocity P-wave (km/s) = 5.98708 6.35421 6.17337
#
# Compressibility (1/GPa) = 0.03012355
#
# Stress axis : x y z
#
# Youngs Moduli (GPa) = 82.77748 80.41026 49.26353
#
# Poissons Ratio (x) = 0.37430 0.13173
# Poissons Ratio (y) = 0.38532 0.00085
# Poissons Ratio (z) = 0.22134 0.00139
#
# Static dielectric constant tensor:
#      x y z
#    x 3.454890 0.000000 0.000000 
#    y 0.000000 3.402070 0.000000 
#    z 0.000000 0.000000 3.439770 
# 
# 
# High freq. dielectric constant tensor:
#      x y z
#    x 1.728820 0.000000 0.000000 
#    y 0.000000 1.722150 0.000000 
#    z 0.000000 0.000000 1.721310 
# 
# From -- ./inp_files/30010.got.cif
#   From: 2010.03.12/outbox.cif.g09.slc.cpg/sg63_16_cif.got.tgz:30010.got - 2010.04.10 19:34:48.
