data_PCOD8258974
_publ_section_title
;
Structure prediction by ZEFSAII (Michael W. Deem and Ramdas Pophale) SiO2 
 PCOD8258974
Probable space group: C M C M
;
_chemical_formula_sum "Si O2"
_cell_formula_units_Z 72
_cell_length_a 29.173926
_cell_length_b 13.913091
_cell_length_c 8.784871
_cell_angle_alpha 90.000000
_cell_angle_beta 90.000000
_cell_angle_gamma 90.000000
_cell_volume 3565.774635
_symmetry_space_group_name_H-M "C M C M"
_symmetry_group_IT_number 63
_symmetry_cell_setting 'orthorhombic'
loop_
_space_group_symop_operation_xyz
x,y,z
-x,-y,1/2+z
x,-y,-z
-x,y,1/2-z
-x,-y,-z
x,y,1/2-z
-x,y,z
x,-y,1/2+z
1/2+x,1/2+y,z
1/2-x,1/2-y,1/2+z
1/2+x,1/2-y,-z
1/2-x,1/2+y,1/2-z
1/2-x,1/2-y,-z
1/2+x,1/2+y,1/2-z
1/2-x,1/2+y,z
1/2+x,1/2-y,1/2+z
loop_
_atom_site_type_symbol
_atom_site_label
_atom_site_fract_x
_atom_site_fract_y
_atom_site_fract_z
Si Si1 0.184470 0.702114 0.570911
Si Si2 0.500000 0.103659 0.069916
Si Si3 0.231125 0.100794 0.429211
Si Si4 0.446866 0.399223 0.926439
Si Si5 0.089648 0.284084 0.570133
O O1 0.186558 0.686094 0.750000
O O2 0.196133 0.812968 0.527698
O O3 0.219274 0.627852 0.494363
O O4 0.134681 0.673151 0.508630
O O5 0.500000 0.097736 0.250000
O O6 0.454542 0.157459 0.011562
O O7 0.500000 0.000000 0.000000
O O8 0.235004 0.087841 0.250000
O O9 0.213718 0.000000 0.500000
O O10 0.433073 0.399534 0.750000
O O11 0.500000 0.373551 0.949871
O O12 0.434714 0.500000 0.000000
O O13 0.415836 0.324941 0.016988
O O14 0.095220 0.289009 0.750000
#
# Coordination Sequence:
#
# PCOD8258974 Si02
#       5
#    16   8  16  16  16
#     4  10  22  39  60  89 121 155 198 243 294 354
#     4  10  24  42  61  84 113 154 201 248 294 342
#     4  10  21  39  63  89 119 154 193 240 297 355
#     4  10  20  34  55  82 112 150 193 239 292 349
#     4  11  22  39  60  85 120 157 199 248 298 350
#
# _framework density 20.191965
#
# number of rings (size 3 to 8) (size 9 to 14) (size 15 to 20)
#    0.000    1.778    1.111    2.667    0.000    7.111 
#    0.000    4.444    0.000    0.000    0.000    0.000 
#    0.000    0.000    0.000    0.000    0.000    0.000 
#
# Total GULP energy -446541.129626 kJ/mol
# GULP energy per Si atom -12403.920267 kJ/mol
# Density = 2.014601 g / cm^3
# Si number density = 20.191965 Si / 1000 Ang^3
#
#
#
# Elastic Constant Matrix: (Units=GPa)
#
#
# Indices 1 2 3 4 5 6 
#
# 1 112.0500 21.5160 27.0850 0.0000 0.0000 0.0000
# 2 21.5160 76.7614 28.3033 0.0000 0.0000 0.0000
# 3 27.0850 28.3033 64.0086 0.0000 0.0000 0.0000
# 4 0.0000 0.0000 0.0000 40.1905 0.0000 0.0000
# 5 0.0000 0.0000 0.0000 0.0000 34.5931 0.0000
# 6 0.0000 0.0000 0.0000 0.0000 0.0000 21.8997
#
#
#
# Elastic Compliance Matrix: (Units=1/GPa)
#
#
# Indices 1 2 3 4 5 6 
#
# 1 0.010083 -0.001497 -0.003605 0.000000 0.000000 0.000000
# 2 -0.001497 0.015787 -0.006347 0.000000 0.000000 0.000000
# 3 -0.003605 -0.006347 0.019955 0.000000 0.000000 0.000000
# 4 0.000000 0.000000 0.000000 0.024881 0.000000 0.000000
# 5 0.000000 0.000000 0.000000 0.000000 0.028908 0.000000
# 6 0.000000 0.000000 0.000000 0.000000 0.000000 0.045663
#
#
# Mechanical properties :
#
#
# Convention : Reuss Voigt Hill
#
# Bulk Modulus (GPa) = 43.61634 45.18093 44.39863
# Shear Modulus (GPa) = 28.43842 31.06438 29.75140
#
# Velocity S-wave (km/s) = 3.75694 3.92657 3.84269
# Velocity P-wave (km/s) = 6.36138 6.55603 6.45944
#
# Compressibility (1/GPa) = 0.02292719
#
# Stress axis : x y z
#
# Youngs Moduli (GPa) = 99.17268 63.34156 50.11303
#
# Poissons Ratio (x) = 0.09484 0.18064
# Poissons Ratio (y) = 0.14848 0.31808
# Poissons Ratio (z) = 0.35749 0.40205
#
# Static dielectric constant tensor:
#      x y z
#    x 3.735870 0.000000 0.000000 
#    y 0.000000 3.642810 0.000000 
#    z 0.000000 0.000000 3.863960 
# 
# 
# High freq. dielectric constant tensor:
#      x y z
#    x 1.788160 0.000000 0.000000 
#    y 0.000000 1.787440 0.000000 
#    z 0.000000 0.000000 1.798000 
# 
# From -- ./inp_files/11723.got.cif
#   From: 2010.03.12/outbox.cif.g09.slc.cpg/sg63_6_cif.got.tgz:11723.got - 2010.04.10 19:34:48.
