data_PCOD8258721
_publ_section_title
;
Structure prediction by ZEFSAII (Michael W. Deem and Ramdas Pophale) SiO2 
 PCOD8258721
Probable space group: C M C M
;
_chemical_formula_sum "Si O2"
_cell_formula_units_Z 88
_cell_length_a 23.849801
_cell_length_b 14.332898
_cell_length_c 14.243398
_cell_angle_alpha 90.000000
_cell_angle_beta 90.000000
_cell_angle_gamma 90.000000
_cell_volume 4868.917096
_symmetry_space_group_name_H-M "C M C M"
_symmetry_group_IT_number 63
_symmetry_cell_setting 'orthorhombic'
loop_
_space_group_symop_operation_xyz
x,y,z
-x,-y,1/2+z
x,-y,-z
-x,y,1/2-z
-x,-y,-z
x,y,1/2-z
-x,y,z
x,-y,1/2+z
1/2+x,1/2+y,z
1/2-x,1/2-y,1/2+z
1/2+x,1/2-y,-z
1/2-x,1/2+y,1/2-z
1/2-x,1/2-y,-z
1/2+x,1/2+y,1/2-z
1/2-x,1/2+y,z
1/2+x,1/2-y,1/2+z
loop_
_atom_site_type_symbol
_atom_site_label
_atom_site_fract_x
_atom_site_fract_y
_atom_site_fract_z
Si Si1 0.185124 0.500000 0.500000
Si Si2 0.242628 0.231757 0.857133
Si Si3 0.563383 0.652696 0.995283
Si Si4 0.599284 0.506260 0.360916
Si Si5 0.274668 0.485334 0.145759
Si Si6 0.839609 0.297204 0.005963
O O1 0.226495 0.531237 0.416245
O O2 0.148218 0.591765 0.523545
O O3 0.249139 0.266353 0.750000
O O4 0.224309 0.125242 0.863223
O O5 0.193439 0.288781 0.907807
O O6 0.302081 0.245648 0.909707
O O7 0.500000 0.688475 0.984073
O O8 0.566724 0.590852 0.089872
O O9 0.579814 0.592138 0.904185
O O10 0.601563 0.744436 0.003026
O O11 0.586906 0.504667 0.250000
O O12 0.664591 0.522668 0.384795
O O13 0.260910 0.518402 0.250000
#
# Coordination Sequence:
#
# PCOD8258721 Si02
#       6
#     8  16  16  16  16  16
#     4  10  20  34  51  74 109 142 172 218 266 310
#     4   9  18  33  54  78 105 135 168 214 271 325
#     4  11  23  37  53  77 110 145 185 226 262 311
#     4  10  20  35  56  82 111 142 175 213 267 331
#     4   9  17  30  51  80 109 133 163 206 263 325
#     4  10  21  35  53  77 107 141 181 220 265 312
#
# _framework density 18.073833
#
# number of rings (size 3 to 8) (size 9 to 14) (size 15 to 20)
#    0.000    2.182    1.818    2.182    5.091    2.909 
#    0.000    0.455    0.000    0.000    0.000    0.000 
#    0.000    7.273    0.000    0.000    0.000    0.000 
#
# Total GULP energy -545525.464705 kJ/mol
# GULP energy per Si atom -12398.306016 kJ/mol
# Density = 1.803270 g / cm^3
# Si number density = 18.073833 Si / 1000 Ang^3
#
#
#
# Elastic Constant Matrix: (Units=GPa)
#
#
# Indices 1 2 3 4 5 6 
#
# 1 100.5788 61.2186 43.0559 0.0000 0.0000 0.0000
# 2 61.2186 60.6512 20.1192 0.0000 0.0000 0.0000
# 3 43.0559 20.1192 123.6043 0.0000 0.0000 0.0000
# 4 0.0000 0.0000 0.0000 15.7526 0.0000 0.0000
# 5 0.0000 0.0000 0.0000 0.0000 3.5965 0.0000
# 6 0.0000 0.0000 0.0000 0.0000 0.0000 41.8486
#
#
#
# Elastic Compliance Matrix: (Units=1/GPa)
#
#
# Indices 1 2 3 4 5 6 
#
# 1 0.029102 -0.027496 -0.005662 0.000000 0.000000 0.000000
# 2 -0.027496 0.043408 0.002512 0.000000 0.000000 0.000000
# 3 -0.005662 0.002512 0.009654 0.000000 0.000000 0.000000
# 4 0.000000 0.000000 0.000000 0.063481 0.000000 0.000000
# 5 0.000000 0.000000 0.000000 0.000000 0.278049 0.000000
# 6 0.000000 0.000000 0.000000 0.000000 0.000000 0.023896
#
#
# Mechanical properties :
#
#
# Convention : Reuss Voigt Hill
#
# Bulk Modulus (GPa) = 47.91034 59.29128 53.60081
# Shear Modulus (GPa) = 9.69297 22.93558 16.31427
#
# Velocity S-wave (km/s) = 2.31832 3.56616 3.00767
# Velocity P-wave (km/s) = 5.80791 7.05924 6.46393
#
# Compressibility (1/GPa) = 0.02087232
#
# Stress axis : x y z
#
# Youngs Moduli (GPa) = 34.36194 23.03743 103.58862
#
# Poissons Ratio (x) = 0.63344 0.58649
# Poissons Ratio (y) = 0.94482 -0.26025
# Poissons Ratio (z) = 0.19455 -0.05788
#
# Static dielectric constant tensor:
#      x y z
#    x 3.113450 0.000000 0.000000 
#    y 0.000000 3.208760 0.000000 
#    z 0.000000 0.000000 3.439830 
# 
# 
# High freq. dielectric constant tensor:
#      x y z
#    x 1.668170 0.000000 0.000000 
#    y 0.000000 1.694380 0.000000 
#    z 0.000000 0.000000 1.708920 
# 
# From -- ./inp_files/35189.got.cif
#   From: 2010.03.12/outbox.cif.g09.slc.cpg/sg63_18_cif.got.tgz:35189.got - 2010.04.10 19:34:48.
