data_PCOD8258441
_publ_section_title
;
Structure prediction by ZEFSAII (Michael W. Deem and Ramdas Pophale) SiO2 
 PCOD8258441
Probable space group: C M C M
;
_chemical_formula_sum "Si O2"
_cell_formula_units_Z 88
_cell_length_a 27.591834
_cell_length_b 19.436365
_cell_length_c 9.595944
_cell_angle_alpha 90.000000
_cell_angle_beta 90.000000
_cell_angle_gamma 90.000000
_cell_volume 5146.160412
_symmetry_space_group_name_H-M "C M C M"
_symmetry_group_IT_number 63
_symmetry_cell_setting 'orthorhombic'
loop_
_space_group_symop_operation_xyz
x,y,z
-x,-y,1/2+z
x,-y,-z
-x,y,1/2-z
-x,-y,-z
x,y,1/2-z
-x,y,z
x,-y,1/2+z
1/2+x,1/2+y,z
1/2-x,1/2-y,1/2+z
1/2+x,1/2-y,-z
1/2-x,1/2+y,1/2-z
1/2-x,1/2-y,-z
1/2+x,1/2+y,1/2-z
1/2-x,1/2+y,z
1/2+x,1/2-y,1/2+z
loop_
_atom_site_type_symbol
_atom_site_label
_atom_site_fract_x
_atom_site_fract_y
_atom_site_fract_z
Si Si1 0.630352 0.931751 0.587348
Si Si2 0.083185 0.826734 0.085104
Si Si3 0.445893 0.178976 0.084949
Si Si4 0.308844 0.313014 0.411763
Si Si5 0.000000 0.929800 0.084172
Si Si6 0.220713 0.340195 0.908895
O O1 0.621699 0.947458 0.750000
O O2 0.591081 0.877888 0.527647
O O3 0.683694 0.901600 0.561644
O O4 0.623963 0.000000 0.500000
O O5 0.080193 0.820348 0.250000
O O6 0.065911 0.753977 0.020405
O O7 0.138653 0.840979 0.038991
O O8 0.047770 0.887720 0.036001
O O9 0.439988 0.183441 0.250000
O O10 0.500000 0.157153 0.041075
O O11 0.300192 0.328378 0.250000
O O12 0.267654 0.353273 0.496348
O O13 0.305950 0.231630 0.443891
O O14 0.000000 0.943694 0.250000
O O15 0.000000 0.000000 0.000000
O O16 0.238430 0.340021 0.750000
#
# Coordination Sequence:
#
# PCOD8258441 Si02
#       6
#    16  16  16  16   8  16
#     4  10  20  33  49  71 102 136 168 205 248 294
#     4   9  15  28  52  78  98 124 165 206 240 287
#     4   9  15  27  50  77  98 123 167 212 243 280
#     4   9  16  28  50  76  97 119 160 211 247 281
#     4  10  20  34  54  78 103 130 160 196 247 304
#     4   9  17  30  47  70  99 128 160 202 249 291
#
# _framework density 17.100128000000002
#
# number of rings (size 3 to 8) (size 9 to 14) (size 15 to 20)
#    0.000    2.727    2.727    0.000    0.000    1.091 
#    0.000    1.818    0.000    5.455    0.000    0.000 
#    0.000    0.000    0.000    0.000    0.000    0.000 
#
# Total GULP energy -545487.855337 kJ/mol
# GULP energy per Si atom -12397.451258 kJ/mol
# Density = 1.706121 g / cm^3
# Si number density = 17.100128 Si / 1000 Ang^3
#
#
#
# Elastic Constant Matrix: (Units=GPa)
#
#
# Indices 1 2 3 4 5 6 
#
# 1 152.2685 72.1355 46.4788 0.0000 0.0000 0.0000
# 2 72.1355 121.7622 41.4115 0.0000 0.0000 0.0000
# 3 46.4788 41.4115 38.9516 0.0000 0.0000 0.0000
# 4 0.0000 0.0000 0.0000 27.2432 0.0000 0.0000
# 5 0.0000 0.0000 0.0000 0.0000 20.3303 0.0000
# 6 0.0000 0.0000 0.0000 0.0000 0.0000 24.2000
#
#
#
# Elastic Compliance Matrix: (Units=1/GPa)
#
#
# Indices 1 2 3 4 5 6 
#
# 1 0.011091 -0.003242 -0.009787 0.000000 0.000000 0.000000
# 2 -0.003242 0.013812 -0.010816 0.000000 0.000000 0.000000
# 3 -0.009787 -0.010816 0.048851 0.000000 0.000000 0.000000
# 4 0.000000 0.000000 0.000000 0.036706 0.000000 0.000000
# 5 0.000000 0.000000 0.000000 0.000000 0.049188 0.000000
# 6 0.000000 0.000000 0.000000 0.000000 0.000000 0.041322
#
#
# Mechanical properties :
#
#
# Convention : Reuss Voigt Hill
#
# Bulk Modulus (GPa) = 38.36852 70.33711 54.35281
# Shear Modulus (GPa) = 19.42904 24.55179 21.99042
#
# Velocity S-wave (km/s) = 3.37440 3.79326 3.58995
# Velocity P-wave (km/s) = 6.13746 7.77219 7.00269
#
# Compressibility (1/GPa) = 0.02606304
#
# Stress axis : x y z
#
# Youngs Moduli (GPa) = 90.16659 72.40255 20.47060
#
# Poissons Ratio (x) = 0.23471 0.20035
# Poissons Ratio (y) = 0.29229 0.22141
# Poissons Ratio (z) = 0.88250 0.78309
#
# Static dielectric constant tensor:
#      x y z
#    x 3.460720 0.000000 0.000000 
#    y 0.000000 3.046520 0.000000 
#    z 0.000000 0.000000 2.808960 
# 
# 
# High freq. dielectric constant tensor:
#      x y z
#    x 1.676070 0.000000 0.000000 
#    y 0.000000 1.643560 0.000000 
#    z 0.000000 0.000000 1.615450 
# 
# From -- ./inp_files/14218.got.cif
#   From: 2010.03.12/outbox.cif.g09.slc.cpg/sg63_8_cif.got.tgz:14218.got - 2010.04.10 19:34:48.
