data_PCOD8258532
_publ_section_title
;
Structure prediction by ZEFSAII (Michael W. Deem and Ramdas Pophale) SiO2 
 PCOD8258532
Probable space group: C M C M
;
_chemical_formula_sum "Si O2"
_cell_formula_units_Z 96
_cell_length_a 25.259258
_cell_length_b 23.618754
_cell_length_c 8.752998
_cell_angle_alpha 90.000000
_cell_angle_beta 90.000000
_cell_angle_gamma 90.000000
_cell_volume 5221.970342
_symmetry_space_group_name_H-M "C M C M"
_symmetry_group_IT_number 63
_symmetry_cell_setting 'orthorhombic'
loop_
_space_group_symop_operation_xyz
x,y,z
-x,-y,1/2+z
x,-y,-z
-x,y,1/2-z
-x,-y,-z
x,y,1/2-z
-x,y,z
x,-y,1/2+z
1/2+x,1/2+y,z
1/2-x,1/2-y,1/2+z
1/2+x,1/2-y,-z
1/2-x,1/2+y,1/2-z
1/2-x,1/2-y,-z
1/2+x,1/2+y,1/2-z
1/2-x,1/2+y,z
1/2+x,1/2-y,1/2+z
loop_
_atom_site_type_symbol
_atom_site_label
_atom_site_fract_x
_atom_site_fract_y
_atom_site_fract_z
Si Si1 0.804156 0.058902 0.569814
Si Si2 0.500000 0.561494 0.569540
Si Si3 0.808546 0.560028 0.431043
Si Si4 0.059806 0.247564 0.430527
Si Si5 0.101084 0.368497 0.430721
Si Si6 0.597873 0.635637 0.928690
Si Si7 0.000000 0.561160 0.570119
O O1 0.796150 0.051000 0.750000
O O2 0.749154 0.076490 0.492925
O O3 0.846002 0.107747 0.531201
O O4 0.825220 0.000000 0.500000
O O5 0.500000 0.500000 0.500000
O O6 0.500000 0.555240 0.750000
O O7 0.448519 0.594867 0.510346
O O8 0.827657 0.500000 0.500000
O O9 0.807142 0.554556 0.250000
O O10 0.847353 0.610004 0.481386
O O11 0.056088 0.245981 0.250000
O O12 0.089567 0.304436 0.482934
O O13 0.094856 0.195653 0.488558
O O14 0.000000 0.245406 0.498709
O O15 0.110332 0.373254 0.250000
O O16 0.051646 0.405769 0.485970
O O17 0.591020 0.646008 0.750000
O O18 0.000000 0.500000 0.500000
O O19 0.000000 0.556176 0.750000
#
# Coordination Sequence:
#
# PCOD8258532 Si02
#       7
#    16   8  16  16  16  16   8
#     4  10  20  36  58  83 111 147 185 227 279 330
#     4  10  20  33  50  78 112 143 175 222 275 326
#     4  11  22  37  58  84 112 146 185 227 278 331
#     4  10  20  36  58  82 109 148 189 225 273 327
#     4  10  20  37  57  80 112 145 183 229 273 326
#     4  10  21  36  55  80 113 146 182 227 277 328
#     4  10  20  33  52  78 110 141 173 218 271 324
#
# _framework density 18.383865
#
# number of rings (size 3 to 8) (size 9 to 14) (size 15 to 20)
#    0.000    1.833    1.667    4.000    0.000    4.667 
#    0.000    0.833    0.000    0.000    0.000    0.000 
#    0.000    0.000    0.000    0.000    0.000    0.000 
#
# Total GULP energy -595357.287793 kJ/mol
# GULP energy per Si atom -12403.276829 kJ/mol
# Density = 1.834202 g / cm^3
# Si number density = 18.383865 Si / 1000 Ang^3
#
#
#
# Elastic Constant Matrix: (Units=GPa)
#
#
# Indices 1 2 3 4 5 6 
#
# 1 117.0200 83.6411 47.6017 0.0000 0.0000 0.0000
# 2 83.6411 171.5514 50.6844 0.0000 0.0000 0.0000
# 3 47.6017 50.6844 69.9134 0.0000 0.0000 0.0000
# 4 0.0000 0.0000 0.0000 33.0420 0.0000 0.0000
# 5 0.0000 0.0000 0.0000 0.0000 20.7276 0.0000
# 6 0.0000 0.0000 0.0000 0.0000 0.0000 25.1996
#
#
#
# Elastic Compliance Matrix: (Units=1/GPa)
#
#
# Indices 1 2 3 4 5 6 
#
# 1 0.014992 -0.005464 -0.006246 0.000000 0.000000 0.000000
# 2 -0.005464 0.009409 -0.003101 0.000000 0.000000 0.000000
# 3 -0.006246 -0.003101 0.020805 0.000000 0.000000 0.000000
# 4 0.000000 0.000000 0.000000 0.030264 0.000000 0.000000
# 5 0.000000 0.000000 0.000000 0.000000 0.048245 0.000000
# 6 0.000000 0.000000 0.000000 0.000000 0.000000 0.039683
#
#
# Mechanical properties :
#
#
# Convention : Reuss Voigt Hill
#
# Bulk Modulus (GPa) = 64.17304 80.25992 72.21648
# Shear Modulus (GPa) = 25.22506 27.56434 26.39470
#
# Velocity S-wave (km/s) = 3.70825 3.87638 3.79324
# Velocity P-wave (km/s) = 7.30191 7.98672 7.65198
#
# Compressibility (1/GPa) = 0.01558287
#
# Stress axis : x y z
#
# Youngs Moduli (GPa) = 66.70298 106.27701 48.06634
#
# Poissons Ratio (x) = 0.58069 0.30024
# Poissons Ratio (y) = 0.36446 0.14906
# Poissons Ratio (z) = 0.41665 0.32959
#
# Static dielectric constant tensor:
#      x y z
#    x 3.461770 0.000000 0.000000 
#    y 0.000000 3.465290 0.000000 
#    z 0.000000 0.000000 3.269930 
# 
# 
# High freq. dielectric constant tensor:
#      x y z
#    x 1.717180 0.000000 0.000000 
#    y 0.000000 1.715160 0.000000 
#    z 0.000000 0.000000 1.708720 
# 
# From -- ./inp_files/10513.got.cif
#   From: 2010.03.12/outbox.cif.g09.slc.cpg/sg63_6_cif.got.tgz:10513.got - 2010.04.10 19:34:48.
