data_PCOD8259815
_publ_section_title
;
Structure prediction by ZEFSAII (Michael W. Deem and Ramdas Pophale) SiO2 
 PCOD8259815
Probable space group: C M C M
;
_chemical_formula_sum "Si O2"
_cell_formula_units_Z 64
_cell_length_a 15.460341
_cell_length_b 11.828253
_cell_length_c 15.264338
_cell_angle_alpha 90.000000
_cell_angle_beta 90.000000
_cell_angle_gamma 90.000000
_cell_volume 2791.371552
_symmetry_space_group_name_H-M "C M C M"
_symmetry_group_IT_number 63
_symmetry_cell_setting 'orthorhombic'
loop_
_space_group_symop_operation_xyz
x,y,z
-x,-y,1/2+z
x,-y,-z
-x,y,1/2-z
-x,-y,-z
x,y,1/2-z
-x,y,z
x,-y,1/2+z
1/2+x,1/2+y,z
1/2-x,1/2-y,1/2+z
1/2+x,1/2-y,-z
1/2-x,1/2+y,1/2-z
1/2-x,1/2-y,-z
1/2+x,1/2+y,1/2-z
1/2-x,1/2+y,z
1/2+x,1/2-y,1/2+z
loop_
_atom_site_type_symbol
_atom_site_label
_atom_site_fract_x
_atom_site_fract_y
_atom_site_fract_z
Si Si1 0.140660 0.019136 0.151302
Si Si2 0.900076 0.223791 0.851122
Si Si3 0.170960 0.447342 0.594700
Si Si4 0.000000 0.192426 0.354211
Si Si5 0.000000 0.445795 0.403306
O O1 0.107139 0.006515 0.250000
O O2 0.118437 0.899214 0.105827
O O3 0.242722 0.039125 0.150725
O O4 0.084901 0.123289 0.112736
O O5 0.867850 0.230468 0.750000
O O6 0.848397 0.313877 0.910118
O O7 0.000000 0.254111 0.857465
O O8 0.188438 0.500000 0.500000
O O9 0.088999 0.510138 0.642171
O O10 0.000000 0.310426 0.405950
O O11 0.000000 0.217643 0.250000
O O12 0.000000 0.500000 0.500000
#
# Coordination Sequence:
#
# PCOD8259815 Si02
#       5
#    16  16  16   8   8
#     4  10  22  42  66  99 129 160 212 271 324 382
#     4  10  20  39  66  90 123 168 215 267 323 380
#     4  11  24  42  61  91 131 176 215 258 312 387
#     4  10  22  43  71  98 129 164 211 269 326 378
#     4  10  24  45  60  90 133 175 212 261 313 384
#
# _framework density 22.927796000000001
#
# number of rings (size 3 to 8) (size 9 to 14) (size 15 to 20)
#    0.000    1.750    2.500    0.750    3.500    3.000 
#    4.500    0.625    0.000    0.000    0.000    0.000 
#    0.000    0.000    0.000    0.000    0.000    0.000 
#
# Total GULP energy -396676.093060 kJ/mol
# GULP energy per Si atom -12396.127908 kJ/mol
# Density = 2.287561 g / cm^3
# Si number density = 22.927796 Si / 1000 Ang^3
#
#
#
# Elastic Constant Matrix: (Units=GPa)
#
#
# Indices 1 2 3 4 5 6 
#
# 1 162.1731 63.6906 14.3153 0.0000 0.0000 0.0000
# 2 63.6906 219.7679 36.5821 0.0000 0.0000 0.0000
# 3 14.3153 36.5821 38.7919 0.0000 0.0000 0.0000
# 4 0.0000 0.0000 0.0000 -22.6057 0.0000 0.0000
# 5 0.0000 0.0000 0.0000 0.0000 16.3557 0.0000
# 6 0.0000 0.0000 0.0000 0.0000 0.0000 37.0134
#
#
#
# Elastic Compliance Matrix: (Units=1/GPa)
#
#
# Indices 1 2 3 4 5 6 
#
# 1 0.006979 -0.001891 -0.000792 0.000000 0.000000 0.000000
# 2 -0.001891 0.005910 -0.004875 0.000000 0.000000 0.000000
# 3 -0.000792 -0.004875 0.030669 0.000000 0.000000 0.000000
# 4 0.000000 0.000000 0.000000 -0.044237 0.000000 0.000000
# 5 0.000000 0.000000 0.000000 0.000000 0.061141 0.000000
# 6 0.000000 0.000000 0.000000 0.000000 0.000000 0.027017
#
#
# Mechanical properties :
#
#
# Convention : Reuss Voigt Hill
#
# Bulk Modulus (GPa) = 35.16142 72.21210 53.68676
# Shear Modulus (GPa) = 44.61280 26.56234 35.58757
#
# Velocity S-wave (km/s) = 4.41590 3.40740 3.94402
# Velocity P-wave (km/s) = 6.43189 6.85888 6.64882
#
# Compressibility (1/GPa) = 0.02844026
#
# Stress axis : x y z
#
# Youngs Moduli (GPa) = 143.29338 169.21326 32.60653
#
# Poissons Ratio (x) = 0.31991 0.02584
# Poissons Ratio (y) = 0.27091 0.15897
# Poissons Ratio (z) = 0.11356 0.82498
#
# Static dielectric constant tensor:
#      x y z
#    x 4.418460 0.000000 0.000000 
#    y 0.000000 4.296190 0.000000 
#    z 0.000000 0.000000 3.608240 
# 
# 
# High freq. dielectric constant tensor:
#      x y z
#    x 1.915980 0.000000 0.000000 
#    y 0.000000 1.921470 0.000000 
#    z 0.000000 0.000000 1.864610 
# 
# From -- ./inp_files/43471.got.cif
#   From: 2010.03.12/outbox.cif.g09.slc.cpg/sg63_22_cif.got.tgz:43471.got - 2010.04.10 19:34:48.
