data_PCOD8259477
_publ_section_title
;
Structure prediction by ZEFSAII (Michael W. Deem and Ramdas Pophale) SiO2 
 PCOD8259477
Probable space group: C M C M
;
_chemical_formula_sum "Si O2"
_cell_formula_units_Z 72
_cell_length_a 28.904377
_cell_length_b 13.955533
_cell_length_c 9.074092
_cell_angle_alpha 90.000000
_cell_angle_beta 90.000000
_cell_angle_gamma 90.000000
_cell_volume 3660.270817
_symmetry_space_group_name_H-M "C M C M"
_symmetry_group_IT_number 63
_symmetry_cell_setting 'orthorhombic'
loop_
_space_group_symop_operation_xyz
x,y,z
-x,-y,1/2+z
x,-y,-z
-x,y,1/2-z
-x,-y,-z
x,y,1/2-z
-x,y,z
x,-y,1/2+z
1/2+x,1/2+y,z
1/2-x,1/2-y,1/2+z
1/2+x,1/2-y,-z
1/2-x,1/2+y,1/2-z
1/2-x,1/2-y,-z
1/2+x,1/2+y,1/2-z
1/2-x,1/2+y,z
1/2+x,1/2-y,1/2+z
loop_
_atom_site_type_symbol
_atom_site_label
_atom_site_fract_x
_atom_site_fract_y
_atom_site_fract_z
Si Si1 0.184789 0.722298 0.079400
Si Si2 0.726642 0.397775 0.923569
Si Si3 0.000000 0.398856 0.075995
Si Si4 0.448034 0.589793 0.918685
Si Si5 0.917738 0.296423 0.581341
O O1 0.189127 0.752692 0.250000
O O2 0.222120 0.641333 0.037615
O O3 0.134961 0.672731 0.048192
O O4 0.190618 0.818764 0.983780
O O5 0.719123 0.410280 0.750000
O O6 0.718848 0.500000 0.000000
O O7 0.000000 0.410483 0.250000
O O8 0.000000 0.500000 0.000000
O O9 0.953283 0.345607 0.028756
O O10 0.449816 0.561551 0.750000
O O11 0.500000 0.608638 0.979316
O O12 0.417693 0.683005 0.947192
O O13 0.424432 0.500000 0.000000
O O14 0.932572 0.319800 0.750000
#
# Coordination Sequence:
#
# PCOD8259477 Si02
#       5
#    16  16   8  16  16
#     4   9  20  37  59  86 114 149 190 237 289 342
#     4  10  20  36  58  84 116 151 188 234 288 346
#     4  12  26  42  61  84 113 152 197 240 286 336
#     4   9  17  30  50  75 105 142 178 220 271 324
#     4  10  20  39  61  83 115 150 191 240 290 336
#
# _framework density 19.670676
#
# number of rings (size 3 to 8) (size 9 to 14) (size 15 to 20)
#    0.000    2.222    1.111    1.667    0.000    4.444 
#    0.000    4.444    0.000    0.000    0.000    0.000 
#    0.000    0.000    0.000    0.000    0.000    0.000 
#
# Total GULP energy -446376.861239 kJ/mol
# GULP energy per Si atom -12399.357257 kJ/mol
# Density = 1.962590 g / cm^3
# Si number density = 19.670676 Si / 1000 Ang^3
#
#
#
# Elastic Constant Matrix: (Units=GPa)
#
#
# Indices 1 2 3 4 5 6 
#
# 1 93.5329 23.3027 41.2149 0.0000 0.0000 0.0000
# 2 23.3027 86.5748 55.8844 0.0000 0.0000 0.0000
# 3 41.2149 55.8844 106.3530 0.0000 0.0000 0.0000
# 4 0.0000 0.0000 0.0000 36.2836 0.0000 0.0000
# 5 0.0000 0.0000 0.0000 0.0000 22.3896 0.0000
# 6 0.0000 0.0000 0.0000 0.0000 0.0000 14.5595
#
#
#
# Elastic Compliance Matrix: (Units=1/GPa)
#
#
# Indices 1 2 3 4 5 6 
#
# 1 0.012901 -0.000371 -0.004804 0.000000 0.000000 0.000000
# 2 -0.000371 0.017490 -0.009047 0.000000 0.000000 0.000000
# 3 -0.004804 -0.009047 0.016018 0.000000 0.000000 0.000000
# 4 0.000000 0.000000 0.000000 0.027561 0.000000 0.000000
# 5 0.000000 0.000000 0.000000 0.000000 0.044664 0.000000
# 6 0.000000 0.000000 0.000000 0.000000 0.000000 0.068684
#
#
# Mechanical properties :
#
#
# Convention : Reuss Voigt Hill
#
# Bulk Modulus (GPa) = 55.66412 58.58497 57.12454
# Shear Modulus (GPa) = 22.54790 25.71711 24.13251
#
# Velocity S-wave (km/s) = 3.38933 3.61970 3.50641
# Velocity P-wave (km/s) = 6.60880 6.87875 6.74512
#
# Compressibility (1/GPa) = 0.01796489
#
# Stress axis : x y z
#
# Youngs Moduli (GPa) = 77.51357 57.17476 62.42906
#
# Poissons Ratio (x) = 0.02122 0.29994
# Poissons Ratio (y) = 0.02877 0.56477
# Poissons Ratio (z) = 0.37241 0.51724
#
# Static dielectric constant tensor:
#      x y z
#    x 3.590510 0.000000 0.000000 
#    y 0.000000 3.543960 0.000000 
#    z 0.000000 0.000000 3.539530 
# 
# 
# High freq. dielectric constant tensor:
#      x y z
#    x 1.766440 0.000000 0.000000 
#    y 0.000000 1.761140 0.000000 
#    z 0.000000 0.000000 1.762110 
# 
# From -- ./inp_files/13895.got.cif
#   From: 2010.03.12/outbox.cif.g09.slc.cpg/sg63_7_cif.got.tgz:13895.got - 2010.04.10 19:34:48.
