data_PCOD8259628
_publ_section_title
;
Structure prediction by ZEFSAII (Michael W. Deem and Ramdas Pophale) SiO2 
 PCOD8259628
Probable space group: C M C M
;
_chemical_formula_sum "Si O2"
_cell_formula_units_Z 80
_cell_length_a 9.302672
_cell_length_b 24.572423
_cell_length_c 18.280168
_cell_angle_alpha 90.000000
_cell_angle_beta 90.000000
_cell_angle_gamma 90.000000
_cell_volume 4178.648822
_symmetry_space_group_name_H-M "C M C M"
_symmetry_group_IT_number 63
_symmetry_cell_setting 'orthorhombic'
loop_
_space_group_symop_operation_xyz
x,y,z
-x,-y,1/2+z
x,-y,-z
-x,y,1/2-z
-x,-y,-z
x,y,1/2-z
-x,y,z
x,-y,1/2+z
1/2+x,1/2+y,z
1/2-x,1/2-y,1/2+z
1/2+x,1/2-y,-z
1/2-x,1/2+y,1/2-z
1/2-x,1/2-y,-z
1/2+x,1/2+y,1/2-z
1/2-x,1/2+y,z
1/2+x,1/2-y,1/2+z
loop_
_atom_site_type_symbol
_atom_site_label
_atom_site_fract_x
_atom_site_fract_y
_atom_site_fract_z
Si Si1 0.832105 0.640331 0.082649
Si Si2 0.164739 0.969927 0.573853
Si Si3 0.166145 0.770184 0.665046
Si Si4 0.833214 0.663084 0.917455
Si Si5 0.334637 0.427390 0.332560
O O1 0.767301 0.580503 0.088334
O O2 0.758605 0.677577 0.143651
O O3 0.000000 0.636418 0.099678
O O4 0.801904 0.666650 0.003543
O O5 0.000000 0.949801 0.566466
O O6 0.213641 0.000000 0.500000
O O7 0.183865 0.010562 0.641804
O O8 0.189108 0.757334 0.750000
O O9 0.223340 0.718248 0.619866
O O10 0.000000 0.782257 0.646818
O O11 0.752540 0.611466 0.885517
O O12 0.000000 0.654610 0.900158
O O13 0.276110 0.422704 0.250000
O O14 0.500000 0.409597 0.337254
#
# Coordination Sequence:
#
# PCOD8259628 Si02
#       5
#    16  16  16  16  16
#     4  11  23  37  59  89 118 149 191 242 291 342
#     4  10  20  37  59  82 113 155 195 232 280 342
#     4  10  22  40  60  82 113 155 197 235 284 348
#     4  10  21  38  60  86 116 151 190 234 288 349
#     4  10  21  36  57  86 115 147 192 242 289 338
#
# _framework density 19.144945
#
# number of rings (size 3 to 8) (size 9 to 14) (size 15 to 20)
#    0.000    1.800    2.000    1.800    0.000    5.200 
#    0.000    2.000    0.000    0.000    0.000    0.000 
#    0.000    0.000    0.000    0.000    0.000    0.000 
#
# Total GULP energy -496227.604474 kJ/mol
# GULP energy per Si atom -12405.690112 kJ/mol
# Density = 1.910137 g / cm^3
# Si number density = 19.144945 Si / 1000 Ang^3
#
#
#
# Elastic Constant Matrix: (Units=GPa)
#
#
# Indices 1 2 3 4 5 6 
#
# 1 67.7065 47.9161 25.4008 0.0000 0.0000 0.0000
# 2 47.9161 104.9422 18.3600 0.0000 0.0000 0.0000
# 3 25.4008 18.3600 55.1321 0.0000 0.0000 0.0000
# 4 0.0000 0.0000 0.0000 28.5933 0.0000 0.0000
# 5 0.0000 0.0000 0.0000 0.0000 27.6410 0.0000
# 6 0.0000 0.0000 0.0000 0.0000 0.0000 30.3331
#
#
#
# Elastic Compliance Matrix: (Units=1/GPa)
#
#
# Indices 1 2 3 4 5 6 
#
# 1 0.024845 -0.009919 -0.008143 0.000000 0.000000 0.000000
# 2 -0.009919 0.014079 -0.000118 0.000000 0.000000 0.000000
# 3 -0.008143 -0.000118 0.021930 0.000000 0.000000 0.000000
# 4 0.000000 0.000000 0.000000 0.034973 0.000000 0.000000
# 5 0.000000 0.000000 0.000000 0.000000 0.036178 0.000000
# 6 0.000000 0.000000 0.000000 0.000000 0.000000 0.032967
#
#
# Mechanical properties :
#
#
# Convention : Reuss Voigt Hill
#
# Bulk Modulus (GPa) = 40.83127 45.68161 43.25644
# Shear Modulus (GPa) = 23.86668 26.38707 25.12688
#
# Velocity S-wave (km/s) = 3.53460 3.71655 3.62671
# Velocity P-wave (km/s) = 6.16697 6.50613 6.33882
#
# Compressibility (1/GPa) = 0.02449104
#
# Stress axis : x y z
#
# Youngs Moduli (GPa) = 40.25033 71.02859 45.60059
#
# Poissons Ratio (x) = 0.70455 0.37134
# Poissons Ratio (y) = 0.39925 0.00540
# Poissons Ratio (z) = 0.32777 0.00842
#
# Static dielectric constant tensor:
#      x y z
#    x 3.449690 0.000000 0.000000 
#    y 0.000000 3.441000 0.000000 
#    z 0.000000 0.000000 3.576430 
# 
# 
# High freq. dielectric constant tensor:
#      x y z
#    x 1.739300 0.000000 0.000000 
#    y 0.000000 1.749070 0.000000 
#    z 0.000000 0.000000 1.752100 
# 
# From -- ./inp_files/40491.got.cif
#   From: 2010.03.12/outbox.cif.g09.slc.cpg/sg63_21_cif.got.tgz:40491.got - 2010.04.10 19:34:48.
