data_PCOD8259543
_publ_section_title
;
Structure prediction by ZEFSAII (Michael W. Deem and Ramdas Pophale) SiO2 
 PCOD8259543
Probable space group: C M C M
;
_chemical_formula_sum "Si O2"
_cell_formula_units_Z 96
_cell_length_a 14.262128
_cell_length_b 14.128636
_cell_length_c 21.068099
_cell_angle_alpha 90.000000
_cell_angle_beta 90.000000
_cell_angle_gamma 90.000000
_cell_volume 4245.314966
_symmetry_space_group_name_H-M "C M C M"
_symmetry_group_IT_number 63
_symmetry_cell_setting 'orthorhombic'
loop_
_space_group_symop_operation_xyz
x,y,z
-x,-y,1/2+z
x,-y,-z
-x,y,1/2-z
-x,-y,-z
x,y,1/2-z
-x,y,z
x,-y,1/2+z
1/2+x,1/2+y,z
1/2-x,1/2-y,1/2+z
1/2+x,1/2-y,-z
1/2-x,1/2+y,1/2-z
1/2-x,1/2-y,-z
1/2+x,1/2+y,1/2-z
1/2-x,1/2+y,z
1/2+x,1/2-y,1/2+z
loop_
_atom_site_type_symbol
_atom_site_label
_atom_site_fract_x
_atom_site_fract_y
_atom_site_fract_z
Si Si1 0.651335 0.264714 0.966535
Si Si2 0.606193 0.946074 0.436979
Si Si3 0.889810 0.732196 0.321666
Si Si4 0.110272 0.925010 0.876257
Si Si5 0.101493 0.121657 0.581872
Si Si6 0.293757 0.964646 0.679326
O O1 0.604771 0.164957 0.952083
O O2 0.650881 0.326652 0.902889
O O3 0.750000 0.250000 0.000000
O O4 0.590541 0.328324 0.014323
O O5 0.500000 0.978877 0.421726
O O6 0.644063 0.000000 0.500000
O O7 0.672534 0.963150 0.375880
O O8 0.868291 0.764168 0.250000
O O9 0.842160 0.811535 0.368035
O O10 0.842746 0.633413 0.338466
O O11 0.000000 0.718274 0.334161
O O12 0.180401 0.950168 0.818182
O O13 0.000000 0.916124 0.856892
O O14 0.133529 0.012435 0.924873
O O15 0.000000 0.114327 0.614281
O O16 0.324449 0.999367 0.750000
#
# Coordination Sequence:
#
# PCOD8259543 Si02
#       6
#    16  16  16  16  16  16
#     4  12  23  38  62  91 128 169 213 261 320 393
#     4  11  23  40  66 100 135 170 213 270 333 393
#     4   9  18  35  61  91 121 156 205 266 326 384
#     4  11  24  41  61  89 126 168 216 270 328 388
#     4  10  20  36  60  87 118 158 203 254 315 380
#     4  11  24  42  64  91 126 171 220 269 326 394
#
# _framework density 22.613164000000001
#
# number of rings (size 3 to 8) (size 9 to 14) (size 15 to 20)
#    0.000    1.333    0.000    6.500    0.000    6.000 
#    0.000    4.167    0.000    2.000    0.000    0.000 
#    0.000    0.000    0.000    0.000    0.000    0.000 
#
# Total GULP energy -594639.863303 kJ/mol
# GULP energy per Si atom -12388.330485 kJ/mol
# Density = 2.256170 g / cm^3
# Si number density = 22.613164 Si / 1000 Ang^3
#
#
#
# Elastic Constant Matrix: (Units=GPa)
#
#
# Indices 1 2 3 4 5 6 
#
# 1 108.5122 10.1786 16.4815 0.0000 0.0000 0.0000
# 2 10.1786 132.2237 29.8045 0.0000 0.0000 0.0000
# 3 16.4815 29.8045 87.1612 0.0000 0.0000 0.0000
# 4 0.0000 0.0000 0.0000 24.4526 0.0000 0.0000
# 5 0.0000 0.0000 0.0000 0.0000 27.8553 0.0000
# 6 0.0000 0.0000 0.0000 0.0000 0.0000 21.6434
#
#
#
# Elastic Compliance Matrix: (Units=1/GPa)
#
#
# Indices 1 2 3 4 5 6 
#
# 1 0.009503 -0.000354 -0.001676 0.000000 0.000000 0.000000
# 2 -0.000354 0.008208 -0.002740 0.000000 0.000000 0.000000
# 3 -0.001676 -0.002740 0.012727 0.000000 0.000000 0.000000
# 4 0.000000 0.000000 0.000000 0.040896 0.000000 0.000000
# 5 0.000000 0.000000 0.000000 0.000000 0.035900 0.000000
# 6 0.000000 0.000000 0.000000 0.000000 0.000000 0.046203
#
#
# Mechanical properties :
#
#
# Convention : Reuss Voigt Hill
#
# Bulk Modulus (GPa) = 47.84971 48.98069 48.41520
# Shear Modulus (GPa) = 29.42183 32.88575 31.15379
#
# Velocity S-wave (km/s) = 3.61098 3.81763 3.71574
# Velocity P-wave (km/s) = 6.21222 6.41402 6.31393
#
# Compressibility (1/GPa) = 0.02089877
#
# Stress axis : x y z
#
# Youngs Moduli (GPa) = 105.22654 121.83636 78.57463
#
# Poissons Ratio (x) = 0.04310 0.13169
# Poissons Ratio (y) = 0.03723 0.21527
# Poissons Ratio (z) = 0.17636 0.33380
#
# Static dielectric constant tensor:
#      x y z
#    x 4.117070 0.000000 0.000000 
#    y 0.000000 4.265450 0.000000 
#    z 0.000000 0.000000 3.925280 
# 
# 
# High freq. dielectric constant tensor:
#      x y z
#    x 1.894910 0.000000 0.000000 
#    y 0.000000 1.901200 0.000000 
#    z 0.000000 0.000000 1.872090 
# 
# From -- ./inp_files/54177.got.cif
#   From: 2010.03.12/outbox.cif.g09.slc.cpg/sg63_28_cif.got.tgz:54177.got - 2010.04.10 19:34:48.
