data_PCOD8259874
_publ_section_title
;
Structure prediction by ZEFSAII (Michael W. Deem and Ramdas Pophale) SiO2 
 PCOD8259874
Probable space group: C M C M
;
_chemical_formula_sum "Si O2"
_cell_formula_units_Z 104
_cell_length_a 24.565499
_cell_length_b 9.706763
_cell_length_c 23.246981
_cell_angle_alpha 90.000000
_cell_angle_beta 90.000000
_cell_angle_gamma 90.000000
_cell_volume 5543.276950
_symmetry_space_group_name_H-M "C M C M"
_symmetry_group_IT_number 63
_symmetry_cell_setting 'orthorhombic'
loop_
_space_group_symop_operation_xyz
x,y,z
-x,-y,1/2+z
x,-y,-z
-x,y,1/2-z
-x,-y,-z
x,y,1/2-z
-x,y,z
x,-y,1/2+z
1/2+x,1/2+y,z
1/2-x,1/2-y,1/2+z
1/2+x,1/2-y,-z
1/2-x,1/2+y,1/2-z
1/2-x,1/2-y,-z
1/2+x,1/2+y,1/2-z
1/2-x,1/2+y,z
1/2+x,1/2-y,1/2+z
loop_
_atom_site_type_symbol
_atom_site_label
_atom_site_fract_x
_atom_site_fract_y
_atom_site_fract_z
Si Si1 0.677529 0.348950 0.750000
Si Si2 0.936317 0.778054 0.135712
Si Si3 0.724436 0.256397 0.436299
Si Si4 0.351056 0.052073 0.372934
Si Si5 0.665831 0.248557 0.626776
Si Si6 0.804876 0.382811 0.750000
Si Si7 0.118954 0.134289 0.750000
Si Si8 0.867181 0.023336 0.565285
O O1 0.662024 0.259189 0.695091
O O2 0.740234 0.391555 0.750000
O O3 0.639186 0.480315 0.750000
O O4 0.908522 0.629887 0.126567
O O5 0.919584 0.839098 0.196520
O O6 0.917108 0.888394 0.088900
O O7 0.000000 0.755143 0.130911
O O8 0.750000 0.250000 0.500000
O O9 0.688024 0.123445 0.420634
O O10 0.771055 0.260843 0.389153
O O11 0.689826 0.395800 0.428078
O O12 0.325785 0.046323 0.308662
O O13 0.362198 0.894915 0.392618
O O14 0.636539 0.376465 0.596466
O O15 0.826607 0.226452 0.750000
O O16 0.881734 0.000000 0.500000
#
# Coordination Sequence:
#
# PCOD8259874 Si02
#       8
#     8  16  16  16  16   8   8  16
#     4  12  23  33  57  91 133 154 186 244 304 359
#     4  10  22  44  66  82 110 156 212 266 311 362
#     4  11  22  37  56  86 128 171 202 230 285 370
#     4  10  23  37  57  89 118 159 208 243 306 362
#     4  12  23  36  58  89 132 160 192 248 304 368
#     4  10  21  33  54  85 126 163 192 231 295 373
#     4  10  21  38  61  90 117 159 207 243 299 380
#     4  11  23  40  59  92 122 159 211 249 299 368
#
# _framework density 18.761465999999999
#
# number of rings (size 3 to 8) (size 9 to 14) (size 15 to 20)
#    0.000    1.231    4.615    1.615    2.154    0.308 
#    0.000    0.769    0.000    0.923    0.000    0.000 
#    0.000    0.000    0.000    0.000    0.000    0.000 
#
# Total GULP energy -644833.530644 kJ/mol
# GULP energy per Si atom -12400.644820 kJ/mol
# Density = 1.871876 g / cm^3
# Si number density = 18.761466 Si / 1000 Ang^3
#
#
#
# Elastic Constant Matrix: (Units=GPa)
#
#
# Indices 1 2 3 4 5 6 
#
# 1 126.7615 61.7022 36.4239 0.0000 0.0000 0.0000
# 2 61.7022 161.6737 48.9354 0.0000 0.0000 0.0000
# 3 36.4239 48.9354 121.9075 0.0000 0.0000 0.0000
# 4 0.0000 0.0000 0.0000 15.9306 0.0000 0.0000
# 5 0.0000 0.0000 0.0000 0.0000 18.0617 0.0000
# 6 0.0000 0.0000 0.0000 0.0000 0.0000 14.1779
#
#
#
# Elastic Compliance Matrix: (Units=1/GPa)
#
#
# Indices 1 2 3 4 5 6 
#
# 1 0.009973 -0.003306 -0.001653 0.000000 0.000000 0.000000
# 2 -0.003306 0.008137 -0.002278 0.000000 0.000000 0.000000
# 3 -0.001653 -0.002278 0.009611 0.000000 0.000000 0.000000
# 4 0.000000 0.000000 0.000000 0.062772 0.000000 0.000000
# 5 0.000000 0.000000 0.000000 0.000000 0.055366 0.000000
# 6 0.000000 0.000000 0.000000 0.000000 0.000000 0.070532
#
#
# Mechanical properties :
#
#
# Convention : Reuss Voigt Hill
#
# Bulk Modulus (GPa) = 75.48974 78.27398 76.88186
# Shear Modulus (GPa) = 21.25123 27.18613 24.21868
#
# Velocity S-wave (km/s) = 3.36922 3.81076 3.59677
# Velocity P-wave (km/s) = 7.44711 7.82136 7.63653
#
# Compressibility (1/GPa) = 0.01324683
#
# Stress axis : x y z
#
# Youngs Moduli (GPa) = 100.27187 122.90148 104.04395
#
# Poissons Ratio (x) = 0.40630 0.17195
# Poissons Ratio (y) = 0.33149 0.23705
# Poissons Ratio (z) = 0.16572 0.28002
#
# Static dielectric constant tensor:
#      x y z
#    x 3.122860 0.000000 0.000000 
#    y 0.000000 3.586850 0.000000 
#    z 0.000000 0.000000 3.684310 
# 
# 
# High freq. dielectric constant tensor:
#      x y z
#    x 1.693330 0.000000 0.000000 
#    y 0.000000 1.740230 0.000000 
#    z 0.000000 0.000000 1.745040 
# 
# From -- ./inp_files/65459.got.cif
#   From: 2010.03.12/outbox.cif.g09.slc.cpg/sg63_33_cif.got.tgz:65459.got - 2010.04.10 19:34:48.
