data_PCOD8259177
_publ_section_title
;
Structure prediction by ZEFSAII (Michael W. Deem and Ramdas Pophale) SiO2 
 PCOD8259177
Probable space group: C M C M
;
_chemical_formula_sum "Si O2"
_cell_formula_units_Z 96
_cell_length_a 9.468444
_cell_length_b 20.400228
_cell_length_c 26.574845
_cell_angle_alpha 90.000000
_cell_angle_beta 90.000000
_cell_angle_gamma 90.000000
_cell_volume 5133.154976
_symmetry_space_group_name_H-M "C M C M"
_symmetry_group_IT_number 63
_symmetry_cell_setting 'orthorhombic'
loop_
_space_group_symop_operation_xyz
x,y,z
-x,-y,1/2+z
x,-y,-z
-x,y,1/2-z
-x,-y,-z
x,y,1/2-z
-x,y,z
x,-y,1/2+z
1/2+x,1/2+y,z
1/2-x,1/2-y,1/2+z
1/2+x,1/2-y,-z
1/2-x,1/2+y,1/2-z
1/2-x,1/2-y,-z
1/2+x,1/2+y,1/2-z
1/2-x,1/2+y,z
1/2+x,1/2-y,1/2+z
loop_
_atom_site_type_symbol
_atom_site_label
_atom_site_fract_x
_atom_site_fract_y
_atom_site_fract_z
Si Si1 0.661741 0.064066 0.307575
Si Si2 0.333552 0.327143 0.862971
Si Si3 0.162980 0.431228 0.136758
Si Si4 0.164841 0.058500 0.536354
Si Si5 0.164346 0.809756 0.521958
Si Si6 0.332057 0.802838 0.306577
O O1 0.709330 0.071387 0.250000
O O2 0.500000 0.085983 0.314988
O O3 0.759823 0.108811 0.341635
O O4 0.681774 0.988746 0.322929
O O5 0.500000 0.336458 0.856428
O O6 0.289584 0.320887 0.920796
O O7 0.278561 0.263090 0.833540
O O8 0.250381 0.448428 0.087540
O O9 0.224028 0.365136 0.162124
O O10 0.000000 0.422062 0.121156
O O11 0.203312 0.126333 0.509709
O O12 0.000000 0.053048 0.549051
O O13 0.212762 0.000000 0.500000
O O14 0.250000 0.750000 0.500000
O O15 0.000000 0.792477 0.518530
O O16 0.270132 0.804572 0.250000
O O17 0.500000 0.805081 0.304778
#
# Coordination Sequence:
#
# PCOD8259177 Si02
#       6
#    16  16  16  16  16  16
#     4  10  21  36  54  79 110 140 171 214 269 320
#     4  10  20  35  56  80 105 138 180 219 257 310
#     4  10  20  35  56  79 103 135 176 218 258 307
#     4  10  21  37  55  76 106 141 174 214 264 311
#     4  10  21  36  55  80 109 141 178 221 267 315
#     4   9  17  31  53  79 104 132 170 215 258 301
#
# _framework density 18.701948000000002
#
# number of rings (size 3 to 8) (size 9 to 14) (size 15 to 20)
#    0.000    2.167    0.000    3.000    0.000    8.000 
#    0.000    0.833    0.000    2.500    0.000    0.000 
#    0.000    0.000    0.000    0.000    0.000    0.000 
#
# Total GULP energy -595397.016646 kJ/mol
# GULP energy per Si atom -12404.104513 kJ/mol
# Density = 1.865938 g / cm^3
# Si number density = 18.701948 Si / 1000 Ang^3
#
#
#
# Elastic Constant Matrix: (Units=GPa)
#
#
# Indices 1 2 3 4 5 6 
#
# 1 36.6714 27.6983 36.3868 0.0000 0.0000 0.0000
# 2 27.6983 87.9517 20.6261 0.0000 0.0000 0.0000
# 3 36.3868 20.6261 112.7642 0.0000 0.0000 0.0000
# 4 0.0000 0.0000 0.0000 37.9571 0.0000 0.0000
# 5 0.0000 0.0000 0.0000 0.0000 22.9107 0.0000
# 6 0.0000 0.0000 0.0000 0.0000 0.0000 31.1655
#
#
#
# Elastic Compliance Matrix: (Units=1/GPa)
#
#
# Indices 1 2 3 4 5 6 
#
# 1 0.050839 -0.012709 -0.014080 0.000000 0.000000 0.000000
# 2 -0.012709 0.015056 0.001347 0.000000 0.000000 0.000000
# 3 -0.014080 0.001347 0.013165 0.000000 0.000000 0.000000
# 4 0.000000 0.000000 0.000000 0.026346 0.000000 0.000000
# 5 0.000000 0.000000 0.000000 0.000000 0.043648 0.000000
# 6 0.000000 0.000000 0.000000 0.000000 0.000000 0.032087
#
#
# Mechanical properties :
#
#
# Convention : Reuss Voigt Hill
#
# Bulk Modulus (GPa) = 35.49047 45.20107 40.34577
# Shear Modulus (GPa) = 20.71110 28.58507 24.64808
#
# Velocity S-wave (km/s) = 3.33142 3.91379 3.63429
# Velocity P-wave (km/s) = 5.81514 6.68171 6.26343
#
# Compressibility (1/GPa) = 0.02817658
#
# Stress axis : x y z
#
# Youngs Moduli (GPa) = 19.66993 66.41745 75.95832
#
# Poissons Ratio (x) = 0.84407 1.06951
# Poissons Ratio (y) = 0.24998 -0.10230
# Poissons Ratio (z) = 0.27696 -0.08945
#
# Static dielectric constant tensor:
#      x y z
#    x 3.179270 0.000000 0.000000 
#    y 0.000000 3.573010 0.000000 
#    z 0.000000 0.000000 3.548740 
# 
# 
# High freq. dielectric constant tensor:
#      x y z
#    x 1.698640 0.000000 0.000000 
#    y 0.000000 1.743340 0.000000 
#    z 0.000000 0.000000 1.742240 
# 
# From -- ./inp_files/66902.got.cif
#   From: 2010.03.12/outbox.cif.g09.slc.cpg/sg63_34_cif.got.tgz:66902.got - 2010.04.10 19:34:48.
