data_PCOD8259891
_publ_section_title
;
Structure prediction by ZEFSAII (Michael W. Deem and Ramdas Pophale) SiO2 
 PCOD8259891
Probable space group: C M C M
;
_chemical_formula_sum "Si O2"
_cell_formula_units_Z 96
_cell_length_a 23.443174
_cell_length_b 13.424073
_cell_length_c 17.035348
_cell_angle_alpha 90.000000
_cell_angle_beta 90.000000
_cell_angle_gamma 90.000000
_cell_volume 5361.073063
_symmetry_space_group_name_H-M "C M C M"
_symmetry_group_IT_number 63
_symmetry_cell_setting 'orthorhombic'
loop_
_space_group_symop_operation_xyz
x,y,z
-x,-y,1/2+z
x,-y,-z
-x,y,1/2-z
-x,-y,-z
x,y,1/2-z
-x,y,z
x,-y,1/2+z
1/2+x,1/2+y,z
1/2-x,1/2-y,1/2+z
1/2+x,1/2-y,-z
1/2-x,1/2+y,1/2-z
1/2-x,1/2-y,-z
1/2+x,1/2+y,1/2-z
1/2-x,1/2+y,z
1/2+x,1/2-y,1/2+z
loop_
_atom_site_type_symbol
_atom_site_label
_atom_site_fract_x
_atom_site_fract_y
_atom_site_fract_z
Si Si1 0.280271 0.461896 0.411900
Si Si2 0.564152 0.146267 0.069763
Si Si3 0.063899 0.419485 0.104365
Si Si4 0.840363 0.767422 0.156651
Si Si5 0.774124 0.163955 0.160549
Si Si6 0.178553 0.637900 0.660999
O O1 0.287375 0.500000 0.500000
O O2 0.320490 0.369767 0.386239
O O3 0.298618 0.558460 0.363871
O O4 0.213802 0.439581 0.392841
O O5 0.500000 0.188372 0.076384
O O6 0.603362 0.226955 0.113697
O O7 0.567512 0.038378 0.109264
O O8 0.580529 0.128716 0.979160
O O9 0.111097 0.380826 0.164587
O O10 0.000000 0.385762 0.128858
O O11 0.850936 0.786010 0.250000
O O12 0.792980 0.681707 0.143400
O O13 0.788242 0.174602 0.250000
O O14 0.809810 0.254204 0.121595
O O15 0.202905 0.629032 0.750000
#
# Coordination Sequence:
#
# PCOD8259891 Si02
#       6
#    16  16  16  16  16  16
#     4  11  23  33  53  82 107 142 181 225 270 324
#     4   9  19  34  54  80 108 140 174 217 272 318
#     4   9  19  34  54  80 112 141 172 219 267 320
#     4  10  21  36  56  79 110 144 181 226 270 325
#     4   9  19  35  51  73 108 142 170 214 270 317
#     4  10  21  34  53  78 108 144 179 218 266 325
#
# _framework density 17.906863999999999
#
# number of rings (size 3 to 8) (size 9 to 14) (size 15 to 20)
#    0.000    2.333    0.000    4.500    7.000    4.000 
#    0.000    1.667    0.000    1.500    0.000    2.333 
#    0.000    0.000    0.000    0.000    0.000    0.000 
#
# Total GULP energy -594682.014255 kJ/mol
# GULP energy per Si atom -12389.208630 kJ/mol
# Density = 1.786611 g / cm^3
# Si number density = 17.906864 Si / 1000 Ang^3
#
#
#
# Elastic Constant Matrix: (Units=GPa)
#
#
# Indices 1 2 3 4 5 6 
#
# 1 92.0693 41.3900 41.5072 0.0000 0.0000 0.0000
# 2 41.3900 102.8690 48.0545 0.0000 0.0000 0.0000
# 3 41.5072 48.0545 62.3718 0.0000 0.0000 0.0000
# 4 0.0000 0.0000 0.0000 31.5329 0.0000 0.0000
# 5 0.0000 0.0000 0.0000 0.0000 19.4442 0.0000
# 6 0.0000 0.0000 0.0000 0.0000 0.0000 29.4682
#
#
#
# Elastic Compliance Matrix: (Units=1/GPa)
#
#
# Indices 1 2 3 4 5 6 
#
# 1 0.015847 -0.002265 -0.008801 0.000000 0.000000 0.000000
# 2 -0.002265 0.015511 -0.010443 0.000000 0.000000 0.000000
# 3 -0.008801 -0.010443 0.029936 0.000000 0.000000 0.000000
# 4 0.000000 0.000000 0.000000 0.031713 0.000000 0.000000
# 5 0.000000 0.000000 0.000000 0.000000 0.051429 0.000000
# 6 0.000000 0.000000 0.000000 0.000000 0.000000 0.033935
#
#
# Mechanical properties :
#
#
# Convention : Reuss Voigt Hill
#
# Bulk Modulus (GPa) = 54.71740 57.69038 56.20389
# Shear Modulus (GPa) = 21.97986 24.51295 23.24641
#
# Velocity S-wave (km/s) = 3.50731 3.70390 3.60694
# Velocity P-wave (km/s) = 6.85745 7.11187 6.98582
#
# Compressibility (1/GPa) = 0.01827572
#
# Stress axis : x y z
#
# Youngs Moduli (GPa) = 63.10201 64.47113 33.40489
#
# Poissons Ratio (x) = 0.14602 0.29400
# Poissons Ratio (y) = 0.14292 0.34885
# Poissons Ratio (z) = 0.55537 0.67328
#
# Static dielectric constant tensor:
#      x y z
#    x 3.205330 0.000000 0.000000 
#    y 0.000000 2.790360 0.000000 
#    z 0.000000 0.000000 3.137800 
# 
# 
# High freq. dielectric constant tensor:
#      x y z
#    x 1.678310 0.000000 0.000000 
#    y 0.000000 1.688500 0.000000 
#    z 0.000000 0.000000 1.692590 
# 
# From -- ./inp_files/48059.got.cif
#   From: 2010.03.12/outbox.cif.g09.slc.cpg/sg63_25_cif.got.tgz:48059.got - 2010.04.10 19:34:48.
