data_PCOD8259024
_publ_section_title
;
Structure prediction by ZEFSAII (Michael W. Deem and Ramdas Pophale) SiO2 
 PCOD8259024
Probable space group: C M C M
;
_chemical_formula_sum "Si O2"
_cell_formula_units_Z 96
_cell_length_a 8.926601
_cell_length_b 20.343297
_cell_length_c 27.876530
_cell_angle_alpha 90.000000
_cell_angle_beta 90.000000
_cell_angle_gamma 90.000000
_cell_volume 5062.280150
_symmetry_space_group_name_H-M "C M C M"
_symmetry_group_IT_number 63
_symmetry_cell_setting 'orthorhombic'
loop_
_space_group_symop_operation_xyz
x,y,z
-x,-y,1/2+z
x,-y,-z
-x,y,1/2-z
-x,-y,-z
x,y,1/2-z
-x,y,z
x,-y,1/2+z
1/2+x,1/2+y,z
1/2-x,1/2-y,1/2+z
1/2+x,1/2-y,-z
1/2-x,1/2+y,1/2-z
1/2-x,1/2-y,-z
1/2+x,1/2+y,1/2-z
1/2-x,1/2+y,z
1/2+x,1/2-y,1/2+z
loop_
_atom_site_type_symbol
_atom_site_label
_atom_site_fract_x
_atom_site_fract_y
_atom_site_fract_z
Si Si1 0.824562 0.732014 0.604672
Si Si2 0.670690 0.060646 0.803318
Si Si3 0.825089 0.868707 0.941766
Si Si4 0.674241 0.009374 0.398837
Si Si5 0.176724 0.111254 0.551394
Si Si6 0.174912 0.803288 0.304058
O O1 0.781753 0.795001 0.573201
O O2 0.747049 0.668051 0.583274
O O3 0.764733 0.742767 0.658864
O O4 0.000000 0.719303 0.605592
O O5 0.697024 0.030839 0.750000
O O6 0.500000 0.086293 0.808705
O O7 0.705221 0.005094 0.842680
O O8 0.780684 0.121149 0.812592
O O9 0.000000 0.882737 0.934127
O O10 0.732335 0.917611 0.908273
O O11 0.776255 0.877803 0.996542
O O12 0.500000 0.004159 0.411478
O O13 0.762412 0.959240 0.432815
O O14 0.000000 0.112915 0.558200
O O15 0.216544 0.781276 0.250000
O O16 0.000000 0.795956 0.314003
#
# Coordination Sequence:
#
# PCOD8259024 Si02
#       6
#    16  16  16  16  16  16
#     4  11  22  38  59  84 114 149 191 235 283 336
#     4   9  18  34  56  82 112 145 182 228 280 332
#     4  10  24  41  56  79 115 155 190 231 286 341
#     4  11  22  36  58  87 115 148 190 234 281 337
#     4  11  22  38  60  83 111 149 192 238 284 334
#     4  10  20  34  56  86 114 144 185 231 279 333
#
# _framework density 18.963785999999999
#
# number of rings (size 3 to 8) (size 9 to 14) (size 15 to 20)
#    0.000    1.667    1.667    3.000    0.000    6.333 
#    0.000    0.833    0.000    3.000    0.000    0.000 
#    0.000    0.000    0.000    0.000    0.000    0.000 
#
# Total GULP energy -595377.656750 kJ/mol
# GULP energy per Si atom -12403.701182 kJ/mol
# Density = 1.892062 g / cm^3
# Si number density = 18.963786 Si / 1000 Ang^3
#
#
#
# Elastic Constant Matrix: (Units=GPa)
#
#
# Indices 1 2 3 4 5 6 
#
# 1 64.7900 22.5502 33.5519 0.0000 0.0000 0.0000
# 2 22.5502 53.6066 20.7818 0.0000 0.0000 0.0000
# 3 33.5519 20.7818 110.1502 0.0000 0.0000 0.0000
# 4 0.0000 0.0000 0.0000 13.6663 0.0000 0.0000
# 5 0.0000 0.0000 0.0000 0.0000 31.5524 0.0000
# 6 0.0000 0.0000 0.0000 0.0000 0.0000 32.7223
#
#
#
# Elastic Compliance Matrix: (Units=1/GPa)
#
#
# Indices 1 2 3 4 5 6 
#
# 1 0.020294 -0.006625 -0.004932 0.000000 0.000000 0.000000
# 2 -0.006625 0.022289 -0.002187 0.000000 0.000000 0.000000
# 3 -0.004932 -0.002187 0.010993 0.000000 0.000000 0.000000
# 4 0.000000 0.000000 0.000000 0.073173 0.000000 0.000000
# 5 0.000000 0.000000 0.000000 0.000000 0.031693 0.000000
# 6 0.000000 0.000000 0.000000 0.000000 0.000000 0.030560
#
#
# Mechanical properties :
#
#
# Convention : Reuss Voigt Hill
#
# Bulk Modulus (GPa) = 38.33066 42.47939 40.40503
# Shear Modulus (GPa) = 22.20369 25.69905 23.95137
#
# Velocity S-wave (km/s) = 3.42548 3.68525 3.55773
# Velocity P-wave (km/s) = 5.99180 6.36844 6.18299
#
# Compressibility (1/GPa) = 0.02608877
#
# Stress axis : x y z
#
# Youngs Moduli (GPa) = 49.27498 44.86459 90.96377
#
# Poissons Ratio (x) = 0.29723 0.44861
# Poissons Ratio (y) = 0.32645 0.19896
# Poissons Ratio (z) = 0.24301 0.09813
#
# Static dielectric constant tensor:
#      x y z
#    x 3.528520 0.000000 0.000000 
#    y 0.000000 3.237040 0.000000 
#    z 0.000000 0.000000 3.879720 
# 
# 
# High freq. dielectric constant tensor:
#      x y z
#    x 1.745960 0.000000 0.000000 
#    y 0.000000 1.713740 0.000000 
#    z 0.000000 0.000000 1.756300 
# 
# From -- ./inp_files/66906.got.cif
#   From: 2010.03.12/outbox.cif.g09.slc.cpg/sg63_34_cif.got.tgz:66906.got - 2010.04.10 19:34:48.
