data_PCOD8259966
_publ_section_title
;
Structure prediction by ZEFSAII (Michael W. Deem and Ramdas Pophale) SiO2 
 PCOD8259966
Probable space group: C M C M
;
_chemical_formula_sum "Si O2"
_cell_formula_units_Z 96
_cell_length_a 17.393906
_cell_length_b 11.641099
_cell_length_c 23.998717
_cell_angle_alpha 90.000000
_cell_angle_beta 90.000000
_cell_angle_gamma 90.000000
_cell_volume 4859.360575
_symmetry_space_group_name_H-M "C M C M"
_symmetry_group_IT_number 63
_symmetry_cell_setting 'orthorhombic'
loop_
_space_group_symop_operation_xyz
x,y,z
-x,-y,1/2+z
x,-y,-z
-x,y,1/2-z
-x,-y,-z
x,y,1/2-z
-x,y,z
x,-y,1/2+z
1/2+x,1/2+y,z
1/2-x,1/2-y,1/2+z
1/2+x,1/2-y,-z
1/2-x,1/2+y,1/2-z
1/2-x,1/2-y,-z
1/2+x,1/2+y,1/2-z
1/2-x,1/2+y,z
1/2+x,1/2-y,1/2+z
loop_
_atom_site_type_symbol
_atom_site_label
_atom_site_fract_x
_atom_site_fract_y
_atom_site_fract_z
Si Si1 0.695145 0.016444 0.686924
Si Si2 0.411086 0.202048 0.311385
Si Si3 0.413463 0.361054 0.089825
Si Si4 0.913689 0.286363 0.184742
Si Si5 0.797446 0.866960 0.990867
Si Si6 0.156777 0.922361 0.871822
O O1 0.721947 0.044802 0.750000
O O2 0.637950 0.911198 0.686199
O O3 0.769299 0.992411 0.649657
O O4 0.646290 0.120933 0.659858
O O5 0.400578 0.260503 0.250000
O O6 0.500000 0.170162 0.320904
O O7 0.379378 0.282111 0.360675
O O8 0.500000 0.325729 0.075960
O O9 0.410719 0.489380 0.113526
O O10 0.368038 0.352081 0.032610
O O11 0.920283 0.307306 0.250000
O O12 0.877064 0.162024 0.174368
O O13 0.000000 0.297246 0.158589
O O14 0.822859 0.852694 0.927360
O O15 0.750000 0.750000 0.000000
O O16 0.762387 0.000000 0.000000
#
# Coordination Sequence:
#
# PCOD8259966 Si02
#       6
#    16  16  16  16  16  16
#     4  10  21  35  57  86 119 156 198 247 300 360
#     4   9  18  34  58  84 114 154 195 239 294 359
#     4  10  22  40  60  86 119 156 197 243 298 364
#     4  10  22  39  58  85 123 162 200 247 306 366
#     4  10  23  40  63  87 117 157 197 251 305 355
#     4  11  23  36  60  86 116 151 203 244 297 358
#
# _framework density 19.755685
#
# number of rings (size 3 to 8) (size 9 to 14) (size 15 to 20)
#    0.000    2.000    0.000    2.500    7.000    7.000 
#    0.000    1.667    0.000    0.500    0.000    0.000 
#    0.000    0.000    0.000    0.000    0.000    0.000 
#
# Total GULP energy -594751.359766 kJ/mol
# GULP energy per Si atom -12390.653328 kJ/mol
# Density = 1.971072 g / cm^3
# Si number density = 19.755685 Si / 1000 Ang^3
#
#
#
# Elastic Constant Matrix: (Units=GPa)
#
#
# Indices 1 2 3 4 5 6 
#
# 1 92.1570 44.1818 39.0953 0.0000 0.0000 0.0000
# 2 44.1818 96.8987 24.4242 0.0000 0.0000 0.0000
# 3 39.0953 24.4242 71.3783 0.0000 0.0000 0.0000
# 4 0.0000 0.0000 0.0000 27.2098 0.0000 0.0000
# 5 0.0000 0.0000 0.0000 0.0000 1.4366 0.0000
# 6 0.0000 0.0000 0.0000 0.0000 0.0000 32.4278
#
#
#
# Elastic Compliance Matrix: (Units=1/GPa)
#
#
# Indices 1 2 3 4 5 6 
#
# 1 0.016659 -0.005796 -0.007141 0.000000 0.000000 0.000000
# 2 -0.005796 0.013311 -0.001380 0.000000 0.000000 0.000000
# 3 -0.007141 -0.001380 0.018394 0.000000 0.000000 0.000000
# 4 0.000000 0.000000 0.000000 0.036751 0.000000 0.000000
# 5 0.000000 0.000000 0.000000 0.000000 0.696097 0.000000
# 6 0.000000 0.000000 0.000000 0.000000 0.000000 0.030838
#
#
# Mechanical properties :
#
#
# Convention : Reuss Voigt Hill
#
# Bulk Modulus (GPa) = 50.68752 52.87074 51.77913
# Shear Modulus (GPa) = 5.90138 22.39702 14.14920
#
# Velocity S-wave (km/s) = 1.73022 3.37070 2.67911
# Velocity P-wave (km/s) = 5.45018 6.47836 5.98639
#
# Compressibility (1/GPa) = 0.01972872
#
# Stress axis : x y z
#
# Youngs Moduli (GPa) = 60.02682 75.12802 54.36690
#
# Poissons Ratio (x) = 0.43543 0.38825
# Poissons Ratio (y) = 0.34791 0.07503
# Poissons Ratio (z) = 0.42867 0.10369
#
# Static dielectric constant tensor:
#      x y z
#    x 4.003900 0.000000 0.000000 
#    y 0.000000 3.969580 0.000000 
#    z 0.000000 0.000000 3.053390 
# 
# 
# High freq. dielectric constant tensor:
#      x y z
#    x 1.766850 0.000000 0.000000 
#    y 0.000000 1.775760 0.000000 
#    z 0.000000 0.000000 1.769700 
# 
# From -- ./inp_files/63673.got.cif
#   From: 2010.03.12/outbox.cif.g09.slc.cpg/sg63_32_cif.got.tgz:63673.got - 2010.04.10 19:34:48.
