data_PCOD8259948
_publ_section_title
;
Structure prediction by ZEFSAII (Michael W. Deem and Ramdas Pophale) SiO2 
 PCOD8259948
Probable space group: C M C M
;
_chemical_formula_sum "Si O2"
_cell_formula_units_Z 80
_cell_length_a 13.408122
_cell_length_b 18.446351
_cell_length_c 14.641951
_cell_angle_alpha 90.000000
_cell_angle_beta 90.000000
_cell_angle_gamma 90.000000
_cell_volume 3621.407280
_symmetry_space_group_name_H-M "C M C M"
_symmetry_group_IT_number 63
_symmetry_cell_setting 'orthorhombic'
loop_
_space_group_symop_operation_xyz
x,y,z
-x,-y,1/2+z
x,-y,-z
-x,y,1/2-z
-x,-y,-z
x,y,1/2-z
-x,y,z
x,-y,1/2+z
1/2+x,1/2+y,z
1/2-x,1/2-y,1/2+z
1/2+x,1/2-y,-z
1/2-x,1/2+y,1/2-z
1/2-x,1/2-y,-z
1/2+x,1/2+y,1/2-z
1/2-x,1/2+y,z
1/2+x,1/2-y,1/2+z
loop_
_atom_site_type_symbol
_atom_site_label
_atom_site_fract_x
_atom_site_fract_y
_atom_site_fract_z
Si Si1 0.888056 0.762953 0.351825
Si Si2 0.614637 0.122634 0.648956
Si Si3 0.270517 0.982227 0.647245
Si Si4 0.387411 0.589968 0.567800
Si Si5 0.277002 0.153134 0.467721
O O1 0.866826 0.735252 0.250000
O O2 0.882650 0.850616 0.351012
O O3 0.803741 0.728430 0.418106
O O4 0.000000 0.738975 0.383052
O O5 0.641963 0.155030 0.750000
O O6 0.500000 0.135200 0.626929
O O7 0.677671 0.159741 0.569347
O O8 0.637680 0.037349 0.649783
O O9 0.237238 0.960272 0.750000
O O10 0.316566 0.913568 0.593691
O O11 0.175663 0.018525 0.594641
O O12 0.500000 0.565762 0.545200
O O13 0.340737 0.633990 0.480450
#
# Coordination Sequence:
#
# PCOD8259948 Si02
#       5
#    16  16  16  16  16
#     4  10  21  37  59  86 115 149 187 229 282 342
#     4   9  18  32  50  75 109 148 186 224 275 341
#     4  10  21  35  54  81 111 146 188 235 284 334
#     4  10  21  38  58  80 111 154 198 234 273 330
#     4  11  21  35  56  84 115 143 183 239 292 333
#
# _framework density 22.090858999999998
#
# number of rings (size 3 to 8) (size 9 to 14) (size 15 to 20)
#    0.000    2.000    0.000    4.800    0.000    6.000 
#    0.000    2.000    0.000    1.800    0.000    2.800 
#    0.000    0.000    0.000    0.000    0.000    0.000 
#
# Total GULP energy -495636.087226 kJ/mol
# GULP energy per Si atom -12390.902181 kJ/mol
# Density = 2.204058 g / cm^3
# Si number density = 22.090859 Si / 1000 Ang^3
#
#
#
# Elastic Constant Matrix: (Units=GPa)
#
#
# Indices 1 2 3 4 5 6 
#
# 1 84.4807 10.4987 29.0533 0.0000 0.0000 0.0000
# 2 10.4987 76.9388 17.7831 0.0000 0.0000 0.0000
# 3 29.0533 17.7831 105.0950 0.0000 0.0000 0.0000
# 4 0.0000 0.0000 0.0000 20.1490 0.0000 0.0000
# 5 0.0000 0.0000 0.0000 0.0000 23.5016 0.0000
# 6 0.0000 0.0000 0.0000 0.0000 0.0000 17.6847
#
#
#
# Elastic Compliance Matrix: (Units=1/GPa)
#
#
# Indices 1 2 3 4 5 6 
#
# 1 0.013153 -0.000993 -0.003468 0.000000 0.000000 0.000000
# 2 -0.000993 0.013601 -0.002027 0.000000 0.000000 0.000000
# 3 -0.003468 -0.002027 0.010817 0.000000 0.000000 0.000000
# 4 0.000000 0.000000 0.000000 0.049630 0.000000 0.000000
# 5 0.000000 0.000000 0.000000 0.000000 0.042550 0.000000
# 6 0.000000 0.000000 0.000000 0.000000 0.000000 0.056546
#
#
# Mechanical properties :
#
#
# Convention : Reuss Voigt Hill
#
# Bulk Modulus (GPa) = 40.65870 42.35384 41.50627
# Shear Modulus (GPa) = 24.09952 26.21234 25.15593
#
# Velocity S-wave (km/s) = 3.30650 3.44840 3.37820
# Velocity P-wave (km/s) = 5.74652 5.92195 5.83489
#
# Compressibility (1/GPa) = 0.02459498
#
# Stress axis : x y z
#
# Youngs Moduli (GPa) = 76.02742 73.52211 92.44771
#
# Poissons Ratio (x) = 0.07302 0.32062
# Poissons Ratio (y) = 0.07551 0.18738
# Poissons Ratio (z) = 0.26367 0.14902
#
# Static dielectric constant tensor:
#      x y z
#    x 3.988280 0.000000 0.000000 
#    y 0.000000 3.747960 0.000000 
#    z 0.000000 0.000000 4.275120 
# 
# 
# High freq. dielectric constant tensor:
#      x y z
#    x 1.860090 0.000000 0.000000 
#    y 0.000000 1.855190 0.000000 
#    z 0.000000 0.000000 1.874480 
# 
# From -- ./inp_files/31634.got.cif
#   From: 2010.03.12/outbox.cif.g09.slc.cpg/sg63_16_cif.got.tgz:31634.got - 2010.04.10 19:34:48.
