data_PCOD8259529
_publ_section_title
;
Structure prediction by ZEFSAII (Michael W. Deem and Ramdas Pophale) SiO2 
 PCOD8259529
Probable space group: C M C M
;
_chemical_formula_sum "Si O2"
_cell_formula_units_Z 96
_cell_length_a 22.007107
_cell_length_b 9.723576
_cell_length_c 23.039637
_cell_angle_alpha 90.000000
_cell_angle_beta 90.000000
_cell_angle_gamma 90.000000
_cell_volume 4930.200715
_symmetry_space_group_name_H-M "C M C M"
_symmetry_group_IT_number 63
_symmetry_cell_setting 'orthorhombic'
loop_
_space_group_symop_operation_xyz
x,y,z
-x,-y,1/2+z
x,-y,-z
-x,y,1/2-z
-x,-y,-z
x,y,1/2-z
-x,y,z
x,-y,1/2+z
1/2+x,1/2+y,z
1/2-x,1/2-y,1/2+z
1/2+x,1/2-y,-z
1/2-x,1/2+y,1/2-z
1/2-x,1/2-y,-z
1/2+x,1/2+y,1/2-z
1/2-x,1/2+y,z
1/2+x,1/2-y,1/2+z
loop_
_atom_site_type_symbol
_atom_site_label
_atom_site_fract_x
_atom_site_fract_y
_atom_site_fract_z
Si Si1 0.000000 0.130529 0.961284
Si Si2 0.823792 0.205179 0.373869
Si Si3 0.185832 0.166373 0.250000
Si Si4 0.628203 0.963566 0.431758
Si Si5 0.816605 0.717808 0.128651
Si Si6 0.691137 0.333670 0.250000
Si Si7 0.500000 0.116257 0.546152
Si Si8 0.372834 0.450559 0.064750
O O1 0.061853 0.124960 0.923503
O O2 0.000000 0.247333 0.009031
O O3 0.000000 0.000000 0.000000
O O4 0.849242 0.215914 0.307856
O O5 0.826408 0.343376 0.411827
O O6 0.752598 0.162307 0.370650
O O7 0.866906 0.088021 0.398632
O O8 0.245076 0.259595 0.250000
O O9 0.197045 0.000101 0.250000
O O10 0.561202 0.903367 0.416485
O O11 0.637268 0.000000 0.500000
O O12 0.639670 0.094779 0.391444
O O13 0.840651 0.778443 0.190656
O O14 0.821398 0.840775 0.081836
O O15 0.500000 0.000000 0.500000
O O16 0.362043 0.500000 0.000000
#
# Coordination Sequence:
#
# PCOD8259529 Si02
#       8
#     8  16   8  16  16   8   8  16
#     4  10  20  36  60  81 110 158 208 237 277 352
#     4  11  23  37  59  87 124 154 195 246 302 360
#     4  10  22  40  62  85 116 162 210 243 281 358
#     4  11  23  38  60  90 121 158 197 246 300 357
#     4  11  23  37  59  87 122 156 194 243 301 356
#     4  10  22  40  62  85 116 160 212 241 281 360
#     4  10  20  40  60  81 116 158 210 241 273 352
#     4  11  21  36  58  86 117 156 197 243 301 355
#
# _framework density 19.471824000000002
#
# number of rings (size 3 to 8) (size 9 to 14) (size 15 to 20)
#    0.000    1.333    1.667    6.000    7.000    4.000 
#    0.000    0.000    0.000    6.000    0.000    0.000 
#    0.000    0.000    0.000    0.000    0.000    0.000 
#
# Total GULP energy -594664.601387 kJ/mol
# GULP energy per Si atom -12388.845862 kJ/mol
# Density = 1.942751 g / cm^3
# Si number density = 19.471824 Si / 1000 Ang^3
#
#
#
# Elastic Constant Matrix: (Units=GPa)
#
#
# Indices 1 2 3 4 5 6 
#
# 1 62.0605 27.2469 54.4274 0.0000 0.0000 0.0000
# 2 27.2469 122.7500 40.2897 0.0000 0.0000 0.0000
# 3 54.4274 40.2897 114.2615 0.0000 0.0000 0.0000
# 4 0.0000 0.0000 0.0000 38.8548 0.0000 0.0000
# 5 0.0000 0.0000 0.0000 0.0000 10.3238 0.0000
# 6 0.0000 0.0000 0.0000 0.0000 0.0000 32.5660
#
#
#
# Elastic Compliance Matrix: (Units=1/GPa)
#
#
# Indices 1 2 3 4 5 6 
#
# 1 0.028140 -0.002088 -0.012668 0.000000 0.000000 0.000000
# 2 -0.002088 0.009368 -0.002308 0.000000 0.000000 0.000000
# 3 -0.012668 -0.002308 0.015600 0.000000 0.000000 0.000000
# 4 0.000000 0.000000 0.000000 0.025737 0.000000 0.000000
# 5 0.000000 0.000000 0.000000 0.000000 0.096864 0.000000
# 6 0.000000 0.000000 0.000000 0.000000 0.000000 0.030707
#
#
# Mechanical properties :
#
#
# Convention : Reuss Voigt Hill
#
# Bulk Modulus (GPa) = 52.69088 60.33335 56.51212
# Shear Modulus (GPa) = 20.25354 28.15613 24.20483
#
# Velocity S-wave (km/s) = 3.22863 3.80675 3.52954
# Velocity P-wave (km/s) = 6.40449 7.09746 6.75986
#
# Compressibility (1/GPa) = 0.01897862
#
# Stress axis : x y z
#
# Youngs Moduli (GPa) = 35.53670 106.74767 64.10239
#
# Poissons Ratio (x) = 0.22293 0.81204
# Poissons Ratio (y) = 0.07421 0.14798
# Poissons Ratio (z) = 0.45017 0.24642
#
# Static dielectric constant tensor:
#      x y z
#    x 2.625670 0.000000 0.000000 
#    y 0.000000 3.797310 0.000000 
#    z 0.000000 0.000000 2.757150 
# 
# 
# High freq. dielectric constant tensor:
#      x y z
#    x 1.734420 0.000000 0.000000 
#    y 0.000000 1.781410 0.000000 
#    z 0.000000 0.000000 1.754170 
# 
# From -- ./inp_files/65046.got.cif
#   From: 2010.03.12/outbox.cif.g09.slc.cpg/sg63_33_cif.got.tgz:65046.got - 2010.04.10 19:34:48.
