data_PCOD8259542
_publ_section_title
;
Structure prediction by ZEFSAII (Michael W. Deem and Ramdas Pophale) SiO2 
 PCOD8259542
Probable space group: C M C M
;
_chemical_formula_sum "Si O2"
_cell_formula_units_Z 72
_cell_length_a 22.562843
_cell_length_b 18.983751
_cell_length_c 8.900372
_cell_angle_alpha 90.000000
_cell_angle_beta 90.000000
_cell_angle_gamma 90.000000
_cell_volume 3812.273139
_symmetry_space_group_name_H-M "C M C M"
_symmetry_group_IT_number 63
_symmetry_cell_setting 'orthorhombic'
loop_
_space_group_symop_operation_xyz
x,y,z
-x,-y,1/2+z
x,-y,-z
-x,y,1/2-z
-x,-y,-z
x,y,1/2-z
-x,y,z
x,-y,1/2+z
1/2+x,1/2+y,z
1/2-x,1/2-y,1/2+z
1/2+x,1/2-y,-z
1/2-x,1/2+y,1/2-z
1/2-x,1/2-y,-z
1/2+x,1/2+y,1/2-z
1/2-x,1/2+y,z
1/2+x,1/2-y,1/2+z
loop_
_atom_site_type_symbol
_atom_site_label
_atom_site_fract_x
_atom_site_fract_y
_atom_site_fract_z
Si Si1 0.000000 0.576165 0.571916
Si Si2 0.067505 0.184553 0.422112
Si Si3 0.732026 0.177452 0.425653
Si Si4 0.833575 0.075230 0.073947
Si Si5 0.096811 0.328637 0.574319
O O1 0.000000 0.500000 0.500000
O O2 0.058627 0.616777 0.520648
O O3 0.000000 0.569842 0.750000
O O4 0.081111 0.207113 0.250000
O O5 0.108793 0.120126 0.472407
O O6 0.079941 0.249651 0.530406
O O7 0.000000 0.159357 0.440268
O O8 0.740824 0.188827 0.250000
O O9 0.750000 0.250000 0.500000
O O10 0.774870 0.115493 0.484744
O O11 0.665077 0.156210 0.465708
O O12 0.830378 0.063506 0.250000
O O13 0.838181 0.000000 0.000000
O O14 0.083560 0.339163 0.750000
#
# Coordination Sequence:
#
# PCOD8259542 Si02
#       5
#     8  16  16  16  16
#     4  12  26  44  64  88 123 162 199 248 308 362
#     4  10  20  36  60  87 117 156 200 244 298 357
#     4  10  21  37  60  89 120 156 201 249 297 355
#     4  10  22  39  57  84 122 158 198 245 297 354
#     4  11  22  37  61  93 122 152 201 252 299 358
#
# _framework density 18.886369999999999
#
# number of rings (size 3 to 8) (size 9 to 14) (size 15 to 20)
#    0.000    1.556    3.333    1.667    0.000    4.000 
#    0.000    2.222    0.000    0.000    0.000    0.000 
#    0.000    0.000    0.000    0.000    0.000    0.000 
#
# Total GULP energy -446532.433160 kJ/mol
# GULP energy per Si atom -12403.678699 kJ/mol
# Density = 1.884338 g / cm^3
# Si number density = 18.886370 Si / 1000 Ang^3
#
#
#
# Elastic Constant Matrix: (Units=GPa)
#
#
# Indices 1 2 3 4 5 6 
#
# 1 172.0000 84.5849 57.4330 0.0000 0.0000 0.0000
# 2 84.5849 167.3334 59.4588 0.0000 0.0000 0.0000
# 3 57.4330 59.4588 81.4938 0.0000 0.0000 0.0000
# 4 0.0000 0.0000 0.0000 39.0521 0.0000 0.0000
# 5 0.0000 0.0000 0.0000 0.0000 26.2660 0.0000
# 6 0.0000 0.0000 0.0000 0.0000 0.0000 31.1113
#
#
#
# Elastic Compliance Matrix: (Units=1/GPa)
#
#
# Indices 1 2 3 4 5 6 
#
# 1 0.008560 -0.002947 -0.003882 0.000000 0.000000 0.000000
# 2 -0.002947 0.009083 -0.004550 0.000000 0.000000 0.000000
# 3 -0.003882 -0.004550 0.018326 0.000000 0.000000 0.000000
# 4 0.000000 0.000000 0.000000 0.025607 0.000000 0.000000
# 5 0.000000 0.000000 0.000000 0.000000 0.038072 0.000000
# 6 0.000000 0.000000 0.000000 0.000000 0.000000 0.032143
#
#
# Mechanical properties :
#
#
# Convention : Reuss Voigt Hill
#
# Bulk Modulus (GPa) = 75.69759 91.53118 83.61439
# Shear Modulus (GPa) = 31.45620 33.90925 32.68272
#
# Velocity S-wave (km/s) = 4.08554 4.24185 4.16443
# Velocity P-wave (km/s) = 7.90083 8.51824 8.21534
#
# Compressibility (1/GPa) = 0.01321046
#
# Stress axis : x y z
#
# Youngs Moduli (GPa) = 116.82721 110.10105 54.56694
#
# Poissons Ratio (x) = 0.32451 0.21183
# Poissons Ratio (y) = 0.34434 0.24826
# Poissons Ratio (z) = 0.45352 0.50091
#
# Static dielectric constant tensor:
#      x y z
#    x 2.876910 0.000000 0.000000 
#    y 0.000000 3.479850 0.000000 
#    z 0.000000 0.000000 3.464340 
# 
# 
# High freq. dielectric constant tensor:
#      x y z
#    x 1.755850 0.000000 0.000000 
#    y 0.000000 1.729210 0.000000 
#    z 0.000000 0.000000 1.732360 
# 
# From -- ./inp_files/7864.got.cif
#   From: 2010.03.12/outbox.cif.g09.slc.cpg/sg63_4_cif.got.tgz:7864.got - 2010.04.10 19:34:48.
