data_PCOD8259693
_publ_section_title
;
Structure prediction by ZEFSAII (Michael W. Deem and Ramdas Pophale) SiO2 
 PCOD8259693
Probable space group: C M C M
;
_chemical_formula_sum "Si O2"
_cell_formula_units_Z 72
_cell_length_a 17.392225
_cell_length_b 23.281658
_cell_length_c 9.073202
_cell_angle_alpha 90.000000
_cell_angle_beta 90.000000
_cell_angle_gamma 90.000000
_cell_volume 3673.919450
_symmetry_space_group_name_H-M "C M C M"
_symmetry_group_IT_number 63
_symmetry_cell_setting 'orthorhombic'
loop_
_space_group_symop_operation_xyz
x,y,z
-x,-y,1/2+z
x,-y,-z
-x,y,1/2-z
-x,-y,-z
x,y,1/2-z
-x,y,z
x,-y,1/2+z
1/2+x,1/2+y,z
1/2-x,1/2-y,1/2+z
1/2+x,1/2-y,-z
1/2-x,1/2+y,1/2-z
1/2-x,1/2-y,-z
1/2+x,1/2+y,1/2-z
1/2-x,1/2+y,z
1/2+x,1/2-y,1/2+z
loop_
_atom_site_type_symbol
_atom_site_label
_atom_site_fract_x
_atom_site_fract_y
_atom_site_fract_z
Si Si1 0.169960 0.248424 0.080355
Si Si2 0.000000 0.439312 0.576763
Si Si3 0.287674 0.559228 0.578106
Si Si4 0.132552 0.624527 0.581989
Si Si5 0.088593 0.133373 0.076414
O O1 0.189931 0.240164 0.250000
O O2 0.124731 0.307640 0.053342
O O3 0.117117 0.196185 0.023932
O O4 0.250000 0.250000 0.000000
O O5 0.000000 0.500000 0.500000
O O6 0.076101 0.405630 0.531178
O O7 0.000000 0.448338 0.750000
O O8 0.264996 0.500000 0.500000
O O9 0.301202 0.547750 0.750000
O O10 0.219360 0.604430 0.550168
O O11 0.365393 0.584138 0.508749
O O12 0.109093 0.609179 0.750000
O O13 0.100846 0.124940 0.250000
O O14 0.000000 0.127179 0.031872
#
# Coordination Sequence:
#
# PCOD8259693 Si02
#       5
#    16   8  16  16  16
#     4  10  20  37  63  91 122 157 196 244 297 357
#     4  12  26  42  62  90 124 164 207 254 305 360
#     4  11  23  40  63  89 117 157 203 251 304 360
#     4  10  22  40  63  91 124 161 201 247 305 364
#     4  10  22  39  61  90 123 161 201 246 301 357
#
# _framework density 19.5976
#
# number of rings (size 3 to 8) (size 9 to 14) (size 15 to 20)
#    0.000    1.556    2.222    2.333    1.556    5.333 
#    0.000    0.000    0.000    0.000    0.000    0.000 
#    0.000    0.000    0.000    0.000    0.000    0.000 
#
# Total GULP energy -446577.716615 kJ/mol
# GULP energy per Si atom -12404.936573 kJ/mol
# Density = 1.955300 g / cm^3
# Si number density = 19.597600 Si / 1000 Ang^3
#
#
#
# Elastic Constant Matrix: (Units=GPa)
#
#
# Indices 1 2 3 4 5 6 
#
# 1 99.9857 14.6252 42.6279 0.0000 0.0000 0.0000
# 2 14.6252 80.6748 29.4459 0.0000 0.0000 0.0000
# 3 42.6279 29.4459 85.6882 0.0000 0.0000 0.0000
# 4 0.0000 0.0000 0.0000 30.6789 0.0000 0.0000
# 5 0.0000 0.0000 0.0000 0.0000 37.0884 0.0000
# 6 0.0000 0.0000 0.0000 0.0000 0.0000 28.4065
#
#
#
# Elastic Compliance Matrix: (Units=1/GPa)
#
#
# Indices 1 2 3 4 5 6 
#
# 1 0.012694 0.000004 -0.006316 0.000000 0.000000 0.000000
# 2 0.000004 0.014173 -0.004873 0.000000 0.000000 0.000000
# 3 -0.006316 -0.004873 0.016487 0.000000 0.000000 0.000000
# 4 0.000000 0.000000 0.000000 0.032596 0.000000 0.000000
# 5 0.000000 0.000000 0.000000 0.000000 0.026963 0.000000
# 6 0.000000 0.000000 0.000000 0.000000 0.000000 0.035203
#
#
# Mechanical properties :
#
#
# Convention : Reuss Voigt Hill
#
# Bulk Modulus (GPa) = 47.65437 48.86076 48.25757
# Shear Modulus (GPa) = 29.85445 31.21140 30.53292
#
# Velocity S-wave (km/s) = 3.90728 3.99509 3.95142
# Velocity P-wave (km/s) = 6.68767 6.80199 6.74507
#
# Compressibility (1/GPa) = 0.02098443
#
# Stress axis : x y z
#
# Youngs Moduli (GPa) = 78.77930 70.55603 60.65451
#
# Poissons Ratio (x) = -0.00030 0.38311
# Poissons Ratio (y) = -0.00033 0.29554
# Poissons Ratio (z) = 0.49759 0.34379
#
# Static dielectric constant tensor:
#      x y z
#    x 3.598470 0.000000 0.000000 
#    y 0.000000 3.961220 0.000000 
#    z 0.000000 0.000000 3.553820 
# 
# 
# High freq. dielectric constant tensor:
#      x y z
#    x 1.765560 0.000000 0.000000 
#    y 0.000000 1.778440 0.000000 
#    z 0.000000 0.000000 1.759790 
# 
# From -- ./inp_files/6125.got.cif
#   From: 2010.03.12/outbox.cif.g09.slc.cpg/sg63_4_cif.got.tgz:6125.got - 2010.04.10 19:34:48.
