data_PCOD8259969
_publ_section_title
;
Structure prediction by ZEFSAII (Michael W. Deem and Ramdas Pophale) SiO2 
 PCOD8259969
Probable space group: C M C M
;
_chemical_formula_sum "Si O2"
_cell_formula_units_Z 96
_cell_length_a 22.896672
_cell_length_b 27.506088
_cell_length_c 8.635249
_cell_angle_alpha 90.000000
_cell_angle_beta 90.000000
_cell_angle_gamma 90.000000
_cell_volume 5438.461470
_symmetry_space_group_name_H-M "C M C M"
_symmetry_group_IT_number 63
_symmetry_cell_setting 'orthorhombic'
loop_
_space_group_symop_operation_xyz
x,y,z
-x,-y,1/2+z
x,-y,-z
-x,y,1/2-z
-x,-y,-z
x,y,1/2-z
-x,y,z
x,-y,1/2+z
1/2+x,1/2+y,z
1/2-x,1/2-y,1/2+z
1/2+x,1/2-y,-z
1/2-x,1/2+y,1/2-z
1/2-x,1/2-y,-z
1/2+x,1/2+y,1/2-z
1/2-x,1/2+y,z
1/2+x,1/2-y,1/2+z
loop_
_atom_site_type_symbol
_atom_site_label
_atom_site_fract_x
_atom_site_fract_y
_atom_site_fract_z
Si Si1 0.621999 0.781366 0.932259
Si Si2 0.735221 0.551482 0.568341
Si Si3 0.699630 0.853614 0.068350
Si Si4 0.000000 0.870157 0.431398
Si Si5 0.125493 0.890222 0.432506
Si Si6 0.000000 0.239305 0.933740
Si Si7 0.308811 0.695814 0.430890
O O1 0.627483 0.773091 0.750000
O O2 0.556859 0.768978 0.991527
O O3 0.640513 0.836549 0.979494
O O4 0.668891 0.748612 0.021795
O O5 0.753289 0.500000 0.500000
O O6 0.738360 0.546976 0.750000
O O7 0.780930 0.592534 0.510594
O O8 0.668918 0.566146 0.517246
O O9 0.687605 0.853675 0.250000
O O10 0.751586 0.816459 0.029348
O O11 0.057822 0.901231 0.477422
O O12 0.000000 0.861694 0.250000
O O13 0.000000 0.815557 0.504092
O O14 0.133148 0.879372 0.250000
O O15 0.140268 0.841853 0.526454
O O16 0.000000 0.237134 0.750000
O O17 0.293732 0.693798 0.250000
#
# Coordination Sequence:
#
# PCOD8259969 Si02
#       7
#    16  16  16   8  16   8  16
#     4  11  20  33  50  72 101 134 169 201 236 286
#     4   9  19  34  53  73  96 123 158 205 256 306
#     4  10  21  36  51  72  98 128 163 203 250 299
#     4   9  14  28  51  69  93 134 177 206 236 284
#     4   9  17  31  50  71  95 131 173 209 243 290
#     4   9  18  30  50  73  98 138 174 199 230 283
#     4  11  20  30  46  71 101 134 166 204 246 289
#
# _framework density 17.652051
#
# number of rings (size 3 to 8) (size 9 to 14) (size 15 to 20)
#    0.000    2.167    1.667    4.000    0.000    3.333 
#    0.000    3.333    0.000    0.000    0.000    0.583 
#    0.000    0.000    0.000    0.000    0.000    0.000 
#
# Total GULP energy -594933.174389 kJ/mol
# GULP energy per Si atom -12394.441133 kJ/mol
# Density = 1.761187 g / cm^3
# Si number density = 17.652051 Si / 1000 Ang^3
#
#
#
# Elastic Constant Matrix: (Units=GPa)
#
#
# Indices 1 2 3 4 5 6 
#
# 1 61.4190 44.6228 4.5476 0.0000 0.0000 0.0000
# 2 44.6228 98.3444 13.8783 0.0000 0.0000 0.0000
# 3 4.5476 13.8783 31.8509 0.0000 0.0000 0.0000
# 4 0.0000 0.0000 0.0000 25.8198 0.0000 0.0000
# 5 0.0000 0.0000 0.0000 0.0000 17.3967 0.0000
# 6 0.0000 0.0000 0.0000 0.0000 0.0000 16.2395
#
#
#
# Elastic Compliance Matrix: (Units=1/GPa)
#
#
# Indices 1 2 3 4 5 6 
#
# 1 0.024349 -0.011249 0.001425 0.000000 0.000000 0.000000
# 2 -0.011249 0.016032 -0.005379 0.000000 0.000000 0.000000
# 3 0.001425 -0.005379 0.033537 0.000000 0.000000 0.000000
# 4 0.000000 0.000000 0.000000 0.038730 0.000000 0.000000
# 5 0.000000 0.000000 0.000000 0.000000 0.057482 0.000000
# 6 0.000000 0.000000 0.000000 0.000000 0.000000 0.061578
#
#
# Mechanical properties :
#
#
# Convention : Reuss Voigt Hill
#
# Bulk Modulus (GPa) = 22.98294 35.30130 29.14212
# Shear Modulus (GPa) = 18.07546 20.46225 19.26885
#
# Velocity S-wave (km/s) = 3.20345 3.40840 3.30751
# Velocity P-wave (km/s) = 5.17021 5.96082 5.57953
#
# Compressibility (1/GPa) = 0.04351053
#
# Stress axis : x y z
#
# Youngs Moduli (GPa) = 41.06942 62.37641 29.81809
#
# Poissons Ratio (x) = 0.70169 -0.04249
# Poissons Ratio (y) = 0.46200 0.16040
# Poissons Ratio (z) = -0.05853 0.33554
#
# Static dielectric constant tensor:
#      x y z
#    x 3.512980 0.000000 0.000000 
#    y 0.000000 3.437930 0.000000 
#    z 0.000000 0.000000 3.094720 
# 
# 
# High freq. dielectric constant tensor:
#      x y z
#    x 1.674320 0.000000 0.000000 
#    y 0.000000 1.655930 0.000000 
#    z 0.000000 0.000000 1.668640 
# 
# From -- ./inp_files/10793.got.cif
#   From: 2010.03.12/outbox.cif.g09.slc.cpg/sg63_6_cif.got.tgz:10793.got - 2010.04.10 19:34:48.
