data_PCOD8259760
_publ_section_title
;
Structure prediction by ZEFSAII (Michael W. Deem and Ramdas Pophale) SiO2 
 PCOD8259760
Probable space group: C M C M
;
_chemical_formula_sum "Si O2"
_cell_formula_units_Z 88
_cell_length_a 26.630773
_cell_length_b 11.089175
_cell_length_c 15.241482
_cell_angle_alpha 90.000000
_cell_angle_beta 90.000000
_cell_angle_gamma 90.000000
_cell_volume 4501.012380
_symmetry_space_group_name_H-M "C M C M"
_symmetry_group_IT_number 63
_symmetry_cell_setting 'orthorhombic'
loop_
_space_group_symop_operation_xyz
x,y,z
-x,-y,1/2+z
x,-y,-z
-x,y,1/2-z
-x,-y,-z
x,y,1/2-z
-x,y,z
x,-y,1/2+z
1/2+x,1/2+y,z
1/2-x,1/2-y,1/2+z
1/2+x,1/2-y,-z
1/2-x,1/2+y,1/2-z
1/2-x,1/2-y,-z
1/2+x,1/2+y,1/2-z
1/2-x,1/2+y,z
1/2+x,1/2-y,1/2+z
loop_
_atom_site_type_symbol
_atom_site_label
_atom_site_fract_x
_atom_site_fract_y
_atom_site_fract_z
Si Si1 0.500000 0.366061 0.145155
Si Si2 0.153059 0.658810 0.250000
Si Si3 0.896814 0.228021 0.907195
Si Si4 0.390721 0.265166 0.896018
Si Si5 0.728486 0.621772 0.750000
Si Si6 0.828764 0.002550 0.899747
Si Si7 0.840893 0.617435 0.750000
Si Si8 0.000000 0.140658 0.353270
O O1 0.500000 0.358703 0.250000
O O2 0.455270 0.292973 0.102017
O O3 0.500000 0.503776 0.111454
O O4 0.119910 0.673204 0.337128
O O5 0.198037 0.753873 0.250000
O O6 0.172030 0.523349 0.250000
O O7 0.871991 0.099999 0.886797
O O8 0.882077 0.274628 0.003696
O O9 0.354971 0.377897 0.871500
O O10 0.373145 0.155687 0.834816
O O11 0.449672 0.293014 0.885274
O O12 0.716962 0.539025 0.664324
O O13 0.785040 0.672316 0.750000
O O14 0.808593 0.000000 0.000000
O O15 0.000000 0.140324 0.250000
#
# Coordination Sequence:
#
# PCOD8259760 Si02
#       8
#     8   8  16  16   8  16   8   8
#     4  11  19  31  65 103 125 168 205 248 314 367
#     4  10  24  45  59  85 123 163 212 254 308 367
#     4  10  20  38  62  93 129 160 200 254 305 369
#     4  11  22  38  63  95 129 162 201 253 319 373
#     4  10  23  42  66  86 117 163 204 270 315 368
#     4   9  19  37  63  95 125 151 195 258 320 372
#     4  12  27  43  61  87 120 170 210 256 313 373
#     4  11  21  33  61  99 137 162 199 254 310 381
#
# _framework density 19.551158000000001
#
# number of rings (size 3 to 8) (size 9 to 14) (size 15 to 20)
#    0.000    1.636    3.636    1.091    2.545    1.455 
#    3.273    4.545    0.000    2.182    0.000    0.000 
#    0.000    0.000    0.000    0.000    0.000    0.000 
#
# Total GULP energy -545580.292623 kJ/mol
# GULP energy per Si atom -12399.552105 kJ/mol
# Density = 1.950666 g / cm^3
# Si number density = 19.551158 Si / 1000 Ang^3
#
#
#
# Elastic Constant Matrix: (Units=GPa)
#
#
# Indices 1 2 3 4 5 6 
#
# 1 113.6277 29.0313 41.3855 0.0000 0.0000 0.0000
# 2 29.0313 79.9567 41.8963 0.0000 0.0000 0.0000
# 3 41.3855 41.8963 128.5306 0.0000 0.0000 0.0000
# 4 0.0000 0.0000 0.0000 3.9865 0.0000 0.0000
# 5 0.0000 0.0000 0.0000 0.0000 5.7488 0.0000
# 6 0.0000 0.0000 0.0000 0.0000 0.0000 24.1117
#
#
#
# Elastic Compliance Matrix: (Units=1/GPa)
#
#
# Indices 1 2 3 4 5 6 
#
# 1 0.010346 -0.002425 -0.002541 0.000000 0.000000 0.000000
# 2 -0.002425 0.015651 -0.004321 0.000000 0.000000 0.000000
# 3 -0.002541 -0.004321 0.010007 0.000000 0.000000 0.000000
# 4 0.000000 0.000000 0.000000 0.250846 0.000000 0.000000
# 5 0.000000 0.000000 0.000000 0.000000 0.173949 0.000000
# 6 0.000000 0.000000 0.000000 0.000000 0.000000 0.041474
#
#
# Mechanical properties :
#
#
# Convention : Reuss Voigt Hill
#
# Bulk Modulus (GPa) = 57.37104 60.74904 59.06004
# Shear Modulus (GPa) = 9.49386 20.75619 15.12503
#
# Velocity S-wave (km/s) = 2.20600 3.26181 2.78441
# Velocity P-wave (km/s) = 5.99136 6.73240 6.37266
#
# Compressibility (1/GPa) = 0.01743040
#
# Stress axis : x y z
#
# Youngs Moduli (GPa) = 96.65906 63.89205 99.93202
#
# Poissons Ratio (x) = 0.15494 0.25390
# Poissons Ratio (y) = 0.23441 0.43180
# Poissons Ratio (z) = 0.24558 0.27607
#
# Static dielectric constant tensor:
#      x y z
#    x 3.474920 0.000000 0.000000 
#    y 0.000000 3.257850 0.000000 
#    z 0.000000 0.000000 3.810620 
# 
# 
# High freq. dielectric constant tensor:
#      x y z
#    x 1.758430 0.000000 0.000000 
#    y 0.000000 1.733120 0.000000 
#    z 0.000000 0.000000 1.779080 
# 
# From -- ./inp_files/37825.got.cif
#   From: 2010.03.12/outbox.cif.g09.slc.cpg/sg63_19_cif.got.tgz:37825.got - 2010.04.10 19:34:48.
