data_PCOD8259062
_publ_section_title
;
Structure prediction by ZEFSAII (Michael W. Deem and Ramdas Pophale) SiO2 
 PCOD8259062
Probable space group: C M C M
;
_chemical_formula_sum "Si O2"
_cell_formula_units_Z 40
_cell_length_a 9.221300
_cell_length_b 25.501977
_cell_length_c 9.987663
_cell_angle_alpha 90.000000
_cell_angle_beta 90.000000
_cell_angle_gamma 90.000000
_cell_volume 2348.712619
_symmetry_space_group_name_H-M "C M C M"
_symmetry_group_IT_number 63
_symmetry_cell_setting 'orthorhombic'
loop_
_space_group_symop_operation_xyz
x,y,z
-x,-y,1/2+z
x,-y,-z
-x,y,1/2-z
-x,-y,-z
x,y,1/2-z
-x,y,z
x,-y,1/2+z
1/2+x,1/2+y,z
1/2-x,1/2-y,1/2+z
1/2+x,1/2-y,-z
1/2-x,1/2+y,1/2-z
1/2-x,1/2-y,-z
1/2+x,1/2+y,1/2-z
1/2-x,1/2+y,z
1/2+x,1/2-y,1/2+z
loop_
_atom_site_type_symbol
_atom_site_label
_atom_site_fract_x
_atom_site_fract_y
_atom_site_fract_z
Si Si1 0.500000 0.049148 0.403190
Si Si2 0.839241 0.356521 0.994051
Si Si3 0.328054 0.210127 0.250000
Si Si4 0.828721 0.169355 0.750000
O O1 0.500000 0.029662 0.250000
O O2 0.642793 0.084921 0.432027
O O3 0.500000 0.000000 0.500000
O O4 0.767384 0.318020 0.883419
O O5 0.000000 0.335679 0.037791
O O6 0.733574 0.359378 0.120095
O O7 0.500000 0.201990 0.250000
O O8 0.278784 0.270163 0.250000
O O9 0.000000 0.163745 0.750000
#
# Coordination Sequence:
#
# PCOD8259062 Si02
#       4
#     8  16   8   8
#     4  10  20  34  62  88 100 126 176 240 277 300
#     4   9  18  35  52  75 107 135 176 228 261 305
#     4   9  16  33  51  71 107 146 177 219 265 305
#     4  11  21  29  49  79 109 148 179 203 255 327
#
# _framework density 17.030605999999999
#
# number of rings (size 3 to 8) (size 9 to 14) (size 15 to 20)
#    1.200    1.200    2.000    1.800    2.800    0.000 
#    0.000    3.000    0.000    1.200    0.000    0.000 
#    0.000    0.000    0.000    0.000    0.000    0.000 
#
# Total GULP energy -247883.374389 kJ/mol
# GULP energy per Si atom -12394.168719 kJ/mol
# Density = 1.699184 g / cm^3
# Si number density = 17.030606 Si / 1000 Ang^3
#
#
#
# Elastic Constant Matrix: (Units=GPa)
#
#
# Indices 1 2 3 4 5 6 
#
# 1 48.5520 16.4484 40.4506 0.0000 0.0000 0.0000
# 2 16.4484 91.4066 47.1442 0.0000 0.0000 0.0000
# 3 40.4506 47.1442 153.4414 0.0000 0.0000 0.0000
# 4 0.0000 0.0000 0.0000 37.4057 0.0000 0.0000
# 5 0.0000 0.0000 0.0000 0.0000 12.6508 0.0000
# 6 0.0000 0.0000 0.0000 0.0000 0.0000 11.9767
#
#
#
# Elastic Compliance Matrix: (Units=1/GPa)
#
#
# Indices 1 2 3 4 5 6 
#
# 1 0.026541 -0.001387 -0.006570 0.000000 0.000000 0.000000
# 2 -0.001387 0.013073 -0.003651 0.000000 0.000000 0.000000
# 3 -0.006570 -0.003651 0.009371 0.000000 0.000000 0.000000
# 4 0.000000 0.000000 0.000000 0.026734 0.000000 0.000000
# 5 0.000000 0.000000 0.000000 0.000000 0.079046 0.000000
# 6 0.000000 0.000000 0.000000 0.000000 0.000000 0.083495
#
#
# Mechanical properties :
#
#
# Convention : Reuss Voigt Hill
#
# Bulk Modulus (GPa) = 38.80886 55.72071 47.26479
# Shear Modulus (GPa) = 18.51402 25.03044 21.77223
#
# Velocity S-wave (km/s) = 3.30070 3.83787 3.57938
# Velocity P-wave (km/s) = 6.11256 7.24072 6.70042
#
# Compressibility (1/GPa) = 0.02576731
#
# Stress axis : x y z
#
# Youngs Moduli (GPa) = 37.67825 76.49526 106.71243
#
# Poissons Ratio (x) = 0.10611 0.70115
# Poissons Ratio (y) = 0.05226 0.38959
# Poissons Ratio (z) = 0.24756 0.27927
#
# Static dielectric constant tensor:
#      x y z
#    x 2.725070 0.000000 0.000000 
#    y 0.000000 3.019270 0.000000 
#    z 0.000000 0.000000 3.201070 
# 
# 
# High freq. dielectric constant tensor:
#      x y z
#    x 1.607720 0.000000 0.000000 
#    y 0.000000 1.642690 0.000000 
#    z 0.000000 0.000000 1.674830 
# 
# From -- ./inp_files/2672.got.cif
#   From: 2010.03.12/outbox.cif.g09.slc.cpg/sg63_2_cif.got.tgz:2672.got - 2010.04.10 19:34:48.
