data_PCOD8259859
_publ_section_title
;
Structure prediction by ZEFSAII (Michael W. Deem and Ramdas Pophale) SiO2 
 PCOD8259859
Probable space group: C M C M
;
_chemical_formula_sum "Si O2"
_cell_formula_units_Z 80
_cell_length_a 21.305831
_cell_length_b 8.986372
_cell_length_c 23.888685
_cell_angle_alpha 90.000000
_cell_angle_beta 90.000000
_cell_angle_gamma 90.000000
_cell_volume 4573.778349
_symmetry_space_group_name_H-M "C M C M"
_symmetry_group_IT_number 63
_symmetry_cell_setting 'orthorhombic'
loop_
_space_group_symop_operation_xyz
x,y,z
-x,-y,1/2+z
x,-y,-z
-x,y,1/2-z
-x,-y,-z
x,y,1/2-z
-x,y,z
x,-y,1/2+z
1/2+x,1/2+y,z
1/2-x,1/2-y,1/2+z
1/2+x,1/2-y,-z
1/2-x,1/2+y,1/2-z
1/2-x,1/2-y,-z
1/2+x,1/2+y,1/2-z
1/2-x,1/2+y,z
1/2+x,1/2-y,1/2+z
loop_
_atom_site_type_symbol
_atom_site_label
_atom_site_fract_x
_atom_site_fract_y
_atom_site_fract_z
Si Si1 0.500000 0.623781 0.952581
Si Si2 0.000000 0.936074 0.840360
Si Si3 0.814693 0.669200 0.750000
Si Si4 0.000000 0.381591 0.311265
Si Si5 0.430152 0.910476 0.554528
Si Si6 0.674030 0.728810 0.750000
Si Si7 0.373102 0.042711 0.167819
Si Si8 0.898645 0.946292 0.750000
O O1 0.500000 0.536318 0.894853
O O2 0.561561 0.732334 0.957149
O O3 0.500000 0.500000 0.000000
O O4 0.000000 0.757580 0.854857
O O5 0.061962 0.976890 0.805829
O O6 0.748776 0.753602 0.750000
O O7 0.821093 0.570882 0.807048
O O8 0.872714 0.780462 0.750000
O O9 0.941263 0.489850 0.313906
O O10 0.000000 0.300242 0.250000
O O11 0.500000 0.971191 0.573923
O O12 0.407827 0.000000 0.500000
O O13 0.375840 0.941459 0.600429
O O14 0.661065 0.554337 0.750000
O O15 0.642380 0.798010 0.694582
#
# Coordination Sequence:
#
# PCOD8259859 Si02
#       8
#     8   8   8   8  16   8  16   8
#     4  10  21  31  48  79 122 151 162 224 281 328
#     4  11  20  30  50  80 115 132 179 214 284 344
#     4  11  22  37  53  81 106 156 192 227 278 329
#     4  12  17  32  54  85 103 148 193 211 290 354
#     4   9  20  35  54  86 116 149 190 221 279 354
#     4  11  24  34  53  80 113 144 194 233 277 335
#     4  11  20  36  60  76 115 152 184 232 278 351
#     4  11  20  33  50  77 109 137 174 234 277 327
#
# _framework density 17.491008999999998
#
# number of rings (size 3 to 8) (size 9 to 14) (size 15 to 20)
#    0.600    0.800    6.000    2.400    2.800    1.600 
#    0.000    0.000    0.000    1.200    0.000    2.800 
#    0.000    0.000    0.000    0.000    0.000    0.000 
#
# Total GULP energy -495666.973940 kJ/mol
# GULP energy per Si atom -12391.674348 kJ/mol
# Density = 1.745120 g / cm^3
# Si number density = 17.491009 Si / 1000 Ang^3
#
#
#
# Elastic Constant Matrix: (Units=GPa)
#
#
# Indices 1 2 3 4 5 6 
#
# 1 68.3655 29.6741 33.3762 0.0000 0.0000 0.0000
# 2 29.6741 106.8776 56.2795 0.0000 0.0000 0.0000
# 3 33.3762 56.2795 139.1383 0.0000 0.0000 0.0000
# 4 0.0000 0.0000 0.0000 28.7940 0.0000 0.0000
# 5 0.0000 0.0000 0.0000 0.0000 18.3596 0.0000
# 6 0.0000 0.0000 0.0000 0.0000 0.0000 26.7966
#
#
#
# Elastic Compliance Matrix: (Units=1/GPa)
#
#
# Indices 1 2 3 4 5 6 
#
# 1 0.017467 -0.003359 -0.002831 0.000000 0.000000 0.000000
# 2 -0.003359 0.012535 -0.004264 0.000000 0.000000 0.000000
# 3 -0.002831 -0.004264 0.009591 0.000000 0.000000 0.000000
# 4 0.000000 0.000000 0.000000 0.034729 0.000000 0.000000
# 5 0.000000 0.000000 0.000000 0.000000 0.054467 0.000000
# 6 0.000000 0.000000 0.000000 0.000000 0.000000 0.037318
#
#
# Mechanical properties :
#
#
# Convention : Reuss Voigt Hill
#
# Bulk Modulus (GPa) = 53.52173 61.44898 57.48535
# Shear Modulus (GPa) = 25.87381 27.79347 26.83364
#
# Velocity S-wave (km/s) = 3.85029 3.99057 3.92106
# Velocity P-wave (km/s) = 7.10157 7.51271 7.31003
#
# Compressibility (1/GPa) = 0.01868400
#
# Stress axis : x y z
#
# Youngs Moduli (GPa) = 57.24923 79.77938 104.26246
#
# Poissons Ratio (x) = 0.26796 0.29522
# Poissons Ratio (y) = 0.19229 0.44461
# Poissons Ratio (z) = 0.16210 0.34021
#
# Static dielectric constant tensor:
#      x y z
#    x 2.924410 0.000000 0.000000 
#    y 0.000000 3.308920 0.000000 
#    z 0.000000 0.000000 3.264280 
# 
# 
# High freq. dielectric constant tensor:
#      x y z
#    x 1.641150 0.000000 0.000000 
#    y 0.000000 1.690650 0.000000 
#    z 0.000000 0.000000 1.662540 
# 
# From -- ./inp_files/64374.got.cif
#   From: 2010.03.12/outbox.cif.g09.slc.cpg/sg63_33_cif.got.tgz:64374.got - 2010.04.10 19:34:48.
