data_PCOD8259813
_publ_section_title
;
Structure prediction by ZEFSAII (Michael W. Deem and Ramdas Pophale) SiO2 
 PCOD8259813
Probable space group: C M C M
;
_chemical_formula_sum "Si O2"
_cell_formula_units_Z 112
_cell_length_a 24.105016
_cell_length_b 14.060293
_cell_length_c 14.612310
_cell_angle_alpha 90.000000
_cell_angle_beta 90.000000
_cell_angle_gamma 90.000000
_cell_volume 4952.456530
_symmetry_space_group_name_H-M "C M C M"
_symmetry_group_IT_number 63
_symmetry_cell_setting 'orthorhombic'
loop_
_space_group_symop_operation_xyz
x,y,z
-x,-y,1/2+z
x,-y,-z
-x,y,1/2-z
-x,-y,-z
x,y,1/2-z
-x,y,z
x,-y,1/2+z
1/2+x,1/2+y,z
1/2-x,1/2-y,1/2+z
1/2+x,1/2-y,-z
1/2-x,1/2+y,1/2-z
1/2-x,1/2-y,-z
1/2+x,1/2+y,1/2-z
1/2-x,1/2+y,z
1/2+x,1/2-y,1/2+z
loop_
_atom_site_type_symbol
_atom_site_label
_atom_site_fract_x
_atom_site_fract_y
_atom_site_fract_z
Si Si1 0.438906 0.219194 0.457478
Si Si2 0.849613 0.398314 0.852869
Si Si3 0.305481 0.904163 0.351005
Si Si4 0.648307 0.574176 0.349490
Si Si5 0.753285 0.859623 0.526835
Si Si6 0.437977 0.565616 0.587700
Si Si7 0.901992 0.731367 0.849557
O O1 0.500000 0.200521 0.418369
O O2 0.399059 0.143338 0.411846
O O3 0.419964 0.326816 0.436855
O O4 0.440449 0.199392 0.566744
O O5 0.854636 0.358873 0.750000
O O6 0.851837 0.512832 0.856343
O O7 0.790804 0.368740 0.892843
O O8 0.276265 0.906463 0.250000
O O9 0.260644 0.917901 0.432656
O O10 0.338889 0.806287 0.364593
O O11 0.679349 0.573929 0.250000
O O12 0.689560 0.596645 0.434165
O O13 0.613296 0.475779 0.353906
O O14 0.601352 0.655120 0.349942
O O15 0.750000 0.750000 0.500000
O O16 0.441817 0.500000 0.500000
O O17 0.500000 0.565565 0.634431
O O18 0.925035 0.696111 0.750000
#
# Coordination Sequence:
#
# PCOD8259813 Si02
#       7
#    16  16  16  16  16  16  16
#     4  11  23  43  72 101 131 180 233 284 348 411
#     4  11  25  45  66  94 134 180 225 279 341 399
#     4  10  22  43  69  94 132 178 222 277 344 407
#     4  11  23  40  65 100 137 179 230 277 334 411
#     4  12  23  41  68  97 136 177 221 280 340 399
#     4  10  22  41  66  97 137 178 224 281 343 408
#     4  10  20  39  65  98 136 171 218 278 340 406
#
# _framework density 22.61504
#
# number of rings (size 3 to 8) (size 9 to 14) (size 15 to 20)
#    0.000    1.286    4.286    0.857    0.000    3.143 
#    0.000    4.286    0.000    2.571    0.000    0.000 
#    0.000    0.000    0.000    0.000    0.000    0.000 
#
# Total GULP energy -693987.459413 kJ/mol
# GULP energy per Si atom -12392.633204 kJ/mol
# Density = 2.256357 g / cm^3
# Si number density = 22.615040 Si / 1000 Ang^3
#
#
#
# Elastic Constant Matrix: (Units=GPa)
#
#
# Indices 1 2 3 4 5 6 
#
# 1 88.3661 30.9462 48.0845 0.0000 0.0000 0.0000
# 2 30.9462 72.4483 45.9834 0.0000 0.0000 0.0000
# 3 48.0845 45.9834 159.9590 0.0000 0.0000 0.0000
# 4 0.0000 0.0000 0.0000 30.7519 0.0000 0.0000
# 5 0.0000 0.0000 0.0000 0.0000 -1.1422 0.0000
# 6 0.0000 0.0000 0.0000 0.0000 0.0000 33.3922
#
#
#
# Elastic Compliance Matrix: (Units=1/GPa)
#
#
# Indices 1 2 3 4 5 6 
#
# 1 0.014501 -0.004192 -0.003154 0.000000 0.000000 0.000000
# 2 -0.004192 0.018095 -0.003942 0.000000 0.000000 0.000000
# 3 -0.003154 -0.003942 0.008333 0.000000 0.000000 0.000000
# 4 0.000000 0.000000 0.000000 0.032518 0.000000 0.000000
# 5 0.000000 0.000000 0.000000 0.000000 -0.875483 0.000000
# 6 0.000000 0.000000 0.000000 0.000000 0.000000 0.029947
#
#
# Mechanical properties :
#
#
# Convention : Reuss Voigt Hill
#
# Bulk Modulus (GPa) = 54.48553 63.42241 58.95397
# Shear Modulus (GPa) = -6.72590 25.65101 9.46256
#
# Velocity S-wave (km/s) = -1.72642 3.37151 2.04775
# Velocity P-wave (km/s) = 4.49120 6.57734 5.63170
#
# Compressibility (1/GPa) = 0.01835350
#
# Stress axis : x y z
#
# Youngs Moduli (GPa) = 68.96130 55.26240 120.00776
#
# Poissons Ratio (x) = 0.23167 0.37849
# Poissons Ratio (y) = 0.28910 0.47303
# Poissons Ratio (z) = 0.21750 0.21783
#
# Static dielectric constant tensor:
#      x y z
#    x 5.267050 0.000000 0.000000 
#    y 0.000000 14.443670 0.000000 
#    z 0.000000 0.000000 3.894380 
# 
# 
# High freq. dielectric constant tensor:
#      x y z
#    x 1.863040 0.000000 0.000000 
#    y 0.000000 1.896960 0.000000 
#    z 0.000000 0.000000 1.902770 
# 
# From -- ./inp_files/36955.got.cif
#   From: 2010.03.12/outbox.cif.g09.slc.cpg/sg63_19_cif.got.tgz:36955.got - 2010.04.10 19:34:48.
