data_PCOD8259398
_publ_section_title
;
Structure prediction by ZEFSAII (Michael W. Deem and Ramdas Pophale) SiO2 
 PCOD8259398
Probable space group: C M C M
;
_chemical_formula_sum "Si O2"
_cell_formula_units_Z 80
_cell_length_a 8.892102
_cell_length_b 28.727473
_cell_length_c 16.891926
_cell_angle_alpha 90.000000
_cell_angle_beta 90.000000
_cell_angle_gamma 90.000000
_cell_volume 4315.002296
_symmetry_space_group_name_H-M "C M C M"
_symmetry_group_IT_number 63
_symmetry_cell_setting 'orthorhombic'
loop_
_space_group_symop_operation_xyz
x,y,z
-x,-y,1/2+z
x,-y,-z
-x,y,1/2-z
-x,-y,-z
x,y,1/2-z
-x,y,z
x,-y,1/2+z
1/2+x,1/2+y,z
1/2-x,1/2-y,1/2+z
1/2+x,1/2-y,-z
1/2-x,1/2+y,1/2-z
1/2-x,1/2-y,-z
1/2+x,1/2+y,1/2-z
1/2-x,1/2+y,z
1/2+x,1/2-y,1/2+z
loop_
_atom_site_type_symbol
_atom_site_label
_atom_site_fract_x
_atom_site_fract_y
_atom_site_fract_z
Si Si1 0.178884 0.232873 0.838862
Si Si2 0.322159 0.644945 0.937621
Si Si3 0.829429 0.432579 0.337323
Si Si4 0.325216 0.831683 0.598984
Si Si5 0.322973 0.492043 0.750000
Si Si6 0.328662 0.105007 0.250000
O O1 0.245005 0.229885 0.750000
O O2 0.240248 0.189383 0.889246
O O3 0.234440 0.280027 0.880858
O O4 0.000000 0.232943 0.834807
O O5 0.500000 0.642325 0.932521
O O6 0.256223 0.598099 0.901027
O O7 0.271704 0.648058 0.027791
O O8 0.825554 0.408126 0.250000
O O9 0.747042 0.482906 0.328477
O O10 0.000000 0.440579 0.366097
O O11 0.500000 0.830838 0.575038
O O12 0.295670 0.863996 0.673876
O O13 0.500000 0.498896 0.750000
O O14 0.283722 0.438048 0.750000
O O15 0.500000 0.086796 0.250000
#
# Coordination Sequence:
#
# PCOD8259398 Si02
#       6
#    16  16  16  16   8   8
#     4   9  17  32  54  81 111 150 194 229 269 325
#     4  11  21  32  53  85 120 151 182 229 285 327
#     4   9  19  36  58  83 112 144 184 225 267 330
#     4  10  20  36  57  78 109 150 196 234 269 328
#     4  10  20  36  61  86 111 141 174 227 289 340
#     4  10  20  38  61  80 101 145 194 233 277 330
#
# _framework density 18.539967000000001
#
# number of rings (size 3 to 8) (size 9 to 14) (size 15 to 20)
#    0.600    1.600    1.000    3.000    0.000    1.600 
#    0.000    2.000    0.000    8.400    0.000    0.000 
#    0.000    0.000    0.000    0.000    0.000    0.000 
#
# Total GULP energy -495942.822796 kJ/mol
# GULP energy per Si atom -12398.570570 kJ/mol
# Density = 1.849777 g / cm^3
# Si number density = 18.539967 Si / 1000 Ang^3
#
#
#
# Elastic Constant Matrix: (Units=GPa)
#
#
# Indices 1 2 3 4 5 6 
#
# 1 88.3715 40.1857 31.6649 0.0000 0.0000 0.0000
# 2 40.1857 99.0828 23.3392 0.0000 0.0000 0.0000
# 3 31.6649 23.3392 87.0401 0.0000 0.0000 0.0000
# 4 0.0000 0.0000 0.0000 -38.9271 0.0000 0.0000
# 5 0.0000 0.0000 0.0000 0.0000 15.4958 0.0000
# 6 0.0000 0.0000 0.0000 0.0000 0.0000 26.0695
#
#
#
# Elastic Compliance Matrix: (Units=1/GPa)
#
#
# Indices 1 2 3 4 5 6 
#
# 1 0.015145 -0.005171 -0.004123 0.000000 0.000000 0.000000
# 2 -0.005171 0.012539 -0.001481 0.000000 0.000000 0.000000
# 3 -0.004123 -0.001481 0.013386 0.000000 0.000000 0.000000
# 4 0.000000 0.000000 0.000000 -0.025689 0.000000 0.000000
# 5 0.000000 0.000000 0.000000 0.000000 0.064534 0.000000
# 6 0.000000 0.000000 0.000000 0.000000 0.000000 0.038359
#
#
# Mechanical properties :
#
#
# Convention : Reuss Voigt Hill
#
# Bulk Modulus (GPa) = 51.23139 51.65264 51.44202
# Shear Modulus (GPa) = 34.16944 12.48128 23.32536
#
# Velocity S-wave (km/s) = 4.29769 2.59744 3.55084
# Velocity P-wave (km/s) = 7.23324 6.07587 6.67967
#
# Compressibility (1/GPa) = 0.01951928
#
# Stress axis : x y z
#
# Youngs Moduli (GPa) = 66.02965 79.75303 74.70502
#
# Poissons Ratio (x) = 0.41242 0.30801
# Poissons Ratio (y) = 0.34145 0.11063
# Poissons Ratio (z) = 0.27224 0.11811
#
# Static dielectric constant tensor:
#      x y z
#    x 3.186490 0.000000 0.000000 
#    y 0.000000 3.352880 0.000000 
#    z 0.000000 0.000000 3.316040 
# 
# 
# High freq. dielectric constant tensor:
#      x y z
#    x 1.704870 0.000000 0.000000 
#    y 0.000000 1.718230 0.000000 
#    z 0.000000 0.000000 1.713570 
# 
# From -- ./inp_files/40748.got.cif
#   From: 2010.03.12/outbox.cif.g09.slc.cpg/sg63_21_cif.got.tgz:40748.got - 2010.04.10 19:34:48.
