data_PCOD8259422
_publ_section_title
;
Structure prediction by ZEFSAII (Michael W. Deem and Ramdas Pophale) SiO2 
 PCOD8259422
Probable space group: C M C M
;
_chemical_formula_sum "Si O2"
_cell_formula_units_Z 72
_cell_length_a 15.798933
_cell_length_b 15.231670
_cell_length_c 14.604234
_cell_angle_alpha 90.000000
_cell_angle_beta 90.000000
_cell_angle_gamma 90.000000
_cell_volume 3514.423241
_symmetry_space_group_name_H-M "C M C M"
_symmetry_group_IT_number 63
_symmetry_cell_setting 'orthorhombic'
loop_
_space_group_symop_operation_xyz
x,y,z
-x,-y,1/2+z
x,-y,-z
-x,y,1/2-z
-x,-y,-z
x,y,1/2-z
-x,y,z
x,-y,1/2+z
1/2+x,1/2+y,z
1/2-x,1/2-y,1/2+z
1/2+x,1/2-y,-z
1/2-x,1/2+y,1/2-z
1/2-x,1/2-y,-z
1/2+x,1/2+y,1/2-z
1/2-x,1/2+y,z
1/2+x,1/2-y,1/2+z
loop_
_atom_site_type_symbol
_atom_site_label
_atom_site_fract_x
_atom_site_fract_y
_atom_site_fract_z
Si Si1 0.646415 0.307488 0.353922
Si Si2 0.322719 0.883731 0.854540
Si Si3 0.000000 0.925049 0.858938
Si Si4 0.823438 0.999097 0.144783
Si Si5 0.500000 0.091854 0.049476
Si Si6 0.500000 0.718898 0.994921
O O1 0.607007 0.308540 0.250000
O O2 0.702694 0.219328 0.365327
O O3 0.700587 0.396443 0.368308
O O4 0.578114 0.308167 0.432764
O O5 0.326323 0.912807 0.750000
O O6 0.249436 0.941886 0.904344
O O7 0.415926 0.903001 0.890531
O O8 0.917497 0.979455 0.893246
O O9 0.000000 0.909061 0.750000
O O10 0.000000 0.830494 0.908261
O O11 0.825556 0.026585 0.250000
O O12 0.500000 0.176604 0.982144
O O13 0.500000 0.000000 0.000000
#
# Coordination Sequence:
#
# PCOD8259422 Si02
#       6
#    16  16   8  16   8   8
#     4   9  17  32  57  86 113 142 185 237 278 325
#     4   9  18  36  60  82 108 145 188 231 278 330
#     4  10  21  38  55  78 118 150 182 231 279 339
#     4   9  18  34  56  84 115 148 183 227 280 332
#     4  10  21  40  55  79 111 143 186 242 275 326
#     4  10  20  36  57  83 108 146 194 228 287 332
#
# _framework density 20.487003999999999
#
# number of rings (size 3 to 8) (size 9 to 14) (size 15 to 20)
#    0.000    2.667    0.000    1.333    0.000    6.222 
#    8.000    3.333    0.000    0.000    0.000    0.000 
#    0.000    0.000    0.000    0.000    0.000    0.000 
#
# Total GULP energy -445990.909940 kJ/mol
# GULP energy per Si atom -12388.636387 kJ/mol
# Density = 2.044037 g / cm^3
# Si number density = 20.487004 Si / 1000 Ang^3
#
#
#
# Elastic Constant Matrix: (Units=GPa)
#
#
# Indices 1 2 3 4 5 6 
#
# 1 139.9082 84.8354 8.7097 0.0000 0.0000 0.0000
# 2 84.8354 202.4150 41.7719 0.0000 0.0000 0.0000
# 3 8.7097 41.7719 46.1779 0.0000 0.0000 0.0000
# 4 0.0000 0.0000 0.0000 26.6454 0.0000 0.0000
# 5 0.0000 0.0000 0.0000 0.0000 2.9974 0.0000
# 6 0.0000 0.0000 0.0000 0.0000 0.0000 25.3664
#
#
#
# Elastic Compliance Matrix: (Units=1/GPa)
#
#
# Indices 1 2 3 4 5 6 
#
# 1 0.009776 -0.004570 0.002290 0.000000 0.000000 0.000000
# 2 -0.004570 0.008210 -0.006565 0.000000 0.000000 0.000000
# 3 0.002290 -0.006565 0.027162 0.000000 0.000000 0.000000
# 4 0.000000 0.000000 0.000000 0.037530 0.000000 0.000000
# 5 0.000000 0.000000 0.000000 0.000000 0.333627 0.000000
# 6 0.000000 0.000000 0.000000 0.000000 0.000000 0.039422
#
#
# Mechanical properties :
#
#
# Convention : Reuss Voigt Hill
#
# Bulk Modulus (GPa) = 36.41847 73.23722 54.82785
# Shear Modulus (GPa) = 10.36118 27.88078 19.12098
#
# Velocity S-wave (km/s) = 2.25131 3.69304 3.05835
# Velocity P-wave (km/s) = 4.95710 7.34918 6.26831
#
# Compressibility (1/GPa) = 0.02745859
#
# Stress axis : x y z
#
# Youngs Moduli (GPa) = 102.29146 121.79552 36.81584
#
# Poissons Ratio (x) = 0.55659 -0.08431
# Poissons Ratio (y) = 0.46746 0.24170
# Poissons Ratio (z) = -0.23424 0.79961
#
# Static dielectric constant tensor:
#      x y z
#    x 4.218650 0.000000 0.000000 
#    y 0.000000 4.071710 0.000000 
#    z 0.000000 0.000000 3.457380 
# 
# 
# High freq. dielectric constant tensor:
#      x y z
#    x 1.782600 0.000000 0.000000 
#    y 0.000000 1.816920 0.000000 
#    z 0.000000 0.000000 1.779780 
# 
# From -- ./inp_files/33691.got.cif
#   From: 2010.03.12/outbox.cif.g09.slc.cpg/sg63_17_cif.got.tgz:33691.got - 2010.04.10 19:34:48.
