data_PCOD8259655
_publ_section_title
;
Structure prediction by ZEFSAII (Michael W. Deem and Ramdas Pophale) SiO2 
 PCOD8259655
Probable space group: C M C M
;
_chemical_formula_sum "Si O2"
_cell_formula_units_Z 80
_cell_length_a 12.227544
_cell_length_b 17.542643
_cell_length_c 19.686768
_cell_angle_alpha 90.000000
_cell_angle_beta 90.000000
_cell_angle_gamma 90.000000
_cell_volume 4222.879442
_symmetry_space_group_name_H-M "C M C M"
_symmetry_group_IT_number 63
_symmetry_cell_setting 'orthorhombic'
loop_
_space_group_symop_operation_xyz
x,y,z
-x,-y,1/2+z
x,-y,-z
-x,y,1/2-z
-x,-y,-z
x,y,1/2-z
-x,y,z
x,-y,1/2+z
1/2+x,1/2+y,z
1/2-x,1/2-y,1/2+z
1/2+x,1/2-y,-z
1/2-x,1/2+y,1/2-z
1/2-x,1/2-y,-z
1/2+x,1/2+y,1/2-z
1/2-x,1/2+y,z
1/2+x,1/2-y,1/2+z
loop_
_atom_site_type_symbol
_atom_site_label
_atom_site_fract_x
_atom_site_fract_y
_atom_site_fract_z
Si Si1 0.878102 0.018932 0.427490
Si Si2 0.500000 0.194703 0.330847
Si Si3 0.380720 0.686444 0.039981
Si Si4 0.000000 0.518061 0.169539
Si Si5 0.721080 0.937696 0.170243
Si Si6 0.696887 0.710919 0.604001
O O1 0.881983 0.109050 0.417929
O O2 0.000000 0.983132 0.426719
O O3 0.821062 0.000000 0.500000
O O4 0.814876 0.987239 0.363474
O O5 0.500000 0.197552 0.250000
O O6 0.608429 0.237647 0.356792
O O7 0.500000 0.106243 0.357102
O O8 0.500000 0.726231 0.045125
O O9 0.291888 0.737722 0.074793
O O10 0.358021 0.668791 0.960249
O O11 0.895021 0.470292 0.143134
O O12 0.000000 0.520390 0.250000
O O13 0.729939 0.949021 0.250000
O O14 0.743255 0.849466 0.152832
#
# Coordination Sequence:
#
# PCOD8259655 Si02
#       6
#    16   8  16   8  16  16
#     4  10  20  37  60  86 121 158 195 246 304 362
#     4  11  22  40  63  90 125 163 210 265 315 371
#     4  10  21  39  60  85 125 161 198 249 309 373
#     4   9  22  42  60  82 124 168 203 252 315 369
#     4  11  23  40  63  90 122 162 209 258 308 369
#     4  11  22  36  61  92 122 157 208 254 309 367
#
# _framework density 18.944419
#
# number of rings (size 3 to 8) (size 9 to 14) (size 15 to 20)
#    0.000    1.600    3.000    1.800    2.800    0.400 
#    0.000    1.500    0.000    2.400    0.000    0.000 
#    0.000    0.000    0.000    0.000    0.000    0.000 
#
# Total GULP energy -495882.166295 kJ/mol
# GULP energy per Si atom -12397.054157 kJ/mol
# Density = 1.890130 g / cm^3
# Si number density = 18.944419 Si / 1000 Ang^3
#
#
#
# Elastic Constant Matrix: (Units=GPa)
#
#
# Indices 1 2 3 4 5 6 
#
# 1 125.0812 60.2183 52.0010 0.0000 0.0000 0.0000
# 2 60.2183 103.7213 37.8067 0.0000 0.0000 0.0000
# 3 52.0010 37.8067 92.8488 0.0000 0.0000 0.0000
# 4 0.0000 0.0000 0.0000 26.8678 0.0000 0.0000
# 5 0.0000 0.0000 0.0000 0.0000 27.0896 0.0000
# 6 0.0000 0.0000 0.0000 0.0000 0.0000 30.2875
#
#
#
# Elastic Compliance Matrix: (Units=1/GPa)
#
#
# Indices 1 2 3 4 5 6 
#
# 1 0.012707 -0.005617 -0.004829 0.000000 0.000000 0.000000
# 2 -0.005617 0.013804 -0.002475 0.000000 0.000000 0.000000
# 3 -0.004829 -0.002475 0.014483 0.000000 0.000000 0.000000
# 4 0.000000 0.000000 0.000000 0.037219 0.000000 0.000000
# 5 0.000000 0.000000 0.000000 0.000000 0.036915 0.000000
# 6 0.000000 0.000000 0.000000 0.000000 0.000000 0.033017
#
#
# Mechanical properties :
#
#
# Convention : Reuss Voigt Hill
#
# Bulk Modulus (GPa) = 66.00210 69.07814 67.54012
# Shear Modulus (GPa) = 27.92699 28.29066 28.10882
#
# Velocity S-wave (km/s) = 3.84364 3.86858 3.85613
# Velocity P-wave (km/s) = 7.39010 7.51647 7.45355
#
# Compressibility (1/GPa) = 0.01515103
#
# Stress axis : x y z
#
# Youngs Moduli (GPa) = 78.69828 72.44020 69.04730
#
# Poissons Ratio (x) = 0.40689 0.33346
# Poissons Ratio (y) = 0.44204 0.17090
# Poissons Ratio (z) = 0.38007 0.17930
#
# Static dielectric constant tensor:
#      x y z
#    x 3.725680 0.000000 0.000000 
#    y 0.000000 3.659330 0.000000 
#    z 0.000000 0.000000 3.428520 
# 
# 
# High freq. dielectric constant tensor:
#      x y z
#    x 1.747710 0.000000 0.000000 
#    y 0.000000 1.745080 0.000000 
#    z 0.000000 0.000000 1.724080 
# 
# From -- ./inp_files/42168.got.cif
#   From: 2010.03.12/outbox.cif.g09.slc.cpg/sg63_22_cif.got.tgz:42168.got - 2010.04.10 19:34:48.
