data_PCOD8259712
_publ_section_title
;
Structure prediction by ZEFSAII (Michael W. Deem and Ramdas Pophale) SiO2 
 PCOD8259712
Probable space group: C M C M
;
_chemical_formula_sum "Si O2"
_cell_formula_units_Z 64
_cell_length_a 9.065787
_cell_length_b 37.234630
_cell_length_c 9.706801
_cell_angle_alpha 90.000000
_cell_angle_beta 90.000000
_cell_angle_gamma 90.000000
_cell_volume 3276.639633
_symmetry_space_group_name_H-M "C M C M"
_symmetry_group_IT_number 63
_symmetry_cell_setting 'orthorhombic'
loop_
_space_group_symop_operation_xyz
x,y,z
-x,-y,1/2+z
x,-y,-z
-x,y,1/2-z
-x,-y,-z
x,y,1/2-z
-x,y,z
x,-y,1/2+z
1/2+x,1/2+y,z
1/2-x,1/2-y,1/2+z
1/2+x,1/2-y,-z
1/2-x,1/2+y,1/2-z
1/2-x,1/2-y,-z
1/2+x,1/2+y,1/2-z
1/2-x,1/2+y,z
1/2+x,1/2-y,1/2+z
loop_
_atom_site_type_symbol
_atom_site_label
_atom_site_fract_x
_atom_site_fract_y
_atom_site_fract_z
Si Si1 0.827028 0.329060 0.462236
Si Si2 0.327451 0.800921 0.750000
Si Si3 0.825204 0.966520 0.908725
Si Si4 0.671988 0.910007 0.404812
Si Si5 0.175401 0.220497 0.750000
O O1 0.779530 0.324615 0.620184
O O2 0.781426 0.368512 0.412657
O O3 0.735139 0.299170 0.384050
O O4 0.000000 0.322385 0.436198
O O5 0.500000 0.794749 0.750000
O O6 0.258808 0.760939 0.750000
O O7 0.769895 0.970061 0.750000
O O8 0.000000 0.964050 0.912597
O O9 0.761377 0.069018 0.021154
O O10 0.768215 0.000000 0.000000
O O11 0.709271 0.923929 0.250000
O O12 0.500000 0.914704 0.437614
O O13 0.000000 0.219382 0.750000
#
# Coordination Sequence:
#
# PCOD8259712 Si02
#       5
#    16   8  16  16   8
#     4  10  20  38  59  80 111 153 193 234 287 344
#     4   9  20  35  57  83 110 147 194 241 288 341
#     4  10  22  40  62  88 118 153 188 223 275 337
#     4  10  21  37  59  86 113 148 195 237 278 332
#     4  11  21  35  55  85 114 145 192 241 288 341
#
# _framework density 19.532208000000001
#
# number of rings (size 3 to 8) (size 9 to 14) (size 15 to 20)
#    0.000    2.000    1.250    1.875    1.750    3.500 
#    0.000    1.875    0.000    0.000    0.000    0.000 
#    0.000    0.000    0.000    0.000    0.000    0.000 
#
# Total GULP energy -396805.443922 kJ/mol
# GULP energy per Si atom -12400.170123 kJ/mol
# Density = 1.948775 g / cm^3
# Si number density = 19.532208 Si / 1000 Ang^3
#
#
#
# Elastic Constant Matrix: (Units=GPa)
#
#
# Indices 1 2 3 4 5 6 
#
# 1 29.4914 21.8494 26.3695 0.0000 0.0000 0.0000
# 2 21.8494 83.8460 45.7136 0.0000 0.0000 0.0000
# 3 26.3695 45.7136 159.3969 0.0000 0.0000 0.0000
# 4 0.0000 0.0000 0.0000 40.6755 0.0000 0.0000
# 5 0.0000 0.0000 0.0000 0.0000 31.1047 0.0000
# 6 0.0000 0.0000 0.0000 0.0000 0.0000 28.3654
#
#
#
# Elastic Compliance Matrix: (Units=1/GPa)
#
#
# Indices 1 2 3 4 5 6 
#
# 1 0.044957 -0.009080 -0.004833 0.000000 0.000000 0.000000
# 2 -0.009080 0.015971 -0.003078 0.000000 0.000000 0.000000
# 3 -0.004833 -0.003078 0.007956 0.000000 0.000000 0.000000
# 4 0.000000 0.000000 0.000000 0.024585 0.000000 0.000000
# 5 0.000000 0.000000 0.000000 0.000000 0.032149 0.000000
# 6 0.000000 0.000000 0.000000 0.000000 0.000000 0.035254
#
#
# Mechanical properties :
#
#
# Convention : Reuss Voigt Hill
#
# Bulk Modulus (GPa) = 28.65255 51.17769 39.91512
# Shear Modulus (GPa) = 24.21427 31.94925 28.08176
#
# Velocity S-wave (km/s) = 3.52477 4.04879 3.79584
# Velocity P-wave (km/s) = 5.59165 6.93654 6.30008
#
# Compressibility (1/GPa) = 0.03490091
#
# Stress axis : x y z
#
# Youngs Moduli (GPa) = 22.24338 62.61305 125.69090
#
# Poissons Ratio (x) = 0.56854 0.60750
# Poissons Ratio (y) = 0.20198 0.38690
# Poissons Ratio (z) = 0.10751 0.19274
#
# Static dielectric constant tensor:
#      x y z
#    x 3.282190 0.000000 0.000000 
#    y 0.000000 3.583730 0.000000 
#    z 0.000000 0.000000 4.369000 
# 
# 
# High freq. dielectric constant tensor:
#      x y z
#    x 1.734610 0.000000 0.000000 
#    y 0.000000 1.767170 0.000000 
#    z 0.000000 0.000000 1.780440 
# 
# From -- ./inp_files/16272.got.cif
#   From: 2010.03.12/outbox.cif.g09.slc.cpg/sg63_9_cif.got.tgz:16272.got - 2010.04.10 19:34:48.
