data_PCOD8259136
_publ_section_title
;
Structure prediction by ZEFSAII (Michael W. Deem and Ramdas Pophale) SiO2 
 PCOD8259136
Probable space group: C M C M
;
_chemical_formula_sum "Si O2"
_cell_formula_units_Z 104
_cell_length_a 20.121419
_cell_length_b 31.531629
_cell_length_c 8.953402
_cell_angle_alpha 90.000000
_cell_angle_beta 90.000000
_cell_angle_gamma 90.000000
_cell_volume 5680.585451
_symmetry_space_group_name_H-M "C M C M"
_symmetry_group_IT_number 63
_symmetry_cell_setting 'orthorhombic'
loop_
_space_group_symop_operation_xyz
x,y,z
-x,-y,1/2+z
x,-y,-z
-x,y,1/2-z
-x,-y,-z
x,y,1/2-z
-x,y,z
x,-y,1/2+z
1/2+x,1/2+y,z
1/2-x,1/2-y,1/2+z
1/2+x,1/2-y,-z
1/2-x,1/2+y,1/2-z
1/2-x,1/2-y,-z
1/2+x,1/2+y,1/2-z
1/2-x,1/2+y,z
1/2+x,1/2-y,1/2+z
loop_
_atom_site_type_symbol
_atom_site_label
_atom_site_fract_x
_atom_site_fract_y
_atom_site_fract_z
Si Si1 0.255953 0.458297 0.573239
Si Si2 0.194092 0.866586 0.924656
Si Si3 0.871209 0.573215 0.919377
Si Si4 0.318550 0.167275 0.917515
Si Si5 0.924085 0.176190 0.921593
Si Si6 0.425181 0.774082 0.924991
Si Si7 0.000000 0.454389 0.573027
O O1 0.290863 0.500000 0.500000
O O2 0.250006 0.463965 0.750000
O O3 0.296595 0.415929 0.530129
O O4 0.183352 0.455656 0.499782
O O5 0.202462 0.860771 0.750000
O O6 0.248103 0.835314 0.998737
O O7 0.120951 0.853370 0.975179
O O8 0.882158 0.556505 0.750000
O O9 0.851532 0.621752 0.918665
O O10 0.936861 0.571431 0.017493
O O11 0.304424 0.183052 0.750000
O O12 0.368903 0.199797 0.992184
O O13 0.904577 0.168459 0.750000
O O14 0.913382 0.225072 0.964366
O O15 0.000000 0.162829 0.950647
O O16 0.418001 0.782243 0.750000
O O17 0.500000 0.787308 0.976356
O O18 0.000000 0.500000 0.500000
O O19 0.000000 0.457917 0.750000
#
# Coordination Sequence:
#
# PCOD8259136 Si02
#       7
#    16  16  16  16  16  16   8
#     4  10  20  35  55  79 105 135 172 213 261 316
#     4  10  21  36  56  82 110 139 176 219 264 316
#     4  10  21  36  51  71 101 135 174 221 267 314
#     4  10  21  35  53  77 106 141 181 223 267 313
#     4   9  19  37  59  82 109 141 176 214 263 321
#     4   9  19  35  54  77 107 144 183 223 267 316
#     4  12  24  36  50  68  94 132 176 222 272 320
#
# _framework density 18.307970999999998
#
# number of rings (size 3 to 8) (size 9 to 14) (size 15 to 20)
#    0.000    2.154    0.000    3.923    1.077    5.538 
#    0.000    1.538    0.000    0.462    0.000    0.000 
#    0.000    0.000    0.000    0.000    0.000    0.000 
#
# Total GULP energy -644834.431892 kJ/mol
# GULP energy per Si atom -12400.662152 kJ/mol
# Density = 1.826630 g / cm^3
# Si number density = 18.307971 Si / 1000 Ang^3
#
#
#
# Elastic Constant Matrix: (Units=GPa)
#
#
# Indices 1 2 3 4 5 6 
#
# 1 100.8024 51.7857 47.5450 0.0000 0.0000 0.0000
# 2 51.7857 76.8343 46.4055 0.0000 0.0000 0.0000
# 3 47.5450 46.4055 102.4561 0.0000 0.0000 0.0000
# 4 0.0000 0.0000 0.0000 32.3966 0.0000 0.0000
# 5 0.0000 0.0000 0.0000 0.0000 34.9860 0.0000
# 6 0.0000 0.0000 0.0000 0.0000 0.0000 14.0734
#
#
#
# Elastic Compliance Matrix: (Units=1/GPa)
#
#
# Indices 1 2 3 4 5 6 
#
# 1 0.016040 -0.008693 -0.003506 0.000000 0.000000 0.000000
# 2 -0.008693 0.022628 -0.006215 0.000000 0.000000 0.000000
# 3 -0.003506 -0.006215 0.014202 0.000000 0.000000 0.000000
# 4 0.000000 0.000000 0.000000 0.030867 0.000000 0.000000
# 5 0.000000 0.000000 0.000000 0.000000 0.028583 0.000000
# 6 0.000000 0.000000 0.000000 0.000000 0.000000 0.071056
#
#
# Mechanical properties :
#
#
# Convention : Reuss Voigt Hill
#
# Bulk Modulus (GPa) = 62.33658 63.50723 62.92191
# Shear Modulus (GPa) = 22.16789 25.24832 23.70811
#
# Velocity S-wave (km/s) = 3.48348 3.71764 3.60246
# Velocity P-wave (km/s) = 7.09241 7.29324 7.19353
#
# Compressibility (1/GPa) = 0.01604194
#
# Stress axis : x y z
#
# Youngs Moduli (GPa) = 62.34351 44.19349 70.41263
#
# Poissons Ratio (x) = 0.38419 0.24686
# Poissons Ratio (y) = 0.54198 0.43759
# Poissons Ratio (z) = 0.21857 0.27464
#
# Static dielectric constant tensor:
#      x y z
#    x 3.244390 0.000000 0.000000 
#    y 0.000000 3.333870 0.000000 
#    z 0.000000 0.000000 3.524700 
# 
# 
# High freq. dielectric constant tensor:
#      x y z
#    x 1.699090 0.000000 0.000000 
#    y 0.000000 1.707950 0.000000 
#    z 0.000000 0.000000 1.720410 
# 
# From -- ./inp_files/8806.got.cif
#   From: 2010.03.12/outbox.cif.g09.slc.cpg/sg63_5_cif.got.tgz:8806.got - 2010.04.10 19:34:48.
