data_PCOD8259867
_publ_section_title
;
Structure prediction by ZEFSAII (Michael W. Deem and Ramdas Pophale) SiO2 
 PCOD8259867
Probable space group: C M C M
;
_chemical_formula_sum "Si O2"
_cell_formula_units_Z 128
_cell_length_a 17.437634
_cell_length_b 19.494948
_cell_length_c 21.612395
_cell_angle_alpha 90.000000
_cell_angle_beta 90.000000
_cell_angle_gamma 90.000000
_cell_volume 7347.042218
_symmetry_space_group_name_H-M "C M C M"
_symmetry_group_IT_number 63
_symmetry_cell_setting 'orthorhombic'
loop_
_space_group_symop_operation_xyz
x,y,z
-x,-y,1/2+z
x,-y,-z
-x,y,1/2-z
-x,-y,-z
x,y,1/2-z
-x,y,z
x,-y,1/2+z
1/2+x,1/2+y,z
1/2-x,1/2-y,1/2+z
1/2+x,1/2-y,-z
1/2-x,1/2+y,1/2-z
1/2-x,1/2-y,-z
1/2+x,1/2+y,1/2-z
1/2-x,1/2+y,z
1/2+x,1/2-y,1/2+z
loop_
_atom_site_type_symbol
_atom_site_label
_atom_site_fract_x
_atom_site_fract_y
_atom_site_fract_z
Si Si1 0.311436 0.205723 0.179940
Si Si2 0.089184 0.604856 0.388565
Si Si3 0.088790 0.838152 0.180843
Si Si4 0.915173 0.461755 0.064069
Si Si5 0.088978 0.061341 0.920214
Si Si6 0.664499 0.159740 0.508327
Si Si7 0.697135 0.701597 0.071092
Si Si8 0.088332 0.912043 0.940813
O O1 0.279337 0.201575 0.250000
O O2 0.356239 0.135553 0.164459
O O3 0.372357 0.265618 0.171938
O O4 0.243124 0.222370 0.132518
O O5 0.110594 0.523438 0.390067
O O6 0.104447 0.646232 0.452841
O O7 0.000000 0.614496 0.372052
O O8 0.100543 0.866992 0.250000
O O9 0.126897 0.892547 0.133483
O O10 0.000000 0.826730 0.165003
O O11 0.851166 0.401009 0.059074
O O12 0.000000 0.432230 0.082734
O O13 0.924685 0.500000 0.000000
O O14 0.000000 0.051218 0.905953
O O15 0.124869 0.985018 0.920491
O O16 0.099837 0.098244 0.985775
O O17 0.653633 0.232936 0.541777
O O18 0.750104 0.161682 0.479601
O O19 0.632782 0.648480 0.093628
O O20 0.000000 0.907193 0.922038
#
# Coordination Sequence:
#
# PCOD8259867 Si02
#       8
#    16  16  16  16  16  16  16  16
#     4  10  21  36  49  68 104 138 168 206 246 290
#     4   9  17  30  51  78 104 130 162 200 248 305
#     4   9  17  30  51  75  97 129 166 198 240 295
#     4   8  14  28  47  70 102 133 158 191 241 295
#     4   8  16  31  49  71 100 124 153 205 257 300
#     4   9  18  30  45  71 107 128 162 202 246 295
#     4  10  21  33  46  72  97 132 170 205 248 297
#     4   9  18  33  50  71  96 126 161 206 264 305
#
# _framework density 17.421977999999999
#
# number of rings (size 3 to 8) (size 9 to 14) (size 15 to 20)
#    0.000    3.000    0.000    2.250    5.250    1.750 
#   11.250    0.625    0.000    3.375    0.000    0.000 
#    0.000    0.000    0.000    0.000    0.000    0.000 
#
# Total GULP energy -793025.703195 kJ/mol
# GULP energy per Si atom -12391.026612 kJ/mol
# Density = 1.738232 g / cm^3
# Si number density = 17.421978 Si / 1000 Ang^3
#
#
#
# Elastic Constant Matrix: (Units=GPa)
#
#
# Indices 1 2 3 4 5 6 
#
# 1 45.1305 37.6495 19.4520 0.0000 0.0000 0.0000
# 2 37.6495 104.9333 39.6856 0.0000 0.0000 0.0000
# 3 19.4520 39.6856 65.8573 0.0000 0.0000 0.0000
# 4 0.0000 0.0000 0.0000 26.1930 0.0000 0.0000
# 5 0.0000 0.0000 0.0000 0.0000 15.0184 0.0000
# 6 0.0000 0.0000 0.0000 0.0000 0.0000 26.8993
#
#
#
# Elastic Compliance Matrix: (Units=1/GPa)
#
#
# Indices 1 2 3 4 5 6 
#
# 1 0.032167 -0.010294 -0.003298 0.000000 0.000000 0.000000
# 2 -0.010294 0.015637 -0.006382 0.000000 0.000000 0.000000
# 3 -0.003298 -0.006382 0.020004 0.000000 0.000000 0.000000
# 4 0.000000 0.000000 0.000000 0.038178 0.000000 0.000000
# 5 0.000000 0.000000 0.000000 0.000000 0.066585 0.000000
# 6 0.000000 0.000000 0.000000 0.000000 0.000000 0.037176
#
#
# Mechanical properties :
#
#
# Convention : Reuss Voigt Hill
#
# Bulk Modulus (GPa) = 35.89375 45.49945 40.69660
# Shear Modulus (GPa) = 19.30627 21.56440 20.43533
#
# Velocity S-wave (km/s) = 3.33251 3.52201 3.42857
# Velocity P-wave (km/s) = 5.95439 6.53546 6.25168
#
# Compressibility (1/GPa) = 0.02786000
#
# Stress axis : x y z
#
# Youngs Moduli (GPa) = 31.08759 63.95012 49.98888
#
# Poissons Ratio (x) = 0.65831 0.16485
# Poissons Ratio (y) = 0.32002 0.31905
# Poissons Ratio (z) = 0.10252 0.40816
#
# Static dielectric constant tensor:
#      x y z
#    x 3.049450 0.000000 0.000000 
#    y 0.000000 3.611250 0.000000 
#    z 0.000000 0.000000 3.175750 
# 
# 
# High freq. dielectric constant tensor:
#      x y z
#    x 1.652870 0.000000 0.000000 
#    y 0.000000 1.677810 0.000000 
#    z 0.000000 0.000000 1.638020 
# 
# From -- ./inp_files/56946.got.cif
#   From: 2010.03.12/outbox.cif.g09.slc.cpg/sg63_29_cif.got.tgz:56946.got - 2010.04.10 19:34:48.
