data_PCOD8259364
_publ_section_title
;
Structure prediction by ZEFSAII (Michael W. Deem and Ramdas Pophale) SiO2 
 PCOD8259364
Probable space group: C M C M
;
_chemical_formula_sum "Si O2"
_cell_formula_units_Z 80
_cell_length_a 27.668366
_cell_length_b 17.641783
_cell_length_c 8.612787
_cell_angle_alpha 90.000000
_cell_angle_beta 90.000000
_cell_angle_gamma 90.000000
_cell_volume 4204.067638
_symmetry_space_group_name_H-M "C M C M"
_symmetry_group_IT_number 63
_symmetry_cell_setting 'orthorhombic'
loop_
_space_group_symop_operation_xyz
x,y,z
-x,-y,1/2+z
x,-y,-z
-x,y,1/2-z
-x,-y,-z
x,y,1/2-z
-x,y,z
x,-y,1/2+z
1/2+x,1/2+y,z
1/2-x,1/2-y,1/2+z
1/2+x,1/2-y,-z
1/2-x,1/2+y,1/2-z
1/2-x,1/2-y,-z
1/2+x,1/2+y,1/2-z
1/2-x,1/2+y,z
1/2+x,1/2-y,1/2+z
loop_
_atom_site_type_symbol
_atom_site_label
_atom_site_fract_x
_atom_site_fract_y
_atom_site_fract_z
Si Si1 0.804232 0.154120 0.569730
Si Si2 0.853821 0.701073 0.567814
Si Si3 0.597011 0.578808 0.928836
Si Si4 0.554903 0.265617 0.433068
Si Si5 0.711880 0.917500 0.568004
O O1 0.788905 0.154394 0.750000
O O2 0.822678 0.237082 0.524785
O O3 0.846394 0.093034 0.537866
O O4 0.758843 0.133430 0.464435
O O5 0.847344 0.713246 0.750000
O O6 0.910234 0.706787 0.521216
O O7 0.834659 0.618849 0.516245
O O8 0.585708 0.572140 0.750000
O O9 0.565996 0.649337 0.995522
O O10 0.579623 0.500000 0.000000
O O11 0.565888 0.261254 0.250000
O O12 0.500000 0.243586 0.472273
O O13 0.702263 0.922225 0.750000
O O14 0.721093 0.000000 0.500000
#
# Coordination Sequence:
#
# PCOD8259364 Si02
#       5
#    16  16  16  16  16
#     4  10  20  36  55  78 110 149 188 222 262 313
#     4  11  22  37  57  82 110 141 180 225 270 319
#     4   9  18  30  47  73 107 144 179 217 260 308
#     4   9  19  37  57  76 102 139 181 225 275 328
#     4  12  24  38  56  81 112 145 180 219 267 320
#
# _framework density 19.029188000000001
#
# number of rings (size 3 to 8) (size 9 to 14) (size 15 to 20)
#    0.000    1.800    0.000    6.600    0.000    6.400 
#    0.000    0.000    0.000    0.600    0.000    0.000 
#    0.000    0.000    0.000    0.000    0.000    0.000 
#
# Total GULP energy -496110.573847 kJ/mol
# GULP energy per Si atom -12402.764346 kJ/mol
# Density = 1.898588 g / cm^3
# Si number density = 19.029188 Si / 1000 Ang^3
#
#
#
# Elastic Constant Matrix: (Units=GPa)
#
#
# Indices 1 2 3 4 5 6 
#
# 1 102.5158 29.7663 32.4595 0.0000 0.0000 0.0000
# 2 29.7663 43.6917 15.0537 0.0000 0.0000 0.0000
# 3 32.4595 15.0537 67.1150 0.0000 0.0000 0.0000
# 4 0.0000 0.0000 0.0000 30.3587 0.0000 0.0000
# 5 0.0000 0.0000 0.0000 0.0000 29.2837 0.0000
# 6 0.0000 0.0000 0.0000 0.0000 0.0000 15.1862
#
#
#
# Elastic Compliance Matrix: (Units=1/GPa)
#
#
# Indices 1 2 3 4 5 6 
#
# 1 0.013463 -0.007509 -0.004827 0.000000 0.000000 0.000000
# 2 -0.007509 0.028993 -0.002871 0.000000 0.000000 0.000000
# 3 -0.004827 -0.002871 0.017878 0.000000 0.000000 0.000000
# 4 0.000000 0.000000 0.000000 0.032940 0.000000 0.000000
# 5 0.000000 0.000000 0.000000 0.000000 0.034149 0.000000
# 6 0.000000 0.000000 0.000000 0.000000 0.000000 0.065849
#
#
# Mechanical properties :
#
#
# Convention : Reuss Voigt Hill
#
# Bulk Modulus (GPa) = 33.42309 40.87572 37.14940
# Shear Modulus (GPa) = 21.39858 24.03525 22.71691
#
# Velocity S-wave (km/s) = 3.35701 3.55783 3.45888
# Velocity P-wave (km/s) = 5.71212 6.19715 5.95957
#
# Compressibility (1/GPa) = 0.02991943
#
# Stress axis : x y z
#
# Youngs Moduli (GPa) = 74.27569 34.49132 55.93338
#
# Poissons Ratio (x) = 0.25900 0.27000
# Poissons Ratio (y) = 0.55775 0.16060
# Poissons Ratio (z) = 0.35854 0.09903
#
# Static dielectric constant tensor:
#      x y z
#    x 3.503870 0.000000 0.000000 
#    y 0.000000 3.559050 0.000000 
#    z 0.000000 0.000000 3.449040 
# 
# 
# High freq. dielectric constant tensor:
#      x y z
#    x 1.732630 0.000000 0.000000 
#    y 0.000000 1.724310 0.000000 
#    z 0.000000 0.000000 1.742500 
# 
# From -- ./inp_files/11988.got.cif
#   From: 2010.03.12/outbox.cif.g09.slc.cpg/sg63_6_cif.got.tgz:11988.got - 2010.04.10 19:34:48.
