data_PCOD8259404
_publ_section_title
;
Structure prediction by ZEFSAII (Michael W. Deem and Ramdas Pophale) SiO2 
 PCOD8259404
Probable space group: C M C M
;
_chemical_formula_sum "Si O2"
_cell_formula_units_Z 64
_cell_length_a 8.623170
_cell_length_b 20.088298
_cell_length_c 19.652220
_cell_angle_alpha 90.000000
_cell_angle_beta 90.000000
_cell_angle_gamma 90.000000
_cell_volume 3404.252049
_symmetry_space_group_name_H-M "C M C M"
_symmetry_group_IT_number 63
_symmetry_cell_setting 'orthorhombic'
loop_
_space_group_symop_operation_xyz
x,y,z
-x,-y,1/2+z
x,-y,-z
-x,y,1/2-z
-x,-y,-z
x,y,1/2-z
-x,y,z
x,-y,1/2+z
1/2+x,1/2+y,z
1/2-x,1/2-y,1/2+z
1/2+x,1/2-y,-z
1/2-x,1/2+y,1/2-z
1/2-x,1/2-y,-z
1/2+x,1/2+y,1/2-z
1/2-x,1/2+y,z
1/2+x,1/2-y,1/2+z
loop_
_atom_site_type_symbol
_atom_site_label
_atom_site_fract_x
_atom_site_fract_y
_atom_site_fract_z
Si Si1 0.819521 0.687413 0.672239
Si Si2 0.680682 0.433308 0.574839
Si Si3 0.178516 0.673548 0.170682
Si Si4 0.817679 0.573840 0.931158
O O1 0.782239 0.668116 0.750000
O O2 0.723352 0.751816 0.649095
O O3 0.765357 0.625943 0.626165
O O4 0.000000 0.703665 0.662338
O O5 0.500000 0.449555 0.573845
O O6 0.715518 0.377871 0.630525
O O7 0.771561 0.500520 0.594230
O O8 0.732067 0.407071 0.500931
O O9 0.212379 0.662708 0.250000
O O10 0.000000 0.661053 0.152258
O O11 0.000000 0.576357 0.944302
#
# Coordination Sequence:
#
# PCOD8259404 Si02
#       4
#    16  16  16  16
#     4   9  19  36  57  81 108 138 174 218 267 317
#     4  11  22  36  55  79 109 143 180 223 267 315
#     4  10  21  37  57  80 107 140 178 220 266 318
#     4  10  20  36  57  80 109 143 179 221 267 318
#
# _framework density 18.800017
#
# number of rings (size 3 to 8) (size 9 to 14) (size 15 to 20)
#    0.000    2.000    0.000    5.250    0.000    5.500 
#    0.000    2.500    0.000    0.000    0.000    0.000 
#    0.000    0.000    0.000    0.000    0.000    0.000 
#
# Total GULP energy -396946.993558 kJ/mol
# GULP energy per Si atom -12404.593549 kJ/mol
# Density = 1.875723 g / cm^3
# Si number density = 18.800017 Si / 1000 Ang^3
#
#
#
# Elastic Constant Matrix: (Units=GPa)
#
#
# Indices 1 2 3 4 5 6 
#
# 1 52.6206 18.8396 22.6394 0.0000 0.0000 0.0000
# 2 18.8396 104.3846 68.5568 0.0000 0.0000 0.0000
# 3 22.6394 68.5568 81.3381 0.0000 0.0000 0.0000
# 4 0.0000 0.0000 0.0000 37.6116 0.0000 0.0000
# 5 0.0000 0.0000 0.0000 0.0000 25.7373 0.0000
# 6 0.0000 0.0000 0.0000 0.0000 0.0000 34.5754
#
#
#
# Elastic Compliance Matrix: (Units=1/GPa)
#
#
# Indices 1 2 3 4 5 6 
#
# 1 0.021590 0.000112 -0.006104 0.000000 0.000000 0.000000
# 2 0.000112 0.021459 -0.018119 0.000000 0.000000 0.000000
# 3 -0.006104 -0.018119 0.029265 0.000000 0.000000 0.000000
# 4 0.000000 0.000000 0.000000 0.026588 0.000000 0.000000
# 5 0.000000 0.000000 0.000000 0.000000 0.038854 0.000000
# 6 0.000000 0.000000 0.000000 0.000000 0.000000 0.028922
#
#
# Mechanical properties :
#
#
# Convention : Reuss Voigt Hill
#
# Bulk Modulus (GPa) = 41.50466 50.93499 46.21983
# Shear Modulus (GPa) = 22.42859 28.13871 25.28365
#
# Velocity S-wave (km/s) = 3.45774 3.87297 3.67123
# Velocity P-wave (km/s) = 6.16978 6.86671 6.52755
#
# Compressibility (1/GPa) = 0.02409368
#
# Stress axis : x y z
#
# Youngs Moduli (GPa) = 46.31796 46.59941 34.17074
#
# Poissons Ratio (x) = -0.00523 0.20857
# Poissons Ratio (y) = -0.00520 0.61913
# Poissons Ratio (z) = 0.28272 0.84432
#
# Static dielectric constant tensor:
#      x y z
#    x 3.484500 0.000000 0.000000 
#    y 0.000000 3.453580 0.000000 
#    z 0.000000 0.000000 3.447380 
# 
# 
# High freq. dielectric constant tensor:
#      x y z
#    x 1.739530 0.000000 0.000000 
#    y 0.000000 1.733450 0.000000 
#    z 0.000000 0.000000 1.728860 
# 
# From -- ./inp_files/39806.got.cif
#   From: 2010.03.12/outbox.cif.g09.slc.cpg/sg63_20_cif.got.tgz:39806.got - 2010.04.10 19:34:48.
