data_PCOD8259890
_publ_section_title
;
Structure prediction by ZEFSAII (Michael W. Deem and Ramdas Pophale) SiO2 
 PCOD8259890
Probable space group: C M C M
;
_chemical_formula_sum "Si O2"
_cell_formula_units_Z 112
_cell_length_a 14.307862
_cell_length_b 13.594999
_cell_length_c 29.324217
_cell_angle_alpha 90.000000
_cell_angle_beta 90.000000
_cell_angle_gamma 90.000000
_cell_volume 5704.010907
_symmetry_space_group_name_H-M "C M C M"
_symmetry_group_IT_number 63
_symmetry_cell_setting 'orthorhombic'
loop_
_space_group_symop_operation_xyz
x,y,z
-x,-y,1/2+z
x,-y,-z
-x,y,1/2-z
-x,-y,-z
x,y,1/2-z
-x,y,z
x,-y,1/2+z
1/2+x,1/2+y,z
1/2-x,1/2-y,1/2+z
1/2+x,1/2-y,-z
1/2-x,1/2+y,1/2-z
1/2-x,1/2-y,-z
1/2+x,1/2+y,1/2-z
1/2-x,1/2+y,z
1/2+x,1/2-y,1/2+z
loop_
_atom_site_type_symbol
_atom_site_label
_atom_site_fract_x
_atom_site_fract_y
_atom_site_fract_z
Si Si1 0.724034 0.690643 0.300723
Si Si2 0.388366 0.694735 0.665353
Si Si3 0.891758 0.762029 0.065538
Si Si4 0.600074 0.886295 0.009097
Si Si5 0.228586 0.008691 0.648331
Si Si6 0.890673 0.618339 0.803360
Si Si7 0.724870 0.437624 0.453495
O O1 0.705935 0.650696 0.250000
O O2 0.828882 0.738031 0.300161
O O3 0.708741 0.600657 0.334771
O O4 0.647061 0.772457 0.313925
O O5 0.500000 0.699359 0.675403
O O6 0.355267 0.742248 0.617195
O O7 0.352224 0.581946 0.667279
O O8 0.858025 0.860839 0.040861
O O9 0.000000 0.774743 0.068937
O O10 0.863205 0.665180 0.037468
O O11 0.500000 0.839681 0.024348
O O12 0.678189 0.873827 0.048017
O O13 0.584517 0.000000 0.000000
O O14 0.331158 0.041939 0.666006
O O15 0.221473 0.001441 0.593295
O O16 0.876086 0.592494 0.750000
O O17 0.000000 0.610692 0.816886
O O18 0.725017 0.500000 0.500000
#
# Coordination Sequence:
#
# PCOD8259890 Si02
#       7
#    16  16  16  16  16  16  16
#     4  10  21  36  57  86 114 141 179 227 279 336
#     4   9  20  37  58  81 111 148 186 227 275 331
#     4   9  18  35  55  75 104 143 182 226 273 316
#     4   9  18  31  49  74 102 134 176 220 263 311
#     4  10  21  37  57  83 114 149 188 230 276 330
#     4   9  19  38  61  84 112 144 180 227 282 336
#     4  10  21  34  53  78 107 145 186 225 269 321
#
# _framework density 19.635307000000001
#
# number of rings (size 3 to 8) (size 9 to 14) (size 15 to 20)
#    0.000    2.571    0.000    0.857    4.000    2.857 
#    2.571    0.000    0.000    0.000    0.000    0.000 
#    0.000    0.000    0.000    0.000    0.000    0.000 
#
# Total GULP energy -693854.304344 kJ/mol
# GULP energy per Si atom -12390.255435 kJ/mol
# Density = 1.959062 g / cm^3
# Si number density = 19.635307 Si / 1000 Ang^3
#
#
#
# Elastic Constant Matrix: (Units=GPa)
#
#
# Indices 1 2 3 4 5 6 
#
# 1 5.2503 2.6725 7.1554 0.0000 0.0000 0.0000
# 2 2.6725 67.2915 41.4619 0.0000 0.0000 0.0000
# 3 7.1554 41.4619 78.9301 0.0000 0.0000 0.0000
# 4 0.0000 0.0000 0.0000 28.5756 0.0000 0.0000
# 5 0.0000 0.0000 0.0000 0.0000 28.1403 0.0000
# 6 0.0000 0.0000 0.0000 0.0000 0.0000 20.6970
#
#
#
# Elastic Compliance Matrix: (Units=1/GPa)
#
#
# Indices 1 2 3 4 5 6 
#
# 1 0.218543 0.005216 -0.022552 0.000000 0.000000 0.000000
# 2 0.005216 0.022097 -0.012080 0.000000 0.000000 0.000000
# 3 -0.022552 -0.012080 0.021060 0.000000 0.000000 0.000000
# 4 0.000000 0.000000 0.000000 0.034995 0.000000 0.000000
# 5 0.000000 0.000000 0.000000 0.000000 0.035536 0.000000
# 6 0.000000 0.000000 0.000000 0.000000 0.000000 0.048316
#
#
# Mechanical properties :
#
#
# Convention : Reuss Voigt Hill
#
# Bulk Modulus (GPa) = 4.92933 28.22795 16.57864
# Shear Modulus (GPa) = 9.86189 22.16141 16.01165
#
# Velocity S-wave (km/s) = 2.24353 3.36318 2.85871
# Velocity P-wave (km/s) = 3.03762 5.43035 4.39976
#
# Compressibility (1/GPa) = 0.20286736
#
# Stress axis : x y z
#
# Youngs Moduli (GPa) = 4.57575 45.25520 47.48410
#
# Poissons Ratio (x) = -0.23605 1.07086
# Poissons Ratio (y) = -0.02387 0.57362
# Poissons Ratio (z) = 0.10319 0.54670
#
# Static dielectric constant tensor:
#      x y z
#    x 4.065240 0.000000 0.000000 
#    y 0.000000 3.408890 0.000000 
#    z 0.000000 0.000000 3.734280 
# 
# 
# High freq. dielectric constant tensor:
#      x y z
#    x 1.770820 0.000000 0.000000 
#    y 0.000000 1.754630 0.000000 
#    z 0.000000 0.000000 1.759060 
# 
# From -- ./inp_files/62987.got.cif
#   From: 2010.03.12/outbox.cif.g09.slc.cpg/sg63_32_cif.got.tgz:62987.got - 2010.04.10 19:34:48.
