data_PCOD8259375
_publ_section_title
;
Structure prediction by ZEFSAII (Michael W. Deem and Ramdas Pophale) SiO2 
 PCOD8259375
Probable space group: C M C M
;
_chemical_formula_sum "Si O2"
_cell_formula_units_Z 104
_cell_length_a 26.287173
_cell_length_b 23.772414
_cell_length_c 8.941020
_cell_angle_alpha 90.000000
_cell_angle_beta 90.000000
_cell_angle_gamma 90.000000
_cell_volume 5587.328869
_symmetry_space_group_name_H-M "C M C M"
_symmetry_group_IT_number 63
_symmetry_cell_setting 'orthorhombic'
loop_
_space_group_symop_operation_xyz
x,y,z
-x,-y,1/2+z
x,-y,-z
-x,y,1/2-z
-x,-y,-z
x,y,1/2-z
-x,y,z
x,-y,1/2+z
1/2+x,1/2+y,z
1/2-x,1/2-y,1/2+z
1/2+x,1/2-y,-z
1/2-x,1/2+y,1/2-z
1/2-x,1/2-y,-z
1/2+x,1/2+y,1/2-z
1/2-x,1/2+y,z
1/2+x,1/2-y,1/2+z
loop_
_atom_site_type_symbol
_atom_site_label
_atom_site_fract_x
_atom_site_fract_y
_atom_site_fract_z
Si Si1 0.500000 0.558512 0.578683
Si Si2 0.287201 0.142521 0.078605
Si Si3 0.637799 0.938936 0.072335
Si Si4 0.671729 0.654125 0.074988
Si Si5 0.367053 0.761351 0.919657
Si Si6 0.058945 0.357876 0.925337
Si Si7 0.390733 0.439485 0.074766
O O1 0.500000 0.500000 0.500000
O O2 0.500000 0.542243 0.750000
O O3 0.553440 0.589575 0.540852
O O4 0.288901 0.121489 0.250000
O O5 0.230547 0.158360 0.027056
O O6 0.318508 0.199306 0.058243
O O7 0.310889 0.093347 0.976961
O O8 0.636597 0.944158 0.250000
O O9 0.587613 0.905936 0.017894
O O10 0.637537 0.000000 0.000000
O O11 0.664998 0.646951 0.250000
O O12 0.639272 0.708155 0.026214
O O13 0.652098 0.598881 0.994667
O O14 0.370977 0.739220 0.750000
O O15 0.417645 0.796521 0.963433
O O16 0.067134 0.370683 0.750000
O O17 0.000000 0.357880 0.971059
O O18 0.380748 0.445963 0.250000
O O19 0.386968 0.500000 0.000000
#
# Coordination Sequence:
#
# PCOD8259375 Si02
#       7
#     8  16  16  16  16  16  16
#     4   8  16  32  54  74  94 128 168 206 251 304
#     4   9  20  38  57  77 107 145 184 225 273 326
#     4  11  22  36  57  84 114 148 187 231 278 331
#     4  11  22  35  54  82 112 143 180 224 271 324
#     4   9  18  35  57  80 107 142 182 225 272 324
#     4   9  19  38  61  83 112 150 188 230 280 330
#     4  10  20  36  56  78 105 137 175 220 268 322
#
# _framework density 18.613545999999999
#
# number of rings (size 3 to 8) (size 9 to 14) (size 15 to 20)
#    0.000    2.308    0.000    3.692    0.000    5.538 
#    1.385    0.000    0.000    0.000    0.000    0.000 
#    0.000    0.000    0.000    0.000    0.000    0.000 
#
# Total GULP energy -644638.528955 kJ/mol
# GULP energy per Si atom -12396.894788 kJ/mol
# Density = 1.857118 g / cm^3
# Si number density = 18.613546 Si / 1000 Ang^3
#
#
#
# Elastic Constant Matrix: (Units=GPa)
#
#
# Indices 1 2 3 4 5 6 
#
# 1 63.0206 40.2522 38.8453 0.0000 0.0000 0.0000
# 2 40.2522 101.6223 54.2192 0.0000 0.0000 0.0000
# 3 38.8453 54.2192 99.1402 0.0000 0.0000 0.0000
# 4 0.0000 0.0000 0.0000 36.8553 0.0000 0.0000
# 5 0.0000 0.0000 0.0000 0.0000 24.7153 0.0000
# 6 0.0000 0.0000 0.0000 0.0000 0.0000 17.5979
#
#
#
# Elastic Compliance Matrix: (Units=1/GPa)
#
#
# Indices 1 2 3 4 5 6 
#
# 1 0.023375 -0.006174 -0.005783 0.000000 0.000000 0.000000
# 2 -0.006174 0.015525 -0.006072 0.000000 0.000000 0.000000
# 3 -0.005783 -0.006072 0.015673 0.000000 0.000000 0.000000
# 4 0.000000 0.000000 0.000000 0.027133 0.000000 0.000000
# 5 0.000000 0.000000 0.000000 0.000000 0.040461 0.000000
# 6 0.000000 0.000000 0.000000 0.000000 0.000000 0.056825
#
#
# Mechanical properties :
#
#
# Convention : Reuss Voigt Hill
#
# Bulk Modulus (GPa) = 54.00238 58.93516 56.46877
# Shear Modulus (GPa) = 22.60185 24.53147 23.56666
#
# Velocity S-wave (km/s) = 3.48842 3.63428 3.56209
# Velocity P-wave (km/s) = 6.73059 7.02438 6.87905
#
# Compressibility (1/GPa) = 0.01851770
#
# Stress axis : x y z
#
# Youngs Moduli (GPa) = 42.78001 64.41155 63.80376
#
# Poissons Ratio (x) = 0.39765 0.36896
# Poissons Ratio (y) = 0.26411 0.38739
# Poissons Ratio (z) = 0.24738 0.39109
#
# Static dielectric constant tensor:
#      x y z
#    x 3.825140 0.000000 0.000000 
#    y 0.000000 3.102070 0.000000 
#    z 0.000000 0.000000 3.419220 
# 
# 
# High freq. dielectric constant tensor:
#      x y z
#    x 1.732430 0.000000 0.000000 
#    y 0.000000 1.711320 0.000000 
#    z 0.000000 0.000000 1.724470 
# 
# From -- ./inp_files/12547.got.cif
#   From: 2010.03.12/outbox.cif.g09.slc.cpg/sg63_7_cif.got.tgz:12547.got - 2010.04.10 19:34:48.
