data_PCOD8259019
_publ_section_title
;
Structure prediction by ZEFSAII (Michael W. Deem and Ramdas Pophale) SiO2 
 PCOD8259019
Probable space group: C M C M
;
_chemical_formula_sum "Si O2"
_cell_formula_units_Z 96
_cell_length_a 27.943639
_cell_length_b 20.288844
_cell_length_c 9.011087
_cell_angle_alpha 90.000000
_cell_angle_beta 90.000000
_cell_angle_gamma 90.000000
_cell_volume 5108.782902
_symmetry_space_group_name_H-M "C M C M"
_symmetry_group_IT_number 63
_symmetry_cell_setting 'orthorhombic'
loop_
_space_group_symop_operation_xyz
x,y,z
-x,-y,1/2+z
x,-y,-z
-x,y,1/2-z
-x,-y,-z
x,y,1/2-z
-x,y,z
x,-y,1/2+z
1/2+x,1/2+y,z
1/2-x,1/2-y,1/2+z
1/2+x,1/2-y,-z
1/2-x,1/2+y,1/2-z
1/2-x,1/2-y,-z
1/2+x,1/2+y,1/2-z
1/2-x,1/2+y,z
1/2+x,1/2-y,1/2+z
loop_
_atom_site_type_symbol
_atom_site_label
_atom_site_fract_x
_atom_site_fract_y
_atom_site_fract_z
Si Si1 0.445007 0.822652 0.078206
Si Si2 0.811413 0.794955 0.577494
Si Si3 0.865902 0.430296 0.425094
Si Si4 0.093789 0.193186 0.925590
Si Si5 0.944865 0.058938 0.590190
Si Si6 0.790790 0.658469 0.422663
O O1 0.438765 0.804016 0.250000
O O2 0.500000 0.841579 0.041554
O O3 0.411086 0.883911 0.036190
O O4 0.429286 0.760337 0.982614
O O5 0.818410 0.777364 0.750000
O O6 0.857609 0.828584 0.507687
O O7 0.807515 0.727393 0.487988
O O8 0.766673 0.844491 0.555127
O O9 0.876526 0.500000 0.500000
O O10 0.859357 0.439455 0.250000
O O11 0.816656 0.400686 0.490968
O O12 0.101212 0.200309 0.750000
O O13 0.059681 0.132704 0.974109
O O14 0.919328 0.058303 0.750000
O O15 0.000000 0.041197 0.605846
O O16 0.919340 0.000000 0.500000
O O17 0.804917 0.654840 0.250000
#
# Coordination Sequence:
#
# PCOD8259019 Si02
#       6
#    16  16  16  16  16  16
#     4  10  22  39  58  83 115 151 195 245 295 349
#     4  10  20  34  56  85 115 145 181 227 279 336
#     4  11  23  39  60  84 116 155 197 244 295 352
#     4  11  21  34  56  86 117 150 189 236 285 339
#     4   9  19  35  53  76 107 144 186 228 274 331
#     4  10  20  36  58  84 112 145 186 230 280 337
#
# _framework density 18.791169
#
# number of rings (size 3 to 8) (size 9 to 14) (size 15 to 20)
#    0.000    1.833    1.667    2.500    0.000    5.333 
#    0.000    2.500    0.000    2.000    0.000    0.000 
#    0.000    0.000    0.000    0.000    0.000    0.000 
#
# Total GULP energy -595005.076126 kJ/mol
# GULP energy per Si atom -12395.939086 kJ/mol
# Density = 1.874840 g / cm^3
# Si number density = 18.791169 Si / 1000 Ang^3
#
#
#
# Elastic Constant Matrix: (Units=GPa)
#
#
# Indices 1 2 3 4 5 6 
#
# 1 91.4006 49.2628 48.6576 0.0000 0.0000 0.0000
# 2 49.2628 141.7726 67.8835 0.0000 0.0000 0.0000
# 3 48.6576 67.8835 104.8419 0.0000 0.0000 0.0000
# 4 0.0000 0.0000 0.0000 34.3079 0.0000 0.0000
# 5 0.0000 0.0000 0.0000 0.0000 26.1490 0.0000
# 6 0.0000 0.0000 0.0000 0.0000 0.0000 27.6330
#
#
#
# Elastic Compliance Matrix: (Units=1/GPa)
#
#
# Indices 1 2 3 4 5 6 
#
# 1 0.015245 -0.002768 -0.005283 0.000000 0.000000 0.000000
# 2 -0.002768 0.010725 -0.005660 0.000000 0.000000 0.000000
# 3 -0.005283 -0.005660 0.015655 0.000000 0.000000 0.000000
# 4 0.000000 0.000000 0.000000 0.029148 0.000000 0.000000
# 5 0.000000 0.000000 0.000000 0.000000 0.038242 0.000000
# 6 0.000000 0.000000 0.000000 0.000000 0.000000 0.036189
#
#
# Mechanical properties :
#
#
# Convention : Reuss Voigt Hill
#
# Bulk Modulus (GPa) = 70.40523 74.40256 72.40389
# Shear Modulus (GPa) = 28.19111 29.09872 28.64491
#
# Velocity S-wave (km/s) = 3.87748 3.93941 3.90857
# Velocity P-wave (km/s) = 7.58914 7.76996 7.68008
#
# Compressibility (1/GPa) = 0.01420349
#
# Stress axis : x y z
#
# Youngs Moduli (GPa) = 65.59475 93.23695 63.87727
#
# Poissons Ratio (x) = 0.25804 0.33749
# Poissons Ratio (y) = 0.18154 0.36155
# Poissons Ratio (z) = 0.34656 0.52773
#
# Static dielectric constant tensor:
#      x y z
#    x 3.673570 0.000000 0.000000 
#    y 0.000000 3.330330 0.000000 
#    z 0.000000 0.000000 3.614000 
# 
# 
# High freq. dielectric constant tensor:
#      x y z
#    x 1.728950 0.000000 0.000000 
#    y 0.000000 1.718820 0.000000 
#    z 0.000000 0.000000 1.742220 
# 
# From -- ./inp_files/12351.got.cif
#   From: 2010.03.12/outbox.cif.g09.slc.cpg/sg63_7_cif.got.tgz:12351.got - 2010.04.10 19:34:48.
