data_PCOD8259128
_publ_section_title
;
Structure prediction by ZEFSAII (Michael W. Deem and Ramdas Pophale) SiO2 
 PCOD8259128
Probable space group: C M C M
;
_chemical_formula_sum "Si O2"
_cell_formula_units_Z 80
_cell_length_a 18.126532
_cell_length_b 25.690302
_cell_length_c 9.148788
_cell_angle_alpha 90.000000
_cell_angle_beta 90.000000
_cell_angle_gamma 90.000000
_cell_volume 4260.371744
_symmetry_space_group_name_H-M "C M C M"
_symmetry_group_IT_number 63
_symmetry_cell_setting 'orthorhombic'
loop_
_space_group_symop_operation_xyz
x,y,z
-x,-y,1/2+z
x,-y,-z
-x,y,1/2-z
-x,-y,-z
x,y,1/2-z
-x,y,z
x,-y,1/2+z
1/2+x,1/2+y,z
1/2-x,1/2-y,1/2+z
1/2+x,1/2-y,-z
1/2-x,1/2+y,1/2-z
1/2-x,1/2-y,-z
1/2+x,1/2+y,1/2-z
1/2-x,1/2+y,z
1/2+x,1/2-y,1/2+z
loop_
_atom_site_type_symbol
_atom_site_label
_atom_site_fract_x
_atom_site_fract_y
_atom_site_fract_z
Si Si1 0.827795 0.250542 0.922392
Si Si2 0.344201 0.052418 0.578852
Si Si3 0.414471 0.853623 0.916845
Si Si4 0.417009 0.650794 0.576050
Si Si5 0.674228 0.447844 0.421090
O O1 0.815516 0.246096 0.750000
O O2 0.869791 0.302955 0.966382
O O3 0.875626 0.202086 0.981549
O O4 0.750000 0.250000 0.000000
O O5 0.357255 0.045465 0.750000
O O6 0.393779 0.099298 0.522023
O O7 0.259149 0.064353 0.541094
O O8 0.370794 0.000000 0.500000
O O9 0.395474 0.868858 0.750000
O O10 0.500000 0.840153 0.934522
O O11 0.418413 0.651046 0.750000
O O12 0.500000 0.650086 0.513017
O O13 0.374004 0.599964 0.518355
O O14 0.646804 0.500000 0.500000
O O15 0.662664 0.456182 0.250000
#
# Coordination Sequence:
#
# PCOD8259128 Si02
#       5
#    16  16  16  16  16
#     4  10  20  35  56  79 103 134 173 215 258 307
#     4  10  20  35  55  78 105 138 176 216 258 307
#     4  10  21  36  54  78 107 137 171 214 264 315
#     4   9  17  31  52  76 102 134 171 208 249 302
#     4   9  18  32  51  75 102 133 171 212 252 298
#
# _framework density 18.777702999999999
#
# number of rings (size 3 to 8) (size 9 to 14) (size 15 to 20)
#    0.000    2.400    0.000    2.400    0.000    6.800 
#    0.000    1.000    0.000    3.000    0.000    0.000 
#    0.000    0.000    0.000    0.000    0.000    0.000 
#
# Total GULP energy -496135.062660 kJ/mol
# GULP energy per Si atom -12403.376566 kJ/mol
# Density = 1.873496 g / cm^3
# Si number density = 18.777703 Si / 1000 Ang^3
#
#
#
# Elastic Constant Matrix: (Units=GPa)
#
#
# Indices 1 2 3 4 5 6 
#
# 1 112.4793 72.0258 36.0656 0.0000 0.0000 0.0000
# 2 72.0258 160.9684 49.2655 0.0000 0.0000 0.0000
# 3 36.0656 49.2655 48.7954 0.0000 0.0000 0.0000
# 4 0.0000 0.0000 0.0000 29.9409 0.0000 0.0000
# 5 0.0000 0.0000 0.0000 0.0000 25.1747 0.0000
# 6 0.0000 0.0000 0.0000 0.0000 0.0000 25.4455
#
#
#
# Elastic Compliance Matrix: (Units=1/GPa)
#
#
# Indices 1 2 3 4 5 6 
#
# 1 0.013437 -0.004302 -0.005588 0.000000 0.000000 0.000000
# 2 -0.004302 0.010368 -0.007288 0.000000 0.000000 0.000000
# 3 -0.005588 -0.007288 0.031982 0.000000 0.000000 0.000000
# 4 0.000000 0.000000 0.000000 0.033399 0.000000 0.000000
# 5 0.000000 0.000000 0.000000 0.000000 0.039722 0.000000
# 6 0.000000 0.000000 0.000000 0.000000 0.000000 0.039300
#
#
# Mechanical properties :
#
#
# Convention : Reuss Voigt Hill
#
# Bulk Modulus (GPa) = 46.66169 70.77299 58.71734
# Shear Modulus (GPa) = 23.84261 27.10466 25.47364
#
# Velocity S-wave (km/s) = 3.56719 3.80340 3.68719
# Velocity P-wave (km/s) = 6.47070 7.55377 7.03312
#
# Compressibility (1/GPa) = 0.02143086
#
# Stress axis : x y z
#
# Youngs Moduli (GPa) = 74.42019 96.45050 31.26748
#
# Poissons Ratio (x) = 0.41496 0.17472
# Poissons Ratio (y) = 0.32018 0.22788
# Poissons Ratio (z) = 0.41586 0.70293
#
# Static dielectric constant tensor:
#      x y z
#    x 3.495510 0.000000 0.000000 
#    y 0.000000 3.621640 0.000000 
#    z 0.000000 0.000000 3.192590 
# 
# 
# High freq. dielectric constant tensor:
#      x y z
#    x 1.733820 0.000000 0.000000 
#    y 0.000000 1.744700 0.000000 
#    z 0.000000 0.000000 1.702690 
# 
# From -- ./inp_files/6384.got.cif
#   From: 2010.03.12/outbox.cif.g09.slc.cpg/sg63_4_cif.got.tgz:6384.got - 2010.04.10 19:34:48.
