data_PCOD8259587
_publ_section_title
;
Structure prediction by ZEFSAII (Michael W. Deem and Ramdas Pophale) SiO2 
 PCOD8259587
Probable space group: C M C M
;
_chemical_formula_sum "Si O2"
_cell_formula_units_Z 76
_cell_length_a 7.575038
_cell_length_b 26.405834
_cell_length_c 19.633366
_cell_angle_alpha 90.000000
_cell_angle_beta 90.000000
_cell_angle_gamma 90.000000
_cell_volume 3927.167882
_symmetry_space_group_name_H-M "C M C M"
_symmetry_group_IT_number 63
_symmetry_cell_setting 'orthorhombic'
loop_
_space_group_symop_operation_xyz
x,y,z
-x,-y,1/2+z
x,-y,-z
-x,y,1/2-z
-x,-y,-z
x,y,1/2-z
-x,y,z
x,-y,1/2+z
1/2+x,1/2+y,z
1/2-x,1/2-y,1/2+z
1/2+x,1/2-y,-z
1/2-x,1/2+y,1/2-z
1/2-x,1/2-y,-z
1/2+x,1/2+y,1/2-z
1/2-x,1/2+y,z
1/2+x,1/2-y,1/2+z
loop_
_atom_site_type_symbol
_atom_site_label
_atom_site_fract_x
_atom_site_fract_y
_atom_site_fract_z
Si Si1 0.291977 0.700911 0.173617
Si Si2 0.500000 0.952522 0.250000
Si Si3 0.500000 0.058965 0.015316
Si Si4 0.295313 0.596061 0.385723
Si Si5 0.798919 0.966189 0.750000
Si Si6 0.301518 0.689162 0.671165
Si Si7 0.000000 0.620482 0.877166
O O1 0.223350 0.689359 0.250000
O O2 0.500000 0.708081 0.174643
O O3 0.238772 0.654622 0.124505
O O4 0.205625 0.752621 0.145894
O O5 0.500000 0.919061 0.316655
O O6 0.323124 0.985050 0.250000
O O7 0.322742 0.071772 0.056016
O O8 0.500000 0.090709 0.946921
O O9 0.500000 0.000000 0.000000
O O10 0.500000 0.591428 0.407217
O O11 0.258573 0.567466 0.315512
O O12 0.000000 0.985625 0.750000
O O13 0.239984 0.686351 0.750000
O O14 0.500000 0.668610 0.662144
O O15 0.174183 0.655081 0.625570
#
# Coordination Sequence:
#
# PCOD8259587 Si02
#       7
#    16   4   8  16   8  16   8
#     4   9  16  32  63  97 130 161 191 250 319 377
#     4  12  24  40  66  84 120 162 220 278 312 358
#     4  12  28  45  63  88 124 175 227 260 313 374
#     4  10  21  40  65  95 129 163 205 260 324 375
#     4  10  20  38  63  97 123 153 206 272 320 371
#     4  10  20  36  62  96 126 157 203 250 316 384
#     4  12  24  44  63  85 125 175 209 265 316 368
#
# _framework density 19.352367999999998
#
# number of rings (size 3 to 8) (size 9 to 14) (size 15 to 20)
#    0.000    1.684    3.158    1.895    1.474    2.105 
#    0.000    1.053    0.000    0.000    0.000    0.000 
#    0.000    0.000    0.000    0.000    0.000    0.000 
#
# Total GULP energy -471284.838114 kJ/mol
# GULP energy per Si atom -12402.232582 kJ/mol
# Density = 1.930832 g / cm^3
# Si number density = 19.352368 Si / 1000 Ang^3
#
#
#
# Elastic Constant Matrix: (Units=GPa)
#
#
# Indices 1 2 3 4 5 6 
#
# 1 115.1135 78.7863 61.7719 0.0000 0.0000 0.0000
# 2 78.7863 142.7539 73.0255 0.0000 0.0000 0.0000
# 3 61.7719 73.0255 120.4807 0.0000 0.0000 0.0000
# 4 0.0000 0.0000 0.0000 38.0585 0.0000 0.0000
# 5 0.0000 0.0000 0.0000 0.0000 -91.4609 0.0000
# 6 0.0000 0.0000 0.0000 0.0000 0.0000 12.6659
#
#
#
# Elastic Compliance Matrix: (Units=1/GPa)
#
#
# Indices 1 2 3 4 5 6 
#
# 1 0.015132 -0.006352 -0.003908 0.000000 0.000000 0.000000
# 2 -0.006352 0.012820 -0.004513 0.000000 0.000000 0.000000
# 3 -0.003908 -0.004513 0.013039 0.000000 0.000000 0.000000
# 4 0.000000 0.000000 0.000000 0.026275 0.000000 0.000000
# 5 0.000000 0.000000 0.000000 0.000000 -0.010934 0.000000
# 6 0.000000 0.000000 0.000000 0.000000 0.000000 0.078952
#
#
# Mechanical properties :
#
#
# Convention : Reuss Voigt Hill
#
# Bulk Modulus (GPa) = 87.38484 89.50173 88.44328
# Shear Modulus (GPa) = 29.64782 2.83700 16.24241
#
# Velocity S-wave (km/s) = 3.91832 1.21209 2.90021
# Velocity P-wave (km/s) = 8.10701 6.95038 7.55087
#
# Compressibility (1/GPa) = 0.01144363
#
# Stress axis : x y z
#
# Youngs Moduli (GPa) = 66.08626 78.00547 76.69016
#
# Poissons Ratio (x) = 0.49550 0.29971
# Poissons Ratio (y) = 0.41978 0.34613
# Poissons Ratio (z) = 0.25827 0.35207
#
# Static dielectric constant tensor:
#      x y z
#    x 3.667580 0.000000 0.000000 
#    y 0.000000 3.700990 0.000000 
#    z 0.000000 0.000000 3.246900 
# 
# 
# High freq. dielectric constant tensor:
#      x y z
#    x 1.765160 0.000000 0.000000 
#    y 0.000000 1.765250 0.000000 
#    z 0.000000 0.000000 1.721050 
# 
# From -- ./inp_files/40645.got.cif
#   From: 2010.03.12/outbox.cif.g09.slc.cpg/sg63_21_cif.got.tgz:40645.got - 2010.04.10 19:34:48.
