data_PCOD8259527
_publ_section_title
;
Structure prediction by ZEFSAII (Michael W. Deem and Ramdas Pophale) SiO2 
 PCOD8259527
Probable space group: C M C M
;
_chemical_formula_sum "Si O2"
_cell_formula_units_Z 88
_cell_length_a 14.694640
_cell_length_b 20.823352
_cell_length_c 13.371811
_cell_angle_alpha 90.000000
_cell_angle_beta 90.000000
_cell_angle_gamma 90.000000
_cell_volume 4091.662662
_symmetry_space_group_name_H-M "C M C M"
_symmetry_group_IT_number 63
_symmetry_cell_setting 'orthorhombic'
loop_
_space_group_symop_operation_xyz
x,y,z
-x,-y,1/2+z
x,-y,-z
-x,y,1/2-z
-x,-y,-z
x,y,1/2-z
-x,y,z
x,-y,1/2+z
1/2+x,1/2+y,z
1/2-x,1/2-y,1/2+z
1/2+x,1/2-y,-z
1/2-x,1/2+y,1/2-z
1/2-x,1/2-y,-z
1/2+x,1/2+y,1/2-z
1/2-x,1/2+y,z
1/2+x,1/2-y,1/2+z
loop_
_atom_site_type_symbol
_atom_site_label
_atom_site_fract_x
_atom_site_fract_y
_atom_site_fract_z
Si Si1 0.369330 0.134672 0.531121
Si Si2 0.500000 0.772879 0.134702
Si Si3 0.205039 0.971205 0.861211
Si Si4 0.400626 0.003919 0.636659
Si Si5 0.500000 0.173361 0.134570
Si Si6 0.170130 0.896901 0.045814
Si Si7 0.000000 0.810496 0.052896
O O1 0.411191 0.184648 0.610537
O O2 0.398806 0.062455 0.559280
O O3 0.409053 0.147722 0.420345
O O4 0.261240 0.145548 0.535655
O O5 0.500000 0.751098 0.250000
O O6 0.500000 0.710091 0.063812
O O7 0.178942 0.949434 0.750000
O O8 0.313216 0.958281 0.885425
O O9 0.147037 0.929105 0.938248
O O10 0.184644 0.046928 0.872801
O O11 0.389245 0.030395 0.750000
O O12 0.500000 0.968596 0.626160
O O13 0.500000 0.151046 0.250000
O O14 0.500000 0.250548 0.127518
O O15 0.088268 0.852260 0.079185
#
# Coordination Sequence:
#
# PCOD8259527 Si02
#       7
#    16   8  16  16   8  16   8
#     4   9  18  34  57  83 113 146 175 220 278 334
#     4  10  20  36  59  90 110 134 183 230 277 340
#     4   9  20  35  55  85 114 144 187 226 266 325
#     4   9  14  27  53  85 116 146 176 212 262 329
#     4  10  22  38  55  84 114 142 181 226 277 338
#     4  10  21  40  57  80 112 150 185 228 276 321
#     4  10  24  41  58  76 108 147 194 238 276 318
#
# _framework density 21.507148999999998
#
# number of rings (size 3 to 8) (size 9 to 14) (size 15 to 20)
#    0.000    2.727    1.818    0.545    0.000    7.273 
#    3.273    4.545    0.000    0.000    0.000    0.000 
#    0.000    0.000    0.000    0.000    0.000    0.000 
#
# Total GULP energy -545521.178544 kJ/mol
# GULP energy per Si atom -12398.208603 kJ/mol
# Density = 2.145820 g / cm^3
# Si number density = 21.507149 Si / 1000 Ang^3
#
#
#
# Elastic Constant Matrix: (Units=GPa)
#
#
# Indices 1 2 3 4 5 6 
#
# 1 113.8339 21.8503 -6.2083 0.0000 0.0000 0.0000
# 2 21.8503 43.2320 -15.9060 0.0000 0.0000 0.0000
# 3 -6.2083 -15.9060 101.8522 0.0000 0.0000 0.0000
# 4 0.0000 0.0000 0.0000 19.2220 0.0000 0.0000
# 5 0.0000 0.0000 0.0000 0.0000 10.8054 0.0000
# 6 0.0000 0.0000 0.0000 0.0000 0.0000 31.9619
#
#
#
# Elastic Compliance Matrix: (Units=1/GPa)
#
#
# Indices 1 2 3 4 5 6 
#
# 1 0.009732 -0.004987 -0.000186 0.000000 0.000000 0.000000
# 2 -0.004987 0.027097 0.003928 0.000000 0.000000 0.000000
# 3 -0.000186 0.003928 0.010420 0.000000 0.000000 0.000000
# 4 0.000000 0.000000 0.000000 0.052024 0.000000 0.000000
# 5 0.000000 0.000000 0.000000 0.000000 0.092546 0.000000
# 6 0.000000 0.000000 0.000000 0.000000 0.000000 0.031287
#
#
# Mechanical properties :
#
#
# Convention : Reuss Voigt Hill
#
# Bulk Modulus (GPa) = 22.34201 28.71003 25.52602
# Shear Modulus (GPa) = 20.78868 29.67666 25.23267
#
# Velocity S-wave (km/s) = 3.11238 3.71866 3.42895
# Velocity P-wave (km/s) = 4.82976 5.64057 5.25084
#
# Compressibility (1/GPa) = 0.04475872
#
# Stress axis : x y z
#
# Youngs Moduli (GPa) = 102.75541 36.90504 95.96743
#
# Poissons Ratio (x) = 0.18404 0.01781
# Poissons Ratio (y) = 0.51244 -0.37692
# Poissons Ratio (z) = 0.01907 -0.14495
#
# Static dielectric constant tensor:
#      x y z
#    x 3.761370 0.000000 0.000000 
#    y 0.000000 3.602610 0.000000 
#    z 0.000000 0.000000 3.850870 
# 
# 
# High freq. dielectric constant tensor:
#      x y z
#    x 1.829240 0.000000 0.000000 
#    y 0.000000 1.820700 0.000000 
#    z 0.000000 0.000000 1.851900 
# 
# From -- ./inp_files/31815.got.cif
#   From: 2010.03.12/outbox.cif.g09.slc.cpg/sg63_16_cif.got.tgz:31815.got - 2010.04.10 19:34:48.
