data_PCOD8259304
_publ_section_title
;
Structure prediction by ZEFSAII (Michael W. Deem and Ramdas Pophale) SiO2 
 PCOD8259304
Probable space group: C M C M
;
_chemical_formula_sum "Si O2"
_cell_formula_units_Z 80
_cell_length_a 18.247273
_cell_length_b 9.664398
_cell_length_c 24.139491
_cell_angle_alpha 90.000000
_cell_angle_beta 90.000000
_cell_angle_gamma 90.000000
_cell_volume 4256.972894
_symmetry_space_group_name_H-M "C M C M"
_symmetry_group_IT_number 63
_symmetry_cell_setting 'orthorhombic'
loop_
_space_group_symop_operation_xyz
x,y,z
-x,-y,1/2+z
x,-y,-z
-x,y,1/2-z
-x,-y,-z
x,y,1/2-z
-x,y,z
x,-y,1/2+z
1/2+x,1/2+y,z
1/2-x,1/2-y,1/2+z
1/2+x,1/2-y,-z
1/2-x,1/2+y,1/2-z
1/2-x,1/2-y,-z
1/2+x,1/2+y,1/2-z
1/2-x,1/2+y,z
1/2+x,1/2-y,1/2+z
loop_
_atom_site_type_symbol
_atom_site_label
_atom_site_fract_x
_atom_site_fract_y
_atom_site_fract_z
Si Si1 0.173440 0.120422 0.542061
Si Si2 0.086372 0.712293 0.647796
Si Si3 0.841776 0.367565 0.034961
Si Si4 0.913362 0.213562 0.750000
Si Si5 0.912883 0.971661 0.352408
Si Si6 0.087514 0.470570 0.250000
O O1 0.143892 0.253201 0.510930
O O2 0.258835 0.132232 0.557878
O O3 0.125083 0.096979 0.595451
O O4 0.159446 0.000000 0.500000
O O5 0.107462 0.651773 0.588203
O O6 0.117570 0.611705 0.695986
O O7 0.000000 0.714179 0.652420
O O8 0.115031 0.870107 0.656110
O O9 0.864297 0.500000 0.000000
O O10 0.886338 0.125379 0.697603
O O11 0.881593 0.371070 0.750000
O O12 0.000000 0.223088 0.750000
O O13 0.000000 0.968542 0.360332
O O14 0.000000 0.473691 0.250000
#
# Coordination Sequence:
#
# PCOD8259304 Si02
#       6
#    16  16  16   8  16   8
#     4  10  20  38  56  78 110 146 182 216 267 323
#     4  10  20  36  57  82 110 142 179 222 270 321
#     4  10  22  36  55  79 111 149 179 217 270 325
#     4   9  19  35  54  81 110 141 177 221 274 319
#     4  10  20  35  59  83 107 140 183 226 265 317
#     4   9  19  35  54  79 114 143 171 219 278 325
#
# _framework density 18.792698000000001
#
# number of rings (size 3 to 8) (size 9 to 14) (size 15 to 20)
#    0.000    2.200    2.000    0.600    2.800    4.000 
#    0.000    1.000    0.000    0.000    0.000    0.000 
#    0.000    0.000    0.000    0.000    0.000    0.000 
#
# Total GULP energy -495862.309278 kJ/mol
# GULP energy per Si atom -12396.557732 kJ/mol
# Density = 1.874992 g / cm^3
# Si number density = 18.792698 Si / 1000 Ang^3
#
#
#
# Elastic Constant Matrix: (Units=GPa)
#
#
# Indices 1 2 3 4 5 6 
#
# 1 15.7656 21.7855 24.8300 0.0000 0.0000 0.0000
# 2 21.7855 184.7998 87.0101 0.0000 0.0000 0.0000
# 3 24.8300 87.0101 138.1306 0.0000 0.0000 0.0000
# 4 0.0000 0.0000 0.0000 49.1424 0.0000 0.0000
# 5 0.0000 0.0000 0.0000 0.0000 -574.3183 0.0000
# 6 0.0000 0.0000 0.0000 0.0000 0.0000 21.6649
#
#
#
# Elastic Compliance Matrix: (Units=1/GPa)
#
#
# Indices 1 2 3 4 5 6 
#
# 1 0.090812 -0.004293 -0.013620 0.000000 0.000000 0.000000
# 2 -0.004293 0.007896 -0.004202 0.000000 0.000000 0.000000
# 3 -0.013620 -0.004202 0.012335 0.000000 0.000000 0.000000
# 4 0.000000 0.000000 0.000000 0.020349 0.000000 0.000000
# 5 0.000000 0.000000 0.000000 0.000000 -0.001741 0.000000
# 6 0.000000 0.000000 0.000000 0.000000 0.000000 0.046158
#
#
# Mechanical properties :
#
#
# Convention : Reuss Voigt Hill
#
# Bulk Modulus (GPa) = 14.96715 67.32746 41.14731
# Shear Modulus (GPa) = 20.63483 -87.03084 -33.19801
#
# Velocity S-wave (km/s) = 3.31724 -6.81260 -4.20758
# Velocity P-wave (km/s) = 4.75959 5.09685 1.28921
#
# Compressibility (1/GPa) = 0.06681298
#
# Stress axis : x y z
#
# Youngs Moduli (GPa) = 11.01174 126.65030 81.07212
#
# Poissons Ratio (x) = 0.54368 1.10421
# Poissons Ratio (y) = 0.04727 0.34066
# Poissons Ratio (z) = 0.14998 0.53218
#
# Static dielectric constant tensor:
#      x y z
#    x 3.440140 0.000000 0.000000 
#    y 0.000000 3.884790 0.000000 
#    z 0.000000 0.000000 3.662750 
# 
# 
# High freq. dielectric constant tensor:
#      x y z
#    x 1.692230 0.000000 0.000000 
#    y 0.000000 1.753750 0.000000 
#    z 0.000000 0.000000 1.740390 
# 
# From -- ./inp_files/55311.got.cif
#   From: 2010.03.12/outbox.cif.g09.slc.cpg/sg63_28_cif.got.tgz:55311.got - 2010.04.10 19:34:48.
