data_PCOD8259666
_publ_section_title
;
Structure prediction by ZEFSAII (Michael W. Deem and Ramdas Pophale) SiO2 
 PCOD8259666
Probable space group: C M C M
;
_chemical_formula_sum "Si O2"
_cell_formula_units_Z 80
_cell_length_a 18.314166
_cell_length_b 9.247104
_cell_length_c 23.291167
_cell_angle_alpha 90.000000
_cell_angle_beta 90.000000
_cell_angle_gamma 90.000000
_cell_volume 3944.428951
_symmetry_space_group_name_H-M "C M C M"
_symmetry_group_IT_number 63
_symmetry_cell_setting 'orthorhombic'
loop_
_space_group_symop_operation_xyz
x,y,z
-x,-y,1/2+z
x,-y,-z
-x,y,1/2-z
-x,-y,-z
x,y,1/2-z
-x,y,z
x,-y,1/2+z
1/2+x,1/2+y,z
1/2-x,1/2-y,1/2+z
1/2+x,1/2-y,-z
1/2-x,1/2+y,1/2-z
1/2-x,1/2-y,-z
1/2+x,1/2+y,1/2-z
1/2-x,1/2+y,z
1/2+x,1/2-y,1/2+z
loop_
_atom_site_type_symbol
_atom_site_label
_atom_site_fract_x
_atom_site_fract_y
_atom_site_fract_z
Si Si1 0.418133 0.292090 0.142607
Si Si2 0.826799 0.710892 0.911041
Si Si3 0.291967 0.903469 0.868276
Si Si4 0.083364 0.838180 0.008771
Si Si5 0.354316 0.415004 0.814858
O O1 0.500000 0.244934 0.160130
O O2 0.403525 0.447618 0.170033
O O3 0.359689 0.173626 0.164577
O O4 0.409303 0.294544 0.074390
O O5 0.820383 0.539985 0.903612
O O6 0.867713 0.731438 0.971019
O O7 0.746821 0.787751 0.911658
O O8 0.873409 0.783139 0.858368
O O9 0.231917 0.956037 0.821448
O O10 0.000000 0.827730 0.987364
O O11 0.113403 0.000000 0.000000
O O12 0.370712 0.365828 0.750000
#
# Coordination Sequence:
#
# PCOD8259666 Si02
#       5
#    16  16  16  16  16
#     4  11  23  41  63  94 127 163 204 250 311 369
#     4  10  21  38  59  91 120 163 206 248 307 366
#     4  10  21  40  59  94 123 161 205 257 303 363
#     4  10  20  37  61  86 124 163 198 249 309 374
#     4  10  21  41  63  88 120 160 208 253 305 363
#
# _framework density 20.281770000000002
#
# number of rings (size 3 to 8) (size 9 to 14) (size 15 to 20)
#    1.200    0.600    4.000    0.000    0.000    6.000 
#    3.600    2.000    0.000    0.000    0.000    2.800 
#    0.000    0.000    0.000    0.000    0.000    0.000 
#
# Total GULP energy -495835.638684 kJ/mol
# GULP energy per Si atom -12395.890967 kJ/mol
# Density = 2.023561 g / cm^3
# Si number density = 20.281770 Si / 1000 Ang^3
#
#
#
# Elastic Constant Matrix: (Units=GPa)
#
#
# Indices 1 2 3 4 5 6 
#
# 1 94.5448 14.0451 11.7009 0.0000 0.0000 0.0000
# 2 14.0451 77.4571 -8.8320 0.0000 0.0000 0.0000
# 3 11.7009 -8.8320 66.6606 0.0000 0.0000 0.0000
# 4 0.0000 0.0000 0.0000 14.7181 0.0000 0.0000
# 5 0.0000 0.0000 0.0000 0.0000 2.9061 0.0000
# 6 0.0000 0.0000 0.0000 0.0000 0.0000 34.0753
#
#
#
# Elastic Compliance Matrix: (Units=1/GPa)
#
#
# Indices 1 2 3 4 5 6 
#
# 1 0.011198 -0.002289 -0.002269 0.000000 0.000000 0.000000
# 2 -0.002289 0.013576 0.002201 0.000000 0.000000 0.000000
# 3 -0.002269 0.002201 0.015691 0.000000 0.000000 0.000000
# 4 0.000000 0.000000 0.000000 0.067944 0.000000 0.000000
# 5 0.000000 0.000000 0.000000 0.000000 0.344107 0.000000
# 6 0.000000 0.000000 0.000000 0.000000 0.000000 0.029347
#
#
# Mechanical properties :
#
#
# Convention : Reuss Voigt Hill
#
# Bulk Modulus (GPa) = 27.97164 30.27672 29.12418
# Shear Modulus (GPa) = 10.03019 25.12312 17.57665
#
# Velocity S-wave (km/s) = 2.22624 3.52334 2.94704
# Velocity P-wave (km/s) = 4.51992 5.61359 5.09618
#
# Compressibility (1/GPa) = 0.03575050
#
# Stress axis : x y z
#
# Youngs Moduli (GPa) = 89.30276 73.65731 63.73011
#
# Poissons Ratio (x) = 0.16862 0.14459
# Poissons Ratio (y) = 0.20443 -0.14024
# Poissons Ratio (z) = 0.20261 -0.16209
#
# Static dielectric constant tensor:
#      x y z
#    x 3.767560 0.000000 0.000000 
#    y 0.000000 3.434770 0.000000 
#    z 0.000000 0.000000 3.366740 
# 
# 
# High freq. dielectric constant tensor:
#      x y z
#    x 1.790070 0.000000 0.000000 
#    y 0.000000 1.780020 0.000000 
#    z 0.000000 0.000000 1.770050 
# 
# From -- ./inp_files/69751.got.cif
#   From: 2010.03.12/outbox.cif.g09.slc.cpg/sg63_35_cif.got.tgz:69751.got - 2010.04.10 19:34:48.
