data_PCOD8259704
_publ_section_title
;
Structure prediction by ZEFSAII (Michael W. Deem and Ramdas Pophale) SiO2 
 PCOD8259704
Probable space group: C M C M
;
_chemical_formula_sum "Si O2"
_cell_formula_units_Z 64
_cell_length_a 9.329853
_cell_length_b 23.575537
_cell_length_c 14.879404
_cell_angle_alpha 90.000000
_cell_angle_beta 90.000000
_cell_angle_gamma 90.000000
_cell_volume 3272.818570
_symmetry_space_group_name_H-M "C M C M"
_symmetry_group_IT_number 63
_symmetry_cell_setting 'orthorhombic'
loop_
_space_group_symop_operation_xyz
x,y,z
-x,-y,1/2+z
x,-y,-z
-x,y,1/2-z
-x,-y,-z
x,y,1/2-z
-x,y,z
x,-y,1/2+z
1/2+x,1/2+y,z
1/2-x,1/2-y,1/2+z
1/2+x,1/2-y,-z
1/2-x,1/2+y,1/2-z
1/2-x,1/2-y,-z
1/2+x,1/2+y,1/2-z
1/2-x,1/2+y,z
1/2+x,1/2-y,1/2+z
loop_
_atom_site_type_symbol
_atom_site_label
_atom_site_fract_x
_atom_site_fract_y
_atom_site_fract_z
Si Si1 0.500000 0.257665 0.250000
Si Si2 0.500000 0.076285 0.250000
Si Si3 0.792115 0.933041 0.353994
Si Si4 0.750682 0.332053 0.750000
Si Si5 0.000000 0.030332 0.354318
Si Si6 0.500000 0.341825 0.415221
Si Si7 0.500000 0.654863 0.388102
Si Si8 0.000000 0.481033 0.398352
O O1 0.645738 0.221744 0.250000
O O2 0.500000 0.293453 0.340843
O O3 0.647275 0.112355 0.250000
O O4 0.500000 0.036995 0.337583
O O5 0.822444 0.920572 0.250000
O O6 0.858450 0.880538 0.407337
O O7 0.627611 0.938175 0.377337
O O8 0.861580 0.993455 0.379900
O O9 0.646576 0.329650 0.836357
O O10 0.000000 0.087678 0.411259
O O11 0.000000 0.049534 0.250000
O O12 0.500000 0.313918 0.514966
O O13 0.000000 0.500000 0.500000
#
# Coordination Sequence:
#
# PCOD8259704 Si02
#       8
#     4   4  16   8   8   8   8   8
#     4  11  24  50  64  84 114 162 196 269 318 356
#     4  11  22  42  58  86 130 178 194 249 294 360
#     4  10  20  38  56  90 123 176 199 234 285 367
#     4  10  24  42  68  86 118 154 212 254 318 348
#     4   9  17  32  61  84 125 156 200 228 286 354
#     4  11  24  40  68  86 124 156 207 246 305 360
#     4  11  22  39  65 100 114 150 198 259 297 373
#     4  12  25  33  56  90 137 162 203 242 297 346
#
# _framework density 19.555008999999998
#
# number of rings (size 3 to 8) (size 9 to 14) (size 15 to 20)
#    0.000    1.500    3.750    2.250    7.000    2.000 
#    0.000    2.500    0.000    0.000    0.000    0.000 
#    0.000    0.000    0.000    0.000    0.000    0.000 
#
# Total GULP energy -396791.697617 kJ/mol
# GULP energy per Si atom -12399.740551 kJ/mol
# Density = 1.951050 g / cm^3
# Si number density = 19.555009 Si / 1000 Ang^3
#
#
#
# Elastic Constant Matrix: (Units=GPa)
#
#
# Indices 1 2 3 4 5 6 
#
# 1 168.7225 56.0815 50.7421 0.0000 0.0000 0.0000
# 2 56.0815 95.9500 51.5869 0.0000 0.0000 0.0000
# 3 50.7421 51.5869 146.7531 0.0000 0.0000 0.0000
# 4 0.0000 0.0000 0.0000 16.5890 0.0000 0.0000
# 5 0.0000 0.0000 0.0000 0.0000 18.5457 0.0000
# 6 0.0000 0.0000 0.0000 0.0000 0.0000 15.9134
#
#
#
# Elastic Compliance Matrix: (Units=1/GPa)
#
#
# Indices 1 2 3 4 5 6 
#
# 1 0.007554 -0.003713 -0.001307 0.000000 0.000000 0.000000
# 2 -0.003713 0.014675 -0.003875 0.000000 0.000000 0.000000
# 3 -0.001307 -0.003875 0.008628 0.000000 0.000000 0.000000
# 4 0.000000 0.000000 0.000000 0.060281 0.000000 0.000000
# 5 0.000000 0.000000 0.000000 0.000000 0.053921 0.000000
# 6 0.000000 0.000000 0.000000 0.000000 0.000000 0.062840
#
#
# Mechanical properties :
#
#
# Convention : Reuss Voigt Hill
#
# Bulk Modulus (GPa) = 76.51908 80.91632 78.71770
# Shear Modulus (GPa) = 21.73489 27.07727 24.40608
#
# Velocity S-wave (km/s) = 3.33749 3.72515 3.53664
# Velocity P-wave (km/s) = 7.35302 7.74410 7.55109
#
# Compressibility (1/GPa) = 0.01306864
#
# Stress axis : x y z
#
# Youngs Moduli (GPa) = 132.38146 68.14109 115.89910
#
# Poissons Ratio (x) = 0.25298 0.15146
# Poissons Ratio (y) = 0.49147 0.44912
# Poissons Ratio (z) = 0.17300 0.26405
#
# Static dielectric constant tensor:
#      x y z
#    x 3.732340 0.000000 0.000000 
#    y 0.000000 3.337540 0.000000 
#    z 0.000000 0.000000 4.836390 
# 
# 
# High freq. dielectric constant tensor:
#      x y z
#    x 1.776220 0.000000 0.000000 
#    y 0.000000 1.734990 0.000000 
#    z 0.000000 0.000000 1.767160 
# 
# From -- ./inp_files/27856.got.cif
#   From: 2010.03.12/outbox.cif.g09.slc.cpg/sg63_14_cif.got.tgz:27856.got - 2010.04.10 19:34:48.
