data_PCOD8259787
_publ_section_title
;
Structure prediction by ZEFSAII (Michael W. Deem and Ramdas Pophale) SiO2 
 PCOD8259787
Probable space group: C M C M
;
_chemical_formula_sum "Si O2"
_cell_formula_units_Z 32
_cell_length_a 5.174544
_cell_length_b 18.880338
_cell_length_c 14.647692
_cell_angle_alpha 90.000000
_cell_angle_beta 90.000000
_cell_angle_gamma 90.000000
_cell_volume 1431.037612
_symmetry_space_group_name_H-M "C M C M"
_symmetry_group_IT_number 63
_symmetry_cell_setting 'orthorhombic'
loop_
_space_group_symop_operation_xyz
x,y,z
-x,-y,1/2+z
x,-y,-z
-x,y,1/2-z
-x,-y,-z
x,y,1/2-z
-x,y,z
x,-y,1/2+z
1/2+x,1/2+y,z
1/2-x,1/2-y,1/2+z
1/2+x,1/2-y,-z
1/2-x,1/2+y,1/2-z
1/2-x,1/2-y,-z
1/2+x,1/2+y,1/2-z
1/2-x,1/2+y,z
1/2+x,1/2-y,1/2+z
loop_
_atom_site_type_symbol
_atom_site_label
_atom_site_fract_x
_atom_site_fract_y
_atom_site_fract_z
Si Si1 0.000000 0.557842 0.349302
Si Si2 0.000000 0.580831 0.750000
Si Si3 0.500000 0.320511 0.250000
Si Si4 0.000000 0.218870 0.549667
Si Si5 0.000000 0.076820 0.459640
O O1 0.248163 0.587879 0.399294
O O2 0.000000 0.593333 0.250000
O O3 0.000000 0.471213 0.339622
O O4 0.249745 0.629733 0.750000
O O5 0.500000 0.269712 0.159771
O O6 0.750000 0.250000 0.500000
O O7 0.000000 0.133963 0.539904
O O8 0.000000 0.000000 0.500000
#
# Coordination Sequence:
#
# PCOD8259787 Si02
#       5
#     8   4   4   8   8
#     4  10  22  38  63 108 141 176 220 291 348 404
#     4  10  20  38  71 106 143 182 240 276 360 422
#     4  12  24  48  71  96 141 198 232 288 346 442
#     4  12  28  50  71 106 142 191 239 289 358 428
#     4  12  23  43  72 105 140 177 237 292 347 417
#
# _framework density 22.361395999999999
#
# number of rings (size 3 to 8) (size 9 to 14) (size 15 to 20)
#    0.750    0.000    0.000    9.000    0.000    0.000 
#   13.500    0.000    0.000    0.000    0.000    0.000 
#    0.000    0.000    0.000    0.000    0.000    0.000 
#
# Total GULP energy -198372.441105 kJ/mol
# GULP energy per Si atom -12398.277569 kJ/mol
# Density = 2.231050 g / cm^3
# Si number density = 22.361396 Si / 1000 Ang^3
#
#
#
# Elastic Constant Matrix: (Units=GPa)
#
#
# Indices 1 2 3 4 5 6 
#
# 1 199.8059 20.1117 59.6544 0.0000 0.0000 0.0000
# 2 20.1117 84.9406 38.2281 0.0000 0.0000 0.0000
# 3 59.6544 38.2281 167.8751 0.0000 0.0000 0.0000
# 4 0.0000 0.0000 0.0000 46.6638 0.0000 0.0000
# 5 0.0000 0.0000 0.0000 0.0000 30.8923 0.0000
# 6 0.0000 0.0000 0.0000 0.0000 0.0000 153.8758
#
#
#
# Elastic Compliance Matrix: (Units=1/GPa)
#
#
# Indices 1 2 3 4 5 6 
#
# 1 0.005616 -0.000481 -0.001886 0.000000 0.000000 0.000000
# 2 -0.000481 0.013158 -0.002826 0.000000 0.000000 0.000000
# 3 -0.001886 -0.002826 0.007271 0.000000 0.000000 0.000000
# 4 0.000000 0.000000 0.000000 0.021430 0.000000 0.000000
# 5 0.000000 0.000000 0.000000 0.000000 0.032371 0.000000
# 6 0.000000 0.000000 0.000000 0.000000 0.000000 0.006499
#
#
# Mechanical properties :
#
#
# Convention : Reuss Voigt Hill
#
# Bulk Modulus (GPa) = 63.85700 76.51223 70.18461
# Shear Modulus (GPa) = 49.04365 68.59487 58.81926
#
# Velocity S-wave (km/s) = 4.68827 5.54456 5.13430
# Velocity P-wave (km/s) = 7.61087 8.67641 8.16105
#
# Compressibility (1/GPa) = 0.01565999
#
# Stress axis : x y z
#
# Youngs Moduli (GPa) = 178.04881 75.99687 137.54159
#
# Poissons Ratio (x) = 0.03655 0.25944
# Poissons Ratio (y) = 0.08562 0.38863
# Poissons Ratio (z) = 0.33585 0.21473
#
# Static dielectric constant tensor:
#      x y z
#    x 4.911820 0.000000 0.000000 
#    y 0.000000 3.946430 0.000000 
#    z 0.000000 0.000000 3.954390 
# 
# 
# High freq. dielectric constant tensor:
#      x y z
#    x 1.902340 0.000000 0.000000 
#    y 0.000000 1.871820 0.000000 
#    z 0.000000 0.000000 1.888540 
# 
# From -- ./inp_files/26233.got.cif
#   From: 2010.03.12/outbox.cif.g09.slc.cpg/sg63_14_cif.got.tgz:26233.got - 2010.04.10 19:34:48.
