data_PCOD8259499
_publ_section_title
;
Structure prediction by ZEFSAII (Michael W. Deem and Ramdas Pophale) SiO2 
 PCOD8259499
Probable space group: C M C M
;
_chemical_formula_sum "Si O2"
_cell_formula_units_Z 96
_cell_length_a 9.186516
_cell_length_b 22.360697
_cell_length_c 23.228674
_cell_angle_alpha 90.000000
_cell_angle_beta 90.000000
_cell_angle_gamma 90.000000
_cell_volume 4771.562222
_symmetry_space_group_name_H-M "C M C M"
_symmetry_group_IT_number 63
_symmetry_cell_setting 'orthorhombic'
loop_
_space_group_symop_operation_xyz
x,y,z
-x,-y,1/2+z
x,-y,-z
-x,y,1/2-z
-x,-y,-z
x,y,1/2-z
-x,y,z
x,-y,1/2+z
1/2+x,1/2+y,z
1/2-x,1/2-y,1/2+z
1/2+x,1/2-y,-z
1/2-x,1/2+y,1/2-z
1/2-x,1/2-y,-z
1/2+x,1/2+y,1/2-z
1/2-x,1/2+y,z
1/2+x,1/2-y,1/2+z
loop_
_atom_site_type_symbol
_atom_site_label
_atom_site_fract_x
_atom_site_fract_y
_atom_site_fract_z
Si Si1 0.331026 0.214771 0.116782
Si Si2 0.327693 0.821025 0.182663
Si Si3 0.831707 0.968058 0.905917
Si Si4 0.667147 0.094810 0.186221
Si Si5 0.169353 0.146429 0.475556
Si Si6 0.832022 0.897504 0.097458
O O1 0.500000 0.231741 0.108189
O O2 0.249768 0.267753 0.148935
O O3 0.307384 0.158068 0.156804
O O4 0.261852 0.199305 0.054395
O O5 0.283641 0.821298 0.250000
O O6 0.500000 0.815936 0.175415
O O7 0.269617 0.881331 0.151853
O O8 0.750942 0.957741 0.845874
O O9 0.780164 0.919254 0.952924
O O10 0.000000 0.959220 0.893841
O O11 0.797060 0.035642 0.925530
O O12 0.731423 0.099693 0.250000
O O13 0.500000 0.076544 0.186677
O O14 0.198652 0.147653 0.544130
O O15 0.000000 0.157300 0.461868
O O16 0.000000 0.892846 0.116866
#
# Coordination Sequence:
#
# PCOD8259499 Si02
#       6
#    16  16  16  16  16  16
#     4  10  20  36  59  84 109 140 180 227 277 327
#     4  11  25  42  58  78 107 145 186 227 272 321
#     4   9  18  33  54  81 111 143 181 223 267 317
#     4   9  18  32  51  77 108 141 178 223 275 326
#     4   9  18  35  59  86 114 142 176 222 273 322
#     4  10  21  37  58  82 110 147 185 221 265 319
#
# _framework density 20.119195999999999
#
# number of rings (size 3 to 8) (size 9 to 14) (size 15 to 20)
#    0.000    2.333    0.000    2.000    0.000    7.667 
#    0.000    3.333    0.000    5.000    0.000    0.000 
#    0.000    0.000    0.000    0.000    0.000    0.000 
#
# Total GULP energy -595131.993141 kJ/mol
# GULP energy per Si atom -12398.583190 kJ/mol
# Density = 2.007340 g / cm^3
# Si number density = 20.119196 Si / 1000 Ang^3
#
#
#
# Elastic Constant Matrix: (Units=GPa)
#
#
# Indices 1 2 3 4 5 6 
#
# 1 71.6420 33.4452 43.7710 0.0000 0.0000 0.0000
# 2 33.4452 54.0858 22.3306 0.0000 0.0000 0.0000
# 3 43.7710 22.3306 102.1491 0.0000 0.0000 0.0000
# 4 0.0000 0.0000 0.0000 18.3958 0.0000 0.0000
# 5 0.0000 0.0000 0.0000 0.0000 33.4982 0.0000
# 6 0.0000 0.0000 0.0000 0.0000 0.0000 31.6559
#
#
#
# Elastic Compliance Matrix: (Units=1/GPa)
#
#
# Indices 1 2 3 4 5 6 
#
# 1 0.024213 -0.011749 -0.007807 0.000000 0.000000 0.000000
# 2 -0.011749 0.026025 -0.000655 0.000000 0.000000 0.000000
# 3 -0.007807 -0.000655 0.013278 0.000000 0.000000 0.000000
# 4 0.000000 0.000000 0.000000 0.054360 0.000000 0.000000
# 5 0.000000 0.000000 0.000000 0.000000 0.029852 0.000000
# 6 0.000000 0.000000 0.000000 0.000000 0.000000 0.031590
#
#
# Mechanical properties :
#
#
# Convention : Reuss Voigt Hill
#
# Bulk Modulus (GPa) = 43.30090 47.44119 45.37104
# Shear Modulus (GPa) = 21.98399 25.26532 23.62465
#
# Velocity S-wave (km/s) = 3.30917 3.54755 3.43043
# Velocity P-wave (km/s) = 6.01412 6.35699 6.18793
#
# Compressibility (1/GPa) = 0.02309421
#
# Stress axis : x y z
#
# Youngs Moduli (GPa) = 41.29993 38.42463 75.31286
#
# Poissons Ratio (x) = 0.45147 0.58795
# Poissons Ratio (y) = 0.48525 0.04930
# Poissons Ratio (z) = 0.32242 0.02515
#
# Static dielectric constant tensor:
#      x y z
#    x 3.630100 0.000000 0.000000 
#    y 0.000000 3.714520 0.000000 
#    z 0.000000 0.000000 4.425520 
# 
# 
# High freq. dielectric constant tensor:
#      x y z
#    x 1.776410 0.000000 0.000000 
#    y 0.000000 1.786050 0.000000 
#    z 0.000000 0.000000 1.790110 
# 
# From -- ./inp_files/59949.got.cif
#   From: 2010.03.12/outbox.cif.g09.slc.cpg/sg63_30_cif.got.tgz:59949.got - 2010.04.10 19:34:48.
