data_PCOD8259993
_publ_section_title
;
Structure prediction by ZEFSAII (Michael W. Deem and Ramdas Pophale) SiO2 
 PCOD8259993
Probable space group: C M C M
;
_chemical_formula_sum "Si O2"
_cell_formula_units_Z 96
_cell_length_a 9.145628
_cell_length_b 19.877767
_cell_length_c 29.024222
_cell_angle_alpha 90.000000
_cell_angle_beta 90.000000
_cell_angle_gamma 90.000000
_cell_volume 5276.448641
_symmetry_space_group_name_H-M "C M C M"
_symmetry_group_IT_number 63
_symmetry_cell_setting 'orthorhombic'
loop_
_space_group_symop_operation_xyz
x,y,z
-x,-y,1/2+z
x,-y,-z
-x,y,1/2-z
-x,-y,-z
x,y,1/2-z
-x,y,z
x,-y,1/2+z
1/2+x,1/2+y,z
1/2-x,1/2-y,1/2+z
1/2+x,1/2-y,-z
1/2-x,1/2+y,1/2-z
1/2-x,1/2-y,-z
1/2+x,1/2+y,1/2-z
1/2-x,1/2+y,z
1/2+x,1/2-y,1/2+z
loop_
_atom_site_type_symbol
_atom_site_label
_atom_site_fract_x
_atom_site_fract_y
_atom_site_fract_z
Si Si1 0.171619 0.191849 0.527443
Si Si2 0.168327 0.426129 0.519579
Si Si3 0.327622 0.004543 0.302617
Si Si4 0.828377 0.758985 0.372870
Si Si5 0.829598 0.131921 0.697120
Si Si6 0.173446 0.608959 0.378179
O O1 0.250000 0.250000 0.500000
O O2 0.231886 0.120180 0.512180
O O3 0.210515 0.201801 0.580687
O O4 0.000000 0.195940 0.517989
O O5 0.189576 0.500000 0.500000
O O6 0.221875 0.421773 0.572598
O O7 0.000000 0.402347 0.516010
O O8 0.285041 0.023441 0.250000
O O9 0.500000 0.995278 0.307876
O O10 0.254012 0.935121 0.318085
O O11 0.267198 0.062580 0.336545
O O12 0.766789 0.804552 0.331298
O O13 0.758725 0.683992 0.372440
O O14 0.000000 0.749916 0.367107
O O15 0.799605 0.149144 0.750000
O O16 0.000000 0.120068 0.686767
O O17 0.000000 0.611891 0.375596
#
# Coordination Sequence:
#
# PCOD8259993 Si02
#       6
#    16  16  16  16  16  16
#     4  11  21  36  56  77 107 141 174 216 263 311
#     4  10  21  36  54  77 106 141 178 216 259 311
#     4   9  18  32  52  77 102 131 167 209 256 304
#     4   9  18  32  52  76 102 131 167 213 257 298
#     4   9  18  33  53  76 101 131 166 205 254 309
#     4   9  17  32  51  73 103 133 167 212 255 297
#
# _framework density 18.194056
#
# number of rings (size 3 to 8) (size 9 to 14) (size 15 to 20)
#    0.000    2.500    1.667    0.500    2.333    1.000 
#    0.000    5.000    0.000    0.000    0.000    4.667 
#    0.000    0.000    0.000    0.000    0.000    0.000 
#
# Total GULP energy -595156.131822 kJ/mol
# GULP energy per Si atom -12399.086080 kJ/mol
# Density = 1.815265 g / cm^3
# Si number density = 18.194056 Si / 1000 Ang^3
#
#
#
# Elastic Constant Matrix: (Units=GPa)
#
#
# Indices 1 2 3 4 5 6 
#
# 1 36.8157 37.1014 33.1293 0.0000 0.0000 0.0000
# 2 37.1014 151.2876 101.4276 0.0000 0.0000 0.0000
# 3 33.1293 101.4276 135.4281 0.0000 0.0000 0.0000
# 4 0.0000 0.0000 0.0000 43.4476 0.0000 0.0000
# 5 0.0000 0.0000 0.0000 0.0000 19.6627 0.0000
# 6 0.0000 0.0000 0.0000 0.0000 0.0000 26.6676
#
#
#
# Elastic Compliance Matrix: (Units=1/GPa)
#
#
# Indices 1 2 3 4 5 6 
#
# 1 0.037444 -0.006109 -0.004584 0.000000 0.000000 0.000000
# 2 -0.006109 0.014273 -0.009195 0.000000 0.000000 0.000000
# 3 -0.004584 -0.009195 0.015392 0.000000 0.000000 0.000000
# 4 0.000000 0.000000 0.000000 0.023016 0.000000 0.000000
# 5 0.000000 0.000000 0.000000 0.000000 0.050858 0.000000
# 6 0.000000 0.000000 0.000000 0.000000 0.000000 0.037499
#
#
# Mechanical properties :
#
#
# Convention : Reuss Voigt Hill
#
# Bulk Modulus (GPa) = 36.58746 74.09424 55.34085
# Shear Modulus (GPa) = 21.99067 28.08047 25.03557
#
# Velocity S-wave (km/s) = 3.48037 3.93286 3.71351
# Velocity P-wave (km/s) = 6.02527 7.83811 6.99070
#
# Compressibility (1/GPa) = 0.02733177
#
# Stress axis : x y z
#
# Youngs Moduli (GPa) = 26.70633 70.06391 64.96924
#
# Poissons Ratio (x) = 0.42804 0.29785
# Poissons Ratio (y) = 0.16316 0.59739
# Poissons Ratio (z) = 0.12243 0.64423
#
# Static dielectric constant tensor:
#      x y z
#    x 3.127170 0.000000 0.000000 
#    y 0.000000 3.763230 0.000000 
#    z 0.000000 0.000000 3.512530 
# 
# 
# High freq. dielectric constant tensor:
#      x y z
#    x 1.666920 0.000000 0.000000 
#    y 0.000000 1.714960 0.000000 
#    z 0.000000 0.000000 1.715800 
# 
# From -- ./inp_files/66890.got.cif
#   From: 2010.03.12/outbox.cif.g09.slc.cpg/sg63_34_cif.got.tgz:66890.got - 2010.04.10 19:34:48.
