data_PCOD8259569
_publ_section_title
;
Structure prediction by ZEFSAII (Michael W. Deem and Ramdas Pophale) SiO2 
 PCOD8259569
Probable space group: C M C M
;
_chemical_formula_sum "Si O2"
_cell_formula_units_Z 96
_cell_length_a 22.117646
_cell_length_b 14.989245
_cell_length_c 14.625623
_cell_angle_alpha 90.000000
_cell_angle_beta 90.000000
_cell_angle_gamma 90.000000
_cell_volume 4848.786206
_symmetry_space_group_name_H-M "C M C M"
_symmetry_group_IT_number 63
_symmetry_cell_setting 'orthorhombic'
loop_
_space_group_symop_operation_xyz
x,y,z
-x,-y,1/2+z
x,-y,-z
-x,y,1/2-z
-x,-y,-z
x,y,1/2-z
-x,y,z
x,-y,1/2+z
1/2+x,1/2+y,z
1/2-x,1/2-y,1/2+z
1/2+x,1/2-y,-z
1/2-x,1/2+y,1/2-z
1/2-x,1/2-y,-z
1/2+x,1/2+y,1/2-z
1/2-x,1/2+y,z
1/2+x,1/2-y,1/2+z
loop_
_atom_site_type_symbol
_atom_site_label
_atom_site_fract_x
_atom_site_fract_y
_atom_site_fract_z
Si Si1 0.363979 0.413870 0.561335
Si Si2 0.811428 0.736476 0.250000
Si Si3 0.761992 0.667858 0.433097
Si Si4 0.910501 0.844682 0.250000
Si Si5 0.564825 0.277315 0.449018
Si Si6 0.930779 0.050817 0.250000
Si Si7 0.110144 0.584194 0.059161
Si Si8 0.072318 0.610721 0.250000
O O1 0.379296 0.500000 0.500000
O O2 0.292571 0.402278 0.574847
O O3 0.383670 0.327888 0.504011
O O4 0.396990 0.415404 0.659027
O O5 0.771316 0.714270 0.336000
O O6 0.835639 0.839510 0.250000
O O7 0.879438 0.693063 0.250000
O O8 0.750000 0.750000 0.500000
O O9 0.819582 0.607649 0.457848
O O10 0.935638 0.797796 0.158526
O O11 0.931846 0.945122 0.250000
O O12 0.500000 0.305956 0.489738
O O13 0.572039 0.171930 0.465242
O O14 0.000000 0.086050 0.250000
O O15 0.091595 0.553746 0.161494
O O16 0.090737 0.500000 0.000000
O O17 0.000000 0.635712 0.250000
#
# Coordination Sequence:
#
# PCOD8259569 Si02
#       8
#    16   8  16   8  16   8  16   8
#     4  12  25  42  65  94 128 172 216 261 324 384
#     4  10  21  37  62  89 123 162 208 256 323 369
#     4  11  21  43  65  91 127 168 213 265 317 380
#     4  12  20  39  65  97 123 164 211 267 321 366
#     4  12  23  39  65  95 131 165 209 267 321 378
#     4  12  27  42  62  95 135 171 212 261 324 398
#     4  11  23  41  65  95 127 167 213 266 323 377
#     4  10  20  36  61  91 124 155 204 266 310 365
#
# _framework density 19.798770000000001
#
# number of rings (size 3 to 8) (size 9 to 14) (size 15 to 20)
#    0.000    0.667    6.667    2.750    0.000    2.333 
#    0.000    1.667    0.000    1.000    0.000    0.000 
#    0.000    0.000    0.000    0.000    0.000    0.000 
#
# Total GULP energy -594810.540859 kJ/mol
# GULP energy per Si atom -12391.886268 kJ/mol
# Density = 1.975371 g / cm^3
# Si number density = 19.798770 Si / 1000 Ang^3
#
#
#
# Elastic Constant Matrix: (Units=GPa)
#
#
# Indices 1 2 3 4 5 6 
#
# 1 115.5528 20.7256 47.3967 0.0000 0.0000 0.0000
# 2 20.7256 92.4996 52.1735 0.0000 0.0000 0.0000
# 3 47.3967 52.1735 141.0422 0.0000 0.0000 0.0000
# 4 0.0000 0.0000 0.0000 76.4246 0.0000 0.0000
# 5 0.0000 0.0000 0.0000 0.0000 31.2282 0.0000
# 6 0.0000 0.0000 0.0000 0.0000 0.0000 -1.3560
#
#
#
# Elastic Compliance Matrix: (Units=1/GPa)
#
#
# Indices 1 2 3 4 5 6 
#
# 1 0.010052 -0.000438 -0.003216 0.000000 0.000000 0.000000
# 2 -0.000438 0.013680 -0.004913 0.000000 0.000000 0.000000
# 3 -0.003216 -0.004913 0.009988 0.000000 0.000000 0.000000
# 4 0.000000 0.000000 0.000000 0.013085 0.000000 0.000000
# 5 0.000000 0.000000 0.000000 0.000000 0.032022 0.000000
# 6 0.000000 0.000000 0.000000 0.000000 0.000000 -0.737470
#
#
# Mechanical properties :
#
#
# Convention : Reuss Voigt Hill
#
# Bulk Modulus (GPa) = 60.29340 65.52068 62.90704
# Shear Modulus (GPa) = -7.86189 36.51261 14.32536
#
# Velocity S-wave (km/s) = -1.99487 4.29906 2.69280
# Velocity P-wave (km/s) = 5.02127 7.60314 6.44286
#
# Compressibility (1/GPa) = 0.01658556
#
# Stress axis : x y z
#
# Youngs Moduli (GPa) = 99.48607 73.09759 100.11870
#
# Poissons Ratio (x) = 0.03205 0.32194
# Poissons Ratio (y) = 0.04362 0.49190
# Poissons Ratio (z) = 0.31991 0.35914
#
# Static dielectric constant tensor:
#      x y z
#    x 3.809200 0.000000 0.000000 
#    y 0.000000 3.420480 0.000000 
#    z 0.000000 0.000000 3.750950 
# 
# 
# High freq. dielectric constant tensor:
#      x y z
#    x 1.788870 0.000000 0.000000 
#    y 0.000000 1.754820 0.000000 
#    z 0.000000 0.000000 1.778100 
# 
# From -- ./inp_files/35459.got.cif
#   From: 2010.03.12/outbox.cif.g09.slc.cpg/sg63_18_cif.got.tgz:35459.got - 2010.04.10 19:34:48.
