data_PCOD8259482
_publ_section_title
;
Structure prediction by ZEFSAII (Michael W. Deem and Ramdas Pophale) SiO2 
 PCOD8259482
Probable space group: C M C M
;
_chemical_formula_sum "Si O2"
_cell_formula_units_Z 80
_cell_length_a 15.387063
_cell_length_b 14.523877
_cell_length_c 17.289803
_cell_angle_alpha 90.000000
_cell_angle_beta 90.000000
_cell_angle_gamma 90.000000
_cell_volume 3863.921896
_symmetry_space_group_name_H-M "C M C M"
_symmetry_group_IT_number 63
_symmetry_cell_setting 'orthorhombic'
loop_
_space_group_symop_operation_xyz
x,y,z
-x,-y,1/2+z
x,-y,-z
-x,y,1/2-z
-x,-y,-z
x,y,1/2-z
-x,y,z
x,-y,1/2+z
1/2+x,1/2+y,z
1/2-x,1/2-y,1/2+z
1/2+x,1/2-y,-z
1/2-x,1/2+y,1/2-z
1/2-x,1/2-y,-z
1/2+x,1/2+y,1/2-z
1/2-x,1/2+y,z
1/2+x,1/2-y,1/2+z
loop_
_atom_site_type_symbol
_atom_site_label
_atom_site_fract_x
_atom_site_fract_y
_atom_site_fract_z
Si Si1 0.836703 0.330746 0.835904
Si Si2 0.689174 0.526879 0.166050
Si Si3 0.904163 0.102540 0.467885
Si Si4 0.902835 0.607615 0.006401
Si Si5 0.265421 0.340283 0.419082
O O1 0.879548 0.311745 0.750000
O O2 0.778567 0.419943 0.826510
O O3 0.903816 0.355406 0.904672
O O4 0.777709 0.243481 0.860105
O O5 0.648970 0.505431 0.250000
O O6 0.620273 0.591414 0.121836
O O7 0.711520 0.432860 0.124365
O O8 0.834102 0.168259 0.509851
O O9 0.000000 0.147178 0.477072
O O10 0.902613 0.000000 0.500000
O O11 0.831879 0.660992 0.954224
O O12 0.000000 0.624520 0.973246
O O13 0.878645 0.500000 0.000000
#
# Coordination Sequence:
#
# PCOD8259482 Si02
#       5
#    16  16  16  16  16
#     4  11  23  39  61  89 120 157 203 254 307 358
#     4  10  20  36  58  84 120 156 196 248 305 361
#     4   9  18  33  56  83 113 150 195 245 297 356
#     4  11  22  40  65  92 125 167 208 251 306 370
#     4  11  20  40  62  88 118 163 206 252 303 364
#
# _framework density 20.704353000000001
#
# number of rings (size 3 to 8) (size 9 to 14) (size 15 to 20)
#    0.000    1.600    4.000    1.800    0.000    1.600 
#    0.000    0.000    0.000    7.200    0.000    0.000 
#    0.000    0.000    0.000    0.000    0.000    0.000 
#
# Total GULP energy -495680.544415 kJ/mol
# GULP energy per Si atom -12392.013610 kJ/mol
# Density = 2.065723 g / cm^3
# Si number density = 20.704353 Si / 1000 Ang^3
#
#
#
# Elastic Constant Matrix: (Units=GPa)
#
#
# Indices 1 2 3 4 5 6 
#
# 1 96.0236 8.3418 25.0508 0.0000 0.0000 0.0000
# 2 8.3418 81.3553 29.8077 0.0000 0.0000 0.0000
# 3 25.0508 29.8077 143.5288 0.0000 0.0000 0.0000
# 4 0.0000 0.0000 0.0000 21.2334 0.0000 0.0000
# 5 0.0000 0.0000 0.0000 0.0000 16.8388 0.0000
# 6 0.0000 0.0000 0.0000 0.0000 0.0000 -4.2629
#
#
#
# Elastic Compliance Matrix: (Units=1/GPa)
#
#
# Indices 1 2 3 4 5 6 
#
# 1 0.010927 -0.000456 -0.001812 0.000000 0.000000 0.000000
# 2 -0.000456 0.013323 -0.002687 0.000000 0.000000 0.000000
# 3 -0.001812 -0.002687 0.007842 0.000000 0.000000 0.000000
# 4 0.000000 0.000000 0.000000 0.047096 0.000000 0.000000
# 5 0.000000 0.000000 0.000000 0.000000 0.059387 0.000000
# 6 0.000000 0.000000 0.000000 0.000000 0.000000 -0.234584
#
#
# Mechanical properties :
#
#
# Convention : Reuss Voigt Hill
#
# Bulk Modulus (GPa) = 45.08669 49.70092 47.39381
# Shear Modulus (GPa) = -63.52825 23.94235 -19.79295
#
# Velocity S-wave (km/s) = -5.54528 3.40427 -3.09525
# Velocity P-wave (km/s) = 4.37910 6.28563 3.18847
#
# Compressibility (1/GPa) = 0.02217949
#
# Stress axis : x y z
#
# Youngs Moduli (GPa) = 91.52022 75.05737 127.52436
#
# Poissons Ratio (x) = 0.03425 0.23111
# Poissons Ratio (y) = 0.04177 0.34269
# Poissons Ratio (z) = 0.16586 0.20170
#
# Static dielectric constant tensor:
#      x y z
#    x 3.636330 0.000000 0.000000 
#    y 0.000000 3.739060 0.000000 
#    z 0.000000 0.000000 5.329730 
# 
# 
# High freq. dielectric constant tensor:
#      x y z
#    x 1.788460 0.000000 0.000000 
#    y 0.000000 1.820100 0.000000 
#    z 0.000000 0.000000 1.809280 
# 
# From -- ./inp_files/47019.got.cif
#   From: 2010.03.12/outbox.cif.g09.slc.cpg/sg63_24_cif.got.tgz:47019.got - 2010.04.10 19:34:48.
