data_PCOD8259435
_publ_section_title
;
Structure prediction by ZEFSAII (Michael W. Deem and Ramdas Pophale) SiO2 
 PCOD8259435
Probable space group: C M C M
;
_chemical_formula_sum "Si O2"
_cell_formula_units_Z 88
_cell_length_a 16.671116
_cell_length_b 8.952084
_cell_length_c 31.209471
_cell_angle_alpha 90.000000
_cell_angle_beta 90.000000
_cell_angle_gamma 90.000000
_cell_volume 4657.739865
_symmetry_space_group_name_H-M "C M C M"
_symmetry_group_IT_number 63
_symmetry_cell_setting 'orthorhombic'
loop_
_space_group_symop_operation_xyz
x,y,z
-x,-y,1/2+z
x,-y,-z
-x,y,1/2-z
-x,-y,-z
x,y,1/2-z
-x,y,z
x,-y,1/2+z
1/2+x,1/2+y,z
1/2-x,1/2-y,1/2+z
1/2+x,1/2-y,-z
1/2-x,1/2+y,1/2-z
1/2-x,1/2-y,-z
1/2+x,1/2+y,1/2-z
1/2-x,1/2+y,z
1/2+x,1/2-y,1/2+z
loop_
_atom_site_type_symbol
_atom_site_label
_atom_site_fract_x
_atom_site_fract_y
_atom_site_fract_z
Si Si1 0.344993 0.329947 0.105925
Si Si2 0.835726 0.827830 0.492093
Si Si3 0.000000 0.857953 0.968969
Si Si4 0.500000 0.496254 0.123935
Si Si5 0.829582 0.310609 0.201807
Si Si6 0.758327 0.432345 0.649292
Si Si7 0.500000 0.285496 0.703014
O O1 0.360530 0.299790 0.056433
O O2 0.425076 0.387608 0.127615
O O3 0.278249 0.458856 0.112956
O O4 0.324100 0.172058 0.127186
O O5 0.750000 0.750000 0.500000
O O6 0.914323 0.772725 0.520573
O O7 0.819353 0.000000 0.500000
O O8 0.000000 0.902416 0.919076
O O9 0.000000 0.000000 0.000000
O O10 0.500000 0.594712 0.165897
O O11 0.797993 0.281179 0.250000
O O12 0.795998 0.468142 0.186469
O O13 0.807600 0.172423 0.171219
O O14 0.924879 0.324610 0.199598
O O15 0.500000 0.366616 0.750000
#
# Coordination Sequence:
#
# PCOD8259435 Si02
#       7
#    16  16   8   8  16  16   8
#     4  11  21  36  58  85 118 154 197 242 295 351
#     4  11  21  37  59  87 118 158 199 247 292 356
#     4  10  20  36  57  87 112 159 199 229 302 354
#     4  12  20  39  61  83 120 157 198 250 293 364
#     4  10  20  38  58  82 116 152 194 245 296 355
#     4  10  22  35  56  88 114 151 199 236 299 353
#     4  10  22  37  59  86 114 154 195 241 303 353
#
# _framework density 18.893284000000001
#
# number of rings (size 3 to 8) (size 9 to 14) (size 15 to 20)
#    0.000    1.455    5.455    1.636    0.000    0.727 
#    0.000    1.364    0.000    1.091    0.000    0.000 
#    0.000    0.000    0.000    0.000    0.000    0.000 
#
# Total GULP energy -545314.782821 kJ/mol
# GULP energy per Si atom -12393.517791 kJ/mol
# Density = 1.885028 g / cm^3
# Si number density = 18.893284 Si / 1000 Ang^3
#
#
#
# Elastic Constant Matrix: (Units=GPa)
#
#
# Indices 1 2 3 4 5 6 
#
# 1 130.6166 34.1835 21.8223 0.0000 0.0000 0.0000
# 2 34.1835 74.8874 20.1126 0.0000 0.0000 0.0000
# 3 21.8223 20.1126 89.6509 0.0000 0.0000 0.0000
# 4 0.0000 0.0000 0.0000 24.7835 0.0000 0.0000
# 5 0.0000 0.0000 0.0000 0.0000 30.5160 0.0000
# 6 0.0000 0.0000 0.0000 0.0000 0.0000 67.2366
#
#
#
# Elastic Compliance Matrix: (Units=1/GPa)
#
#
# Indices 1 2 3 4 5 6 
#
# 1 0.008840 -0.003679 -0.001327 0.000000 0.000000 0.000000
# 2 -0.003679 0.015741 -0.002636 0.000000 0.000000 0.000000
# 3 -0.001327 -0.002636 0.012069 0.000000 0.000000 0.000000
# 4 0.000000 0.000000 0.000000 0.040349 0.000000 0.000000
# 5 0.000000 0.000000 0.000000 0.000000 0.032770 0.000000
# 6 0.000000 0.000000 0.000000 0.000000 0.000000 0.014873
#
#
# Mechanical properties :
#
#
# Convention : Reuss Voigt Hill
#
# Bulk Modulus (GPa) = 46.80127 49.71019 48.25573
# Shear Modulus (GPa) = 34.00277 39.10964 36.55621
#
# Velocity S-wave (km/s) = 4.24692 4.55469 4.40350
# Velocity P-wave (km/s) = 6.99097 7.35041 7.17294
#
# Compressibility (1/GPa) = 0.02136694
#
# Stress axis : x y z
#
# Youngs Moduli (GPa) = 113.11608 63.52975 82.85975
#
# Poissons Ratio (x) = 0.23373 0.10991
# Poissons Ratio (y) = 0.41617 0.21840
# Poissons Ratio (z) = 0.15005 0.16745
#
# Static dielectric constant tensor:
#      x y z
#    x 3.737110 0.000000 0.000000 
#    y 0.000000 3.179310 0.000000 
#    z 0.000000 0.000000 3.615220 
# 
# 
# High freq. dielectric constant tensor:
#      x y z
#    x 1.749370 0.000000 0.000000 
#    y 0.000000 1.708130 0.000000 
#    z 0.000000 0.000000 1.746590 
# 
# From -- ./inp_files/73854.got.cif
#   From: 2010.03.12/outbox.cif.g09.slc.cpg/sg63_37_cif.got.tgz:73854.got - 2010.04.10 19:34:48.
