data_PCOD8259846
_publ_section_title
;
Structure prediction by ZEFSAII (Michael W. Deem and Ramdas Pophale) SiO2 
 PCOD8259846
Probable space group: C M C M
;
_chemical_formula_sum "Si O2"
_cell_formula_units_Z 88
_cell_length_a 11.870483
_cell_length_b 15.002412
_cell_length_c 22.423267
_cell_angle_alpha 90.000000
_cell_angle_beta 90.000000
_cell_angle_gamma 90.000000
_cell_volume 3993.267160
_symmetry_space_group_name_H-M "C M C M"
_symmetry_group_IT_number 63
_symmetry_cell_setting 'orthorhombic'
loop_
_space_group_symop_operation_xyz
x,y,z
-x,-y,1/2+z
x,-y,-z
-x,y,1/2-z
-x,-y,-z
x,y,1/2-z
-x,y,z
x,-y,1/2+z
1/2+x,1/2+y,z
1/2-x,1/2-y,1/2+z
1/2+x,1/2-y,-z
1/2-x,1/2+y,1/2-z
1/2-x,1/2-y,-z
1/2+x,1/2+y,1/2-z
1/2-x,1/2+y,z
1/2+x,1/2-y,1/2+z
loop_
_atom_site_type_symbol
_atom_site_label
_atom_site_fract_x
_atom_site_fract_y
_atom_site_fract_z
Si Si1 0.718133 0.779274 0.317894
Si Si2 0.000000 0.602720 0.817520
Si Si3 0.000000 0.603251 0.505370
Si Si4 0.254201 0.098432 0.126166
Si Si5 0.762846 0.646185 0.508024
Si Si6 0.000000 0.421083 0.626695
Si Si7 0.866119 0.917203 0.381672
O O1 0.743422 0.755319 0.250000
O O2 0.608852 0.838021 0.326557
O O3 0.691560 0.687208 0.352476
O O4 0.825640 0.832514 0.343301
O O5 0.000000 0.561094 0.750000
O O6 0.000000 0.529552 0.870679
O O7 0.000000 0.500000 0.500000
O O8 0.113056 0.636385 0.538224
O O9 0.000000 0.632336 0.435801
O O10 0.259971 0.094100 0.054406
O O11 0.379695 0.103875 0.156690
O O12 0.188479 0.008361 0.144882
O O13 0.750000 0.750000 0.500000
O O14 0.669058 0.602062 0.549993
O O15 0.000000 0.925761 0.377768
#
# Coordination Sequence:
#
# PCOD8259846 Si02
#       7
#    16   8   8  16  16   8  16
#     4  11  26  46  71 102 134 178 234 282 339 406
#     4  10  22  44  70  96 128 170 231 291 329 395
#     4  10  22  36  64  97 127 170 221 272 328 404
#     4  11  24  43  69 101 137 182 225 281 342 407
#     4  11  23  41  67 101 136 179 226 277 340 408
#     4  10  20  40  70  93 129 169 229 276 333 397
#     4  12  27  46  68 101 146 181 226 281 344 413
#
# _framework density 22.037092999999999
#
# number of rings (size 3 to 8) (size 9 to 14) (size 15 to 20)
#    0.000    1.091    3.636    2.727    3.818    3.273 
#    0.000    0.000    0.000    0.000    0.000    0.000 
#    0.000    0.000    0.000    0.000    0.000    0.000 
#
# Total GULP energy -545352.462996 kJ/mol
# GULP energy per Si atom -12394.374159 kJ/mol
# Density = 2.198694 g / cm^3
# Si number density = 22.037093 Si / 1000 Ang^3
#
#
#
# Elastic Constant Matrix: (Units=GPa)
#
#
# Indices 1 2 3 4 5 6 
#
# 1 142.7828 26.4325 20.9414 0.0000 0.0000 0.0000
# 2 26.4325 112.2219 9.0292 0.0000 0.0000 0.0000
# 3 20.9414 9.0292 73.4574 0.0000 0.0000 0.0000
# 4 0.0000 0.0000 0.0000 27.0188 0.0000 0.0000
# 5 0.0000 0.0000 0.0000 0.0000 20.6431 0.0000
# 6 0.0000 0.0000 0.0000 0.0000 0.0000 21.2025
#
#
#
# Elastic Compliance Matrix: (Units=1/GPa)
#
#
# Indices 1 2 3 4 5 6 
#
# 1 0.007594 -0.001631 -0.001964 0.000000 0.000000 0.000000
# 2 -0.001631 0.009350 -0.000684 0.000000 0.000000 0.000000
# 3 -0.001964 -0.000684 0.014257 0.000000 0.000000 0.000000
# 4 0.000000 0.000000 0.000000 0.037011 0.000000 0.000000
# 5 0.000000 0.000000 0.000000 0.000000 0.048442 0.000000
# 6 0.000000 0.000000 0.000000 0.000000 0.000000 0.047164
#
#
# Mechanical properties :
#
#
# Convention : Reuss Voigt Hill
#
# Bulk Modulus (GPa) = 44.16495 49.02981 46.59738
# Shear Modulus (GPa) = 27.78933 31.91015 29.84974
#
# Velocity S-wave (km/s) = 3.55494 3.80941 3.68438
# Velocity P-wave (km/s) = 6.07741 6.45336 6.26820
#
# Compressibility (1/GPa) = 0.02264239
#
# Stress axis : x y z
#
# Youngs Moduli (GPa) = 131.68980 106.95149 70.13865
#
# Poissons Ratio (x) = 0.17439 0.13778
# Poissons Ratio (y) = 0.21472 0.04801
# Poissons Ratio (z) = 0.25869 0.07320
#
# Static dielectric constant tensor:
#      x y z
#    x 4.107430 0.000000 0.000000 
#    y 0.000000 3.792200 0.000000 
#    z 0.000000 0.000000 3.414950 
# 
# 
# High freq. dielectric constant tensor:
#      x y z
#    x 1.872470 0.000000 0.000000 
#    y 0.000000 1.875860 0.000000 
#    z 0.000000 0.000000 1.850800 
# 
# From -- ./inp_files/61293.got.cif
#   From: 2010.03.12/outbox.cif.g09.slc.cpg/sg63_31_cif.got.tgz:61293.got - 2010.04.10 19:34:48.
