data_PCOD8259176
_publ_section_title
;
Structure prediction by ZEFSAII (Michael W. Deem and Ramdas Pophale) SiO2 
 PCOD8259176
Probable space group: C M C M
;
_chemical_formula_sum "Si O2"
_cell_formula_units_Z 96
_cell_length_a 9.302343
_cell_length_b 28.752462
_cell_length_c 20.306941
_cell_angle_alpha 90.000000
_cell_angle_beta 90.000000
_cell_angle_gamma 90.000000
_cell_volume 5431.401328
_symmetry_space_group_name_H-M "C M C M"
_symmetry_group_IT_number 63
_symmetry_cell_setting 'orthorhombic'
loop_
_space_group_symop_operation_xyz
x,y,z
-x,-y,1/2+z
x,-y,-z
-x,y,1/2-z
-x,-y,-z
x,y,1/2-z
-x,y,z
x,-y,1/2+z
1/2+x,1/2+y,z
1/2-x,1/2-y,1/2+z
1/2+x,1/2-y,-z
1/2-x,1/2+y,1/2-z
1/2-x,1/2-y,-z
1/2+x,1/2+y,1/2-z
1/2-x,1/2+y,z
1/2+x,1/2-y,1/2+z
loop_
_atom_site_type_symbol
_atom_site_label
_atom_site_fract_x
_atom_site_fract_y
_atom_site_fract_z
Si Si1 0.166782 0.223149 0.943636
Si Si2 0.832002 0.120648 0.976165
Si Si3 0.830067 0.875983 0.627966
Si Si4 0.835491 0.287311 0.824578
Si Si5 0.667968 0.031524 0.560629
Si Si6 0.836392 0.463479 0.675504
O O1 0.212186 0.169195 0.942270
O O2 0.203332 0.244502 0.872413
O O3 0.000000 0.227556 0.961769
O O4 0.250000 0.250000 0.000000
O O5 0.748883 0.080358 0.938139
O O6 0.000000 0.110414 0.969942
O O7 0.783355 0.122131 0.052027
O O8 0.767773 0.830120 0.661118
O O9 0.767857 0.920236 0.665407
O O10 0.000000 0.875230 0.636677
O O11 0.811125 0.269947 0.750000
O O12 0.000000 0.303470 0.835597
O O13 0.500000 0.041769 0.553638
O O14 0.722806 0.000000 0.500000
O O15 0.707959 0.005722 0.628224
O O16 0.820817 0.481584 0.750000
O O17 0.000000 0.447660 0.660167
#
# Coordination Sequence:
#
# PCOD8259176 Si02
#       6
#    16  16  16  16  16  16
#     4  10  20  36  56  78 107 141 180 220 263 315
#     4  10  21  35  53  81 111 137 172 220 269 310
#     4  11  21  33  53  82 114 141 172 218 270 321
#     4  10  21  36  55  79 108 144 182 219 263 317
#     4  10  20  35  56  79 102 136 182 219 255 310
#     4  10  21  37  55  77 108 142 177 219 266 316
#
# _framework density 17.674997000000001
#
# number of rings (size 3 to 8) (size 9 to 14) (size 15 to 20)
#    0.000    1.833    3.333    1.000    0.000    5.000 
#    0.000    0.833    0.000    1.000    0.000    0.000 
#    0.000    0.000    0.000    0.000    0.000    0.000 
#
# Total GULP energy -595391.370432 kJ/mol
# GULP energy per Si atom -12403.986884 kJ/mol
# Density = 1.763477 g / cm^3
# Si number density = 17.674997 Si / 1000 Ang^3
#
#
#
# Elastic Constant Matrix: (Units=GPa)
#
#
# Indices 1 2 3 4 5 6 
#
# 1 56.1436 54.8307 45.0586 0.0000 0.0000 0.0000
# 2 54.8307 146.5721 76.0432 0.0000 0.0000 0.0000
# 3 45.0586 76.0432 136.0478 0.0000 0.0000 0.0000
# 4 0.0000 0.0000 0.0000 89.4005 0.0000 0.0000
# 5 0.0000 0.0000 0.0000 0.0000 20.7231 0.0000
# 6 0.0000 0.0000 0.0000 0.0000 0.0000 31.5894
#
#
#
# Elastic Compliance Matrix: (Units=1/GPa)
#
#
# Indices 1 2 3 4 5 6 
#
# 1 0.030511 -0.008691 -0.005247 0.000000 0.000000 0.000000
# 2 -0.008691 0.012085 -0.003876 0.000000 0.000000 0.000000
# 3 -0.005247 -0.003876 0.011255 0.000000 0.000000 0.000000
# 4 0.000000 0.000000 0.000000 0.011186 0.000000 0.000000
# 5 0.000000 0.000000 0.000000 0.000000 0.048255 0.000000
# 6 0.000000 0.000000 0.000000 0.000000 0.000000 0.031656
#
#
# Mechanical properties :
#
#
# Convention : Reuss Voigt Hill
#
# Bulk Modulus (GPa) = 54.88162 76.73650 65.80906
# Shear Modulus (GPa) = 26.78799 39.19799 32.99299
#
# Velocity S-wave (km/s) = 3.89728 4.71436 4.32516
# Velocity P-wave (km/s) = 7.16725 8.55238 7.89027
#
# Compressibility (1/GPa) = 0.01822104
#
# Stress axis : x y z
#
# Youngs Moduli (GPa) = 32.77532 82.74729 88.85134
#
# Poissons Ratio (x) = 0.71920 0.46620
# Poissons Ratio (y) = 0.28487 0.34441
# Poissons Ratio (z) = 0.17197 0.32075
#
# Static dielectric constant tensor:
#      x y z
#    x 3.263260 0.000000 0.000000 
#    y 0.000000 3.295130 0.000000 
#    z 0.000000 0.000000 3.410550 
# 
# 
# High freq. dielectric constant tensor:
#      x y z
#    x 1.682190 0.000000 0.000000 
#    y 0.000000 1.680430 0.000000 
#    z 0.000000 0.000000 1.685540 
# 
# From -- ./inp_files/51246.got.cif
#   From: 2010.03.12/outbox.cif.g09.slc.cpg/sg63_26_cif.got.tgz:51246.got - 2010.04.10 19:34:48.
