data_PCOD8259558
_publ_section_title
;
Structure prediction by ZEFSAII (Michael W. Deem and Ramdas Pophale) SiO2 
 PCOD8259558
Probable space group: C M C M
;
_chemical_formula_sum "Si O2"
_cell_formula_units_Z 112
_cell_length_a 23.295467
_cell_length_b 14.758448
_cell_length_c 14.672030
_cell_angle_alpha 90.000000
_cell_angle_beta 90.000000
_cell_angle_gamma 90.000000
_cell_volume 5044.316370
_symmetry_space_group_name_H-M "C M C M"
_symmetry_group_IT_number 63
_symmetry_cell_setting 'orthorhombic'
loop_
_space_group_symop_operation_xyz
x,y,z
-x,-y,1/2+z
x,-y,-z
-x,y,1/2-z
-x,-y,-z
x,y,1/2-z
-x,y,z
x,-y,1/2+z
1/2+x,1/2+y,z
1/2-x,1/2-y,1/2+z
1/2+x,1/2-y,-z
1/2-x,1/2+y,1/2-z
1/2-x,1/2-y,-z
1/2+x,1/2+y,1/2-z
1/2-x,1/2+y,z
1/2+x,1/2-y,1/2+z
loop_
_atom_site_type_symbol
_atom_site_label
_atom_site_fract_x
_atom_site_fract_y
_atom_site_fract_z
Si Si1 0.566883 0.802439 0.528313
Si Si2 0.436031 0.362618 0.151576
Si Si3 0.245846 0.726327 0.857432
Si Si4 0.118123 0.228324 0.355322
Si Si5 0.753753 0.976800 0.142967
Si Si6 0.663448 0.124029 0.357753
Si Si7 0.125893 0.029168 0.402255
O O1 0.500000 0.827293 0.542222
O O2 0.584054 0.706766 0.574213
O O3 0.580655 0.794071 0.420479
O O4 0.605576 0.876762 0.581102
O O5 0.433741 0.312170 0.250000
O O6 0.500000 0.397419 0.129900
O O7 0.394396 0.448310 0.162903
O O8 0.249072 0.721845 0.750000
O O9 0.184028 0.763930 0.886553
O O10 0.252711 0.624955 0.897789
O O11 0.295919 0.792982 0.892255
O O12 0.108304 0.257843 0.250000
O O13 0.099271 0.124013 0.368914
O O14 0.764761 0.976774 0.250000
O O15 0.694528 0.028611 0.121037
O O16 0.805067 0.033505 0.097474
O O17 0.649392 0.132535 0.250000
O O18 0.101066 0.000000 0.500000
#
# Coordination Sequence:
#
# PCOD8259558 Si02
#       7
#    16  16  16  16  16  16  16
#     4  11  24  40  60  89 121 159 214 261 303 375
#     4  10  21  37  57  82 117 160 202 249 304 361
#     4   9  19  36  62  93 125 163 206 255 308 377
#     4  11  23  41  61  84 124 167 209 262 318 374
#     4  10  20  36  60  92 128 163 205 251 311 384
#     4  10  20  37  63  94 130 167 202 254 319 376
#     4  12  22  35  57  90 124 163 205 252 301 372
#
# _framework density 22.203208
#
# number of rings (size 3 to 8) (size 9 to 14) (size 15 to 20)
#    0.000    1.571    2.857    2.571    0.000    4.857 
#    0.000    0.000    0.000    1.714    0.000    4.000 
#    0.000    0.000    0.000    0.000    0.000    0.000 
#
# Total GULP energy -694311.814109 kJ/mol
# GULP energy per Si atom -12398.425252 kJ/mol
# Density = 2.215267 g / cm^3
# Si number density = 22.203208 Si / 1000 Ang^3
#
#
#
# Elastic Constant Matrix: (Units=GPa)
#
#
# Indices 1 2 3 4 5 6 
#
# 1 96.7064 10.1245 27.1058 0.0000 0.0000 0.0000
# 2 10.1245 63.1196 10.2568 0.0000 0.0000 0.0000
# 3 27.1058 10.2568 96.8330 0.0000 0.0000 0.0000
# 4 0.0000 0.0000 0.0000 18.2733 0.0000 0.0000
# 5 0.0000 0.0000 0.0000 0.0000 29.0548 0.0000
# 6 0.0000 0.0000 0.0000 0.0000 0.0000 31.0244
#
#
#
# Elastic Compliance Matrix: (Units=1/GPa)
#
#
# Indices 1 2 3 4 5 6 
#
# 1 0.011329 -0.001325 -0.003031 0.000000 0.000000 0.000000
# 2 -0.001325 0.016275 -0.001353 0.000000 0.000000 0.000000
# 3 -0.003031 -0.001353 0.011319 0.000000 0.000000 0.000000
# 4 0.000000 0.000000 0.000000 0.054725 0.000000 0.000000
# 5 0.000000 0.000000 0.000000 0.000000 0.034418 0.000000
# 6 0.000000 0.000000 0.000000 0.000000 0.000000 0.032233
#
#
# Mechanical properties :
#
#
# Convention : Reuss Voigt Hill
#
# Bulk Modulus (GPa) = 36.35625 39.07035 37.71330
# Shear Modulus (GPa) = 27.64207 29.61530 28.62868
#
# Velocity S-wave (km/s) = 3.53222 3.65613 3.59471
# Velocity P-wave (km/s) = 5.74851 5.95466 5.85249
#
# Compressibility (1/GPa) = 0.02750558
#
# Stress axis : x y z
#
# Youngs Moduli (GPa) = 88.27075 61.44285 88.34855
#
# Poissons Ratio (x) = 0.08139 0.26777
# Poissons Ratio (y) = 0.11693 0.11955
# Poissons Ratio (z) = 0.26754 0.08314
#
# Static dielectric constant tensor:
#      x y z
#    x 3.879230 0.000000 0.000000 
#    y 0.000000 3.920050 0.000000 
#    z 0.000000 0.000000 3.917300 
# 
# 
# High freq. dielectric constant tensor:
#      x y z
#    x 1.859810 0.000000 0.000000 
#    y 0.000000 1.849850 0.000000 
#    z 0.000000 0.000000 1.877290 
# 
# From -- ./inp_files/36896.got.cif
#   From: 2010.03.12/outbox.cif.g09.slc.cpg/sg63_19_cif.got.tgz:36896.got - 2010.04.10 19:34:48.
