data_PCOD8259998
_publ_section_title
;
Structure prediction by ZEFSAII (Michael W. Deem and Ramdas Pophale) SiO2 
 PCOD8259998
Probable space group: C M C M
;
_chemical_formula_sum "Si O2"
_cell_formula_units_Z 80
_cell_length_a 9.559544
_cell_length_b 28.823780
_cell_length_c 15.745927
_cell_angle_alpha 90.000000
_cell_angle_beta 90.000000
_cell_angle_gamma 90.000000
_cell_volume 4338.667259
_symmetry_space_group_name_H-M "C M C M"
_symmetry_group_IT_number 63
_symmetry_cell_setting 'orthorhombic'
loop_
_space_group_symop_operation_xyz
x,y,z
-x,-y,1/2+z
x,-y,-z
-x,y,1/2-z
-x,-y,-z
x,y,1/2-z
-x,y,z
x,-y,1/2+z
1/2+x,1/2+y,z
1/2-x,1/2-y,1/2+z
1/2+x,1/2-y,-z
1/2-x,1/2+y,1/2-z
1/2-x,1/2-y,-z
1/2+x,1/2+y,1/2-z
1/2-x,1/2+y,z
1/2+x,1/2-y,1/2+z
loop_
_atom_site_type_symbol
_atom_site_label
_atom_site_fract_x
_atom_site_fract_y
_atom_site_fract_z
Si Si1 0.163505 0.945813 0.007572
Si Si2 0.339968 0.197560 0.580820
Si Si3 0.164163 0.105590 0.341622
Si Si4 0.160907 0.799862 0.584086
Si Si5 0.838263 0.601350 0.845776
O O1 0.243100 0.927172 0.089783
O O2 0.000000 0.934112 0.018963
O O3 0.227002 0.922230 0.921966
O O4 0.190865 0.000000 0.000000
O O5 0.500000 0.196494 0.550398
O O6 0.247183 0.188420 0.499237
O O7 0.304771 0.248392 0.620925
O O8 0.310056 0.156737 0.647740
O O9 0.226338 0.088900 0.250000
O O10 0.197073 0.160632 0.347459
O O11 0.000000 0.096073 0.341345
O O12 0.000000 0.803531 0.556793
O O13 0.799589 0.586323 0.750000
O O14 0.000000 0.590285 0.865907
#
# Coordination Sequence:
#
# PCOD8259998 Si02
#       5
#    16  16  16  16  16
#     4  10  21  37  57  79 103 134 174 222 270 311
#     4   9  17  29  48  74 103 135 171 211 253 302
#     4   9  17  30  50  76 103 130 166 213 261 309
#     4   9  16  28  49  74 100 134 174 212 255 306
#     4  10  21  36  54  78 109 142 175 212 258 315
#
# _framework density 18.438842000000001
#
# number of rings (size 3 to 8) (size 9 to 14) (size 15 to 20)
#    0.000    2.600    2.000    0.000    0.000    2.400 
#    0.000    6.000    0.000    2.400    0.000    5.600 
#    0.000    0.000    0.000    0.000    0.000    0.000 
#
# Total GULP energy -495689.715847 kJ/mol
# GULP energy per Si atom -12392.242896 kJ/mol
# Density = 1.839687 g / cm^3
# Si number density = 18.438842 Si / 1000 Ang^3
#
#
#
# Elastic Constant Matrix: (Units=GPa)
#
#
# Indices 1 2 3 4 5 6 
#
# 1 43.1346 38.2523 45.9044 0.0000 0.0000 0.0000
# 2 38.2523 104.5248 70.8987 0.0000 0.0000 0.0000
# 3 45.9044 70.8987 148.5996 0.0000 0.0000 0.0000
# 4 0.0000 0.0000 0.0000 15.0777 0.0000 0.0000
# 5 0.0000 0.0000 0.0000 0.0000 23.3808 0.0000
# 6 0.0000 0.0000 0.0000 0.0000 0.0000 18.5187
#
#
#
# Elastic Compliance Matrix: (Units=1/GPa)
#
#
# Indices 1 2 3 4 5 6 
#
# 1 0.039726 -0.009188 -0.007888 0.000000 0.000000 0.000000
# 2 -0.009188 0.016270 -0.004924 0.000000 0.000000 0.000000
# 3 -0.007888 -0.004924 0.011516 0.000000 0.000000 0.000000
# 4 0.000000 0.000000 0.000000 0.066323 0.000000 0.000000
# 5 0.000000 0.000000 0.000000 0.000000 0.042770 0.000000
# 6 0.000000 0.000000 0.000000 0.000000 0.000000 0.054000
#
#
# Mechanical properties :
#
#
# Convention : Reuss Voigt Hill
#
# Bulk Modulus (GPa) = 42.53374 67.37442 54.95408
# Shear Modulus (GPa) = 17.70280 20.80899 19.25590
#
# Velocity S-wave (km/s) = 3.10188 3.36302 3.23509
# Velocity P-wave (km/s) = 5.99553 7.19017 6.61986
#
# Compressibility (1/GPa) = 0.02351075
#
# Stress axis : x y z
#
# Youngs Moduli (GPa) = 25.17255 61.46465 86.83805
#
# Poissons Ratio (x) = 0.56471 0.68500
# Poissons Ratio (y) = 0.23128 0.42761
# Poissons Ratio (z) = 0.19857 0.30266
#
# Static dielectric constant tensor:
#      x y z
#    x 3.193220 0.000000 0.000000 
#    y 0.000000 3.604600 0.000000 
#    z 0.000000 0.000000 3.457250 
# 
# 
# High freq. dielectric constant tensor:
#      x y z
#    x 1.685500 0.000000 0.000000 
#    y 0.000000 1.725020 0.000000 
#    z 0.000000 0.000000 1.705710 
# 
# From -- ./inp_files/30228.got.cif
#   From: 2010.03.12/outbox.cif.g09.slc.cpg/sg63_16_cif.got.tgz:30228.got - 2010.04.10 19:34:48.
