data_PCOD8259041
_publ_section_title
;
Structure prediction by ZEFSAII (Michael W. Deem and Ramdas Pophale) SiO2 
 PCOD8259041
Probable space group: C M C M
;
_chemical_formula_sum "Si O2"
_cell_formula_units_Z 112
_cell_length_a 13.033065
_cell_length_b 18.822611
_cell_length_c 25.897047
_cell_angle_alpha 90.000000
_cell_angle_beta 90.000000
_cell_angle_gamma 90.000000
_cell_volume 6352.968078
_symmetry_space_group_name_H-M "C M C M"
_symmetry_group_IT_number 63
_symmetry_cell_setting 'orthorhombic'
loop_
_space_group_symop_operation_xyz
x,y,z
-x,-y,1/2+z
x,-y,-z
-x,y,1/2-z
-x,-y,-z
x,y,1/2-z
-x,y,z
x,-y,1/2+z
1/2+x,1/2+y,z
1/2-x,1/2-y,1/2+z
1/2+x,1/2-y,-z
1/2-x,1/2+y,1/2-z
1/2-x,1/2-y,-z
1/2+x,1/2+y,1/2-z
1/2-x,1/2+y,z
1/2+x,1/2-y,1/2+z
loop_
_atom_site_type_symbol
_atom_site_label
_atom_site_fract_x
_atom_site_fract_y
_atom_site_fract_z
Si Si1 0.882261 0.943464 0.954701
Si Si2 0.257291 0.528576 0.875912
Si Si3 0.617351 0.068945 0.533532
Si Si4 0.880416 0.859565 0.310084
Si Si5 0.117239 0.286454 0.635356
Si Si6 0.381987 0.070137 0.192140
Si Si7 0.775244 0.320641 0.530436
O O1 0.824176 0.870990 0.968720
O O2 0.000000 0.922679 0.946606
O O3 0.840855 0.977843 0.902198
O O4 0.867675 0.000000 0.000000
O O5 0.192738 0.573687 0.917595
O O6 0.313982 0.579732 0.836475
O O7 0.178340 0.479695 0.846152
O O8 0.500000 0.065250 0.552380
O O9 0.632391 0.138096 0.498016
O O10 0.646984 0.000000 0.500000
O O11 0.851647 0.855764 0.250000
O O12 0.850394 0.785677 0.336527
O O13 0.000000 0.876890 0.317923
O O14 0.132045 0.348065 0.677042
O O15 0.191601 0.299799 0.587625
O O16 0.000000 0.282870 0.615596
O O17 0.339688 0.060655 0.250000
O O18 0.500000 0.047357 0.188537
O O19 0.750000 0.250000 0.500000
#
# Coordination Sequence:
#
# PCOD8259041 Si02
#       7
#    16  16  16  16  16  16  16
#     4  11  23  39  57  81 115 153 190 227 272 330
#     4  12  19  37  56  85 111 151 183 230 279 335
#     4  11  21  36  57  82 114 148 184 228 275 330
#     4  10  22  38  57  83 111 144 189 237 283 330
#     4  10  20  36  58  81 111 143 181 233 285 329
#     4  10  20  34  57  86 111 139 182 234 284 332
#     4  12  22  37  55  84 114 148 187 224 273 337
#
# _framework density 17.629555
#
# number of rings (size 3 to 8) (size 9 to 14) (size 15 to 20)
#    0.000    1.143    4.286    3.000    0.000    5.143 
#    0.000    0.000    0.000    0.000    0.000    0.000 
#    0.000    0.000    0.000    0.000    0.000    0.000 
#
# Total GULP energy -694640.688921 kJ/mol
# GULP energy per Si atom -12404.298016 kJ/mol
# Density = 1.758943 g / cm^3
# Si number density = 17.629555 Si / 1000 Ang^3
#
#
#
# Elastic Constant Matrix: (Units=GPa)
#
#
# Indices 1 2 3 4 5 6 
#
# 1 90.1042 41.5682 44.9387 0.0000 0.0000 0.0000
# 2 41.5682 109.1123 34.2552 0.0000 0.0000 0.0000
# 3 44.9387 34.2552 90.5935 0.0000 0.0000 0.0000
# 4 0.0000 0.0000 0.0000 34.7600 0.0000 0.0000
# 5 0.0000 0.0000 0.0000 0.0000 32.5364 0.0000
# 6 0.0000 0.0000 0.0000 0.0000 0.0000 35.3570
#
#
#
# Elastic Compliance Matrix: (Units=1/GPa)
#
#
# Indices 1 2 3 4 5 6 
#
# 1 0.016252 -0.004154 -0.006491 0.000000 0.000000 0.000000
# 2 -0.004154 0.011461 -0.002273 0.000000 0.000000 0.000000
# 3 -0.006491 -0.002273 0.015118 0.000000 0.000000 0.000000
# 4 0.000000 0.000000 0.000000 0.028769 0.000000 0.000000
# 5 0.000000 0.000000 0.000000 0.000000 0.030735 0.000000
# 6 0.000000 0.000000 0.000000 0.000000 0.000000 0.028283
#
#
# Mechanical properties :
#
#
# Convention : Reuss Voigt Hill
#
# Bulk Modulus (GPa) = 58.84198 59.03712 58.93955
# Shear Modulus (GPa) = 30.84176 31.80052 31.32114
#
# Velocity S-wave (km/s) = 4.18716 4.25175 4.21958
# Velocity P-wave (km/s) = 7.53829 7.59364 7.56602
#
# Compressibility (1/GPa) = 0.01699467
#
# Stress axis : x y z
#
# Youngs Moduli (GPa) = 61.53143 87.25313 66.14724
#
# Poissons Ratio (x) = 0.36241 0.42937
# Poissons Ratio (y) = 0.25558 0.15037
# Poissons Ratio (z) = 0.39941 0.19835
#
# Static dielectric constant tensor:
#      x y z
#    x 3.332220 0.000000 0.000000 
#    y 0.000000 3.305590 0.000000 
#    z 0.000000 0.000000 3.331770 
# 
# 
# High freq. dielectric constant tensor:
#      x y z
#    x 1.681150 0.000000 0.000000 
#    y 0.000000 1.685090 0.000000 
#    z 0.000000 0.000000 1.690560 
# 
# From -- ./inp_files/69393.got.cif
#   From: 2010.03.12/outbox.cif.g09.slc.cpg/sg63_35_cif.got.tgz:69393.got - 2010.04.10 19:34:48.
