data_PCOD8259922
_publ_section_title
;
Structure prediction by ZEFSAII (Michael W. Deem and Ramdas Pophale) SiO2 
 PCOD8259922
Probable space group: C M C M
;
_chemical_formula_sum "Si O2"
_cell_formula_units_Z 96
_cell_length_a 9.190742
_cell_length_b 24.966853
_cell_length_c 23.102604
_cell_angle_alpha 90.000000
_cell_angle_beta 90.000000
_cell_angle_gamma 90.000000
_cell_volume 5301.213717
_symmetry_space_group_name_H-M "C M C M"
_symmetry_group_IT_number 63
_symmetry_cell_setting 'orthorhombic'
loop_
_space_group_symop_operation_xyz
x,y,z
-x,-y,1/2+z
x,-y,-z
-x,y,1/2-z
-x,-y,-z
x,y,1/2-z
-x,y,z
x,-y,1/2+z
1/2+x,1/2+y,z
1/2-x,1/2-y,1/2+z
1/2+x,1/2-y,-z
1/2-x,1/2+y,1/2-z
1/2-x,1/2-y,-z
1/2+x,1/2+y,1/2-z
1/2-x,1/2+y,z
1/2+x,1/2-y,1/2+z
loop_
_atom_site_type_symbol
_atom_site_label
_atom_site_fract_x
_atom_site_fract_y
_atom_site_fract_z
Si Si1 0.329516 0.898993 0.127503
Si Si2 0.169933 0.561574 0.500413
Si Si3 0.667034 0.182221 0.316686
Si Si4 0.832557 0.805825 0.183715
Si Si5 0.672237 0.403837 0.610285
Si Si6 0.167363 0.005629 0.816393
O O1 0.500000 0.899134 0.138307
O O2 0.290151 0.912979 0.061792
O O3 0.267068 0.840561 0.141333
O O4 0.260546 0.942068 0.170574
O O5 0.220818 0.500000 0.500000
O O6 0.259375 0.594808 0.453309
O O7 0.000000 0.566134 0.485755
O O8 0.707085 0.171305 0.250000
O O9 0.500000 0.166161 0.328440
O O10 0.692717 0.244101 0.332159
O O11 0.772697 0.148589 0.357097
O O12 0.787616 0.816814 0.250000
O O13 0.000000 0.821847 0.174312
O O14 0.500000 0.400650 0.605417
O O15 0.723892 0.456368 0.645087
O O16 0.189196 0.988987 0.750000
O O17 0.000000 0.018846 0.830159
#
# Coordination Sequence:
#
# PCOD8259922 Si02
#       6
#    16  16  16  16  16  16
#     4  11  22  35  55  82 108 140 185 231 272 319
#     4  10  21  39  57  75 108 150 188 228 275 327
#     4   9  19  37  60  83 110 148 186 219 269 334
#     4   9  19  37  59  82 111 147 182 220 273 333
#     4  11  22  35  56  84 112 142 184 232 276 323
#     4  10  21  35  51  76 112 146 173 213 273 334
#
# _framework density 18.109061000000001
#
# number of rings (size 3 to 8) (size 9 to 14) (size 15 to 20)
#    0.000    2.000    1.667    3.000    0.000    6.667 
#    0.000    2.500    0.000    0.000    0.000    0.000 
#    0.000    0.000    0.000    0.000    0.000    0.000 
#
# Total GULP energy -595443.370926 kJ/mol
# GULP energy per Si atom -12405.070228 kJ/mol
# Density = 1.806784 g / cm^3
# Si number density = 18.109061 Si / 1000 Ang^3
#
#
#
# Elastic Constant Matrix: (Units=GPa)
#
#
# Indices 1 2 3 4 5 6 
#
# 1 66.3269 41.3715 47.3323 0.0000 0.0000 0.0000
# 2 41.3715 90.8230 47.2115 0.0000 0.0000 0.0000
# 3 47.3323 47.2115 92.3067 0.0000 0.0000 0.0000
# 4 0.0000 0.0000 0.0000 31.2186 0.0000 0.0000
# 5 0.0000 0.0000 0.0000 0.0000 30.7535 0.0000
# 6 0.0000 0.0000 0.0000 0.0000 0.0000 34.6467
#
#
#
# Elastic Compliance Matrix: (Units=1/GPa)
#
#
# Indices 1 2 3 4 5 6 
#
# 1 0.026569 -0.006839 -0.010126 0.000000 0.000000 0.000000
# 2 -0.006839 0.016758 -0.005064 0.000000 0.000000 0.000000
# 3 -0.010126 -0.005064 0.018616 0.000000 0.000000 0.000000
# 4 0.000000 0.000000 0.000000 0.032032 0.000000 0.000000
# 5 0.000000 0.000000 0.000000 0.000000 0.032517 0.000000
# 6 0.000000 0.000000 0.000000 0.000000 0.000000 0.028863
#
#
# Mechanical properties :
#
#
# Convention : Reuss Voigt Hill
#
# Bulk Modulus (GPa) = 55.91418 57.92078 56.91748
# Shear Modulus (GPa) = 24.34583 26.89320 25.61952
#
# Velocity S-wave (km/s) = 3.67058 3.85784 3.76538
# Velocity P-wave (km/s) = 6.99340 7.20401 7.09949
#
# Compressibility (1/GPa) = 0.01788455
#
# Stress axis : x y z
#
# Youngs Moduli (GPa) = 37.63850 59.67207 53.71740
#
# Poissons Ratio (x) = 0.40809 0.54393
# Poissons Ratio (y) = 0.25741 0.27205
# Poissons Ratio (z) = 0.38112 0.30221
#
# Static dielectric constant tensor:
#      x y z
#    x 3.292800 0.000000 0.000000 
#    y 0.000000 3.291430 0.000000 
#    z 0.000000 0.000000 3.314050 
# 
# 
# High freq. dielectric constant tensor:
#      x y z
#    x 1.701880 0.000000 0.000000 
#    y 0.000000 1.701370 0.000000 
#    z 0.000000 0.000000 1.701620 
# 
# From -- ./inp_files/51260.got.cif
#   From: 2010.03.12/outbox.cif.g09.slc.cpg/sg63_26_cif.got.tgz:51260.got - 2010.04.10 19:34:48.
