data_PCOD8259656
_publ_section_title
;
Structure prediction by ZEFSAII (Michael W. Deem and Ramdas Pophale) SiO2 
 PCOD8259656
Probable space group: C M C M
;
_chemical_formula_sum "Si O2"
_cell_formula_units_Z 64
_cell_length_a 10.315426
_cell_length_b 17.276547
_cell_length_c 16.705299
_cell_angle_alpha 90.000000
_cell_angle_beta 90.000000
_cell_angle_gamma 90.000000
_cell_volume 2977.133894
_symmetry_space_group_name_H-M "C M C M"
_symmetry_group_IT_number 63
_symmetry_cell_setting 'orthorhombic'
loop_
_space_group_symop_operation_xyz
x,y,z
-x,-y,1/2+z
x,-y,-z
-x,y,1/2-z
-x,-y,-z
x,y,1/2-z
-x,y,z
x,-y,1/2+z
1/2+x,1/2+y,z
1/2-x,1/2-y,1/2+z
1/2+x,1/2-y,-z
1/2-x,1/2+y,1/2-z
1/2-x,1/2-y,-z
1/2+x,1/2+y,1/2-z
1/2-x,1/2+y,z
1/2+x,1/2-y,1/2+z
loop_
_atom_site_type_symbol
_atom_site_label
_atom_site_fract_x
_atom_site_fract_y
_atom_site_fract_z
Si Si1 0.272557 0.685714 0.655926
Si Si2 0.500000 0.421335 0.657530
Si Si3 0.000000 0.696411 0.343287
Si Si4 0.227269 0.021654 0.907481
Si Si5 0.500000 0.251592 0.845063
Si Si6 0.000000 0.471804 0.909097
O O1 0.276559 0.666442 0.750000
O O2 0.372073 0.754386 0.635842
O O3 0.315089 0.609970 0.606754
O O4 0.129182 0.708156 0.625476
O O5 0.500000 0.405027 0.750000
O O6 0.371495 0.466717 0.636743
O O7 0.500000 0.337146 0.615669
O O8 0.000000 0.671574 0.250000
O O9 0.000000 0.621167 0.399809
O O10 0.369808 0.006453 0.868968
O O11 0.224442 0.000000 0.000000
O O12 0.500000 0.255675 0.750000
O O13 0.000000 0.500000 0.000000
#
# Coordination Sequence:
#
# PCOD8259656 Si02
#       6
#    16   8   8  16   8   8
#     4  10  20  37  60  87 117 154 200 252 302 353
#     4  11  22  39  62  88 117 154 200 252 304 359
#     4  10  21  38  63  90 118 154 202 252 298 350
#     4  11  23  40  59  88 125 162 202 244 298 363
#     4   9  19  35  57  84 113 147 196 251 303 351
#     4  10  23  42  60  88 128 165 204 245 300 366
#
# _framework density 21.497185999999999
#
# number of rings (size 3 to 8) (size 9 to 14) (size 15 to 20)
#    0.000    1.750    0.000    4.125    0.000    5.000 
#    0.000   16.250    0.000    0.000    0.000    0.000 
#    0.000    0.000    0.000    0.000    0.000    0.000 
#
# Total GULP energy -396812.238869 kJ/mol
# GULP energy per Si atom -12400.382465 kJ/mol
# Density = 2.144826 g / cm^3
# Si number density = 21.497186 Si / 1000 Ang^3
#
#
#
# Elastic Constant Matrix: (Units=GPa)
#
#
# Indices 1 2 3 4 5 6 
#
# 1 107.8272 18.9861 26.6717 0.0000 0.0000 0.0000
# 2 18.9861 157.6616 52.3358 0.0000 0.0000 0.0000
# 3 26.6717 52.3358 52.7607 0.0000 0.0000 0.0000
# 4 0.0000 0.0000 0.0000 33.0809 0.0000 0.0000
# 5 0.0000 0.0000 0.0000 0.0000 5.7013 0.0000
# 6 0.0000 0.0000 0.0000 0.0000 0.0000 47.1141
#
#
#
# Elastic Compliance Matrix: (Units=1/GPa)
#
#
# Indices 1 2 3 4 5 6 
#
# 1 0.010659 0.000753 -0.006135 0.000000 0.000000 0.000000
# 2 0.000753 0.009510 -0.009814 0.000000 0.000000 0.000000
# 3 -0.006135 -0.009814 0.031790 0.000000 0.000000 0.000000
# 4 0.000000 0.000000 0.000000 0.030229 0.000000 0.000000
# 5 0.000000 0.000000 0.000000 0.000000 0.175399 0.000000
# 6 0.000000 0.000000 0.000000 0.000000 0.000000 0.021225
#
#
# Mechanical properties :
#
#
# Convention : Reuss Voigt Hill
#
# Bulk Modulus (GPa) = 46.36848 57.13740 51.75294
# Shear Modulus (GPa) = 15.80316 31.86300 23.83308
#
# Velocity S-wave (km/s) = 2.71426 3.85410 3.33327
# Velocity P-wave (km/s) = 5.60708 6.81485 6.24025
#
# Compressibility (1/GPa) = 0.02156637
#
# Stress axis : x y z
#
# Youngs Moduli (GPa) = 93.81626 105.15575 31.45655
#
# Poissons Ratio (x) = -0.07919 0.19300
# Poissons Ratio (y) = -0.07065 0.30871
# Poissons Ratio (z) = 0.57560 1.03198
#
# Static dielectric constant tensor:
#      x y z
#    x 4.354470 0.000000 0.000000 
#    y 0.000000 3.993420 0.000000 
#    z 0.000000 0.000000 3.478860 
# 
# 
# High freq. dielectric constant tensor:
#      x y z
#    x 1.868150 0.000000 0.000000 
#    y 0.000000 1.857530 0.000000 
#    z 0.000000 0.000000 1.811140 
# 
# From -- ./inp_files/41573.got.cif
#   From: 2010.03.12/outbox.cif.g09.slc.cpg/sg63_21_cif.got.tgz:41573.got - 2010.04.10 19:34:48.
