data_PCOD8259660
_publ_section_title
;
Structure prediction by ZEFSAII (Michael W. Deem and Ramdas Pophale) SiO2 
 PCOD8259660
Probable space group: C M C M
;
_chemical_formula_sum "Si O2"
_cell_formula_units_Z 80
_cell_length_a 24.453075
_cell_length_b 11.547622
_cell_length_c 13.797410
_cell_angle_alpha 90.000000
_cell_angle_beta 90.000000
_cell_angle_gamma 90.000000
_cell_volume 3896.041811
_symmetry_space_group_name_H-M "C M C M"
_symmetry_group_IT_number 63
_symmetry_cell_setting 'orthorhombic'
loop_
_space_group_symop_operation_xyz
x,y,z
-x,-y,1/2+z
x,-y,-z
-x,y,1/2-z
-x,-y,-z
x,y,1/2-z
-x,y,z
x,-y,1/2+z
1/2+x,1/2+y,z
1/2-x,1/2-y,1/2+z
1/2+x,1/2-y,-z
1/2-x,1/2+y,1/2-z
1/2-x,1/2-y,-z
1/2+x,1/2+y,1/2-z
1/2-x,1/2+y,z
1/2+x,1/2-y,1/2+z
loop_
_atom_site_type_symbol
_atom_site_label
_atom_site_fract_x
_atom_site_fract_y
_atom_site_fract_z
Si Si1 0.060897 0.365241 0.483738
Si Si2 0.939191 0.175826 0.859167
Si Si3 0.666739 0.746932 0.447825
Si Si4 0.221622 0.201689 0.642150
Si Si5 0.850242 0.005226 0.140562
O O1 0.070385 0.500000 0.500000
O O2 0.064972 0.296397 0.584431
O O3 0.111272 0.316630 0.419716
O O4 0.000000 0.344584 0.437153
O O5 0.922102 0.206452 0.750000
O O6 0.898205 0.078823 0.899934
O O7 0.000000 0.123346 0.865869
O O8 0.713867 0.789350 0.375993
O O9 0.686205 0.768586 0.559548
O O10 0.655604 0.611136 0.432599
O O11 0.208658 0.252758 0.750000
O O12 0.206506 0.065797 0.640169
O O13 0.863952 0.048248 0.250000
#
# Coordination Sequence:
#
# PCOD8259660 Si02
#       5
#    16  16  16  16  16
#     4  10  22  39  58  85 118 155 203 250 297 360
#     4   9  18  35  60  87 116 154 197 243 299 360
#     4  11  22  37  62  88 119 158 201 246 307 353
#     4  10  22  38  56  85 121 158 198 242 294 362
#     4  10  20  37  60  90 123 152 195 249 297 356
#
# _framework density 20.533659
#
# number of rings (size 3 to 8) (size 9 to 14) (size 15 to 20)
#    0.000    2.000    2.000    1.200    0.000    4.000 
#    0.000    4.000    0.000    4.200    0.000    0.000 
#    0.000    0.000    0.000    0.000    0.000    0.000 
#
# Total GULP energy -495730.829658 kJ/mol
# GULP energy per Si atom -12393.270741 kJ/mol
# Density = 2.048692 g / cm^3
# Si number density = 20.533659 Si / 1000 Ang^3
#
#
#
# Elastic Constant Matrix: (Units=GPa)
#
#
# Indices 1 2 3 4 5 6 
#
# 1 169.7605 78.9765 30.3273 0.0000 0.0000 0.0000
# 2 78.9765 114.3759 23.7277 0.0000 0.0000 0.0000
# 3 30.3273 23.7277 85.0284 0.0000 0.0000 0.0000
# 4 0.0000 0.0000 0.0000 22.9213 0.0000 0.0000
# 5 0.0000 0.0000 0.0000 0.0000 25.0613 0.0000
# 6 0.0000 0.0000 0.0000 0.0000 0.0000 28.7834
#
#
#
# Elastic Compliance Matrix: (Units=1/GPa)
#
#
# Indices 1 2 3 4 5 6 
#
# 1 0.008865 -0.005801 -0.001543 0.000000 0.000000 0.000000
# 2 -0.005801 0.013077 -0.001580 0.000000 0.000000 0.000000
# 3 -0.001543 -0.001580 0.012752 0.000000 0.000000 0.000000
# 4 0.000000 0.000000 0.000000 0.043627 0.000000 0.000000
# 5 0.000000 0.000000 0.000000 0.000000 0.039902 0.000000
# 6 0.000000 0.000000 0.000000 0.000000 0.000000 0.034742
#
#
# Mechanical properties :
#
#
# Convention : Reuss Voigt Hill
#
# Bulk Modulus (GPa) = 59.36403 70.58088 64.97245
# Shear Modulus (GPa) = 28.33990 31.09542 29.71766
#
# Velocity S-wave (km/s) = 3.71909 3.89570 3.80842
# Velocity P-wave (km/s) = 6.88589 7.39481 7.14489
#
# Compressibility (1/GPa) = 0.01684522
#
# Stress axis : x y z
#
# Youngs Moduli (GPa) = 112.80018 76.47199 78.41880
#
# Poissons Ratio (x) = 0.44364 0.12101
# Poissons Ratio (y) = 0.65439 0.12390
# Poissons Ratio (z) = 0.17406 0.12082
#
# Static dielectric constant tensor:
#      x y z
#    x 4.242640 0.000000 0.000000 
#    y 0.000000 3.467750 0.000000 
#    z 0.000000 0.000000 3.691290 
# 
# 
# High freq. dielectric constant tensor:
#      x y z
#    x 1.823020 0.000000 0.000000 
#    y 0.000000 1.775330 0.000000 
#    z 0.000000 0.000000 1.794030 
# 
# From -- ./inp_files/36456.got.cif
#   From: 2010.03.12/outbox.cif.g09.slc.cpg/sg63_19_cif.got.tgz:36456.got - 2010.04.10 19:34:48.
