data_PCOD8259151
_publ_section_title
;
Structure prediction by ZEFSAII (Michael W. Deem and Ramdas Pophale) SiO2 
 PCOD8259151
Probable space group: C M C M
;
_chemical_formula_sum "Si O2"
_cell_formula_units_Z 80
_cell_length_a 18.203357
_cell_length_b 25.836511
_cell_length_c 8.809594
_cell_angle_alpha 90.000000
_cell_angle_beta 90.000000
_cell_angle_gamma 90.000000
_cell_volume 4143.251020
_symmetry_space_group_name_H-M "C M C M"
_symmetry_group_IT_number 63
_symmetry_cell_setting 'orthorhombic'
loop_
_space_group_symop_operation_xyz
x,y,z
-x,-y,1/2+z
x,-y,-z
-x,y,1/2-z
-x,-y,-z
x,y,1/2-z
-x,y,z
x,-y,1/2+z
1/2+x,1/2+y,z
1/2-x,1/2-y,1/2+z
1/2+x,1/2-y,-z
1/2-x,1/2+y,1/2-z
1/2-x,1/2-y,-z
1/2+x,1/2+y,1/2-z
1/2-x,1/2+y,z
1/2+x,1/2-y,1/2+z
loop_
_atom_site_type_symbol
_atom_site_label
_atom_site_fract_x
_atom_site_fract_y
_atom_site_fract_z
Si Si1 0.813727 0.162026 0.568539
Si Si2 0.843650 0.657947 0.430406
Si Si3 0.585144 0.747054 0.424083
Si Si4 0.150885 0.550641 0.919399
Si Si5 0.824778 0.049348 0.915676
O O1 0.802998 0.161408 0.750000
O O2 0.735863 0.174567 0.492673
O O3 0.871987 0.204208 0.519465
O O4 0.842335 0.105483 0.510400
O O5 0.843230 0.660847 0.250000
O O6 0.902486 0.697493 0.499069
O O7 0.868544 0.600989 0.482230
O O8 0.612595 0.747740 0.250000
O O9 0.500000 0.732978 0.433426
O O10 0.117676 0.556349 0.750000
O O11 0.237646 0.543545 0.907801
O O12 0.116283 0.500000 0.000000
O O13 0.860292 0.047653 0.750000
O O14 0.860002 0.000000 0.000000
#
# Coordination Sequence:
#
# PCOD8259151 Si02
#       5
#    16  16  16  16  16
#     4  10  20  35  55  80 109 139 175 218 263 313
#     4  11  21  34  55  81 109 141 177 217 262 313
#     4  11  24  40  56  75 102 137 177 222 271 321
#     4   9  16  28  47  75 109 140 173 213 259 308
#     4   8  15  26  44  72 104 135 165 204 251 299
#
# _framework density 19.308510999999999
#
# number of rings (size 3 to 8) (size 9 to 14) (size 15 to 20)
#    0.000    2.200    0.000    5.400    0.000    7.200 
#    0.000    0.000    0.000    1.200    0.000    0.000 
#    0.000    0.000    0.000    0.000    0.000    0.000 
#
# Total GULP energy -495890.407439 kJ/mol
# GULP energy per Si atom -12397.260186 kJ/mol
# Density = 1.926456 g / cm^3
# Si number density = 19.308511 Si / 1000 Ang^3
#
#
#
# Elastic Constant Matrix: (Units=GPa)
#
#
# Indices 1 2 3 4 5 6 
#
# 1 23.9443 9.5318 8.6330 0.0000 0.0000 0.0000
# 2 9.5318 103.9144 21.4194 0.0000 0.0000 0.0000
# 3 8.6330 21.4194 101.8417 0.0000 0.0000 0.0000
# 4 0.0000 0.0000 0.0000 39.1412 0.0000 0.0000
# 5 0.0000 0.0000 0.0000 0.0000 17.3157 0.0000
# 6 0.0000 0.0000 0.0000 0.0000 0.0000 0.3894
#
#
#
# Elastic Compliance Matrix: (Units=1/GPa)
#
#
# Indices 1 2 3 4 5 6 
#
# 1 0.044221 -0.003432 -0.003027 0.000000 0.000000 0.000000
# 2 -0.003432 0.010326 -0.001881 0.000000 0.000000 0.000000
# 3 -0.003027 -0.001881 0.010471 0.000000 0.000000 0.000000
# 4 0.000000 0.000000 0.000000 0.025549 0.000000 0.000000
# 5 0.000000 0.000000 0.000000 0.000000 0.057751 0.000000
# 6 0.000000 0.000000 0.000000 0.000000 0.000000 2.568015
#
#
# Mechanical properties :
#
#
# Convention : Reuss Voigt Hill
#
# Bulk Modulus (GPa) = 20.68736 34.31874 27.50305
# Shear Modulus (GPa) = 1.81876 24.04368 12.93122
#
# Velocity S-wave (km/s) = 0.97159 3.53262 2.59069
# Velocity P-wave (km/s) = 3.46353 5.86956 4.81911
#
# Compressibility (1/GPa) = 0.04833869
#
# Stress axis : x y z
#
# Youngs Moduli (GPa) = 22.61356 96.84453 95.49923
#
# Poissons Ratio (x) = 0.33241 0.28904
# Poissons Ratio (y) = 0.07762 0.17961
# Poissons Ratio (z) = 0.06844 0.18214
#
# Static dielectric constant tensor:
#      x y z
#    x 2.957600 0.000000 0.000000 
#    y 0.000000 3.873420 0.000000 
#    z 0.000000 0.000000 3.773330 
# 
# 
# High freq. dielectric constant tensor:
#      x y z
#    x 1.690680 0.000000 0.000000 
#    y 0.000000 1.774250 0.000000 
#    z 0.000000 0.000000 1.763770 
# 
# From -- ./inp_files/6347.got.cif
#   From: 2010.03.12/outbox.cif.g09.slc.cpg/sg63_4_cif.got.tgz:6347.got - 2010.04.10 19:34:48.
