data_PCOD8259979
_publ_section_title
;
Structure prediction by ZEFSAII (Michael W. Deem and Ramdas Pophale) SiO2 
 PCOD8259979
Probable space group: C M C M
;
_chemical_formula_sum "Si O2"
_cell_formula_units_Z 64
_cell_length_a 8.944341
_cell_length_b 40.629432
_cell_length_c 9.762123
_cell_angle_alpha 90.000000
_cell_angle_beta 90.000000
_cell_angle_gamma 90.000000
_cell_volume 3547.589611
_symmetry_space_group_name_H-M "C M C M"
_symmetry_group_IT_number 63
_symmetry_cell_setting 'orthorhombic'
loop_
_space_group_symop_operation_xyz
x,y,z
-x,-y,1/2+z
x,-y,-z
-x,y,1/2-z
-x,-y,-z
x,y,1/2-z
-x,y,z
x,-y,1/2+z
1/2+x,1/2+y,z
1/2-x,1/2-y,1/2+z
1/2+x,1/2-y,-z
1/2-x,1/2+y,1/2-z
1/2-x,1/2-y,-z
1/2+x,1/2+y,1/2-z
1/2-x,1/2+y,z
1/2+x,1/2-y,1/2+z
loop_
_atom_site_type_symbol
_atom_site_label
_atom_site_fract_x
_atom_site_fract_y
_atom_site_fract_z
Si Si1 0.672280 0.101595 0.910776
Si Si2 0.175266 0.722538 0.092012
Si Si3 0.674098 0.654832 0.406868
Si Si4 0.177364 0.472318 0.401049
O O1 0.698839 0.107497 0.750000
O O2 0.500000 0.108500 0.948803
O O3 0.717897 0.064355 0.951707
O O4 0.778481 0.125001 0.997048
O O5 0.215388 0.729668 0.250000
O O6 0.237492 0.687220 0.046464
O O7 0.000000 0.722806 0.065609
O O8 0.250000 0.750000 0.000000
O O9 0.712505 0.645719 0.250000
O O10 0.500000 0.661959 0.426571
O O11 0.247915 0.500000 0.500000
O O12 0.244474 0.478318 0.250000
O O13 0.000000 0.475783 0.394856
#
# Coordination Sequence:
#
# PCOD8259979 Si02
#       4
#    16  16  16  16
#     4   9  18  32  50  74 103 133 167 208 253 302
#     4  10  21  37  57  80 105 134 168 205 248 298
#     4  10  21  36  53  74 101 133 170 211 252 295
#     4   8  14  25  42  67  98 128 160 201 248 297
#
# _framework density 18.040417999999999
#
# number of rings (size 3 to 8) (size 9 to 14) (size 15 to 20)
#    0.000    2.750    0.000    3.000    0.000    5.500 
#    0.000    2.500    0.000    0.750    0.000    0.000 
#    0.000    0.000    0.000    0.000    0.000    0.000 
#
# Total GULP energy -396788.384515 kJ/mol
# GULP energy per Si atom -12399.637016 kJ/mol
# Density = 1.799936 g / cm^3
# Si number density = 18.040418 Si / 1000 Ang^3
#
#
#
# Elastic Constant Matrix: (Units=GPa)
#
#
# Indices 1 2 3 4 5 6 
#
# 1 59.9648 48.1239 37.3590 0.0000 0.0000 0.0000
# 2 48.1239 148.2872 79.1342 0.0000 0.0000 0.0000
# 3 37.3590 79.1342 78.2466 0.0000 0.0000 0.0000
# 4 0.0000 0.0000 0.0000 40.1231 0.0000 0.0000
# 5 0.0000 0.0000 0.0000 0.0000 27.2372 0.0000
# 6 0.0000 0.0000 0.0000 0.0000 0.0000 25.6487
#
#
#
# Elastic Compliance Matrix: (Units=1/GPa)
#
#
# Indices 1 2 3 4 5 6 
#
# 1 0.024654 -0.003735 -0.007994 0.000000 0.000000 0.000000
# 2 -0.003735 0.015217 -0.013606 0.000000 0.000000 0.000000
# 3 -0.007994 -0.013606 0.030357 0.000000 0.000000 0.000000
# 4 0.000000 0.000000 0.000000 0.024923 0.000000 0.000000
# 5 0.000000 0.000000 0.000000 0.000000 0.036714 0.000000
# 6 0.000000 0.000000 0.000000 0.000000 0.000000 0.038988
#
#
# Mechanical properties :
#
#
# Convention : Reuss Voigt Hill
#
# Bulk Modulus (GPa) = 51.12907 68.41477 59.77192
# Shear Modulus (GPa) = 21.92566 26.72724 24.32645
#
# Velocity S-wave (km/s) = 3.48999 3.85323 3.67610
# Velocity P-wave (km/s) = 6.68154 7.60275 7.15698
#
# Compressibility (1/GPa) = 0.01955835
#
# Stress axis : x y z
#
# Youngs Moduli (GPa) = 40.56089 65.71692 32.94136
#
# Poissons Ratio (x) = 0.24547 0.26332
# Poissons Ratio (y) = 0.15151 0.44820
# Poissons Ratio (z) = 0.32423 0.89414
#
# Static dielectric constant tensor:
#      x y z
#    x 3.119370 0.000000 0.000000 
#    y 0.000000 3.479480 0.000000 
#    z 0.000000 0.000000 3.458140 
# 
# 
# High freq. dielectric constant tensor:
#      x y z
#    x 1.677480 0.000000 0.000000 
#    y 0.000000 1.708040 0.000000 
#    z 0.000000 0.000000 1.697430 
# 
# From -- ./inp_files/16171.got.cif
#   From: 2010.03.12/outbox.cif.g09.slc.cpg/sg63_9_cif.got.tgz:16171.got - 2010.04.10 19:34:48.
