data_PCOD8259026
_publ_section_title
;
Structure prediction by ZEFSAII (Michael W. Deem and Ramdas Pophale) SiO2 
 PCOD8259026
Probable space group: C M C M
;
_chemical_formula_sum "Si O2"
_cell_formula_units_Z 96
_cell_length_a 20.356062
_cell_length_b 11.638472
_cell_length_c 21.254272
_cell_angle_alpha 90.000000
_cell_angle_beta 90.000000
_cell_angle_gamma 90.000000
_cell_volume 5035.423069
_symmetry_space_group_name_H-M "C M C M"
_symmetry_group_IT_number 63
_symmetry_cell_setting 'orthorhombic'
loop_
_space_group_symop_operation_xyz
x,y,z
-x,-y,1/2+z
x,-y,-z
-x,y,1/2-z
-x,-y,-z
x,y,1/2-z
-x,y,z
x,-y,1/2+z
1/2+x,1/2+y,z
1/2-x,1/2-y,1/2+z
1/2+x,1/2-y,-z
1/2-x,1/2+y,1/2-z
1/2-x,1/2-y,-z
1/2+x,1/2+y,1/2-z
1/2-x,1/2+y,z
1/2+x,1/2-y,1/2+z
loop_
_atom_site_type_symbol
_atom_site_label
_atom_site_fract_x
_atom_site_fract_y
_atom_site_fract_z
Si Si1 0.926566 0.287993 0.599905
Si Si2 0.814674 0.468044 0.926118
Si Si3 0.926860 0.127175 0.019141
Si Si4 0.793198 0.346204 0.320342
Si Si5 0.323516 0.377151 0.616327
Si Si6 0.356608 0.391574 0.320068
O O1 0.877443 0.393319 0.592211
O O2 0.925423 0.211854 0.538447
O O3 0.906999 0.204513 0.656712
O O4 0.000000 0.336308 0.612381
O O5 0.818881 0.575074 0.877673
O O6 0.747346 0.399044 0.915032
O O7 0.818249 0.500000 0.000000
O O8 0.873092 0.178146 0.066238
O O9 0.000000 0.122932 0.049202
O O10 0.903925 0.000000 0.000000
O O11 0.814851 0.390305 0.250000
O O12 0.817936 0.215774 0.328175
O O13 0.715259 0.337995 0.323549
O O14 0.358559 0.492302 0.639897
O O15 0.377456 0.424626 0.250000
#
# Coordination Sequence:
#
# PCOD8259026 Si02
#       6
#    16  16  16  16  16  16
#     4  11  23  40  59  84 121 162 201 245 301 362
#     4  11  24  38  61  94 123 158 211 261 300 359
#     4  10  20  34  56  86 121 153 186 240 313 368
#     4  10  22  39  60  88 124 162 200 251 313 370
#     4  11  20  36  64  89 120 154 196 255 307 365
#     4  10  21  36  56  86 117 153 200 248 301 361
#
# _framework density 19.064933
#
# number of rings (size 3 to 8) (size 9 to 14) (size 15 to 20)
#    0.000    1.500    3.333    2.000    2.333    3.333 
#    0.000    0.833    0.000    2.500    0.000    0.000 
#    0.000    0.000    0.000    0.000    0.000    0.000 
#
# Total GULP energy -595056.465772 kJ/mol
# GULP energy per Si atom -12397.009704 kJ/mol
# Density = 1.902154 g / cm^3
# Si number density = 19.064933 Si / 1000 Ang^3
#
#
#
# Elastic Constant Matrix: (Units=GPa)
#
#
# Indices 1 2 3 4 5 6 
#
# 1 109.3447 40.7832 47.2748 0.0000 0.0000 0.0000
# 2 40.7832 73.4528 40.9123 0.0000 0.0000 0.0000
# 3 47.2748 40.9123 116.5164 0.0000 0.0000 0.0000
# 4 0.0000 0.0000 0.0000 26.2994 0.0000 0.0000
# 5 0.0000 0.0000 0.0000 0.0000 28.2596 0.0000
# 6 0.0000 0.0000 0.0000 0.0000 0.0000 30.1318
#
#
#
# Elastic Compliance Matrix: (Units=1/GPa)
#
#
# Indices 1 2 3 4 5 6 
#
# 1 0.012459 -0.005099 -0.003264 0.000000 0.000000 0.000000
# 2 -0.005099 0.019011 -0.004606 0.000000 0.000000 0.000000
# 3 -0.003264 -0.004606 0.011524 0.000000 0.000000 0.000000
# 4 0.000000 0.000000 0.000000 0.038024 0.000000 0.000000
# 5 0.000000 0.000000 0.000000 0.000000 0.035386 0.000000
# 6 0.000000 0.000000 0.000000 0.000000 0.000000 0.033188
#
#
# Mechanical properties :
#
#
# Convention : Reuss Voigt Hill
#
# Bulk Modulus (GPa) = 58.63691 61.91716 60.27704
# Shear Modulus (GPa) = 27.59131 28.29440 27.94285
#
# Velocity S-wave (km/s) = 3.80837 3.85659 3.83256
# Velocity P-wave (km/s) = 7.08248 7.23730 7.16031
#
# Compressibility (1/GPa) = 0.01705410
#
# Stress axis : x y z
#
# Youngs Moduli (GPa) = 80.26557 52.60076 86.77213
#
# Poissons Ratio (x) = 0.26822 0.28326
# Poissons Ratio (y) = 0.40929 0.39971
# Poissons Ratio (z) = 0.26202 0.24230
#
# Static dielectric constant tensor:
#      x y z
#    x 3.641620 0.000000 0.000000 
#    y 0.000000 3.197440 0.000000 
#    z 0.000000 0.000000 3.612090 
# 
# 
# High freq. dielectric constant tensor:
#      x y z
#    x 1.735630 0.000000 0.000000 
#    y 0.000000 1.738130 0.000000 
#    z 0.000000 0.000000 1.746100 
# 
# From -- ./inp_files/56563.got.cif
#   From: 2010.03.12/outbox.cif.g09.slc.cpg/sg63_29_cif.got.tgz:56563.got - 2010.04.10 19:34:48.
