data_PCOD8259411
_publ_section_title
;
Structure prediction by ZEFSAII (Michael W. Deem and Ramdas Pophale) SiO2 
 PCOD8259411
Probable space group: C M C M
;
_chemical_formula_sum "Si O2"
_cell_formula_units_Z 96
_cell_length_a 9.231958
_cell_length_b 20.242348
_cell_length_c 27.889849
_cell_angle_alpha 90.000000
_cell_angle_beta 90.000000
_cell_angle_gamma 90.000000
_cell_volume 5211.957550
_symmetry_space_group_name_H-M "C M C M"
_symmetry_group_IT_number 63
_symmetry_cell_setting 'orthorhombic'
loop_
_space_group_symop_operation_xyz
x,y,z
-x,-y,1/2+z
x,-y,-z
-x,y,1/2-z
-x,-y,-z
x,y,1/2-z
-x,y,z
x,-y,1/2+z
1/2+x,1/2+y,z
1/2-x,1/2-y,1/2+z
1/2+x,1/2-y,-z
1/2-x,1/2+y,1/2-z
1/2-x,1/2-y,-z
1/2+x,1/2+y,1/2-z
1/2-x,1/2+y,z
1/2+x,1/2-y,1/2+z
loop_
_atom_site_type_symbol
_atom_site_label
_atom_site_fract_x
_atom_site_fract_y
_atom_site_fract_z
Si Si1 0.167797 0.193846 0.697020
Si Si2 0.666480 0.938708 0.303162
Si Si3 0.333655 0.607146 0.948770
Si Si4 0.668940 0.630613 0.440305
Si Si5 0.330373 0.990712 0.897988
Si Si6 0.832905 0.246838 0.598422
O O1 0.214891 0.220367 0.750000
O O2 0.246354 0.126452 0.683573
O O3 0.200547 0.247830 0.655774
O O4 0.000000 0.175781 0.696396
O O5 0.707668 0.965298 0.250000
O O6 0.500000 0.917767 0.305598
O O7 0.700884 0.994997 0.341961
O O8 0.500000 0.586076 0.940304
O O9 0.230988 0.549063 0.930785
O O10 0.296981 0.674292 0.921235
O O11 0.300518 0.616651 0.004442
O O12 0.500000 0.627858 0.428073
O O13 0.752096 0.577775 0.408208
O O14 0.728097 0.702831 0.427991
O O15 0.500000 0.983651 0.908862
O O16 0.000000 0.265542 0.587992
#
# Coordination Sequence:
#
# PCOD8259411 Si02
#       6
#    16  16  16  16  16  16
#     4   9  17  31  55  84 109 137 174 218 269 322
#     4   9  18  33  54  81 109 137 174 221 268 315
#     4  10  21  38  58  81 108 142 183 228 272 318
#     4  11  24  38  54  77 111 149 184 224 272 321
#     4  11  22  36  57  83 110 143 182 223 270 324
#     4  10  20  36  57  81 111 142 178 223 269 322
#
# _framework density 18.419183
#
# number of rings (size 3 to 8) (size 9 to 14) (size 15 to 20)
#    0.000    2.000    1.667    2.000    0.000    5.333 
#    0.000    0.833    0.000    5.000    0.000    0.000 
#    0.000    0.000    0.000    0.000    0.000    0.000 
#
# Total GULP energy -595222.448944 kJ/mol
# GULP energy per Si atom -12400.467686 kJ/mol
# Density = 1.837726 g / cm^3
# Si number density = 18.419183 Si / 1000 Ang^3
#
#
#
# Elastic Constant Matrix: (Units=GPa)
#
#
# Indices 1 2 3 4 5 6 
#
# 1 69.1537 27.4116 40.3254 0.0000 0.0000 0.0000
# 2 27.4116 51.1461 24.1014 0.0000 0.0000 0.0000
# 3 40.3254 24.1014 83.4130 0.0000 0.0000 0.0000
# 4 0.0000 0.0000 0.0000 -7.5933 0.0000 0.0000
# 5 0.0000 0.0000 0.0000 0.0000 25.1979 0.0000
# 6 0.0000 0.0000 0.0000 0.0000 0.0000 29.7029
#
#
#
# Elastic Compliance Matrix: (Units=1/GPa)
#
#
# Indices 1 2 3 4 5 6 
#
# 1 0.022708 -0.008100 -0.008638 0.000000 0.000000 0.000000
# 2 -0.008100 0.025523 -0.003459 0.000000 0.000000 0.000000
# 3 -0.008638 -0.003459 0.017164 0.000000 0.000000 0.000000
# 4 0.000000 0.000000 0.000000 -0.131695 0.000000 0.000000
# 5 0.000000 0.000000 0.000000 0.000000 0.039686 0.000000
# 6 0.000000 0.000000 0.000000 0.000000 0.000000 0.033667
#
#
# Mechanical properties :
#
#
# Convention : Reuss Voigt Hill
#
# Bulk Modulus (GPa) = 39.99693 43.04329 41.52011
# Shear Modulus (GPa) = 89.63997 16.91980 53.27989
#
# Velocity S-wave (km/s) = 6.98372 3.03412 5.38415
# Velocity P-wave (km/s) = 9.31621 5.97445 7.82578
#
# Compressibility (1/GPa) = 0.02500192
#
# Stress axis : x y z
#
# Youngs Moduli (GPa) = 44.03700 39.18060 58.26253
#
# Poissons Ratio (x) = 0.31737 0.50325
# Poissons Ratio (y) = 0.35670 0.20151
# Poissons Ratio (z) = 0.38038 0.13551
#
# Static dielectric constant tensor:
#      x y z
#    x 3.437920 0.000000 0.000000 
#    y 0.000000 3.164320 0.000000 
#    z 0.000000 0.000000 3.833880 
# 
# 
# High freq. dielectric constant tensor:
#      x y z
#    x 1.717810 0.000000 0.000000 
#    y 0.000000 1.692760 0.000000 
#    z 0.000000 0.000000 1.734200 
# 
# From -- ./inp_files/66918.got.cif
#   From: 2010.03.12/outbox.cif.g09.slc.cpg/sg63_34_cif.got.tgz:66918.got - 2010.04.10 19:34:48.
