data_PCOD8259190
_publ_section_title
;
Structure prediction by ZEFSAII (Michael W. Deem and Ramdas Pophale) SiO2 
 PCOD8259190
Probable space group: C M C M
;
_chemical_formula_sum "Si O2"
_cell_formula_units_Z 64
_cell_length_a 8.894002
_cell_length_b 24.483165
_cell_length_c 14.918467
_cell_angle_alpha 90.000000
_cell_angle_beta 90.000000
_cell_angle_gamma 90.000000
_cell_volume 3248.545696
_symmetry_space_group_name_H-M "C M C M"
_symmetry_group_IT_number 63
_symmetry_cell_setting 'orthorhombic'
loop_
_space_group_symop_operation_xyz
x,y,z
-x,-y,1/2+z
x,-y,-z
-x,y,1/2-z
-x,-y,-z
x,y,1/2-z
-x,y,z
x,-y,1/2+z
1/2+x,1/2+y,z
1/2-x,1/2-y,1/2+z
1/2+x,1/2-y,-z
1/2-x,1/2+y,1/2-z
1/2-x,1/2-y,-z
1/2+x,1/2+y,1/2-z
1/2-x,1/2+y,z
1/2+x,1/2-y,1/2+z
loop_
_atom_site_type_symbol
_atom_site_label
_atom_site_fract_x
_atom_site_fract_y
_atom_site_fract_z
Si Si1 0.823136 0.388991 0.394761
Si Si2 0.331318 0.500857 0.606235
Si Si3 0.177688 0.308579 0.750000
Si Si4 0.820858 0.814405 0.250000
Si Si5 0.323522 0.891280 0.601347
O O1 0.764904 0.447616 0.359783
O O2 0.741229 0.342022 0.339579
O O3 0.780055 0.379463 0.498506
O O4 0.000000 0.385961 0.377894
O O5 0.331216 0.500000 0.500000
O O6 0.500000 0.505694 0.644662
O O7 0.257080 0.445022 0.640708
O O8 0.242266 0.247481 0.750000
O O9 0.232179 0.340191 0.839346
O O10 0.000000 0.305661 0.750000
O O11 0.000000 0.817245 0.250000
O O12 0.500000 0.901799 0.610794
#
# Coordination Sequence:
#
# PCOD8259190 Si02
#       5
#    16  16   8   8  16
#     4  10  20  35  56  81 109 142 179 221 269 320
#     4   9  17  31  53  82 113 142 175 217 266 320
#     4   9  20  38  57  78 105 140 182 223 266 319
#     4  11  23  38  55  76 105 142 184 227 270 319
#     4   9  18  35  58  81 108 143 180 219 266 322
#
# _framework density 19.701122999999999
#
# number of rings (size 3 to 8) (size 9 to 14) (size 15 to 20)
#    0.000    2.500    0.000    1.875    0.000    6.000 
#    0.000    6.875    0.000    0.000    0.000    0.000 
#    0.000    0.000    0.000    0.000    0.000    0.000 
#
# Total GULP energy -396811.173873 kJ/mol
# GULP energy per Si atom -12400.349184 kJ/mol
# Density = 1.965628 g / cm^3
# Si number density = 19.701123 Si / 1000 Ang^3
#
#
#
# Elastic Constant Matrix: (Units=GPa)
#
#
# Indices 1 2 3 4 5 6 
#
# 1 89.4380 62.2824 38.5381 0.0000 0.0000 0.0000
# 2 62.2824 202.1360 76.7233 0.0000 0.0000 0.0000
# 3 38.5381 76.7233 99.5472 0.0000 0.0000 0.0000
# 4 0.0000 0.0000 0.0000 11.0924 0.0000 0.0000
# 5 0.0000 0.0000 0.0000 0.0000 19.7524 0.0000
# 6 0.0000 0.0000 0.0000 0.0000 0.0000 30.0241
#
#
#
# Elastic Compliance Matrix: (Units=1/GPa)
#
#
# Indices 1 2 3 4 5 6 
#
# 1 0.014904 -0.003396 -0.003153 0.000000 0.000000 0.000000
# 2 -0.003396 0.007766 -0.004671 0.000000 0.000000 0.000000
# 3 -0.003153 -0.004671 0.014866 0.000000 0.000000 0.000000
# 4 0.000000 0.000000 0.000000 0.090152 0.000000 0.000000
# 5 0.000000 0.000000 0.000000 0.000000 0.050627 0.000000
# 6 0.000000 0.000000 0.000000 0.000000 0.000000 0.033307
#
#
# Mechanical properties :
#
#
# Convention : Reuss Voigt Hill
#
# Bulk Modulus (GPa) = 66.23606 82.91209 74.57408
# Shear Modulus (GPa) = 20.91227 26.41225 23.66226
#
# Velocity S-wave (km/s) = 3.26156 3.66546 3.46939
# Velocity P-wave (km/s) = 6.91933 7.75180 7.34737
#
# Compressibility (1/GPa) = 0.01509752
#
# Stress axis : x y z
#
# Youngs Moduli (GPa) = 67.09593 128.75921 67.26637
#
# Poissons Ratio (x) = 0.43721 0.21208
# Poissons Ratio (y) = 0.22783 0.31422
# Poissons Ratio (z) = 0.21154 0.60146
#
# Static dielectric constant tensor:
#      x y z
#    x 3.557740 0.000000 0.000000 
#    y 0.000000 3.821000 0.000000 
#    z 0.000000 0.000000 3.561010 
# 
# 
# High freq. dielectric constant tensor:
#      x y z
#    x 1.760600 0.000000 0.000000 
#    y 0.000000 1.767600 0.000000 
#    z 0.000000 0.000000 1.767620 
# 
# From -- ./inp_files/27524.got.cif
#   From: 2010.03.12/outbox.cif.g09.slc.cpg/sg63_14_cif.got.tgz:27524.got - 2010.04.10 19:34:48.
