data_PCOD8259056
_publ_section_title
;
Structure prediction by ZEFSAII (Michael W. Deem and Ramdas Pophale) SiO2 
 PCOD8259056
Probable space group: C M C M
;
_chemical_formula_sum "Si O2"
_cell_formula_units_Z 112
_cell_length_a 32.040242
_cell_length_b 11.906265
_cell_length_c 12.974396
_cell_angle_alpha 90.000000
_cell_angle_beta 90.000000
_cell_angle_gamma 90.000000
_cell_volume 4949.467551
_symmetry_space_group_name_H-M "C M C M"
_symmetry_group_IT_number 63
_symmetry_cell_setting 'orthorhombic'
loop_
_space_group_symop_operation_xyz
x,y,z
-x,-y,1/2+z
x,-y,-z
-x,y,1/2-z
-x,-y,-z
x,y,1/2-z
-x,y,z
x,-y,1/2+z
1/2+x,1/2+y,z
1/2-x,1/2-y,1/2+z
1/2+x,1/2-y,-z
1/2-x,1/2+y,1/2-z
1/2-x,1/2-y,-z
1/2+x,1/2+y,1/2-z
1/2-x,1/2+y,z
1/2+x,1/2-y,1/2+z
loop_
_atom_site_type_symbol
_atom_site_label
_atom_site_fract_x
_atom_site_fract_y
_atom_site_fract_z
Si Si1 0.807373 0.168722 0.626722
Si Si2 0.666411 0.572629 0.371920
Si Si3 0.046491 0.167428 0.926719
Si Si4 0.119458 0.669969 0.069330
Si Si5 0.715211 0.785893 0.369881
Si Si6 0.862837 0.575224 0.863695
Si Si7 0.429150 0.577625 0.365879
O O1 0.809593 0.169460 0.750000
O O2 0.838751 0.259449 0.581410
O O3 0.761143 0.195830 0.583748
O O4 0.820378 0.047490 0.581054
O O5 0.672906 0.567946 0.250000
O O6 0.693717 0.674638 0.420508
O O7 0.618572 0.596751 0.398689
O O8 0.044892 0.147992 0.050495
O O9 0.000000 0.203001 0.891523
O O10 0.078549 0.264586 0.890671
O O11 0.059999 0.053913 0.869753
O O12 0.127829 0.556733 0.133170
O O13 0.110438 0.640788 0.949274
O O14 0.720408 0.761182 0.250000
O O15 0.686158 0.896659 0.386297
O O16 0.874982 0.621083 0.750000
O O17 0.438614 0.620828 0.250000
#
# Coordination Sequence:
#
# PCOD8259056 Si02
#       7
#    16  16  16  16  16  16  16
#     4  10  20  34  58  92 129 167 210 255 306 362
#     4   9  17  32  56  88 126 167 208 251 300 357
#     4  11  24  40  62  95 127 157 202 260 316 376
#     4  11  23  41  65  89 120 165 210 256 314 378
#     4   9  19  34  57  89 127 169 210 258 304 351
#     4  10  23  43  64  87 121 166 213 259 309 365
#     4  10  20  38  63  92 129 169 203 243 311 380
#
# _framework density 22.628696000000001
#
# number of rings (size 3 to 8) (size 9 to 14) (size 15 to 20)
#    0.000    2.000    1.429    2.143    2.000    4.000 
#    0.000    1.429    0.000    0.857    0.000    0.000 
#    0.000    0.000    0.000    0.000    0.000    0.000 
#
# Total GULP energy -694398.364241 kJ/mol
# GULP energy per Si atom -12399.970790 kJ/mol
# Density = 2.257719 g / cm^3
# Si number density = 22.628696 Si / 1000 Ang^3
#
#
#
# Elastic Constant Matrix: (Units=GPa)
#
#
# Indices 1 2 3 4 5 6 
#
# 1 121.2317 48.5622 -5.2551 0.0000 0.0000 0.0000
# 2 48.5622 115.8364 -1.9723 0.0000 0.0000 0.0000
# 3 -5.2551 -1.9723 59.5187 0.0000 0.0000 0.0000
# 4 0.0000 0.0000 0.0000 23.5620 0.0000 0.0000
# 5 0.0000 0.0000 0.0000 0.0000 19.6820 0.0000
# 6 0.0000 0.0000 0.0000 0.0000 0.0000 20.7684
#
#
#
# Elastic Compliance Matrix: (Units=1/GPa)
#
#
# Indices 1 2 3 4 5 6 
#
# 1 0.009946 -0.004157 0.000740 0.000000 0.000000 0.000000
# 2 -0.004157 0.010375 -0.000023 0.000000 0.000000 0.000000
# 3 0.000740 -0.000023 0.016866 0.000000 0.000000 0.000000
# 4 0.000000 0.000000 0.000000 0.042441 0.000000 0.000000
# 5 0.000000 0.000000 0.000000 0.000000 0.050808 0.000000
# 6 0.000000 0.000000 0.000000 0.000000 0.000000 0.048150
#
#
# Mechanical properties :
#
#
# Convention : Reuss Voigt Hill
#
# Bulk Modulus (GPa) = 32.99514 42.13959 37.56736
# Shear Modulus (GPa) = 25.56648 29.81928 27.69288
#
# Velocity S-wave (km/s) = 3.36493 3.63404 3.50207
# Velocity P-wave (km/s) = 5.45067 6.02254 5.74372
#
# Compressibility (1/GPa) = 0.03030750
#
# Stress axis : x y z
#
# Youngs Moduli (GPa) = 100.54326 96.38337 59.29073
#
# Poissons Ratio (x) = 0.40067 -0.04390
# Poissons Ratio (y) = 0.41796 0.00138
# Poissons Ratio (z) = -0.07444 0.00224
#
# Static dielectric constant tensor:
#      x y z
#    x 3.961430 0.000000 0.000000 
#    y 0.000000 4.110860 0.000000 
#    z 0.000000 0.000000 4.214130 
# 
# 
# High freq. dielectric constant tensor:
#      x y z
#    x 1.869770 0.000000 0.000000 
#    y 0.000000 1.882790 0.000000 
#    z 0.000000 0.000000 1.920810 
# 
# From -- ./inp_files/38550.got.cif
#   From: 2010.03.12/outbox.cif.g09.slc.cpg/sg63_20_cif.got.tgz:38550.got - 2010.04.10 19:34:48.
