data_PCOD8259171
_publ_section_title
;
Structure prediction by ZEFSAII (Michael W. Deem and Ramdas Pophale) SiO2 
 PCOD8259171
Probable space group: C M C M
;
_chemical_formula_sum "Si O2"
_cell_formula_units_Z 72
_cell_length_a 26.763342
_cell_length_b 14.475946
_cell_length_c 8.921978
_cell_angle_alpha 90.000000
_cell_angle_beta 90.000000
_cell_angle_gamma 90.000000
_cell_volume 3456.594593
_symmetry_space_group_name_H-M "C M C M"
_symmetry_group_IT_number 63
_symmetry_cell_setting 'orthorhombic'
loop_
_space_group_symop_operation_xyz
x,y,z
-x,-y,1/2+z
x,-y,-z
-x,y,1/2-z
-x,-y,-z
x,y,1/2-z
-x,y,z
x,-y,1/2+z
1/2+x,1/2+y,z
1/2-x,1/2-y,1/2+z
1/2+x,1/2-y,-z
1/2-x,1/2+y,1/2-z
1/2-x,1/2-y,-z
1/2+x,1/2+y,1/2-z
1/2-x,1/2+y,z
1/2+x,1/2-y,1/2+z
loop_
_atom_site_type_symbol
_atom_site_label
_atom_site_fract_x
_atom_site_fract_y
_atom_site_fract_z
Si Si1 0.769195 0.339842 0.080834
Si Si2 0.663714 0.591012 0.579280
Si Si3 0.910764 0.788274 0.924892
Si Si4 0.000000 0.898565 0.428215
Si Si5 0.873995 0.407762 0.076150
O O1 0.782752 0.311061 0.250000
O O2 0.723790 0.412661 0.075221
O O3 0.819024 0.383837 0.007334
O O4 0.750000 0.250000 0.000000
O O5 0.641897 0.500000 0.500000
O O6 0.643983 0.595543 0.750000
O O7 0.643169 0.677912 0.484556
O O8 0.917594 0.811731 0.750000
O O9 0.912092 0.677568 0.951415
O O10 0.952257 0.840302 0.020634
O O11 0.000000 0.909008 0.250000
O O12 0.000000 0.000000 0.500000
O O13 0.868602 0.429836 0.250000
O O14 0.895794 0.500000 0.000000
#
# Coordination Sequence:
#
# PCOD8259171 Si02
#       5
#    16  16  16   8  16
#     4  10  20  35  55  84 120 163 208 251 300 351
#     4  11  22  35  56  86 121 161 204 249 300 358
#     4  11  23  42  65  90 123 158 200 251 306 363
#     4  12  26  46  71  98 125 154 195 244 308 372
#     4  10  22  39  61  89 123 164 208 253 302 355
#
# _framework density 20.829750000000001
#
# number of rings (size 3 to 8) (size 9 to 14) (size 15 to 20)
#    0.000    1.333    2.222    3.667    0.000    3.556 
#    0.000    0.556    0.000    0.000    0.000    0.000 
#    0.000    0.000    0.000    0.000    0.000    0.000 
#
# Total GULP energy -446389.170947 kJ/mol
# GULP energy per Si atom -12399.699193 kJ/mol
# Density = 2.078234 g / cm^3
# Si number density = 20.829750 Si / 1000 Ang^3
#
#
#
# Elastic Constant Matrix: (Units=GPa)
#
#
# Indices 1 2 3 4 5 6 
#
# 1 79.5168 32.3176 34.2947 0.0000 0.0000 0.0000
# 2 32.3176 147.1135 69.6526 0.0000 0.0000 0.0000
# 3 34.2947 69.6526 120.9442 0.0000 0.0000 0.0000
# 4 0.0000 0.0000 0.0000 39.4720 0.0000 0.0000
# 5 0.0000 0.0000 0.0000 0.0000 29.7492 0.0000
# 6 0.0000 0.0000 0.0000 0.0000 0.0000 27.3612
#
#
#
# Elastic Compliance Matrix: (Units=1/GPa)
#
#
# Indices 1 2 3 4 5 6 
#
# 1 0.014638 -0.001719 -0.003161 0.000000 0.000000 0.000000
# 2 -0.001719 0.009548 -0.005011 0.000000 0.000000 0.000000
# 3 -0.003161 -0.005011 0.012050 0.000000 0.000000 0.000000
# 4 0.000000 0.000000 0.000000 0.025334 0.000000 0.000000
# 5 0.000000 0.000000 0.000000 0.000000 0.033614 0.000000
# 6 0.000000 0.000000 0.000000 0.000000 0.000000 0.036548
#
#
# Mechanical properties :
#
#
# Convention : Reuss Voigt Hill
#
# Bulk Modulus (GPa) = 60.77480 68.90049 64.83765
# Shear Modulus (GPa) = 31.84727 33.40377 32.62552
#
# Velocity S-wave (km/s) = 3.91440 4.00891 3.96194
# Velocity P-wave (km/s) = 7.04771 7.38771 7.21971
#
# Compressibility (1/GPa) = 0.01645419
#
# Stress axis : x y z
#
# Youngs Moduli (GPa) = 68.31625 104.73720 82.98473
#
# Poissons Ratio (x) = 0.18006 0.26228
# Poissons Ratio (y) = 0.11745 0.41584
# Poissons Ratio (z) = 0.21592 0.52485
#
# Static dielectric constant tensor:
#      x y z
#    x 3.833640 0.000000 0.000000 
#    y 0.000000 3.727780 0.000000 
#    z 0.000000 0.000000 4.620660 
# 
# 
# High freq. dielectric constant tensor:
#      x y z
#    x 1.801310 0.000000 0.000000 
#    y 0.000000 1.819800 0.000000 
#    z 0.000000 0.000000 1.815640 
# 
# From -- ./inp_files/11717.got.cif
#   From: 2010.03.12/outbox.cif.g09.slc.cpg/sg63_6_cif.got.tgz:11717.got - 2010.04.10 19:34:48.
