data_PCOD8259904
_publ_section_title
;
Structure prediction by ZEFSAII (Michael W. Deem and Ramdas Pophale) SiO2 
 PCOD8259904
Probable space group: C M C M
;
_chemical_formula_sum "Si O2"
_cell_formula_units_Z 112
_cell_length_a 14.207986
_cell_length_b 31.782758
_cell_length_c 13.961340
_cell_angle_alpha 90.000000
_cell_angle_beta 90.000000
_cell_angle_gamma 90.000000
_cell_volume 6304.508073
_symmetry_space_group_name_H-M "C M C M"
_symmetry_group_IT_number 63
_symmetry_cell_setting 'orthorhombic'
loop_
_space_group_symop_operation_xyz
x,y,z
-x,-y,1/2+z
x,-y,-z
-x,y,1/2-z
-x,-y,-z
x,y,1/2-z
-x,y,z
x,-y,1/2+z
1/2+x,1/2+y,z
1/2-x,1/2-y,1/2+z
1/2+x,1/2-y,-z
1/2-x,1/2+y,1/2-z
1/2-x,1/2-y,-z
1/2+x,1/2+y,1/2-z
1/2-x,1/2+y,z
1/2+x,1/2-y,1/2+z
loop_
_atom_site_type_symbol
_atom_site_label
_atom_site_fract_x
_atom_site_fract_y
_atom_site_fract_z
Si Si1 0.279459 0.212025 0.362541
Si Si2 0.111223 0.009449 0.645027
Si Si3 0.600725 0.238588 0.861901
Si Si4 0.109219 0.206696 0.861427
Si Si5 0.889044 0.931535 0.977104
Si Si6 0.393904 0.140700 0.639587
Si Si7 0.265666 0.354580 0.009883
O O1 0.274365 0.200579 0.250000
O O2 0.183715 0.233252 0.403890
O O3 0.364265 0.244560 0.383220
O O4 0.289526 0.170044 0.425160
O O5 0.156453 0.015391 0.750000
O O6 0.137080 0.049951 0.581626
O O7 0.000000 0.006004 0.650544
O O8 0.147059 0.965622 0.600114
O O9 0.595714 0.246478 0.750000
O O10 0.500000 0.251925 0.908136
O O11 0.620758 0.190003 0.880896
O O12 0.131033 0.197277 0.750000
O O13 0.171832 0.174945 0.922302
O O14 0.000000 0.199809 0.885626
O O15 0.000000 0.922496 0.967462
O O16 0.833244 0.888551 0.960153
O O17 0.375036 0.129367 0.750000
O O18 0.500000 0.126622 0.611537
O O19 0.314213 0.120319 0.571772
#
# Coordination Sequence:
#
# PCOD8259904 Si02
#       7
#    16  16  16  16  16  16  16
#     4  10  21  35  45  62  94 132 173 209 244 289
#     4   8  15  32  55  73  97 136 166 186 228 292
#     4   8  14  27  45  60  79 114 162 209 241 270
#     4  10  21  35  48  65  95 133 170 210 256 303
#     4   9  19  32  47  76 110 129 156 198 236 292
#     4   9  18  32  49  68  91 121 162 212 255 288
#     4  12  21  31  49  76  99 129 163 210 257 295
#
# _framework density 17.765065
#
# number of rings (size 3 to 8) (size 9 to 14) (size 15 to 20)
#    0.000    2.571    1.429    3.000    0.000    3.429 
#    0.000    1.429    0.000    0.000    0.000    2.000 
#    0.000    1.143    0.000    0.000    0.000    0.000 
#
# Total GULP energy -694051.925610 kJ/mol
# GULP energy per Si atom -12393.784386 kJ/mol
# Density = 1.772463 g / cm^3
# Si number density = 17.765065 Si / 1000 Ang^3
#
#
#
# Elastic Constant Matrix: (Units=GPa)
#
#
# Indices 1 2 3 4 5 6 
#
# 1 73.3307 6.2448 14.3205 0.0000 0.0000 0.0000
# 2 6.2448 41.8989 6.5913 0.0000 0.0000 0.0000
# 3 14.3205 6.5913 53.6429 0.0000 0.0000 0.0000
# 4 0.0000 0.0000 0.0000 12.7030 0.0000 0.0000
# 5 0.0000 0.0000 0.0000 0.0000 16.6898 0.0000
# 6 0.0000 0.0000 0.0000 0.0000 0.0000 25.3275
#
#
#
# Elastic Compliance Matrix: (Units=1/GPa)
#
#
# Indices 1 2 3 4 5 6 
#
# 1 0.014489 -0.001582 -0.003674 0.000000 0.000000 0.000000
# 2 -0.001582 0.024510 -0.002589 0.000000 0.000000 0.000000
# 3 -0.003674 -0.002589 0.019941 0.000000 0.000000 0.000000
# 4 0.000000 0.000000 0.000000 0.078721 0.000000 0.000000
# 5 0.000000 0.000000 0.000000 0.000000 0.059917 0.000000
# 6 0.000000 0.000000 0.000000 0.000000 0.000000 0.039483
#
#
# Mechanical properties :
#
#
# Convention : Reuss Voigt Hill
#
# Bulk Modulus (GPa) = 23.12117 24.79841 23.95979
# Shear Modulus (GPa) = 18.71490 20.39178 19.55334
#
# Velocity S-wave (km/s) = 3.24924 3.39168 3.32122
# Velocity P-wave (km/s) = 5.20768 5.41548 5.31259
#
# Compressibility (1/GPa) = 0.04325041
#
# Stress axis : x y z
#
# Youngs Moduli (GPa) = 69.01804 40.79961 50.14872
#
# Poissons Ratio (x) = 0.06453 0.18423
# Poissons Ratio (y) = 0.10916 0.12986
# Poissons Ratio (z) = 0.25355 0.10565
#
# Static dielectric constant tensor:
#      x y z
#    x 3.396870 0.000000 0.000000 
#    y 0.000000 2.907790 0.000000 
#    z 0.000000 0.000000 3.556580 
# 
# 
# High freq. dielectric constant tensor:
#      x y z
#    x 1.675370 0.000000 0.000000 
#    y 0.000000 1.641400 0.000000 
#    z 0.000000 0.000000 1.693300 
# 
# From -- ./inp_files/32744.got.cif
#   From: 2010.03.12/outbox.cif.g09.slc.cpg/sg63_17_cif.got.tgz:32744.got - 2010.04.10 19:34:48.
