data_PCOD8259326
_publ_section_title
;
Structure prediction by ZEFSAII (Michael W. Deem and Ramdas Pophale) SiO2 
 PCOD8259326
Probable space group: C M C M
;
_chemical_formula_sum "Si O2"
_cell_formula_units_Z 80
_cell_length_a 8.814432
_cell_length_b 19.604456
_cell_length_c 22.779128
_cell_angle_alpha 90.000000
_cell_angle_beta 90.000000
_cell_angle_gamma 90.000000
_cell_volume 3936.282164
_symmetry_space_group_name_H-M "C M C M"
_symmetry_group_IT_number 63
_symmetry_cell_setting 'orthorhombic'
loop_
_space_group_symop_operation_xyz
x,y,z
-x,-y,1/2+z
x,-y,-z
-x,y,1/2-z
-x,-y,-z
x,y,1/2-z
-x,y,z
x,-y,1/2+z
1/2+x,1/2+y,z
1/2-x,1/2-y,1/2+z
1/2+x,1/2-y,-z
1/2-x,1/2+y,1/2-z
1/2-x,1/2-y,-z
1/2+x,1/2+y,1/2-z
1/2-x,1/2+y,z
1/2+x,1/2-y,1/2+z
loop_
_atom_site_type_symbol
_atom_site_label
_atom_site_fract_x
_atom_site_fract_y
_atom_site_fract_z
Si Si1 0.323454 0.428616 0.250000
Si Si2 0.820448 0.576455 0.250000
Si Si3 0.326565 0.524462 0.436687
Si Si4 0.321764 0.142275 0.370563
Si Si5 0.172701 0.115471 0.874830
Si Si6 0.821904 0.736657 0.936787
O O1 0.500000 0.448411 0.250000
O O2 0.234187 0.499151 0.250000
O O3 0.282667 0.381627 0.306122
O O4 0.761268 0.617033 0.307241
O O5 0.000000 0.573975 0.250000
O O6 0.272260 0.500000 0.500000
O O7 0.500000 0.551128 0.438836
O O8 0.217376 0.585873 0.419064
O O9 0.307887 0.463378 0.391190
O O10 0.500000 0.155773 0.370099
O O11 0.239459 0.212142 0.387326
O O12 0.282825 0.160966 0.914374
O O13 0.000000 0.140005 0.885639
O O14 0.000000 0.744848 0.943536
O O15 0.750000 0.750000 0.000000
#
# Coordination Sequence:
#
# PCOD8259326 Si02
#       6
#     8   8  16  16  16  16
#     4  10  20  37  64  93 125 167 207 253 308 367
#     4  10  22  39  62  93 129 165 205 259 308 359
#     4  10  20  35  59  90 122 159 206 256 308 367
#     4  11  23  40  63  91 125 165 208 255 309 366
#     4  10  21  38  61  91 127 165 207 254 309 368
#     4  12  26  44  65  90 124 164 207 258 314 373
#
# _framework density 20.323744999999999
#
# number of rings (size 3 to 8) (size 9 to 14) (size 15 to 20)
#    0.000    1.400    2.000    3.600    0.000    5.200 
#    0.000    4.000    0.000    0.000    0.000    0.000 
#    0.000    0.000    0.000    0.000    0.000    0.000 
#
# Total GULP energy -496186.106212 kJ/mol
# GULP energy per Si atom -12404.652655 kJ/mol
# Density = 2.027749 g / cm^3
# Si number density = 20.323745 Si / 1000 Ang^3
#
#
#
# Elastic Constant Matrix: (Units=GPa)
#
#
# Indices 1 2 3 4 5 6 
#
# 1 81.1311 24.1032 22.3023 0.0000 0.0000 0.0000
# 2 24.1032 60.7353 8.8632 0.0000 0.0000 0.0000
# 3 22.3023 8.8632 102.3996 0.0000 0.0000 0.0000
# 4 0.0000 0.0000 0.0000 33.0431 0.0000 0.0000
# 5 0.0000 0.0000 0.0000 0.0000 28.3861 0.0000
# 6 0.0000 0.0000 0.0000 0.0000 0.0000 38.8111
#
#
#
# Elastic Compliance Matrix: (Units=1/GPa)
#
#
# Indices 1 2 3 4 5 6 
#
# 1 0.014690 -0.005431 -0.002729 0.000000 0.000000 0.000000
# 2 -0.005431 0.018684 -0.000434 0.000000 0.000000 0.000000
# 3 -0.002729 -0.000434 0.010398 0.000000 0.000000 0.000000
# 4 0.000000 0.000000 0.000000 0.030264 0.000000 0.000000
# 5 0.000000 0.000000 0.000000 0.000000 0.035229 0.000000
# 6 0.000000 0.000000 0.000000 0.000000 0.000000 0.025766
#
#
# Mechanical properties :
#
#
# Convention : Reuss Voigt Hill
#
# Bulk Modulus (GPa) = 37.62044 39.42260 38.52152
# Shear Modulus (GPa) = 31.04068 32.64788 31.84428
#
# Velocity S-wave (km/s) = 3.91232 4.01233 3.96264
# Velocity P-wave (km/s) = 6.24172 6.39566 6.31916
#
# Compressibility (1/GPa) = 0.02658129
#
# Stress axis : x y z
#
# Youngs Moduli (GPa) = 68.07546 53.52254 96.17543
#
# Poissons Ratio (x) = 0.29070 0.26248
# Poissons Ratio (y) = 0.36974 0.04176
# Poissons Ratio (z) = 0.18579 0.02324
#
# Static dielectric constant tensor:
#      x y z
#    x 3.588580 0.000000 0.000000 
#    y 0.000000 3.578610 0.000000 
#    z 0.000000 0.000000 4.056790 
# 
# 
# High freq. dielectric constant tensor:
#      x y z
#    x 1.784010 0.000000 0.000000 
#    y 0.000000 1.791330 0.000000 
#    z 0.000000 0.000000 1.813750 
# 
# From -- ./inp_files/59531.got.cif
#   From: 2010.03.12/outbox.cif.g09.slc.cpg/sg63_30_cif.got.tgz:59531.got - 2010.04.10 19:34:48.
