data_PCOD8259804
_publ_section_title
;
Structure prediction by ZEFSAII (Michael W. Deem and Ramdas Pophale) SiO2 
 PCOD8259804
Probable space group: C M C M
;
_chemical_formula_sum "Si O2"
_cell_formula_units_Z 88
_cell_length_a 18.208235
_cell_length_b 28.733267
_cell_length_c 8.669360
_cell_angle_alpha 90.000000
_cell_angle_beta 90.000000
_cell_angle_gamma 90.000000
_cell_volume 4535.653778
_symmetry_space_group_name_H-M "C M C M"
_symmetry_group_IT_number 63
_symmetry_cell_setting 'orthorhombic'
loop_
_space_group_symop_operation_xyz
x,y,z
-x,-y,1/2+z
x,-y,-z
-x,y,1/2-z
-x,-y,-z
x,y,1/2-z
-x,y,z
x,-y,1/2+z
1/2+x,1/2+y,z
1/2-x,1/2-y,1/2+z
1/2+x,1/2-y,-z
1/2-x,1/2+y,1/2-z
1/2-x,1/2-y,-z
1/2+x,1/2+y,1/2-z
1/2-x,1/2+y,z
1/2+x,1/2-y,1/2+z
loop_
_atom_site_type_symbol
_atom_site_label
_atom_site_fract_x
_atom_site_fract_y
_atom_site_fract_z
Si Si1 0.808767 0.715564 0.568441
Si Si2 0.082567 0.548683 0.568806
Si Si3 0.798181 0.614955 0.069799
Si Si4 0.420097 0.291666 0.931062
Si Si5 0.367127 0.610052 0.068122
Si Si6 0.500000 0.448578 0.067670
O O1 0.796521 0.706663 0.750000
O O2 0.750000 0.750000 0.500000
O O3 0.806463 0.668415 0.474440
O O4 0.885028 0.741725 0.532653
O O5 0.109483 0.500000 0.500000
O O6 0.082800 0.543983 0.750000
O O7 0.139644 0.587835 0.521508
O O8 0.000000 0.561058 0.509791
O O9 0.812547 0.609283 0.250000
O O10 0.716752 0.595683 0.026982
O O11 0.426792 0.298261 0.750000
O O12 0.500000 0.292093 0.009813
O O13 0.375332 0.336636 0.992302
O O14 0.381384 0.605910 0.250000
O O15 0.425860 0.577379 0.984571
O O16 0.500000 0.451774 0.250000
O O17 0.500000 0.500000 0.000000
#
# Coordination Sequence:
#
# PCOD8259804 Si02
#       6
#    16  16  16  16  16   8
#     4  11  21  35  56  86 121 160 204 249 299 357
#     4  10  22  42  67  93 122 159 200 248 309 374
#     4  11  23  39  62  93 126 163 206 254 307 362
#     4   9  17  33  58  82 109 153 202 241 288 350
#     4  10  20  39  63  85 115 159 203 247 302 363
#     4  12  26  42  62  90 120 156 202 256 311 362
#
# _framework density 19.401834000000001
#
# number of rings (size 3 to 8) (size 9 to 14) (size 15 to 20)
#    0.000    1.636    2.727    2.455    0.000    4.000 
#    0.000    1.818    0.000    0.000    0.000    0.000 
#    0.000    0.000    0.000    0.000    0.000    0.000 
#
# Total GULP energy -545471.731081 kJ/mol
# GULP energy per Si atom -12397.084797 kJ/mol
# Density = 1.935767 g / cm^3
# Si number density = 19.401834 Si / 1000 Ang^3
#
#
#
# Elastic Constant Matrix: (Units=GPa)
#
#
# Indices 1 2 3 4 5 6 
#
# 1 121.5989 52.1281 29.3092 0.0000 0.0000 0.0000
# 2 52.1281 109.7582 20.2132 0.0000 0.0000 0.0000
# 3 29.3092 20.2132 55.6721 0.0000 0.0000 0.0000
# 4 0.0000 0.0000 0.0000 36.7674 0.0000 0.0000
# 5 0.0000 0.0000 0.0000 0.0000 30.8385 0.0000
# 6 0.0000 0.0000 0.0000 0.0000 0.0000 27.7416
#
#
#
# Elastic Compliance Matrix: (Units=1/GPa)
#
#
# Indices 1 2 3 4 5 6 
#
# 1 0.011190 -0.004533 -0.004245 0.000000 0.000000 0.000000
# 2 -0.004533 0.011600 -0.001825 0.000000 0.000000 0.000000
# 3 -0.004245 -0.001825 0.020860 0.000000 0.000000 0.000000
# 4 0.000000 0.000000 0.000000 0.027198 0.000000 0.000000
# 5 0.000000 0.000000 0.000000 0.000000 0.032427 0.000000
# 6 0.000000 0.000000 0.000000 0.000000 0.000000 0.036047
#
#
# Mechanical properties :
#
#
# Convention : Reuss Voigt Hill
#
# Bulk Modulus (GPa) = 44.55710 54.48111 49.51910
# Shear Modulus (GPa) = 29.76009 31.42808 30.59409
#
# Velocity S-wave (km/s) = 3.92073 4.02910 3.97528
# Velocity P-wave (km/s) = 6.59632 7.05594 6.82999
#
# Compressibility (1/GPa) = 0.02244311
#
# Stress axis : x y z
#
# Youngs Moduli (GPa) = 89.36396 86.20794 47.93835
#
# Poissons Ratio (x) = 0.39076 0.20352
# Poissons Ratio (y) = 0.40507 0.08750
# Poissons Ratio (z) = 0.37939 0.15736
#
# Static dielectric constant tensor:
#      x y z
#    x 3.750500 0.000000 0.000000 
#    y 0.000000 3.481930 0.000000 
#    z 0.000000 0.000000 3.491610 
# 
# 
# High freq. dielectric constant tensor:
#      x y z
#    x 1.770270 0.000000 0.000000 
#    y 0.000000 1.756170 0.000000 
#    z 0.000000 0.000000 1.744710 
# 
# From -- ./inp_files/6855.got.cif
#   From: 2010.03.12/outbox.cif.g09.slc.cpg/sg63_4_cif.got.tgz:6855.got - 2010.04.10 19:34:48.
