data_PCOD8259541
_publ_section_title
;
Structure prediction by ZEFSAII (Michael W. Deem and Ramdas Pophale) SiO2 
 PCOD8259541
Probable space group: C M C M
;
_chemical_formula_sum "Si O2"
_cell_formula_units_Z 80
_cell_length_a 11.481864
_cell_length_b 21.231274
_cell_length_c 16.567371
_cell_angle_alpha 90.000000
_cell_angle_beta 90.000000
_cell_angle_gamma 90.000000
_cell_volume 4038.704249
_symmetry_space_group_name_H-M "C M C M"
_symmetry_group_IT_number 63
_symmetry_cell_setting 'orthorhombic'
loop_
_space_group_symop_operation_xyz
x,y,z
-x,-y,1/2+z
x,-y,-z
-x,y,1/2-z
-x,-y,-z
x,y,1/2-z
-x,y,z
x,-y,1/2+z
1/2+x,1/2+y,z
1/2-x,1/2-y,1/2+z
1/2+x,1/2-y,-z
1/2-x,1/2+y,1/2-z
1/2-x,1/2-y,-z
1/2+x,1/2+y,1/2-z
1/2-x,1/2+y,z
1/2+x,1/2-y,1/2+z
loop_
_atom_site_type_symbol
_atom_site_label
_atom_site_fract_x
_atom_site_fract_y
_atom_site_fract_z
Si Si1 0.363985 0.035034 0.420740
Si Si2 0.000000 0.162327 0.841161
Si Si3 0.866619 0.347203 0.250000
Si Si4 0.739443 0.721082 0.883901
Si Si5 0.500000 0.577376 0.996793
Si Si6 0.360555 0.984736 0.250000
Si Si7 0.773789 0.849465 0.951329
O O1 0.500000 0.021658 0.419973
O O2 0.337246 0.108266 0.430340
O O3 0.308655 0.000000 0.500000
O O4 0.310889 0.014336 0.333708
O O5 0.109546 0.208796 0.851681
O O6 0.000000 0.134445 0.750000
O O7 0.000000 0.103568 0.904310
O O8 0.836046 0.309342 0.171249
O O9 0.805149 0.415131 0.250000
O O10 0.000000 0.363007 0.250000
O O11 0.775948 0.794740 0.883891
O O12 0.755021 0.687319 0.968180
O O13 0.388632 0.606457 0.043686
O O14 0.500000 0.500000 0.000000
O O15 0.500000 0.989587 0.250000
#
# Coordination Sequence:
#
# PCOD8259541 Si02
#       7
#    16   8   8  16   8   8  16
#     4  10  20  36  60  87 117 152 195 246 301 362
#     4  10  20  42  64  88 117 154 218 254 302 371
#     4  11  22  36  59  83 119 156 185 238 301 360
#     4  10  22  38  60  87 114 154 201 252 298 361
#     4  10  22  40  66  88 122 168 202 254 305 374
#     4   9  20  37  55  87 119 151 198 244 295 366
#     4  10  22  38  59  87 118 154 199 246 303 362
#
# _framework density 19.808333000000001
#
# number of rings (size 3 to 8) (size 9 to 14) (size 15 to 20)
#    0.000    2.000    1.000    1.800    2.800    4.800 
#    0.000    0.000    2.200    0.000    0.000    0.000 
#    0.000    0.000    0.000    0.000    0.000    0.000 
#
# Total GULP energy -495653.845505 kJ/mol
# GULP energy per Si atom -12391.346138 kJ/mol
# Density = 1.976325 g / cm^3
# Si number density = 19.808333 Si / 1000 Ang^3
#
#
#
# Elastic Constant Matrix: (Units=GPa)
#
#
# Indices 1 2 3 4 5 6 
#
# 1 40.1673 35.2160 27.6931 0.0000 0.0000 0.0000
# 2 35.2160 161.0729 49.5040 0.0000 0.0000 0.0000
# 3 27.6931 49.5040 110.1045 0.0000 0.0000 0.0000
# 4 0.0000 0.0000 0.0000 25.7442 0.0000 0.0000
# 5 0.0000 0.0000 0.0000 0.0000 21.5304 0.0000
# 6 0.0000 0.0000 0.0000 0.0000 0.0000 32.8245
#
#
#
# Elastic Compliance Matrix: (Units=1/GPa)
#
#
# Indices 1 2 3 4 5 6 
#
# 1 0.033934 -0.005565 -0.006033 0.000000 0.000000 0.000000
# 2 -0.005565 0.008116 -0.002250 0.000000 0.000000 0.000000
# 3 -0.006033 -0.002250 0.011611 0.000000 0.000000 0.000000
# 4 0.000000 0.000000 0.000000 0.038844 0.000000 0.000000
# 5 0.000000 0.000000 0.000000 0.000000 0.046446 0.000000
# 6 0.000000 0.000000 0.000000 0.000000 0.000000 0.030465
#
#
# Mechanical properties :
#
#
# Convention : Reuss Voigt Hill
#
# Bulk Modulus (GPa) = 38.51074 59.57455 49.04264
# Shear Modulus (GPa) = 24.29931 29.28192 26.79062
#
# Velocity S-wave (km/s) = 3.50626 3.84899 3.68161
# Velocity P-wave (km/s) = 5.98963 7.06355 6.54864
#
# Compressibility (1/GPa) = 0.02596678
#
# Stress axis : x y z
#
# Youngs Moduli (GPa) = 29.46875 123.20679 86.12470
#
# Poissons Ratio (x) = 0.68565 0.51959
# Poissons Ratio (y) = 0.16399 0.19374
# Poissons Ratio (z) = 0.17778 0.27716
#
# Static dielectric constant tensor:
#      x y z
#    x 3.418280 0.000000 0.000000 
#    y 0.000000 3.766530 0.000000 
#    z 0.000000 0.000000 4.152680 
# 
# 
# High freq. dielectric constant tensor:
#      x y z
#    x 1.757770 0.000000 0.000000 
#    y 0.000000 1.777930 0.000000 
#    z 0.000000 0.000000 1.778340 
# 
# From -- ./inp_files/42227.got.cif
#   From: 2010.03.12/outbox.cif.g09.slc.cpg/sg63_22_cif.got.tgz:42227.got - 2010.04.10 19:34:48.
