data_PCOD8259470
_publ_section_title
;
Structure prediction by ZEFSAII (Michael W. Deem and Ramdas Pophale) SiO2 
 PCOD8259470
Probable space group: C M C M
;
_chemical_formula_sum "Si O2"
_cell_formula_units_Z 96
_cell_length_a 12.410282
_cell_length_b 19.921858
_cell_length_c 21.204986
_cell_angle_alpha 90.000000
_cell_angle_beta 90.000000
_cell_angle_gamma 90.000000
_cell_volume 5242.633284
_symmetry_space_group_name_H-M "C M C M"
_symmetry_group_IT_number 63
_symmetry_cell_setting 'orthorhombic'
loop_
_space_group_symop_operation_xyz
x,y,z
-x,-y,1/2+z
x,-y,-z
-x,y,1/2-z
-x,-y,-z
x,y,1/2-z
-x,y,z
x,-y,1/2+z
1/2+x,1/2+y,z
1/2-x,1/2-y,1/2+z
1/2+x,1/2-y,-z
1/2-x,1/2+y,1/2-z
1/2-x,1/2-y,-z
1/2+x,1/2+y,1/2-z
1/2-x,1/2+y,z
1/2+x,1/2-y,1/2+z
loop_
_atom_site_type_symbol
_atom_site_label
_atom_site_fract_x
_atom_site_fract_y
_atom_site_fract_z
Si Si1 0.500000 0.055375 0.095198
Si Si2 0.124144 0.739204 0.676862
Si Si3 0.000000 0.592527 0.539868
Si Si4 0.801756 0.528552 0.324026
Si Si5 0.376462 0.379939 0.878620
Si Si6 0.293700 0.114042 0.885978
Si Si7 0.123749 0.073900 0.515671
O O1 0.604462 0.067270 0.138319
O O2 0.500000 0.983706 0.062221
O O3 0.500000 0.105549 0.035586
O O4 0.137633 0.753412 0.750000
O O5 0.162100 0.806597 0.642012
O O6 0.206185 0.679929 0.657655
O O7 0.000000 0.720193 0.660575
O O8 0.107692 0.625849 0.566333
O O9 0.821763 0.536745 0.250000
O O10 0.688974 0.561321 0.343897
O O11 0.805646 0.450077 0.340835
O O12 0.500000 0.392743 0.859111
O O13 0.361786 0.381261 0.953792
O O14 0.185129 0.108239 0.926489
O O15 0.000000 0.066805 0.536788
O O16 0.172139 0.000000 0.500000
#
# Coordination Sequence:
#
# PCOD8259470 Si02
#       7
#     8  16   8  16  16  16  16
#     4   9  19  32  48  76 111 143 173 223 280 334
#     4  10  21  38  57  82 118 152 185 234 287 337
#     4   9  18  30  52  80 108 138 180 224 284 334
#     4  11  21  33  53  82 111 146 190 232 276 336
#     4  10  21  38  60  84 109 148 194 235 283 333
#     4  11  20  34  57  85 113 146 184 237 289 337
#     4  10  20  36  58  83 116 148 186 238 291 338
#
# _framework density 18.311409000000001
#
# number of rings (size 3 to 8) (size 9 to 14) (size 15 to 20)
#    0.000    1.833    2.500    2.250    2.333    1.667 
#    0.000    0.000    1.833    1.500    0.000    0.000 
#    0.000    0.000    0.000    0.000    0.000    0.000 
#
# Total GULP energy -595270.147398 kJ/mol
# GULP energy per Si atom -12401.461404 kJ/mol
# Density = 1.826973 g / cm^3
# Si number density = 18.311409 Si / 1000 Ang^3
#
#
#
# Elastic Constant Matrix: (Units=GPa)
#
#
# Indices 1 2 3 4 5 6 
#
# 1 74.8542 23.8040 28.3742 0.0000 0.0000 0.0000
# 2 23.8040 81.7972 10.1515 0.0000 0.0000 0.0000
# 3 28.3742 10.1515 78.3038 0.0000 0.0000 0.0000
# 4 0.0000 0.0000 0.0000 32.2655 0.0000 0.0000
# 5 0.0000 0.0000 0.0000 0.0000 23.3752 0.0000
# 6 0.0000 0.0000 0.0000 0.0000 0.0000 22.4156
#
#
#
# Elastic Compliance Matrix: (Units=1/GPa)
#
#
# Indices 1 2 3 4 5 6 
#
# 1 0.016795 -0.004200 -0.005542 0.000000 0.000000 0.000000
# 2 -0.004200 0.013476 -0.000225 0.000000 0.000000 0.000000
# 3 -0.005542 -0.000225 0.014808 0.000000 0.000000 0.000000
# 4 0.000000 0.000000 0.000000 0.030993 0.000000 0.000000
# 5 0.000000 0.000000 0.000000 0.000000 0.042780 0.000000
# 6 0.000000 0.000000 0.000000 0.000000 0.000000 0.044612
#
#
# Mechanical properties :
#
#
# Convention : Reuss Voigt Hill
#
# Bulk Modulus (GPa) = 39.76801 39.95716 39.86258
# Shear Modulus (GPa) = 26.07165 27.11962 26.59564
#
# Velocity S-wave (km/s) = 3.77741 3.85258 3.81518
# Velocity P-wave (km/s) = 6.38670 6.45431 6.42059
#
# Compressibility (1/GPa) = 0.02514584
#
# Stress axis : x y z
#
# Youngs Moduli (GPa) = 59.53983 74.20860 67.53115
#
# Poissons Ratio (x) = 0.31167 0.37423
# Poissons Ratio (y) = 0.25006 0.01520
# Poissons Ratio (z) = 0.32994 0.01670
#
# Static dielectric constant tensor:
#      x y z
#    x 3.355780 0.000000 0.000000 
#    y 0.000000 3.195380 0.000000 
#    z 0.000000 0.000000 3.452430 
# 
# 
# High freq. dielectric constant tensor:
#      x y z
#    x 1.702240 0.000000 0.000000 
#    y 0.000000 1.688430 0.000000 
#    z 0.000000 0.000000 1.719070 
# 
# From -- ./inp_files/52922.got.cif
#   From: 2010.03.12/outbox.cif.g09.slc.cpg/sg63_27_cif.got.tgz:52922.got - 2010.04.10 19:34:48.
