data_PCOD8259298
_publ_section_title
;
Structure prediction by ZEFSAII (Michael W. Deem and Ramdas Pophale) SiO2 
 PCOD8259298
Probable space group: C M C M
;
_chemical_formula_sum "Si O2"
_cell_formula_units_Z 96
_cell_length_a 8.634439
_cell_length_b 20.274803
_cell_length_c 27.913302
_cell_angle_alpha 90.000000
_cell_angle_beta 90.000000
_cell_angle_gamma 90.000000
_cell_volume 4886.545906
_symmetry_space_group_name_H-M "C M C M"
_symmetry_group_IT_number 63
_symmetry_cell_setting 'orthorhombic'
loop_
_space_group_symop_operation_xyz
x,y,z
-x,-y,1/2+z
x,-y,-z
-x,y,1/2-z
-x,-y,-z
x,y,1/2-z
-x,y,z
x,-y,1/2+z
1/2+x,1/2+y,z
1/2-x,1/2-y,1/2+z
1/2+x,1/2-y,-z
1/2-x,1/2+y,1/2-z
1/2-x,1/2-y,-z
1/2+x,1/2+y,1/2-z
1/2-x,1/2+y,z
1/2+x,1/2-y,1/2+z
loop_
_atom_site_type_symbol
_atom_site_label
_atom_site_fract_x
_atom_site_fract_y
_atom_site_fract_z
Si Si1 0.680377 0.800222 0.695897
Si Si2 0.819534 0.871643 0.441224
Si Si3 0.320304 0.745205 0.396806
Si Si4 0.677580 0.440483 0.696187
Si Si5 0.320005 0.006142 0.609406
Si Si6 0.819654 0.110143 0.449133
O O1 0.726543 0.779669 0.750000
O O2 0.500000 0.789102 0.686323
O O3 0.777002 0.754784 0.659449
O O4 0.717998 0.876658 0.687198
O O5 0.782259 0.798076 0.424565
O O6 0.720755 0.921973 0.409883
O O7 0.770297 0.878119 0.496357
O O8 0.000000 0.886673 0.434262
O O9 0.500000 0.762298 0.403572
O O10 0.277079 0.674396 0.418599
O O11 0.699869 0.468069 0.750000
O O12 0.500000 0.420085 0.686754
O O13 0.728282 0.496556 0.659142
O O14 0.500000 0.002250 0.620621
O O15 0.275848 0.951533 0.570292
O O16 0.000000 0.092845 0.444529
#
# Coordination Sequence:
#
# PCOD8259298 Si02
#       6
#    16  16  16  16  16  16
#     4  10  20  35  58  89 120 152 194 240 288 344
#     4  11  24  41  60  83 120 161 199 244 296 350
#     4  11  22  38  61  89 121 155 197 243 294 351
#     4  10  20  36  60  88 117 151 193 241 292 346
#     4  12  24  38  60  89 121 156 197 244 294 350
#     4  10  22  40  62  87 116 157 201 244 292 347
#
# _framework density 19.645779999999998
#
# number of rings (size 3 to 8) (size 9 to 14) (size 15 to 20)
#    0.000    1.333    1.667    4.500    0.000    6.000 
#    0.000    0.833    0.000    5.000    0.000    0.000 
#    0.000    0.000    0.000    0.000    0.000    0.000 
#
# Total GULP energy -595498.566013 kJ/mol
# GULP energy per Si atom -12406.220125 kJ/mol
# Density = 1.960107 g / cm^3
# Si number density = 19.645780 Si / 1000 Ang^3
#
#
#
# Elastic Constant Matrix: (Units=GPa)
#
#
# Indices 1 2 3 4 5 6 
#
# 1 56.4025 14.1967 28.6053 0.0000 0.0000 0.0000
# 2 14.1967 40.2287 10.6295 0.0000 0.0000 0.0000
# 3 28.6053 10.6295 120.1727 0.0000 0.0000 0.0000
# 4 0.0000 0.0000 0.0000 8.7923 0.0000 0.0000
# 5 0.0000 0.0000 0.0000 0.0000 29.2433 0.0000
# 6 0.0000 0.0000 0.0000 0.0000 0.0000 33.6591
#
#
#
# Elastic Compliance Matrix: (Units=1/GPa)
#
#
# Indices 1 2 3 4 5 6 
#
# 1 0.021678 -0.006437 -0.004591 0.000000 0.000000 0.000000
# 2 -0.006437 0.027364 -0.000888 0.000000 0.000000 0.000000
# 3 -0.004591 -0.000888 0.009493 0.000000 0.000000 0.000000
# 4 0.000000 0.000000 0.000000 0.113735 0.000000 0.000000
# 5 0.000000 0.000000 0.000000 0.000000 0.034196 0.000000
# 6 0.000000 0.000000 0.000000 0.000000 0.000000 0.029710
#
#
# Mechanical properties :
#
#
# Convention : Reuss Voigt Hill
#
# Bulk Modulus (GPa) = 28.81607 35.96298 32.38953
# Shear Modulus (GPa) = 18.41105 25.23044 21.82074
#
# Velocity S-wave (km/s) = 3.06461 3.58756 3.33635
# Velocity P-wave (km/s) = 5.21748 5.95871 5.60037
#
# Compressibility (1/GPa) = 0.03470286
#
# Stress axis : x y z
#
# Youngs Moduli (GPa) = 46.12913 36.54402 105.34431
#
# Poissons Ratio (x) = 0.23524 0.48361
# Poissons Ratio (y) = 0.29695 0.09356
# Poissons Ratio (z) = 0.21177 0.03246
#
# Static dielectric constant tensor:
#      x y z
#    x 3.565300 0.000000 0.000000 
#    y 0.000000 3.316170 0.000000 
#    z 0.000000 0.000000 3.846700 
# 
# 
# High freq. dielectric constant tensor:
#      x y z
#    x 1.773120 0.000000 0.000000 
#    y 0.000000 1.744660 0.000000 
#    z 0.000000 0.000000 1.783720 
# 
# From -- ./inp_files/66868.got.cif
#   From: 2010.03.12/outbox.cif.g09.slc.cpg/sg63_34_cif.got.tgz:66868.got - 2010.04.10 19:34:48.
