data_PCOD8259191
_publ_section_title
;
Structure prediction by ZEFSAII (Michael W. Deem and Ramdas Pophale) SiO2 
 PCOD8259191
Probable space group: C M C M
;
_chemical_formula_sum "Si O2"
_cell_formula_units_Z 80
_cell_length_a 13.077062
_cell_length_b 13.432356
_cell_length_c 23.895573
_cell_angle_alpha 90.000000
_cell_angle_beta 90.000000
_cell_angle_gamma 90.000000
_cell_volume 4197.394850
_symmetry_space_group_name_H-M "C M C M"
_symmetry_group_IT_number 63
_symmetry_cell_setting 'orthorhombic'
loop_
_space_group_symop_operation_xyz
x,y,z
-x,-y,1/2+z
x,-y,-z
-x,y,1/2-z
-x,-y,-z
x,y,1/2-z
-x,y,z
x,-y,1/2+z
1/2+x,1/2+y,z
1/2-x,1/2-y,1/2+z
1/2+x,1/2-y,-z
1/2-x,1/2+y,1/2-z
1/2-x,1/2-y,-z
1/2+x,1/2+y,1/2-z
1/2-x,1/2+y,z
1/2+x,1/2-y,1/2+z
loop_
_atom_site_type_symbol
_atom_site_label
_atom_site_fract_x
_atom_site_fract_y
_atom_site_fract_z
Si Si1 0.378845 0.254913 0.250000
Si Si2 0.117092 0.806684 0.552075
Si Si3 0.116125 0.650697 0.137707
Si Si4 0.378528 0.521952 0.750000
Si Si5 0.804579 0.823585 0.431810
Si Si6 0.194372 0.972206 0.869150
O O1 0.500000 0.261815 0.250000
O O2 0.340911 0.197098 0.304737
O O3 0.333314 0.365997 0.250000
O O4 0.158680 0.851716 0.493829
O O5 0.185910 0.711161 0.568995
O O6 0.124433 0.894011 0.597635
O O7 0.000000 0.771201 0.547486
O O8 0.124094 0.733802 0.089654
O O9 0.186409 0.556228 0.123261
O O10 0.000000 0.612993 0.142561
O O11 0.500000 0.521863 0.750000
O O12 0.337939 0.465588 0.695384
O O13 0.822036 0.917407 0.392128
#
# Coordination Sequence:
#
# PCOD8259191 Si02
#       6
#     8  16  16   8  16  16
#     4   9  17  32  54  76 104 142 180 221 271 321
#     4  10  22  38  57  81 113 148 182 225 275 328
#     4  10  20  35  56  81 109 144 185 228 274 327
#     4  11  21  34  57  84 110 144 183 225 274 325
#     4  10  21  37  56  82 112 144 185 227 274 326
#     4  11  22  36  57  85 111 143 184 229 272 324
#
# _framework density 19.059441
#
# number of rings (size 3 to 8) (size 9 to 14) (size 15 to 20)
#    0.000    1.800    2.000    2.400    0.000    4.000 
#    0.000    0.000    0.000    7.200    0.000    0.000 
#    0.000    0.000    0.000    0.000    0.000    0.000 
#
# Total GULP energy -496120.538699 kJ/mol
# GULP energy per Si atom -12403.013467 kJ/mol
# Density = 1.901606 g / cm^3
# Si number density = 19.059441 Si / 1000 Ang^3
#
#
#
# Elastic Constant Matrix: (Units=GPa)
#
#
# Indices 1 2 3 4 5 6 
#
# 1 102.8382 16.7270 10.7016 0.0000 0.0000 0.0000
# 2 16.7270 45.9104 18.6701 0.0000 0.0000 0.0000
# 3 10.7016 18.6701 110.1992 0.0000 0.0000 0.0000
# 4 0.0000 0.0000 0.0000 17.9469 0.0000 0.0000
# 5 0.0000 0.0000 0.0000 0.0000 24.7629 0.0000
# 6 0.0000 0.0000 0.0000 0.0000 0.0000 12.1242
#
#
#
# Elastic Compliance Matrix: (Units=1/GPa)
#
#
# Indices 1 2 3 4 5 6 
#
# 1 0.010352 -0.003612 -0.000393 0.000000 0.000000 0.000000
# 2 -0.003612 0.024653 -0.003826 0.000000 0.000000 0.000000
# 3 -0.000393 -0.003826 0.009761 0.000000 0.000000 0.000000
# 4 0.000000 0.000000 0.000000 0.055720 0.000000 0.000000
# 5 0.000000 0.000000 0.000000 0.000000 0.040383 0.000000
# 6 0.000000 0.000000 0.000000 0.000000 0.000000 0.082480
#
#
# Mechanical properties :
#
#
# Convention : Reuss Voigt Hill
#
# Bulk Modulus (GPa) = 34.35936 39.01611 36.68773
# Shear Modulus (GPa) = 20.10345 25.15673 22.63009
#
# Velocity S-wave (km/s) = 3.25126 3.63700 3.44952
# Velocity P-wave (km/s) = 5.67105 6.17675 5.92929
#
# Compressibility (1/GPa) = 0.02910415
#
# Stress axis : x y z
#
# Youngs Moduli (GPa) = 96.59575 40.56233 102.44955
#
# Poissons Ratio (x) = 0.14650 0.04031
# Poissons Ratio (y) = 0.34889 0.39198
# Poissons Ratio (z) = 0.03800 0.15519
#
# Static dielectric constant tensor:
#      x y z
#    x 3.344290 0.000000 0.000000 
#    y 0.000000 3.271370 0.000000 
#    z 0.000000 0.000000 3.694000 
# 
# 
# High freq. dielectric constant tensor:
#      x y z
#    x 1.733450 0.000000 0.000000 
#    y 0.000000 1.724690 0.000000 
#    z 0.000000 0.000000 1.758530 
# 
# From -- ./inp_files/62589.got.cif
#   From: 2010.03.12/outbox.cif.g09.slc.cpg/sg63_32_cif.got.tgz:62589.got - 2010.04.10 19:34:48.
