data_PCOD8259096
_publ_section_title
;
Structure prediction by ZEFSAII (Michael W. Deem and Ramdas Pophale) SiO2 
 PCOD8259096
Probable space group: C M C M
;
_chemical_formula_sum "Si O2"
_cell_formula_units_Z 72
_cell_length_a 13.306649
_cell_length_b 12.402667
_cell_length_c 22.088509
_cell_angle_alpha 90.000000
_cell_angle_beta 90.000000
_cell_angle_gamma 90.000000
_cell_volume 3645.441944
_symmetry_space_group_name_H-M "C M C M"
_symmetry_group_IT_number 63
_symmetry_cell_setting 'orthorhombic'
loop_
_space_group_symop_operation_xyz
x,y,z
-x,-y,1/2+z
x,-y,-z
-x,y,1/2-z
-x,-y,-z
x,y,1/2-z
-x,y,z
x,-y,1/2+z
1/2+x,1/2+y,z
1/2-x,1/2-y,1/2+z
1/2+x,1/2-y,-z
1/2-x,1/2+y,1/2-z
1/2-x,1/2-y,-z
1/2+x,1/2+y,1/2-z
1/2-x,1/2+y,z
1/2+x,1/2-y,1/2+z
loop_
_atom_site_type_symbol
_atom_site_label
_atom_site_fract_x
_atom_site_fract_y
_atom_site_fract_z
Si Si1 0.213635 0.135319 0.100012
Si Si2 0.693341 0.000000 0.500000
Si Si3 0.795442 0.053027 0.681217
Si Si4 0.385517 0.137940 0.893825
Si Si5 0.385714 0.222113 0.318483
O O1 0.143224 0.238346 0.092066
O O2 0.319124 0.160544 0.132800
O O3 0.159884 0.045271 0.141791
O O4 0.235232 0.085383 0.034280
O O5 0.624142 0.932678 0.454390
O O6 0.784107 0.014893 0.750000
O O7 0.685369 0.090421 0.658358
O O8 0.873995 0.149709 0.674056
O O9 0.500000 0.133919 0.870919
O O10 0.354302 0.188997 0.250000
O O11 0.500000 0.189972 0.331852
#
# Coordination Sequence:
#
# PCOD8259096 Si02
#       5
#    16   8  16  16  16
#     4  10  20  35  54  76 104 135 171 214 258 304
#     4  10  21  38  53  72 102 138 173 216 261 304
#     4   9  19  35  53  76 107 137 165 205 256 306
#     4  10  21  36  55  78 104 136 174 214 255 303
#     4   9  18  33  53  76 101 133 172 209 250 304
#
# _framework density 19.750691
#
# number of rings (size 3 to 8) (size 9 to 14) (size 15 to 20)
#    0.000    2.444    0.000    1.667    0.000    6.667 
#    0.000    0.556    0.000    0.000    0.000    0.000 
#    0.000    0.000    0.000    0.000    0.000    0.000 
#
# Total GULP energy -446415.736574 kJ/mol
# GULP energy per Si atom -12400.437127 kJ/mol
# Density = 1.970574 g / cm^3
# Si number density = 19.750691 Si / 1000 Ang^3
#
#
#
# Elastic Constant Matrix: (Units=GPa)
#
#
# Indices 1 2 3 4 5 6 
#
# 1 41.2844 -3.3320 7.5683 0.0000 0.0000 0.0000
# 2 -3.3320 79.5851 12.0013 0.0000 0.0000 0.0000
# 3 7.5683 12.0013 74.4816 0.0000 0.0000 0.0000
# 4 0.0000 0.0000 0.0000 25.0009 0.0000 0.0000
# 5 0.0000 0.0000 0.0000 0.0000 17.0811 0.0000
# 6 0.0000 0.0000 0.0000 0.0000 0.0000 13.4632
#
#
#
# Elastic Compliance Matrix: (Units=1/GPa)
#
#
# Indices 1 2 3 4 5 6 
#
# 1 0.024846 0.001456 -0.002759 0.000000 0.000000 0.000000
# 2 0.001456 0.012963 -0.002237 0.000000 0.000000 0.000000
# 3 -0.002759 -0.002237 0.014067 0.000000 0.000000 0.000000
# 4 0.000000 0.000000 0.000000 0.039999 0.000000 0.000000
# 5 0.000000 0.000000 0.000000 0.000000 0.058544 0.000000
# 6 0.000000 0.000000 0.000000 0.000000 0.000000 0.074277
#
#
# Mechanical properties :
#
#
# Convention : Reuss Voigt Hill
#
# Bulk Modulus (GPa) = 22.32321 25.31404 23.81862
# Shear Modulus (GPa) = 20.26697 23.04995 21.65846
#
# Velocity S-wave (km/s) = 3.20682 3.41991 3.31508
# Velocity P-wave (km/s) = 5.00386 5.33282 5.17096
#
# Compressibility (1/GPa) = 0.04479643
#
# Stress axis : x y z
#
# Youngs Moduli (GPa) = 40.24854 77.14002 71.08870
#
# Poissons Ratio (x) = -0.11234 0.19616
# Poissons Ratio (y) = -0.05861 0.15901
# Poissons Ratio (z) = 0.11106 0.17255
#
# Static dielectric constant tensor:
#      x y z
#    x 3.219860 0.000000 0.000000 
#    y 0.000000 3.863940 0.000000 
#    z 0.000000 0.000000 3.604650 
# 
# 
# High freq. dielectric constant tensor:
#      x y z
#    x 1.740690 0.000000 0.000000 
#    y 0.000000 1.790570 0.000000 
#    z 0.000000 0.000000 1.771660 
# 
# From -- ./inp_files/62470.got.cif
#   From: 2010.03.12/outbox.cif.g09.slc.cpg/sg63_32_cif.got.tgz:62470.got - 2010.04.10 19:34:48.
