data_PCOD8259498
_publ_section_title
;
Structure prediction by ZEFSAII (Michael W. Deem and Ramdas Pophale) SiO2 
 PCOD8259498
Probable space group: C M C M
;
_chemical_formula_sum "Si O2"
_cell_formula_units_Z 88
_cell_length_a 23.506842
_cell_length_b 20.074831
_cell_length_c 9.020283
_cell_angle_alpha 90.000000
_cell_angle_beta 90.000000
_cell_angle_gamma 90.000000
_cell_volume 4256.634389
_symmetry_space_group_name_H-M "C M C M"
_symmetry_group_IT_number 63
_symmetry_cell_setting 'orthorhombic'
loop_
_space_group_symop_operation_xyz
x,y,z
-x,-y,1/2+z
x,-y,-z
-x,y,1/2-z
-x,-y,-z
x,y,1/2-z
-x,y,z
x,-y,1/2+z
1/2+x,1/2+y,z
1/2-x,1/2-y,1/2+z
1/2+x,1/2-y,-z
1/2-x,1/2+y,1/2-z
1/2-x,1/2-y,-z
1/2+x,1/2+y,1/2-z
1/2-x,1/2+y,z
1/2+x,1/2-y,1/2+z
loop_
_atom_site_type_symbol
_atom_site_label
_atom_site_fract_x
_atom_site_fract_y
_atom_site_fract_z
Si Si1 0.000000 0.572369 0.925163
Si Si2 0.892411 0.939184 0.410319
Si Si3 0.738700 0.561731 0.914374
Si Si4 0.935349 0.180680 0.083591
Si Si5 0.220254 0.313513 0.573161
Si Si6 0.400973 0.173294 0.575508
O O1 0.056481 0.613705 0.972821
O O2 0.000000 0.562347 0.750000
O O3 0.000000 0.500000 0.000000
O O4 0.922358 0.936521 0.250000
O O5 0.826657 0.955678 0.390001
O O6 0.897523 0.866987 0.483683
O O7 0.921652 0.000000 0.500000
O O8 0.766773 0.572451 0.750000
O O9 0.768838 0.500000 0.000000
O O10 0.742090 0.624940 0.020993
O O11 0.912296 0.173050 0.250000
O O12 0.930870 0.257161 0.033827
O O13 0.000000 0.157104 0.070396
O O14 0.220728 0.305424 0.750000
O O15 0.250000 0.250000 0.500000
O O16 0.156864 0.329099 0.516998
O O17 0.387467 0.168781 0.750000
#
# Coordination Sequence:
#
# PCOD8259498 Si02
#       6
#     8  16  16  16  16  16
#     4  10  22  42  68  96 127 166 213 264 323 386
#     4  10  21  36  56  83 115 152 193 238 289 345
#     4  10  21  39  61  86 118 155 198 245 300 362
#     4  10  20  36  59  83 110 149 195 241 294 351
#     4  12  25  40  61  92 127 165 210 259 317 379
#     4  10  21  41  65  89 122 162 206 257 316 379
#
# _framework density 20.67361
#
# number of rings (size 3 to 8) (size 9 to 14) (size 15 to 20)
#    0.000    1.636    0.909    3.818    0.000    8.000 
#    0.000    1.818    0.000    0.000    0.000    0.000 
#    0.000    0.000    0.000    0.000    0.000    0.000 
#
# Total GULP energy -545467.343644 kJ/mol
# GULP energy per Si atom -12396.985083 kJ/mol
# Density = 2.062656 g / cm^3
# Si number density = 20.673610 Si / 1000 Ang^3
#
#
#
# Elastic Constant Matrix: (Units=GPa)
#
#
# Indices 1 2 3 4 5 6 
#
# 1 66.4711 34.7454 36.7759 0.0000 0.0000 0.0000
# 2 34.7454 176.2546 79.1899 0.0000 0.0000 0.0000
# 3 36.7759 79.1899 138.8502 0.0000 0.0000 0.0000
# 4 0.0000 0.0000 0.0000 40.1741 0.0000 0.0000
# 5 0.0000 0.0000 0.0000 0.0000 25.0313 0.0000
# 6 0.0000 0.0000 0.0000 0.0000 0.0000 29.6799
#
#
#
# Elastic Compliance Matrix: (Units=1/GPa)
#
#
# Indices 1 2 3 4 5 6 
#
# 1 0.018088 -0.001900 -0.003707 0.000000 0.000000 0.000000
# 2 -0.001900 0.007828 -0.003961 0.000000 0.000000 0.000000
# 3 -0.003707 -0.003961 0.010443 0.000000 0.000000 0.000000
# 4 0.000000 0.000000 0.000000 0.024892 0.000000 0.000000
# 5 0.000000 0.000000 0.000000 0.000000 0.039950 0.000000
# 6 0.000000 0.000000 0.000000 0.000000 0.000000 0.033693
#
#
# Mechanical properties :
#
#
# Convention : Reuss Voigt Hill
#
# Bulk Modulus (GPa) = 58.06424 75.88869 66.97646
# Shear Modulus (GPa) = 31.29463 34.36803 32.83133
#
# Velocity S-wave (km/s) = 3.89491 4.08169 3.98939
# Velocity P-wave (km/s) = 6.95516 7.68123 7.32719
#
# Compressibility (1/GPa) = 0.01722231
#
# Stress axis : x y z
#
# Youngs Moduli (GPa) = 55.28395 127.74761 95.75740
#
# Poissons Ratio (x) = 0.24275 0.35499
# Poissons Ratio (y) = 0.10505 0.37931
# Poissons Ratio (z) = 0.20495 0.50603
#
# Static dielectric constant tensor:
#      x y z
#    x 3.767270 0.000000 0.000000 
#    y 0.000000 3.874370 0.000000 
#    z 0.000000 0.000000 3.993780 
# 
# 
# High freq. dielectric constant tensor:
#      x y z
#    x 1.794270 0.000000 0.000000 
#    y 0.000000 1.820950 0.000000 
#    z 0.000000 0.000000 1.812110 
# 
# From -- ./inp_files/10174.got.cif
#   From: 2010.03.12/outbox.cif.g09.slc.cpg/sg63_6_cif.got.tgz:10174.got - 2010.04.10 19:34:48.
