data_PCOD8259138
_publ_section_title
;
Structure prediction by ZEFSAII (Michael W. Deem and Ramdas Pophale) SiO2 
 PCOD8259138
Probable space group: C M C M
;
_chemical_formula_sum "Si O2"
_cell_formula_units_Z 80
_cell_length_a 16.936933
_cell_length_b 28.405524
_cell_length_c 8.588139
_cell_angle_alpha 90.000000
_cell_angle_beta 90.000000
_cell_angle_gamma 90.000000
_cell_volume 4131.774772
_symmetry_space_group_name_H-M "C M C M"
_symmetry_group_IT_number 63
_symmetry_cell_setting 'orthorhombic'
loop_
_space_group_symop_operation_xyz
x,y,z
-x,-y,1/2+z
x,-y,-z
-x,y,1/2-z
-x,-y,-z
x,y,1/2-z
-x,y,z
x,-y,1/2+z
1/2+x,1/2+y,z
1/2-x,1/2-y,1/2+z
1/2+x,1/2-y,-z
1/2-x,1/2+y,1/2-z
1/2-x,1/2-y,-z
1/2+x,1/2+y,1/2-z
1/2-x,1/2+y,z
1/2+x,1/2-y,1/2+z
loop_
_atom_site_type_symbol
_atom_site_label
_atom_site_fract_x
_atom_site_fract_y
_atom_site_fract_z
Si Si1 0.587992 0.314542 0.067114
Si Si2 0.000000 0.671411 0.077410
Si Si3 0.856446 0.281616 0.068518
Si Si4 0.331634 0.951920 0.065890
Si Si5 0.000000 0.562569 0.421279
Si Si6 0.759388 0.139457 0.565512
O O1 0.577506 0.316223 0.250000
O O2 0.500000 0.319408 0.989834
O O3 0.647799 0.356798 0.015066
O O4 0.630954 0.266032 0.025728
O O5 0.000000 0.617110 0.107926
O O6 0.000000 0.696591 0.250000
O O7 0.073001 0.683603 0.969880
O O8 0.853535 0.269360 0.250000
O O9 0.780151 0.311103 0.010296
O O10 0.325411 0.951747 0.250000
O O11 0.282818 0.907123 0.994809
O O12 0.422849 0.951892 0.016523
O O13 0.292560 0.000000 0.000000
O O14 0.000000 0.537973 0.250000
O O15 0.750053 0.136804 0.750000
#
# Coordination Sequence:
#
# PCOD8259138 Si02
#       6
#    16   8  16  16   8  16
#     4  10  20  35  55  79 107 139 178 220 265 316
#     4  11  21  32  50  77 111 146 181 217 254 305
#     4  11  20  33  53  77 109 145 181 215 259 311
#     4  11  22  38  57  78 107 141 179 221 267 319
#     4  11  22  36  55  81 110 142 182 219 261 311
#     4   9  20  36  54  77 106 142 177 217 267 318
#
# _framework density 19.36214
#
# number of rings (size 3 to 8) (size 9 to 14) (size 15 to 20)
#    0.000    1.600    3.000    2.700    0.000    0.800 
#    0.000    3.000    0.000    0.600    0.000    0.000 
#    0.000    0.000    0.000    0.000    0.000    0.200 
#
# Total GULP energy -495600.419739 kJ/mol
# GULP energy per Si atom -12390.010493 kJ/mol
# Density = 1.931807 g / cm^3
# Si number density = 19.362140 Si / 1000 Ang^3
#
#
#
# Elastic Constant Matrix: (Units=GPa)
#
#
# Indices 1 2 3 4 5 6 
#
# 1 142.1460 72.1905 20.3079 0.0000 0.0000 0.0000
# 2 72.1905 101.8937 7.2524 0.0000 0.0000 0.0000
# 3 20.3079 7.2524 30.2423 0.0000 0.0000 0.0000
# 4 0.0000 0.0000 0.0000 24.0291 0.0000 0.0000
# 5 0.0000 0.0000 0.0000 0.0000 17.1341 0.0000
# 6 0.0000 0.0000 0.0000 0.0000 0.0000 -264.7077
#
#
#
# Elastic Compliance Matrix: (Units=1/GPa)
#
#
# Indices 1 2 3 4 5 6 
#
# 1 0.012011 -0.008073 -0.006129 0.000000 0.000000 0.000000
# 2 -0.008073 0.015411 0.001725 0.000000 0.000000 0.000000
# 3 -0.006129 0.001725 0.036768 0.000000 0.000000 0.000000
# 4 0.000000 0.000000 0.000000 0.041616 0.000000 0.000000
# 5 0.000000 0.000000 0.000000 0.000000 0.058363 0.000000
# 6 0.000000 0.000000 0.000000 0.000000 0.000000 -0.003778
#
#
# Mechanical properties :
#
#
# Convention : Reuss Voigt Hill
#
# Bulk Modulus (GPa) = 25.48668 52.64265 39.06466
# Shear Modulus (GPa) = 25.19849 -33.07349 -3.93750
#
# Velocity S-wave (km/s) = 3.61145 -4.13746 -1.42759
# Velocity P-wave (km/s) = 5.53008 2.10301 4.18357
#
# Compressibility (1/GPa) = 0.03923619
#
# Stress axis : x y z
#
# Youngs Moduli (GPa) = 83.25854 64.88817 27.19731
#
# Poissons Ratio (x) = 0.52386 0.16670
# Poissons Ratio (y) = 0.67217 -0.04693
# Poissons Ratio (z) = 0.51032 -0.11196
#
# Static dielectric constant tensor:
#      x y z
#    x 3.939710 0.000000 0.000000 
#    y 0.000000 3.767810 0.000000 
#    z 0.000000 0.000000 3.368000 
# 
# 
# High freq. dielectric constant tensor:
#      x y z
#    x 1.750520 0.000000 0.000000 
#    y 0.000000 1.745780 0.000000 
#    z 0.000000 0.000000 1.736520 
# 
# From -- ./inp_files/6532.got.cif
#   From: 2010.03.12/outbox.cif.g09.slc.cpg/sg63_4_cif.got.tgz:6532.got - 2010.04.10 19:34:48.
