data_PCOD8259406
_publ_section_title
;
Structure prediction by ZEFSAII (Michael W. Deem and Ramdas Pophale) SiO2 
 PCOD8259406
Probable space group: C M C M
;
_chemical_formula_sum "Si O2"
_cell_formula_units_Z 104
_cell_length_a 20.044656
_cell_length_b 18.440218
_cell_length_c 15.164815
_cell_angle_alpha 90.000000
_cell_angle_beta 90.000000
_cell_angle_gamma 90.000000
_cell_volume 5605.337606
_symmetry_space_group_name_H-M "C M C M"
_symmetry_group_IT_number 63
_symmetry_cell_setting 'orthorhombic'
loop_
_space_group_symop_operation_xyz
x,y,z
-x,-y,1/2+z
x,-y,-z
-x,y,1/2-z
-x,-y,-z
x,y,1/2-z
-x,y,z
x,-y,1/2+z
1/2+x,1/2+y,z
1/2-x,1/2-y,1/2+z
1/2+x,1/2-y,-z
1/2-x,1/2+y,1/2-z
1/2-x,1/2-y,-z
1/2+x,1/2+y,1/2-z
1/2-x,1/2+y,z
1/2+x,1/2-y,1/2+z
loop_
_atom_site_type_symbol
_atom_site_label
_atom_site_fract_x
_atom_site_fract_y
_atom_site_fract_z
Si Si1 0.309088 0.684806 0.347267
Si Si2 0.077760 0.857044 0.969362
Si Si3 0.153610 0.000000 0.500000
Si Si4 0.844196 0.655329 0.849519
Si Si5 0.923773 0.696289 0.484396
Si Si6 0.240162 0.481077 0.350391
Si Si7 0.825740 0.625760 0.149088
O O1 0.305318 0.651640 0.250000
O O2 0.379318 0.655405 0.381917
O O3 0.302598 0.770957 0.348327
O O4 0.242703 0.656130 0.395856
O O5 0.087897 0.783323 0.026538
O O6 0.000000 0.867865 0.945459
O O7 0.106679 0.929382 0.015099
O O8 0.198858 0.994904 0.587319
O O9 0.871893 0.638566 0.750000
O O10 0.792242 0.594330 0.881633
O O11 0.903555 0.664940 0.919618
O O12 0.886817 0.654751 0.406842
O O13 0.000000 0.676514 0.472151
O O14 0.267300 0.475670 0.250000
O O15 0.179676 0.538828 0.356238
O O16 0.835607 0.652257 0.250000
#
# Coordination Sequence:
#
# PCOD8259406 Si02
#       7
#    16  16   8  16  16  16  16
#     4   9  18  34  56  82 105 141 189 231 273 318
#     4  10  22  36  53  81 114 148 184 222 268 327
#     4  12  21  34  58  78 115 154 180 220 273 326
#     4   9  19  34  56  82 111 141 180 229 278 323
#     4  10  22  38  56  80 111 146 186 227 274 326
#     4  10  21  36  55  86 115 140 180 230 279 326
#     4  10  20  36  57  80 110 143 186 231 270 322
#
# _framework density 18.553744999999999
#
# number of rings (size 3 to 8) (size 9 to 14) (size 15 to 20)
#    0.000    2.154    1.538    1.154    2.154    2.154 
#    0.000    4.615    0.000    5.077    0.000    0.000 
#    0.000    0.000    0.000    0.000    0.000    0.000 
#
# Total GULP energy -644460.777840 kJ/mol
# GULP energy per Si atom -12393.476497 kJ/mol
# Density = 1.851152 g / cm^3
# Si number density = 18.553745 Si / 1000 Ang^3
#
#
#
# Elastic Constant Matrix: (Units=GPa)
#
#
# Indices 1 2 3 4 5 6 
#
# 1 116.8760 46.4692 52.2723 0.0000 0.0000 0.0000
# 2 46.4692 97.7150 32.7665 0.0000 0.0000 0.0000
# 3 52.2723 32.7665 81.6594 0.0000 0.0000 0.0000
# 4 0.0000 0.0000 0.0000 22.5510 0.0000 0.0000
# 5 0.0000 0.0000 0.0000 0.0000 19.3928 0.0000
# 6 0.0000 0.0000 0.0000 0.0000 0.0000 32.4302
#
#
#
# Elastic Compliance Matrix: (Units=1/GPa)
#
#
# Indices 1 2 3 4 5 6 
#
# 1 0.013205 -0.003981 -0.006855 0.000000 0.000000 0.000000
# 2 -0.003981 0.013025 -0.002678 0.000000 0.000000 0.000000
# 3 -0.006855 -0.002678 0.017709 0.000000 0.000000 0.000000
# 4 0.000000 0.000000 0.000000 0.044344 0.000000 0.000000
# 5 0.000000 0.000000 0.000000 0.000000 0.051566 0.000000
# 6 0.000000 0.000000 0.000000 0.000000 0.000000 0.030835
#
#
# Mechanical properties :
#
#
# Convention : Reuss Voigt Hill
#
# Bulk Modulus (GPa) = 59.13668 62.14072 60.63870
# Shear Modulus (GPa) = 24.58821 25.85763 25.22292
#
# Velocity S-wave (km/s) = 3.64434 3.73723 3.69107
# Velocity P-wave (km/s) = 7.04632 7.22409 7.13576
#
# Compressibility (1/GPa) = 0.01690998
#
# Stress axis : x y z
#
# Youngs Moduli (GPa) = 75.72932 76.77525 56.46863
#
# Poissons Ratio (x) = 0.30563 0.38712
# Poissons Ratio (y) = 0.30147 0.15123
# Poissons Ratio (z) = 0.51916 0.20561
#
# Static dielectric constant tensor:
#      x y z
#    x 3.285070 0.000000 0.000000 
#    y 0.000000 3.671340 0.000000 
#    z 0.000000 0.000000 3.351270 
# 
# 
# High freq. dielectric constant tensor:
#      x y z
#    x 1.702520 0.000000 0.000000 
#    y 0.000000 1.737840 0.000000 
#    z 0.000000 0.000000 1.709110 
# 
# From -- ./inp_files/35641.got.cif
#   From: 2010.03.12/outbox.cif.g09.slc.cpg/sg63_18_cif.got.tgz:35641.got - 2010.04.10 19:34:48.
