data_PCOD8259490
_publ_section_title
;
Structure prediction by ZEFSAII (Michael W. Deem and Ramdas Pophale) SiO2 
 PCOD8259490
Probable space group: C M C M
;
_chemical_formula_sum "Si O2"
_cell_formula_units_Z 96
_cell_length_a 17.814829
_cell_length_b 14.832339
_cell_length_c 19.064790
_cell_angle_alpha 90.000000
_cell_angle_beta 90.000000
_cell_angle_gamma 90.000000
_cell_volume 5037.595900
_symmetry_space_group_name_H-M "C M C M"
_symmetry_group_IT_number 63
_symmetry_cell_setting 'orthorhombic'
loop_
_space_group_symop_operation_xyz
x,y,z
-x,-y,1/2+z
x,-y,-z
-x,y,1/2-z
-x,-y,-z
x,y,1/2-z
-x,y,z
x,-y,1/2+z
1/2+x,1/2+y,z
1/2-x,1/2-y,1/2+z
1/2+x,1/2-y,-z
1/2-x,1/2+y,1/2-z
1/2-x,1/2-y,-z
1/2+x,1/2+y,1/2-z
1/2-x,1/2+y,z
1/2+x,1/2-y,1/2+z
loop_
_atom_site_type_symbol
_atom_site_label
_atom_site_fract_x
_atom_site_fract_y
_atom_site_fract_z
Si Si1 0.912702 0.465273 0.924263
Si Si2 0.673369 0.722649 0.086353
Si Si3 0.322355 0.099146 0.668300
Si Si4 0.848040 0.272040 0.569685
Si Si5 0.350736 0.612774 0.669857
Si Si6 0.086181 0.922687 0.670180
O O1 0.866666 0.515759 0.864252
O O2 0.898443 0.359267 0.917254
O O3 0.000000 0.486336 0.913397
O O4 0.884709 0.500000 0.000000
O O5 0.650633 0.807811 0.133608
O O6 0.761867 0.704698 0.085462
O O7 0.636360 0.633828 0.117452
O O8 0.640967 0.737712 0.009151
O O9 0.341363 0.103570 0.750000
O O10 0.234615 0.084225 0.653320
O O11 0.877738 0.194667 0.621426
O O12 0.358673 0.645013 0.750000
O O13 0.403360 0.528025 0.653147
O O14 0.112145 0.903332 0.750000
O O15 0.000000 0.896308 0.659187
#
# Coordination Sequence:
#
# PCOD8259490 Si02
#       6
#    16  16  16  16  16  16
#     4  11  23  38  55  81 120 156 187 233 291 345
#     4  10  20  36  58  87 112 144 195 240 284 344
#     4  10  20  37  61  84 110 148 195 239 280 335
#     4  10  21  37  59  83 111 152 191 239 291 336
#     4   9  20  38  59  85 113 146 192 240 283 335
#     4  10  21  37  57  83 118 154 185 230 290 344
#
# _framework density 19.056709000000001
#
# number of rings (size 3 to 8) (size 9 to 14) (size 15 to 20)
#    0.000    2.000    1.667    1.500    0.000    4.333 
#    0.000    0.833    0.000    0.000    0.000    0.000 
#    0.000    0.000    0.000    0.000    0.000    0.000 
#
# Total GULP energy -595480.749070 kJ/mol
# GULP energy per Si atom -12405.848939 kJ/mol
# Density = 1.901334 g / cm^3
# Si number density = 19.056709 Si / 1000 Ang^3
#
#
#
# Elastic Constant Matrix: (Units=GPa)
#
#
# Indices 1 2 3 4 5 6 
#
# 1 40.6944 28.9721 36.9482 0.0000 0.0000 0.0000
# 2 28.9721 106.0755 68.0123 0.0000 0.0000 0.0000
# 3 36.9482 68.0123 127.7476 0.0000 0.0000 0.0000
# 4 0.0000 0.0000 0.0000 40.4976 0.0000 0.0000
# 5 0.0000 0.0000 0.0000 0.0000 14.8379 0.0000
# 6 0.0000 0.0000 0.0000 0.0000 0.0000 14.8511
#
#
#
# Elastic Compliance Matrix: (Units=1/GPa)
#
#
# Indices 1 2 3 4 5 6 
#
# 1 0.034759 -0.004627 -0.007590 0.000000 0.000000 0.000000
# 2 -0.004627 0.014929 -0.006610 0.000000 0.000000 0.000000
# 3 -0.007590 -0.006610 0.013542 0.000000 0.000000 0.000000
# 4 0.000000 0.000000 0.000000 0.024693 0.000000 0.000000
# 5 0.000000 0.000000 0.000000 0.000000 0.067395 0.000000
# 6 0.000000 0.000000 0.000000 0.000000 0.000000 0.067335
#
#
# Mechanical properties :
#
#
# Convention : Reuss Voigt Hill
#
# Bulk Modulus (GPa) = 39.09857 60.26476 49.68167
# Shear Modulus (GPa) = 18.59897 23.40964 21.00431
#
# Velocity S-wave (km/s) = 3.12746 3.50868 3.32354
# Velocity P-wave (km/s) = 5.79679 6.93592 6.39179
#
# Compressibility (1/GPa) = 0.02557638
#
# Stress axis : x y z
#
# Youngs Moduli (GPa) = 28.76973 66.98312 73.84351
#
# Poissons Ratio (x) = 0.30995 0.56045
# Poissons Ratio (y) = 0.13313 0.48810
# Poissons Ratio (z) = 0.21835 0.44275
#
# Static dielectric constant tensor:
#      x y z
#    x 3.323780 0.000000 0.000000 
#    y 0.000000 3.427540 0.000000 
#    z 0.000000 0.000000 3.585470 
# 
# 
# High freq. dielectric constant tensor:
#      x y z
#    x 1.730500 0.000000 0.000000 
#    y 0.000000 1.746120 0.000000 
#    z 0.000000 0.000000 1.748330 
# 
# From -- ./inp_files/35335.got.cif
#   From: 2010.03.12/outbox.cif.g09.slc.cpg/sg63_18_cif.got.tgz:35335.got - 2010.04.10 19:34:48.
