data_PCOD8259332
_publ_section_title
;
Structure prediction by ZEFSAII (Michael W. Deem and Ramdas Pophale) SiO2 
 PCOD8259332
Probable space group: C M C M
;
_chemical_formula_sum "Si O2"
_cell_formula_units_Z 96
_cell_length_a 19.978537
_cell_length_b 13.846609
_cell_length_c 18.128103
_cell_angle_alpha 90.000000
_cell_angle_beta 90.000000
_cell_angle_gamma 90.000000
_cell_volume 5014.867596
_symmetry_space_group_name_H-M "C M C M"
_symmetry_group_IT_number 63
_symmetry_cell_setting 'orthorhombic'
loop_
_space_group_symop_operation_xyz
x,y,z
-x,-y,1/2+z
x,-y,-z
-x,y,1/2-z
-x,-y,-z
x,y,1/2-z
-x,y,z
x,-y,1/2+z
1/2+x,1/2+y,z
1/2-x,1/2-y,1/2+z
1/2+x,1/2-y,-z
1/2-x,1/2+y,1/2-z
1/2-x,1/2-y,-z
1/2+x,1/2+y,1/2-z
1/2-x,1/2+y,z
1/2+x,1/2-y,1/2+z
loop_
_atom_site_type_symbol
_atom_site_label
_atom_site_fract_x
_atom_site_fract_y
_atom_site_fract_z
Si Si1 0.076014 0.250000 0.037157
Si Si2 0.312617 0.569345 0.832879
Si Si3 0.077073 0.038809 0.419687
Si Si4 0.696577 0.750000 0.934486
Si Si5 0.812617 0.430655 0.832879
Si Si6 0.422927 0.038810 0.919687
O O1 0.089685 0.154293 0.085652
O O2 0.089686 0.345707 0.085652
O O3 0.000000 0.250000 0.007351
O O4 0.121379 0.250000 0.964792
O O5 0.326074 0.606604 0.750000
O O6 0.378819 0.513227 0.858518
O O7 0.292871 0.656875 0.885026
O O8 0.250000 0.500000 0.835584
O O9 0.000000 0.013174 0.403665
O O10 0.098578 0.000000 0.500000
O O11 0.707129 0.843125 0.885026
O O12 0.750000 0.750000 0.000000
O O13 0.826074 0.393395 0.750000
O O14 0.878819 0.486773 0.858519
O O15 0.500000 0.013175 0.903664
O O16 0.401422 0.000000 0.000000
#
# Coordination Sequence:
#
# PCOD8259332 Si02
#       6
#    16  16  16  16  16  16
#     4  10  20  35  59  93 119 146 202 253 286 341
#     4  11  25  41  58  87 124 159 197 249 307 363
#     4  10  20  37  62  89 119 156 201 247 295 358
#     4  12  23  37  64  90 114 159 203 247 299 363
#     4  11  25  41  58  87 124 159 197 249 307 363
#     4  10  20  37  62  89 119 156 201 247 295 358
#
# _framework density 19.143077000000002
#
# number of rings (size 3 to 8) (size 9 to 14) (size 15 to 20)
#    0.000    1.333    3.333    2.500    0.000    0.667 
#    0.000    2.500    0.000    6.000    0.000    0.000 
#    0.000    0.000    0.000    0.000    0.000    0.000 
#
# Total GULP energy -595365.458946 kJ/mol
# GULP energy per Si atom -12403.447061 kJ/mol
# Density = 1.909951 g / cm^3
# Si number density = 19.143077 Si / 1000 Ang^3
#
#
#
# Elastic Constant Matrix: (Units=GPa)
#
#
# Indices 1 2 3 4 5 6 
#
# 1 95.2472 38.8079 67.9616 0.0000 0.0000 0.0000
# 2 38.8079 131.6336 66.3630 0.0000 0.0000 0.0000
# 3 67.9616 66.3630 140.7461 0.0000 0.0000 0.0000
# 4 0.0000 0.0000 0.0000 9.3661 0.0000 0.0000
# 5 0.0000 0.0000 0.0000 0.0000 29.6042 0.0000
# 6 0.0000 0.0000 0.0000 0.0000 0.0000 25.9127
#
#
#
# Elastic Compliance Matrix: (Units=1/GPa)
#
#
# Indices 1 2 3 4 5 6 
#
# 1 0.016136 -0.001088 -0.007279 0.000000 0.000000 0.000000
# 2 -0.001088 0.010039 -0.004208 0.000000 0.000000 0.000000
# 3 -0.007279 -0.004208 0.012604 0.000000 0.000000 0.000000
# 4 0.000000 0.000000 0.000000 0.106768 0.000000 0.000000
# 5 0.000000 0.000000 0.000000 0.000000 0.033779 0.000000
# 6 0.000000 0.000000 0.000000 0.000000 0.000000 0.038591
#
#
# Mechanical properties :
#
#
# Convention : Reuss Voigt Hill
#
# Bulk Modulus (GPa) = 73.36994 79.32133 76.34563
# Shear Modulus (GPa) = 20.19316 25.94289 23.06803
#
# Velocity S-wave (km/s) = 3.25138 3.68531 3.47512
# Velocity P-wave (km/s) = 7.24607 7.72235 7.48800
#
# Compressibility (1/GPa) = 0.01362956
#
# Stress axis : x y z
#
# Youngs Moduli (GPa) = 61.97484 99.61016 79.34085
#
# Poissons Ratio (x) = 0.10833 0.57749
# Poissons Ratio (y) = 0.06740 0.33390
# Poissons Ratio (z) = 0.45109 0.41920
#
# Static dielectric constant tensor:
#      x y z
#    x 3.600210 0.000000 0.000000 
#    y 0.000000 3.789430 0.000000 
#    z 0.000000 0.000000 3.455250 
# 
# 
# High freq. dielectric constant tensor:
#      x y z
#    x 1.757960 0.000000 0.000000 
#    y 0.000000 1.763230 0.000000 
#    z 0.000000 0.000000 1.723630 
# 
# From -- ./inp_files/35366.got.cif
#   From: 2010.03.12/outbox.cif.g09.slc.cpg/sg63_18_cif.got.tgz:35366.got - 2010.04.10 19:34:48.
