data_PCOD8259407
_publ_section_title
;
Structure prediction by ZEFSAII (Michael W. Deem and Ramdas Pophale) SiO2 
 PCOD8259407
Probable space group: C M C M
;
_chemical_formula_sum "Si O2"
_cell_formula_units_Z 96
_cell_length_a 8.983524
_cell_length_b 19.929577
_cell_length_c 28.348990
_cell_angle_alpha 90.000000
_cell_angle_beta 90.000000
_cell_angle_gamma 90.000000
_cell_volume 5075.541746
_symmetry_space_group_name_H-M "C M C M"
_symmetry_group_IT_number 63
_symmetry_cell_setting 'orthorhombic'
loop_
_space_group_symop_operation_xyz
x,y,z
-x,-y,1/2+z
x,-y,-z
-x,y,1/2-z
-x,-y,-z
x,y,1/2-z
-x,y,z
x,-y,1/2+z
1/2+x,1/2+y,z
1/2-x,1/2-y,1/2+z
1/2+x,1/2-y,-z
1/2-x,1/2+y,1/2-z
1/2-x,1/2-y,-z
1/2+x,1/2+y,1/2-z
1/2-x,1/2+y,z
1/2+x,1/2-y,1/2+z
loop_
_atom_site_type_symbol
_atom_site_label
_atom_site_fract_x
_atom_site_fract_y
_atom_site_fract_z
Si Si1 0.174027 0.493751 0.804617
Si Si2 0.676430 0.431610 0.520809
Si Si3 0.823076 0.107871 0.375385
Si Si4 0.174090 0.197414 0.533026
Si Si5 0.165894 0.645705 0.694448
Si Si6 0.325538 0.749843 0.866465
O O1 0.214397 0.480392 0.750000
O O2 0.271861 0.445288 0.836644
O O3 0.214945 0.570073 0.819031
O O4 0.000000 0.479923 0.813211
O O5 0.745851 0.500000 0.500000
O O6 0.500000 0.437487 0.524147
O O7 0.737909 0.414570 0.573080
O O8 0.727166 0.375853 0.483185
O O9 0.759211 0.180205 0.361922
O O10 0.000000 0.112491 0.375062
O O11 0.250000 0.250000 0.500000
O O12 0.222943 0.210775 0.586350
O O13 0.000000 0.205656 0.526125
O O14 0.163965 0.652762 0.750000
O O15 0.281584 0.700147 0.675474
O O16 0.000000 0.660011 0.674478
O O17 0.500000 0.764851 0.864455
#
# Coordination Sequence:
#
# PCOD8259407 Si02
#       6
#    16  16  16  16  16  16
#     4   9  20  40  62  83 113 149 182 229 290 341
#     4   9  19  35  55  80 112 147 183 228 279 329
#     4  11  22  36  59  85 114 152 192 233 279 335
#     4  10  20  36  57  80 112 150 186 226 277 334
#     4   9  20  40  63  85 112 148 188 231 284 345
#     4  11  23  36  57  86 117 151 190 237 283 331
#
# _framework density 18.914235999999999
#
# number of rings (size 3 to 8) (size 9 to 14) (size 15 to 20)
#    0.000    2.167    1.667    2.000    2.333    2.667 
#    0.000    1.667    0.000    2.500    0.000    0.000 
#    0.000    0.000    0.000    0.000    0.000    0.000 
#
# Total GULP energy -595202.976489 kJ/mol
# GULP energy per Si atom -12400.062010 kJ/mol
# Density = 1.887119 g / cm^3
# Si number density = 18.914236 Si / 1000 Ang^3
#
#
#
# Elastic Constant Matrix: (Units=GPa)
#
#
# Indices 1 2 3 4 5 6 
#
# 1 53.3119 46.3187 33.2318 0.0000 0.0000 0.0000
# 2 46.3187 161.1745 64.5056 0.0000 0.0000 0.0000
# 3 33.2318 64.5056 74.7679 0.0000 0.0000 0.0000
# 4 0.0000 0.0000 0.0000 40.7508 0.0000 0.0000
# 5 0.0000 0.0000 0.0000 0.0000 25.9979 0.0000
# 6 0.0000 0.0000 0.0000 0.0000 0.0000 28.7742
#
#
#
# Elastic Compliance Matrix: (Units=1/GPa)
#
#
# Indices 1 2 3 4 5 6 
#
# 1 0.028098 -0.004699 -0.008434 0.000000 0.000000 0.000000
# 2 -0.004699 0.010263 -0.006765 0.000000 0.000000 0.000000
# 3 -0.008434 -0.006765 0.022960 0.000000 0.000000 0.000000
# 4 0.000000 0.000000 0.000000 0.024539 0.000000 0.000000
# 5 0.000000 0.000000 0.000000 0.000000 0.038465 0.000000
# 6 0.000000 0.000000 0.000000 0.000000 0.000000 0.034753
#
#
# Mechanical properties :
#
#
# Convention : Reuss Voigt Hill
#
# Bulk Modulus (GPa) = 46.46206 64.15181 55.30694
# Shear Modulus (GPa) = 24.26595 28.78447 26.52521
#
# Velocity S-wave (km/s) = 3.58571 3.90531 3.74892
# Velocity P-wave (km/s) = 6.46228 7.37062 6.93135
#
# Compressibility (1/GPa) = 0.02152294
#
# Stress axis : x y z
#
# Youngs Moduli (GPa) = 35.58991 97.44149 43.55353
#
# Poissons Ratio (x) = 0.45790 0.36734
# Poissons Ratio (y) = 0.16725 0.29465
# Poissons Ratio (z) = 0.30018 0.65922
#
# Static dielectric constant tensor:
#      x y z
#    x 3.178560 0.000000 0.000000 
#    y 0.000000 3.624820 0.000000 
#    z 0.000000 0.000000 3.515990 
# 
# 
# High freq. dielectric constant tensor:
#      x y z
#    x 1.717740 0.000000 0.000000 
#    y 0.000000 1.748430 0.000000 
#    z 0.000000 0.000000 1.739730 
# 
# From -- ./inp_files/66961.got.cif
#   From: 2010.03.12/outbox.cif.g09.slc.cpg/sg63_34_cif.got.tgz:66961.got - 2010.04.10 19:34:48.
