data_PCOD8259434
_publ_section_title
;
Structure prediction by ZEFSAII (Michael W. Deem and Ramdas Pophale) SiO2 
 PCOD8259434
Probable space group: C M C M
;
_chemical_formula_sum "Si O2"
_cell_formula_units_Z 96
_cell_length_a 16.346877
_cell_length_b 11.220427
_cell_length_c 25.803020
_cell_angle_alpha 90.000000
_cell_angle_beta 90.000000
_cell_angle_gamma 90.000000
_cell_volume 4732.762579
_symmetry_space_group_name_H-M "C M C M"
_symmetry_group_IT_number 63
_symmetry_cell_setting 'orthorhombic'
loop_
_space_group_symop_operation_xyz
x,y,z
-x,-y,1/2+z
x,-y,-z
-x,y,1/2-z
-x,-y,-z
x,y,1/2-z
-x,y,z
x,-y,1/2+z
1/2+x,1/2+y,z
1/2-x,1/2-y,1/2+z
1/2+x,1/2-y,-z
1/2-x,1/2+y,1/2-z
1/2-x,1/2-y,-z
1/2+x,1/2+y,1/2-z
1/2-x,1/2+y,z
1/2+x,1/2-y,1/2+z
loop_
_atom_site_type_symbol
_atom_site_label
_atom_site_fract_x
_atom_site_fract_y
_atom_site_fract_z
Si Si1 0.410516 0.533906 0.306901
Si Si2 0.347936 0.723213 0.379957
Si Si3 0.591644 0.031853 0.599663
Si Si4 0.093562 0.368790 0.808602
Si Si5 0.736264 0.517870 0.440718
Si Si6 0.807874 0.159801 0.646280
O O1 0.402341 0.588552 0.250000
O O2 0.500000 0.472544 0.314563
O O3 0.406833 0.642193 0.346360
O O4 0.336821 0.440286 0.313222
O O5 0.403183 0.825006 0.406069
O O6 0.300799 0.644120 0.422711
O O7 0.282222 0.789132 0.342374
O O8 0.500000 0.992348 0.580707
O O9 0.664950 0.974966 0.565835
O O10 0.604323 0.993025 0.660174
O O11 0.132985 0.375074 0.750000
O O12 0.130861 0.270016 0.847349
O O13 0.000000 0.334883 0.801415
O O14 0.712696 0.500000 0.500000
O O15 0.695788 0.405727 0.409978
#
# Coordination Sequence:
#
# PCOD8259434 Si02
#       6
#    16  16  16  16  16  16
#     4  10  21  36  56  82 115 156 194 233 286 345
#     4  10  21  39  57  85 117 152 192 242 292 344
#     4  10  21  38  60  87 120 153 195 242 289 352
#     4  10  20  36  59  87 123 162 193 232 291 353
#     4  10  22  41  65  83 114 155 199 246 304 350
#     4  10  20  36  57  86 114 149 194 242 286 342
#
# _framework density 20.284137000000001
#
# number of rings (size 3 to 8) (size 9 to 14) (size 15 to 20)
#    0.000    2.000    1.667    1.500    0.000    6.333 
#    0.000    4.167    0.000   17.000    0.000    0.000 
#    0.000    0.000    0.000    0.000    0.000    0.000 
#
# Total GULP energy -594639.067897 kJ/mol
# GULP energy per Si atom -12388.313915 kJ/mol
# Density = 2.023797 g / cm^3
# Si number density = 20.284137 Si / 1000 Ang^3
#
#
#
# Elastic Constant Matrix: (Units=GPa)
#
#
# Indices 1 2 3 4 5 6 
#
# 1 76.5176 26.5156 46.0942 0.0000 0.0000 0.0000
# 2 26.5156 93.0845 33.1348 0.0000 0.0000 0.0000
# 3 46.0942 33.1348 96.9273 0.0000 0.0000 0.0000
# 4 0.0000 0.0000 0.0000 14.3290 0.0000 0.0000
# 5 0.0000 0.0000 0.0000 0.0000 21.6160 0.0000
# 6 0.0000 0.0000 0.0000 0.0000 0.0000 33.8761
#
#
#
# Elastic Compliance Matrix: (Units=1/GPa)
#
#
# Indices 1 2 3 4 5 6 
#
# 1 0.018804 -0.002474 -0.008096 0.000000 0.000000 0.000000
# 2 -0.002474 0.012557 -0.003116 0.000000 0.000000 0.000000
# 3 -0.008096 -0.003116 0.015232 0.000000 0.000000 0.000000
# 4 0.000000 0.000000 0.000000 0.069789 0.000000 0.000000
# 5 0.000000 0.000000 0.000000 0.000000 0.046262 0.000000
# 6 0.000000 0.000000 0.000000 0.000000 0.000000 0.029519
#
#
# Mechanical properties :
#
#
# Convention : Reuss Voigt Hill
#
# Bulk Modulus (GPa) = 52.02955 53.11317 52.57136
# Shear Modulus (GPa) = 22.12954 24.68319 23.40636
#
# Velocity S-wave (km/s) = 3.30658 3.49215 3.40063
# Velocity P-wave (km/s) = 6.34697 6.51933 6.43372
#
# Compressibility (1/GPa) = 0.01921985
#
# Stress axis : x y z
#
# Youngs Moduli (GPa) = 53.18157 79.63742 65.64948
#
# Poissons Ratio (x) = 0.19705 0.53151
# Poissons Ratio (y) = 0.13159 0.20456
# Poissons Ratio (z) = 0.43057 0.24814
#
# Static dielectric constant tensor:
#      x y z
#    x 3.858500 0.000000 0.000000 
#    y 0.000000 3.857660 0.000000 
#    z 0.000000 0.000000 3.420780 
# 
# 
# High freq. dielectric constant tensor:
#      x y z
#    x 1.797140 0.000000 0.000000 
#    y 0.000000 1.798650 0.000000 
#    z 0.000000 0.000000 1.759920 
# 
# From -- ./inp_files/69858.got.cif
#   From: 2010.03.12/outbox.cif.g09.slc.cpg/sg63_35_cif.got.tgz:69858.got - 2010.04.10 19:34:48.
