data_PCOD8259257
_publ_section_title
;
Structure prediction by ZEFSAII (Michael W. Deem and Ramdas Pophale) SiO2 
 PCOD8259257
Probable space group: C M C M
;
_chemical_formula_sum "Si O2"
_cell_formula_units_Z 64
_cell_length_a 8.672168
_cell_length_b 19.906218
_cell_length_c 19.752359
_cell_angle_alpha 90.000000
_cell_angle_beta 90.000000
_cell_angle_gamma 90.000000
_cell_volume 3409.851052
_symmetry_space_group_name_H-M "C M C M"
_symmetry_group_IT_number 63
_symmetry_cell_setting 'orthorhombic'
loop_
_space_group_symop_operation_xyz
x,y,z
-x,-y,1/2+z
x,-y,-z
-x,y,1/2-z
-x,-y,-z
x,y,1/2-z
-x,y,z
x,-y,1/2+z
1/2+x,1/2+y,z
1/2-x,1/2-y,1/2+z
1/2+x,1/2-y,-z
1/2-x,1/2+y,1/2-z
1/2-x,1/2-y,-z
1/2+x,1/2+y,1/2-z
1/2-x,1/2+y,z
1/2+x,1/2-y,1/2+z
loop_
_atom_site_type_symbol
_atom_site_label
_atom_site_fract_x
_atom_site_fract_y
_atom_site_fract_z
Si Si1 0.180674 0.952005 0.590521
Si Si2 0.821601 0.266729 0.071950
Si Si3 0.821493 0.663030 0.171803
Si Si4 0.822428 0.416527 0.049271
O O1 0.230270 0.904156 0.651729
O O2 0.225510 0.916548 0.520052
O O3 0.000000 0.964457 0.592760
O O4 0.264257 0.024081 0.598320
O O5 0.735294 0.227584 0.130940
O O6 0.800100 0.345828 0.087100
O O7 0.000000 0.245423 0.071524
O O8 0.750000 0.250000 0.000000
O O9 0.790219 0.678030 0.250000
O O10 0.000000 0.650979 0.155751
O O11 0.000000 0.428294 0.029849
#
# Coordination Sequence:
#
# PCOD8259257 Si02
#       4
#    16  16  16  16
#     4  11  21  34  57  86 115 149 191 242 290 344
#     4  11  22  36  60  89 119 154 194 243 293 350
#     4  11  24  41  60  83 117 159 199 243 298 357
#     4  10  20  35  57  85 118 151 188 237 290 345
#
# _framework density 18.769148000000001
#
# number of rings (size 3 to 8) (size 9 to 14) (size 15 to 20)
#    0.000    1.250    2.500    6.000    0.000    5.000 
#    0.000    1.250    0.000    1.500    0.000    0.000 
#    0.000    0.000    0.000    0.000    0.000    0.000 
#
# Total GULP energy -396934.407388 kJ/mol
# GULP energy per Si atom -12404.200231 kJ/mol
# Density = 1.872643 g / cm^3
# Si number density = 18.769148 Si / 1000 Ang^3
#
#
#
# Elastic Constant Matrix: (Units=GPa)
#
#
# Indices 1 2 3 4 5 6 
#
# 1 93.8258 40.7900 39.2881 0.0000 0.0000 0.0000
# 2 40.7900 125.8291 53.3954 0.0000 0.0000 0.0000
# 3 39.2881 53.3954 89.7822 0.0000 0.0000 0.0000
# 4 0.0000 0.0000 0.0000 30.2010 0.0000 0.0000
# 5 0.0000 0.0000 0.0000 0.0000 26.2255 0.0000
# 6 0.0000 0.0000 0.0000 0.0000 0.0000 35.7157
#
#
#
# Elastic Compliance Matrix: (Units=1/GPa)
#
#
# Indices 1 2 3 4 5 6 
#
# 1 0.013623 -0.002523 -0.004461 0.000000 0.000000 0.000000
# 2 -0.002523 0.011097 -0.005496 0.000000 0.000000 0.000000
# 3 -0.004461 -0.005496 0.016358 0.000000 0.000000 0.000000
# 4 0.000000 0.000000 0.000000 0.033112 0.000000 0.000000
# 5 0.000000 0.000000 0.000000 0.000000 0.038131 0.000000
# 6 0.000000 0.000000 0.000000 0.000000 0.000000 0.027999
#
#
# Mechanical properties :
#
#
# Convention : Reuss Voigt Hill
#
# Bulk Modulus (GPa) = 62.03677 64.04266 63.03972
# Shear Modulus (GPa) = 29.29937 30.15933 29.72935
#
# Velocity S-wave (km/s) = 3.95529 4.01291 3.98420
# Velocity P-wave (km/s) = 7.34733 7.46100 7.40439
#
# Compressibility (1/GPa) = 0.01611947
#
# Stress axis : x y z
#
# Youngs Moduli (GPa) = 73.40614 90.11189 61.13073
#
# Poissons Ratio (x) = 0.22737 0.27268
# Poissons Ratio (y) = 0.18522 0.33595
# Poissons Ratio (z) = 0.32744 0.49522
#
# Static dielectric constant tensor:
#      x y z
#    x 3.668090 0.000000 0.000000 
#    y 0.000000 3.845890 0.000000 
#    z 0.000000 0.000000 3.097290 
# 
# 
# High freq. dielectric constant tensor:
#      x y z
#    x 1.750330 0.000000 0.000000 
#    y 0.000000 1.747130 0.000000 
#    z 0.000000 0.000000 1.692940 
# 
# From -- ./inp_files/39847.got.cif
#   From: 2010.03.12/outbox.cif.g09.slc.cpg/sg63_20_cif.got.tgz:39847.got - 2010.04.10 19:34:48.
