data_PCOD8259930
_publ_section_title
;
Structure prediction by ZEFSAII (Michael W. Deem and Ramdas Pophale) SiO2 
 PCOD8259930
Probable space group: C M C M
;
_chemical_formula_sum "Si O2"
_cell_formula_units_Z 80
_cell_length_a 12.083496
_cell_length_b 13.829379
_cell_length_c 26.919988
_cell_angle_alpha 90.000000
_cell_angle_beta 90.000000
_cell_angle_gamma 90.000000
_cell_volume 4498.525052
_symmetry_space_group_name_H-M "C M C M"
_symmetry_group_IT_number 63
_symmetry_cell_setting 'orthorhombic'
loop_
_space_group_symop_operation_xyz
x,y,z
-x,-y,1/2+z
x,-y,-z
-x,y,1/2-z
-x,-y,-z
x,y,1/2-z
-x,y,z
x,-y,1/2+z
1/2+x,1/2+y,z
1/2-x,1/2-y,1/2+z
1/2+x,1/2-y,-z
1/2-x,1/2+y,1/2-z
1/2-x,1/2-y,-z
1/2+x,1/2+y,1/2-z
1/2-x,1/2+y,z
1/2+x,1/2-y,1/2+z
loop_
_atom_site_type_symbol
_atom_site_label
_atom_site_fract_x
_atom_site_fract_y
_atom_site_fract_z
Si Si1 0.000000 0.900711 0.196714
Si Si2 0.500000 0.817147 0.804688
Si Si3 0.718261 0.138248 0.136310
Si Si4 0.771376 0.958579 0.191767
Si Si5 0.128034 0.502344 0.943525
Si Si6 0.129058 0.325698 0.126453
O O1 0.112343 0.924465 0.166985
O O2 0.000000 0.958173 0.250000
O O3 0.000000 0.791119 0.211594
O O4 0.500000 0.873763 0.750000
O O5 0.602645 0.833361 0.840356
O O6 0.701344 0.075315 0.086467
O O7 0.797931 0.228490 0.124285
O O8 0.769667 0.071542 0.179214
O O9 0.769138 0.939943 0.250000
O O10 0.669139 0.896913 0.170330
O O11 0.144410 0.612267 0.923966
O O12 0.000000 0.471542 0.939101
O O13 0.169651 0.500000 0.000000
O O14 0.000000 0.299024 0.135231
#
# Coordination Sequence:
#
# PCOD8259930 Si02
#       6
#     8   8  16  16  16  16
#     4   9  18  34  52  72 104 144 183 221 263 308
#     4  11  20  34  55  80 108 144 193 225 253 312
#     4  11  21  35  57  82 108 146 182 226 275 321
#     4  10  21  35  52  77 110 148 184 221 266 319
#     4   9  19  38  60  82 107 137 180 230 282 336
#     4  10  22  37  54  81 112 144 182 228 276 327
#
# _framework density 17.783607
#
# number of rings (size 3 to 8) (size 9 to 14) (size 15 to 20)
#    0.000    2.000    3.000    0.600    2.800    2.000 
#    0.000    0.000    0.000    0.600    0.000    0.000 
#    0.000    0.000    0.000    0.000    0.000    0.000 
#
# Total GULP energy -495551.226605 kJ/mol
# GULP energy per Si atom -12388.780665 kJ/mol
# Density = 1.774313 g / cm^3
# Si number density = 17.783607 Si / 1000 Ang^3
#
#
#
# Elastic Constant Matrix: (Units=GPa)
#
#
# Indices 1 2 3 4 5 6 
#
# 1 109.2936 53.4597 63.4566 0.0000 0.0000 0.0000
# 2 53.4597 112.1693 38.1375 0.0000 0.0000 0.0000
# 3 63.4566 38.1375 75.6889 0.0000 0.0000 0.0000
# 4 0.0000 0.0000 0.0000 17.0304 0.0000 0.0000
# 5 0.0000 0.0000 0.0000 0.0000 19.7220 0.0000
# 6 0.0000 0.0000 0.0000 0.0000 0.0000 23.2751
#
#
#
# Elastic Compliance Matrix: (Units=1/GPa)
#
#
# Indices 1 2 3 4 5 6 
#
# 1 0.019560 -0.004521 -0.014120 0.000000 0.000000 0.000000
# 2 -0.004521 0.011803 -0.002157 0.000000 0.000000 0.000000
# 3 -0.014120 -0.002157 0.026137 0.000000 0.000000 0.000000
# 4 0.000000 0.000000 0.000000 0.058718 0.000000 0.000000
# 5 0.000000 0.000000 0.000000 0.000000 0.050705 0.000000
# 6 0.000000 0.000000 0.000000 0.000000 0.000000 0.042964
#
#
# Mechanical properties :
#
#
# Convention : Reuss Voigt Hill
#
# Bulk Modulus (GPa) = 62.88080 67.47329 65.17704
# Shear Modulus (GPa) = 19.47153 21.47870 20.47511
#
# Velocity S-wave (km/s) = 3.31254 3.47908 3.39683
# Velocity P-wave (km/s) = 7.07575 7.35951 7.21902
#
# Compressibility (1/GPa) = 0.01590310
#
# Stress axis : x y z
#
# Youngs Moduli (GPa) = 51.12600 84.72294 38.25975
#
# Poissons Ratio (x) = 0.38304 0.54024
# Poissons Ratio (y) = 0.23115 0.08252
# Poissons Ratio (z) = 0.72192 0.18273
#
# Static dielectric constant tensor:
#      x y z
#    x 3.500620 0.000000 0.000000 
#    y 0.000000 3.351890 0.000000 
#    z 0.000000 0.000000 3.246740 
# 
# 
# High freq. dielectric constant tensor:
#      x y z
#    x 1.693860 0.000000 0.000000 
#    y 0.000000 1.687900 0.000000 
#    z 0.000000 0.000000 1.674100 
# 
# From -- ./inp_files/68114.got.cif
#   From: 2010.03.12/outbox.cif.g09.slc.cpg/sg63_35_cif.got.tgz:68114.got - 2010.04.10 19:34:48.
