data_PCOD8259110
_publ_section_title
;
Structure prediction by ZEFSAII (Michael W. Deem and Ramdas Pophale) SiO2 
 PCOD8259110
Probable space group: C M C M
;
_chemical_formula_sum "Si O2"
_cell_formula_units_Z 96
_cell_length_a 8.944114
_cell_length_b 23.536359
_cell_length_c 25.162143
_cell_angle_alpha 90.000000
_cell_angle_beta 90.000000
_cell_angle_gamma 90.000000
_cell_volume 5296.929978
_symmetry_space_group_name_H-M "C M C M"
_symmetry_group_IT_number 63
_symmetry_cell_setting 'orthorhombic'
loop_
_space_group_symop_operation_xyz
x,y,z
-x,-y,1/2+z
x,-y,-z
-x,y,1/2-z
-x,-y,-z
x,y,1/2-z
-x,y,z
x,-y,1/2+z
1/2+x,1/2+y,z
1/2-x,1/2-y,1/2+z
1/2+x,1/2-y,-z
1/2-x,1/2+y,1/2-z
1/2-x,1/2-y,-z
1/2+x,1/2+y,1/2-z
1/2-x,1/2+y,z
1/2+x,1/2-y,1/2+z
loop_
_atom_site_type_symbol
_atom_site_label
_atom_site_fract_x
_atom_site_fract_y
_atom_site_fract_z
Si Si1 0.825971 0.368562 0.400441
Si Si2 0.676448 0.436340 0.309698
Si Si3 0.675209 0.254252 0.557430
Si Si4 0.176892 0.635937 0.399154
Si Si5 0.822162 0.436576 0.501232
Si Si6 0.672487 0.564548 0.187875
O O1 0.747726 0.389092 0.347041
O O2 0.793493 0.302466 0.409091
O O3 0.758957 0.402893 0.450525
O O4 0.000000 0.381431 0.394707
O O5 0.733501 0.424405 0.250000
O O6 0.500000 0.430689 0.312196
O O7 0.722940 0.500306 0.326783
O O8 0.500000 0.264162 0.548631
O O9 0.750000 0.250000 0.500000
O O10 0.744925 0.303747 0.592903
O O11 0.233727 0.594226 0.445644
O O12 0.224991 0.609120 0.343276
O O13 0.000000 0.644848 0.400528
O O14 0.755825 0.500000 0.500000
O O15 0.000000 0.437309 0.500050
O O16 0.696901 0.575737 0.250000
O O17 0.500000 0.574099 0.172310
#
# Coordination Sequence:
#
# PCOD8259110 Si02
#       6
#    16  16  16  16  16  16
#     4  10  20  35  54  79 109 144 185 223 270 328
#     4   9  19  36  57  82 113 146 180 224 277 327
#     4  11  22  38  57  78 110 150 189 229 276 328
#     4  11  21  35  56  82 111 144 186 230 275 329
#     4   9  17  30  49  76 110 140 168 215 274 325
#     4   9  19  37  58  81 113 149 182 222 276 332
#
# _framework density 18.123705999999999
#
# number of rings (size 3 to 8) (size 9 to 14) (size 15 to 20)
#    0.000    2.167    1.667    3.000    0.000    4.000 
#    0.000    2.500    0.000    4.500    0.000    0.000 
#    0.000    0.000    0.000    0.000    0.000    0.000 
#
# Total GULP energy -595284.778605 kJ/mol
# GULP energy per Si atom -12401.766221 kJ/mol
# Density = 1.808246 g / cm^3
# Si number density = 18.123706 Si / 1000 Ang^3
#
#
#
# Elastic Constant Matrix: (Units=GPa)
#
#
# Indices 1 2 3 4 5 6 
#
# 1 63.7371 55.0130 43.4083 0.0000 0.0000 0.0000
# 2 55.0130 136.4940 66.1389 0.0000 0.0000 0.0000
# 3 43.4083 66.1389 106.6231 0.0000 0.0000 0.0000
# 4 0.0000 0.0000 0.0000 26.4020 0.0000 0.0000
# 5 0.0000 0.0000 0.0000 0.0000 32.8432 0.0000
# 6 0.0000 0.0000 0.0000 0.0000 0.0000 29.9648
#
#
#
# Elastic Compliance Matrix: (Units=1/GPa)
#
#
# Indices 1 2 3 4 5 6 
#
# 1 0.026454 -0.007783 -0.005942 0.000000 0.000000 0.000000
# 2 -0.007783 0.012764 -0.004749 0.000000 0.000000 0.000000
# 3 -0.005942 -0.004749 0.014744 0.000000 0.000000 0.000000
# 4 0.000000 0.000000 0.000000 0.037876 0.000000 0.000000
# 5 0.000000 0.000000 0.000000 0.000000 0.030448 0.000000
# 6 0.000000 0.000000 0.000000 0.000000 0.000000 0.033373
#
#
# Mechanical properties :
#
#
# Convention : Reuss Voigt Hill
#
# Bulk Modulus (GPa) = 58.77584 70.66383 64.71984
# Shear Modulus (GPa) = 25.21710 27.32828 26.27269
#
# Velocity S-wave (km/s) = 3.73418 3.88735 3.81153
# Velocity P-wave (km/s) = 7.14793 7.69565 7.42684
#
# Compressibility (1/GPa) = 0.01701379
#
# Stress axis : x y z
#
# Youngs Moduli (GPa) = 37.80172 78.34279 67.82401
#
# Poissons Ratio (x) = 0.60972 0.40302
# Poissons Ratio (y) = 0.29420 0.32212
# Poissons Ratio (z) = 0.22462 0.37208
#
# Static dielectric constant tensor:
#      x y z
#    x 3.160200 0.000000 0.000000 
#    y 0.000000 3.531680 0.000000 
#    z 0.000000 0.000000 3.381840 
# 
# 
# High freq. dielectric constant tensor:
#      x y z
#    x 1.687770 0.000000 0.000000 
#    y 0.000000 1.707620 0.000000 
#    z 0.000000 0.000000 1.702780 
# 
# From -- ./inp_files/59861.got.cif
#   From: 2010.03.12/outbox.cif.g09.slc.cpg/sg63_30_cif.got.tgz:59861.got - 2010.04.10 19:34:48.
