data_PCOD8259699
_publ_section_title
;
Structure prediction by ZEFSAII (Michael W. Deem and Ramdas Pophale) SiO2 
 PCOD8259699
Probable space group: C M C M
;
_chemical_formula_sum "Si O2"
_cell_formula_units_Z 96
_cell_length_a 27.911429
_cell_length_b 9.109218
_cell_length_c 18.557359
_cell_angle_alpha 90.000000
_cell_angle_beta 90.000000
_cell_angle_gamma 90.000000
_cell_volume 4718.232492
_symmetry_space_group_name_H-M "C M C M"
_symmetry_group_IT_number 63
_symmetry_cell_setting 'orthorhombic'
loop_
_space_group_symop_operation_xyz
x,y,z
-x,-y,1/2+z
x,-y,-z
-x,y,1/2-z
-x,-y,-z
x,y,1/2-z
-x,y,z
x,-y,1/2+z
1/2+x,1/2+y,z
1/2-x,1/2-y,1/2+z
1/2+x,1/2-y,-z
1/2-x,1/2+y,1/2-z
1/2-x,1/2-y,-z
1/2+x,1/2+y,1/2-z
1/2-x,1/2+y,z
1/2+x,1/2-y,1/2+z
loop_
_atom_site_type_symbol
_atom_site_label
_atom_site_fract_x
_atom_site_fract_y
_atom_site_fract_z
Si Si1 0.444410 0.881458 0.437746
Si Si2 0.394296 0.088037 0.334517
Si Si3 0.800522 0.048751 0.164093
Si Si4 0.795023 0.709942 0.335174
Si Si5 0.388644 0.407440 0.568871
Si Si6 0.943797 0.115715 0.669932
O O1 0.500000 0.843796 0.421889
O O2 0.414712 0.737963 0.460258
O O3 0.439529 0.000000 0.500000
O O4 0.418475 0.943733 0.366946
O O5 0.393122 0.061393 0.250000
O O6 0.340676 0.118967 0.364767
O O7 0.426296 0.226658 0.357003
O O8 0.808324 0.065924 0.250000
O O9 0.797472 0.878947 0.139710
O O10 0.752891 0.131460 0.137072
O O11 0.843621 0.125694 0.120796
O O12 0.796079 0.706723 0.250000
O O13 0.371399 0.500000 0.500000
O O14 0.428076 0.492151 0.615094
O O15 0.922369 0.083788 0.750000
O O16 0.000000 0.118950 0.672719
#
# Coordination Sequence:
#
# PCOD8259699 Si02
#       6
#    16  16  16  16  16  16
#     4  11  26  44  61  86 122 166 211 256 307 370
#     4  10  20  38  64  93 123 157 199 250 308 369
#     4  10  21  40  65  95 125 159 204 254 307 371
#     4   9  19  36  63  93 122 159 200 245 304 364
#     4  12  25  41  62  90 123 166 210 258 313 369
#     4  10  20  37  64  93 121 157 202 254 309 369
#
# _framework density 20.346603000000002
#
# number of rings (size 3 to 8) (size 9 to 14) (size 15 to 20)
#    0.000    1.667    1.667    2.500    2.333    5.000 
#    0.000    1.667    0.000    0.000    0.000    0.000 
#    0.000    0.000    0.000    0.000    0.000    0.000 
#
# Total GULP energy -595256.757063 kJ/mol
# GULP energy per Si atom -12401.182439 kJ/mol
# Density = 2.030029 g / cm^3
# Si number density = 20.346603 Si / 1000 Ang^3
#
#
#
# Elastic Constant Matrix: (Units=GPa)
#
#
# Indices 1 2 3 4 5 6 
#
# 1 197.3658 92.7836 37.3455 0.0000 0.0000 0.0000
# 2 92.7836 119.6469 28.8738 0.0000 0.0000 0.0000
# 3 37.3455 28.8738 61.4168 0.0000 0.0000 0.0000
# 4 0.0000 0.0000 0.0000 30.3311 0.0000 0.0000
# 5 0.0000 0.0000 0.0000 0.0000 5.9961 0.0000
# 6 0.0000 0.0000 0.0000 0.0000 0.0000 42.3436
#
#
#
# Elastic Compliance Matrix: (Units=1/GPa)
#
#
# Indices 1 2 3 4 5 6 
#
# 1 0.008244 -0.005846 -0.002264 0.000000 0.000000 0.000000
# 2 -0.005846 0.013574 -0.002826 0.000000 0.000000 0.000000
# 3 -0.002264 -0.002826 0.018988 0.000000 0.000000 0.000000
# 4 0.000000 0.000000 0.000000 0.032969 0.000000 0.000000
# 5 0.000000 0.000000 0.000000 0.000000 0.166775 0.000000
# 6 0.000000 0.000000 0.000000 0.000000 0.000000 0.023616
#
#
# Mechanical properties :
#
#
# Convention : Reuss Voigt Hill
#
# Bulk Modulus (GPa) = 52.82274 77.38170 65.10222
# Shear Modulus (GPa) = 17.10277 30.36261 23.73269
#
# Velocity S-wave (km/s) = 2.90241 3.86718 3.41899
# Velocity P-wave (km/s) = 6.10326 7.61935 6.90305
#
# Compressibility (1/GPa) = 0.01893124
#
# Stress axis : x y z
#
# Youngs Moduli (GPa) = 121.30686 73.67184 52.66564
#
# Poissons Ratio (x) = 0.43071 0.11924
# Poissons Ratio (y) = 0.70920 0.14886
# Poissons Ratio (z) = 0.27465 0.20823
#
# Static dielectric constant tensor:
#      x y z
#    x 3.951390 0.000000 0.000000 
#    y 0.000000 2.232130 0.000000 
#    z 0.000000 0.000000 3.544030 
# 
# 
# High freq. dielectric constant tensor:
#      x y z
#    x 1.810170 0.000000 0.000000 
#    y 0.000000 1.792390 0.000000 
#    z 0.000000 0.000000 1.777220 
# 
# From -- ./inp_files/58101.got.cif
#   From: 2010.03.12/outbox.cif.g09.slc.cpg/sg63_30_cif.got.tgz:58101.got - 2010.04.10 19:34:48.
