data_PCOD8259269
_publ_section_title
;
Structure prediction by ZEFSAII (Michael W. Deem and Ramdas Pophale) SiO2 
 PCOD8259269
Probable space group: C M C M
;
_chemical_formula_sum "Si O2"
_cell_formula_units_Z 112
_cell_length_a 28.842525
_cell_length_b 11.083261
_cell_length_c 16.793972
_cell_angle_alpha 90.000000
_cell_angle_beta 90.000000
_cell_angle_gamma 90.000000
_cell_volume 5368.516139
_symmetry_space_group_name_H-M "C M C M"
_symmetry_group_IT_number 63
_symmetry_cell_setting 'orthorhombic'
loop_
_space_group_symop_operation_xyz
x,y,z
-x,-y,1/2+z
x,-y,-z
-x,y,1/2-z
-x,-y,-z
x,y,1/2-z
-x,y,z
x,-y,1/2+z
1/2+x,1/2+y,z
1/2-x,1/2-y,1/2+z
1/2+x,1/2-y,-z
1/2-x,1/2+y,1/2-z
1/2-x,1/2-y,-z
1/2+x,1/2+y,1/2-z
1/2-x,1/2+y,z
1/2+x,1/2-y,1/2+z
loop_
_atom_site_type_symbol
_atom_site_label
_atom_site_fract_x
_atom_site_fract_y
_atom_site_fract_z
Si Si1 0.211906 0.530102 0.160661
Si Si2 0.883606 0.197896 0.343114
Si Si3 0.448645 0.522787 0.085578
Si Si4 0.311519 0.492626 0.906745
Si Si5 0.847396 0.743467 0.103472
Si Si6 0.551559 0.733256 0.657289
Si Si7 0.852333 0.610758 0.950399
O O1 0.205729 0.479431 0.250000
O O2 0.265864 0.541182 0.142019
O O3 0.185259 0.658361 0.157026
O O4 0.192565 0.436559 0.096107
O O5 0.874784 0.213165 0.250000
O O6 0.931831 0.135343 0.362832
O O7 0.885778 0.330168 0.384266
O O8 0.845359 0.115500 0.385154
O O9 0.500000 0.560221 0.061452
O O10 0.445731 0.408725 0.142579
O O11 0.421890 0.500000 0.000000
O O12 0.335084 0.617986 0.876861
O O13 0.300630 0.500000 0.000000
O O14 0.902406 0.710481 0.116498
O O15 0.836147 0.714593 0.011450
O O16 0.555482 0.760373 0.750000
O O17 0.500000 0.779833 0.626646
O O18 0.875950 0.500000 0.000000
#
# Coordination Sequence:
#
# PCOD8259269 Si02
#       7
#    16  16  16  16  16  16  16
#     4  11  26  42  61  91 127 168 218 272 318 372
#     4  12  23  37  62  94 128 163 204 265 325 379
#     4  10  20  35  57  90 130 168 205 250 316 394
#     4  12  24  40  63  92 128 169 213 255 318 394
#     4  11  22  41  66  90 126 168 214 260 319 387
#     4  10  20  35  59  92 128 163 204 261 326 384
#     4  10  23  44  64  85 117 167 217 258 309 373
#
# _framework density 20.862376999999999
#
# number of rings (size 3 to 8) (size 9 to 14) (size 15 to 20)
#    0.000    1.143    2.857    4.286    2.000    3.714 
#    0.000    0.000    0.000    7.714    0.000    0.000 
#    0.000    0.000    0.000    0.000    0.000    0.000 
#
# Total GULP energy -693981.231445 kJ/mol
# GULP energy per Si atom -12392.521990 kJ/mol
# Density = 2.081489 g / cm^3
# Si number density = 20.862377 Si / 1000 Ang^3
#
#
#
# Elastic Constant Matrix: (Units=GPa)
#
#
# Indices 1 2 3 4 5 6 
#
# 1 117.6080 40.0055 29.2508 0.0000 0.0000 0.0000
# 2 40.0055 82.4983 41.3397 0.0000 0.0000 0.0000
# 3 29.2508 41.3397 132.4081 0.0000 0.0000 0.0000
# 4 0.0000 0.0000 0.0000 31.5036 0.0000 0.0000
# 5 0.0000 0.0000 0.0000 0.0000 26.7023 0.0000
# 6 0.0000 0.0000 0.0000 0.0000 0.0000 25.0810
#
#
#
# Elastic Compliance Matrix: (Units=1/GPa)
#
#
# Indices 1 2 3 4 5 6 
#
# 1 0.010262 -0.004552 -0.000846 0.000000 0.000000 0.000000
# 2 -0.004552 0.016389 -0.004111 0.000000 0.000000 0.000000
# 3 -0.000846 -0.004111 0.009023 0.000000 0.000000 0.000000
# 4 0.000000 0.000000 0.000000 0.031742 0.000000 0.000000
# 5 0.000000 0.000000 0.000000 0.000000 0.037450 0.000000
# 6 0.000000 0.000000 0.000000 0.000000 0.000000 0.039871
#
#
# Mechanical properties :
#
#
# Convention : Reuss Voigt Hill
#
# Bulk Modulus (GPa) = 60.04160 61.52292 60.78226
# Shear Modulus (GPa) = 29.53215 31.45196 30.49205
#
# Velocity S-wave (km/s) = 3.76649 3.88698 3.82721
# Velocity P-wave (km/s) = 6.91069 7.04974 6.98056
#
# Compressibility (1/GPa) = 0.01665512
#
# Stress axis : x y z
#
# Youngs Moduli (GPa) = 97.44988 61.01590 110.83020
#
# Poissons Ratio (x) = 0.27777 0.09372
# Poissons Ratio (y) = 0.44363 0.45565
# Poissons Ratio (z) = 0.08241 0.25085
#
# Static dielectric constant tensor:
#      x y z
#    x 3.933560 0.000000 0.000000 
#    y 0.000000 3.784650 0.000000 
#    z 0.000000 0.000000 3.962260 
# 
# 
# High freq. dielectric constant tensor:
#      x y z
#    x 1.809910 0.000000 0.000000 
#    y 0.000000 1.799390 0.000000 
#    z 0.000000 0.000000 1.831480 
# 
# From -- ./inp_files/38514.got.cif
#   From: 2010.03.12/outbox.cif.g09.slc.cpg/sg63_20_cif.got.tgz:38514.got - 2010.04.10 19:34:48.
