data_PCOD8259167
_publ_section_title
;
Structure prediction by ZEFSAII (Michael W. Deem and Ramdas Pophale) SiO2 
 PCOD8259167
Probable space group: C M C M
;
_chemical_formula_sum "Si O2"
_cell_formula_units_Z 88
_cell_length_a 16.447662
_cell_length_b 22.982639
_cell_length_c 13.054808
_cell_angle_alpha 90.000000
_cell_angle_beta 90.000000
_cell_angle_gamma 90.000000
_cell_volume 4934.856825
_symmetry_space_group_name_H-M "C M C M"
_symmetry_group_IT_number 63
_symmetry_cell_setting 'orthorhombic'
loop_
_space_group_symop_operation_xyz
x,y,z
-x,-y,1/2+z
x,-y,-z
-x,y,1/2-z
-x,-y,-z
x,y,1/2-z
-x,y,z
x,-y,1/2+z
1/2+x,1/2+y,z
1/2-x,1/2-y,1/2+z
1/2+x,1/2-y,-z
1/2-x,1/2+y,1/2-z
1/2-x,1/2-y,-z
1/2+x,1/2+y,1/2-z
1/2-x,1/2+y,z
1/2+x,1/2-y,1/2+z
loop_
_atom_site_type_symbol
_atom_site_label
_atom_site_fract_x
_atom_site_fract_y
_atom_site_fract_z
Si Si1 0.000000 0.904108 0.371080
Si Si2 0.703834 0.000000 0.500000
Si Si3 0.762407 0.302067 0.364616
Si Si4 0.407593 0.918512 0.866717
Si Si5 0.151465 0.297201 0.933237
Si Si6 0.822558 0.921666 0.367446
Si Si7 0.500000 0.273544 0.127075
O O1 0.915508 0.934780 0.406211
O O2 0.000000 0.838956 0.412486
O O3 0.000000 0.900529 0.250000
O O4 0.645214 0.034753 0.425762
O O5 0.760182 0.043467 0.563275
O O6 0.799686 0.304596 0.250000
O O7 0.833029 0.312913 0.447467
O O8 0.726589 0.237544 0.383043
O O9 0.693888 0.352338 0.376398
O O10 0.410162 0.938889 0.750000
O O11 0.500000 0.915067 0.910706
O O12 0.364171 0.856176 0.872027
O O13 0.075805 0.255666 0.925686
O O14 0.812093 0.942168 0.250000
O O15 0.500000 0.265565 0.250000
#
# Coordination Sequence:
#
# PCOD8259167 Si02
#       7
#     8   8  16  16  16  16   8
#     4   9  18  33  55  84 107 134 176 228 273 311
#     4  12  23  39  54  78 110 152 188 217 269 330
#     4  10  20  35  55  82 113 143 176 220 276 336
#     4  11  23  38  57  82 111 143 185 234 274 317
#     4  11  20  33  57  86 110 137 174 228 279 325
#     4  10  20  36  57  79 108 143 183 227 269 319
#     4  11  18  30  56  85 111 135 175 227 275 322
#
# _framework density 17.832331
#
# number of rings (size 3 to 8) (size 9 to 14) (size 15 to 20)
#    0.000    1.455    4.545    2.455    0.000    0.364 
#    0.000    0.455    0.000    1.091    0.000    0.000 
#    0.000    0.000    0.000    0.000    0.000    0.000 
#
# Total GULP energy -545447.269084 kJ/mol
# GULP energy per Si atom -12396.528843 kJ/mol
# Density = 1.779174 g / cm^3
# Si number density = 17.832331 Si / 1000 Ang^3
#
#
#
# Elastic Constant Matrix: (Units=GPa)
#
#
# Indices 1 2 3 4 5 6 
#
# 1 103.7198 36.7315 53.8978 0.0000 0.0000 0.0000
# 2 36.7315 85.3523 28.3822 0.0000 0.0000 0.0000
# 3 53.8978 28.3822 97.2805 0.0000 0.0000 0.0000
# 4 0.0000 0.0000 0.0000 25.3692 0.0000 0.0000
# 5 0.0000 0.0000 0.0000 0.0000 28.7977 0.0000
# 6 0.0000 0.0000 0.0000 0.0000 0.0000 30.7833
#
#
#
# Elastic Compliance Matrix: (Units=1/GPa)
#
#
# Indices 1 2 3 4 5 6 
#
# 1 0.014677 -0.004000 -0.006965 0.000000 0.000000 0.000000
# 2 -0.004000 0.014065 -0.001887 0.000000 0.000000 0.000000
# 3 -0.006965 -0.001887 0.014689 0.000000 0.000000 0.000000
# 4 0.000000 0.000000 0.000000 0.039418 0.000000 0.000000
# 5 0.000000 0.000000 0.000000 0.000000 0.034725 0.000000
# 6 0.000000 0.000000 0.000000 0.000000 0.000000 0.032485
#
#
# Mechanical properties :
#
#
# Convention : Reuss Voigt Hill
#
# Bulk Modulus (GPa) = 56.41186 58.26395 57.33790
# Shear Modulus (GPa) = 27.52195 28.14612 27.83404
#
# Velocity S-wave (km/s) = 3.93284 3.97719 3.95508
# Velocity P-wave (km/s) = 7.23369 7.33722 7.28564
#
# Compressibility (1/GPa) = 0.01772677
#
# Stress axis : x y z
#
# Youngs Moduli (GPa) = 68.13251 71.09704 68.07842
#
# Poissons Ratio (x) = 0.28442 0.47415
# Poissons Ratio (y) = 0.27256 0.12848
# Poissons Ratio (z) = 0.47452 0.13418
#
# Static dielectric constant tensor:
#      x y z
#    x 3.285050 0.000000 0.000000 
#    y 0.000000 3.310690 0.000000 
#    z 0.000000 0.000000 3.592360 
# 
# 
# High freq. dielectric constant tensor:
#      x y z
#    x 1.691970 0.000000 0.000000 
#    y 0.000000 1.689080 0.000000 
#    z 0.000000 0.000000 1.679950 
# 
# From -- ./inp_files/21173.got.cif
#   From: 2010.03.12/outbox.cif.g09.slc.cpg/sg63_11_cif.got.tgz:21173.got - 2010.04.10 19:34:48.
