data_PCOD8259328
_publ_section_title
;
Structure prediction by ZEFSAII (Michael W. Deem and Ramdas Pophale) SiO2 
 PCOD8259328
Probable space group: C M C M
;
_chemical_formula_sum "Si O2"
_cell_formula_units_Z 96
_cell_length_a 8.668363
_cell_length_b 19.913610
_cell_length_c 27.836346
_cell_angle_alpha 90.000000
_cell_angle_beta 90.000000
_cell_angle_gamma 90.000000
_cell_volume 4805.065512
_symmetry_space_group_name_H-M "C M C M"
_symmetry_group_IT_number 63
_symmetry_cell_setting 'orthorhombic'
loop_
_space_group_symop_operation_xyz
x,y,z
-x,-y,1/2+z
x,-y,-z
-x,y,1/2-z
-x,-y,-z
x,y,1/2-z
-x,y,z
x,-y,1/2+z
1/2+x,1/2+y,z
1/2-x,1/2-y,1/2+z
1/2+x,1/2-y,-z
1/2-x,1/2+y,1/2-z
1/2-x,1/2-y,-z
1/2+x,1/2+y,1/2-z
1/2-x,1/2+y,z
1/2+x,1/2-y,1/2+z
loop_
_atom_site_type_symbol
_atom_site_label
_atom_site_fract_x
_atom_site_fract_y
_atom_site_fract_z
Si Si1 0.180748 0.111804 0.391439
Si Si2 0.680156 0.990040 0.054863
Si Si3 0.177855 0.730656 0.050154
Si Si4 0.177303 0.679063 0.304211
Si Si5 0.679931 0.177466 0.695880
Si Si6 0.176073 0.867669 0.103801
O O1 0.232390 0.166704 0.430060
O O2 0.265408 0.121868 0.340459
O O3 0.000000 0.116615 0.383061
O O4 0.223890 0.038803 0.410825
O O5 0.500000 0.005044 0.060879
O O6 0.718131 0.914300 0.070494
O O7 0.732828 0.000000 0.000000
O O8 0.197835 0.791429 0.087017
O O9 0.000000 0.710938 0.043098
O O10 0.250000 0.750000 0.000000
O O11 0.196763 0.651628 0.250000
O O12 0.277412 0.745253 0.312526
O O13 0.000000 0.697321 0.315395
O O14 0.724368 0.155506 0.750000
O O15 0.500000 0.168979 0.685993
O O16 0.770866 0.129063 0.659332
O O17 0.000000 0.891673 0.099426
#
# Coordination Sequence:
#
# PCOD8259328 Si02
#       6
#    16  16  16  16  16  16
#     4  12  24  39  62  90 123 160 202 251 304 365
#     4  11  25  44  65  87 119 162 206 252 306 367
#     4  11  23  38  59  88 121 156 200 253 305 358
#     4  10  20  36  60  90 124 160 200 249 304 360
#     4  10  20  35  59  91 124 159 201 248 301 360
#     4  11  23  39  61  89 122 160 202 249 303 361
#
# _framework density 19.978916000000002
#
# number of rings (size 3 to 8) (size 9 to 14) (size 15 to 20)
#    0.000    1.167    1.667    5.000    0.000    8.000 
#    0.000    0.833    0.000    5.000    0.000    0.000 
#    0.000    0.000    0.000    0.000    0.000    0.000 
#
# Total GULP energy -595512.750823 kJ/mol
# GULP energy per Si atom -12406.515642 kJ/mol
# Density = 1.993344 g / cm^3
# Si number density = 19.978916 Si / 1000 Ang^3
#
#
#
# Elastic Constant Matrix: (Units=GPa)
#
#
# Indices 1 2 3 4 5 6 
#
# 1 68.6167 10.8670 38.0626 0.0000 0.0000 0.0000
# 2 10.8670 40.3095 7.2040 0.0000 0.0000 0.0000
# 3 38.0626 7.2040 120.8748 0.0000 0.0000 0.0000
# 4 0.0000 0.0000 0.0000 35.2000 0.0000 0.0000
# 5 0.0000 0.0000 0.0000 0.0000 34.7690 0.0000
# 6 0.0000 0.0000 0.0000 0.0000 0.0000 34.2633
#
#
#
# Elastic Compliance Matrix: (Units=1/GPa)
#
#
# Indices 1 2 3 4 5 6 
#
# 1 0.018256 -0.003936 -0.005514 0.000000 0.000000 0.000000
# 2 -0.003936 0.025924 -0.000306 0.000000 0.000000 0.000000
# 3 -0.005514 -0.000306 0.010028 0.000000 0.000000 0.000000
# 4 0.000000 0.000000 0.000000 0.028409 0.000000 0.000000
# 5 0.000000 0.000000 0.000000 0.000000 0.028761 0.000000
# 6 0.000000 0.000000 0.000000 0.000000 0.000000 0.029186
#
#
# Mechanical properties :
#
#
# Convention : Reuss Voigt Hill
#
# Bulk Modulus (GPa) = 28.82199 38.00758 33.41479
# Shear Modulus (GPa) = 29.13075 32.42429 30.77752
#
# Velocity S-wave (km/s) = 3.82262 4.03293 3.92918
# Velocity P-wave (km/s) = 5.82587 6.38366 6.11113
#
# Compressibility (1/GPa) = 0.03469573
#
# Stress axis : x y z
#
# Youngs Moduli (GPa) = 54.77709 38.57456 99.72507
#
# Poissons Ratio (x) = 0.15183 0.54989
# Poissons Ratio (y) = 0.21561 0.03047
# Poissons Ratio (z) = 0.30204 0.01179
#
# Static dielectric constant tensor:
#      x y z
#    x 3.743190 0.000000 0.000000 
#    y 0.000000 3.379490 0.000000 
#    z 0.000000 0.000000 3.991560 
# 
# 
# High freq. dielectric constant tensor:
#      x y z
#    x 1.794410 0.000000 0.000000 
#    y 0.000000 1.756650 0.000000 
#    z 0.000000 0.000000 1.797040 
# 
# From -- ./inp_files/67016.got.cif
#   From: 2010.03.12/outbox.cif.g09.slc.cpg/sg63_34_cif.got.tgz:67016.got - 2010.04.10 19:34:48.
