data_PCOD8259097
_publ_section_title
;
Structure prediction by ZEFSAII (Michael W. Deem and Ramdas Pophale) SiO2 
 PCOD8259097
Probable space group: C M C M
;
_chemical_formula_sum "Si O2"
_cell_formula_units_Z 64
_cell_length_a 9.096925
_cell_length_b 15.135013
_cell_length_c 27.146498
_cell_angle_alpha 90.000000
_cell_angle_beta 90.000000
_cell_angle_gamma 90.000000
_cell_volume 3737.586259
_symmetry_space_group_name_H-M "C M C M"
_symmetry_group_IT_number 63
_symmetry_cell_setting 'orthorhombic'
loop_
_space_group_symop_operation_xyz
x,y,z
-x,-y,1/2+z
x,-y,-z
-x,y,1/2-z
-x,-y,-z
x,y,1/2-z
-x,y,z
x,-y,1/2+z
1/2+x,1/2+y,z
1/2-x,1/2-y,1/2+z
1/2+x,1/2-y,-z
1/2-x,1/2+y,1/2-z
1/2-x,1/2-y,-z
1/2+x,1/2+y,1/2-z
1/2-x,1/2+y,z
1/2+x,1/2-y,1/2+z
loop_
_atom_site_type_symbol
_atom_site_label
_atom_site_fract_x
_atom_site_fract_y
_atom_site_fract_z
Si Si1 0.834270 0.635406 0.623317
Si Si2 0.826788 0.247094 0.806612
Si Si3 0.165901 0.172075 0.110083
Si Si4 0.674130 0.022551 0.445187
O O1 0.732387 0.653030 0.671495
O O2 0.834425 0.726046 0.590632
O O3 0.771090 0.555527 0.590884
O O4 0.000000 0.613928 0.641043
O O5 0.780388 0.254840 0.750000
O O6 0.749923 0.327829 0.836749
O O7 0.000000 0.252801 0.813877
O O8 0.000000 0.136759 0.117258
O O9 0.250516 0.113309 0.070601
O O10 0.500000 0.034231 0.443001
O O11 0.727179 0.000000 0.500000
#
# Coordination Sequence:
#
# PCOD8259097 Si02
#       4
#    16  16  16  16
#     4   8  18  34  51  75 106 134 166 208 255 302
#     4   9  17  32  55  78 100 131 170 210 254 303
#     4   9  19  34  52  76 105 134 170 211 254 303
#     4  10  20  35  54  76 104 138 174 212 255 303
#
# _framework density 17.123351
#
# number of rings (size 3 to 8) (size 9 to 14) (size 15 to 20)
#    1.500    1.500    0.000    0.750    0.000    4.500 
#    0.000    1.250    0.000    1.500    0.000    0.000 
#    0.000    0.000    0.000    0.000    0.000    0.000 
#
# Total GULP energy -396418.353348 kJ/mol
# GULP energy per Si atom -12388.073542 kJ/mol
# Density = 1.708438 g / cm^3
# Si number density = 17.123351 Si / 1000 Ang^3
#
#
#
# Elastic Constant Matrix: (Units=GPa)
#
#
# Indices 1 2 3 4 5 6 
#
# 1 54.8590 12.1413 31.1648 0.0000 0.0000 0.0000
# 2 12.1413 37.6783 2.1842 0.0000 0.0000 0.0000
# 3 31.1648 2.1842 69.7989 0.0000 0.0000 0.0000
# 4 0.0000 0.0000 0.0000 31.8241 0.0000 0.0000
# 5 0.0000 0.0000 0.0000 0.0000 25.9664 0.0000
# 6 0.0000 0.0000 0.0000 0.0000 0.0000 13.7732
#
#
#
# Elastic Compliance Matrix: (Units=1/GPa)
#
#
# Indices 1 2 3 4 5 6 
#
# 1 0.026575 -0.007890 -0.011619 0.000000 0.000000 0.000000
# 2 -0.007890 0.028931 0.002618 0.000000 0.000000 0.000000
# 3 -0.011619 0.002618 0.019433 0.000000 0.000000 0.000000
# 4 0.000000 0.000000 0.000000 0.031423 0.000000 0.000000
# 5 0.000000 0.000000 0.000000 0.000000 0.038511 0.000000
# 6 0.000000 0.000000 0.000000 0.000000 0.000000 0.072605
#
#
# Mechanical properties :
#
#
# Convention : Reuss Voigt Hill
#
# Bulk Modulus (GPa) = 24.29748 28.14633 26.22190
# Shear Modulus (GPa) = 18.86939 22.10247 20.48593
#
# Velocity S-wave (km/s) = 3.32319 3.59664 3.46262
# Velocity P-wave (km/s) = 5.38008 5.80696 5.59759
#
# Compressibility (1/GPa) = 0.04115653
#
# Stress axis : x y z
#
# Youngs Moduli (GPa) = 37.62896 34.56481 51.45961
#
# Poissons Ratio (x) = 0.27272 0.59790
# Poissons Ratio (y) = 0.29689 -0.13470
# Poissons Ratio (z) = 0.43720 -0.09047
#
# Static dielectric constant tensor:
#      x y z
#    x 3.146090 0.000000 0.000000 
#    y 0.000000 3.007610 0.000000 
#    z 0.000000 0.000000 3.028490 
# 
# 
# High freq. dielectric constant tensor:
#      x y z
#    x 1.666560 0.000000 0.000000 
#    y 0.000000 1.642500 0.000000 
#    z 0.000000 0.000000 1.642100 
# 
# From -- ./inp_files/60857.got.cif
#   From: 2010.03.12/outbox.cif.g09.slc.cpg/sg63_31_cif.got.tgz:60857.got - 2010.04.10 19:34:48.
