data_PCOD8259983
_publ_section_title
;
Structure prediction by ZEFSAII (Michael W. Deem and Ramdas Pophale) SiO2 
 PCOD8259983
Probable space group: C M C M
;
_chemical_formula_sum "Si O2"
_cell_formula_units_Z 96
_cell_length_a 9.047090
_cell_length_b 20.015593
_cell_length_c 29.921248
_cell_angle_alpha 90.000000
_cell_angle_beta 90.000000
_cell_angle_gamma 90.000000
_cell_volume 5418.225500
_symmetry_space_group_name_H-M "C M C M"
_symmetry_group_IT_number 63
_symmetry_cell_setting 'orthorhombic'
loop_
_space_group_symop_operation_xyz
x,y,z
-x,-y,1/2+z
x,-y,-z
-x,y,1/2-z
-x,-y,-z
x,y,1/2-z
-x,y,z
x,-y,1/2+z
1/2+x,1/2+y,z
1/2-x,1/2-y,1/2+z
1/2+x,1/2-y,-z
1/2-x,1/2+y,1/2-z
1/2-x,1/2-y,-z
1/2+x,1/2+y,1/2-z
1/2-x,1/2+y,z
1/2+x,1/2-y,1/2+z
loop_
_atom_site_type_symbol
_atom_site_label
_atom_site_fract_x
_atom_site_fract_y
_atom_site_fract_z
Si Si1 0.674658 0.705681 0.299859
Si Si2 0.171516 0.557794 0.535561
Si Si3 0.675610 0.443653 0.700422
Si Si4 0.326966 0.545728 0.626728
Si Si5 0.173737 0.194801 0.969962
Si Si6 0.168065 0.801957 0.367004
O O1 0.731444 0.724500 0.250000
O O2 0.500000 0.707550 0.300669
O O3 0.729605 0.630961 0.312290
O O4 0.730595 0.757624 0.335894
O O5 0.196287 0.500000 0.500000
O O6 0.236475 0.531091 0.582030
O O7 0.257465 0.623057 0.518357
O O8 0.000000 0.575954 0.541616
O O9 0.734300 0.462626 0.750000
O O10 0.500000 0.446667 0.700557
O O11 0.737247 0.496135 0.664423
O O12 0.500000 0.534164 0.616500
O O13 0.300014 0.620783 0.643855
O O14 0.205397 0.213068 0.918521
O O15 0.000000 0.191855 0.980006
O O16 0.250000 0.250000 0.000000
O O17 0.000000 0.783421 0.356259
#
# Coordination Sequence:
#
# PCOD8259983 Si02
#       6
#    16  16  16  16  16  16
#     4   9  18  32  50  73 100 131 168 207 247 296
#     4  10  21  36  53  75 105 138 170 209 256 303
#     4   8  15  30  51  73  97 126 164 208 248 291
#     4   9  18  33  53  75  97 127 169 211 250 296
#     4  10  21  37  56  78 104 134 171 214 258 308
#     4   9  19  33  49  73 102 129 161 203 249 299
#
# _framework density 17.717979
#
# number of rings (size 3 to 8) (size 9 to 14) (size 15 to 20)
#    0.000    2.833    0.000    3.000    0.000    7.000 
#    0.000    5.833    0.000    1.500    0.000    0.000 
#    0.000    0.000    0.000    0.000    0.000    0.000 
#
# Total GULP energy -595134.140958 kJ/mol
# GULP energy per Si atom -12398.627937 kJ/mol
# Density = 1.767765 g / cm^3
# Si number density = 17.717979 Si / 1000 Ang^3
#
#
#
# Elastic Constant Matrix: (Units=GPa)
#
#
# Indices 1 2 3 4 5 6 
#
# 1 71.3567 55.1005 53.9004 0.0000 0.0000 0.0000
# 2 55.1005 119.1116 90.0457 0.0000 0.0000 0.0000
# 3 53.9004 90.0457 112.5336 0.0000 0.0000 0.0000
# 4 0.0000 0.0000 0.0000 39.3088 0.0000 0.0000
# 5 0.0000 0.0000 0.0000 0.0000 30.3020 0.0000
# 6 0.0000 0.0000 0.0000 0.0000 0.0000 27.5272
#
#
#
# Elastic Compliance Matrix: (Units=1/GPa)
#
#
# Indices 1 2 3 4 5 6 
#
# 1 0.023532 -0.005986 -0.006481 0.000000 0.000000 0.000000
# 2 -0.005986 0.022772 -0.015354 0.000000 0.000000 0.000000
# 3 -0.006481 -0.015354 0.024277 0.000000 0.000000 0.000000
# 4 0.000000 0.000000 0.000000 0.025440 0.000000 0.000000
# 5 0.000000 0.000000 0.000000 0.000000 0.033001 0.000000
# 6 0.000000 0.000000 0.000000 0.000000 0.000000 0.036328
#
#
# Mechanical properties :
#
#
# Convention : Reuss Voigt Hill
#
# Bulk Modulus (GPa) = 66.94608 77.89944 72.42276
# Shear Modulus (GPa) = 22.12658 26.35796 24.24227
#
# Velocity S-wave (km/s) = 3.53770 3.86118 3.70297
# Velocity P-wave (km/s) = 7.38603 7.99625 7.69719
#
# Compressibility (1/GPa) = 0.01493739
#
# Stress axis : x y z
#
# Youngs Moduli (GPa) = 42.49475 43.91316 41.19182
#
# Poissons Ratio (x) = 0.26287 0.26698
# Poissons Ratio (y) = 0.25438 0.63247
# Poissons Ratio (z) = 0.27542 0.67426
#
# Static dielectric constant tensor:
#      x y z
#    x 3.136950 0.000000 0.000000 
#    y 0.000000 3.423600 0.000000 
#    z 0.000000 0.000000 3.396560 
# 
# 
# High freq. dielectric constant tensor:
#      x y z
#    x 1.670740 0.000000 0.000000 
#    y 0.000000 1.690200 0.000000 
#    z 0.000000 0.000000 1.688560 
# 
# From -- ./inp_files/66993.got.cif
#   From: 2010.03.12/outbox.cif.g09.slc.cpg/sg63_34_cif.got.tgz:66993.got - 2010.04.10 19:34:48.
