data_PCOD8259419
_publ_section_title
;
Structure prediction by ZEFSAII (Michael W. Deem and Ramdas Pophale) SiO2 
 PCOD8259419
Probable space group: C M C M
;
_chemical_formula_sum "Si O2"
_cell_formula_units_Z 96
_cell_length_a 21.767179
_cell_length_b 25.659343
_cell_length_c 8.780221
_cell_angle_alpha 90.000000
_cell_angle_beta 90.000000
_cell_angle_gamma 90.000000
_cell_volume 4904.030112
_symmetry_space_group_name_H-M "C M C M"
_symmetry_group_IT_number 63
_symmetry_cell_setting 'orthorhombic'
loop_
_space_group_symop_operation_xyz
x,y,z
-x,-y,1/2+z
x,-y,-z
-x,y,1/2-z
-x,-y,-z
x,y,1/2-z
-x,y,z
x,-y,1/2+z
1/2+x,1/2+y,z
1/2-x,1/2-y,1/2+z
1/2+x,1/2-y,-z
1/2-x,1/2+y,1/2-z
1/2-x,1/2-y,-z
1/2+x,1/2+y,1/2-z
1/2-x,1/2+y,z
1/2+x,1/2-y,1/2+z
loop_
_atom_site_type_symbol
_atom_site_label
_atom_site_fract_x
_atom_site_fract_y
_atom_site_fract_z
Si Si1 0.873138 0.447797 0.931076
Si Si2 0.500000 0.188973 0.421778
Si Si3 0.656344 0.352809 0.930128
Si Si4 0.570085 0.554600 0.069793
Si Si5 0.794350 0.649410 0.068812
Si Si6 0.500000 0.918538 0.071387
Si Si7 0.873268 0.254215 0.925316
O O1 0.873470 0.450079 0.750000
O O2 0.834504 0.398655 0.992615
O O3 0.842352 0.500000 0.000000
O O4 0.941605 0.444586 0.993914
O O5 0.500000 0.165236 0.250000
O O6 0.500000 0.143122 0.543448
O O7 0.558997 0.224030 0.447908
O O8 0.657433 0.356180 0.750000
O O9 0.614031 0.399621 0.994852
O O10 0.725520 0.357086 0.995757
O O11 0.628623 0.297792 0.976981
O O12 0.575225 0.550345 0.250000
O O13 0.500000 0.566832 0.019492
O O14 0.592571 0.500000 0.000000
O O15 0.795546 0.649227 0.250000
O O16 0.823886 0.703756 0.011123
O O17 0.500000 0.930237 0.250000
O O18 0.859399 0.240988 0.750000
#
# Coordination Sequence:
#
# PCOD8259419 Si02
#       7
#    16   8  16  16  16   8  16
#     4  11  22  39  59  81 113 150 192 238 285 335
#     4  10  20  37  59  82 113 151 185 229 283 335
#     4  10  21  36  57  85 114 145 183 230 279 328
#     4   9  19  36  56  79 110 143 177 221 277 328
#     4   9  19  37  58  78 110 153 187 224 278 331
#     4  12  23  37  58  86 113 145 193 237 286 335
#     4  10  20  36  57  82 111 148 187 221 274 336
#
# _framework density 19.575737
#
# number of rings (size 3 to 8) (size 9 to 14) (size 15 to 20)
#    0.000    2.000    1.667    2.000    1.167    2.000 
#    0.000    1.667    0.000    0.000    0.000    0.000 
#    0.000    0.000    0.000    0.000    0.000    0.000 
#
# Total GULP energy -595273.211426 kJ/mol
# GULP energy per Si atom -12401.525238 kJ/mol
# Density = 1.953118 g / cm^3
# Si number density = 19.575737 Si / 1000 Ang^3
#
#
#
# Elastic Constant Matrix: (Units=GPa)
#
#
# Indices 1 2 3 4 5 6 
#
# 1 121.5658 67.5849 18.0456 0.0000 0.0000 0.0000
# 2 67.5849 164.3377 23.2569 0.0000 0.0000 0.0000
# 3 18.0456 23.2569 34.8047 0.0000 0.0000 0.0000
# 4 0.0000 0.0000 0.0000 35.7695 0.0000 0.0000
# 5 0.0000 0.0000 0.0000 0.0000 -8.7782 0.0000
# 6 0.0000 0.0000 0.0000 0.0000 0.0000 22.5592
#
#
#
# Elastic Compliance Matrix: (Units=1/GPa)
#
#
# Indices 1 2 3 4 5 6 
#
# 1 0.010930 -0.004079 -0.002942 0.000000 0.000000 0.000000
# 2 -0.004079 0.008243 -0.003393 0.000000 0.000000 0.000000
# 3 -0.002942 -0.003393 0.032524 0.000000 0.000000 0.000000
# 4 0.000000 0.000000 0.000000 0.027957 0.000000 0.000000
# 5 0.000000 0.000000 0.000000 0.000000 -0.113919 0.000000
# 6 0.000000 0.000000 0.000000 0.000000 0.000000 0.044328
#
#
# Mechanical properties :
#
#
# Convention : Reuss Voigt Hill
#
# Bulk Modulus (GPa) = 32.39377 59.83145 46.11261
# Shear Modulus (GPa) = 121.41936 24.03150 72.72543
#
# Velocity S-wave (km/s) = 7.88417 3.50754 6.10176
# Velocity P-wave (km/s) = 9.97316 6.85815 8.55857
#
# Compressibility (1/GPa) = 0.03087013
#
# Stress axis : x y z
#
# Youngs Moduli (GPa) = 91.48856 121.31988 30.74634
#
# Poissons Ratio (x) = 0.49485 0.09044
# Poissons Ratio (y) = 0.37317 0.10432
# Poissons Ratio (z) = 0.26913 0.41164
#
# Static dielectric constant tensor:
#      x y z
#    x 3.845590 0.000000 0.000000 
#    y 0.000000 3.732640 0.000000 
#    z 0.000000 0.000000 3.307660 
# 
# 
# High freq. dielectric constant tensor:
#      x y z
#    x 1.769370 0.000000 0.000000 
#    y 0.000000 1.775680 0.000000 
#    z 0.000000 0.000000 1.735490 
# 
# From -- ./inp_files/10567.got.cif
#   From: 2010.03.12/outbox.cif.g09.slc.cpg/sg63_6_cif.got.tgz:10567.got - 2010.04.10 19:34:48.
