data_PCOD8259714
_publ_section_title
;
Structure prediction by ZEFSAII (Michael W. Deem and Ramdas Pophale) SiO2 
 PCOD8259714
Probable space group: C M C M
;
_chemical_formula_sum "Si O2"
_cell_formula_units_Z 96
_cell_length_a 22.186788
_cell_length_b 8.995060
_cell_length_c 23.219040
_cell_angle_alpha 90.000000
_cell_angle_beta 90.000000
_cell_angle_gamma 90.000000
_cell_volume 4633.858392
_symmetry_space_group_name_H-M "C M C M"
_symmetry_group_IT_number 63
_symmetry_cell_setting 'orthorhombic'
loop_
_space_group_symop_operation_xyz
x,y,z
-x,-y,1/2+z
x,-y,-z
-x,y,1/2-z
-x,-y,-z
x,y,1/2-z
-x,y,z
x,-y,1/2+z
1/2+x,1/2+y,z
1/2-x,1/2-y,1/2+z
1/2+x,1/2-y,-z
1/2-x,1/2+y,1/2-z
1/2-x,1/2-y,-z
1/2+x,1/2+y,1/2-z
1/2-x,1/2+y,z
1/2+x,1/2-y,1/2+z
loop_
_atom_site_type_symbol
_atom_site_label
_atom_site_fract_x
_atom_site_fract_y
_atom_site_fract_z
Si Si1 0.277513 0.345728 0.750000
Si Si2 0.627743 0.372457 0.451975
Si Si3 0.619323 0.083098 0.628539
Si Si4 0.500000 0.668518 0.985193
Si Si5 0.334740 0.030289 0.750000
Si Si6 0.172529 0.894813 0.871517
Si Si7 0.288109 0.097964 0.054724
Si Si8 0.500000 0.923667 0.437406
O O1 0.287537 0.168345 0.750000
O O2 0.206028 0.381361 0.750000
O O3 0.307856 0.419041 0.694097
O O4 0.631598 0.500000 0.500000
O O5 0.561321 0.295428 0.449690
O O6 0.641763 0.450352 0.390925
O O7 0.676174 0.244589 0.465911
O O8 0.621134 0.035208 0.695230
O O9 0.624978 0.260822 0.622671
O O10 0.557411 0.030035 0.599964
O O11 0.673635 0.002177 0.597367
O O12 0.500000 0.500000 0.000000
O O13 0.500000 0.749770 0.047150
O O14 0.228890 0.851511 0.911618
O O15 0.269179 0.000000 0.000000
O O16 0.500000 0.000000 0.500000
#
# Coordination Sequence:
#
# PCOD8259714 Si02
#       8
#     8  16  16   8   8  16  16   8
#     4  10  22  40  62  88 126 160 202 248 312 368
#     4  11  23  38  59  86 120 160 203 248 305 366
#     4  11  23  40  62  90 122 161 207 253 303 366
#     4  10  20  38  59  81 115 159 200 241 293 358
#     4  10  22  41  64  90 122 161 206 254 306 362
#     4  11  23  39  60  90 120 158 202 252 308 366
#     4  12  23  36  58  88 126 157 198 255 312 370
#     4  12  24  41  63  88 125 165 205 251 304 364
#
# _framework density 20.717077
#
# number of rings (size 3 to 8) (size 9 to 14) (size 15 to 20)
#    0.000    1.000    1.667    7.000    2.333    2.333 
#    0.000    0.833    0.000    1.500    0.000    0.000 
#    0.000    0.000    0.000    0.000    0.000    0.000 
#
# Total GULP energy -595286.655024 kJ/mol
# GULP energy per Si atom -12401.805313 kJ/mol
# Density = 2.066992 g / cm^3
# Si number density = 20.717077 Si / 1000 Ang^3
#
#
#
# Elastic Constant Matrix: (Units=GPa)
#
#
# Indices 1 2 3 4 5 6 
#
# 1 118.9624 8.9256 56.5944 0.0000 0.0000 0.0000
# 2 8.9256 64.5202 34.0974 0.0000 0.0000 0.0000
# 3 56.5944 34.0974 151.5808 0.0000 0.0000 0.0000
# 4 0.0000 0.0000 0.0000 31.9628 0.0000 0.0000
# 5 0.0000 0.0000 0.0000 0.0000 20.3459 0.0000
# 6 0.0000 0.0000 0.0000 0.0000 0.0000 14.3582
#
#
#
# Elastic Compliance Matrix: (Units=1/GPa)
#
#
# Indices 1 2 3 4 5 6 
#
# 1 0.010248 0.000686 -0.003981 0.000000 0.000000 0.000000
# 2 0.000686 0.017636 -0.004223 0.000000 0.000000 0.000000
# 3 -0.003981 -0.004223 0.009033 0.000000 0.000000 0.000000
# 4 0.000000 0.000000 0.000000 0.031286 0.000000 0.000000
# 5 0.000000 0.000000 0.000000 0.000000 0.049150 0.000000
# 6 0.000000 0.000000 0.000000 0.000000 0.000000 0.069647
#
#
# Mechanical properties :
#
#
# Convention : Reuss Voigt Hill
#
# Bulk Modulus (GPa) = 45.70007 59.36646 52.53327
# Shear Modulus (GPa) = 23.88568 29.02976 26.45772
#
# Velocity S-wave (km/s) = 3.39919 3.74739 3.57753
# Velocity P-wave (km/s) = 6.12479 6.88781 6.51747
#
# Compressibility (1/GPa) = 0.02188180
#
# Stress axis : x y z
#
# Youngs Moduli (GPa) = 97.57750 56.70211 110.70089
#
# Poissons Ratio (x) = -0.03889 0.44066
# Poissons Ratio (y) = -0.06693 0.46752
# Poissons Ratio (z) = 0.38842 0.23947
#
# Static dielectric constant tensor:
#      x y z
#    x 4.283480 0.000000 0.000000 
#    y 0.000000 3.850680 0.000000 
#    z 0.000000 0.000000 3.768180 
# 
# 
# High freq. dielectric constant tensor:
#      x y z
#    x 1.805800 0.000000 0.000000 
#    y 0.000000 1.819620 0.000000 
#    z 0.000000 0.000000 1.807790 
# 
# From -- ./inp_files/65039.got.cif
#   From: 2010.03.12/outbox.cif.g09.slc.cpg/sg63_33_cif.got.tgz:65039.got - 2010.04.10 19:34:48.
