data_PCOD8259898
_publ_section_title
;
Structure prediction by ZEFSAII (Michael W. Deem and Ramdas Pophale) SiO2 
 PCOD8259898
Probable space group: C M C M
;
_chemical_formula_sum "Si O2"
_cell_formula_units_Z 96
_cell_length_a 17.787722
_cell_length_b 14.534819
_cell_length_c 19.401254
_cell_angle_alpha 90.000000
_cell_angle_beta 90.000000
_cell_angle_gamma 90.000000
_cell_volume 5016.025813
_symmetry_space_group_name_H-M "C M C M"
_symmetry_group_IT_number 63
_symmetry_cell_setting 'orthorhombic'
loop_
_space_group_symop_operation_xyz
x,y,z
-x,-y,1/2+z
x,-y,-z
-x,y,1/2-z
-x,-y,-z
x,y,1/2-z
-x,y,z
x,-y,1/2+z
1/2+x,1/2+y,z
1/2-x,1/2-y,1/2+z
1/2+x,1/2-y,-z
1/2-x,1/2+y,1/2-z
1/2-x,1/2-y,-z
1/2+x,1/2+y,1/2-z
1/2-x,1/2+y,z
1/2+x,1/2-y,1/2+z
loop_
_atom_site_type_symbol
_atom_site_label
_atom_site_fract_x
_atom_site_fract_y
_atom_site_fract_z
Si Si1 0.800318 0.614972 0.170799
Si Si2 0.157338 0.095244 0.535093
Si Si3 0.730297 0.796209 0.109640
Si Si4 0.916615 0.748221 0.536902
Si Si5 0.585866 0.074295 0.444347
Si Si6 0.806244 0.949995 0.175294
O O1 0.827726 0.627106 0.250000
O O2 0.777637 0.710982 0.137516
O O3 0.866496 0.568909 0.125813
O O4 0.726451 0.551909 0.167952
O O5 0.230313 0.163860 0.538844
O O6 0.092463 0.148758 0.494288
O O7 0.133108 0.070837 0.614479
O O8 0.180809 0.000000 0.500000
O O9 0.643675 0.770525 0.096984
O O10 0.736674 0.877360 0.166784
O O11 0.907563 0.676045 0.475400
O O12 0.000000 0.742084 0.569663
O O13 0.500000 0.049823 0.425210
O O14 0.616485 0.000000 0.500000
O O15 0.844838 0.937413 0.250000
#
# Coordination Sequence:
#
# PCOD8259898 Si02
#       6
#    16  16  16  16  16  16
#     4  11  21  35  58  85 114 152 196 244 296 349
#     4  10  21  35  60  83 112 148 194 242 294 336
#     4  10  21  34  58  80 114 144 193 238 296 335
#     4  11  22  35  53  85 116 148 192 243 292 347
#     4  10  21  35  54  83 120 157 194 241 295 352
#     4   9  20  33  53  82 111 142 193 239 285 345
#
# _framework density 19.138656999999998
#
# number of rings (size 3 to 8) (size 9 to 14) (size 15 to 20)
#    1.000    0.833    1.667    3.000    2.333    0.667 
#    0.000    0.000    0.000    3.500    0.000    2.333 
#    0.000    0.000    0.000    0.000    0.000    0.000 
#
# Total GULP energy -594731.975029 kJ/mol
# GULP energy per Si atom -12390.249480 kJ/mol
# Density = 1.909510 g / cm^3
# Si number density = 19.138657 Si / 1000 Ang^3
#
#
#
# Elastic Constant Matrix: (Units=GPa)
#
#
# Indices 1 2 3 4 5 6 
#
# 1 55.6503 15.8858 23.2806 0.0000 0.0000 0.0000
# 2 15.8858 115.6246 33.0615 0.0000 0.0000 0.0000
# 3 23.2806 33.0615 89.5232 0.0000 0.0000 0.0000
# 4 0.0000 0.0000 0.0000 26.0506 0.0000 0.0000
# 5 0.0000 0.0000 0.0000 0.0000 20.5204 0.0000
# 6 0.0000 0.0000 0.0000 0.0000 0.0000 17.6483
#
#
#
# Elastic Compliance Matrix: (Units=1/GPa)
#
#
# Indices 1 2 3 4 5 6 
#
# 1 0.020374 -0.001436 -0.004768 0.000000 0.000000 0.000000
# 2 -0.001436 0.009771 -0.003235 0.000000 0.000000 0.000000
# 3 -0.004768 -0.003235 0.013605 0.000000 0.000000 0.000000
# 4 0.000000 0.000000 0.000000 0.038387 0.000000 0.000000
# 5 0.000000 0.000000 0.000000 0.000000 0.048732 0.000000
# 6 0.000000 0.000000 0.000000 0.000000 0.000000 0.056663
#
#
# Mechanical properties :
#
#
# Convention : Reuss Voigt Hill
#
# Bulk Modulus (GPa) = 40.20593 45.02822 42.61708
# Shear Modulus (GPa) = 23.28833 25.41521 24.35177
#
# Velocity S-wave (km/s) = 3.49208 3.64806 3.57092
# Velocity P-wave (km/s) = 6.10842 6.42829 6.27040
#
# Compressibility (1/GPa) = 0.02487195
#
# Stress axis : x y z
#
# Youngs Moduli (GPa) = 49.08258 102.34380 73.50270
#
# Poissons Ratio (x) = 0.14695 0.35046
# Poissons Ratio (y) = 0.07047 0.23779
# Poissons Ratio (z) = 0.23402 0.33109
#
# Static dielectric constant tensor:
#      x y z
#    x 3.124740 0.000000 0.000000 
#    y 0.000000 3.651030 0.000000 
#    z 0.000000 0.000000 3.455590 
# 
# 
# High freq. dielectric constant tensor:
#      x y z
#    x 1.698180 0.000000 0.000000 
#    y 0.000000 1.767950 0.000000 
#    z 0.000000 0.000000 1.731430 
# 
# From -- ./inp_files/54167.got.cif
#   From: 2010.03.12/outbox.cif.g09.slc.cpg/sg63_28_cif.got.tgz:54167.got - 2010.04.10 19:34:48.
