data_PCOD8259250
_publ_section_title
;
Structure prediction by ZEFSAII (Michael W. Deem and Ramdas Pophale) SiO2 
 PCOD8259250
Probable space group: C M C M
;
_chemical_formula_sum "Si O2"
_cell_formula_units_Z 96
_cell_length_a 8.963326
_cell_length_b 20.501066
_cell_length_c 26.603777
_cell_angle_alpha 90.000000
_cell_angle_beta 90.000000
_cell_angle_gamma 90.000000
_cell_volume 4888.649881
_symmetry_space_group_name_H-M "C M C M"
_symmetry_group_IT_number 63
_symmetry_cell_setting 'orthorhombic'
loop_
_space_group_symop_operation_xyz
x,y,z
-x,-y,1/2+z
x,-y,-z
-x,y,1/2-z
-x,-y,-z
x,y,1/2-z
-x,y,z
x,-y,1/2+z
1/2+x,1/2+y,z
1/2-x,1/2-y,1/2+z
1/2+x,1/2-y,-z
1/2-x,1/2+y,1/2-z
1/2-x,1/2-y,-z
1/2+x,1/2+y,1/2-z
1/2-x,1/2+y,z
1/2+x,1/2-y,1/2+z
loop_
_atom_site_type_symbol
_atom_site_label
_atom_site_fract_x
_atom_site_fract_y
_atom_site_fract_z
Si Si1 0.325679 0.327958 0.359644
Si Si2 0.176864 0.929288 0.644353
Si Si3 0.322607 0.561336 0.030358
Si Si4 0.675778 0.310991 0.025526
Si Si5 0.173221 0.306677 0.808480
Si Si6 0.326434 0.948443 0.192199
O O1 0.500000 0.344702 0.355547
O O2 0.277299 0.313856 0.416492
O O3 0.282534 0.265657 0.326213
O O4 0.236107 0.390465 0.341425
O O5 0.233781 0.941048 0.587610
O O6 0.228043 0.857965 0.661369
O O7 0.000000 0.933476 0.648163
O O8 0.246640 0.983665 0.680079
O O9 0.500000 0.560006 0.028771
O O10 0.256345 0.500000 0.000000
O O11 0.261877 0.625628 0.002979
O O12 0.500000 0.304635 0.019579
O O13 0.750000 0.250000 0.000000
O O14 0.210270 0.312721 0.750000
O O15 0.000000 0.320616 0.819747
O O16 0.295343 0.931181 0.250000
O O17 0.500000 0.957292 0.180985
#
# Coordination Sequence:
#
# PCOD8259250 Si02
#       6
#    16  16  16  16  16  16
#     4  10  21  38  61  86 112 148 192 233 277 334
#     4  11  22  36  58  84 110 146 189 228 270 330
#     4   9  18  34  55  79 108 141 178 222 271 320
#     4  10  20  35  57  84 114 147 183 227 277 329
#     4  10  21  37  56  80 113 148 181 225 278 326
#     4  11  24  40  58  82 113 147 184 233 290 339
#
# _framework density 19.637322000000001
#
# number of rings (size 3 to 8) (size 9 to 14) (size 15 to 20)
#    0.000    1.833    0.000    4.000    0.000    8.333 
#    0.000    0.833    0.000    3.500    0.000    0.000 
#    0.000    0.000    0.000    0.000    0.000    0.000 
#
# Total GULP energy -595438.957028 kJ/mol
# GULP energy per Si atom -12404.978271 kJ/mol
# Density = 1.959263 g / cm^3
# Si number density = 19.637322 Si / 1000 Ang^3
#
#
#
# Elastic Constant Matrix: (Units=GPa)
#
#
# Indices 1 2 3 4 5 6 
#
# 1 54.3162 31.8289 34.7459 0.0000 0.0000 0.0000
# 2 31.8289 114.4136 30.3581 0.0000 0.0000 0.0000
# 3 34.7459 30.3581 96.1507 0.0000 0.0000 0.0000
# 4 0.0000 0.0000 0.0000 45.7616 0.0000 0.0000
# 5 0.0000 0.0000 0.0000 0.0000 24.7443 0.0000
# 6 0.0000 0.0000 0.0000 0.0000 0.0000 31.1881
#
#
#
# Elastic Compliance Matrix: (Units=1/GPa)
#
#
# Indices 1 2 3 4 5 6 
#
# 1 0.026589 -0.005291 -0.007938 0.000000 0.000000 0.000000
# 2 -0.005291 0.010592 -0.001432 0.000000 0.000000 0.000000
# 3 -0.007938 -0.001432 0.013721 0.000000 0.000000 0.000000
# 4 0.000000 0.000000 0.000000 0.021852 0.000000 0.000000
# 5 0.000000 0.000000 0.000000 0.000000 0.040413 0.000000
# 6 0.000000 0.000000 0.000000 0.000000 0.000000 0.032063
#
#
# Mechanical properties :
#
#
# Convention : Reuss Voigt Hill
#
# Bulk Modulus (GPa) = 46.33895 50.97182 48.65539
# Shear Modulus (GPa) = 27.51084 31.53533 29.52309
#
# Velocity S-wave (km/s) = 3.74698 4.01170 3.88160
# Velocity P-wave (km/s) = 6.50911 6.88994 6.70223
#
# Compressibility (1/GPa) = 0.02158012
#
# Stress axis : x y z
#
# Youngs Moduli (GPa) = 37.60980 94.41018 72.88011
#
# Poissons Ratio (x) = 0.49948 0.57852
# Poissons Ratio (y) = 0.19898 0.10440
# Poissons Ratio (z) = 0.29855 0.13524
#
# Static dielectric constant tensor:
#      x y z
#    x 3.379920 0.000000 0.000000 
#    y 0.000000 3.612830 0.000000 
#    z 0.000000 0.000000 3.730990 
# 
# 
# High freq. dielectric constant tensor:
#      x y z
#    x 1.743980 0.000000 0.000000 
#    y 0.000000 1.782460 0.000000 
#    z 0.000000 0.000000 1.783870 
# 
# From -- ./inp_files/66965.got.cif
#   From: 2010.03.12/outbox.cif.g09.slc.cpg/sg63_34_cif.got.tgz:66965.got - 2010.04.10 19:34:48.
