data_PCOD8259335
_publ_section_title
;
Structure prediction by ZEFSAII (Michael W. Deem and Ramdas Pophale) SiO2 
 PCOD8259335
Probable space group: C M C M
;
_chemical_formula_sum "Si O2"
_cell_formula_units_Z 80
_cell_length_a 22.739110
_cell_length_b 6.464446
_cell_length_c 27.171448
_cell_angle_alpha 90.000000
_cell_angle_beta 90.000000
_cell_angle_gamma 90.000000
_cell_volume 3994.087342
_symmetry_space_group_name_H-M "C M C M"
_symmetry_group_IT_number 63
_symmetry_cell_setting 'orthorhombic'
loop_
_space_group_symop_operation_xyz
x,y,z
-x,-y,1/2+z
x,-y,-z
-x,y,1/2-z
-x,-y,-z
x,y,1/2-z
-x,y,z
x,-y,1/2+z
1/2+x,1/2+y,z
1/2-x,1/2-y,1/2+z
1/2+x,1/2-y,-z
1/2-x,1/2+y,1/2-z
1/2-x,1/2-y,-z
1/2+x,1/2+y,1/2-z
1/2-x,1/2+y,z
1/2+x,1/2-y,1/2+z
loop_
_atom_site_type_symbol
_atom_site_label
_atom_site_fract_x
_atom_site_fract_y
_atom_site_fract_z
Si Si1 0.210420 0.725126 0.641438
Si Si2 0.066947 0.365020 0.452355
Si Si3 0.868864 0.353001 0.614976
Si Si4 0.830725 0.905325 0.307422
Si Si5 0.332219 0.469572 0.946080
O O1 0.184221 0.504782 0.628948
O O2 0.167900 0.850805 0.679658
O O3 0.271792 0.689679 0.668553
O O4 0.214646 0.860513 0.590647
O O5 0.082307 0.500000 0.500000
O O6 0.076470 0.512495 0.404566
O O7 0.108108 0.164917 0.449863
O O8 0.000000 0.286614 0.452700
O O9 0.883632 0.217654 0.664403
O O10 0.847645 0.197079 0.572777
O O11 0.834679 0.862226 0.250000
O O12 0.303514 0.500000 0.000000
#
# Coordination Sequence:
#
# PCOD8259335 Si02
#       5
#    16  16  16  16  16
#     4  10  21  33  53  81 113 149 192 234 280 338
#     4  10  20  35  60  89 116 151 193 236 284 337
#     4  10  21  37  55  84 120 149 188 241 285 336
#     4  11  21  36  58  81 108 146 193 242 292 345
#     4  10  20  36  54  78 121 160 191 230 277 342
#
# _framework density 20.029606999999999
#
# number of rings (size 3 to 8) (size 9 to 14) (size 15 to 20)
#    0.000    1.800    4.000    0.600    0.000    2.000 
#    0.000    5.000    0.000    0.600    0.000    0.000 
#    0.000    0.000    0.000    0.000    0.000    0.000 
#
# Total GULP energy -495588.673152 kJ/mol
# GULP energy per Si atom -12389.716829 kJ/mol
# Density = 1.998402 g / cm^3
# Si number density = 20.029607 Si / 1000 Ang^3
#
#
#
# Elastic Constant Matrix: (Units=GPa)
#
#
# Indices 1 2 3 4 5 6 
#
# 1 36.5474 12.5807 23.5100 0.0000 0.0000 0.0000
# 2 12.5807 103.8140 37.7862 0.0000 0.0000 0.0000
# 3 23.5100 37.7862 166.6545 0.0000 0.0000 0.0000
# 4 0.0000 0.0000 0.0000 27.9072 0.0000 0.0000
# 5 0.0000 0.0000 0.0000 0.0000 15.5694 0.0000
# 6 0.0000 0.0000 0.0000 0.0000 0.0000 22.5326
#
#
#
# Elastic Compliance Matrix: (Units=1/GPa)
#
#
# Indices 1 2 3 4 5 6 
#
# 1 0.030601 -0.002329 -0.003789 0.000000 0.000000 0.000000
# 2 -0.002329 0.010676 -0.002092 0.000000 0.000000 0.000000
# 3 -0.003789 -0.002092 0.007009 0.000000 0.000000 0.000000
# 4 0.000000 0.000000 0.000000 0.035833 0.000000 0.000000
# 5 0.000000 0.000000 0.000000 0.000000 0.064229 0.000000
# 6 0.000000 0.000000 0.000000 0.000000 0.000000 0.044380
#
#
# Mechanical properties :
#
#
# Convention : Reuss Voigt Hill
#
# Bulk Modulus (GPa) = 31.38134 50.52996 40.95565
# Shear Modulus (GPa) = 22.75102 28.74445 25.74773
#
# Velocity S-wave (km/s) = 3.37392 3.79238 3.58925
# Velocity P-wave (km/s) = 5.55691 6.66773 6.13750
#
# Compressibility (1/GPa) = 0.03186607
#
# Stress axis : x y z
#
# Youngs Moduli (GPa) = 32.67899 93.66479 142.66837
#
# Poissons Ratio (x) = 0.21818 0.54053
# Poissons Ratio (y) = 0.07612 0.29848
# Poissons Ratio (z) = 0.12381 0.19596
#
# Static dielectric constant tensor:
#      x y z
#    x 3.222480 0.000000 0.000000 
#    y 0.000000 4.193020 0.000000 
#    z 0.000000 0.000000 3.865600 
# 
# 
# High freq. dielectric constant tensor:
#      x y z
#    x 1.721200 0.000000 0.000000 
#    y 0.000000 1.815910 0.000000 
#    z 0.000000 0.000000 1.781920 
# 
# From -- ./inp_files/65643.got.cif
#   From: 2010.03.12/outbox.cif.g09.slc.cpg/sg63_33_cif.got.tgz:65643.got - 2010.04.10 19:34:48.
