data_PCOD8259166
_publ_section_title
;
Structure prediction by ZEFSAII (Michael W. Deem and Ramdas Pophale) SiO2 
 PCOD8259166
Probable space group: C M C M
;
_chemical_formula_sum "Si O2"
_cell_formula_units_Z 80
_cell_length_a 20.097793
_cell_length_b 9.931237
_cell_length_c 21.850651
_cell_angle_alpha 90.000000
_cell_angle_beta 90.000000
_cell_angle_gamma 90.000000
_cell_volume 4361.301345
_symmetry_space_group_name_H-M "C M C M"
_symmetry_group_IT_number 63
_symmetry_cell_setting 'orthorhombic'
loop_
_space_group_symop_operation_xyz
x,y,z
-x,-y,1/2+z
x,-y,-z
-x,y,1/2-z
-x,-y,-z
x,y,1/2-z
-x,y,z
x,-y,1/2+z
1/2+x,1/2+y,z
1/2-x,1/2-y,1/2+z
1/2+x,1/2-y,-z
1/2-x,1/2+y,1/2-z
1/2-x,1/2-y,-z
1/2+x,1/2+y,1/2-z
1/2-x,1/2+y,z
1/2+x,1/2-y,1/2+z
loop_
_atom_site_type_symbol
_atom_site_label
_atom_site_fract_x
_atom_site_fract_y
_atom_site_fract_z
Si Si1 0.500000 0.210598 0.452201
Si Si2 0.500000 0.101187 0.580960
Si Si3 0.170324 0.782705 0.250000
Si Si4 0.139998 0.551106 0.625249
Si Si5 0.628230 0.739615 0.882487
Si Si6 0.792247 0.477826 0.250000
Si Si7 0.756555 0.125019 0.542349
O O1 0.500000 0.213815 0.526554
O O2 0.438388 0.288766 0.421104
O O3 0.500000 0.052358 0.440489
O O4 0.566616 0.117634 0.621442
O O5 0.122217 0.789319 0.190482
O O6 0.212314 0.641566 0.250000
O O7 0.219327 0.911144 0.250000
O O8 0.144804 0.395158 0.607579
O O9 0.166736 0.577596 0.692718
O O10 0.185941 0.620898 0.575443
O O11 0.685771 0.642961 0.907603
O O12 0.750000 0.250000 0.500000
O O13 0.774180 0.000000 0.500000
#
# Coordination Sequence:
#
# PCOD8259166 Si02
#       7
#     8   8   8  16  16   8  16
#     4   9  18  33  54  79 114 147 181 223 280 335
#     4   9  18  31  53  81 114 145 179 228 282 324
#     4  10  20  35  57  83 111 143 186 232 278 332
#     4  10  20  35  55  82 111 146 185 231 277 335
#     4  10  20  36  55  82 111 146 186 231 278 328
#     4  10  20  35  55  83 113 141 186 230 282 330
#     4  12  22  33  54  82 111 141 187 227 274 330
#
# _framework density 18.343149
#
# number of rings (size 3 to 8) (size 9 to 14) (size 15 to 20)
#    0.000    1.800    4.000    1.200    2.800    0.800 
#    0.000    4.500    0.000    0.000    0.000    1.400 
#    0.000    0.000    0.000    0.000    0.000    0.000 
#
# Total GULP energy -495817.051694 kJ/mol
# GULP energy per Si atom -12395.426292 kJ/mol
# Density = 1.830140 g / cm^3
# Si number density = 18.343149 Si / 1000 Ang^3
#
#
#
# Elastic Constant Matrix: (Units=GPa)
#
#
# Indices 1 2 3 4 5 6 
#
# 1 107.2458 19.3420 34.9314 0.0000 0.0000 0.0000
# 2 19.3420 52.7432 30.1959 0.0000 0.0000 0.0000
# 3 34.9314 30.1959 108.7232 0.0000 0.0000 0.0000
# 4 0.0000 0.0000 0.0000 23.3883 0.0000 0.0000
# 5 0.0000 0.0000 0.0000 0.0000 36.7234 0.0000
# 6 0.0000 0.0000 0.0000 0.0000 0.0000 18.7584
#
#
#
# Elastic Compliance Matrix: (Units=1/GPa)
#
#
# Indices 1 2 3 4 5 6 
#
# 1 0.010647 -0.002314 -0.002778 0.000000 0.000000 0.000000
# 2 -0.002314 0.023047 -0.005658 0.000000 0.000000 0.000000
# 3 -0.002778 -0.005658 0.011661 0.000000 0.000000 0.000000
# 4 0.000000 0.000000 0.000000 0.042756 0.000000 0.000000
# 5 0.000000 0.000000 0.000000 0.000000 0.027231 0.000000
# 6 0.000000 0.000000 0.000000 0.000000 0.000000 0.053309
#
#
# Mechanical properties :
#
#
# Convention : Reuss Voigt Hill
#
# Bulk Modulus (GPa) = 41.91727 48.62787 45.27257
# Shear Modulus (GPa) = 25.23942 28.05687 26.64815
#
# Velocity S-wave (km/s) = 3.71342 3.91520 3.81564
# Velocity P-wave (km/s) = 6.42552 6.85609 6.64429
#
# Compressibility (1/GPa) = 0.02385652
#
# Stress axis : x y z
#
# Youngs Moduli (GPa) = 93.92758 43.38898 85.75249
#
# Poissons Ratio (x) = 0.10040 0.23822
# Poissons Ratio (y) = 0.21734 0.48515
# Poissons Ratio (z) = 0.26093 0.24548
#
# Static dielectric constant tensor:
#      x y z
#    x 3.901160 0.000000 0.000000 
#    y 0.000000 3.111750 0.000000 
#    z 0.000000 0.000000 3.631950 
# 
# 
# High freq. dielectric constant tensor:
#      x y z
#    x 1.706690 0.000000 0.000000 
#    y 0.000000 1.677490 0.000000 
#    z 0.000000 0.000000 1.728700 
# 
# From -- ./inp_files/64339.got.cif
#   From: 2010.03.12/outbox.cif.g09.slc.cpg/sg63_33_cif.got.tgz:64339.got - 2010.04.10 19:34:48.
