data_PCOD8259977
_publ_section_title
;
Structure prediction by ZEFSAII (Michael W. Deem and Ramdas Pophale) SiO2 
 PCOD8259977
Probable space group: C M C M
;
_chemical_formula_sum "Si O2"
_cell_formula_units_Z 80
_cell_length_a 25.089173
_cell_length_b 19.755251
_cell_length_c 9.214792
_cell_angle_alpha 90.000000
_cell_angle_beta 90.000000
_cell_angle_gamma 90.000000
_cell_volume 4567.246322
_symmetry_space_group_name_H-M "C M C M"
_symmetry_group_IT_number 63
_symmetry_cell_setting 'orthorhombic'
loop_
_space_group_symop_operation_xyz
x,y,z
-x,-y,1/2+z
x,-y,-z
-x,y,1/2-z
-x,-y,-z
x,y,1/2-z
-x,y,z
x,-y,1/2+z
1/2+x,1/2+y,z
1/2-x,1/2-y,1/2+z
1/2+x,1/2-y,-z
1/2-x,1/2+y,1/2-z
1/2-x,1/2-y,-z
1/2+x,1/2+y,1/2-z
1/2-x,1/2+y,z
1/2+x,1/2-y,1/2+z
loop_
_atom_site_type_symbol
_atom_site_label
_atom_site_fract_x
_atom_site_fract_y
_atom_site_fract_z
Si Si1 0.363813 0.330356 0.083761
Si Si2 0.753837 0.679899 0.918071
Si Si3 0.146236 0.326312 0.918707
Si Si4 0.061690 0.068565 0.419577
Si Si5 0.939697 0.434164 0.919118
O O1 0.382555 0.340148 0.250000
O O2 0.303047 0.358290 0.064120
O O3 0.365862 0.251342 0.040172
O O4 0.403271 0.369842 0.978480
O O5 0.766115 0.692963 0.750000
O O6 0.750000 0.750000 0.000000
O O7 0.803826 0.641696 0.991792
O O8 0.160696 0.332530 0.750000
O O9 0.094544 0.368972 0.962468
O O10 0.072842 0.058878 0.250000
O O11 0.000000 0.085497 0.450667
O O12 0.078947 0.000000 0.500000
O O13 0.936124 0.449563 0.750000
O O14 0.000000 0.418654 0.968682
O O15 0.917015 0.500000 0.000000
#
# Coordination Sequence:
#
# PCOD8259977 Si02
#       5
#    16  16  16  16  16
#     4   9  18  32  51  75 100 128 163 200 240 290
#     4   9  17  30  49  73 101 131 162 198 243 291
#     4   9  18  32  51  75 101 131 166 202 244 292
#     4  10  21  36  53  73  98 129 163 200 245 294
#     4   9  18  33  51  71  98 132 168 205 246 292
#
# _framework density 17.516024999999999
#
# number of rings (size 3 to 8) (size 9 to 14) (size 15 to 20)
#    0.000    2.800    0.000    2.400    0.000    6.800 
#    0.000    3.000    0.000    4.800    0.000    0.000 
#    0.000    0.000    0.000    0.000    0.000    0.000 
#
# Total GULP energy -495858.857699 kJ/mol
# GULP energy per Si atom -12396.471442 kJ/mol
# Density = 1.747616 g / cm^3
# Si number density = 17.516025 Si / 1000 Ang^3
#
#
#
# Elastic Constant Matrix: (Units=GPa)
#
#
# Indices 1 2 3 4 5 6 
#
# 1 111.1774 65.6110 61.7472 0.0000 0.0000 0.0000
# 2 65.6110 86.3895 47.2799 0.0000 0.0000 0.0000
# 3 61.7472 47.2799 88.9788 0.0000 0.0000 0.0000
# 4 0.0000 0.0000 0.0000 29.4648 0.0000 0.0000
# 5 0.0000 0.0000 0.0000 0.0000 34.7241 0.0000
# 6 0.0000 0.0000 0.0000 0.0000 0.0000 7.8060
#
#
#
# Elastic Compliance Matrix: (Units=1/GPa)
#
#
# Indices 1 2 3 4 5 6 
#
# 1 0.019698 -0.010546 -0.008066 0.000000 0.000000 0.000000
# 2 -0.010546 0.021968 -0.004355 0.000000 0.000000 0.000000
# 3 -0.008066 -0.004355 0.019150 0.000000 0.000000 0.000000
# 4 0.000000 0.000000 0.000000 0.033939 0.000000 0.000000
# 5 0.000000 0.000000 0.000000 0.000000 0.028798 0.000000
# 6 0.000000 0.000000 0.000000 0.000000 0.000000 0.128107
#
#
# Mechanical properties :
#
#
# Convention : Reuss Voigt Hill
#
# Bulk Modulus (GPa) = 67.18973 70.64686 68.91829
# Shear Modulus (GPa) = 16.52600 21.85949 19.19274
#
# Velocity S-wave (km/s) = 3.07494 3.53650 3.31376
# Velocity P-wave (km/s) = 7.14488 7.55619 7.35341
#
# Compressibility (1/GPa) = 0.01488323
#
# Stress axis : x y z
#
# Youngs Moduli (GPa) = 50.76675 45.52064 52.21979
#
# Poissons Ratio (x) = 0.48005 0.42120
# Poissons Ratio (y) = 0.53538 0.22740
# Poissons Ratio (z) = 0.40948 0.19823
#
# Static dielectric constant tensor:
#      x y z
#    x 4.319540 0.000000 0.000000 
#    y 0.000000 3.072810 0.000000 
#    z 0.000000 0.000000 3.434510 
# 
# 
# High freq. dielectric constant tensor:
#      x y z
#    x 1.685910 0.000000 0.000000 
#    y 0.000000 1.647900 0.000000 
#    z 0.000000 0.000000 1.682640 
# 
# From -- ./inp_files/11971.got.cif
#   From: 2010.03.12/outbox.cif.g09.slc.cpg/sg63_6_cif.got.tgz:11971.got - 2010.04.10 19:34:48.
