data_PCOD8259841
_publ_section_title
;
Structure prediction by ZEFSAII (Michael W. Deem and Ramdas Pophale) SiO2 
 PCOD8259841
Probable space group: C M C M
;
_chemical_formula_sum "Si O2"
_cell_formula_units_Z 80
_cell_length_a 8.955552
_cell_length_b 18.951409
_cell_length_c 24.168536
_cell_angle_alpha 90.000000
_cell_angle_beta 90.000000
_cell_angle_gamma 90.000000
_cell_volume 4101.891876
_symmetry_space_group_name_H-M "C M C M"
_symmetry_group_IT_number 63
_symmetry_cell_setting 'orthorhombic'
loop_
_space_group_symop_operation_xyz
x,y,z
-x,-y,1/2+z
x,-y,-z
-x,y,1/2-z
-x,-y,-z
x,y,1/2-z
-x,y,z
x,-y,1/2+z
1/2+x,1/2+y,z
1/2-x,1/2-y,1/2+z
1/2+x,1/2-y,-z
1/2-x,1/2+y,1/2-z
1/2-x,1/2-y,-z
1/2+x,1/2+y,1/2-z
1/2-x,1/2+y,z
1/2+x,1/2-y,1/2+z
loop_
_atom_site_type_symbol
_atom_site_label
_atom_site_fract_x
_atom_site_fract_y
_atom_site_fract_z
Si Si1 0.323587 0.892651 0.750000
Si Si2 0.335574 0.434345 0.538825
Si Si3 0.322403 0.267923 0.250000
Si Si4 0.175409 0.316971 0.473058
Si Si5 0.325326 0.148329 0.848810
Si Si6 0.824888 0.515049 0.352704
O O1 0.500000 0.891005 0.750000
O O2 0.261617 0.812700 0.750000
O O3 0.267870 0.935594 0.696827
O O4 0.356249 0.500000 0.500000
O O5 0.500000 0.399289 0.547886
O O6 0.219401 0.382441 0.510601
O O7 0.270228 0.459944 0.596097
O O8 0.500000 0.269989 0.250000
O O9 0.264875 0.305912 0.304922
O O10 0.250000 0.250000 0.500000
O O11 0.228904 0.328698 0.409960
O O12 0.000000 0.307803 0.474982
O O13 0.500000 0.163207 0.840580
O O14 0.289354 0.066201 0.838627
O O15 0.000000 0.524241 0.365524
#
# Coordination Sequence:
#
# PCOD8259841 Si02
#       6
#     8  16   8  16  16  16
#     4   9  21  39  61  91 116 149 198 254 309 359
#     4  11  23  39  61  93 130 161 199 251 306 365
#     4  11  24  39  59  89 124 157 198 252 311 365
#     4  11  24  41  63  92 126 164 208 252 308 368
#     4  10  22  41  64  88 117 160 209 252 297 363
#     4  10  20  40  67  88 116 158 209 255 300 361
#
# _framework density 19.503195000000002
#
# number of rings (size 3 to 8) (size 9 to 14) (size 15 to 20)
#    0.000    1.600    2.000    2.100    2.800    4.800 
#    0.000    1.500    0.000    0.000    0.000    0.000 
#    0.000    0.000    0.000    0.000    0.000    0.000 
#
# Total GULP energy -496050.199576 kJ/mol
# GULP energy per Si atom -12401.254989 kJ/mol
# Density = 1.945881 g / cm^3
# Si number density = 19.503195 Si / 1000 Ang^3
#
#
#
# Elastic Constant Matrix: (Units=GPa)
#
#
# Indices 1 2 3 4 5 6 
#
# 1 67.1460 46.4726 58.7000 0.0000 0.0000 0.0000
# 2 46.4726 141.7763 81.9325 0.0000 0.0000 0.0000
# 3 58.7000 81.9325 155.9939 0.0000 0.0000 0.0000
# 4 0.0000 0.0000 0.0000 34.3519 0.0000 0.0000
# 5 0.0000 0.0000 0.0000 0.0000 38.8331 0.0000
# 6 0.0000 0.0000 0.0000 0.0000 0.0000 33.7381
#
#
#
# Elastic Compliance Matrix: (Units=1/GPa)
#
#
# Indices 1 2 3 4 5 6 
#
# 1 0.023485 -0.003720 -0.006884 0.000000 0.000000 0.000000
# 2 -0.003720 0.010717 -0.004229 0.000000 0.000000 0.000000
# 3 -0.006884 -0.004229 0.011222 0.000000 0.000000 0.000000
# 4 0.000000 0.000000 0.000000 0.029111 0.000000 0.000000
# 5 0.000000 0.000000 0.000000 0.000000 0.025751 0.000000
# 6 0.000000 0.000000 0.000000 0.000000 0.000000 0.029640
#
#
# Mechanical properties :
#
#
# Convention : Reuss Voigt Hill
#
# Bulk Modulus (GPa) = 63.45655 82.12515 72.79085
# Shear Modulus (GPa) = 30.33178 33.23870 31.78524
#
# Velocity S-wave (km/s) = 3.94791 4.13276 4.04139
# Velocity P-wave (km/s) = 7.30674 8.06058 7.69290
#
# Compressibility (1/GPa) = 0.01575881
#
# Stress axis : x y z
#
# Youngs Moduli (GPa) = 42.57960 93.31298 89.11212
#
# Poissons Ratio (x) = 0.34715 0.61340
# Poissons Ratio (y) = 0.15841 0.37683
# Poissons Ratio (z) = 0.29310 0.39460
#
# Static dielectric constant tensor:
#      x y z
#    x 4.106950 0.000000 0.000000 
#    y 0.000000 3.817050 0.000000 
#    z 0.000000 0.000000 3.884050 
# 
# 
# High freq. dielectric constant tensor:
#      x y z
#    x 1.753520 0.000000 0.000000 
#    y 0.000000 1.771060 0.000000 
#    z 0.000000 0.000000 1.774860 
# 
# From -- ./inp_files/59556.got.cif
#   From: 2010.03.12/outbox.cif.g09.slc.cpg/sg63_30_cif.got.tgz:59556.got - 2010.04.10 19:34:48.
