data_PCOD8259240
_publ_section_title
;
Structure prediction by ZEFSAII (Michael W. Deem and Ramdas Pophale) SiO2 
 PCOD8259240
Probable space group: C M C M
;
_chemical_formula_sum "Si O2"
_cell_formula_units_Z 112
_cell_length_a 30.135555
_cell_length_b 12.262275
_cell_length_c 14.777288
_cell_angle_alpha 90.000000
_cell_angle_beta 90.000000
_cell_angle_gamma 90.000000
_cell_volume 5460.658072
_symmetry_space_group_name_H-M "C M C M"
_symmetry_group_IT_number 63
_symmetry_cell_setting 'orthorhombic'
loop_
_space_group_symop_operation_xyz
x,y,z
-x,-y,1/2+z
x,-y,-z
-x,y,1/2-z
-x,-y,-z
x,y,1/2-z
-x,y,z
x,-y,1/2+z
1/2+x,1/2+y,z
1/2-x,1/2-y,1/2+z
1/2+x,1/2-y,-z
1/2-x,1/2+y,1/2-z
1/2-x,1/2-y,-z
1/2+x,1/2+y,1/2-z
1/2-x,1/2+y,z
1/2+x,1/2-y,1/2+z
loop_
_atom_site_type_symbol
_atom_site_label
_atom_site_fract_x
_atom_site_fract_y
_atom_site_fract_z
Si Si1 0.049868 0.444854 0.596408
Si Si2 0.304084 0.401866 0.850901
Si Si3 0.334480 0.235821 0.506989
Si Si4 0.878759 0.934013 0.415648
Si Si5 0.795346 0.410539 0.851875
Si Si6 0.870403 0.584390 0.651110
Si Si7 0.450900 0.289331 0.148321
O O1 0.050080 0.500000 0.500000
O O2 0.085959 0.509221 0.655098
O O3 0.064038 0.316800 0.589592
O O4 0.000000 0.453220 0.638723
O O5 0.311663 0.355866 0.750000
O O6 0.304990 0.301139 0.920161
O O7 0.340960 0.494823 0.867308
O O8 0.255180 0.453840 0.860634
O O9 0.360323 0.318849 0.445334
O O10 0.304680 0.169624 0.435769
O O11 0.370130 0.166300 0.565951
O O12 0.920342 0.897917 0.355004
O O13 0.898288 0.000000 0.500000
O O14 0.802385 0.358328 0.750000
O O15 0.826318 0.514133 0.863195
O O16 0.868440 0.643168 0.750000
O O17 0.450659 0.245077 0.250000
O O18 0.500000 0.326985 0.118020
#
# Coordination Sequence:
#
# PCOD8259240 Si02
#       7
#    16  16  16  16  16  16  16
#     4  10  20  35  57  85 116 147 181 227 282 339
#     4  10  22  40  58  81 113 147 187 233 280 332
#     4  11  22  37  57  82 113 149 188 230 276 332
#     4  10  22  37  56  81 109 146 187 230 281 329
#     4  10  22  37  57  85 114 147 186 228 278 335
#     4  11  22  36  56  82 114 151 186 226 279 336
#     4  10  20  35  57  83 108 139 182 229 276 327
#
# _framework density 20.510349999999999
#
# number of rings (size 3 to 8) (size 9 to 14) (size 15 to 20)
#    0.000    1.714    0.000    4.714    0.000    8.000 
#    0.000    2.857    0.000    0.857    0.000    0.000 
#    0.000    0.000    0.000    0.000    0.000    0.000 
#
# Total GULP energy -693856.709806 kJ/mol
# GULP energy per Si atom -12390.298389 kJ/mol
# Density = 2.046367 g / cm^3
# Si number density = 20.510350 Si / 1000 Ang^3
#
#
#
# Elastic Constant Matrix: (Units=GPa)
#
#
# Indices 1 2 3 4 5 6 
#
# 1 68.2500 11.1482 16.8620 0.0000 0.0000 0.0000
# 2 11.1482 40.4141 19.1692 0.0000 0.0000 0.0000
# 3 16.8620 19.1692 105.7980 0.0000 0.0000 0.0000
# 4 0.0000 0.0000 0.0000 24.6449 0.0000 0.0000
# 5 0.0000 0.0000 0.0000 0.0000 23.7169 0.0000
# 6 0.0000 0.0000 0.0000 0.0000 0.0000 -7.9990
#
#
#
# Elastic Compliance Matrix: (Units=1/GPa)
#
#
# Indices 1 2 3 4 5 6 
#
# 1 0.015677 -0.003434 -0.001876 0.000000 0.000000 0.000000
# 2 -0.003434 0.027823 -0.004494 0.000000 0.000000 0.000000
# 3 -0.001876 -0.004494 0.010565 0.000000 0.000000 0.000000
# 4 0.000000 0.000000 0.000000 0.040576 0.000000 0.000000
# 5 0.000000 0.000000 0.000000 0.000000 0.042164 0.000000
# 6 0.000000 0.000000 0.000000 0.000000 0.000000 -0.125015
#
#
# Mechanical properties :
#
#
# Convention : Reuss Voigt Hill
#
# Bulk Modulus (GPa) = 29.02279 34.31342 31.66810
# Shear Modulus (GPa) = 116.59450 19.22475 67.90963
#
# Velocity S-wave (km/s) = 7.54785 3.06489 5.76037
# Velocity P-wave (km/s) = 9.49427 5.41210 7.72761
#
# Compressibility (1/GPa) = 0.03445569
#
# Stress axis : x y z
#
# Youngs Moduli (GPa) = 63.78954 35.94186 94.65030
#
# Poissons Ratio (x) = 0.12344 0.17759
# Poissons Ratio (y) = 0.21908 0.42533
# Poissons Ratio (z) = 0.11968 0.16151
#
# Static dielectric constant tensor:
#      x y z
#    x 3.993810 0.000000 0.000000 
#    y 0.000000 3.957150 0.000000 
#    z 0.000000 0.000000 3.890410 
# 
# 
# High freq. dielectric constant tensor:
#      x y z
#    x 1.807090 0.000000 0.000000 
#    y 0.000000 1.783090 0.000000 
#    z 0.000000 0.000000 1.816000 
# 
# From -- ./inp_files/38531.got.cif
#   From: 2010.03.12/outbox.cif.g09.slc.cpg/sg63_20_cif.got.tgz:38531.got - 2010.04.10 19:34:48.
