data_PCOD8259963
_publ_section_title
;
Structure prediction by ZEFSAII (Michael W. Deem and Ramdas Pophale) SiO2 
 PCOD8259963
Probable space group: C M C M
;
_chemical_formula_sum "Si O2"
_cell_formula_units_Z 64
_cell_length_a 17.405572
_cell_length_b 8.914206
_cell_length_c 23.921995
_cell_angle_alpha 90.000000
_cell_angle_beta 90.000000
_cell_angle_gamma 90.000000
_cell_volume 3711.661494
_symmetry_space_group_name_H-M "C M C M"
_symmetry_group_IT_number 63
_symmetry_cell_setting 'orthorhombic'
loop_
_space_group_symop_operation_xyz
x,y,z
-x,-y,1/2+z
x,-y,-z
-x,y,1/2-z
-x,-y,-z
x,y,1/2-z
-x,y,z
x,-y,1/2+z
1/2+x,1/2+y,z
1/2-x,1/2-y,1/2+z
1/2+x,1/2-y,-z
1/2-x,1/2+y,1/2-z
1/2-x,1/2-y,-z
1/2+x,1/2+y,1/2-z
1/2-x,1/2+y,z
1/2+x,1/2-y,1/2+z
loop_
_atom_site_type_symbol
_atom_site_label
_atom_site_fract_x
_atom_site_fract_y
_atom_site_fract_z
Si Si1 0.162453 0.671542 0.598119
Si Si2 0.182931 0.341103 0.597676
Si Si3 0.912410 0.824327 0.004695
Si Si4 0.909770 0.485843 0.813833
O O1 0.191501 0.510800 0.573654
O O2 0.233688 0.777861 0.612229
O O3 0.106020 0.748505 0.554266
O O4 0.114745 0.641404 0.655433
O O5 0.143125 0.237061 0.552182
O O6 0.132288 0.346486 0.654741
O O7 0.000000 0.785980 0.020633
O O8 0.898486 0.000000 0.000000
O O9 0.882113 0.492238 0.750000
O O10 0.000000 0.460774 0.818474
#
# Coordination Sequence:
#
# PCOD8259963 Si02
#       4
#    16  16  16  16
#     4  10  21  35  57  82 115 148 184 228 280 328
#     4  10  21  35  57  82 115 148 184 228 280 328
#     4  11  22  35  56  83 116 150 185 228 280 339
#     4   9  20  37  59  83 109 147 192 232 274 328
#
# _framework density 17.242951999999999
#
# number of rings (size 3 to 8) (size 9 to 14) (size 15 to 20)
#    1.500    0.500    0.000    4.500    0.000    2.000 
#    0.000    0.000    0.000    0.000    0.000   10.500 
#    0.000    0.000    0.000    0.000    0.000    0.000 
#
# Total GULP energy -396614.742350 kJ/mol
# GULP energy per Si atom -12394.210698 kJ/mol
# Density = 1.720371 g / cm^3
# Si number density = 17.242952 Si / 1000 Ang^3
#
#
#
# Elastic Constant Matrix: (Units=GPa)
#
#
# Indices 1 2 3 4 5 6 
#
# 1 46.5694 18.9825 13.5126 0.0000 0.0000 0.0000
# 2 18.9825 79.1504 18.2936 0.0000 0.0000 0.0000
# 3 13.5126 18.2936 108.0303 0.0000 0.0000 0.0000
# 4 0.0000 0.0000 0.0000 10.7399 0.0000 0.0000
# 5 0.0000 0.0000 0.0000 0.0000 21.9476 0.0000
# 6 0.0000 0.0000 0.0000 0.0000 0.0000 9.0235
#
#
#
# Elastic Compliance Matrix: (Units=1/GPa)
#
#
# Indices 1 2 3 4 5 6 
#
# 1 0.024263 -0.005326 -0.002133 0.000000 0.000000 0.000000
# 2 -0.005326 0.014318 -0.001758 0.000000 0.000000 0.000000
# 3 -0.002133 -0.001758 0.009821 0.000000 0.000000 0.000000
# 4 0.000000 0.000000 0.000000 0.093111 0.000000 0.000000
# 5 0.000000 0.000000 0.000000 0.000000 0.045563 0.000000
# 6 0.000000 0.000000 0.000000 0.000000 0.000000 0.110821
#
#
# Mechanical properties :
#
#
# Convention : Reuss Voigt Hill
#
# Bulk Modulus (GPa) = 33.36940 37.25863 35.31402
# Shear Modulus (GPa) = 15.32230 20.53962 17.93096
#
# Velocity S-wave (km/s) = 2.98419 3.45511 3.22825
# Velocity P-wave (km/s) = 5.59181 6.12960 5.86687
#
# Compressibility (1/GPa) = 0.02996757
#
# Stress axis : x y z
#
# Youngs Moduli (GPa) = 41.21459 69.84257 101.82036
#
# Poissons Ratio (x) = 0.37198 0.21718
# Poissons Ratio (y) = 0.21951 0.17904
# Poissons Ratio (z) = 0.08791 0.12281
#
# Static dielectric constant tensor:
#      x y z
#    x 3.238570 0.000000 0.000000 
#    y 0.000000 3.143170 0.000000 
#    z 0.000000 0.000000 3.113010 
# 
# 
# High freq. dielectric constant tensor:
#      x y z
#    x 1.678240 0.000000 0.000000 
#    y 0.000000 1.658200 0.000000 
#    z 0.000000 0.000000 1.656570 
# 
# From -- ./inp_files/63429.got.cif
#   From: 2010.03.12/outbox.cif.g09.slc.cpg/sg63_32_cif.got.tgz:63429.got - 2010.04.10 19:34:48.
