data_PCOD8259418
_publ_section_title
;
Structure prediction by ZEFSAII (Michael W. Deem and Ramdas Pophale) SiO2 
 PCOD8259418
Probable space group: C M C M
;
_chemical_formula_sum "Si O2"
_cell_formula_units_Z 96
_cell_length_a 9.555410
_cell_length_b 22.420135
_cell_length_c 23.364070
_cell_angle_alpha 90.000000
_cell_angle_beta 90.000000
_cell_angle_gamma 90.000000
_cell_volume 5005.368410
_symmetry_space_group_name_H-M "C M C M"
_symmetry_group_IT_number 63
_symmetry_cell_setting 'orthorhombic'
loop_
_space_group_symop_operation_xyz
x,y,z
-x,-y,1/2+z
x,-y,-z
-x,y,1/2-z
-x,-y,-z
x,y,1/2-z
-x,y,z
x,-y,1/2+z
1/2+x,1/2+y,z
1/2-x,1/2-y,1/2+z
1/2+x,1/2-y,-z
1/2-x,1/2+y,1/2-z
1/2-x,1/2-y,-z
1/2+x,1/2+y,1/2-z
1/2-x,1/2+y,z
1/2+x,1/2-y,1/2+z
loop_
_atom_site_type_symbol
_atom_site_label
_atom_site_fract_x
_atom_site_fract_y
_atom_site_fract_z
Si Si1 0.166224 0.150097 0.750000
Si Si2 0.838688 0.227032 0.858486
Si Si3 0.344885 0.956480 0.447669
Si Si4 0.841967 0.153297 0.527545
Si Si5 0.163105 0.983811 0.250000
Si Si6 0.660243 0.330956 0.899090
Si Si7 0.163964 0.036116 0.368484
O O1 0.217309 0.184332 0.692517
O O2 0.231539 0.082942 0.750000
O O3 0.000000 0.147141 0.750000
O O4 0.816316 0.197676 0.920256
O O5 0.751000 0.287951 0.858831
O O6 0.000000 0.243341 0.847837
O O7 0.500000 0.942500 0.422740
O O8 0.274217 0.896855 0.469960
O O9 0.360703 0.000000 0.500000
O O10 0.246139 0.984725 0.400622
O O11 0.822453 0.185793 0.466209
O O12 0.000000 0.126493 0.530856
O O13 0.000000 0.971058 0.250000
O O14 0.205889 0.024906 0.303062
O O15 0.500000 0.324384 0.879364
O O16 0.712616 0.398456 0.887980
O O17 0.000000 0.026949 0.380700
#
# Coordination Sequence:
#
# PCOD8259418 Si02
#       7
#     8  16  16  16   8  16  16
#     4   9  18  35  55  79 105 137 186 231 268 325
#     4  10  21  36  57  79 106 147 190 228 272 326
#     4  11  22  34  53  83 115 147 182 226 280 333
#     4  10  20  36  57  82 111 147 187 231 280 332
#     4   9  18  35  61  85 107 141 188 235 276 329
#     4  10  21  35  54  83 115 144 182 230 283 334
#     4  10  20  36  58  83 112 148 188 230 277 334
#
# _framework density 19.179407000000001
#
# number of rings (size 3 to 8) (size 9 to 14) (size 15 to 20)
#    0.000    2.000    1.667    2.000    0.000    6.000 
#    0.000    1.667    0.000    1.000    0.000    0.000 
#    0.000    0.000    0.000    0.000    0.000    0.000 
#
# Total GULP energy -595116.187344 kJ/mol
# GULP energy per Si atom -12398.253903 kJ/mol
# Density = 1.913575 g / cm^3
# Si number density = 19.179407 Si / 1000 Ang^3
#
#
#
# Elastic Constant Matrix: (Units=GPa)
#
#
# Indices 1 2 3 4 5 6 
#
# 1 67.0217 35.2101 17.5809 0.0000 0.0000 0.0000
# 2 35.2101 71.2508 25.7457 0.0000 0.0000 0.0000
# 3 17.5809 25.7457 105.6107 0.0000 0.0000 0.0000
# 4 0.0000 0.0000 0.0000 20.7102 0.0000 0.0000
# 5 0.0000 0.0000 0.0000 0.0000 20.6507 0.0000
# 6 0.0000 0.0000 0.0000 0.0000 0.0000 44.8796
#
#
#
# Elastic Compliance Matrix: (Units=1/GPa)
#
#
# Indices 1 2 3 4 5 6 
#
# 1 0.020252 -0.009639 -0.001022 0.000000 0.000000 0.000000
# 2 -0.009639 0.019978 -0.003266 0.000000 0.000000 0.000000
# 3 -0.001022 -0.003266 0.010435 0.000000 0.000000 0.000000
# 4 0.000000 0.000000 0.000000 0.048285 0.000000 0.000000
# 5 0.000000 0.000000 0.000000 0.000000 0.048425 0.000000
# 6 0.000000 0.000000 0.000000 0.000000 0.000000 0.022282
#
#
# Mechanical properties :
#
#
# Convention : Reuss Voigt Hill
#
# Bulk Modulus (GPa) = 43.83470 44.55073 44.19272
# Shear Modulus (GPa) = 24.37665 28.27120 26.32393
#
# Velocity S-wave (km/s) = 3.56895 3.84349 3.70876
# Velocity P-wave (km/s) = 6.31569 6.55556 6.43674
#
# Compressibility (1/GPa) = 0.02281298
#
# Stress axis : x y z
#
# Youngs Moduli (GPa) = 49.37688 50.05441 95.83217
#
# Poissons Ratio (x) = 0.48247 0.09790
# Poissons Ratio (y) = 0.47594 0.31296
# Poissons Ratio (z) = 0.05044 0.16346
#
# Static dielectric constant tensor:
#      x y z
#    x 3.448230 0.000000 0.000000 
#    y 0.000000 3.154610 0.000000 
#    z 0.000000 0.000000 3.649310 
# 
# 
# High freq. dielectric constant tensor:
#      x y z
#    x 1.725250 0.000000 0.000000 
#    y 0.000000 1.744130 0.000000 
#    z 0.000000 0.000000 1.751120 
# 
# From -- ./inp_files/60002.got.cif
#   From: 2010.03.12/outbox.cif.g09.slc.cpg/sg63_31_cif.got.tgz:60002.got - 2010.04.10 19:34:48.
