data_PCOD8259276
_publ_section_title
;
Structure prediction by ZEFSAII (Michael W. Deem and Ramdas Pophale) SiO2 
 PCOD8259276
Probable space group: C M C M
;
_chemical_formula_sum "Si O2"
_cell_formula_units_Z 80
_cell_length_a 10.648249
_cell_length_b 13.817503
_cell_length_c 27.870629
_cell_angle_alpha 90.000000
_cell_angle_beta 90.000000
_cell_angle_gamma 90.000000
_cell_volume 4100.667309
_symmetry_space_group_name_H-M "C M C M"
_symmetry_group_IT_number 63
_symmetry_cell_setting 'orthorhombic'
loop_
_space_group_symop_operation_xyz
x,y,z
-x,-y,1/2+z
x,-y,-z
-x,y,1/2-z
-x,-y,-z
x,y,1/2-z
-x,y,z
x,-y,1/2+z
1/2+x,1/2+y,z
1/2-x,1/2-y,1/2+z
1/2+x,1/2-y,-z
1/2-x,1/2+y,1/2-z
1/2-x,1/2-y,-z
1/2+x,1/2+y,1/2-z
1/2-x,1/2+y,z
1/2+x,1/2-y,1/2+z
loop_
_atom_site_type_symbol
_atom_site_label
_atom_site_fract_x
_atom_site_fract_y
_atom_site_fract_z
Si Si1 0.145647 0.651976 0.347988
Si Si2 0.856612 0.269345 0.304435
Si Si3 0.635027 0.205125 0.050343
Si Si4 0.787528 0.093213 0.526919
Si Si5 0.641333 0.062441 0.623231
O O1 0.248195 0.687701 0.309302
O O2 0.203709 0.692550 0.398644
O O3 0.151304 0.536712 0.347624
O O4 0.000000 0.686458 0.337508
O O5 0.852674 0.307568 0.250000
O O6 0.816344 0.355629 0.339666
O O7 0.000000 0.232207 0.315897
O O8 0.500000 0.159456 0.060526
O O9 0.617755 0.318376 0.036386
O O10 0.684831 0.140235 0.007548
O O11 0.729073 0.058430 0.576736
O O12 0.849710 0.000000 0.500000
O O13 0.500000 0.081428 0.605245
#
# Coordination Sequence:
#
# PCOD8259276 Si02
#       5
#    16  16  16  16  16
#     4  10  20  37  60  87 115 145 187 236 281 331
#     4  10  22  41  61  82 111 146 186 234 287 342
#     4  10  21  34  51  80 116 150 187 229 273 328
#     4  11  20  33  54  80 114 150 189 227 274 332
#     4  10  20  35  58  84 112 148 189 230 279 337
#
# _framework density 19.509021000000001
#
# number of rings (size 3 to 8) (size 9 to 14) (size 15 to 20)
#    0.000    1.800    4.000    0.600    0.000    2.400 
#    0.000    4.000    0.000    0.000    0.000    0.000 
#    0.000    0.000    0.000    0.000    0.000    0.000 
#
# Total GULP energy -495523.435874 kJ/mol
# GULP energy per Si atom -12388.085897 kJ/mol
# Density = 1.946462 g / cm^3
# Si number density = 19.509021 Si / 1000 Ang^3
#
#
#
# Elastic Constant Matrix: (Units=GPa)
#
#
# Indices 1 2 3 4 5 6 
#
# 1 76.4683 19.8522 33.6209 0.0000 0.0000 0.0000
# 2 19.8522 85.9246 16.6122 0.0000 0.0000 0.0000
# 3 33.6209 16.6122 82.2422 0.0000 0.0000 0.0000
# 4 0.0000 0.0000 0.0000 25.5542 0.0000 0.0000
# 5 0.0000 0.0000 0.0000 0.0000 15.7157 0.0000
# 6 0.0000 0.0000 0.0000 0.0000 0.0000 -24.5552
#
#
#
# Elastic Compliance Matrix: (Units=1/GPa)
#
#
# Indices 1 2 3 4 5 6 
#
# 1 0.016486 -0.002608 -0.006213 0.000000 0.000000 0.000000
# 2 -0.002608 0.012524 -0.001464 0.000000 0.000000 0.000000
# 3 -0.006213 -0.001464 0.014995 0.000000 0.000000 0.000000
# 4 0.000000 0.000000 0.000000 0.039133 0.000000 0.000000
# 5 0.000000 0.000000 0.000000 0.000000 0.063631 0.000000
# 6 0.000000 0.000000 0.000000 0.000000 0.000000 -0.040725
#
#
# Mechanical properties :
#
#
# Convention : Reuss Voigt Hill
#
# Bulk Modulus (GPa) = 42.66960 42.75617 42.71289
# Shear Modulus (GPa) = 37.19600 14.97958 26.08779
#
# Velocity S-wave (km/s) = 4.37121 2.77398 3.66076
# Velocity P-wave (km/s) = 6.88446 5.67658 6.30949
#
# Compressibility (1/GPa) = 0.02343589
#
# Stress axis : x y z
#
# Youngs Moduli (GPa) = 60.65797 79.84937 66.69059
#
# Poissons Ratio (x) = 0.20823 0.41433
# Poissons Ratio (y) = 0.15818 0.09761
# Poissons Ratio (z) = 0.37685 0.11687
#
# Static dielectric constant tensor:
#      x y z
#    x 3.399460 0.000000 0.000000 
#    y 0.000000 3.608380 0.000000 
#    z 0.000000 0.000000 3.537490 
# 
# 
# High freq. dielectric constant tensor:
#      x y z
#    x 1.741590 0.000000 0.000000 
#    y 0.000000 1.761100 0.000000 
#    z 0.000000 0.000000 1.760330 
# 
# From -- ./inp_files/61083.got.cif
#   From: 2010.03.12/outbox.cif.g09.slc.cpg/sg63_31_cif.got.tgz:61083.got - 2010.04.10 19:34:48.
