data_PCOD8259029
_publ_section_title
;
Structure prediction by ZEFSAII (Michael W. Deem and Ramdas Pophale) SiO2 
 PCOD8259029
Probable space group: C M C M
;
_chemical_formula_sum "Si O2"
_cell_formula_units_Z 80
_cell_length_a 13.774126
_cell_length_b 17.495074
_cell_length_c 16.379948
_cell_angle_alpha 90.000000
_cell_angle_beta 90.000000
_cell_angle_gamma 90.000000
_cell_volume 3947.229282
_symmetry_space_group_name_H-M "C M C M"
_symmetry_group_IT_number 63
_symmetry_cell_setting 'orthorhombic'
loop_
_space_group_symop_operation_xyz
x,y,z
-x,-y,1/2+z
x,-y,-z
-x,y,1/2-z
-x,-y,-z
x,y,1/2-z
-x,y,z
x,-y,1/2+z
1/2+x,1/2+y,z
1/2-x,1/2-y,1/2+z
1/2+x,1/2-y,-z
1/2-x,1/2+y,1/2-z
1/2-x,1/2-y,-z
1/2+x,1/2+y,1/2-z
1/2-x,1/2+y,z
1/2+x,1/2-y,1/2+z
loop_
_atom_site_type_symbol
_atom_site_label
_atom_site_fract_x
_atom_site_fract_y
_atom_site_fract_z
Si Si1 0.213374 0.341431 0.073859
Si Si2 0.295939 0.320794 0.657113
Si Si3 0.886736 0.910507 0.516077
Si Si4 0.107299 0.466536 0.340967
Si Si5 0.891015 0.626233 0.091080
O O1 0.194387 0.258836 0.110536
O O2 0.187448 0.402720 0.142646
O O3 0.324232 0.357433 0.045742
O O4 0.139903 0.348589 0.998742
O O5 0.334954 0.316375 0.750000
O O6 0.355898 0.386610 0.608400
O O7 0.181393 0.339383 0.658515
O O8 0.000000 0.893150 0.501489
O O9 0.863754 0.000000 0.500000
O O10 0.124375 0.499196 0.250000
O O11 0.116733 0.534669 0.405626
O O12 0.000000 0.429637 0.348412
O O13 0.000000 0.654534 0.110134
#
# Coordination Sequence:
#
# PCOD8259029 Si02
#       5
#    16  16  16  16  16
#     4  11  21  36  59  85 117 153 189 233 285 342
#     4  11  24  39  58  86 117 149 185 234 295 347
#     4  10  22  41  63  84 111 155 207 247 279 329
#     4  10  20  34  56  87 118 148 185 231 283 336
#     4  10  20  36  58  82 111 148 189 230 276 338
#
# _framework density 20.267379999999999
#
# number of rings (size 3 to 8) (size 9 to 14) (size 15 to 20)
#    0.000    1.600    0.000    7.200    0.000    7.200 
#    0.000    1.000    0.000    4.200    0.000    0.000 
#    0.000    0.000    0.000    0.000    0.000    0.000 
#
# Total GULP energy -495896.634046 kJ/mol
# GULP energy per Si atom -12397.415851 kJ/mol
# Density = 2.022125 g / cm^3
# Si number density = 20.267380 Si / 1000 Ang^3
#
#
#
# Elastic Constant Matrix: (Units=GPa)
#
#
# Indices 1 2 3 4 5 6 
#
# 1 111.5184 44.0736 45.9225 0.0000 0.0000 0.0000
# 2 44.0736 114.1724 63.6812 0.0000 0.0000 0.0000
# 3 45.9225 63.6812 119.1017 0.0000 0.0000 0.0000
# 4 0.0000 0.0000 0.0000 29.0798 0.0000 0.0000
# 5 0.0000 0.0000 0.0000 0.0000 19.9790 0.0000
# 6 0.0000 0.0000 0.0000 0.0000 0.0000 15.4195
#
#
#
# Elastic Compliance Matrix: (Units=1/GPa)
#
#
# Indices 1 2 3 4 5 6 
#
# 1 0.011229 -0.002736 -0.002867 0.000000 0.000000 0.000000
# 2 -0.002736 0.013147 -0.005975 0.000000 0.000000 0.000000
# 3 -0.002867 -0.005975 0.012696 0.000000 0.000000 0.000000
# 4 0.000000 0.000000 0.000000 0.034388 0.000000 0.000000
# 5 0.000000 0.000000 0.000000 0.000000 0.050053 0.000000
# 6 0.000000 0.000000 0.000000 0.000000 0.000000 0.064853
#
#
# Mechanical properties :
#
#
# Convention : Reuss Voigt Hill
#
# Bulk Modulus (GPa) = 71.85081 72.46079 72.15580
# Shear Modulus (GPa) = 23.34711 25.63670 24.49190
#
# Velocity S-wave (km/s) = 3.39773 3.56044 3.48003
# Velocity P-wave (km/s) = 7.13591 7.26170 7.19908
#
# Compressibility (1/GPa) = 0.01391773
#
# Stress axis : x y z
#
# Youngs Moduli (GPa) = 89.05648 76.06187 78.76403
#
# Poissons Ratio (x) = 0.20807 0.22581
# Poissons Ratio (y) = 0.24362 0.47060
# Poissons Ratio (z) = 0.25531 0.45445
#
# Static dielectric constant tensor:
#      x y z
#    x 3.809070 0.000000 0.000000 
#    y 0.000000 3.705460 0.000000 
#    z 0.000000 0.000000 3.664920 
# 
# 
# High freq. dielectric constant tensor:
#      x y z
#    x 1.791170 0.000000 0.000000 
#    y 0.000000 1.792540 0.000000 
#    z 0.000000 0.000000 1.787260 
# 
# From -- ./inp_files/43977.got.cif
#   From: 2010.03.12/outbox.cif.g09.slc.cpg/sg63_22_cif.got.tgz:43977.got - 2010.04.10 19:34:48.
