data_PCOD8259645
_publ_section_title
;
Structure prediction by ZEFSAII (Michael W. Deem and Ramdas Pophale) SiO2 
 PCOD8259645
Probable space group: C M C M
;
_chemical_formula_sum "Si O2"
_cell_formula_units_Z 80
_cell_length_a 28.330405
_cell_length_b 14.879158
_cell_length_c 9.273913
_cell_angle_alpha 90.000000
_cell_angle_beta 90.000000
_cell_angle_gamma 90.000000
_cell_volume 3909.256401
_symmetry_space_group_name_H-M "C M C M"
_symmetry_group_IT_number 63
_symmetry_cell_setting 'orthorhombic'
loop_
_space_group_symop_operation_xyz
x,y,z
-x,-y,1/2+z
x,-y,-z
-x,y,1/2-z
-x,-y,-z
x,y,1/2-z
-x,y,z
x,-y,1/2+z
1/2+x,1/2+y,z
1/2-x,1/2-y,1/2+z
1/2+x,1/2-y,-z
1/2-x,1/2+y,1/2-z
1/2-x,1/2-y,-z
1/2+x,1/2+y,1/2-z
1/2-x,1/2+y,z
1/2+x,1/2-y,1/2+z
loop_
_atom_site_type_symbol
_atom_site_label
_atom_site_fract_x
_atom_site_fract_y
_atom_site_fract_z
Si Si1 0.678820 0.913017 0.085042
Si Si2 0.857016 0.780754 0.579478
Si Si3 0.712121 0.409357 0.420442
Si Si4 0.552408 0.722387 0.920374
Si Si5 0.946290 0.424504 0.595932
O O1 0.673317 0.938349 0.250000
O O2 0.647227 0.825941 0.045366
O O3 0.733078 0.890779 0.048978
O O4 0.660672 0.000000 0.000000
O O5 0.853704 0.800141 0.750000
O O6 0.814791 0.827460 0.494729
O O7 0.906201 0.822240 0.515935
O O8 0.695458 0.500000 0.500000
O O9 0.700671 0.415098 0.250000
O O10 0.562488 0.711594 0.750000
O O11 0.500000 0.682729 0.955908
O O12 0.553963 0.825663 0.971388
O O13 0.920000 0.500000 0.500000
O O14 0.920002 0.423574 0.750000
O O15 0.000000 0.455531 0.619251
#
# Coordination Sequence:
#
# PCOD8259645 Si02
#       5
#    16  16  16  16  16
#     4   9  20  36  55  82 116 151 185 223 268 323
#     4  11  22  35  54  83 114 145 185 229 275 329
#     4  10  20  37  60  84 111 144 181 224 276 331
#     4   9  19  35  51  69  98 139 185 229 274 323
#     4   8  14  25  41  60  84 118 162 210 257 305
#
# _framework density 20.464251000000001
#
# number of rings (size 3 to 8) (size 9 to 14) (size 15 to 20)
#    0.000    2.600    0.000    3.000    0.000    4.400 
#    0.000    6.000    0.000    0.600    0.000    0.000 
#    0.000    0.000    0.000    0.000    0.000    0.000 
#
# Total GULP energy -495701.889620 kJ/mol
# GULP energy per Si atom -12392.547240 kJ/mol
# Density = 2.041767 g / cm^3
# Si number density = 20.464251 Si / 1000 Ang^3
#
#
#
# Elastic Constant Matrix: (Units=GPa)
#
#
# Indices 1 2 3 4 5 6 
#
# 1 110.0261 20.2755 55.6533 0.0000 0.0000 0.0000
# 2 20.2755 42.0163 28.1688 0.0000 0.0000 0.0000
# 3 55.6533 28.1688 99.1456 0.0000 0.0000 0.0000
# 4 0.0000 0.0000 0.0000 34.8192 0.0000 0.0000
# 5 0.0000 0.0000 0.0000 0.0000 28.1395 0.0000
# 6 0.0000 0.0000 0.0000 0.0000 0.0000 3.5018
#
#
#
# Elastic Compliance Matrix: (Units=1/GPa)
#
#
# Indices 1 2 3 4 5 6 
#
# 1 0.012788 -0.001678 -0.006701 0.000000 0.000000 0.000000
# 2 -0.001678 0.029621 -0.007474 0.000000 0.000000 0.000000
# 3 -0.006701 -0.007474 0.015971 0.000000 0.000000 0.000000
# 4 0.000000 0.000000 0.000000 0.028720 0.000000 0.000000
# 5 0.000000 0.000000 0.000000 0.000000 0.035537 0.000000
# 6 0.000000 0.000000 0.000000 0.000000 0.000000 0.285564
#
#
# Mechanical properties :
#
#
# Convention : Reuss Voigt Hill
#
# Bulk Modulus (GPa) = 37.49075 51.04258 44.26666
# Shear Modulus (GPa) = 11.14088 23.09814 17.11951
#
# Velocity S-wave (km/s) = 2.33578 3.36327 2.89547
# Velocity P-wave (km/s) = 5.06304 6.33076 5.73206
#
# Compressibility (1/GPa) = 0.02667325
#
# Stress axis : x y z
#
# Youngs Moduli (GPa) = 78.20057 33.76027 62.61274
#
# Poissons Ratio (x) = 0.05665 0.41959
# Poissons Ratio (y) = 0.13123 0.46795
# Poissons Ratio (z) = 0.52404 0.25231
#
# Static dielectric constant tensor:
#      x y z
#    x 3.755480 0.000000 0.000000 
#    y 0.000000 3.373720 0.000000 
#    z 0.000000 0.000000 3.723770 
# 
# 
# High freq. dielectric constant tensor:
#      x y z
#    x 1.809750 0.000000 0.000000 
#    y 0.000000 1.762590 0.000000 
#    z 0.000000 0.000000 1.801030 
# 
# From -- ./inp_files/14055.got.cif
#   From: 2010.03.12/outbox.cif.g09.slc.cpg/sg63_8_cif.got.tgz:14055.got - 2010.04.10 19:34:48.
