data_PCOD8259861
_publ_section_title
;
Structure prediction by ZEFSAII (Michael W. Deem and Ramdas Pophale) SiO2 
 PCOD8259861
Probable space group: C M C M
;
_chemical_formula_sum "Si O2"
_cell_formula_units_Z 88
_cell_length_a 12.931552
_cell_length_b 14.476976
_cell_length_c 24.745388
_cell_angle_alpha 90.000000
_cell_angle_beta 90.000000
_cell_angle_gamma 90.000000
_cell_volume 4632.578345
_symmetry_space_group_name_H-M "C M C M"
_symmetry_group_IT_number 63
_symmetry_cell_setting 'orthorhombic'
loop_
_space_group_symop_operation_xyz
x,y,z
-x,-y,1/2+z
x,-y,-z
-x,y,1/2-z
-x,-y,-z
x,y,1/2-z
-x,y,z
x,-y,1/2+z
1/2+x,1/2+y,z
1/2-x,1/2-y,1/2+z
1/2+x,1/2-y,-z
1/2-x,1/2+y,1/2-z
1/2-x,1/2-y,-z
1/2+x,1/2+y,1/2-z
1/2-x,1/2+y,z
1/2+x,1/2-y,1/2+z
loop_
_atom_site_type_symbol
_atom_site_label
_atom_site_fract_x
_atom_site_fract_y
_atom_site_fract_z
Si Si1 0.000000 0.398617 0.976347
Si Si2 0.173143 0.285008 0.106892
Si Si3 0.500000 0.933706 0.811738
Si Si4 0.500000 0.271627 0.961249
Si Si5 0.277879 0.464268 0.062093
Si Si6 0.000000 0.923434 0.454795
Si Si7 0.670981 0.127806 0.111310
Si Si8 0.000000 0.349296 0.313303
O O1 0.898471 0.374820 0.942301
O O2 0.000000 0.500000 0.000000
O O3 0.000000 0.338089 0.029862
O O4 0.203303 0.376557 0.072669
O O5 0.275535 0.227053 0.121252
O O6 0.105513 0.211501 0.071710
O O7 0.104976 0.310196 0.159559
O O8 0.500000 0.907056 0.750000
O O9 0.602682 0.889247 0.836156
O O10 0.500000 0.042040 0.822750
O O11 0.500000 0.323507 0.017659
O O12 0.394751 0.434392 0.078818
O O13 0.253062 0.545328 0.104256
O O14 0.268074 0.500000 0.000000
O O15 0.000000 0.000000 0.500000
O O16 0.000000 0.322718 0.250000
#
# Coordination Sequence:
#
# PCOD8259861 Si02
#       8
#     8  16   8   8  16   8  16   8
#     4  11  22  33  53  82 121 159 198 238 271 327
#     4  11  22  36  59  88 115 152 198 244 292 348
#     4  10  22  43  66  87 110 143 194 252 305 357
#     4  11  21  33  49  79 118 152 195 228 267 328
#     4  11  21  35  54  80 122 162 196 231 279 336
#     4  10  21  32  46  71 113 159 187 222 266 329
#     4  11  22  36  59  88 115 154 197 243 293 343
#     4  10  22  43  66  87 112 145 194 252 309 363
#
# _framework density 18.995901
#
# number of rings (size 3 to 8) (size 9 to 14) (size 15 to 20)
#    0.000    1.273    1.818    6.000    2.545    4.364 
#    0.000    0.455    0.000    0.000    0.000    2.545 
#    0.000    0.000    0.000    0.000    0.000    0.000 
#
# Total GULP energy -545421.434994 kJ/mol
# GULP energy per Si atom -12395.941704 kJ/mol
# Density = 1.895267 g / cm^3
# Si number density = 18.995901 Si / 1000 Ang^3
#
#
#
# Elastic Constant Matrix: (Units=GPa)
#
#
# Indices 1 2 3 4 5 6 
#
# 1 132.7329 49.3769 56.1879 0.0000 0.0000 0.0000
# 2 49.3769 105.1823 39.7391 0.0000 0.0000 0.0000
# 3 56.1879 39.7391 93.7732 0.0000 0.0000 0.0000
# 4 0.0000 0.0000 0.0000 23.7033 0.0000 0.0000
# 5 0.0000 0.0000 0.0000 0.0000 15.9527 0.0000
# 6 0.0000 0.0000 0.0000 0.0000 0.0000 -45.4043
#
#
#
# Elastic Compliance Matrix: (Units=1/GPa)
#
#
# Indices 1 2 3 4 5 6 
#
# 1 0.010909 -0.003157 -0.005199 0.000000 0.000000 0.000000
# 2 -0.003157 0.012233 -0.003293 0.000000 0.000000 0.000000
# 3 -0.005199 -0.003293 0.015174 0.000000 0.000000 0.000000
# 4 0.000000 0.000000 0.000000 0.042188 0.000000 0.000000
# 5 0.000000 0.000000 0.000000 0.000000 0.062685 0.000000
# 6 0.000000 0.000000 0.000000 0.000000 0.000000 -0.022024
#
#
# Mechanical properties :
#
#
# Convention : Reuss Voigt Hill
#
# Bulk Modulus (GPa) = 66.57734 69.14404 67.86069
# Shear Modulus (GPa) = 33.45172 11.27597 22.36385
#
# Velocity S-wave (km/s) = 4.20098 2.43903 3.43490
# Velocity P-wave (km/s) = 7.65867 6.66411 7.17864
#
# Compressibility (1/GPa) = 0.01502012
#
# Stress axis : x y z
#
# Youngs Moduli (GPa) = 91.66712 81.74405 65.90063
#
# Poissons Ratio (x) = 0.25807 0.34260
# Poissons Ratio (y) = 0.28940 0.21698
# Poissons Ratio (z) = 0.47655 0.26915
#
# Static dielectric constant tensor:
#      x y z
#    x 4.017700 0.000000 0.000000 
#    y 0.000000 3.422460 0.000000 
#    z 0.000000 0.000000 3.159130 
# 
# 
# High freq. dielectric constant tensor:
#      x y z
#    x 1.761410 0.000000 0.000000 
#    y 0.000000 1.747810 0.000000 
#    z 0.000000 0.000000 1.695030 
# 
# From -- ./inp_files/61339.got.cif
#   From: 2010.03.12/outbox.cif.g09.slc.cpg/sg63_31_cif.got.tgz:61339.got - 2010.04.10 19:34:48.
