data_PCOD8259824
_publ_section_title
;
Structure prediction by ZEFSAII (Michael W. Deem and Ramdas Pophale) SiO2 
 PCOD8259824
Probable space group: C M C M
;
_chemical_formula_sum "Si O2"
_cell_formula_units_Z 96
_cell_length_a 14.355838
_cell_length_b 19.650622
_cell_length_c 17.279368
_cell_angle_alpha 90.000000
_cell_angle_beta 90.000000
_cell_angle_gamma 90.000000
_cell_volume 4874.529515
_symmetry_space_group_name_H-M "C M C M"
_symmetry_group_IT_number 63
_symmetry_cell_setting 'orthorhombic'
loop_
_space_group_symop_operation_xyz
x,y,z
-x,-y,1/2+z
x,-y,-z
-x,y,1/2-z
-x,-y,-z
x,y,1/2-z
-x,y,z
x,-y,1/2+z
1/2+x,1/2+y,z
1/2-x,1/2-y,1/2+z
1/2+x,1/2-y,-z
1/2-x,1/2+y,1/2-z
1/2-x,1/2-y,-z
1/2+x,1/2+y,1/2-z
1/2-x,1/2+y,z
1/2+x,1/2-y,1/2+z
loop_
_atom_site_type_symbol
_atom_site_label
_atom_site_fract_x
_atom_site_fract_y
_atom_site_fract_z
Si Si1 0.674139 0.583412 0.339594
Si Si2 0.000000 0.941116 0.561366
Si Si3 0.311521 0.032208 0.660028
Si Si4 0.500000 0.052483 0.931056
Si Si5 0.678509 0.346961 0.338864
Si Si6 0.500000 0.675959 0.556936
Si Si7 0.500000 0.790835 0.442714
Si Si8 0.166734 0.761229 0.661514
O O1 0.648114 0.576496 0.250000
O O2 0.590228 0.549773 0.385975
O O3 0.768496 0.542036 0.358165
O O4 0.688131 0.661594 0.363791
O O5 0.000000 0.868030 0.521067
O O6 0.000000 0.000000 0.500000
O O7 0.330551 0.043777 0.750000
O O8 0.409275 0.038707 0.619010
O O9 0.239645 0.089720 0.630799
O O10 0.500000 0.129459 0.961987
O O11 0.500000 0.000000 0.000000
O O12 0.647251 0.358248 0.250000
O O13 0.589233 0.340681 0.392228
O O14 0.736648 0.277951 0.347558
O O15 0.500000 0.753459 0.526070
O O16 0.590494 0.771763 0.393469
O O17 0.130179 0.757371 0.750000
#
# Coordination Sequence:
#
# PCOD8259824 Si02
#       8
#    16   8  16   8  16   8   8  16
#     4  10  21  40  64  93 124 162 210 264 320 375
#     4  12  23  37  56  90 128 167 202 250 316 390
#     4  10  22  42  68  91 120 166 217 264 307 366
#     4  12  27  43  62  96 133 169 212 260 318 379
#     4  10  22  41  64  89 119 165 217 261 306 371
#     4  12  25  38  57  93 130 166 199 253 330 385
#     4  12  23  42  63  97 127 166 209 265 324 370
#     4  10  20  39  69  95 119 160 217 270 313 364
#
# _framework density 19.694210000000002
#
# number of rings (size 3 to 8) (size 9 to 14) (size 15 to 20)
#    0.000    1.333    3.333    2.000    0.000    6.000 
#    0.000    3.333    0.000    5.000    0.000    0.000 
#    0.000    0.000    0.000    0.000    0.000    0.000 
#
# Total GULP energy -595386.523351 kJ/mol
# GULP energy per Si atom -12403.885903 kJ/mol
# Density = 1.964938 g / cm^3
# Si number density = 19.694210 Si / 1000 Ang^3
#
#
#
# Elastic Constant Matrix: (Units=GPa)
#
#
# Indices 1 2 3 4 5 6 
#
# 1 144.4829 59.8158 70.2087 0.0000 0.0000 0.0000
# 2 59.8158 153.3171 46.9738 0.0000 0.0000 0.0000
# 3 70.2087 46.9738 75.6357 0.0000 0.0000 0.0000
# 4 0.0000 0.0000 0.0000 34.6775 0.0000 0.0000
# 5 0.0000 0.0000 0.0000 0.0000 29.6698 0.0000
# 6 0.0000 0.0000 0.0000 0.0000 0.0000 28.0195
#
#
#
# Elastic Compliance Matrix: (Units=1/GPa)
#
#
# Indices 1 2 3 4 5 6 
#
# 1 0.012954 -0.001692 -0.010974 0.000000 0.000000 0.000000
# 2 -0.001692 0.008276 -0.003570 0.000000 0.000000 0.000000
# 3 -0.010974 -0.003570 0.025625 0.000000 0.000000 0.000000
# 4 0.000000 0.000000 0.000000 0.028837 0.000000 0.000000
# 5 0.000000 0.000000 0.000000 0.000000 0.033704 0.000000
# 6 0.000000 0.000000 0.000000 0.000000 0.000000 0.035689
#
#
# Mechanical properties :
#
#
# Convention : Reuss Voigt Hill
#
# Bulk Modulus (GPa) = 69.51969 80.82582 75.17275
# Shear Modulus (GPa) = 27.41953 31.56919 29.49436
#
# Velocity S-wave (km/s) = 3.73535 4.00805 3.87410
# Velocity P-wave (km/s) = 7.34711 7.90878 7.63311
#
# Compressibility (1/GPa) = 0.01438441
#
# Stress axis : x y z
#
# Youngs Moduli (GPa) = 77.19452 120.82976 39.02459
#
# Poissons Ratio (x) = 0.20441 0.42826
# Poissons Ratio (y) = 0.13059 0.13930
# Poissons Ratio (z) = 0.84714 0.43131
#
# Static dielectric constant tensor:
#      x y z
#    x 3.540820 0.000000 0.000000 
#    y 0.000000 4.098260 0.000000 
#    z 0.000000 0.000000 3.580340 
# 
# 
# High freq. dielectric constant tensor:
#      x y z
#    x 1.769760 0.000000 0.000000 
#    y 0.000000 1.783320 0.000000 
#    z 0.000000 0.000000 1.765380 
# 
# From -- ./inp_files/32024.got.cif
#   From: 2010.03.12/outbox.cif.g09.slc.cpg/sg63_17_cif.got.tgz:32024.got - 2010.04.10 19:34:48.
