data_PCOD8259262
_publ_section_title
;
Structure prediction by ZEFSAII (Michael W. Deem and Ramdas Pophale) SiO2 
 PCOD8259262
Probable space group: C M C M
;
_chemical_formula_sum "Si O2"
_cell_formula_units_Z 64
_cell_length_a 8.788790
_cell_length_b 26.961563
_cell_length_c 13.396546
_cell_angle_alpha 90.000000
_cell_angle_beta 90.000000
_cell_angle_gamma 90.000000
_cell_volume 3174.439047
_symmetry_space_group_name_H-M "C M C M"
_symmetry_group_IT_number 63
_symmetry_cell_setting 'orthorhombic'
loop_
_space_group_symop_operation_xyz
x,y,z
-x,-y,1/2+z
x,-y,-z
-x,y,1/2-z
-x,-y,-z
x,y,1/2-z
-x,y,z
x,-y,1/2+z
1/2+x,1/2+y,z
1/2-x,1/2-y,1/2+z
1/2+x,1/2-y,-z
1/2-x,1/2+y,1/2-z
1/2-x,1/2-y,-z
1/2+x,1/2+y,1/2-z
1/2-x,1/2+y,z
1/2+x,1/2-y,1/2+z
loop_
_atom_site_type_symbol
_atom_site_label
_atom_site_fract_x
_atom_site_fract_y
_atom_site_fract_z
Si Si1 0.820497 0.766544 0.100080
Si Si2 0.821843 0.408397 0.750000
Si Si3 0.823110 0.628721 0.861738
Si Si4 0.321014 0.695505 0.250000
Si Si5 0.820924 0.553162 0.469255
O O1 0.761190 0.818926 0.138842
O O2 0.763655 0.719446 0.158855
O O3 0.000000 0.769293 0.098328
O O4 0.750000 0.750000 0.000000
O O5 0.708989 0.362596 0.750000
O O6 0.781489 0.437692 0.647521
O O7 0.000000 0.393308 0.750000
O O8 0.799592 0.605093 0.750000
O O9 0.000000 0.639000 0.881394
O O10 0.756460 0.593925 0.951129
O O11 0.500000 0.706479 0.250000
O O12 0.750448 0.500000 0.500000
O O13 0.000000 0.552054 0.485041
#
# Coordination Sequence:
#
# PCOD8259262 Si02
#       5
#    16   8  16   8  16
#     4  12  24  39  61  89 124 164 206 251 303 367
#     4  10  20  36  59  86 121 159 204 257 307 368
#     4  10  20  35  57  86 122 160 204 254 305 363
#     4  12  24  40  61  88 123 163 206 253 307 366
#     4   9  19  34  57  89 119 155 203 256 309 359
#
# _framework density 20.161041999999998
#
# number of rings (size 3 to 8) (size 9 to 14) (size 15 to 20)
#    0.000    1.500    1.250    4.875    1.750    2.000 
#    0.000    0.000    0.000    3.000    0.000    0.000 
#    0.000    0.000    0.000    0.000    0.000    0.000 
#
# Total GULP energy -396444.129735 kJ/mol
# GULP energy per Si atom -12388.879054 kJ/mol
# Density = 2.011515 g / cm^3
# Si number density = 20.161042 Si / 1000 Ang^3
#
#
#
# Elastic Constant Matrix: (Units=GPa)
#
#
# Indices 1 2 3 4 5 6 
#
# 1 82.9684 32.3467 38.2862 0.0000 0.0000 0.0000
# 2 32.3467 118.9713 58.3126 0.0000 0.0000 0.0000
# 3 38.2862 58.3126 184.2654 0.0000 0.0000 0.0000
# 4 0.0000 0.0000 0.0000 42.1876 0.0000 0.0000
# 5 0.0000 0.0000 0.0000 0.0000 -49.7648 0.0000
# 6 0.0000 0.0000 0.0000 0.0000 0.0000 22.7432
#
#
#
# Elastic Compliance Matrix: (Units=1/GPa)
#
#
# Indices 1 2 3 4 5 6 
#
# 1 0.014096 -0.002837 -0.002031 0.000000 0.000000 0.000000
# 2 -0.002837 0.010519 -0.002740 0.000000 0.000000 0.000000
# 3 -0.002031 -0.002740 0.006716 0.000000 0.000000 0.000000
# 4 0.000000 0.000000 0.000000 0.023704 0.000000 0.000000
# 5 0.000000 0.000000 0.000000 0.000000 -0.020095 0.000000
# 6 0.000000 0.000000 0.000000 0.000000 0.000000 0.043969
#
#
# Mechanical properties :
#
#
# Convention : Reuss Voigt Hill
#
# Bulk Modulus (GPa) = 62.04907 71.56624 66.80765
# Shear Modulus (GPa) = 50.25270 20.18382 35.21826
#
# Velocity S-wave (km/s) = 4.99798 3.16750 4.18406
# Velocity P-wave (km/s) = 8.00936 6.99655 7.52003
#
# Compressibility (1/GPa) = 0.01611628
#
# Stress axis : x y z
#
# Youngs Moduli (GPa) = 70.94163 95.06165 148.90014
#
# Poissons Ratio (x) = 0.26969 0.30242
# Poissons Ratio (y) = 0.20126 0.40792
# Poissons Ratio (z) = 0.14409 0.26042
#
# Static dielectric constant tensor:
#      x y z
#    x 3.382550 0.000000 0.000000 
#    y 0.000000 3.489930 0.000000 
#    z 0.000000 0.000000 4.116030 
# 
# 
# High freq. dielectric constant tensor:
#      x y z
#    x 1.754740 0.000000 0.000000 
#    y 0.000000 1.787120 0.000000 
#    z 0.000000 0.000000 1.818820 
# 
# From -- ./inp_files/27532.got.cif
#   From: 2010.03.12/outbox.cif.g09.slc.cpg/sg63_14_cif.got.tgz:27532.got - 2010.04.10 19:34:48.
