data_PCOD8259670
_publ_section_title
;
Structure prediction by ZEFSAII (Michael W. Deem and Ramdas Pophale) SiO2 
 PCOD8259670
Probable space group: C M C M
;
_chemical_formula_sum "Si O2"
_cell_formula_units_Z 96
_cell_length_a 11.304901
_cell_length_b 24.504960
_cell_length_c 18.112026
_cell_angle_alpha 90.000000
_cell_angle_beta 90.000000
_cell_angle_gamma 90.000000
_cell_volume 5017.504774
_symmetry_space_group_name_H-M "C M C M"
_symmetry_group_IT_number 63
_symmetry_cell_setting 'orthorhombic'
loop_
_space_group_symop_operation_xyz
x,y,z
-x,-y,1/2+z
x,-y,-z
-x,y,1/2-z
-x,-y,-z
x,y,1/2-z
-x,y,z
x,-y,1/2+z
1/2+x,1/2+y,z
1/2-x,1/2-y,1/2+z
1/2+x,1/2-y,-z
1/2-x,1/2+y,1/2-z
1/2-x,1/2-y,-z
1/2+x,1/2+y,1/2-z
1/2-x,1/2+y,z
1/2+x,1/2-y,1/2+z
loop_
_atom_site_type_symbol
_atom_site_label
_atom_site_fract_x
_atom_site_fract_y
_atom_site_fract_z
Si Si1 0.500000 0.836987 0.162833
Si Si2 0.232843 0.722102 0.837877
Si Si3 0.500000 0.039779 0.661950
Si Si4 0.361991 0.327347 0.905833
Si Si5 0.135395 0.138989 0.570665
Si Si6 0.735475 0.024671 0.919894
Si Si7 0.361656 0.437601 0.831260
O O1 0.500000 0.835180 0.250000
O O2 0.615185 0.807274 0.132482
O O3 0.500000 0.898222 0.134604
O O4 0.242401 0.726824 0.750000
O O5 0.226876 0.781988 0.873406
O O6 0.340655 0.684962 0.867093
O O7 0.500000 0.032436 0.750000
O O8 0.382640 0.013789 0.627463
O O9 0.500000 0.315646 0.885084
O O10 0.314082 0.383355 0.870737
O O11 0.344555 0.331123 0.993134
O O12 0.222783 0.087434 0.578799
O O13 0.000000 0.118702 0.578304
O O14 0.837314 0.990546 0.880103
O O15 0.712722 0.000000 0.000000
O O16 0.303552 0.443068 0.750000
O O17 0.500000 0.432159 0.823487
#
# Coordination Sequence:
#
# PCOD8259670 Si02
#       7
#     8  16   8  16  16  16  16
#     4   9  18  33  57  87 109 142 190 245 297 337
#     4  11  21  37  62  89 119 153 198 252 300 352
#     4  11  23  41  63  89 119 153 200 253 301 354
#     4  10  20  37  61  88 119 155 200 247 295 354
#     4  11  24  39  60  90 123 161 198 244 304 360
#     4  12  23  40  63  88 122 161 202 248 302 360
#     4  10  21  36  59  92 124 159 203 249 297 354
#
# _framework density 19.133016000000001
#
# number of rings (size 3 to 8) (size 9 to 14) (size 15 to 20)
#    0.000    1.333    4.167    2.250    0.000    2.333 
#    0.000    0.000    1.833    0.000    0.000    0.000 
#    0.000    0.000    0.000    0.000    0.000    0.000 
#
# Total GULP energy -595202.840449 kJ/mol
# GULP energy per Si atom -12400.059176 kJ/mol
# Density = 1.908947 g / cm^3
# Si number density = 19.133016 Si / 1000 Ang^3
#
#
#
# Elastic Constant Matrix: (Units=GPa)
#
#
# Indices 1 2 3 4 5 6 
#
# 1 60.1169 23.1344 35.5641 0.0000 0.0000 0.0000
# 2 23.1344 113.4689 49.7700 0.0000 0.0000 0.0000
# 3 35.5641 49.7700 113.8417 0.0000 0.0000 0.0000
# 4 0.0000 0.0000 0.0000 22.7718 0.0000 0.0000
# 5 0.0000 0.0000 0.0000 0.0000 30.1636 0.0000
# 6 0.0000 0.0000 0.0000 0.0000 0.0000 22.4903
#
#
#
# Elastic Compliance Matrix: (Units=1/GPa)
#
#
# Indices 1 2 3 4 5 6 
#
# 1 0.020670 -0.001710 -0.005710 0.000000 0.000000 0.000000
# 2 -0.001710 0.011045 -0.004295 0.000000 0.000000 0.000000
# 3 -0.005710 -0.004295 0.012445 0.000000 0.000000 0.000000
# 4 0.000000 0.000000 0.000000 0.043914 0.000000 0.000000
# 5 0.000000 0.000000 0.000000 0.000000 0.033153 0.000000
# 6 0.000000 0.000000 0.000000 0.000000 0.000000 0.044464
#
#
# Mechanical properties :
#
#
# Convention : Reuss Voigt Hill
#
# Bulk Modulus (GPa) = 48.23426 56.04050 52.13738
# Shear Modulus (GPa) = 25.50625 27.01575 26.26100
#
# Velocity S-wave (km/s) = 3.65513 3.76173 3.70881
# Velocity P-wave (km/s) = 6.56338 6.94414 6.75644
#
# Compressibility (1/GPa) = 0.02073215
#
# Stress axis : x y z
#
# Youngs Moduli (GPa) = 48.37916 90.53577 80.35059
#
# Poissons Ratio (x) = 0.15480 0.45879
# Poissons Ratio (y) = 0.08272 0.34508
# Poissons Ratio (z) = 0.27624 0.38883
#
# Static dielectric constant tensor:
#      x y z
#    x 3.335160 0.000000 0.000000 
#    y 0.000000 3.517100 0.000000 
#    z 0.000000 0.000000 3.589680 
# 
# 
# High freq. dielectric constant tensor:
#      x y z
#    x 1.723490 0.000000 0.000000 
#    y 0.000000 1.751380 0.000000 
#    z 0.000000 0.000000 1.752210 
# 
# From -- ./inp_files/42570.got.cif
#   From: 2010.03.12/outbox.cif.g09.slc.cpg/sg63_22_cif.got.tgz:42570.got - 2010.04.10 19:34:48.
