data_PCOD8259918
_publ_section_title
;
Structure prediction by ZEFSAII (Michael W. Deem and Ramdas Pophale) SiO2 
 PCOD8259918
Probable space group: C M C M
;
_chemical_formula_sum "Si O2"
_cell_formula_units_Z 72
_cell_length_a 20.826499
_cell_length_b 19.358687
_cell_length_c 9.038937
_cell_angle_alpha 90.000000
_cell_angle_beta 90.000000
_cell_angle_gamma 90.000000
_cell_volume 3644.261452
_symmetry_space_group_name_H-M "C M C M"
_symmetry_group_IT_number 63
_symmetry_cell_setting 'orthorhombic'
loop_
_space_group_symop_operation_xyz
x,y,z
-x,-y,1/2+z
x,-y,-z
-x,y,1/2-z
-x,-y,-z
x,y,1/2-z
-x,y,z
x,-y,1/2+z
1/2+x,1/2+y,z
1/2-x,1/2-y,1/2+z
1/2+x,1/2-y,-z
1/2-x,1/2+y,1/2-z
1/2-x,1/2-y,-z
1/2+x,1/2+y,1/2-z
1/2-x,1/2+y,z
1/2+x,1/2-y,1/2+z
loop_
_atom_site_type_symbol
_atom_site_label
_atom_site_fract_x
_atom_site_fract_y
_atom_site_fract_z
Si Si1 0.617506 0.156741 0.573977
Si Si2 0.759893 0.321693 0.919401
Si Si3 0.382518 0.682621 0.084482
Si Si4 0.500000 0.924159 0.570616
Si Si5 0.573096 0.561391 0.908427
O O1 0.613838 0.142860 0.750000
O O2 0.687138 0.132812 0.508883
O O3 0.612654 0.237774 0.533151
O O4 0.562534 0.115533 0.488495
O O5 0.782939 0.311343 0.750000
O O6 0.688280 0.353037 0.923452
O O7 0.750000 0.250000 0.000000
O O8 0.409312 0.678889 0.250000
O O9 0.427283 0.636325 0.983305
O O10 0.500000 0.927554 0.750000
O O11 0.500000 0.000000 0.500000
O O12 0.608388 0.566461 0.750000
O O13 0.500000 0.539587 0.883731
O O14 0.607707 0.500000 0.000000
#
# Coordination Sequence:
#
# PCOD8259918 Si02
#       5
#    16  16  16   8  16
#     4  10  21  38  60  87 116 149 188 233 288 343
#     4   9  17  32  54  83 115 149 187 233 288 339
#     4   9  19  34  56  84 115 148 185 231 279 332
#     4  12  26  44  64  86 117 154 193 242 294 352
#     4  10  21  35  51  74 107 147 187 227 274 326
#
# _framework density 19.757089000000001
#
# number of rings (size 3 to 8) (size 9 to 14) (size 15 to 20)
#    0.000    2.222    0.000    4.333    1.556    6.667 
#    0.000    1.111    0.000    5.333    0.000    0.000 
#    0.000    0.000    0.000    0.000    0.000    0.000 
#
# Total GULP energy -446013.527418 kJ/mol
# GULP energy per Si atom -12389.264650 kJ/mol
# Density = 1.971212 g / cm^3
# Si number density = 19.757089 Si / 1000 Ang^3
#
#
#
# Elastic Constant Matrix: (Units=GPa)
#
#
# Indices 1 2 3 4 5 6 
#
# 1 87.4842 34.3098 44.9034 0.0000 0.0000 0.0000
# 2 34.3098 97.0493 58.4343 0.0000 0.0000 0.0000
# 3 44.9034 58.4343 147.8797 0.0000 0.0000 0.0000
# 4 0.0000 0.0000 0.0000 29.4324 0.0000 0.0000
# 5 0.0000 0.0000 0.0000 0.0000 34.0057 0.0000
# 6 0.0000 0.0000 0.0000 0.0000 0.0000 5.3548
#
#
#
# Elastic Compliance Matrix: (Units=1/GPa)
#
#
# Indices 1 2 3 4 5 6 
#
# 1 0.014257 -0.003194 -0.003067 0.000000 0.000000 0.000000
# 2 -0.003194 0.014236 -0.004656 0.000000 0.000000 0.000000
# 3 -0.003067 -0.004656 0.009533 0.000000 0.000000 0.000000
# 4 0.000000 0.000000 0.000000 0.033976 0.000000 0.000000
# 5 0.000000 0.000000 0.000000 0.000000 0.029407 0.000000
# 6 0.000000 0.000000 0.000000 0.000000 0.000000 0.186747
#
#
# Mechanical properties :
#
#
# Convention : Reuss Voigt Hill
#
# Bulk Modulus (GPa) = 61.75167 67.52312 64.63740
# Shear Modulus (GPa) = 15.85347 26.74296 21.29821
#
# Velocity S-wave (km/s) = 2.83577 3.68311 3.28686
# Velocity P-wave (km/s) = 6.48425 7.23449 6.86962
#
# Compressibility (1/GPa) = 0.01619389
#
# Stress axis : x y z
#
# Youngs Moduli (GPa) = 70.13860 70.24286 104.89506
#
# Poissons Ratio (x) = 0.22433 0.32175
# Poissons Ratio (y) = 0.22399 0.48836
# Poissons Ratio (z) = 0.21514 0.32703
#
# Static dielectric constant tensor:
#      x y z
#    x 4.588420 0.000000 0.000000 
#    y 0.000000 3.273550 0.000000 
#    z 0.000000 0.000000 3.967760 
# 
# 
# High freq. dielectric constant tensor:
#      x y z
#    x 1.764710 0.000000 0.000000 
#    y 0.000000 1.738100 0.000000 
#    z 0.000000 0.000000 1.790480 
# 
# From -- ./inp_files/7811.got.cif
#   From: 2010.03.12/outbox.cif.g09.slc.cpg/sg63_4_cif.got.tgz:7811.got - 2010.04.10 19:34:48.
