data_PCOD8259701
_publ_section_title
;
Structure prediction by ZEFSAII (Michael W. Deem and Ramdas Pophale) SiO2 
 PCOD8259701
Probable space group: C M C M
;
_chemical_formula_sum "Si O2"
_cell_formula_units_Z 80
_cell_length_a 11.281375
_cell_length_b 22.257477
_cell_length_c 15.468422
_cell_angle_alpha 90.000000
_cell_angle_beta 90.000000
_cell_angle_gamma 90.000000
_cell_volume 3884.042565
_symmetry_space_group_name_H-M "C M C M"
_symmetry_group_IT_number 63
_symmetry_cell_setting 'orthorhombic'
loop_
_space_group_symop_operation_xyz
x,y,z
-x,-y,1/2+z
x,-y,-z
-x,y,1/2-z
-x,-y,-z
x,y,1/2-z
-x,y,z
x,-y,1/2+z
1/2+x,1/2+y,z
1/2-x,1/2-y,1/2+z
1/2+x,1/2-y,-z
1/2-x,1/2+y,1/2-z
1/2-x,1/2-y,-z
1/2+x,1/2+y,1/2-z
1/2-x,1/2+y,z
1/2+x,1/2-y,1/2+z
loop_
_atom_site_type_symbol
_atom_site_label
_atom_site_fract_x
_atom_site_fract_y
_atom_site_fract_z
Si Si1 0.500000 0.381707 0.921184
Si Si2 0.863497 0.380266 0.750000
Si Si3 0.364964 0.112664 0.750000
Si Si4 0.204487 0.996450 0.750000
Si Si5 0.000000 0.150226 0.601331
Si Si6 0.233592 0.174936 0.403323
Si Si7 0.500000 0.508977 0.881513
Si Si8 0.754730 0.314331 0.398633
O O1 0.380540 0.363607 0.869974
O O2 0.500000 0.453393 0.951362
O O3 0.500000 0.334098 0.000152
O O4 0.794337 0.442134 0.750000
O O5 0.837676 0.342330 0.662759
O O6 0.000000 0.396815 0.750000
O O7 0.500000 0.090487 0.750000
O O8 0.278196 0.057054 0.750000
O O9 0.344444 0.151071 0.663247
O O10 0.120738 0.994319 0.667546
O O11 0.120516 0.177381 0.641138
O O12 0.000000 0.078462 0.598222
O O13 0.207767 0.245378 0.396436
O O14 0.265393 0.159031 0.503584
#
# Coordination Sequence:
#
# PCOD8259701 Si02
#       8
#     8   8   8   8   8  16   8  16
#     4  10  20  37  66  95 123 160 207 264 317 368
#     4  12  25  42  63  89 124 172 209 250 308 372
#     4  12  25  42  63  89 124 172 209 250 308 372
#     4  11  23  40  60  90 123 161 208 262 312 367
#     4  10  20  37  66  95 123 160 207 264 317 368
#     4  10  23  42  64  94 128 162 207 258 312 374
#     4  11  19  38  66  88 125 163 200 271 317 360
#     4  10  23  42  64  94 128 162 207 258 312 374
#
# _framework density 20.597096000000001
#
# number of rings (size 3 to 8) (size 9 to 14) (size 15 to 20)
#    0.000    1.400    4.000    1.200    2.800    1.600 
#    0.000    1.000    0.000    2.400    0.000    0.000 
#    0.000    0.000    0.000    0.000    0.000    0.000 
#
# Total GULP energy -495660.475670 kJ/mol
# GULP energy per Si atom -12391.511892 kJ/mol
# Density = 2.055022 g / cm^3
# Si number density = 20.597096 Si / 1000 Ang^3
#
#
#
# Elastic Constant Matrix: (Units=GPa)
#
#
# Indices 1 2 3 4 5 6 
#
# 1 112.4184 29.0667 18.3941 0.0000 0.0000 0.0000
# 2 29.0667 113.1640 19.5149 0.0000 0.0000 0.0000
# 3 18.3941 19.5149 83.3574 0.0000 0.0000 0.0000
# 4 0.0000 0.0000 0.0000 23.5410 0.0000 0.0000
# 5 0.0000 0.0000 0.0000 0.0000 15.0427 0.0000
# 6 0.0000 0.0000 0.0000 0.0000 0.0000 34.5171
#
#
#
# Elastic Compliance Matrix: (Units=1/GPa)
#
#
# Indices 1 2 3 4 5 6 
#
# 1 0.009736 -0.002220 -0.001629 0.000000 0.000000 0.000000
# 2 -0.002220 0.009715 -0.001784 0.000000 0.000000 0.000000
# 3 -0.001629 -0.001784 0.012774 0.000000 0.000000 0.000000
# 4 0.000000 0.000000 0.000000 0.042479 0.000000 0.000000
# 5 0.000000 0.000000 0.000000 0.000000 0.066478 0.000000
# 6 0.000000 0.000000 0.000000 0.000000 0.000000 0.028971
#
#
# Mechanical properties :
#
#
# Convention : Reuss Voigt Hill
#
# Bulk Modulus (GPa) = 47.71405 49.21015 48.46210
# Shear Modulus (GPa) = 26.53875 30.75110 28.64492
#
# Velocity S-wave (km/s) = 3.59342 3.86810 3.73329
# Velocity P-wave (km/s) = 6.35866 6.62520 6.49330
#
# Compressibility (1/GPa) = 0.02095819
#
# Stress axis : x y z
#
# Youngs Moduli (GPa) = 102.71389 102.93755 78.28592
#
# Poissons Ratio (x) = 0.22850 0.12750
# Poissons Ratio (y) = 0.22801 0.13970
# Poissons Ratio (z) = 0.16729 0.18369
#
# Static dielectric constant tensor:
#      x y z
#    x 3.778730 0.000000 0.000000 
#    y 0.000000 3.719050 0.000000 
#    z 0.000000 0.000000 3.138830 
# 
# 
# High freq. dielectric constant tensor:
#      x y z
#    x 1.802070 0.000000 0.000000 
#    y 0.000000 1.815600 0.000000 
#    z 0.000000 0.000000 1.802020 
# 
# From -- ./inp_files/42244.got.cif
#   From: 2010.03.12/outbox.cif.g09.slc.cpg/sg63_22_cif.got.tgz:42244.got - 2010.04.10 19:34:48.
