data_PCOD8259821
_publ_section_title
;
Structure prediction by ZEFSAII (Michael W. Deem and Ramdas Pophale) SiO2 
 PCOD8259821
Probable space group: C M C M
;
_chemical_formula_sum "Si O2"
_cell_formula_units_Z 64
_cell_length_a 15.164694
_cell_length_b 11.929928
_cell_length_c 17.670135
_cell_angle_alpha 90.000000
_cell_angle_beta 90.000000
_cell_angle_gamma 90.000000
_cell_volume 3196.769636
_symmetry_space_group_name_H-M "C M C M"
_symmetry_group_IT_number 63
_symmetry_cell_setting 'orthorhombic'
loop_
_space_group_symop_operation_xyz
x,y,z
-x,-y,1/2+z
x,-y,-z
-x,y,1/2-z
-x,-y,-z
x,y,1/2-z
-x,y,z
x,-y,1/2+z
1/2+x,1/2+y,z
1/2-x,1/2-y,1/2+z
1/2+x,1/2-y,-z
1/2-x,1/2+y,1/2-z
1/2-x,1/2-y,-z
1/2+x,1/2+y,1/2-z
1/2-x,1/2+y,z
1/2+x,1/2-y,1/2+z
loop_
_atom_site_type_symbol
_atom_site_label
_atom_site_fract_x
_atom_site_fract_y
_atom_site_fract_z
Si Si1 0.661947 0.485348 0.088221
Si Si2 0.000000 0.369726 0.339763
Si Si3 0.500000 0.385452 0.660169
Si Si4 0.601018 0.276426 0.334789
Si Si5 0.654938 0.971253 0.661328
O O1 0.587783 0.554948 0.131691
O O2 0.656490 0.353629 0.108375
O O3 0.756917 0.528742 0.112628
O O4 0.647361 0.500000 0.000000
O O5 0.911663 0.432614 0.368358
O O6 0.000000 0.375967 0.250000
O O7 0.000000 0.242722 0.369932
O O8 0.500000 0.388588 0.750000
O O9 0.637161 0.297226 0.250000
O O10 0.500000 0.313682 0.340400
O O11 0.608953 0.146851 0.356003
O O12 0.676922 0.986165 0.750000
#
# Coordination Sequence:
#
# PCOD8259821 Si02
#       5
#    16   8   8  16  16
#     4  12  26  41  59  91 130 167 203 249 311 375
#     4   9  20  40  66  94 121 150 201 262 311 355
#     4  11  23  42  65  91 121 160 207 258 310 363
#     4  10  20  39  67  90 116 160 213 257 297 360
#     4  10  21  41  66  93 120 157 207 260 308 361
#
# _framework density 20.020209000000001
#
# number of rings (size 3 to 8) (size 9 to 14) (size 15 to 20)
#    0.000    1.500    2.500    2.625    3.500    1.000 
#    0.000    0.625    0.000    0.000    0.000    0.000 
#    0.000    0.000    0.000    0.000    0.000    0.000 
#
# Total GULP energy -396904.507927 kJ/mol
# GULP energy per Si atom -12403.265873 kJ/mol
# Density = 1.997464 g / cm^3
# Si number density = 20.020209 Si / 1000 Ang^3
#
#
#
# Elastic Constant Matrix: (Units=GPa)
#
#
# Indices 1 2 3 4 5 6 
#
# 1 116.5642 36.8834 32.6983 0.0000 0.0000 0.0000
# 2 36.8834 115.2780 36.6281 0.0000 0.0000 0.0000
# 3 32.6983 36.6281 78.6144 0.0000 0.0000 0.0000
# 4 0.0000 0.0000 0.0000 6.1405 0.0000 0.0000
# 5 0.0000 0.0000 0.0000 0.0000 -13.2065 0.0000
# 6 0.0000 0.0000 0.0000 0.0000 0.0000 28.6084
#
#
#
# Elastic Compliance Matrix: (Units=1/GPa)
#
#
# Indices 1 2 3 4 5 6 
#
# 1 0.010184 -0.002245 -0.003190 0.000000 0.000000 0.000000
# 2 -0.002245 0.010677 -0.004041 0.000000 0.000000 0.000000
# 3 -0.003190 -0.004041 0.015930 0.000000 0.000000 0.000000
# 4 0.000000 0.000000 0.000000 0.162854 0.000000 0.000000
# 5 0.000000 0.000000 0.000000 0.000000 -0.075720 0.000000
# 6 0.000000 0.000000 0.000000 0.000000 0.000000 0.034955
#
#
# Mechanical properties :
#
#
# Convention : Reuss Voigt Hill
#
# Bulk Modulus (GPa) = 56.05558 58.09736 57.07647
# Shear Modulus (GPa) = 27.20686 17.92492 22.56589
#
# Velocity S-wave (km/s) = 3.69042 2.99547 3.36096
# Velocity P-wave (km/s) = 6.79847 6.40673 6.60550
#
# Compressibility (1/GPa) = 0.01783944
#
# Stress axis : x y z
#
# Youngs Moduli (GPa) = 98.19203 93.66042 62.77515
#
# Poissons Ratio (x) = 0.21025 0.20025
# Poissons Ratio (y) = 0.22043 0.25367
# Poissons Ratio (z) = 0.31323 0.37847
#
# Static dielectric constant tensor:
#      x y z
#    x 3.690370 0.000000 0.000000 
#    y 0.000000 3.885640 0.000000 
#    z 0.000000 0.000000 3.402300 
# 
# 
# High freq. dielectric constant tensor:
#      x y z
#    x 1.789320 0.000000 0.000000 
#    y 0.000000 1.797880 0.000000 
#    z 0.000000 0.000000 1.753960 
# 
# From -- ./inp_files/43465.got.cif
#   From: 2010.03.12/outbox.cif.g09.slc.cpg/sg63_22_cif.got.tgz:43465.got - 2010.04.10 19:34:48.
