data_PCOD8259816
_publ_section_title
;
Structure prediction by ZEFSAII (Michael W. Deem and Ramdas Pophale) SiO2 
 PCOD8259816
Probable space group: C M C M
;
_chemical_formula_sum "Si O2"
_cell_formula_units_Z 80
_cell_length_a 8.531395
_cell_length_b 20.144565
_cell_length_c 22.684498
_cell_angle_alpha 90.000000
_cell_angle_beta 90.000000
_cell_angle_gamma 90.000000
_cell_volume 3898.585980
_symmetry_space_group_name_H-M "C M C M"
_symmetry_group_IT_number 63
_symmetry_cell_setting 'orthorhombic'
loop_
_space_group_symop_operation_xyz
x,y,z
-x,-y,1/2+z
x,-y,-z
-x,y,1/2-z
-x,-y,-z
x,y,1/2-z
-x,y,z
x,-y,1/2+z
1/2+x,1/2+y,z
1/2-x,1/2-y,1/2+z
1/2+x,1/2-y,-z
1/2-x,1/2+y,1/2-z
1/2-x,1/2-y,-z
1/2+x,1/2+y,1/2-z
1/2-x,1/2+y,z
1/2+x,1/2-y,1/2+z
loop_
_atom_site_type_symbol
_atom_site_label
_atom_site_fract_x
_atom_site_fract_y
_atom_site_fract_z
Si Si1 0.318383 0.857588 0.557453
Si Si2 0.680777 0.619289 0.567905
Si Si3 0.181207 0.491624 0.876960
Si Si4 0.815969 0.741742 0.870708
Si Si5 0.316883 0.697330 0.250000
Si Si6 0.320974 0.055045 0.250000
O O1 0.500000 0.840429 0.566775
O O2 0.287487 0.870942 0.489203
O O3 0.269110 0.921426 0.595396
O O4 0.216401 0.795218 0.578237
O O5 0.500000 0.625993 0.550139
O O6 0.709586 0.547038 0.594832
O O7 0.726414 0.673635 0.616433
O O8 0.213474 0.489835 0.807044
O O9 0.000000 0.507721 0.891024
O O10 0.746938 0.768761 0.808723
O O11 0.000000 0.727283 0.867819
O O12 0.500000 0.708822 0.250000
O O13 0.286468 0.619371 0.250000
O O14 0.500000 0.080337 0.250000
#
# Coordination Sequence:
#
# PCOD8259816 Si02
#       6
#    16  16  16  16   8   8
#     4  11  22  40  66  92 122 160 205 251 301 363
#     4  12  26  41  59  88 126 164 205 253 305 357
#     4  10  22  40  64  92 123 160 200 246 303 362
#     4  11  23  41  64  91 124 161 202 249 304 361
#     4  10  22  39  64  93 121 155 199 251 300 357
#     4  10  20  39  66  93 121 157 199 247 300 365
#
# _framework density 20.52026
#
# number of rings (size 3 to 8) (size 9 to 14) (size 15 to 20)
#    0.000    1.200    2.000    4.200    0.000    6.400 
#    0.000    4.000    0.000    0.000    0.000    0.000 
#    0.000    0.000    0.000    0.000    0.000    0.000 
#
# Total GULP energy -496301.342838 kJ/mol
# GULP energy per Si atom -12407.533571 kJ/mol
# Density = 2.047355 g / cm^3
# Si number density = 20.520260 Si / 1000 Ang^3
#
#
#
# Elastic Constant Matrix: (Units=GPa)
#
#
# Indices 1 2 3 4 5 6 
#
# 1 53.1170 29.0243 10.5827 0.0000 0.0000 0.0000
# 2 29.0243 67.9065 4.3446 0.0000 0.0000 0.0000
# 3 10.5827 4.3446 98.1306 0.0000 0.0000 0.0000
# 4 0.0000 0.0000 0.0000 20.9700 0.0000 0.0000
# 5 0.0000 0.0000 0.0000 0.0000 24.3231 0.0000
# 6 0.0000 0.0000 0.0000 0.0000 0.0000 37.3196
#
#
#
# Elastic Compliance Matrix: (Units=1/GPa)
#
#
# Indices 1 2 3 4 5 6 
#
# 1 0.025042 -0.010560 -0.002233 0.000000 0.000000 0.000000
# 2 -0.010560 0.019221 0.000288 0.000000 0.000000 0.000000
# 3 -0.002233 0.000288 0.010419 0.000000 0.000000 0.000000
# 4 0.000000 0.000000 0.000000 0.047687 0.000000 0.000000
# 5 0.000000 0.000000 0.000000 0.000000 0.041113 0.000000
# 6 0.000000 0.000000 0.000000 0.000000 0.000000 0.026796
#
#
# Mechanical properties :
#
#
# Convention : Reuss Voigt Hill
#
# Bulk Modulus (GPa) = 33.70337 34.11746 33.91041
# Shear Modulus (GPa) = 24.36900 28.20271 26.28586
#
# Velocity S-wave (km/s) = 3.44984 3.71129 3.58295
# Velocity P-wave (km/s) = 5.68582 5.91838 5.80327
#
# Compressibility (1/GPa) = 0.02967062
#
# Stress axis : x y z
#
# Youngs Moduli (GPa) = 39.93349 52.02543 95.98243
#
# Poissons Ratio (x) = 0.54941 0.21433
# Poissons Ratio (y) = 0.42171 -0.02763
# Poissons Ratio (z) = 0.08917 -0.01498
#
# Static dielectric constant tensor:
#      x y z
#    x 3.568980 0.000000 0.000000 
#    y 0.000000 3.637830 0.000000 
#    z 0.000000 0.000000 3.963790 
# 
# 
# High freq. dielectric constant tensor:
#      x y z
#    x 1.796450 0.000000 0.000000 
#    y 0.000000 1.803900 0.000000 
#    z 0.000000 0.000000 1.816590 
# 
# From -- ./inp_files/66702.got.cif
#   From: 2010.03.12/outbox.cif.g09.slc.cpg/sg63_34_cif.got.tgz:66702.got - 2010.04.10 19:34:48.
