data_PCOD8259189
_publ_section_title
;
Structure prediction by ZEFSAII (Michael W. Deem and Ramdas Pophale) SiO2 
 PCOD8259189
Probable space group: C M C M
;
_chemical_formula_sum "Si O2"
_cell_formula_units_Z 80
_cell_length_a 18.245384
_cell_length_b 25.956907
_cell_length_c 8.942604
_cell_angle_alpha 90.000000
_cell_angle_beta 90.000000
_cell_angle_gamma 90.000000
_cell_volume 4235.161235
_symmetry_space_group_name_H-M "C M C M"
_symmetry_group_IT_number 63
_symmetry_cell_setting 'orthorhombic'
loop_
_space_group_symop_operation_xyz
x,y,z
-x,-y,1/2+z
x,-y,-z
-x,y,1/2-z
-x,-y,-z
x,y,1/2-z
-x,y,z
x,-y,1/2+z
1/2+x,1/2+y,z
1/2-x,1/2-y,1/2+z
1/2+x,1/2-y,-z
1/2-x,1/2+y,1/2-z
1/2-x,1/2-y,-z
1/2+x,1/2+y,1/2-z
1/2-x,1/2+y,z
1/2+x,1/2-y,1/2+z
loop_
_atom_site_type_symbol
_atom_site_label
_atom_site_fract_x
_atom_site_fract_y
_atom_site_fract_z
Si Si1 0.413639 0.844957 0.076331
Si Si2 0.086833 0.951646 0.585944
Si Si3 0.914362 0.837741 0.924101
Si Si4 0.087153 0.449190 0.581202
Si Si5 0.171096 0.252044 0.926962
O O1 0.392266 0.842188 0.250000
O O2 0.500000 0.837560 0.052937
O O3 0.386538 0.899450 0.011038
O O4 0.373148 0.800613 0.987019
O O5 0.121093 0.954004 0.750000
O O6 0.105354 0.895494 0.517820
O O7 0.000000 0.958041 0.593569
O O8 0.122539 0.000000 0.500000
O O9 0.892248 0.830594 0.750000
O O10 0.000000 0.826444 0.942761
O O11 0.870802 0.799827 0.030407
O O12 0.118814 0.500000 0.500000
O O13 0.118137 0.446439 0.750000
O O14 0.000000 0.451688 0.584184
O O15 0.178374 0.256268 0.750000
O O16 0.250000 0.250000 0.000000
#
# Coordination Sequence:
#
# PCOD8259189 Si02
#       5
#    16  16  16  16  16
#     4  10  20  35  56  81 109 140 174 215 263 314
#     4   8  14  25  44  72 105 137 167 203 248 296
#     4   9  18  34  55  79 108 140 173 212 259 308
#     4   9  16  27  46  75 109 141 174 213 257 305
#     4  12  25  39  55  75 102 137 177 220 267 317
#
# _framework density 18.889482000000001
#
# number of rings (size 3 to 8) (size 9 to 14) (size 15 to 20)
#    0.000    2.400    0.000    4.800    0.000    7.200 
#    0.000    2.000    0.000    1.200    0.000    5.600 
#    0.000    0.000    0.000    0.000    0.000    0.000 
#
# Total GULP energy -495873.368921 kJ/mol
# GULP energy per Si atom -12396.834223 kJ/mol
# Density = 1.884649 g / cm^3
# Si number density = 18.889482 Si / 1000 Ang^3
#
#
#
# Elastic Constant Matrix: (Units=GPa)
#
#
# Indices 1 2 3 4 5 6 
#
# 1 41.9631 47.7913 44.6362 0.0000 0.0000 0.0000
# 2 47.7913 185.9726 89.6342 0.0000 0.0000 0.0000
# 3 44.6362 89.6342 155.5408 0.0000 0.0000 0.0000
# 4 0.0000 0.0000 0.0000 43.1537 0.0000 0.0000
# 5 0.0000 0.0000 0.0000 0.0000 23.0033 0.0000
# 6 0.0000 0.0000 0.0000 0.0000 0.0000 -7.2678
#
#
#
# Elastic Compliance Matrix: (Units=1/GPa)
#
#
# Indices 1 2 3 4 5 6 
#
# 1 0.039173 -0.006436 -0.007533 0.000000 0.000000 0.000000
# 2 -0.006436 0.008502 -0.003053 0.000000 0.000000 0.000000
# 3 -0.007533 -0.003053 0.010350 0.000000 0.000000 0.000000
# 4 0.000000 0.000000 0.000000 0.023173 0.000000 0.000000
# 5 0.000000 0.000000 0.000000 0.000000 0.043472 0.000000
# 6 0.000000 0.000000 0.000000 0.000000 0.000000 -0.137593
#
#
# Mechanical properties :
#
#
# Convention : Reuss Voigt Hill
#
# Bulk Modulus (GPa) = 41.69719 83.06665 62.38192
# Shear Modulus (GPa) = 171.73735 25.20551 98.47143
#
# Velocity S-wave (km/s) = 9.54538 3.65686 7.22796
# Velocity P-wave (km/s) = 11.98365 7.86770 10.13678
#
# Compressibility (1/GPa) = 0.02398243
#
# Stress axis : x y z
#
# Youngs Moduli (GPa) = 25.52783 117.61328 96.61777
#
# Poissons Ratio (x) = 0.75697 0.72779
# Poissons Ratio (y) = 0.16430 0.29495
# Poissons Ratio (z) = 0.19229 0.35904
#
# Static dielectric constant tensor:
#      x y z
#    x 3.082390 0.000000 0.000000 
#    y 0.000000 3.797800 0.000000 
#    z 0.000000 0.000000 3.731980 
# 
# 
# High freq. dielectric constant tensor:
#      x y z
#    x 1.681720 0.000000 0.000000 
#    y 0.000000 1.757800 0.000000 
#    z 0.000000 0.000000 1.739310 
# 
# From -- ./inp_files/6409.got.cif
#   From: 2010.03.12/outbox.cif.g09.slc.cpg/sg63_4_cif.got.tgz:6409.got - 2010.04.10 19:34:48.
