data_PCOD8259685
_publ_section_title
;
Structure prediction by ZEFSAII (Michael W. Deem and Ramdas Pophale) SiO2 
 PCOD8259685
Probable space group: C M C M
;
_chemical_formula_sum "Si O2"
_cell_formula_units_Z 48
_cell_length_a 12.914427
_cell_length_b 22.277144
_cell_length_c 8.623572
_cell_angle_alpha 90.000000
_cell_angle_beta 90.000000
_cell_angle_gamma 90.000000
_cell_volume 2480.971913
_symmetry_space_group_name_H-M "C M C M"
_symmetry_group_IT_number 63
_symmetry_cell_setting 'orthorhombic'
loop_
_space_group_symop_operation_xyz
x,y,z
-x,-y,1/2+z
x,-y,-z
-x,y,1/2-z
-x,-y,-z
x,y,1/2-z
-x,y,z
x,-y,1/2+z
1/2+x,1/2+y,z
1/2-x,1/2-y,1/2+z
1/2+x,1/2-y,-z
1/2-x,1/2+y,1/2-z
1/2-x,1/2-y,-z
1/2+x,1/2+y,1/2-z
1/2-x,1/2+y,z
1/2+x,1/2-y,1/2+z
loop_
_atom_site_type_symbol
_atom_site_label
_atom_site_fract_x
_atom_site_fract_y
_atom_site_fract_z
Si Si1 0.000000 0.139516 0.568186
Si Si2 0.685338 0.564976 0.433356
Si Si3 0.000000 0.268345 0.070339
Si Si4 0.387430 0.869291 0.573588
O O1 0.101457 0.111518 0.492721
O O2 0.000000 0.126930 0.750000
O O3 0.000000 0.209837 0.534994
O O4 0.661110 0.500000 0.500000
O O5 0.680431 0.560861 0.250000
O O6 0.798007 0.587592 0.492666
O O7 0.000000 0.250546 0.250000
O O8 0.102465 0.307909 0.027402
O O9 0.360266 0.850912 0.750000
O O10 0.500000 0.902927 0.566796
#
# Coordination Sequence:
#
# PCOD8259685 Si02
#       4
#     8  16   8  16
#     4  12  25  41  60  83 118 158 199 240 290 348
#     4  11  23  40  62  87 119 155 197 241 287 344
#     4  10  20  37  62  91 118 148 193 242 293 346
#     4   8  18  39  61  87 119 153 190 235 290 347
#
# _framework density 19.347256000000002
#
# number of rings (size 3 to 8) (size 9 to 14) (size 15 to 20)
#    1.000    1.000    0.000    4.000    0.000    4.667 
#    0.000    0.000    0.000    0.000    0.000    0.000 
#    0.000    0.000    0.000    0.000    0.000    0.000 
#
# Total GULP energy -297457.964487 kJ/mol
# GULP energy per Si atom -12394.081854 kJ/mol
# Density = 1.930322 g / cm^3
# Si number density = 19.347256 Si / 1000 Ang^3
#
#
#
# Elastic Constant Matrix: (Units=GPa)
#
#
# Indices 1 2 3 4 5 6 
#
# 1 97.3007 14.5006 31.6285 0.0000 0.0000 0.0000
# 2 14.5006 69.3398 22.6012 0.0000 0.0000 0.0000
# 3 31.6285 22.6012 76.6562 0.0000 0.0000 0.0000
# 4 0.0000 0.0000 0.0000 27.9627 0.0000 0.0000
# 5 0.0000 0.0000 0.0000 0.0000 10.7738 0.0000
# 6 0.0000 0.0000 0.0000 0.0000 0.0000 42.2305
#
#
#
# Elastic Compliance Matrix: (Units=1/GPa)
#
#
# Indices 1 2 3 4 5 6 
#
# 1 0.011930 -0.000985 -0.004632 0.000000 0.000000 0.000000
# 2 -0.000985 0.016036 -0.004322 0.000000 0.000000 0.000000
# 3 -0.004632 -0.004322 0.016231 0.000000 0.000000 0.000000
# 4 0.000000 0.000000 0.000000 0.035762 0.000000 0.000000
# 5 0.000000 0.000000 0.000000 0.000000 0.092818 0.000000
# 6 0.000000 0.000000 0.000000 0.000000 0.000000 0.023680
#
#
# Mechanical properties :
#
#
# Convention : Reuss Voigt Hill
#
# Bulk Modulus (GPa) = 41.11917 42.30639 41.71278
# Shear Modulus (GPa) = 22.27766 27.83115 25.05440
#
# Velocity S-wave (km/s) = 3.39700 3.79688 3.60249
# Velocity P-wave (km/s) = 6.05686 6.41374 6.23785
#
# Compressibility (1/GPa) = 0.02431956
#
# Stress axis : x y z
#
# Youngs Moduli (GPa) = 83.82337 62.35816 61.61205
#
# Poissons Ratio (x) = 0.06143 0.28538
# Poissons Ratio (y) = 0.08257 0.26627
# Poissons Ratio (z) = 0.38826 0.26949
#
# Static dielectric constant tensor:
#      x y z
#    x 3.688470 0.000000 0.000000 
#    y 0.000000 3.388880 0.000000 
#    z 0.000000 0.000000 3.475970 
# 
# 
# High freq. dielectric constant tensor:
#      x y z
#    x 1.754160 0.000000 0.000000 
#    y 0.000000 1.744310 0.000000 
#    z 0.000000 0.000000 1.756950 
# 
# From -- ./inp_files/3844.got.cif
#   From: 2010.03.12/outbox.cif.g09.slc.cpg/sg63_2_cif.got.tgz:3844.got - 2010.04.10 19:34:48.
