data_PCOD8259832
_publ_section_title
;
Structure prediction by ZEFSAII (Michael W. Deem and Ramdas Pophale) SiO2 
 PCOD8259832
Probable space group: C M C M
;
_chemical_formula_sum "Si O2"
_cell_formula_units_Z 80
_cell_length_a 24.974379
_cell_length_b 9.359365
_cell_length_c 18.629559
_cell_angle_alpha 90.000000
_cell_angle_beta 90.000000
_cell_angle_gamma 90.000000
_cell_volume 4354.553763
_symmetry_space_group_name_H-M "C M C M"
_symmetry_group_IT_number 63
_symmetry_cell_setting 'orthorhombic'
loop_
_space_group_symop_operation_xyz
x,y,z
-x,-y,1/2+z
x,-y,-z
-x,y,1/2-z
-x,-y,-z
x,y,1/2-z
-x,y,z
x,-y,1/2+z
1/2+x,1/2+y,z
1/2-x,1/2-y,1/2+z
1/2+x,1/2-y,-z
1/2-x,1/2+y,1/2-z
1/2-x,1/2-y,-z
1/2+x,1/2+y,1/2-z
1/2-x,1/2+y,z
1/2+x,1/2-y,1/2+z
loop_
_atom_site_type_symbol
_atom_site_label
_atom_site_fract_x
_atom_site_fract_y
_atom_site_fract_z
Si Si1 0.648275 0.675425 0.571110
Si Si2 0.330857 0.638162 0.087512
Si Si3 0.062201 0.408969 0.570442
Si Si4 0.869366 0.404005 0.332027
Si Si5 0.219464 0.632023 0.166891
O O1 0.636479 0.510621 0.590185
O O2 0.678700 0.687036 0.494613
O O3 0.591859 0.757120 0.566513
O O4 0.685742 0.739932 0.632675
O O5 0.367074 0.753900 0.127499
O O6 0.274552 0.613779 0.125670
O O7 0.075353 0.500000 0.500000
O O8 0.082697 0.499383 0.638056
O O9 0.000000 0.376419 0.579671
O O10 0.882766 0.373383 0.250000
O O11 0.812446 0.483486 0.341462
O O12 0.229981 0.670195 0.250000
#
# Coordination Sequence:
#
# PCOD8259832 Si02
#       5
#    16  16  16  16  16
#     4  10  22  36  55  84 115 147 189 232 284 335
#     4  11  20  34  53  84 119 150 182 229 282 337
#     4  10  20  40  64  81 105 144 190 237 285 336
#     4  10  21  36  57  84 113 147 191 234 276 333
#     4  10  21  35  54  80 114 158 194 223 269 334
#
# _framework density 18.371573000000001
#
# number of rings (size 3 to 8) (size 9 to 14) (size 15 to 20)
#    0.000    1.800    2.000    2.400    0.000    5.200 
#    0.000    3.000    0.000    0.000    0.000    0.000 
#    0.000    0.000    0.000    0.000    0.000    0.000 
#
# Total GULP energy -496138.726361 kJ/mol
# GULP energy per Si atom -12403.468159 kJ/mol
# Density = 1.832976 g / cm^3
# Si number density = 18.371573 Si / 1000 Ang^3
#
#
#
# Elastic Constant Matrix: (Units=GPa)
#
#
# Indices 1 2 3 4 5 6 
#
# 1 103.6920 51.9782 45.8736 0.0000 0.0000 0.0000
# 2 51.9782 129.6273 64.2579 0.0000 0.0000 0.0000
# 3 45.8736 64.2579 135.4827 0.0000 0.0000 0.0000
# 4 0.0000 0.0000 0.0000 27.2159 0.0000 0.0000
# 5 0.0000 0.0000 0.0000 0.0000 20.6412 0.0000
# 6 0.0000 0.0000 0.0000 0.0000 0.0000 11.7308
#
#
#
# Elastic Compliance Matrix: (Units=1/GPa)
#
#
# Indices 1 2 3 4 5 6 
#
# 1 0.012667 -0.003861 -0.002458 0.000000 0.000000 0.000000
# 2 -0.003861 0.011262 -0.004034 0.000000 0.000000 0.000000
# 3 -0.002458 -0.004034 0.010127 0.000000 0.000000 0.000000
# 4 0.000000 0.000000 0.000000 0.036743 0.000000 0.000000
# 5 0.000000 0.000000 0.000000 0.000000 0.048447 0.000000
# 6 0.000000 0.000000 0.000000 0.000000 0.000000 0.085246
#
#
# Mechanical properties :
#
#
# Convention : Reuss Voigt Hill
#
# Bulk Modulus (GPa) = 74.90696 77.00239 75.95468
# Shear Modulus (GPa) = 21.77252 25.69706 23.73479
#
# Velocity S-wave (km/s) = 3.44629 3.74403 3.59824
# Velocity P-wave (km/s) = 7.52979 7.79071 7.66136
#
# Compressibility (1/GPa) = 0.01334989
#
# Stress axis : x y z
#
# Youngs Moduli (GPa) = 78.94820 88.79079 98.74925
#
# Poissons Ratio (x) = 0.34280 0.24270
# Poissons Ratio (y) = 0.30480 0.39840
# Poissons Ratio (z) = 0.19403 0.35822
#
# Static dielectric constant tensor:
#      x y z
#    x 3.099950 0.000000 0.000000 
#    y 0.000000 3.491920 0.000000 
#    z 0.000000 0.000000 3.597860 
# 
# 
# High freq. dielectric constant tensor:
#      x y z
#    x 1.685890 0.000000 0.000000 
#    y 0.000000 1.722450 0.000000 
#    z 0.000000 0.000000 1.727560 
# 
# From -- ./inp_files/48786.got.cif
#   From: 2010.03.12/outbox.cif.g09.slc.cpg/sg63_25_cif.got.tgz:48786.got - 2010.04.10 19:34:48.
