data_PCOD8259497
_publ_section_title
;
Structure prediction by ZEFSAII (Michael W. Deem and Ramdas Pophale) SiO2 
 PCOD8259497
Probable space group: C M C M
;
_chemical_formula_sum "Si O2"
_cell_formula_units_Z 96
_cell_length_a 8.749646
_cell_length_b 20.608794
_cell_length_c 26.814592
_cell_angle_alpha 90.000000
_cell_angle_beta 90.000000
_cell_angle_gamma 90.000000
_cell_volume 4835.197898
_symmetry_space_group_name_H-M "C M C M"
_symmetry_group_IT_number 63
_symmetry_cell_setting 'orthorhombic'
loop_
_space_group_symop_operation_xyz
x,y,z
-x,-y,1/2+z
x,-y,-z
-x,y,1/2-z
-x,-y,-z
x,y,1/2-z
-x,y,z
x,-y,1/2+z
1/2+x,1/2+y,z
1/2-x,1/2-y,1/2+z
1/2+x,1/2-y,-z
1/2-x,1/2+y,1/2-z
1/2-x,1/2-y,-z
1/2+x,1/2+y,1/2-z
1/2-x,1/2+y,z
1/2+x,1/2-y,1/2+z
loop_
_atom_site_type_symbol
_atom_site_label
_atom_site_fract_x
_atom_site_fract_y
_atom_site_fract_z
Si Si1 0.681782 0.556081 0.694031
Si Si2 0.180222 0.184548 0.858565
Si Si3 0.824222 0.805093 0.807370
Si Si4 0.819385 0.190115 0.970762
Si Si5 0.179312 0.932710 0.631054
Si Si6 0.321828 0.931362 0.523922
O O1 0.748939 0.552781 0.750000
O O2 0.500000 0.558420 0.696311
O O3 0.748742 0.619868 0.666848
O O4 0.735985 0.493302 0.663702
O O5 0.221805 0.245991 0.825411
O O6 0.245985 0.191624 0.914434
O O7 0.000000 0.178118 0.861159
O O8 0.787912 0.820242 0.750000
O O9 0.781234 0.868376 0.838486
O O10 0.000000 0.785949 0.815254
O O11 0.774650 0.122729 0.995702
O O12 0.000000 0.197301 0.971677
O O13 0.750000 0.250000 0.000000
O O14 0.277929 0.931884 0.581448
O O15 0.000000 0.937621 0.618163
O O16 0.500000 0.915389 0.518249
O O17 0.278441 0.000000 0.500000
#
# Coordination Sequence:
#
# PCOD8259497 Si02
#       6
#    16  16  16  16  16  16
#     4   9  17  32  56  83 108 137 179 229 276 326
#     4  10  21  36  56  82 110 143 184 229 277 330
#     4  10  21  36  55  82 114 146 181 224 276 332
#     4  11  23  39  60  86 116 151 192 237 286 341
#     4  10  20  36  59  83 108 143 187 232 277 330
#     4  11  24  40  58  83 116 152 190 236 288 339
#
# _framework density 19.854410000000001
#
# number of rings (size 3 to 8) (size 9 to 14) (size 15 to 20)
#    0.000    1.833    0.000    4.000    0.000   10.333 
#    0.000    0.833    0.000    2.500    0.000    0.000 
#    0.000    0.000    0.000    0.000    0.000    0.000 
#
# Total GULP energy -595409.047889 kJ/mol
# GULP energy per Si atom -12404.355164 kJ/mol
# Density = 1.980922 g / cm^3
# Si number density = 19.854410 Si / 1000 Ang^3
#
#
#
# Elastic Constant Matrix: (Units=GPa)
#
#
# Indices 1 2 3 4 5 6 
#
# 1 28.3121 18.9795 18.9099 0.0000 0.0000 0.0000
# 2 18.9795 126.8093 36.5660 0.0000 0.0000 0.0000
# 3 18.9099 36.5660 125.0319 0.0000 0.0000 0.0000
# 4 0.0000 0.0000 0.0000 45.3198 0.0000 0.0000
# 5 0.0000 0.0000 0.0000 0.0000 28.7543 0.0000
# 6 0.0000 0.0000 0.0000 0.0000 0.0000 26.1916
#
#
#
# Elastic Compliance Matrix: (Units=1/GPa)
#
#
# Indices 1 2 3 4 5 6 
#
# 1 0.041851 -0.004847 -0.004912 0.000000 0.000000 0.000000
# 2 -0.004847 0.009174 -0.001950 0.000000 0.000000 0.000000
# 3 -0.004912 -0.001950 0.009311 0.000000 0.000000 0.000000
# 4 0.000000 0.000000 0.000000 0.022065 0.000000 0.000000
# 5 0.000000 0.000000 0.000000 0.000000 0.034777 0.000000
# 6 0.000000 0.000000 0.000000 0.000000 0.000000 0.038180
#
#
# Mechanical properties :
#
#
# Convention : Reuss Voigt Hill
#
# Bulk Modulus (GPa) = 27.08755 47.67379 37.38067
# Shear Modulus (GPa) = 26.16674 33.76634 29.96654
#
# Velocity S-wave (km/s) = 3.63427 4.12842 3.88920
# Velocity P-wave (km/s) = 5.59314 6.84025 6.24789
#
# Compressibility (1/GPa) = 0.03691733
#
# Stress axis : x y z
#
# Youngs Moduli (GPa) = 23.89440 109.00874 107.39934
#
# Poissons Ratio (x) = 0.52841 0.52754
# Poissons Ratio (y) = 0.11583 0.20940
# Poissons Ratio (z) = 0.11737 0.21254
#
# Static dielectric constant tensor:
#      x y z
#    x 3.334380 0.000000 0.000000 
#    y 0.000000 3.751710 0.000000 
#    z 0.000000 0.000000 3.903130 
# 
# 
# High freq. dielectric constant tensor:
#      x y z
#    x 1.748140 0.000000 0.000000 
#    y 0.000000 1.792820 0.000000 
#    z 0.000000 0.000000 1.795330 
# 
# From -- ./inp_files/66967.got.cif
#   From: 2010.03.12/outbox.cif.g09.slc.cpg/sg63_34_cif.got.tgz:66967.got - 2010.04.10 19:34:48.
