data_PCOD8259080
_publ_section_title
;
Structure prediction by ZEFSAII (Michael W. Deem and Ramdas Pophale) SiO2 
 PCOD8259080
Probable space group: C M C M
;
_chemical_formula_sum "Si O2"
_cell_formula_units_Z 120
_cell_length_a 32.884615
_cell_length_b 16.199082
_cell_length_c 13.462777
_cell_angle_alpha 90.000000
_cell_angle_beta 90.000000
_cell_angle_gamma 90.000000
_cell_volume 7171.629048
_symmetry_space_group_name_H-M "C M C M"
_symmetry_group_IT_number 63
_symmetry_cell_setting 'orthorhombic'
loop_
_space_group_symop_operation_xyz
x,y,z
-x,-y,1/2+z
x,-y,-z
-x,y,1/2-z
-x,-y,-z
x,y,1/2-z
-x,y,z
x,-y,1/2+z
1/2+x,1/2+y,z
1/2-x,1/2-y,1/2+z
1/2+x,1/2-y,-z
1/2-x,1/2+y,1/2-z
1/2-x,1/2-y,-z
1/2+x,1/2+y,1/2-z
1/2-x,1/2+y,z
1/2+x,1/2-y,1/2+z
loop_
_atom_site_type_symbol
_atom_site_label
_atom_site_fract_x
_atom_site_fract_y
_atom_site_fract_z
Si Si1 0.315535 0.593641 0.974411
Si Si2 0.877499 0.799231 0.134659
Si Si3 0.452307 0.626860 0.557128
Si Si4 0.047913 0.048793 0.142025
Si Si5 0.672620 0.861231 0.863984
Si Si6 0.735073 0.308829 0.865551
Si Si7 0.237969 0.380748 0.136249
Si Si8 0.186387 0.500000 0.500000
O O1 0.357163 0.635049 0.939437
O O2 0.285471 0.602049 0.880758
O O3 0.325785 0.500000 0.000000
O O4 0.295855 0.636534 0.071143
O O5 0.870422 0.821554 0.250000
O O6 0.925491 0.800116 0.106233
O O7 0.859250 0.709969 0.110855
O O8 0.500000 0.647349 0.571668
O O9 0.438608 0.542942 0.611813
O O10 0.440435 0.616813 0.440549
O O11 0.067019 0.071954 0.250000
O O12 0.000000 0.046575 0.149099
O O13 0.669607 0.888137 0.750000
O O14 0.718480 0.833199 0.890507
O O15 0.659506 0.939378 0.931658
O O16 0.725737 0.324099 0.750000
O O17 0.728108 0.213334 0.894457
O O18 0.227085 0.396924 0.250000
O O19 0.213863 0.445345 0.071228
#
# Coordination Sequence:
#
# PCOD8259080 Si02
#       8
#    16  16  16  16  16  16  16   8
#     4  12  22  33  48  70  97 130 170 203 240 285
#     4  11  23  36  50  70 102 135 163 206 255 294
#     4   9  18  32  51  74  97 129 172 206 242 296
#     4   8  14  27  49  74  99 128 164 205 242 283
#     4  10  20  35  53  74  98 128 165 205 255 302
#     4  10  20  36  53  69  97 132 167 205 249 295
#     4  11  20  32  50  70  92 126 168 207 245 289
#     4  12  20  32  52  74  93 124 167 214 240 296
#
# _framework density 16.732600000000001
#
# number of rings (size 3 to 8) (size 9 to 14) (size 15 to 20)
#    0.000    1.733    3.333    3.200    1.867    2.933 
#    0.000    0.667    0.000    1.600    0.000    0.467 
#    0.000    0.000    0.000    0.000    0.000    0.000 
#
# Total GULP energy -743797.422008 kJ/mol
# GULP energy per Si atom -12396.623700 kJ/mol
# Density = 1.669452 g / cm^3
# Si number density = 16.732600 Si / 1000 Ang^3
#
#
#
# Elastic Constant Matrix: (Units=GPa)
#
#
# Indices 1 2 3 4 5 6 
#
# 1 72.8135 42.7910 35.4053 0.0000 0.0000 0.0000
# 2 42.7910 110.3588 62.9406 0.0000 0.0000 0.0000
# 3 35.4053 62.9406 101.8505 0.0000 0.0000 0.0000
# 4 0.0000 0.0000 0.0000 40.6063 0.0000 0.0000
# 5 0.0000 0.0000 0.0000 0.0000 20.5204 0.0000
# 6 0.0000 0.0000 0.0000 0.0000 0.0000 15.9716
#
#
#
# Elastic Compliance Matrix: (Units=1/GPa)
#
#
# Indices 1 2 3 4 5 6 
#
# 1 0.018387 -0.005380 -0.003067 0.000000 0.000000 0.000000
# 2 -0.005380 0.015568 -0.007750 0.000000 0.000000 0.000000
# 3 -0.003067 -0.007750 0.015674 0.000000 0.000000 0.000000
# 4 0.000000 0.000000 0.000000 0.024627 0.000000 0.000000
# 5 0.000000 0.000000 0.000000 0.000000 0.048732 0.000000
# 6 0.000000 0.000000 0.000000 0.000000 0.000000 0.062611
#
#
# Mechanical properties :
#
#
# Convention : Reuss Voigt Hill
#
# Bulk Modulus (GPa) = 58.02517 63.03296 60.52907
# Shear Modulus (GPa) = 22.34771 25.01206 23.67988
#
# Velocity S-wave (km/s) = 3.65852 3.87047 3.76599
# Velocity P-wave (km/s) = 7.25256 7.59780 7.42719
#
# Compressibility (1/GPa) = 0.01723390
#
# Stress axis : x y z
#
# Youngs Moduli (GPa) = 54.38671 64.23612 63.80140
#
# Poissons Ratio (x) = 0.34561 0.19566
# Poissons Ratio (y) = 0.29262 0.49446
# Poissons Ratio (z) = 0.16679 0.49783
#
# Static dielectric constant tensor:
#      x y z
#    x 2.835280 0.000000 0.000000 
#    y 0.000000 3.133420 0.000000 
#    z 0.000000 0.000000 3.705270 
# 
# 
# High freq. dielectric constant tensor:
#      x y z
#    x 1.605410 0.000000 0.000000 
#    y 0.000000 1.626580 0.000000 
#    z 0.000000 0.000000 1.669420 
# 
# From -- ./inp_files/38781.got.cif
#   From: 2010.03.12/outbox.cif.g09.slc.cpg/sg63_20_cif.got.tgz:38781.got - 2010.04.10 19:34:48.
