data_PCOD8259767
_publ_section_title
;
Structure prediction by ZEFSAII (Michael W. Deem and Ramdas Pophale) SiO2 
 PCOD8259767
Probable space group: C M C M
;
_chemical_formula_sum "Si O2"
_cell_formula_units_Z 64
_cell_length_a 9.572753
_cell_length_b 34.116572
_cell_length_c 9.986441
_cell_angle_alpha 90.000000
_cell_angle_beta 90.000000
_cell_angle_gamma 90.000000
_cell_volume 3261.466942
_symmetry_space_group_name_H-M "C M C M"
_symmetry_group_IT_number 63
_symmetry_cell_setting 'orthorhombic'
loop_
_space_group_symop_operation_xyz
x,y,z
-x,-y,1/2+z
x,-y,-z
-x,y,1/2-z
-x,-y,-z
x,y,1/2-z
-x,y,z
x,-y,1/2+z
1/2+x,1/2+y,z
1/2-x,1/2-y,1/2+z
1/2+x,1/2-y,-z
1/2-x,1/2+y,1/2-z
1/2-x,1/2-y,-z
1/2+x,1/2+y,1/2-z
1/2-x,1/2+y,z
1/2+x,1/2-y,1/2+z
loop_
_atom_site_type_symbol
_atom_site_label
_atom_site_fract_x
_atom_site_fract_y
_atom_site_fract_z
Si Si1 0.000000 0.698391 0.598849
Si Si2 0.160378 0.033082 0.750000
Si Si3 0.210473 0.837778 0.402662
Si Si4 0.331462 0.045587 0.250000
Si Si5 0.500000 0.728393 0.594917
Si Si6 0.843429 0.080601 0.016822
O O1 0.127320 0.669221 0.575196
O O2 0.000000 0.733412 0.494917
O O3 0.000000 0.715819 0.750000
O O4 0.191659 0.059163 0.621137
O O5 0.000000 0.017687 0.750000
O O6 0.269986 0.997937 0.750000
O O7 0.172354 0.848975 0.250000
O O8 0.134959 0.797360 0.441638
O O9 0.160756 0.872715 0.497620
O O10 0.500000 0.044642 0.250000
O O11 0.275007 0.068245 0.379364
O O12 0.500000 0.741508 0.750000
O O13 0.000000 0.069252 0.066818
#
# Coordination Sequence:
#
# PCOD8259767 Si02
#       6
#     8   8  16   8   8  16
#     4  10  22  38  56  88 129 165 204 250 315 375
#     4  10  22  42  74  96 119 164 220 259 308 377
#     4  10  20  38  63  91 123 164 210 260 307 370
#     4  12  28  44  58  96 139 166 200 259 324 377
#     4  10  20  38  64  86 121 161 210 260 305 369
#     4  11  22  42  69  94 125 167 217 261 311 368
#
# _framework density 19.623069999999998
#
# number of rings (size 3 to 8) (size 9 to 14) (size 15 to 20)
#    0.000    1.500    2.500    2.625    1.750    4.000 
#    4.500    0.000    0.000    0.000    0.000    0.000 
#    0.000    0.000    0.000    0.000    0.000    0.000 
#
# Total GULP energy -396859.373546 kJ/mol
# GULP energy per Si atom -12401.855423 kJ/mol
# Density = 1.957841 g / cm^3
# Si number density = 19.623070 Si / 1000 Ang^3
#
#
#
# Elastic Constant Matrix: (Units=GPa)
#
#
# Indices 1 2 3 4 5 6 
#
# 1 140.9208 29.0618 51.2088 0.0000 0.0000 0.0000
# 2 29.0618 93.6386 50.8881 0.0000 0.0000 0.0000
# 3 51.2088 50.8881 108.8863 0.0000 0.0000 0.0000
# 4 0.0000 0.0000 0.0000 38.0215 0.0000 0.0000
# 5 0.0000 0.0000 0.0000 0.0000 27.7958 0.0000
# 6 0.0000 0.0000 0.0000 0.0000 0.0000 17.9542
#
#
#
# Elastic Compliance Matrix: (Units=1/GPa)
#
#
# Indices 1 2 3 4 5 6 
#
# 1 0.008587 -0.000630 -0.003744 0.000000 0.000000 0.000000
# 2 -0.000630 0.014361 -0.006415 0.000000 0.000000 0.000000
# 3 -0.003744 -0.006415 0.013943 0.000000 0.000000 0.000000
# 4 0.000000 0.000000 0.000000 0.026301 0.000000 0.000000
# 5 0.000000 0.000000 0.000000 0.000000 0.035977 0.000000
# 6 0.000000 0.000000 0.000000 0.000000 0.000000 0.055697
#
#
# Mechanical properties :
#
#
# Convention : Reuss Voigt Hill
#
# Bulk Modulus (GPa) = 65.30848 67.30703 66.30775
# Shear Modulus (GPa) = 27.54088 30.90677 29.22382
#
# Velocity S-wave (km/s) = 3.75039 3.97296 3.86328
# Velocity P-wave (km/s) = 7.21856 7.44448 7.33239
#
# Compressibility (1/GPa) = 0.01531195
#
# Stress axis : x y z
#
# Youngs Moduli (GPa) = 116.46089 69.63077 71.72222
#
# Poissons Ratio (x) = 0.04390 0.26850
# Poissons Ratio (y) = 0.07343 0.46012
# Poissons Ratio (z) = 0.43598 0.44670
#
# Static dielectric constant tensor:
#      x y z
#    x 3.889620 0.000000 0.000000 
#    y 0.000000 3.432220 0.000000 
#    z 0.000000 0.000000 3.518730 
# 
# 
# High freq. dielectric constant tensor:
#      x y z
#    x 1.775090 0.000000 0.000000 
#    y 0.000000 1.767330 0.000000 
#    z 0.000000 0.000000 1.756630 
# 
# From -- ./inp_files/16308.got.cif
#   From: 2010.03.12/outbox.cif.g09.slc.cpg/sg63_9_cif.got.tgz:16308.got - 2010.04.10 19:34:48.
