data_PCOD8259039
_publ_section_title
;
Structure prediction by ZEFSAII (Michael W. Deem and Ramdas Pophale) SiO2 
 PCOD8259039
Probable space group: C M C M
;
_chemical_formula_sum "Si O2"
_cell_formula_units_Z 104
_cell_length_a 22.075652
_cell_length_b 28.167586
_cell_length_c 8.871467
_cell_angle_alpha 90.000000
_cell_angle_beta 90.000000
_cell_angle_gamma 90.000000
_cell_volume 5516.436325
_symmetry_space_group_name_H-M "C M C M"
_symmetry_group_IT_number 63
_symmetry_cell_setting 'orthorhombic'
loop_
_space_group_symop_operation_xyz
x,y,z
-x,-y,1/2+z
x,-y,-z
-x,y,1/2-z
-x,-y,-z
x,y,1/2-z
-x,y,z
x,-y,1/2+z
1/2+x,1/2+y,z
1/2-x,1/2-y,1/2+z
1/2+x,1/2-y,-z
1/2-x,1/2+y,1/2-z
1/2-x,1/2-y,-z
1/2+x,1/2+y,1/2-z
1/2-x,1/2+y,z
1/2+x,1/2-y,1/2+z
loop_
_atom_site_type_symbol
_atom_site_label
_atom_site_fract_x
_atom_site_fract_y
_atom_site_fract_z
Si Si1 0.879090 0.107655 0.426076
Si Si2 0.311756 0.800430 0.578238
Si Si3 0.759096 0.050985 0.426230
Si Si4 0.345846 0.111616 0.925519
Si Si5 0.928656 0.545969 0.418121
Si Si6 0.183735 0.806759 0.423969
Si Si7 0.000000 0.947584 0.571575
O O1 0.882297 0.120260 0.250000
O O2 0.825582 0.070907 0.462822
O O3 0.867445 0.156940 0.515881
O O4 0.941204 0.082628 0.480737
O O5 0.315494 0.818013 0.750000
O O6 0.351753 0.833321 0.470138
O O7 0.242751 0.808304 0.527324
O O8 0.338936 0.747554 0.563536
O O9 0.747993 0.045676 0.250000
O O10 0.710712 0.087523 0.492045
O O11 0.751284 0.000000 0.500000
O O12 0.337847 0.104690 0.750000
O O13 0.408988 0.090323 0.982332
O O14 0.901042 0.500000 0.500000
O O15 0.901267 0.548665 0.250000
O O16 0.000000 0.543855 0.412059
O O17 0.199806 0.819136 0.250000
O O18 0.000000 0.954900 0.750000
O O19 0.000000 0.000000 0.500000
#
# Coordination Sequence:
#
# PCOD8259039 Si02
#       7
#    16  16  16  16  16  16   8
#     4  10  21  37  58  81 113 151 191 238 289 342
#     4  10  20  35  55  83 116 146 182 227 279 336
#     4  11  22  35  52  78 112 149 184 229 282 335
#     4  12  23  35  55  83 113 147 185 230 278 332
#     4  10  21  38  59  81 109 147 187 227 271 325
#     4  10  20  34  57  85 112 144 184 226 278 341
#     4  10  22  40  60  86 114 154 202 244 293 346
#
# _framework density 18.85275
#
# number of rings (size 3 to 8) (size 9 to 14) (size 15 to 20)
#    0.000    1.538    1.538    4.154    0.000    4.000 
#    0.000    0.000    1.692    0.000    0.000    0.000 
#    0.000    0.000    0.000    0.000    0.000    0.000 
#
# Total GULP energy -644766.247226 kJ/mol
# GULP energy per Si atom -12399.350908 kJ/mol
# Density = 1.880984 g / cm^3
# Si number density = 18.852750 Si / 1000 Ang^3
#
#
#
# Elastic Constant Matrix: (Units=GPa)
#
#
# Indices 1 2 3 4 5 6 
#
# 1 47.8426 35.9496 29.8390 0.0000 0.0000 0.0000
# 2 35.9496 123.2537 55.1784 0.0000 0.0000 0.0000
# 3 29.8390 55.1784 113.8470 0.0000 0.0000 0.0000
# 4 0.0000 0.0000 0.0000 38.6810 0.0000 0.0000
# 5 0.0000 0.0000 0.0000 0.0000 21.8868 0.0000
# 6 0.0000 0.0000 0.0000 0.0000 0.0000 46.3798
#
#
#
# Elastic Compliance Matrix: (Units=1/GPa)
#
#
# Indices 1 2 3 4 5 6 
#
# 1 0.028379 -0.006318 -0.004376 0.000000 0.000000 0.000000
# 2 -0.006318 0.011768 -0.004048 0.000000 0.000000 0.000000
# 3 -0.004376 -0.004048 0.011892 0.000000 0.000000 0.000000
# 4 0.000000 0.000000 0.000000 0.025852 0.000000 0.000000
# 5 0.000000 0.000000 0.000000 0.000000 0.045690 0.000000
# 6 0.000000 0.000000 0.000000 0.000000 0.000000 0.021561
#
#
# Mechanical properties :
#
#
# Convention : Reuss Voigt Hill
#
# Bulk Modulus (GPa) = 44.33436 58.54192 51.43814
# Shear Modulus (GPa) = 27.45070 32.32127 29.88599
#
# Velocity S-wave (km/s) = 3.81997 4.14503 3.98582
# Velocity P-wave (km/s) = 6.55922 7.35037 6.96604
#
# Compressibility (1/GPa) = 0.02255587
#
# Stress axis : x y z
#
# Youngs Moduli (GPa) = 35.23778 84.97373 84.08731
#
# Poissons Ratio (x) = 0.53689 0.36794
# Poissons Ratio (y) = 0.22264 0.34037
# Poissons Ratio (z) = 0.15419 0.34395
#
# Static dielectric constant tensor:
#      x y z
#    x 3.299180 0.000000 0.000000 
#    y 0.000000 3.728730 0.000000 
#    z 0.000000 0.000000 2.832890 
# 
# 
# High freq. dielectric constant tensor:
#      x y z
#    x 1.707810 0.000000 0.000000 
#    y 0.000000 1.743530 0.000000 
#    z 0.000000 0.000000 1.746510 
# 
# From -- ./inp_files/10850.got.cif
#   From: 2010.03.12/outbox.cif.g09.slc.cpg/sg63_6_cif.got.tgz:10850.got - 2010.04.10 19:34:48.
