data_PCOD8259726
_publ_section_title
;
Structure prediction by ZEFSAII (Michael W. Deem and Ramdas Pophale) SiO2 
 PCOD8259726
Probable space group: C M C M
;
_chemical_formula_sum "Si O2"
_cell_formula_units_Z 112
_cell_length_a 22.654729
_cell_length_b 24.579963
_cell_length_c 10.318434
_cell_angle_alpha 90.000000
_cell_angle_beta 90.000000
_cell_angle_gamma 90.000000
_cell_volume 5745.844743
_symmetry_space_group_name_H-M "C M C M"
_symmetry_group_IT_number 63
_symmetry_cell_setting 'orthorhombic'
loop_
_space_group_symop_operation_xyz
x,y,z
-x,-y,1/2+z
x,-y,-z
-x,y,1/2-z
-x,-y,-z
x,y,1/2-z
-x,y,z
x,-y,1/2+z
1/2+x,1/2+y,z
1/2-x,1/2-y,1/2+z
1/2+x,1/2-y,-z
1/2-x,1/2+y,1/2-z
1/2-x,1/2-y,-z
1/2+x,1/2+y,1/2-z
1/2-x,1/2+y,z
1/2+x,1/2-y,1/2+z
loop_
_atom_site_type_symbol
_atom_site_label
_atom_site_fract_x
_atom_site_fract_y
_atom_site_fract_z
Si Si1 0.620096 0.545409 0.101239
Si Si2 0.565383 0.339648 0.598729
Si Si3 0.747145 0.814444 0.110067
Si Si4 0.871635 0.546698 0.099388
Si Si5 0.065084 0.655570 0.099418
Si Si6 0.254299 0.593299 0.396329
Si Si7 0.350318 0.750805 0.510377
O O1 0.608780 0.526592 0.250000
O O2 0.582684 0.598674 0.067647
O O3 0.689004 0.556467 0.077825
O O4 0.598593 0.500000 0.000000
O O5 0.565284 0.328780 0.750000
O O6 0.500000 0.328649 0.541056
O O7 0.613199 0.300261 0.538632
O O8 0.748163 0.844334 0.250000
O O9 0.685081 0.782162 0.102573
O O10 0.752992 0.856451 0.993522
O O11 0.801057 0.771469 0.109501
O O12 0.887596 0.532487 0.250000
O O13 0.903630 0.601094 0.047518
O O14 0.801743 0.554740 0.085145
O O15 0.892332 0.500000 0.000000
O O16 0.056793 0.647866 0.250000
O O17 0.000000 0.662399 0.034290
O O18 0.104747 0.708094 0.077085
O O19 0.255753 0.617602 0.250000
#
# Coordination Sequence:
#
# PCOD8259726 Si02
#       7
#    16  16  16  16  16  16  16
#     4  10  21  38  60  86 116 153 194 241 294 350
#     4  10  21  38  60  84 115 158 201 240 289 347
#     4  11  23  34  58  92 120 152 194 242 292 350
#     4  10  21  38  60  86 116 153 194 241 294 350
#     4  10  21  38  60  84 115 158 201 240 289 347
#     4  10  20  38  60  83 118 157 192 236 300 359
#     4  11  21  38  58  84 123 155 194 238 296 349
#
# _framework density 19.492346999999999
#
# number of rings (size 3 to 8) (size 9 to 14) (size 15 to 20)
#    0.000    1.714    2.857    1.714    0.000    4.000 
#    0.000    0.000    0.000    3.429    0.000    0.000 
#    0.000    0.000    0.000    0.000    0.000    0.000 
#
# Total GULP energy -694236.502741 kJ/mol
# GULP energy per Si atom -12397.080406 kJ/mol
# Density = 1.944798 g / cm^3
# Si number density = 19.492347 Si / 1000 Ang^3
#
#
#
# Elastic Constant Matrix: (Units=GPa)
#
#
# Indices 1 2 3 4 5 6 
#
# 1 91.8946 17.5486 7.4997 0.0000 0.0000 0.0000
# 2 17.5486 43.9181 58.7352 0.0000 0.0000 0.0000
# 3 7.4997 58.7352 86.0689 0.0000 0.0000 0.0000
# 4 0.0000 0.0000 0.0000 25.6461 0.0000 0.0000
# 5 0.0000 0.0000 0.0000 0.0000 9.6121 0.0000
# 6 0.0000 0.0000 0.0000 0.0000 0.0000 0.8588
#
#
#
# Elastic Compliance Matrix: (Units=1/GPa)
#
#
# Indices 1 2 3 4 5 6 
#
# 1 0.019624 -0.063591 0.041686 0.000000 0.000000 0.000000
# 2 -0.063591 0.466759 -0.312985 0.000000 0.000000 0.000000
# 3 0.041686 -0.312985 0.221573 0.000000 0.000000 0.000000
# 4 0.000000 0.000000 0.000000 0.038992 0.000000 0.000000
# 5 0.000000 0.000000 0.000000 0.000000 0.104036 0.000000
# 6 0.000000 0.000000 0.000000 0.000000 0.000000 1.164373
#
#
# Mechanical properties :
#
#
# Convention : Reuss Voigt Hill
#
# Bulk Modulus (GPa) = 26.19436 43.27207 34.73322
# Shear Modulus (GPa) = 1.85332 16.42995 9.14163
#
# Velocity S-wave (km/s) = 0.97614 2.90641 2.16796
# Velocity P-wave (km/s) = 3.83900 5.78884 4.91165
#
# Compressibility (1/GPa) = 0.03817615
#
# Stress axis : x y z
#
# Youngs Moduli (GPa) = 50.95909 2.14243 4.51318
#
# Poissons Ratio (x) = 0.13624 -0.18814
# Poissons Ratio (y) = 3.24054 1.41256
# Poissons Ratio (z) = -2.12428 0.67055
#
# Static dielectric constant tensor:
#      x y z
#    x 3.949800 0.000000 0.000000 
#    y 0.000000 3.420140 0.000000 
#    z 0.000000 0.000000 3.508190 
# 
# 
# High freq. dielectric constant tensor:
#      x y z
#    x 1.772970 0.000000 0.000000 
#    y 0.000000 1.755050 0.000000 
#    z 0.000000 0.000000 1.740910 
# 
# From -- ./inp_files/24083.got.cif
#   From: 2010.03.12/outbox.cif.g09.slc.cpg/sg63_13_cif.got.tgz:24083.got - 2010.04.10 19:34:48.
