data_PCOD8259748
_publ_section_title
;
Structure prediction by ZEFSAII (Michael W. Deem and Ramdas Pophale) SiO2 
 PCOD8259748
Probable space group: C M C M
;
_chemical_formula_sum "Si O2"
_cell_formula_units_Z 48
_cell_length_a 25.708766
_cell_length_b 8.344729
_cell_length_c 9.001078
_cell_angle_alpha 90.000000
_cell_angle_beta 90.000000
_cell_angle_gamma 90.000000
_cell_volume 1931.025433
_symmetry_space_group_name_H-M "C M C M"
_symmetry_group_IT_number 63
_symmetry_cell_setting 'orthorhombic'
loop_
_space_group_symop_operation_xyz
x,y,z
-x,-y,1/2+z
x,-y,-z
-x,y,1/2-z
-x,-y,-z
x,y,1/2-z
-x,y,z
x,-y,1/2+z
1/2+x,1/2+y,z
1/2-x,1/2-y,1/2+z
1/2+x,1/2-y,-z
1/2-x,1/2+y,1/2-z
1/2-x,1/2-y,-z
1/2+x,1/2+y,1/2-z
1/2-x,1/2+y,z
1/2+x,1/2-y,1/2+z
loop_
_atom_site_type_symbol
_atom_site_label
_atom_site_fract_x
_atom_site_fract_y
_atom_site_fract_z
Si Si1 0.806591 0.826585 0.750000
Si Si2 0.809868 0.554468 0.250000
Si Si3 0.621191 0.000000 0.000000
Si Si4 0.941038 0.946302 0.250000
Si Si5 0.629048 0.500000 0.500000
Si Si6 0.057989 0.328620 0.250000
O O1 0.809858 0.637531 0.750000
O O2 0.746767 0.873361 0.750000
O O3 0.834299 0.891302 0.897516
O O4 0.841296 0.611045 0.396406
O O5 0.586055 0.113094 0.898481
O O6 0.909430 0.890431 0.396677
O O7 0.941253 0.138368 0.250000
O O8 0.000000 0.876414 0.250000
O O9 0.000000 0.398260 0.250000
#
# Coordination Sequence:
#
# PCOD8259748 Si02
#       6
#     8   8   8   8   8   8
#     4  11  25  42  63  92 125 162 208 260 311 371
#     4  11  25  42  63  92 125 162 208 260 311 371
#     4  10  20  38  62  86 122 160 204 252 306 360
#     4  10  21  38  60  89 124 162 208 258 306 364
#     4  10  20  38  62  86 122 160 204 252 306 360
#     4  10  21  38  60  89 124 162 208 258 306 364
#
# _framework density 24.857258999999999
#
# number of rings (size 3 to 8) (size 9 to 14) (size 15 to 20)
#    0.000    1.667    0.000    6.000    0.000    8.000 
#    0.000   20.000    0.000   24.000    0.000    0.000 
#    0.000    0.000    0.000    0.000    0.000    0.000 
#
# Total GULP energy -297520.901042 kJ/mol
# GULP energy per Si atom -12396.704210 kJ/mol
# Density = 2.480068 g / cm^3
# Si number density = 24.857259 Si / 1000 Ang^3
#
#
#
# Elastic Constant Matrix: (Units=GPa)
#
#
# Indices 1 2 3 4 5 6 
#
# 1 245.1954 27.1160 103.6365 0.0000 0.0000 0.0000
# 2 27.1160 68.5670 25.1279 0.0000 0.0000 0.0000
# 3 103.6365 25.1279 205.3394 0.0000 0.0000 0.0000
# 4 0.0000 0.0000 0.0000 5.0565 0.0000 0.0000
# 5 0.0000 0.0000 0.0000 0.0000 33.2050 0.0000
# 6 0.0000 0.0000 0.0000 0.0000 0.0000 34.9902
#
#
#
# Elastic Compliance Matrix: (Units=1/GPa)
#
#
# Indices 1 2 3 4 5 6 
#
# 1 0.005271 -0.001162 -0.002518 0.000000 0.000000 0.000000
# 2 -0.001162 0.015525 -0.001314 0.000000 0.000000 0.000000
# 3 -0.002518 -0.001314 0.006302 0.000000 0.000000 0.000000
# 4 0.000000 0.000000 0.000000 0.197764 0.000000 0.000000
# 5 0.000000 0.000000 0.000000 0.000000 0.030116 0.000000
# 6 0.000000 0.000000 0.000000 0.000000 0.000000 0.028579
#
#
# Mechanical properties :
#
#
# Convention : Reuss Voigt Hill
#
# Bulk Modulus (GPa) = 58.44194 92.31807 75.38000
# Shear Modulus (GPa) = 16.70855 38.86511 27.78683
#
# Velocity S-wave (km/s) = 2.59546 3.95844 3.34706
# Velocity P-wave (km/s) = 5.70473 7.62314 6.73261
#
# Compressibility (1/GPa) = 0.01711100
#
# Stress axis : x y z
#
# Youngs Moduli (GPa) = 189.70817 64.41200 158.68678
#
# Poissons Ratio (x) = 0.07483 0.39962
# Poissons Ratio (y) = 0.22039 0.20844
# Poissons Ratio (z) = 0.47774 0.08461
#
# Static dielectric constant tensor:
#      x y z
#    x 5.598500 0.000000 0.000000 
#    y 0.000000 3.984420 0.000000 
#    z 0.000000 0.000000 5.677400 
# 
# 
# High freq. dielectric constant tensor:
#      x y z
#    x 2.016900 0.000000 0.000000 
#    y 0.000000 1.959610 0.000000 
#    z 0.000000 0.000000 2.018230 
# 
# From -- ./inp_files/13592.got.cif
#   From: 2010.03.12/outbox.cif.g09.slc.cpg/sg63_7_cif.got.tgz:13592.got - 2010.04.10 19:34:48.
