data_PCOD8259747
_publ_section_title
;
Structure prediction by ZEFSAII (Michael W. Deem and Ramdas Pophale) SiO2 
 PCOD8259747
Probable space group: C M C M
;
_chemical_formula_sum "Si O2"
_cell_formula_units_Z 96
_cell_length_a 8.989426
_cell_length_b 19.394969
_cell_length_c 27.898015
_cell_angle_alpha 90.000000
_cell_angle_beta 90.000000
_cell_angle_gamma 90.000000
_cell_volume 4864.008833
_symmetry_space_group_name_H-M "C M C M"
_symmetry_group_IT_number 63
_symmetry_cell_setting 'orthorhombic'
loop_
_space_group_symop_operation_xyz
x,y,z
-x,-y,1/2+z
x,-y,-z
-x,y,1/2-z
-x,-y,-z
x,y,1/2-z
-x,y,z
x,-y,1/2+z
1/2+x,1/2+y,z
1/2-x,1/2-y,1/2+z
1/2+x,1/2-y,-z
1/2-x,1/2+y,1/2-z
1/2-x,1/2-y,-z
1/2+x,1/2+y,1/2-z
1/2-x,1/2+y,z
1/2+x,1/2-y,1/2+z
loop_
_atom_site_type_symbol
_atom_site_label
_atom_site_fract_x
_atom_site_fract_y
_atom_site_fract_z
Si Si1 0.827978 0.979516 0.637217
Si Si2 0.828086 0.230500 0.636657
Si Si3 0.326995 0.608132 0.698088
Si Si4 0.171085 0.365391 0.804746
Si Si5 0.325272 0.045770 0.545711
Si Si6 0.176023 0.294397 0.458647
O O1 0.760229 0.908562 0.655853
O O2 0.000000 0.968688 0.625061
O O3 0.801186 0.030822 0.681193
O O4 0.751219 0.009084 0.590283
O O5 0.759907 0.160969 0.659741
O O6 0.809982 0.287542 0.677571
O O7 0.728722 0.243078 0.589955
O O8 0.000000 0.223353 0.620441
O O9 0.249679 0.616156 0.750000
O O10 0.500000 0.626126 0.702627
O O11 0.232497 0.371526 0.750000
O O12 0.000000 0.388727 0.806007
O O13 0.500000 0.044286 0.554916
O O14 0.271326 0.125201 0.539199
O O15 0.280488 0.000000 0.500000
O O16 0.250000 0.250000 0.500000
O O17 0.000000 0.289395 0.463713
#
# Coordination Sequence:
#
# PCOD8259747 Si02
#       6
#    16  16  16  16  16  16
#     4  11  22  37  60  90 123 156 194 248 302 353
#     4  10  20  38  62  86 117 156 201 245 290 349
#     4   9  17  32  57  86 114 148 191 237 286 343
#     4  10  22  39  60  87 121 163 205 243 289 351
#     4  10  23  43  64  86 116 157 201 245 297 361
#     4  11  24  41  63  90 121 154 195 247 301 357
#
# _framework density 19.736806000000001
#
# number of rings (size 3 to 8) (size 9 to 14) (size 15 to 20)
#    0.000    1.833    1.667    2.000    2.333    4.667 
#    0.000    0.000    0.000    2.500    0.000    0.000 
#    0.000    0.000    0.000    0.000    0.000    0.000 
#
# Total GULP energy -595139.264812 kJ/mol
# GULP energy per Si atom -12398.734684 kJ/mol
# Density = 1.969188 g / cm^3
# Si number density = 19.736806 Si / 1000 Ang^3
#
#
#
# Elastic Constant Matrix: (Units=GPa)
#
#
# Indices 1 2 3 4 5 6 
#
# 1 43.1765 27.6388 42.6651 0.0000 0.0000 0.0000
# 2 27.6388 79.0546 29.1271 0.0000 0.0000 0.0000
# 3 42.6651 29.1271 131.0818 0.0000 0.0000 0.0000
# 4 0.0000 0.0000 0.0000 22.3673 0.0000 0.0000
# 5 0.0000 0.0000 0.0000 0.0000 30.6471 0.0000
# 6 0.0000 0.0000 0.0000 0.0000 0.0000 28.1563
#
#
#
# Elastic Compliance Matrix: (Units=1/GPa)
#
#
# Indices 1 2 3 4 5 6 
#
# 1 0.040409 -0.010109 -0.010906 0.000000 0.000000 0.000000
# 2 -0.010109 0.016307 -0.000333 0.000000 0.000000 0.000000
# 3 -0.010906 -0.000333 0.011253 0.000000 0.000000 0.000000
# 4 0.000000 0.000000 0.000000 0.044708 0.000000 0.000000
# 5 0.000000 0.000000 0.000000 0.000000 0.032630 0.000000
# 6 0.000000 0.000000 0.000000 0.000000 0.000000 0.035516
#
#
# Mechanical properties :
#
#
# Convention : Reuss Voigt Hill
#
# Bulk Modulus (GPa) = 39.57068 50.24166 44.90617
# Shear Modulus (GPa) = 21.55704 26.49292 24.02498
#
# Velocity S-wave (km/s) = 3.30847 3.66773 3.49272
# Velocity P-wave (km/s) = 5.88959 6.59146 6.25039
#
# Compressibility (1/GPa) = 0.02527124
#
# Stress axis : x y z
#
# Youngs Moduli (GPa) = 24.74690 61.32504 88.86823
#
# Poissons Ratio (x) = 0.61996 0.96921
# Poissons Ratio (y) = 0.25018 0.02959
# Poissons Ratio (z) = 0.26989 0.02042
#
# Static dielectric constant tensor:
#      x y z
#    x 3.407160 0.000000 0.000000 
#    y 0.000000 3.790100 0.000000 
#    z 0.000000 0.000000 4.099600 
# 
# 
# High freq. dielectric constant tensor:
#      x y z
#    x 1.746470 0.000000 0.000000 
#    y 0.000000 1.779290 0.000000 
#    z 0.000000 0.000000 1.785220 
# 
# From -- ./inp_files/66880.got.cif
#   From: 2010.03.12/outbox.cif.g09.slc.cpg/sg63_34_cif.got.tgz:66880.got - 2010.04.10 19:34:48.
