data_PCOD8259563
_publ_section_title
;
Structure prediction by ZEFSAII (Michael W. Deem and Ramdas Pophale) SiO2 
 PCOD8259563
Probable space group: C M C M
;
_chemical_formula_sum "Si O2"
_cell_formula_units_Z 96
_cell_length_a 23.023516
_cell_length_b 11.842346
_cell_length_c 18.053255
_cell_angle_alpha 90.000000
_cell_angle_beta 90.000000
_cell_angle_gamma 90.000000
_cell_volume 4922.264073
_symmetry_space_group_name_H-M "C M C M"
_symmetry_group_IT_number 63
_symmetry_cell_setting 'orthorhombic'
loop_
_space_group_symop_operation_xyz
x,y,z
-x,-y,1/2+z
x,-y,-z
-x,y,1/2-z
-x,-y,-z
x,y,1/2-z
-x,y,z
x,-y,1/2+z
1/2+x,1/2+y,z
1/2-x,1/2-y,1/2+z
1/2+x,1/2-y,-z
1/2-x,1/2+y,1/2-z
1/2-x,1/2-y,-z
1/2+x,1/2+y,1/2-z
1/2-x,1/2+y,z
1/2+x,1/2-y,1/2+z
loop_
_atom_site_type_symbol
_atom_site_label
_atom_site_fract_x
_atom_site_fract_y
_atom_site_fract_z
Si Si1 0.858729 0.356119 0.333885
Si Si2 0.273960 0.338139 0.665535
Si Si3 0.930575 0.201473 0.598701
Si Si4 0.351474 0.881651 0.663582
Si Si5 0.934907 0.203811 0.430572
Si Si6 0.117436 0.979804 0.662975
O O1 0.882103 0.337361 0.250000
O O2 0.798026 0.289005 0.343134
O O3 0.851526 0.485952 0.352104
O O4 0.902589 0.307957 0.393633
O O5 0.263208 0.372562 0.750000
O O6 0.210221 0.340650 0.628349
O O7 0.319857 0.431833 0.634360
O O8 0.905614 0.323463 0.622122
O O9 0.913557 0.178771 0.513752
O O10 0.000000 0.195520 0.613993
O O11 0.894271 0.110745 0.646992
O O12 0.357667 0.852858 0.750000
O O13 0.930790 0.090556 0.381798
O O14 0.000000 0.245724 0.435269
O O15 0.110822 0.954952 0.750000
#
# Coordination Sequence:
#
# PCOD8259563 Si02
#       6
#    16  16  16  16  16  16
#     4   9  19  36  58  84 110 143 195 243 281 336
#     4   8  17  34  58  85 110 143 188 235 289 336
#     4  11  24  38  55  83 121 160 189 227 290 351
#     4  10  21  36  58  84 115 151 189 238 284 339
#     4  10  21  38  58  79 112 155 194 233 281 338
#     4  10  20  36  61  89 114 143 189 243 286 338
#
# _framework density 19.503219000000001
#
# number of rings (size 3 to 8) (size 9 to 14) (size 15 to 20)
#    0.000    2.333    0.000    3.000    2.333    6.000 
#    0.000    6.667    7.333    0.000    0.000    0.000 
#    0.000    0.000    0.000    0.000    0.000    0.000 
#
# Total GULP energy -594982.655037 kJ/mol
# GULP energy per Si atom -12395.471980 kJ/mol
# Density = 1.945883 g / cm^3
# Si number density = 19.503219 Si / 1000 Ang^3
#
#
#
# Elastic Constant Matrix: (Units=GPa)
#
#
# Indices 1 2 3 4 5 6 
#
# 1 85.9619 46.7995 36.7856 0.0000 0.0000 0.0000
# 2 46.7995 119.5780 31.5016 0.0000 0.0000 0.0000
# 3 36.7856 31.5016 74.8763 0.0000 0.0000 0.0000
# 4 0.0000 0.0000 0.0000 23.9755 0.0000 0.0000
# 5 0.0000 0.0000 0.0000 0.0000 16.2260 0.0000
# 6 0.0000 0.0000 0.0000 0.0000 0.0000 19.9232
#
#
#
# Elastic Compliance Matrix: (Units=1/GPa)
#
#
# Indices 1 2 3 4 5 6 
#
# 1 0.017047 -0.005022 -0.006262 0.000000 0.000000 0.000000
# 2 -0.005022 0.010885 -0.002112 0.000000 0.000000 0.000000
# 3 -0.006262 -0.002112 0.017320 0.000000 0.000000 0.000000
# 4 0.000000 0.000000 0.000000 0.041709 0.000000 0.000000
# 5 0.000000 0.000000 0.000000 0.000000 0.061629 0.000000
# 6 0.000000 0.000000 0.000000 0.000000 0.000000 0.050193
#
#
# Mechanical properties :
#
#
# Convention : Reuss Voigt Hill
#
# Bulk Modulus (GPa) = 54.17229 56.73217 55.45223
# Shear Modulus (GPa) = 21.57696 23.04692 22.31194
#
# Velocity S-wave (km/s) = 3.32976 3.44131 3.38600
# Velocity P-wave (km/s) = 6.52836 6.70388 6.61670
#
# Compressibility (1/GPa) = 0.01845962
#
# Stress axis : x y z
#
# Youngs Moduli (GPa) = 58.66190 91.87283 57.73540
#
# Poissons Ratio (x) = 0.46138 0.36154
# Poissons Ratio (y) = 0.29460 0.12194
# Poissons Ratio (z) = 0.36734 0.19404
#
# Static dielectric constant tensor:
#      x y z
#    x 3.626040 0.000000 0.000000 
#    y 0.000000 3.502060 0.000000 
#    z 0.000000 0.000000 3.484380 
# 
# 
# High freq. dielectric constant tensor:
#      x y z
#    x 1.758120 0.000000 0.000000 
#    y 0.000000 1.761530 0.000000 
#    z 0.000000 0.000000 1.742980 
# 
# From -- ./inp_files/48033.got.cif
#   From: 2010.03.12/outbox.cif.g09.slc.cpg/sg63_25_cif.got.tgz:48033.got - 2010.04.10 19:34:48.
