data_PCOD8259412
_publ_section_title
;
Structure prediction by ZEFSAII (Michael W. Deem and Ramdas Pophale) SiO2 
 PCOD8259412
Probable space group: C M C M
;
_chemical_formula_sum "Si O2"
_cell_formula_units_Z 96
_cell_length_a 8.733555
_cell_length_b 25.254472
_cell_length_c 23.462165
_cell_angle_alpha 90.000000
_cell_angle_beta 90.000000
_cell_angle_gamma 90.000000
_cell_volume 5174.846087
_symmetry_space_group_name_H-M "C M C M"
_symmetry_group_IT_number 63
_symmetry_cell_setting 'orthorhombic'
loop_
_space_group_symop_operation_xyz
x,y,z
-x,-y,1/2+z
x,-y,-z
-x,y,1/2-z
-x,-y,-z
x,y,1/2-z
-x,y,z
x,-y,1/2+z
1/2+x,1/2+y,z
1/2-x,1/2-y,1/2+z
1/2+x,1/2-y,-z
1/2-x,1/2+y,1/2-z
1/2-x,1/2-y,-z
1/2+x,1/2+y,1/2-z
1/2-x,1/2+y,z
1/2+x,1/2-y,1/2+z
loop_
_atom_site_type_symbol
_atom_site_label
_atom_site_fract_x
_atom_site_fract_y
_atom_site_fract_z
Si Si1 0.178811 0.351478 0.621890
Si Si2 0.318989 0.650199 0.886991
Si Si3 0.178940 0.558661 0.684763
Si Si4 0.178637 0.691871 0.998505
Si Si5 0.682140 0.747861 0.686493
Si Si6 0.322541 0.447186 0.685144
O O1 0.213157 0.339794 0.556206
O O2 0.239881 0.301806 0.658130
O O3 0.274216 0.402124 0.641102
O O4 0.000000 0.361749 0.633303
O O5 0.500000 0.652959 0.892827
O O6 0.272000 0.595529 0.858034
O O7 0.247428 0.655087 0.949370
O O8 0.253860 0.698386 0.849036
O O9 0.223989 0.572493 0.750000
O O10 0.223574 0.498702 0.670553
O O11 0.000000 0.566498 0.674144
O O12 0.000000 0.699759 0.988969
O O13 0.250000 0.750000 0.000000
O O14 0.749817 0.744265 0.750000
O O15 0.500000 0.746186 0.687017
O O16 0.289431 0.428457 0.750000
O O17 0.500000 0.461046 0.676658
#
# Coordination Sequence:
#
# PCOD8259412 Si02
#       6
#    16  16  16  16  16  16
#     4  10  20  36  57  81 111 150 193 232 279 338
#     4  11  21  36  57  84 116 152 192 235 286 341
#     4  10  21  38  60  86 116 152 191 233 284 340
#     4  11  22  38  58  82 113 153 197 239 285 340
#     4   9  17  30  51  80 112 145 182 224 276 338
#     4  10  21  37  58  86 117 149 186 232 287 341
#
# _framework density 18.551278
#
# number of rings (size 3 to 8) (size 9 to 14) (size 15 to 20)
#    0.000    1.833    1.667    3.000    0.000    4.667 
#    0.000    0.833    0.000    8.000    0.000    0.000 
#    0.000    0.000    0.000    0.000    0.000    0.000 
#
# Total GULP energy -595386.447342 kJ/mol
# GULP energy per Si atom -12403.884320 kJ/mol
# Density = 1.850905 g / cm^3
# Si number density = 18.551278 Si / 1000 Ang^3
#
#
#
# Elastic Constant Matrix: (Units=GPa)
#
#
# Indices 1 2 3 4 5 6 
#
# 1 60.8520 28.6408 47.1633 0.0000 0.0000 0.0000
# 2 28.6408 100.1378 60.6746 0.0000 0.0000 0.0000
# 3 47.1633 60.6746 128.5698 0.0000 0.0000 0.0000
# 4 0.0000 0.0000 0.0000 21.9316 0.0000 0.0000
# 5 0.0000 0.0000 0.0000 0.0000 29.3413 0.0000
# 6 0.0000 0.0000 0.0000 0.0000 0.0000 33.0719
#
#
#
# Elastic Compliance Matrix: (Units=1/GPa)
#
#
# Indices 1 2 3 4 5 6 
#
# 1 0.023266 -0.002077 -0.007554 0.000000 0.000000 0.000000
# 2 -0.002077 0.014171 -0.005925 0.000000 0.000000 0.000000
# 3 -0.007554 -0.005925 0.013345 0.000000 0.000000 0.000000
# 4 0.000000 0.000000 0.000000 0.045596 0.000000 0.000000
# 5 0.000000 0.000000 0.000000 0.000000 0.034082 0.000000
# 6 0.000000 0.000000 0.000000 0.000000 0.000000 0.030237
#
#
# Mechanical properties :
#
#
# Convention : Reuss Voigt Hill
#
# Bulk Modulus (GPa) = 50.84389 62.50191 56.67290
# Shear Modulus (GPa) = 25.20579 27.07435 26.14007
#
# Velocity S-wave (km/s) = 3.69007 3.82440 3.75783
# Velocity P-wave (km/s) = 6.75442 7.29835 7.03165
#
# Compressibility (1/GPa) = 0.01966805
#
# Stress axis : x y z
#
# Youngs Moduli (GPa) = 42.98116 70.56866 74.93209
#
# Poissons Ratio (x) = 0.14658 0.56607
# Poissons Ratio (y) = 0.08927 0.44401
# Poissons Ratio (z) = 0.32470 0.41815
#
# Static dielectric constant tensor:
#      x y z
#    x 3.338070 0.000000 0.000000 
#    y 0.000000 3.345140 0.000000 
#    z 0.000000 0.000000 3.594080 
# 
# 
# High freq. dielectric constant tensor:
#      x y z
#    x 1.714100 0.000000 0.000000 
#    y 0.000000 1.720650 0.000000 
#    z 0.000000 0.000000 1.723920 
# 
# From -- ./inp_files/59900.got.cif
#   From: 2010.03.12/outbox.cif.g09.slc.cpg/sg63_30_cif.got.tgz:59900.got - 2010.04.10 19:34:48.
