data_PCOD8259339
_publ_section_title
;
Structure prediction by ZEFSAII (Michael W. Deem and Ramdas Pophale) SiO2 
 PCOD8259339
Probable space group: C M C M
;
_chemical_formula_sum "Si O2"
_cell_formula_units_Z 96
_cell_length_a 19.981513
_cell_length_b 14.321148
_cell_length_c 17.490143
_cell_angle_alpha 90.000000
_cell_angle_beta 90.000000
_cell_angle_gamma 90.000000
_cell_volume 5004.947925
_symmetry_space_group_name_H-M "C M C M"
_symmetry_group_IT_number 63
_symmetry_cell_setting 'orthorhombic'
loop_
_space_group_symop_operation_xyz
x,y,z
-x,-y,1/2+z
x,-y,-z
-x,y,1/2-z
-x,-y,-z
x,y,1/2-z
-x,y,z
x,-y,1/2+z
1/2+x,1/2+y,z
1/2-x,1/2-y,1/2+z
1/2+x,1/2-y,-z
1/2-x,1/2+y,1/2-z
1/2-x,1/2-y,-z
1/2+x,1/2+y,1/2-z
1/2-x,1/2+y,z
1/2+x,1/2-y,1/2+z
loop_
_atom_site_type_symbol
_atom_site_label
_atom_site_fract_x
_atom_site_fract_y
_atom_site_fract_z
Si Si1 0.192437 0.417326 0.661156
Si Si2 0.688272 0.259198 0.056029
Si Si3 0.922463 0.916755 0.838154
Si Si4 0.576513 0.945304 0.337829
Si Si5 0.189268 0.970066 0.087092
Si Si6 0.077675 0.735248 0.933481
O O1 0.199712 0.396908 0.750000
O O2 0.194916 0.318368 0.620426
O O3 0.122092 0.466469 0.641193
O O4 0.251976 0.484949 0.636281
O O5 0.691017 0.359061 0.097019
O O6 0.750000 0.250000 0.000000
O O7 0.619080 0.246843 0.010820
O O8 0.901151 0.912022 0.750000
O O9 0.904589 0.817535 0.874958
O O10 0.000000 0.941822 0.847729
O O11 0.882209 0.996896 0.881684
O O12 0.586869 0.913899 0.250000
O O13 0.500000 0.974974 0.352854
O O14 0.597963 0.860264 0.391837
O O15 0.198834 0.000000 0.000000
O O16 0.000000 0.736569 0.956185
#
# Coordination Sequence:
#
# PCOD8259339 Si02
#       6
#    16  16  16  16  16  16
#     4  11  25  42  62  87 120 159 200 249 304 362
#     4  12  24  40  61  88 119 154 198 251 303 356
#     4  10  21  38  61  91 125 159 200 248 295 350
#     4   9  19  37  61  89 122 161 201 243 295 356
#     4  12  23  40  64  88 119 158 202 251 298 361
#     4  10  20  35  61  93 122 156 199 248 298 351
#
# _framework density 19.181018000000002
#
# number of rings (size 3 to 8) (size 9 to 14) (size 15 to 20)
#    0.000    1.333    3.333    2.000    0.000    5.000 
#    0.000    4.167    0.000    2.000    0.000    0.000 
#    0.000    0.000    0.000    0.000    0.000    0.000 
#
# Total GULP energy -595470.313918 kJ/mol
# GULP energy per Si atom -12405.631540 kJ/mol
# Density = 1.913736 g / cm^3
# Si number density = 19.181018 Si / 1000 Ang^3
#
#
#
# Elastic Constant Matrix: (Units=GPa)
#
#
# Indices 1 2 3 4 5 6 
#
# 1 92.9947 66.4869 45.8326 0.0000 0.0000 0.0000
# 2 66.4869 178.4856 72.5880 0.0000 0.0000 0.0000
# 3 45.8326 72.5880 64.0405 0.0000 0.0000 0.0000
# 4 0.0000 0.0000 0.0000 37.9954 0.0000 0.0000
# 5 0.0000 0.0000 0.0000 0.0000 35.8430 0.0000
# 6 0.0000 0.0000 0.0000 0.0000 0.0000 29.8164
#
#
#
# Elastic Compliance Matrix: (Units=1/GPa)
#
#
# Indices 1 2 3 4 5 6 
#
# 1 0.017242 -0.002605 -0.009387 0.000000 0.000000 0.000000
# 2 -0.002605 0.010788 -0.010363 0.000000 0.000000 0.000000
# 3 -0.009387 -0.010363 0.034079 0.000000 0.000000 0.000000
# 4 0.000000 0.000000 0.000000 0.026319 0.000000 0.000000
# 5 0.000000 0.000000 0.000000 0.000000 0.027899 0.000000
# 6 0.000000 0.000000 0.000000 0.000000 0.000000 0.033539
#
#
# Mechanical properties :
#
#
# Convention : Reuss Voigt Hill
#
# Bulk Modulus (GPa) = 57.47506 78.37063 67.92285
# Shear Modulus (GPa) = 24.95300 30.77185 27.86243
#
# Velocity S-wave (km/s) = 3.61074 4.00970 3.81544
# Velocity P-wave (km/s) = 6.88570 7.89836 7.40935
#
# Compressibility (1/GPa) = 0.01739885
#
# Stress axis : x y z
#
# Youngs Moduli (GPa) = 57.99657 92.69844 29.34323
#
# Poissons Ratio (x) = 0.24150 0.27545
# Poissons Ratio (y) = 0.15110 0.30408
# Poissons Ratio (z) = 0.54442 0.96063
#
# Static dielectric constant tensor:
#      x y z
#    x 3.546570 0.000000 0.000000 
#    y 0.000000 3.511660 0.000000 
#    z 0.000000 0.000000 3.513600 
# 
# 
# High freq. dielectric constant tensor:
#      x y z
#    x 1.760600 0.000000 0.000000 
#    y 0.000000 1.750180 0.000000 
#    z 0.000000 0.000000 1.747680 
# 
# From -- ./inp_files/35322.got.cif
#   From: 2010.03.12/outbox.cif.g09.slc.cpg/sg63_18_cif.got.tgz:35322.got - 2010.04.10 19:34:48.
