data_PCOD8259896
_publ_section_title
;
Structure prediction by ZEFSAII (Michael W. Deem and Ramdas Pophale) SiO2 
 PCOD8259896
Probable space group: C M C M
;
_chemical_formula_sum "Si O2"
_cell_formula_units_Z 80
_cell_length_a 24.563038
_cell_length_b 12.973529
_cell_length_c 13.766223
_cell_angle_alpha 90.000000
_cell_angle_beta 90.000000
_cell_angle_gamma 90.000000
_cell_volume 4386.872452
_symmetry_space_group_name_H-M "C M C M"
_symmetry_group_IT_number 63
_symmetry_cell_setting 'orthorhombic'
loop_
_space_group_symop_operation_xyz
x,y,z
-x,-y,1/2+z
x,-y,-z
-x,y,1/2-z
-x,-y,-z
x,y,1/2-z
-x,y,z
x,-y,1/2+z
1/2+x,1/2+y,z
1/2-x,1/2-y,1/2+z
1/2+x,1/2-y,-z
1/2-x,1/2+y,1/2-z
1/2-x,1/2-y,-z
1/2+x,1/2+y,1/2-z
1/2-x,1/2+y,z
1/2+x,1/2-y,1/2+z
loop_
_atom_site_type_symbol
_atom_site_label
_atom_site_fract_x
_atom_site_fract_y
_atom_site_fract_z
Si Si1 0.692391 0.239618 0.750000
Si Si2 0.840707 0.096072 0.750000
Si Si3 0.665986 0.311775 0.043354
Si Si4 0.407935 0.389756 0.750000
Si Si5 0.243340 0.642952 0.089626
Si Si6 0.940111 0.887735 0.539762
Si Si7 0.721447 0.984147 0.250000
O O1 0.634919 0.296508 0.750000
O O2 0.727496 0.271896 0.656946
O O3 0.681715 0.115381 0.750000
O O4 0.848932 0.163037 0.653997
O O5 0.781146 0.055846 0.750000
O O6 0.879738 0.999803 0.750000
O O7 0.692603 0.198118 0.036391
O O8 0.709770 0.389682 0.989658
O O9 0.607827 0.309251 0.989205
O O10 0.445641 0.385396 0.655763
O O11 0.216422 0.550238 0.150858
O O12 0.000000 0.856640 0.498071
O O13 0.923055 0.000000 0.500000
#
# Coordination Sequence:
#
# PCOD8259896 Si02
#       7
#     8   8  16   8  16  16   8
#     4  11  19  34  53  82 109 149 182 216 281 343
#     4  12  19  30  55  73 114 154 179 224 274 316
#     4  11  21  36  53  80 111 153 187 221 273 333
#     4  12  21  36  54  79 113 151 180 226 273 326
#     4  10  21  34  55  79 115 149 182 222 280 333
#     4  11  23  37  57  83 112 149 189 225 272 331
#     4  11  20  34  50  84 115 142 185 224 272 337
#
# _framework density 18.236228000000001
#
# number of rings (size 3 to 8) (size 9 to 14) (size 15 to 20)
#    0.000    1.000    8.000    0.900    0.000    0.000 
#    0.000    0.500    0.000    0.000    0.000    4.200 
#    0.000    0.000    0.000    0.000    0.000    0.000 
#
# Total GULP energy -495658.211346 kJ/mol
# GULP energy per Si atom -12391.455284 kJ/mol
# Density = 1.819472 g / cm^3
# Si number density = 18.236228 Si / 1000 Ang^3
#
#
#
# Elastic Constant Matrix: (Units=GPa)
#
#
# Indices 1 2 3 4 5 6 
#
# 1 111.3675 28.6387 23.3977 0.0000 0.0000 0.0000
# 2 28.6387 76.1330 25.1555 0.0000 0.0000 0.0000
# 3 23.3977 25.1555 113.4304 0.0000 0.0000 0.0000
# 4 0.0000 0.0000 0.0000 12.9775 0.0000 0.0000
# 5 0.0000 0.0000 0.0000 0.0000 22.5634 0.0000
# 6 0.0000 0.0000 0.0000 0.0000 0.0000 15.6861
#
#
#
# Elastic Compliance Matrix: (Units=1/GPa)
#
#
# Indices 1 2 3 4 5 6 
#
# 1 0.010127 -0.003366 -0.001342 0.000000 0.000000 0.000000
# 2 -0.003366 0.015292 -0.002697 0.000000 0.000000 0.000000
# 3 -0.001342 -0.002697 0.009691 0.000000 0.000000 0.000000
# 4 0.000000 0.000000 0.000000 0.077056 0.000000 0.000000
# 5 0.000000 0.000000 0.000000 0.000000 0.044320 0.000000
# 6 0.000000 0.000000 0.000000 0.000000 0.000000 0.063751
#
#
# Mechanical properties :
#
#
# Convention : Reuss Voigt Hill
#
# Bulk Modulus (GPa) = 49.26266 50.59052 49.92659
# Shear Modulus (GPa) = 20.67707 25.16133 22.91920
#
# Velocity S-wave (km/s) = 3.37092 3.71852 3.54898
# Velocity P-wave (km/s) = 6.49793 6.79989 6.65062
#
# Compressibility (1/GPa) = 0.02029935
#
# Stress axis : x y z
#
# Youngs Moduli (GPa) = 98.74733 65.39292 103.18825
#
# Poissons Ratio (x) = 0.22010 0.13853
# Poissons Ratio (y) = 0.33237 0.27831
# Poissons Ratio (z) = 0.13256 0.17637
#
# Static dielectric constant tensor:
#      x y z
#    x 3.160360 0.000000 0.000000 
#    y 0.000000 2.983330 0.000000 
#    z 0.000000 0.000000 3.920410 
# 
# 
# High freq. dielectric constant tensor:
#      x y z
#    x 1.680310 0.000000 0.000000 
#    y 0.000000 1.671840 0.000000 
#    z 0.000000 0.000000 1.734970 
# 
# From -- ./inp_files/36542.got.cif
#   From: 2010.03.12/outbox.cif.g09.slc.cpg/sg63_19_cif.got.tgz:36542.got - 2010.04.10 19:34:48.
