data_PCOD8259297
_publ_section_title
;
Structure prediction by ZEFSAII (Michael W. Deem and Ramdas Pophale) SiO2 
 PCOD8259297
Probable space group: C M C M
;
_chemical_formula_sum "Si O2"
_cell_formula_units_Z 96
_cell_length_a 11.223276
_cell_length_b 25.229421
_cell_length_c 17.629005
_cell_angle_alpha 90.000000
_cell_angle_beta 90.000000
_cell_angle_gamma 90.000000
_cell_volume 4991.771853
_symmetry_space_group_name_H-M "C M C M"
_symmetry_group_IT_number 63
_symmetry_cell_setting 'orthorhombic'
loop_
_space_group_symop_operation_xyz
x,y,z
-x,-y,1/2+z
x,-y,-z
-x,y,1/2-z
-x,-y,-z
x,y,1/2-z
-x,y,z
x,-y,1/2+z
1/2+x,1/2+y,z
1/2-x,1/2-y,1/2+z
1/2+x,1/2-y,-z
1/2-x,1/2+y,1/2-z
1/2-x,1/2-y,-z
1/2+x,1/2+y,1/2-z
1/2-x,1/2+y,z
1/2+x,1/2-y,1/2+z
loop_
_atom_site_type_symbol
_atom_site_label
_atom_site_fract_x
_atom_site_fract_y
_atom_site_fract_z
Si Si1 0.500000 0.173516 0.339453
Si Si2 0.766820 0.612829 0.340019
Si Si3 0.500000 0.709653 0.660959
Si Si4 0.359913 0.299717 0.577170
Si Si5 0.239006 0.191312 0.912112
Si Si6 0.639073 0.010399 0.088325
Si Si7 0.859724 0.596973 0.834397
O O1 0.500000 0.178710 0.250000
O O2 0.384189 0.143363 0.367531
O O3 0.500000 0.231695 0.376604
O O4 0.759801 0.603542 0.250000
O O5 0.656985 0.649891 0.366730
O O6 0.772943 0.556769 0.382912
O O7 0.500000 0.712247 0.750000
O O8 0.381913 0.680320 0.633758
O O9 0.500000 0.291487 0.562057
O O10 0.303767 0.246112 0.612967
O O11 0.288459 0.311301 0.500642
O O12 0.325063 0.143324 0.891742
O O13 0.500000 0.023722 0.106130
O O14 0.684524 0.959010 0.133263
O O15 0.658349 0.000000 0.000000
O O16 0.805939 0.605779 0.750000
O O17 0.000000 0.596073 0.830291
#
# Coordination Sequence:
#
# PCOD8259297 Si02
#       7
#     8  16   8  16  16  16  16
#     4   9  18  32  53  87 117 145 190 241 291 336
#     4  11  21  36  60  86 117 154 193 244 295 349
#     4  11  20  36  60  87 113 153 203 241 282 340
#     4  11  24  39  58  86 119 156 197 239 296 349
#     4  11  22  39  59  84 120 157 194 240 289 352
#     4  10  20  35  58  89 119 151 192 241 295 350
#     4  10  21  37  58  87 120 153 189 236 293 350
#
# _framework density 19.231648
#
# number of rings (size 3 to 8) (size 9 to 14) (size 15 to 20)
#    0.000    1.500    3.333    2.500    0.000    1.667 
#    1.500    0.000    1.833    1.500    0.000    0.000 
#    0.000    0.000    0.000    0.000    0.000    0.000 
#
# Total GULP energy -595257.261306 kJ/mol
# GULP energy per Si atom -12401.192944 kJ/mol
# Density = 1.918788 g / cm^3
# Si number density = 19.231648 Si / 1000 Ang^3
#
#
#
# Elastic Constant Matrix: (Units=GPa)
#
#
# Indices 1 2 3 4 5 6 
#
# 1 43.5674 30.5328 25.3065 0.0000 0.0000 0.0000
# 2 30.5328 120.0616 36.7320 0.0000 0.0000 0.0000
# 3 25.3065 36.7320 77.8998 0.0000 0.0000 0.0000
# 4 0.0000 0.0000 0.0000 34.2917 0.0000 0.0000
# 5 0.0000 0.0000 0.0000 0.0000 28.0332 0.0000
# 6 0.0000 0.0000 0.0000 0.0000 0.0000 29.8691
#
#
#
# Elastic Compliance Matrix: (Units=1/GPa)
#
#
# Indices 1 2 3 4 5 6 
#
# 1 0.031270 -0.005661 -0.007489 0.000000 0.000000 0.000000
# 2 -0.005661 0.010758 -0.003234 0.000000 0.000000 0.000000
# 3 -0.007489 -0.003234 0.016795 0.000000 0.000000 0.000000
# 4 0.000000 0.000000 0.000000 0.029162 0.000000 0.000000
# 5 0.000000 0.000000 0.000000 0.000000 0.035672 0.000000
# 6 0.000000 0.000000 0.000000 0.000000 0.000000 0.033479
#
#
# Mechanical properties :
#
#
# Convention : Reuss Voigt Hill
#
# Bulk Modulus (GPa) = 38.37982 47.40796 42.89389
# Shear Modulus (GPa) = 25.17759 28.36928 26.77344
#
# Velocity S-wave (km/s) = 3.62218 3.84492 3.73521
# Velocity P-wave (km/s) = 6.12319 6.66451 6.39958
#
# Compressibility (1/GPa) = 0.02605536
#
# Stress axis : x y z
#
# Youngs Moduli (GPa) = 31.97904 92.95365 59.54260
#
# Poissons Ratio (x) = 0.52622 0.44592
# Poissons Ratio (y) = 0.18104 0.19254
# Poissons Ratio (z) = 0.23950 0.30058
#
# Static dielectric constant tensor:
#      x y z
#    x 3.275040 0.000000 0.000000 
#    y 0.000000 3.598010 0.000000 
#    z 0.000000 0.000000 3.531430 
# 
# 
# High freq. dielectric constant tensor:
#      x y z
#    x 1.724190 0.000000 0.000000 
#    y 0.000000 1.751940 0.000000 
#    z 0.000000 0.000000 1.753820 
# 
# From -- ./inp_files/42552.got.cif
#   From: 2010.03.12/outbox.cif.g09.slc.cpg/sg63_22_cif.got.tgz:42552.got - 2010.04.10 19:34:48.
