data_PCOD8259081
_publ_section_title
;
Structure prediction by ZEFSAII (Michael W. Deem and Ramdas Pophale) SiO2 
 PCOD8259081
Probable space group: C M C M
;
_chemical_formula_sum "Si O2"
_cell_formula_units_Z 72
_cell_length_a 28.461313
_cell_length_b 15.169233
_cell_length_c 9.178607
_cell_angle_alpha 90.000000
_cell_angle_beta 90.000000
_cell_angle_gamma 90.000000
_cell_volume 3962.737719
_symmetry_space_group_name_H-M "C M C M"
_symmetry_group_IT_number 63
_symmetry_cell_setting 'orthorhombic'
loop_
_space_group_symop_operation_xyz
x,y,z
-x,-y,1/2+z
x,-y,-z
-x,y,1/2-z
-x,-y,-z
x,y,1/2-z
-x,y,z
x,-y,1/2+z
1/2+x,1/2+y,z
1/2-x,1/2-y,1/2+z
1/2+x,1/2-y,-z
1/2-x,1/2+y,1/2-z
1/2-x,1/2-y,-z
1/2+x,1/2+y,1/2-z
1/2-x,1/2+y,z
1/2+x,1/2-y,1/2+z
loop_
_atom_site_type_symbol
_atom_site_label
_atom_site_fract_x
_atom_site_fract_y
_atom_site_fract_z
Si Si1 0.141912 0.257425 0.578180
Si Si2 0.289572 0.913091 0.918791
Si Si3 0.000000 0.087972 0.088092
Si Si4 0.948365 0.255819 0.083827
Si Si5 0.318786 0.410366 0.922068
O O1 0.143086 0.239234 0.750000
O O2 0.179791 0.330085 0.530622
O O3 0.090424 0.291952 0.528737
O O4 0.151779 0.168902 0.489632
O O5 0.296488 0.932296 0.750000
O O6 0.235770 0.892200 0.957796
O O7 0.307732 0.000000 0.000000
O O8 0.954013 0.149512 0.061129
O O9 0.000000 0.052232 0.250000
O O10 0.000000 0.000000 0.000000
O O11 0.932844 0.276052 0.250000
O O12 0.000000 0.299879 0.053822
O O13 0.328167 0.417245 0.750000
O O14 0.335255 0.500000 0.000000
#
# Coordination Sequence:
#
# PCOD8259081 Si02
#       5
#    16  16   8  16  16
#     4  11  21  33  53  81 108 137 175 217 263 316
#     4   9  20  36  54  78 106 137 176 219 263 312
#     4   8  16  30  48  68  93 124 163 204 245 296
#     4   8  18  35  50  69  98 134 173 211 253 305
#     4  10  20  35  53  75 107 143 177 215 258 308
#
# _framework density 18.169257000000002
#
# number of rings (size 3 to 8) (size 9 to 14) (size 15 to 20)
#    0.667    2.000    0.000    2.000    0.000    4.889 
#    0.000    2.222    0.000    0.667    0.000    0.000 
#    0.000    0.000    0.000    0.000    0.000    0.000 
#
# Total GULP energy -446179.409273 kJ/mol
# GULP energy per Si atom -12393.872480 kJ/mol
# Density = 1.812790 g / cm^3
# Si number density = 18.169257 Si / 1000 Ang^3
#
#
#
# Elastic Constant Matrix: (Units=GPa)
#
#
# Indices 1 2 3 4 5 6 
#
# 1 73.1962 27.1771 35.1410 0.0000 0.0000 0.0000
# 2 27.1771 60.0915 32.1651 0.0000 0.0000 0.0000
# 3 35.1410 32.1651 77.2084 0.0000 0.0000 0.0000
# 4 0.0000 0.0000 0.0000 30.8602 0.0000 0.0000
# 5 0.0000 0.0000 0.0000 0.0000 32.0884 0.0000
# 6 0.0000 0.0000 0.0000 0.0000 0.0000 6.2227
#
#
#
# Elastic Compliance Matrix: (Units=1/GPa)
#
#
# Indices 1 2 3 4 5 6 
#
# 1 0.018575 -0.004988 -0.006376 0.000000 0.000000 0.000000
# 2 -0.004988 0.022756 -0.007210 0.000000 0.000000 0.000000
# 3 -0.006376 -0.007210 0.018858 0.000000 0.000000 0.000000
# 4 0.000000 0.000000 0.000000 0.032404 0.000000 0.000000
# 5 0.000000 0.000000 0.000000 0.000000 0.031164 0.000000
# 6 0.000000 0.000000 0.000000 0.000000 0.000000 0.160703
#
#
# Mechanical properties :
#
#
# Convention : Reuss Voigt Hill
#
# Bulk Modulus (GPa) = 43.40146 44.38474 43.89310
# Shear Modulus (GPa) = 15.18422 21.56844 18.37633
#
# Velocity S-wave (km/s) = 2.89400 3.44915 3.18370
# Velocity P-wave (km/s) = 5.92504 6.35167 6.14206
#
# Compressibility (1/GPa) = 0.02304070
#
# Stress axis : x y z
#
# Youngs Moduli (GPa) = 53.83547 43.94357 53.02797
#
# Poissons Ratio (x) = 0.21918 0.33813
# Poissons Ratio (y) = 0.26851 0.38234
# Poissons Ratio (z) = 0.34328 0.31684
#
# Static dielectric constant tensor:
#      x y z
#    x 3.069250 0.000000 0.000000 
#    y 0.000000 3.130580 0.000000 
#    z 0.000000 0.000000 3.306360 
# 
# 
# High freq. dielectric constant tensor:
#      x y z
#    x 1.702690 0.000000 0.000000 
#    y 0.000000 1.677290 0.000000 
#    z 0.000000 0.000000 1.707640 
# 
# From -- ./inp_files/13940.got.cif
#   From: 2010.03.12/outbox.cif.g09.slc.cpg/sg63_7_cif.got.tgz:13940.got - 2010.04.10 19:34:48.
