data_PCOD8259905
_publ_section_title
;
Structure prediction by ZEFSAII (Michael W. Deem and Ramdas Pophale) SiO2 
 PCOD8259905
Probable space group: C M C M
;
_chemical_formula_sum "Si O2"
_cell_formula_units_Z 96
_cell_length_a 9.475723
_cell_length_b 30.862563
_cell_length_c 19.206112
_cell_angle_alpha 90.000000
_cell_angle_beta 90.000000
_cell_angle_gamma 90.000000
_cell_volume 5616.733307
_symmetry_space_group_name_H-M "C M C M"
_symmetry_group_IT_number 63
_symmetry_cell_setting 'orthorhombic'
loop_
_space_group_symop_operation_xyz
x,y,z
-x,-y,1/2+z
x,-y,-z
-x,y,1/2-z
-x,-y,-z
x,y,1/2-z
-x,y,z
x,-y,1/2+z
1/2+x,1/2+y,z
1/2-x,1/2-y,1/2+z
1/2+x,1/2-y,-z
1/2-x,1/2+y,1/2-z
1/2-x,1/2-y,-z
1/2+x,1/2+y,1/2-z
1/2-x,1/2+y,z
1/2+x,1/2-y,1/2+z
loop_
_atom_site_type_symbol
_atom_site_label
_atom_site_fract_x
_atom_site_fract_y
_atom_site_fract_z
Si Si1 0.333049 0.615043 0.916093
Si Si2 0.345088 0.712483 0.916765
Si Si3 0.343773 0.711021 0.082057
Si Si4 0.167274 0.883250 0.926466
Si Si5 0.163801 0.038515 0.330897
Si Si6 0.162555 0.545356 0.832066
O O1 0.500000 0.606283 0.905854
O O2 0.293525 0.664436 0.896014
O O3 0.240915 0.585560 0.866166
O O4 0.284918 0.605079 0.995284
O O5 0.500000 0.720471 0.885388
O O6 0.245819 0.749802 0.884615
O O7 0.351623 0.716098 0.999504
O O8 0.500000 0.714481 0.114582
O O9 0.273869 0.663827 0.098309
O O10 0.219481 0.920137 0.873813
O O11 0.000000 0.878507 0.926549
O O12 0.185879 0.049054 0.250000
O O13 0.000000 0.028303 0.347474
O O14 0.257760 0.998255 0.355532
O O15 0.173999 0.551456 0.750000
O O16 0.000000 0.542950 0.856477
#
# Coordination Sequence:
#
# PCOD8259905 Si02
#       6
#    16  16  16  16  16  16
#     4   9  17  30  48  68  91 119 151 187 224 263
#     4   8  14  24  39  62  89 115 146 182 217 256
#     4   8  13  23  40  61  88 120 148 177 217 260
#     4   8  15  28  46  70  95 117 148 190 226 255
#     4   9  17  31  51  69  86 116 155 185 215 265
#     4  10  21  35  48  64  89 117 146 185 230 273
#
# _framework density 17.091785999999999
#
# number of rings (size 3 to 8) (size 9 to 14) (size 15 to 20)
#    0.000    3.333    0.000    2.500    0.000    2.333 
#    0.000    7.500    0.000    1.000    0.000    2.333 
#    0.000    0.000    0.000    0.000    0.000    0.000 
#
# Total GULP energy -594899.964236 kJ/mol
# GULP energy per Si atom -12393.749255 kJ/mol
# Density = 1.705288 g / cm^3
# Si number density = 17.091786 Si / 1000 Ang^3
#
#
#
# Elastic Constant Matrix: (Units=GPa)
#
#
# Indices 1 2 3 4 5 6 
#
# 1 80.8161 75.4462 26.6415 0.0000 0.0000 0.0000
# 2 75.4462 163.8620 44.2877 0.0000 0.0000 0.0000
# 3 26.6415 44.2877 28.4842 0.0000 0.0000 0.0000
# 4 0.0000 0.0000 0.0000 2.1934 0.0000 0.0000
# 5 0.0000 0.0000 0.0000 0.0000 16.3007 0.0000
# 6 0.0000 0.0000 0.0000 0.0000 0.0000 30.5706
#
#
#
# Elastic Compliance Matrix: (Units=1/GPa)
#
#
# Indices 1 2 3 4 5 6 
#
# 1 0.022876 -0.008193 -0.008658 0.000000 0.000000 0.000000
# 2 -0.008193 0.013460 -0.013265 0.000000 0.000000 0.000000
# 3 -0.008658 -0.013265 0.063830 0.000000 0.000000 0.000000
# 4 0.000000 0.000000 0.000000 0.455922 0.000000 0.000000
# 5 0.000000 0.000000 0.000000 0.000000 0.061347 0.000000
# 6 0.000000 0.000000 0.000000 0.000000 0.000000 0.032711
#
#
# Mechanical properties :
#
#
# Convention : Reuss Voigt Hill
#
# Bulk Modulus (GPa) = 25.04110 62.87924 43.96017
# Shear Modulus (GPa) = 6.90903 18.26541 12.58722
#
# Velocity S-wave (km/s) = 2.01273 3.27259 2.71670
# Velocity P-wave (km/s) = 4.48154 7.15184 5.96796
#
# Compressibility (1/GPa) = 0.03993435
#
# Stress axis : x y z
#
# Youngs Moduli (GPa) = 43.71321 74.29355 15.66654
#
# Poissons Ratio (x) = 0.60867 0.13564
# Poissons Ratio (y) = 0.35813 0.20782
# Poissons Ratio (z) = 0.37848 0.98552
#
# Static dielectric constant tensor:
#      x y z
#    x 3.242210 0.000000 0.000000 
#    y 0.000000 3.503120 0.000000 
#    z 0.000000 0.000000 2.853060 
# 
# 
# High freq. dielectric constant tensor:
#      x y z
#    x 1.640750 0.000000 0.000000 
#    y 0.000000 1.675120 0.000000 
#    z 0.000000 0.000000 1.617230 
# 
# From -- ./inp_files/51426.got.cif
#   From: 2010.03.12/outbox.cif.g09.slc.cpg/sg63_26_cif.got.tgz:51426.got - 2010.04.10 19:34:48.
