data_PCOD8259461
_publ_section_title
;
Structure prediction by ZEFSAII (Michael W. Deem and Ramdas Pophale) SiO2 
 PCOD8259461
Probable space group: C M C M
;
_chemical_formula_sum "Si O2"
_cell_formula_units_Z 80
_cell_length_a 8.857157
_cell_length_b 15.703629
_cell_length_c 29.188869
_cell_angle_alpha 90.000000
_cell_angle_beta 90.000000
_cell_angle_gamma 90.000000
_cell_volume 4059.865414
_symmetry_space_group_name_H-M "C M C M"
_symmetry_group_IT_number 63
_symmetry_cell_setting 'orthorhombic'
loop_
_space_group_symop_operation_xyz
x,y,z
-x,-y,1/2+z
x,-y,-z
-x,y,1/2-z
-x,-y,-z
x,y,1/2-z
-x,y,z
x,-y,1/2+z
1/2+x,1/2+y,z
1/2-x,1/2-y,1/2+z
1/2+x,1/2-y,-z
1/2-x,1/2+y,1/2-z
1/2-x,1/2-y,-z
1/2+x,1/2+y,1/2-z
1/2-x,1/2+y,z
1/2+x,1/2-y,1/2+z
loop_
_atom_site_type_symbol
_atom_site_label
_atom_site_fract_x
_atom_site_fract_y
_atom_site_fract_z
Si Si1 0.820650 0.415757 0.606436
Si Si2 0.170759 0.673877 0.800380
Si Si3 0.325687 0.896253 0.396120
Si Si4 0.678088 0.150485 0.200320
Si Si5 0.178610 0.745066 0.049499
O O1 0.773086 0.509153 0.588125
O O2 0.754073 0.403066 0.657896
O O3 0.759074 0.341409 0.573259
O O4 0.000000 0.409384 0.608840
O O5 0.198233 0.631323 0.750000
O O6 0.197182 0.606236 0.840990
O O7 0.284468 0.751070 0.808167
O O8 0.000000 0.709512 0.803136
O O9 0.500000 0.879958 0.409489
O O10 0.223879 0.826995 0.421021
O O11 0.744239 0.120547 0.250000
O O12 0.500000 0.140929 0.201147
O O13 0.000000 0.742807 0.044877
O O14 0.250000 0.750000 0.000000
#
# Coordination Sequence:
#
# PCOD8259461 Si02
#       5
#    16  16  16  16  16
#     4   9  19  35  56  82 111 143 180 222 270 322
#     4   9  17  29  49  79 113 145 177 217 263 311
#     4  10  20  36  58  83 111 145 183 222 269 323
#     4   9  16  29  52  79 108 145 186 221 258 313
#     4  11  23  41  61  81 108 140 180 229 283 335
#
# _framework density 19.705086000000001
#
# number of rings (size 3 to 8) (size 9 to 14) (size 15 to 20)
#    0.000    2.400    2.000    0.600    0.000    1.600 
#    0.000   11.000    0.000    0.000    0.000    5.600 
#    0.000    0.000    0.000    0.000    0.000    0.000 
#
# Total GULP energy -495699.972544 kJ/mol
# GULP energy per Si atom -12392.499314 kJ/mol
# Density = 1.966024 g / cm^3
# Si number density = 19.705086 Si / 1000 Ang^3
#
#
#
# Elastic Constant Matrix: (Units=GPa)
#
#
# Indices 1 2 3 4 5 6 
#
# 1 29.7278 20.1294 29.7507 0.0000 0.0000 0.0000
# 2 20.1294 129.2311 66.0183 0.0000 0.0000 0.0000
# 3 29.7507 66.0183 137.5142 0.0000 0.0000 0.0000
# 4 0.0000 0.0000 0.0000 13.9747 0.0000 0.0000
# 5 0.0000 0.0000 0.0000 0.0000 26.0791 0.0000
# 6 0.0000 0.0000 0.0000 0.0000 0.0000 23.2864
#
#
#
# Elastic Compliance Matrix: (Units=1/GPa)
#
#
# Indices 1 2 3 4 5 6 
#
# 1 0.043590 -0.002613 -0.008176 0.000000 0.000000 0.000000
# 2 -0.002613 0.010409 -0.004432 0.000000 0.000000 0.000000
# 3 -0.008176 -0.004432 0.011169 0.000000 0.000000 0.000000
# 4 0.000000 0.000000 0.000000 0.071558 0.000000 0.000000
# 5 0.000000 0.000000 0.000000 0.000000 0.038345 0.000000
# 6 0.000000 0.000000 0.000000 0.000000 0.000000 0.042943
#
#
# Mechanical properties :
#
#
# Convention : Reuss Voigt Hill
#
# Bulk Modulus (GPa) = 28.79699 58.69666 43.74683
# Shear Modulus (GPa) = 19.22845 24.70637 21.96741
#
# Velocity S-wave (km/s) = 3.12719 3.54475 3.34250
# Velocity P-wave (km/s) = 5.26163 6.82685 6.09470
#
# Compressibility (1/GPa) = 0.03472585
#
# Stress axis : x y z
#
# Youngs Moduli (GPa) = 22.94094 96.06920 89.53689
#
# Poissons Ratio (x) = 0.25102 0.73207
# Poissons Ratio (y) = 0.05994 0.39683
# Poissons Ratio (z) = 0.18757 0.42578
#
# Static dielectric constant tensor:
#      x y z
#    x 3.322970 0.000000 0.000000 
#    y 0.000000 3.587630 0.000000 
#    z 0.000000 0.000000 4.015420 
# 
# 
# High freq. dielectric constant tensor:
#      x y z
#    x 1.734230 0.000000 0.000000 
#    y 0.000000 1.756620 0.000000 
#    z 0.000000 0.000000 1.781100 
# 
# From -- ./inp_files/71576.got.cif
#   From: 2010.03.12/outbox.cif.g09.slc.cpg/sg63_36_cif.got.tgz:71576.got - 2010.04.10 19:34:48.
