data_PCOD8259047
_publ_section_title
;
Structure prediction by ZEFSAII (Michael W. Deem and Ramdas Pophale) SiO2 
 PCOD8259047
Probable space group: C M C M
;
_chemical_formula_sum "Si O2"
_cell_formula_units_Z 96
_cell_length_a 8.501258
_cell_length_b 20.459314
_cell_length_c 27.948568
_cell_angle_alpha 90.000000
_cell_angle_beta 90.000000
_cell_angle_gamma 90.000000
_cell_volume 4861.091828
_symmetry_space_group_name_H-M "C M C M"
_symmetry_group_IT_number 63
_symmetry_cell_setting 'orthorhombic'
loop_
_space_group_symop_operation_xyz
x,y,z
-x,-y,1/2+z
x,-y,-z
-x,y,1/2-z
-x,-y,-z
x,y,1/2-z
-x,y,z
x,-y,1/2+z
1/2+x,1/2+y,z
1/2-x,1/2-y,1/2+z
1/2+x,1/2-y,-z
1/2-x,1/2+y,1/2-z
1/2-x,1/2-y,-z
1/2+x,1/2+y,1/2-z
1/2-x,1/2+y,z
1/2+x,1/2-y,1/2+z
loop_
_atom_site_type_symbol
_atom_site_label
_atom_site_fract_x
_atom_site_fract_y
_atom_site_fract_z
Si Si1 0.182142 0.990228 0.102297
Si Si2 0.181460 0.123107 0.449247
Si Si3 0.317398 0.949230 0.196242
Si Si4 0.319194 0.866205 0.448120
Si Si5 0.680605 0.310692 0.303357
Si Si6 0.180702 0.256842 0.601960
O O1 0.219596 0.992829 0.158895
O O2 0.284362 0.934453 0.077431
O O3 0.000000 0.974883 0.093513
O O4 0.231443 0.059234 0.080137
O O5 0.289084 0.127296 0.495691
O O6 0.207294 0.185786 0.415908
O O7 0.000000 0.119817 0.464880
O O8 0.260383 0.966592 0.250000
O O9 0.500000 0.964686 0.189785
O O10 0.289740 0.872717 0.185817
O O11 0.500000 0.847478 0.439642
O O12 0.210225 0.809460 0.427170
O O13 0.712688 0.282812 0.250000
O O14 0.500000 0.333875 0.308899
O O15 0.719165 0.254603 0.341885
O O16 0.000000 0.277321 0.594405
#
# Coordination Sequence:
#
# PCOD8259047 Si02
#       6
#    16  16  16  16  16  16
#     4  11  23  40  61  86 117 156 197 240 291 347
#     4  11  25  42  59  82 118 157 197 242 292 348
#     4  10  20  34  57  89 119 149 190 241 289 338
#     4  12  24  39  62  88 116 151 196 245 293 346
#     4   9  18  34  58  86 115 150 191 235 285 343
#     4  11  22  38  61  88 120 155 195 239 290 347
#
# _framework density 19.748650000000001
#
# number of rings (size 3 to 8) (size 9 to 14) (size 15 to 20)
#    0.000    1.333    1.667    4.500    0.000    6.333 
#    0.000    0.833    0.000    3.000    0.000    0.000 
#    0.000    0.000    0.000    0.000    0.000    0.000 
#
# Total GULP energy -595450.088766 kJ/mol
# GULP energy per Si atom -12405.210183 kJ/mol
# Density = 1.970370 g / cm^3
# Si number density = 19.748650 Si / 1000 Ang^3
#
#
#
# Elastic Constant Matrix: (Units=GPa)
#
#
# Indices 1 2 3 4 5 6 
#
# 1 52.0074 8.9749 20.3213 0.0000 0.0000 0.0000
# 2 8.9749 94.7966 43.4588 0.0000 0.0000 0.0000
# 3 20.3213 43.4588 133.3122 0.0000 0.0000 0.0000
# 4 0.0000 0.0000 0.0000 -4.5123 0.0000 0.0000
# 5 0.0000 0.0000 0.0000 0.0000 30.3347 0.0000
# 6 0.0000 0.0000 0.0000 0.0000 0.0000 28.4320
#
#
#
# Elastic Compliance Matrix: (Units=1/GPa)
#
#
# Indices 1 2 3 4 5 6 
#
# 1 0.020475 -0.000597 -0.002926 0.000000 0.000000 0.000000
# 2 -0.000597 0.012420 -0.003958 0.000000 0.000000 0.000000
# 3 -0.002926 -0.003958 0.009237 0.000000 0.000000 0.000000
# 4 0.000000 0.000000 0.000000 -0.221615 0.000000 0.000000
# 5 0.000000 0.000000 0.000000 0.000000 0.032966 0.000000
# 6 0.000000 0.000000 0.000000 0.000000 0.000000 0.035172
#
#
# Mechanical properties :
#
#
# Convention : Reuss Voigt Hill
#
# Bulk Modulus (GPa) = 36.80570 47.29178 42.04874
# Shear Modulus (GPa) = -57.25584 24.67495 -16.29045
#
# Velocity S-wave (km/s) = -5.39029 3.53859 -2.87520
# Velocity P-wave (km/s) = 4.47915 6.37921 3.21182
#
# Compressibility (1/GPa) = 0.02716970
#
# Stress axis : x y z
#
# Youngs Moduli (GPa) = 48.84122 80.51641 108.25454
#
# Poissons Ratio (x) = 0.04805 0.31680
# Poissons Ratio (y) = 0.02915 0.42845
# Poissons Ratio (z) = 0.14293 0.31867
#
# Static dielectric constant tensor:
#      x y z
#    x 3.544260 0.000000 0.000000 
#    y 0.000000 3.395140 0.000000 
#    z 0.000000 0.000000 3.946560 
# 
# 
# High freq. dielectric constant tensor:
#      x y z
#    x 1.775300 0.000000 0.000000 
#    y 0.000000 1.745180 0.000000 
#    z 0.000000 0.000000 1.788630 
# 
# From -- ./inp_files/66990.got.cif
#   From: 2010.03.12/outbox.cif.g09.slc.cpg/sg63_34_cif.got.tgz:66990.got - 2010.04.10 19:34:48.
