data_PCOD8259368
_publ_section_title
;
Structure prediction by ZEFSAII (Michael W. Deem and Ramdas Pophale) SiO2 
 PCOD8259368
Probable space group: C M C M
;
_chemical_formula_sum "Si O2"
_cell_formula_units_Z 96
_cell_length_a 9.172929
_cell_length_b 29.872363
_cell_length_c 19.239183
_cell_angle_alpha 90.000000
_cell_angle_beta 90.000000
_cell_angle_gamma 90.000000
_cell_volume 5271.864456
_symmetry_space_group_name_H-M "C M C M"
_symmetry_group_IT_number 63
_symmetry_cell_setting 'orthorhombic'
loop_
_space_group_symop_operation_xyz
x,y,z
-x,-y,1/2+z
x,-y,-z
-x,y,1/2-z
-x,-y,-z
x,y,1/2-z
-x,y,z
x,-y,1/2+z
1/2+x,1/2+y,z
1/2-x,1/2-y,1/2+z
1/2+x,1/2-y,-z
1/2-x,1/2+y,1/2-z
1/2-x,1/2-y,-z
1/2+x,1/2+y,1/2-z
1/2-x,1/2+y,z
1/2+x,1/2-y,1/2+z
loop_
_atom_site_type_symbol
_atom_site_label
_atom_site_fract_x
_atom_site_fract_y
_atom_site_fract_z
Si Si1 0.672297 0.864818 0.593353
Si Si2 0.169184 0.787221 0.669635
Si Si3 0.673174 0.186276 0.673166
Si Si4 0.672775 0.885229 0.062848
Si Si5 0.331292 0.523536 0.929790
Si Si6 0.833169 0.056936 0.330307
O O1 0.500000 0.862874 0.599836
O O2 0.736446 0.818397 0.620150
O O3 0.723313 0.871695 0.514166
O O4 0.728841 0.905621 0.639128
O O5 0.195110 0.800277 0.750000
O O6 0.223286 0.736676 0.655198
O O7 0.000000 0.793161 0.650597
O O8 0.731301 0.172696 0.750000
O O9 0.500000 0.185394 0.673806
O O10 0.734946 0.152087 0.615913
O O11 0.500000 0.889284 0.067924
O O12 0.739768 0.932300 0.085092
O O13 0.500000 0.536815 0.937657
O O14 0.302756 0.490521 0.865882
O O15 0.274715 0.500000 0.000000
O O16 0.796735 0.050681 0.250000
O O17 0.000000 0.072149 0.342571
#
# Coordination Sequence:
#
# PCOD8259368 Si02
#       6
#    16  16  16  16  16  16
#     4  11  22  33  49  78 113 140 168 212 264 313
#     4   9  18  34  56  77 100 137 181 218 254 304
#     4   8  16  34  57  78 102 136 178 218 256 307
#     4  10  21  35  54  80 108 138 172 213 262 313
#     4  10  20  36  56  76 101 136 175 213 259 311
#     4  10  21  37  56  77 102 136 179 219 255 307
#
# _framework density 18.209876999999999
#
# number of rings (size 3 to 8) (size 9 to 14) (size 15 to 20)
#    0.000    2.333    1.667    2.000    0.000    5.667 
#    0.000    0.833    0.000    1.000    0.000    0.000 
#    0.000    0.000    0.000    0.000    0.000    0.000 
#
# Total GULP energy -595287.532505 kJ/mol
# GULP energy per Si atom -12401.823594 kJ/mol
# Density = 1.816843 g / cm^3
# Si number density = 18.209877 Si / 1000 Ang^3
#
#
#
# Elastic Constant Matrix: (Units=GPa)
#
#
# Indices 1 2 3 4 5 6 
#
# 1 38.3195 40.6392 37.9267 0.0000 0.0000 0.0000
# 2 40.6392 137.6713 82.7114 0.0000 0.0000 0.0000
# 3 37.9267 82.7114 140.8609 0.0000 0.0000 0.0000
# 4 0.0000 0.0000 0.0000 38.5862 0.0000 0.0000
# 5 0.0000 0.0000 0.0000 0.0000 21.4012 0.0000
# 6 0.0000 0.0000 0.0000 0.0000 0.0000 29.5168
#
#
#
# Elastic Compliance Matrix: (Units=1/GPa)
#
#
# Indices 1 2 3 4 5 6 
#
# 1 0.041117 -0.008476 -0.006094 0.000000 0.000000 0.000000
# 2 -0.008476 0.012970 -0.005334 0.000000 0.000000 0.000000
# 3 -0.006094 -0.005334 0.011872 0.000000 0.000000 0.000000
# 4 0.000000 0.000000 0.000000 0.025916 0.000000 0.000000
# 5 0.000000 0.000000 0.000000 0.000000 0.046726 0.000000
# 6 0.000000 0.000000 0.000000 0.000000 0.000000 0.033879
#
#
# Mechanical properties :
#
#
# Convention : Reuss Voigt Hill
#
# Bulk Modulus (GPa) = 38.23833 71.04515 54.64174
# Shear Modulus (GPa) = 22.62396 28.27247 25.44821
#
# Velocity S-wave (km/s) = 3.52859 3.94457 3.74236
# Velocity P-wave (km/s) = 6.13560 7.73598 6.98180
#
# Compressibility (1/GPa) = 0.02615177
#
# Stress axis : x y z
#
# Youngs Moduli (GPa) = 24.32088 77.09961 84.23381
#
# Poissons Ratio (x) = 0.65353 0.51328
# Poissons Ratio (y) = 0.20615 0.44927
# Poissons Ratio (z) = 0.14820 0.41122
#
# Static dielectric constant tensor:
#      x y z
#    x 3.116260 0.000000 0.000000 
#    y 0.000000 3.427590 0.000000 
#    z 0.000000 0.000000 3.587930 
# 
# 
# High freq. dielectric constant tensor:
#      x y z
#    x 1.682870 0.000000 0.000000 
#    y 0.000000 1.714330 0.000000 
#    z 0.000000 0.000000 1.713560 
# 
# From -- ./inp_files/51395.got.cif
#   From: 2010.03.12/outbox.cif.g09.slc.cpg/sg63_26_cif.got.tgz:51395.got - 2010.04.10 19:34:48.
