data_PCOD8259782
_publ_section_title
;
Structure prediction by ZEFSAII (Michael W. Deem and Ramdas Pophale) SiO2 
 PCOD8259782
Probable space group: C M C M
;
_chemical_formula_sum "Si O2"
_cell_formula_units_Z 96
_cell_length_a 13.967827
_cell_length_b 17.357291
_cell_length_c 19.144951
_cell_angle_alpha 90.000000
_cell_angle_beta 90.000000
_cell_angle_gamma 90.000000
_cell_volume 4641.571567
_symmetry_space_group_name_H-M "C M C M"
_symmetry_group_IT_number 63
_symmetry_cell_setting 'orthorhombic'
loop_
_space_group_symop_operation_xyz
x,y,z
-x,-y,1/2+z
x,-y,-z
-x,y,1/2-z
-x,-y,-z
x,y,1/2-z
-x,y,z
x,-y,1/2+z
1/2+x,1/2+y,z
1/2-x,1/2-y,1/2+z
1/2+x,1/2-y,-z
1/2-x,1/2+y,1/2-z
1/2-x,1/2-y,-z
1/2+x,1/2+y,1/2-z
1/2-x,1/2+y,z
1/2+x,1/2-y,1/2+z
loop_
_atom_site_type_symbol
_atom_site_label
_atom_site_fract_x
_atom_site_fract_y
_atom_site_fract_z
Si Si1 0.890224 0.688011 0.579067
Si Si2 0.759210 0.066063 0.944658
Si Si3 0.611051 0.485952 0.668138
Si Si4 0.395319 0.782605 0.671559
Si Si5 0.190753 0.824253 0.829769
Si Si6 0.104819 0.805112 0.462951
O O1 0.838931 0.604854 0.582289
O O2 0.840776 0.747908 0.630731
O O3 0.878615 0.723714 0.501670
O O4 0.000000 0.674893 0.600324
O O5 0.818869 0.131287 0.986565
O O6 0.821694 0.039990 0.878351
O O7 0.734593 0.000000 0.000000
O O8 0.636069 0.497540 0.750000
O O9 0.500000 0.504847 0.652985
O O10 0.632152 0.398308 0.644417
O O11 0.390554 0.748560 0.750000
O O12 0.500000 0.823618 0.659445
O O13 0.305415 0.840099 0.659740
O O14 0.385734 0.710136 0.619821
O O15 0.165735 0.808121 0.750000
O O16 0.000000 0.837625 0.482073
#
# Coordination Sequence:
#
# PCOD8259782 Si02
#       6
#    16  16  16  16  16  16
#     4  11  24  41  61  86 118 158 208 257 297 344
#     4  12  25  38  60  87 124 162 198 244 301 364
#     4  10  23  42  63  91 125 158 194 242 303 364
#     4   9  18  33  58  92 121 146 187 244 298 348
#     4  10  20  38  66  92 117 154 200 246 296 353
#     4  10  21  38  62  88 115 153 201 249 295 346
#
# _framework density 20.682649999999999
#
# number of rings (size 3 to 8) (size 9 to 14) (size 15 to 20)
#    0.000    1.667    1.667    2.500    2.333    5.333 
#    0.000    2.500    0.000    1.000    0.000    0.000 
#    0.000    0.000    0.000    0.000    0.000    0.000 
#
# Total GULP energy -595014.133184 kJ/mol
# GULP energy per Si atom -12396.127775 kJ/mol
# Density = 2.063558 g / cm^3
# Si number density = 20.682650 Si / 1000 Ang^3
#
#
#
# Elastic Constant Matrix: (Units=GPa)
#
#
# Indices 1 2 3 4 5 6 
#
# 1 157.6435 58.3267 42.3802 0.0000 0.0000 0.0000
# 2 58.3267 82.3490 31.7247 0.0000 0.0000 0.0000
# 3 42.3802 31.7247 73.0378 0.0000 0.0000 0.0000
# 4 0.0000 0.0000 0.0000 28.1483 0.0000 0.0000
# 5 0.0000 0.0000 0.0000 0.0000 26.4674 0.0000
# 6 0.0000 0.0000 0.0000 0.0000 0.0000 35.7449
#
#
#
# Elastic Compliance Matrix: (Units=1/GPa)
#
#
# Indices 1 2 3 4 5 6 
#
# 1 0.009106 -0.005301 -0.002981 0.000000 0.000000 0.000000
# 2 -0.005301 0.017670 -0.004599 0.000000 0.000000 0.000000
# 3 -0.002981 -0.004599 0.017419 0.000000 0.000000 0.000000
# 4 0.000000 0.000000 0.000000 0.035526 0.000000 0.000000
# 5 0.000000 0.000000 0.000000 0.000000 0.037782 0.000000
# 6 0.000000 0.000000 0.000000 0.000000 0.000000 0.027976
#
#
# Mechanical properties :
#
#
# Convention : Reuss Voigt Hill
#
# Bulk Modulus (GPa) = 54.25310 64.21039 59.23175
# Shear Modulus (GPa) = 28.18687 30.11202 29.14944
#
# Velocity S-wave (km/s) = 3.69565 3.81977 3.75823
# Velocity P-wave (km/s) = 6.67073 7.11106 6.89441
#
# Compressibility (1/GPa) = 0.01843213
#
# Stress axis : x y z
#
# Youngs Moduli (GPa) = 109.81333 56.59272 57.40837
#
# Poissons Ratio (x) = 0.30002 0.17115
# Poissons Ratio (y) = 0.58216 0.26402
# Poissons Ratio (z) = 0.32738 0.26027
#
# Static dielectric constant tensor:
#      x y z
#    x 4.093780 0.000000 0.000000 
#    y 0.000000 3.463780 0.000000 
#    z 0.000000 0.000000 3.858850 
# 
# 
# High freq. dielectric constant tensor:
#      x y z
#    x 1.825790 0.000000 0.000000 
#    y 0.000000 1.773910 0.000000 
#    z 0.000000 0.000000 1.818370 
# 
# From -- ./inp_files/54227.got.cif
#   From: 2010.03.12/outbox.cif.g09.slc.cpg/sg63_28_cif.got.tgz:54227.got - 2010.04.10 19:34:48.
