data_PCOD8259591
_publ_section_title
;
Structure prediction by ZEFSAII (Michael W. Deem and Ramdas Pophale) SiO2 
 PCOD8259591
Probable space group: C M C M
;
_chemical_formula_sum "Si O2"
_cell_formula_units_Z 96
_cell_length_a 19.939805
_cell_length_b 14.234085
_cell_length_c 17.384275
_cell_angle_alpha 90.000000
_cell_angle_beta 90.000000
_cell_angle_gamma 90.000000
_cell_volume 4934.089753
_symmetry_space_group_name_H-M "C M C M"
_symmetry_group_IT_number 63
_symmetry_cell_setting 'orthorhombic'
loop_
_space_group_symop_operation_xyz
x,y,z
-x,-y,1/2+z
x,-y,-z
-x,y,1/2-z
-x,-y,-z
x,y,1/2-z
-x,y,z
x,-y,1/2+z
1/2+x,1/2+y,z
1/2-x,1/2-y,1/2+z
1/2+x,1/2-y,-z
1/2-x,1/2+y,1/2-z
1/2-x,1/2-y,-z
1/2+x,1/2+y,1/2-z
1/2-x,1/2+y,z
1/2+x,1/2-y,1/2+z
loop_
_atom_site_type_symbol
_atom_site_label
_atom_site_fract_x
_atom_site_fract_y
_atom_site_fract_z
Si Si1 0.077040 0.231574 0.057799
Si Si2 0.305539 0.579643 0.839635
Si Si3 0.923137 0.022446 0.413173
Si Si4 0.690191 0.757794 0.939613
Si Si5 0.815627 0.471306 0.912705
Si Si6 0.423253 0.094288 0.838735
O O1 0.087495 0.133198 0.102041
O O2 0.100244 0.313764 0.114929
O O3 0.000000 0.243033 0.032340
O O4 0.119986 0.235330 0.980462
O O5 0.288558 0.580493 0.750000
O O6 0.379221 0.537034 0.853579
O O7 0.299460 0.685367 0.870367
O O8 0.253629 0.514751 0.884716
O O9 0.000000 0.992148 0.400209
O O10 0.900166 0.000000 0.500000
O O11 0.688858 0.860149 0.902176
O O12 0.750000 0.750000 0.000000
O O13 0.877793 0.506425 0.861825
O O14 0.829620 0.500000 0.000000
O O15 0.413017 0.118578 0.750000
O O16 0.500000 0.067878 0.857246
#
# Coordination Sequence:
#
# PCOD8259591 Si02
#       6
#    16  16  16  16  16  16
#     4  10  20  36  64  94 120 159 206 250 296 355
#     4  12  26  41  60  90 128 160 197 256 316 361
#     4  10  20  38  65  92 122 162 207 250 294 357
#     4  12  23  40  64  90 119 157 206 253 299 363
#     4  12  23  40  67  91 117 160 209 254 295 363
#     4  10  22  40  61  92 130 159 196 255 310 354
#
# _framework density 19.456475999999999
#
# number of rings (size 3 to 8) (size 9 to 14) (size 15 to 20)
#    0.000    1.000    5.000    2.000    0.000    3.333 
#    0.000    1.667    0.000    0.000    0.000    0.000 
#    0.000    0.000    0.000    0.000    0.000    0.000 
#
# Total GULP energy -595514.791390 kJ/mol
# GULP energy per Si atom -12406.558154 kJ/mol
# Density = 1.941219 g / cm^3
# Si number density = 19.456476 Si / 1000 Ang^3
#
#
#
# Elastic Constant Matrix: (Units=GPa)
#
#
# Indices 1 2 3 4 5 6 
#
# 1 81.2669 30.9906 16.4334 0.0000 0.0000 0.0000
# 2 30.9906 130.3283 12.0403 0.0000 0.0000 0.0000
# 3 16.4334 12.0403 50.6419 0.0000 0.0000 0.0000
# 4 0.0000 0.0000 0.0000 27.7988 0.0000 0.0000
# 5 0.0000 0.0000 0.0000 0.0000 29.0764 0.0000
# 6 0.0000 0.0000 0.0000 0.0000 0.0000 32.2305
#
#
#
# Elastic Compliance Matrix: (Units=1/GPa)
#
#
# Indices 1 2 3 4 5 6 
#
# 1 0.014249 -0.003028 -0.003904 0.000000 0.000000 0.000000
# 2 -0.003028 0.008489 -0.001036 0.000000 0.000000 0.000000
# 3 -0.003904 -0.001036 0.021260 0.000000 0.000000 0.000000
# 4 0.000000 0.000000 0.000000 0.035973 0.000000 0.000000
# 5 0.000000 0.000000 0.000000 0.000000 0.034392 0.000000
# 6 0.000000 0.000000 0.000000 0.000000 0.000000 0.031027
#
#
# Mechanical properties :
#
#
# Convention : Reuss Voigt Hill
#
# Bulk Modulus (GPa) = 35.63471 42.35177 38.99324
# Shear Modulus (GPa) = 29.29495 31.33930 30.31713
#
# Velocity S-wave (km/s) = 3.88450 4.01775 3.95169
# Velocity P-wave (km/s) = 6.20274 6.58315 6.39577
#
# Compressibility (1/GPa) = 0.02806253
#
# Stress axis : x y z
#
# Youngs Moduli (GPa) = 70.17960 117.80580 47.03753
#
# Poissons Ratio (x) = 0.35667 0.18364
# Poissons Ratio (y) = 0.21248 0.04872
# Poissons Ratio (z) = 0.27399 0.12201
#
# Static dielectric constant tensor:
#      x y z
#    x 3.688450 0.000000 0.000000 
#    y 0.000000 3.852410 0.000000 
#    z 0.000000 0.000000 3.389220 
# 
# 
# High freq. dielectric constant tensor:
#      x y z
#    x 1.773350 0.000000 0.000000 
#    y 0.000000 1.769080 0.000000 
#    z 0.000000 0.000000 1.740040 
# 
# From -- ./inp_files/35318.got.cif
#   From: 2010.03.12/outbox.cif.g09.slc.cpg/sg63_18_cif.got.tgz:35318.got - 2010.04.10 19:34:48.
