data_PCOD8259616
_publ_section_title
;
Structure prediction by ZEFSAII (Michael W. Deem and Ramdas Pophale) SiO2 
 PCOD8259616
Probable space group: C M C M
;
_chemical_formula_sum "Si O2"
_cell_formula_units_Z 72
_cell_length_a 15.744766
_cell_length_b 8.779876
_cell_length_c 25.516222
_cell_angle_alpha 90.000000
_cell_angle_beta 90.000000
_cell_angle_gamma 90.000000
_cell_volume 3527.288357
_symmetry_space_group_name_H-M "C M C M"
_symmetry_group_IT_number 63
_symmetry_cell_setting 'orthorhombic'
loop_
_space_group_symop_operation_xyz
x,y,z
-x,-y,1/2+z
x,-y,-z
-x,y,1/2-z
-x,-y,-z
x,y,1/2-z
-x,y,z
x,-y,1/2+z
1/2+x,1/2+y,z
1/2-x,1/2-y,1/2+z
1/2+x,1/2-y,-z
1/2-x,1/2+y,1/2-z
1/2-x,1/2-y,-z
1/2+x,1/2+y,1/2-z
1/2-x,1/2+y,z
1/2+x,1/2-y,1/2+z
loop_
_atom_site_type_symbol
_atom_site_label
_atom_site_fract_x
_atom_site_fract_y
_atom_site_fract_z
Si Si1 0.324313 0.817124 0.650705
Si Si2 0.835330 0.985415 0.689969
Si Si3 0.500000 0.149482 0.032882
Si Si4 0.500000 0.043064 0.150545
Si Si5 0.820582 0.658205 0.029381
Si Si6 0.000000 0.203797 0.311654
O O1 0.327178 0.634690 0.654235
O O2 0.302416 0.863930 0.590894
O O3 0.248254 0.881821 0.685763
O O4 0.412847 0.885225 0.673811
O O5 0.847264 0.036192 0.750000
O O6 0.916959 0.889897 0.670948
O O7 0.412844 0.243605 0.023094
O O8 0.500000 0.085121 0.090756
O O9 0.500000 0.000000 0.000000
O O10 0.500000 0.862477 0.157838
O O11 0.826076 0.500000 0.000000
O O12 0.750000 0.750000 0.000000
O O13 0.000000 0.238787 0.250000
#
# Coordination Sequence:
#
# PCOD8259616 Si02
#       6
#    16  16   8   8  16   8
#     4  11  22  38  60  86 116 155 193 236 290 345
#     4  11  23  39  57  83 116 151 192 238 284 341
#     4   8  18  35  55  78 109 144 179 221 276 335
#     4  10  21  37  59  84 112 149 191 232 286 344
#     4  10  20  37  58  83 113 147 187 235 285 341
#     4  10  23  40  59  84 116 151 193 241 289 341
#
# _framework density 20.412282000000001
#
# number of rings (size 3 to 8) (size 9 to 14) (size 15 to 20)
#    0.000    1.778    0.000    4.000    0.000    7.111 
#    0.000    0.556    0.000    0.000    0.000    0.000 
#    0.000    0.000    0.000    0.000    0.000    0.000 
#
# Total GULP energy -446210.808113 kJ/mol
# GULP energy per Si atom -12394.744670 kJ/mol
# Density = 2.036582 g / cm^3
# Si number density = 20.412282 Si / 1000 Ang^3
#
#
#
# Elastic Constant Matrix: (Units=GPa)
#
#
# Indices 1 2 3 4 5 6 
#
# 1 196.1180 75.6681 40.3120 0.0000 0.0000 0.0000
# 2 75.6681 120.2417 20.1119 0.0000 0.0000 0.0000
# 3 40.3120 20.1119 53.9259 0.0000 0.0000 0.0000
# 4 0.0000 0.0000 0.0000 24.8938 0.0000 0.0000
# 5 0.0000 0.0000 0.0000 0.0000 26.9439 0.0000
# 6 0.0000 0.0000 0.0000 0.0000 0.0000 40.2630
#
#
#
# Elastic Compliance Matrix: (Units=1/GPa)
#
#
# Indices 1 2 3 4 5 6 
#
# 1 0.007498 -0.004032 -0.004101 0.000000 0.000000 0.000000
# 2 -0.004032 0.011039 -0.001103 0.000000 0.000000 0.000000
# 3 -0.004101 -0.001103 0.022021 0.000000 0.000000 0.000000
# 4 0.000000 0.000000 0.000000 0.040171 0.000000 0.000000
# 5 0.000000 0.000000 0.000000 0.000000 0.037114 0.000000
# 6 0.000000 0.000000 0.000000 0.000000 0.000000 0.024837
#
#
# Mechanical properties :
#
#
# Convention : Reuss Voigt Hill
#
# Bulk Modulus (GPa) = 45.27885 71.38552 58.33218
# Shear Modulus (GPa) = 29.67143 34.03303 31.85223
#
# Velocity S-wave (km/s) = 3.81676 4.08767 3.95453
# Velocity P-wave (km/s) = 6.45398 7.57142 7.03492
#
# Compressibility (1/GPa) = 0.02208537
#
# Stress axis : x y z
#
# Youngs Moduli (GPa) = 133.37350 90.59144 45.41157
#
# Poissons Ratio (x) = 0.36530 0.18623
# Poissons Ratio (y) = 0.53781 0.05007
# Poissons Ratio (z) = 0.54696 0.09988
#
# Static dielectric constant tensor:
#      x y z
#    x 3.471670 0.000000 0.000000 
#    y 0.000000 3.417060 0.000000 
#    z 0.000000 0.000000 3.583380 
# 
# 
# High freq. dielectric constant tensor:
#      x y z
#    x 1.830160 0.000000 0.000000 
#    y 0.000000 1.778620 0.000000 
#    z 0.000000 0.000000 1.795250 
# 
# From -- ./inp_files/69086.got.cif
#   From: 2010.03.12/outbox.cif.g09.slc.cpg/sg63_35_cif.got.tgz:69086.got - 2010.04.10 19:34:48.
