data_PCOD8259296
_publ_section_title
;
Structure prediction by ZEFSAII (Michael W. Deem and Ramdas Pophale) SiO2 
 PCOD8259296
Probable space group: C M C M
;
_chemical_formula_sum "Si O2"
_cell_formula_units_Z 112
_cell_length_a 14.826405
_cell_length_b 24.999442
_cell_length_c 14.504399
_cell_angle_alpha 90.000000
_cell_angle_beta 90.000000
_cell_angle_gamma 90.000000
_cell_volume 5376.082350
_symmetry_space_group_name_H-M "C M C M"
_symmetry_group_IT_number 63
_symmetry_cell_setting 'orthorhombic'
loop_
_space_group_symop_operation_xyz
x,y,z
-x,-y,1/2+z
x,-y,-z
-x,y,1/2-z
-x,-y,-z
x,y,1/2-z
-x,y,z
x,-y,1/2+z
1/2+x,1/2+y,z
1/2-x,1/2-y,1/2+z
1/2+x,1/2-y,-z
1/2-x,1/2+y,1/2-z
1/2-x,1/2-y,-z
1/2+x,1/2+y,1/2-z
1/2-x,1/2+y,z
1/2+x,1/2-y,1/2+z
loop_
_atom_site_type_symbol
_atom_site_label
_atom_site_fract_x
_atom_site_fract_y
_atom_site_fract_z
Si Si1 0.099587 0.457981 0.420565
Si Si2 0.597206 0.161954 0.537799
Si Si3 0.826059 0.098884 0.145850
Si Si4 0.229557 0.195482 0.854598
Si Si5 0.396470 0.386382 0.454211
Si Si6 0.788207 0.023784 0.648399
Si Si7 0.170860 0.685059 0.149056
O O1 0.116696 0.500000 0.500000
O O2 0.105493 0.401248 0.469660
O O3 0.181359 0.462752 0.348715
O O4 0.000000 0.466156 0.373918
O O5 0.500000 0.179166 0.578926
O O6 0.672915 0.184931 0.603628
O O7 0.599563 0.183421 0.433047
O O8 0.867204 0.104055 0.250000
O O9 0.739624 0.136414 0.136159
O O10 0.798687 0.038179 0.123502
O O11 0.895741 0.116569 0.066030
O O12 0.225746 0.173647 0.750000
O O13 0.151327 0.166084 0.912348
O O14 0.221724 0.258828 0.858461
O O15 0.500000 0.387982 0.420770
O O16 0.343900 0.439713 0.422434
O O17 0.826613 0.035786 0.750000
O O18 0.123706 0.680626 0.250000
#
# Coordination Sequence:
#
# PCOD8259296 Si02
#       7
#    16  16  16  16  16  16  16
#     4  10  20  35  58  88 124 164 203 245 299 367
#     4  11  22  37  63  94 125 162 205 252 309 373
#     4  10  22  41  66  93 123 163 208 258 320 378
#     4  11  24  43  64  89 127 167 210 263 313 372
#     4  12  25  41  65  92 124 167 213 266 324 375
#     4  11  22  38  62  91 129 167 207 257 306 371
#     4  10  21  41  66  90 125 168 209 257 311 369
#
# _framework density 20.833016000000001
#
# number of rings (size 3 to 8) (size 9 to 14) (size 15 to 20)
#    0.000    1.286    2.857    3.000    0.000    4.000 
#    0.000    4.286    0.000    7.714    0.000    0.000 
#    0.000    0.000    0.000    0.000    0.000    0.000 
#
# Total GULP energy -694160.351880 kJ/mol
# GULP energy per Si atom -12395.720569 kJ/mol
# Density = 2.078560 g / cm^3
# Si number density = 20.833016 Si / 1000 Ang^3
#
#
#
# Elastic Constant Matrix: (Units=GPa)
#
#
# Indices 1 2 3 4 5 6 
#
# 1 105.1702 9.9328 33.9299 0.0000 0.0000 0.0000
# 2 9.9328 74.0405 18.1031 0.0000 0.0000 0.0000
# 3 33.9299 18.1031 118.5470 0.0000 0.0000 0.0000
# 4 0.0000 0.0000 0.0000 11.0154 0.0000 0.0000
# 5 0.0000 0.0000 0.0000 0.0000 32.3714 0.0000
# 6 0.0000 0.0000 0.0000 0.0000 0.0000 15.7447
#
#
#
# Elastic Compliance Matrix: (Units=1/GPa)
#
#
# Indices 1 2 3 4 5 6 
#
# 1 0.010511 -0.000701 -0.002901 0.000000 0.000000 0.000000
# 2 -0.000701 0.014077 -0.001949 0.000000 0.000000 0.000000
# 3 -0.002901 -0.001949 0.009564 0.000000 0.000000 0.000000
# 4 0.000000 0.000000 0.000000 0.090782 0.000000 0.000000
# 5 0.000000 0.000000 0.000000 0.000000 0.030891 0.000000
# 6 0.000000 0.000000 0.000000 0.000000 0.000000 0.063514
#
#
# Mechanical properties :
#
#
# Convention : Reuss Voigt Hill
#
# Bulk Modulus (GPa) = 43.38640 46.85436 45.12038
# Shear Modulus (GPa) = 20.99755 27.54575 24.27165
#
# Velocity S-wave (km/s) = 3.17818 3.64017 3.41700
# Velocity P-wave (km/s) = 5.85993 6.34091 6.10516
#
# Compressibility (1/GPa) = 0.02304870
#
# Stress axis : x y z
#
# Youngs Moduli (GPa) = 95.14222 71.03951 104.56411
#
# Poissons Ratio (x) = 0.04977 0.30337
# Poissons Ratio (y) = 0.06666 0.20381
# Poissons Ratio (z) = 0.27604 0.13846
#
# Static dielectric constant tensor:
#      x y z
#    x 3.684520 0.000000 0.000000 
#    y 0.000000 3.941830 0.000000 
#    z 0.000000 0.000000 4.175000 
# 
# 
# High freq. dielectric constant tensor:
#      x y z
#    x 1.797730 0.000000 0.000000 
#    y 0.000000 1.828850 0.000000 
#    z 0.000000 0.000000 1.823390 
# 
# From -- ./inp_files/32293.got.cif
#   From: 2010.03.12/outbox.cif.g09.slc.cpg/sg63_17_cif.got.tgz:32293.got - 2010.04.10 19:34:48.
