data_PCOD8259356
_publ_section_title
;
Structure prediction by ZEFSAII (Michael W. Deem and Ramdas Pophale) SiO2 
 PCOD8259356
Probable space group: C M C M
;
_chemical_formula_sum "Si O2"
_cell_formula_units_Z 80
_cell_length_a 26.421174
_cell_length_b 9.182276
_cell_length_c 15.336310
_cell_angle_alpha 90.000000
_cell_angle_beta 90.000000
_cell_angle_gamma 90.000000
_cell_volume 3720.688675
_symmetry_space_group_name_H-M "C M C M"
_symmetry_group_IT_number 63
_symmetry_cell_setting 'orthorhombic'
loop_
_space_group_symop_operation_xyz
x,y,z
-x,-y,1/2+z
x,-y,-z
-x,y,1/2-z
-x,-y,-z
x,y,1/2-z
-x,y,z
x,-y,1/2+z
1/2+x,1/2+y,z
1/2-x,1/2-y,1/2+z
1/2+x,1/2-y,-z
1/2-x,1/2+y,1/2-z
1/2-x,1/2-y,-z
1/2+x,1/2+y,1/2-z
1/2-x,1/2+y,z
1/2+x,1/2-y,1/2+z
loop_
_atom_site_type_symbol
_atom_site_label
_atom_site_fract_x
_atom_site_fract_y
_atom_site_fract_z
Si Si1 0.500000 0.076052 0.095530
Si Si2 0.202327 0.093884 0.352966
Si Si3 0.500000 0.403219 0.146661
Si Si4 0.598143 0.937075 0.403982
Si Si5 0.793177 0.587880 0.850272
Si Si6 0.091476 0.889629 0.647620
O O1 0.500000 0.251910 0.093777
O O2 0.449021 0.018895 0.143829
O O3 0.500000 0.000000 0.000000
O O4 0.210393 0.105197 0.250000
O O5 0.205925 0.254267 0.394851
O O6 0.247605 0.001015 0.396458
O O7 0.145803 0.033650 0.373039
O O8 0.500000 0.371284 0.250000
O O9 0.451255 0.497139 0.117795
O O10 0.587138 0.763648 0.403188
O O11 0.602362 0.000000 0.500000
O O12 0.650936 0.982033 0.358251
O O13 0.778795 0.600693 0.750000
O O14 0.086883 0.852065 0.750000
#
# Coordination Sequence:
#
# PCOD8259356 Si02
#       6
#     8  16   8  16  16  16
#     4  10  23  40  54  77 113 147 176 216 277 338
#     4   8  15  28  49  75 105 140 175 214 277 339
#     4  10  21  36  62  93 111 133 184 238 272 314
#     4  10  20  36  54  76 107 149 190 222 267 332
#     4   9  17  31  51  74 101 139 182 228 275 323
#     4   9  18  35  56  81 113 145 178 230 287 327
#
# _framework density 21.501397000000001
#
# number of rings (size 3 to 8) (size 9 to 14) (size 15 to 20)
#    0.000    2.800    0.000    2.400    0.000    3.200 
#    0.000   16.000    0.000    0.000    0.000    0.000 
#    0.000    0.000    0.000    0.000    0.000    0.000 
#
# Total GULP energy -495548.639640 kJ/mol
# GULP energy per Si atom -12388.715991 kJ/mol
# Density = 2.145246 g / cm^3
# Si number density = 21.501397 Si / 1000 Ang^3
#
#
#
# Elastic Constant Matrix: (Units=GPa)
#
#
# Indices 1 2 3 4 5 6 
#
# 1 246.7919 110.4219 5.2914 0.0000 0.0000 0.0000
# 2 110.4219 140.9247 27.4673 0.0000 0.0000 0.0000
# 3 5.2914 27.4673 27.8810 0.0000 0.0000 0.0000
# 4 0.0000 0.0000 0.0000 25.8768 0.0000 0.0000
# 5 0.0000 0.0000 0.0000 0.0000 13.6824 0.0000
# 6 0.0000 0.0000 0.0000 0.0000 0.0000 46.5233
#
#
#
# Elastic Compliance Matrix: (Units=1/GPa)
#
#
# Indices 1 2 3 4 5 6 
#
# 1 0.006731 -0.006219 0.004849 0.000000 0.000000 0.000000
# 2 -0.006219 0.014528 -0.013133 0.000000 0.000000 0.000000
# 3 0.004849 -0.013133 0.047884 0.000000 0.000000 0.000000
# 4 0.000000 0.000000 0.000000 0.038645 0.000000 0.000000
# 5 0.000000 0.000000 0.000000 0.000000 0.073086 0.000000
# 6 0.000000 0.000000 0.000000 0.000000 0.000000 0.021495
#
#
# Mechanical properties :
#
#
# Convention : Reuss Voigt Hill
#
# Bulk Modulus (GPa) = 24.91363 77.99541 51.45452
# Shear Modulus (GPa) = 20.42877 35.37766 27.90321
#
# Velocity S-wave (km/s) = 3.08574 4.06071 3.60632
# Velocity P-wave (km/s) = 4.93030 7.63801 6.42833
#
# Compressibility (1/GPa) = 0.04013867
#
# Stress axis : x y z
#
# Youngs Moduli (GPa) = 148.57663 68.83041 20.88371
#
# Poissons Ratio (x) = 0.42805 -0.10127
# Poissons Ratio (y) = 0.92398 0.27426
# Poissons Ratio (z) = -0.72048 0.90392
#
# Static dielectric constant tensor:
#      x y z
#    x 4.874210 0.000000 0.000000 
#    y 0.000000 3.991130 0.000000 
#    z 0.000000 0.000000 3.298580 
# 
# 
# High freq. dielectric constant tensor:
#      x y z
#    x 1.874890 0.000000 0.000000 
#    y 0.000000 1.831480 0.000000 
#    z 0.000000 0.000000 1.796620 
# 
# From -- ./inp_files/48865.got.cif
#   From: 2010.03.12/outbox.cif.g09.slc.cpg/sg63_25_cif.got.tgz:48865.got - 2010.04.10 19:34:48.
