data_PCOD8259273
_publ_section_title
;
Structure prediction by ZEFSAII (Michael W. Deem and Ramdas Pophale) SiO2 
 PCOD8259273
Probable space group: C M C M
;
_chemical_formula_sum "Si O2"
_cell_formula_units_Z 48
_cell_length_a 7.531272
_cell_length_b 37.912050
_cell_length_c 8.810892
_cell_angle_alpha 90.000000
_cell_angle_beta 90.000000
_cell_angle_gamma 90.000000
_cell_volume 2515.738402
_symmetry_space_group_name_H-M "C M C M"
_symmetry_group_IT_number 63
_symmetry_cell_setting 'orthorhombic'
loop_
_space_group_symop_operation_xyz
x,y,z
-x,-y,1/2+z
x,-y,-z
-x,y,1/2-z
-x,-y,-z
x,y,1/2-z
-x,y,z
x,-y,1/2+z
1/2+x,1/2+y,z
1/2-x,1/2-y,1/2+z
1/2+x,1/2-y,-z
1/2-x,1/2+y,1/2-z
1/2-x,1/2-y,-z
1/2+x,1/2+y,1/2-z
1/2-x,1/2+y,z
1/2+x,1/2-y,1/2+z
loop_
_atom_site_type_symbol
_atom_site_label
_atom_site_fract_x
_atom_site_fract_y
_atom_site_fract_z
Si Si1 0.205063 0.037161 0.572156
Si Si2 0.301165 0.286688 0.072801
Si Si3 0.000000 0.584335 0.429278
Si Si4 0.500000 0.159975 0.929305
O O1 0.244392 0.035341 0.750000
O O2 0.322598 0.067398 0.497707
O O3 0.000000 0.046110 0.538219
O O4 0.259895 0.000000 0.500000
O O5 0.281168 0.280760 0.250000
O O6 0.500000 0.297711 0.025888
O O7 0.172520 0.317965 0.020111
O O8 0.250000 0.250000 0.000000
O O9 0.000000 0.625016 0.472394
O O10 0.000000 0.579400 0.250000
O O11 0.500000 0.151180 0.750000
#
# Coordination Sequence:
#
# PCOD8259273 Si02
#       4
#    16  16   8   8
#     4  10  21  39  64  91 120 157 200 245 292 348
#     4  10  20  35  58  84 110 142 184 233 285 342
#     4  12  25  39  58  86 123 160 198 248 298 351
#     4  10  22  39  55  80 116 154 195 240 291 349
#
# _framework density 19.079885999999998
#
# number of rings (size 3 to 8) (size 9 to 14) (size 15 to 20)
#    0.000    1.667    1.667    3.000    0.000    4.667 
#    0.000    3.333    0.000    0.000    0.000    0.000 
#    0.000    0.000    0.000    0.000    0.000    0.000 
#
# Total GULP energy -297692.122780 kJ/mol
# GULP energy per Si atom -12403.838449 kJ/mol
# Density = 1.903646 g / cm^3
# Si number density = 19.079886 Si / 1000 Ang^3
#
#
#
# Elastic Constant Matrix: (Units=GPa)
#
#
# Indices 1 2 3 4 5 6 
#
# 1 157.0968 87.2159 56.3104 0.0000 0.0000 0.0000
# 2 87.2159 151.8224 60.1253 0.0000 0.0000 0.0000
# 3 56.3104 60.1253 91.9243 0.0000 0.0000 0.0000
# 4 0.0000 0.0000 0.0000 38.8687 0.0000 0.0000
# 5 0.0000 0.0000 0.0000 0.0000 27.9159 0.0000
# 6 0.0000 0.0000 0.0000 0.0000 0.0000 28.0930
#
#
#
# Elastic Compliance Matrix: (Units=1/GPa)
#
#
# Indices 1 2 3 4 5 6 
#
# 1 0.009996 -0.004477 -0.003195 0.000000 0.000000 0.000000
# 2 -0.004477 0.010894 -0.004383 0.000000 0.000000 0.000000
# 3 -0.003195 -0.004383 0.015703 0.000000 0.000000 0.000000
# 4 0.000000 0.000000 0.000000 0.025728 0.000000 0.000000
# 5 0.000000 0.000000 0.000000 0.000000 0.035822 0.000000
# 6 0.000000 0.000000 0.000000 0.000000 0.000000 0.035596
#
#
# Mechanical properties :
#
#
# Convention : Reuss Voigt Hill
#
# Bulk Modulus (GPa) = 80.11166 89.79407 84.95287
# Shear Modulus (GPa) = 30.86215 32.12167 31.49191
#
# Velocity S-wave (km/s) = 4.02621 4.10754 4.06708
# Velocity P-wave (km/s) = 7.98075 8.34627 8.16556
#
# Compressibility (1/GPa) = 0.01248258
#
# Stress axis : x y z
#
# Youngs Moduli (GPa) = 100.03626 91.78997 63.68342
#
# Poissons Ratio (x) = 0.41096 0.20348
# Poissons Ratio (y) = 0.44788 0.27914
# Poissons Ratio (z) = 0.31963 0.40233
#
# Static dielectric constant tensor:
#      x y z
#    x 4.270830 0.000000 0.000000 
#    y 0.000000 3.390040 0.000000 
#    z 0.000000 0.000000 3.453310 
# 
# 
# High freq. dielectric constant tensor:
#      x y z
#    x 1.761950 0.000000 0.000000 
#    y 0.000000 1.739890 0.000000 
#    z 0.000000 0.000000 1.743570 
# 
# From -- ./inp_files/1994.got.cif
#   From: 2010.03.12/outbox.cif.g09.slc.cpg/sg63_1_cif.got.tgz:1994.got - 2010.04.10 19:34:48.
