data_PCOD8259131
_publ_section_title
;
Structure prediction by ZEFSAII (Michael W. Deem and Ramdas Pophale) SiO2 
 PCOD8259131
Probable space group: C M C M
;
_chemical_formula_sum "Si O2"
_cell_formula_units_Z 96
_cell_length_a 8.923007
_cell_length_b 19.521544
_cell_length_c 29.847082
_cell_angle_alpha 90.000000
_cell_angle_beta 90.000000
_cell_angle_gamma 90.000000
_cell_volume 5199.089293
_symmetry_space_group_name_H-M "C M C M"
_symmetry_group_IT_number 63
_symmetry_cell_setting 'orthorhombic'
loop_
_space_group_symop_operation_xyz
x,y,z
-x,-y,1/2+z
x,-y,-z
-x,y,1/2-z
-x,-y,-z
x,y,1/2-z
-x,y,z
x,-y,1/2+z
1/2+x,1/2+y,z
1/2-x,1/2-y,1/2+z
1/2+x,1/2-y,-z
1/2-x,1/2+y,1/2-z
1/2-x,1/2-y,-z
1/2+x,1/2+y,1/2-z
1/2-x,1/2+y,z
1/2+x,1/2-y,1/2+z
loop_
_atom_site_type_symbol
_atom_site_label
_atom_site_fract_x
_atom_site_fract_y
_atom_site_fract_z
Si Si1 0.825905 0.195649 0.802322
Si Si2 0.174389 0.452458 0.541031
Si Si3 0.672870 0.454528 0.632400
Si Si4 0.326573 0.705306 0.369664
Si Si5 0.174469 0.555538 0.698194
Si Si6 0.824792 0.705450 0.038145
O O1 0.795623 0.206672 0.750000
O O2 0.739833 0.255769 0.827320
O O3 0.761956 0.122781 0.818227
O O4 0.000000 0.198582 0.814400
O O5 0.224164 0.500000 0.500000
O O6 0.269054 0.477135 0.583658
O O7 0.211309 0.374083 0.528591
O O8 0.000000 0.461739 0.552600
O O9 0.500000 0.475339 0.636780
O O10 0.699044 0.374384 0.639574
O O11 0.768139 0.490983 0.670613
O O12 0.500000 0.723547 0.375616
O O13 0.241844 0.728883 0.414402
O O14 0.207992 0.540027 0.750000
O O15 0.000000 0.567473 0.689188
O O16 0.000000 0.720308 0.038612
O O17 0.750000 0.750000 0.000000
#
# Coordination Sequence:
#
# PCOD8259131 Si02
#       6
#    16  16  16  16  16  16
#     4  10  21  37  57  81 109 140 177 223 272 322
#     4   9  19  36  56  77 103 138 179 221 265 314
#     4  10  21  36  55  80 110 143 179 222 268 315
#     4  10  21  37  56  79 109 144 182 223 269 321
#     4  10  21  37  57  80 108 143 181 221 266 319
#     4  10  20  35  55  78 107 141 178 223 272 321
#
# _framework density 18.464772
#
# number of rings (size 3 to 8) (size 9 to 14) (size 15 to 20)
#    0.000    2.167    0.000    2.500    0.000    7.000 
#    0.000    8.333    0.000    0.000    0.000    0.000 
#    0.000    0.000    0.000    0.000    0.000    0.000 
#
# Total GULP energy -595460.995302 kJ/mol
# GULP energy per Si atom -12405.437402 kJ/mol
# Density = 1.842275 g / cm^3
# Si number density = 18.464772 Si / 1000 Ang^3
#
#
#
# Elastic Constant Matrix: (Units=GPa)
#
#
# Indices 1 2 3 4 5 6 
#
# 1 102.0645 52.0856 58.8894 0.0000 0.0000 0.0000
# 2 52.0856 75.8390 63.5620 0.0000 0.0000 0.0000
# 3 58.8894 63.5620 99.7197 0.0000 0.0000 0.0000
# 4 0.0000 0.0000 0.0000 40.7084 0.0000 0.0000
# 5 0.0000 0.0000 0.0000 0.0000 38.0178 0.0000
# 6 0.0000 0.0000 0.0000 0.0000 0.0000 34.3759
#
#
#
# Elastic Compliance Matrix: (Units=1/GPa)
#
#
# Indices 1 2 3 4 5 6 
#
# 1 0.016315 -0.006720 -0.005351 0.000000 0.000000 0.000000
# 2 -0.006720 0.031077 -0.015840 0.000000 0.000000 0.000000
# 3 -0.005351 -0.015840 0.023285 0.000000 0.000000 0.000000
# 4 0.000000 0.000000 0.000000 0.024565 0.000000 0.000000
# 5 0.000000 0.000000 0.000000 0.000000 0.026303 0.000000
# 6 0.000000 0.000000 0.000000 0.000000 0.000000 0.029090
#
#
# Mechanical properties :
#
#
# Convention : Reuss Voigt Hill
#
# Bulk Modulus (GPa) = 67.32277 69.63302 68.47790
# Shear Modulus (GPa) = 23.65080 29.49283 26.57182
#
# Velocity S-wave (km/s) = 3.58279 4.00090 3.79760
# Velocity P-wave (km/s) = 7.32492 7.69000 7.50968
#
# Compressibility (1/GPa) = 0.01485382
#
# Stress axis : x y z
#
# Youngs Moduli (GPa) = 61.29499 32.17821 42.94577
#
# Poissons Ratio (x) = 0.21622 0.22982
# Poissons Ratio (y) = 0.41188 0.68028
# Poissons Ratio (z) = 0.32802 0.50972
#
# Static dielectric constant tensor:
#      x y z
#    x 3.561690 0.000000 0.000000 
#    y 0.000000 3.352420 0.000000 
#    z 0.000000 0.000000 3.330620 
# 
# 
# High freq. dielectric constant tensor:
#      x y z
#    x 1.732010 0.000000 0.000000 
#    y 0.000000 1.715210 0.000000 
#    z 0.000000 0.000000 1.719140 
# 
# From -- ./inp_files/66946.got.cif
#   From: 2010.03.12/outbox.cif.g09.slc.cpg/sg63_34_cif.got.tgz:66946.got - 2010.04.10 19:34:48.
