data_PCOD8259639
_publ_section_title
;
Structure prediction by ZEFSAII (Michael W. Deem and Ramdas Pophale) SiO2 
 PCOD8259639
Probable space group: C M C M
;
_chemical_formula_sum "Si O2"
_cell_formula_units_Z 72
_cell_length_a 14.457195
_cell_length_b 30.230699
_cell_length_c 8.735208
_cell_angle_alpha 90.000000
_cell_angle_beta 90.000000
_cell_angle_gamma 90.000000
_cell_volume 3817.732356
_symmetry_space_group_name_H-M "C M C M"
_symmetry_group_IT_number 63
_symmetry_cell_setting 'orthorhombic'
loop_
_space_group_symop_operation_xyz
x,y,z
-x,-y,1/2+z
x,-y,-z
-x,y,1/2-z
-x,-y,-z
x,y,1/2-z
-x,y,z
x,-y,1/2+z
1/2+x,1/2+y,z
1/2-x,1/2-y,1/2+z
1/2+x,1/2-y,-z
1/2-x,1/2+y,1/2-z
1/2-x,1/2-y,-z
1/2+x,1/2+y,1/2-z
1/2-x,1/2+y,z
1/2+x,1/2-y,1/2+z
loop_
_atom_site_type_symbol
_atom_site_label
_atom_site_fract_x
_atom_site_fract_y
_atom_site_fract_z
Si Si1 0.000000 0.047053 0.927110
Si Si2 0.302559 0.291559 0.431458
Si Si3 0.000000 0.238560 0.930563
Si Si4 0.500000 0.162556 0.431566
Si Si5 0.195608 0.627550 0.068583
Si Si6 0.299298 0.451205 0.068904
O O1 0.901835 0.070121 0.970268
O O2 0.000000 0.037736 0.750000
O O3 0.000000 0.000000 0.000000
O O4 0.291427 0.290940 0.250000
O O5 0.250000 0.250000 0.500000
O O6 0.409626 0.288317 0.482946
O O7 0.264511 0.336933 0.497073
O O8 0.000000 0.287976 0.002410
O O9 0.000000 0.244359 0.750000
O O10 0.500000 0.165227 0.250000
O O11 0.408742 0.136927 0.488585
O O12 0.203386 0.630042 0.250000
O O13 0.222462 0.579160 0.009540
O O14 0.282163 0.453010 0.250000
O O15 0.289485 0.500000 0.000000
#
# Coordination Sequence:
#
# PCOD8259639 Si02
#       6
#     8  16   8   8  16  16
#     4   8  16  31  54  79 109 145 178 215 269 334
#     4  11  21  36  57  82 111 146 186 230 278 333
#     4   9  18  35  57  79 111 153 188 224 279 340
#     4   9  18  36  58  78 106 150 192 227 280 341
#     4  11  22  38  59  83 112 148 191 235 282 335
#     4  10  20  37  59  86 116 149 188 230 280 333
#
# _framework density 18.859362000000001
#
# number of rings (size 3 to 8) (size 9 to 14) (size 15 to 20)
#    0.000    2.000    2.222    2.000    0.000    1.778 
#    0.000   10.556    0.000    0.000    0.000    0.000 
#    0.000    0.000    0.000    0.000    0.000    0.000 
#
# Total GULP energy -446195.906962 kJ/mol
# GULP energy per Si atom -12394.330749 kJ/mol
# Density = 1.881644 g / cm^3
# Si number density = 18.859362 Si / 1000 Ang^3
#
#
#
# Elastic Constant Matrix: (Units=GPa)
#
#
# Indices 1 2 3 4 5 6 
#
# 1 180.8195 78.3275 49.5422 0.0000 0.0000 0.0000
# 2 78.3275 110.2772 34.7236 0.0000 0.0000 0.0000
# 3 49.5422 34.7236 67.6640 0.0000 0.0000 0.0000
# 4 0.0000 0.0000 0.0000 35.1743 0.0000 0.0000
# 5 0.0000 0.0000 0.0000 0.0000 23.8593 0.0000
# 6 0.0000 0.0000 0.0000 0.0000 0.0000 31.1456
#
#
#
# Elastic Compliance Matrix: (Units=1/GPa)
#
#
# Indices 1 2 3 4 5 6 
#
# 1 0.008751 -0.005007 -0.003838 0.000000 0.000000 0.000000
# 2 -0.005007 0.013681 -0.003355 0.000000 0.000000 0.000000
# 3 -0.003838 -0.003355 0.019310 0.000000 0.000000 0.000000
# 4 0.000000 0.000000 0.000000 0.028430 0.000000 0.000000
# 5 0.000000 0.000000 0.000000 0.000000 0.041912 0.000000
# 6 0.000000 0.000000 0.000000 0.000000 0.000000 0.032107
#
#
# Mechanical properties :
#
#
# Convention : Reuss Voigt Hill
#
# Bulk Modulus (GPa) = 57.65947 75.99414 66.82680
# Shear Modulus (GPa) = 28.67452 31.11369 29.89411
#
# Velocity S-wave (km/s) = 3.90351 4.06615 3.98566
# Velocity P-wave (km/s) = 7.13837 7.90110 7.52940
#
# Compressibility (1/GPa) = 0.01734320
#
# Stress axis : x y z
#
# Youngs Moduli (GPa) = 114.27486 73.09523 51.78611
#
# Poissons Ratio (x) = 0.36600 0.19874
# Poissons Ratio (y) = 0.57219 0.17372
# Poissons Ratio (z) = 0.43854 0.24520
#
# Static dielectric constant tensor:
#      x y z
#    x 4.146080 0.000000 0.000000 
#    y 0.000000 3.364910 0.000000 
#    z 0.000000 0.000000 3.360940 
# 
# 
# High freq. dielectric constant tensor:
#      x y z
#    x 1.747490 0.000000 0.000000 
#    y 0.000000 1.720050 0.000000 
#    z 0.000000 0.000000 1.724550 
# 
# From -- ./inp_files/4983.got.cif
#   From: 2010.03.12/outbox.cif.g09.slc.cpg/sg63_3_cif.got.tgz:4983.got - 2010.04.10 19:34:48.
