data_PCOD8259181
_publ_section_title
;
Structure prediction by ZEFSAII (Michael W. Deem and Ramdas Pophale) SiO2 
 PCOD8259181
Probable space group: C M C M
;
_chemical_formula_sum "Si O2"
_cell_formula_units_Z 88
_cell_length_a 29.826080
_cell_length_b 17.996389
_cell_length_c 9.026813
_cell_angle_alpha 90.000000
_cell_angle_beta 90.000000
_cell_angle_gamma 90.000000
_cell_volume 4845.247835
_symmetry_space_group_name_H-M "C M C M"
_symmetry_group_IT_number 63
_symmetry_cell_setting 'orthorhombic'
loop_
_space_group_symop_operation_xyz
x,y,z
-x,-y,1/2+z
x,-y,-z
-x,y,1/2-z
-x,-y,-z
x,y,1/2-z
-x,y,z
x,-y,1/2+z
1/2+x,1/2+y,z
1/2-x,1/2-y,1/2+z
1/2+x,1/2-y,-z
1/2-x,1/2+y,1/2-z
1/2-x,1/2-y,-z
1/2+x,1/2+y,1/2-z
1/2-x,1/2+y,z
1/2+x,1/2-y,1/2+z
loop_
_atom_site_type_symbol
_atom_site_label
_atom_site_fract_x
_atom_site_fract_y
_atom_site_fract_z
Si Si1 0.050821 0.923488 0.922776
Si Si2 0.500000 0.922694 0.421086
Si Si3 0.079350 0.645568 0.083696
Si Si4 0.294007 0.222213 0.920899
Si Si5 0.387781 0.285756 0.579685
Si Si6 0.327576 0.923987 0.580590
O O1 0.052192 0.938886 0.750000
O O2 0.088664 0.863036 0.966490
O O3 0.000000 0.898252 0.969554
O O4 0.064487 0.000000 0.000000
O O5 0.500000 0.939223 0.250000
O O6 0.456855 0.876341 0.463666
O O7 0.500000 0.000000 0.500000
O O8 0.059451 0.648789 0.250000
O O9 0.118912 0.585345 0.077487
O O10 0.094801 0.726845 0.037875
O O11 0.283454 0.207294 0.750000
O O12 0.333566 0.284328 0.937029
O O13 0.250000 0.250000 0.000000
O O14 0.306238 0.144171 0.993759
O O15 0.400698 0.265460 0.750000
O O16 0.310002 0.925327 0.750000
O O17 0.313827 0.000000 0.500000
#
# Coordination Sequence:
#
# PCOD8259181 Si02
#       6
#    16   8  16  16  16  16
#     4   9  18  33  53  78 108 141 179 220 270 325
#     4  12  24  36  50  70 103 142 179 218 260 304
#     4  10  21  35  52  77 106 138 178 221 263 313
#     4  10  20  36  57  80 109 142 181 226 277 329
#     4   9  19  35  55  79 106 141 180 222 270 324
#     4  10  20  35  56  80 107 138 176 220 269 323
#
# _framework density 18.162126000000001
#
# number of rings (size 3 to 8) (size 9 to 14) (size 15 to 20)
#    0.000    2.182    0.000    3.000    1.273    5.091 
#    0.000    0.909    0.000    2.182    0.000    0.000 
#    0.000    0.000    0.000    0.000    0.000    0.000 
#
# Total GULP energy -545476.079340 kJ/mol
# GULP energy per Si atom -12397.183621 kJ/mol
# Density = 1.812079 g / cm^3
# Si number density = 18.162126 Si / 1000 Ang^3
#
#
#
# Elastic Constant Matrix: (Units=GPa)
#
#
# Indices 1 2 3 4 5 6 
#
# 1 104.7299 58.9682 55.0891 0.0000 0.0000 0.0000
# 2 58.9682 110.0819 51.4022 0.0000 0.0000 0.0000
# 3 55.0891 51.4022 127.0477 0.0000 0.0000 0.0000
# 4 0.0000 0.0000 0.0000 34.3048 0.0000 0.0000
# 5 0.0000 0.0000 0.0000 0.0000 29.7431 0.0000
# 6 0.0000 0.0000 0.0000 0.0000 0.0000 19.0939
#
#
#
# Elastic Compliance Matrix: (Units=1/GPa)
#
#
# Indices 1 2 3 4 5 6 
#
# 1 0.015204 -0.006246 -0.004065 0.000000 0.000000 0.000000
# 2 -0.006246 0.013766 -0.002861 0.000000 0.000000 0.000000
# 3 -0.004065 -0.002861 0.010792 0.000000 0.000000 0.000000
# 4 0.000000 0.000000 0.000000 0.029150 0.000000 0.000000
# 5 0.000000 0.000000 0.000000 0.000000 0.033621 0.000000
# 6 0.000000 0.000000 0.000000 0.000000 0.000000 0.052373
#
#
# Mechanical properties :
#
#
# Convention : Reuss Voigt Hill
#
# Bulk Modulus (GPa) = 74.53837 74.75318 74.64578
# Shear Modulus (GPa) = 26.92189 28.38835 27.65512
#
# Velocity S-wave (km/s) = 3.85425 3.95783 3.90639
# Velocity P-wave (km/s) = 7.80619 7.88252 7.84445
#
# Compressibility (1/GPa) = 0.01341591
#
# Stress axis : x y z
#
# Youngs Moduli (GPa) = 65.77409 72.64287 92.66534
#
# Poissons Ratio (x) = 0.45372 0.37672
# Poissons Ratio (y) = 0.41082 0.26514
# Poissons Ratio (z) = 0.26740 0.20785
#
# Static dielectric constant tensor:
#      x y z
#    x 3.889980 0.000000 0.000000 
#    y 0.000000 3.273790 0.000000 
#    z 0.000000 0.000000 3.380920 
# 
# 
# High freq. dielectric constant tensor:
#      x y z
#    x 1.694290 0.000000 0.000000 
#    y 0.000000 1.696460 0.000000 
#    z 0.000000 0.000000 1.718070 
# 
# From -- ./inp_files/14143.got.cif
#   From: 2010.03.12/outbox.cif.g09.slc.cpg/sg63_8_cif.got.tgz:14143.got - 2010.04.10 19:34:48.
