data_PCOD8259525
_publ_section_title
;
Structure prediction by ZEFSAII (Michael W. Deem and Ramdas Pophale) SiO2 
 PCOD8259525
Probable space group: C M C M
;
_chemical_formula_sum "Si O2"
_cell_formula_units_Z 88
_cell_length_a 17.373006
_cell_length_b 30.674106
_cell_length_c 8.242888
_cell_angle_alpha 90.000000
_cell_angle_beta 90.000000
_cell_angle_gamma 90.000000
_cell_volume 4392.646783
_symmetry_space_group_name_H-M "C M C M"
_symmetry_group_IT_number 63
_symmetry_cell_setting 'orthorhombic'
loop_
_space_group_symop_operation_xyz
x,y,z
-x,-y,1/2+z
x,-y,-z
-x,y,1/2-z
-x,-y,-z
x,y,1/2-z
-x,y,z
x,-y,1/2+z
1/2+x,1/2+y,z
1/2-x,1/2-y,1/2+z
1/2+x,1/2-y,-z
1/2-x,1/2+y,1/2-z
1/2-x,1/2-y,-z
1/2+x,1/2+y,1/2-z
1/2-x,1/2+y,z
1/2+x,1/2-y,1/2+z
loop_
_atom_site_type_symbol
_atom_site_label
_atom_site_fract_x
_atom_site_fract_y
_atom_site_fract_z
Si Si1 0.086846 0.930635 0.250000
Si Si2 0.770532 0.952994 0.428144
Si Si3 0.583434 0.328247 0.250000
Si Si4 0.346094 0.710371 0.429219
Si Si5 0.687556 0.805296 0.067001
Si Si6 0.500000 0.950650 0.941687
Si Si7 0.643909 0.894708 0.561831
O O1 0.136710 0.944741 0.089744
O O2 0.080047 0.879563 0.250000
O O3 0.000000 0.951248 0.250000
O O4 0.731967 0.951156 0.250000
O O5 0.728145 0.916346 0.534784
O O6 0.754731 0.000000 0.500000
O O7 0.500000 0.306825 0.250000
O O8 0.619751 0.314809 0.419693
O O9 0.374791 0.694012 0.250000
O O10 0.365185 0.761958 0.444012
O O11 0.254935 0.701151 0.436031
O O12 0.721558 0.809771 0.250000
O O13 0.638024 0.848140 0.026973
O O14 0.500000 0.950899 0.750000
O O15 0.423662 0.925911 0.006965
O O16 0.500000 0.000000 0.000000
O O17 0.631600 0.886120 0.750000
#
# Coordination Sequence:
#
# PCOD8259525 Si02
#       7
#     8  16   8  16  16   8  16
#     4   9  22  40  62  88 121 157 193 247 312 384
#     4  10  21  37  61  87 116 153 195 250 300 368
#     4  11  22  40  62  87 123 165 201 246 312 364
#     4  10  21  37  61  90 121 163 208 258 309 373
#     4  10  20  36  59  89 121 155 207 256 311 363
#     4  10  24  42  58  84 118 166 212 264 322 380
#     4  11  22  37  60  89 122 162 209 260 310 374
#
# _framework density 20.033477999999999
#
# number of rings (size 3 to 8) (size 9 to 14) (size 15 to 20)
#    0.545    1.273    0.909    3.273    2.545    3.636 
#    1.636    0.909    0.000    2.182    0.000    0.000 
#    0.000    0.000    0.000    0.000    0.000    0.000 
#
# Total GULP energy -545221.267671 kJ/mol
# GULP energy per Si atom -12391.392447 kJ/mol
# Density = 1.998788 g / cm^3
# Si number density = 20.033478 Si / 1000 Ang^3
#
#
#
# Elastic Constant Matrix: (Units=GPa)
#
#
# Indices 1 2 3 4 5 6 
#
# 1 72.9433 11.0319 7.2830 0.0000 0.0000 0.0000
# 2 11.0319 101.8958 17.5138 0.0000 0.0000 0.0000
# 3 7.2830 17.5138 94.5745 0.0000 0.0000 0.0000
# 4 0.0000 0.0000 0.0000 111.2622 0.0000 0.0000
# 5 0.0000 0.0000 0.0000 0.0000 12.2349 0.0000
# 6 0.0000 0.0000 0.0000 0.0000 0.0000 27.2315
#
#
#
# Elastic Compliance Matrix: (Units=1/GPa)
#
#
# Indices 1 2 3 4 5 6 
#
# 1 0.013999 -0.001374 -0.000824 0.000000 0.000000 0.000000
# 2 -0.001374 0.010271 -0.001796 0.000000 0.000000 0.000000
# 3 -0.000824 -0.001796 0.010970 0.000000 0.000000 0.000000
# 4 0.000000 0.000000 0.000000 0.008988 0.000000 0.000000
# 5 0.000000 0.000000 0.000000 0.000000 0.081734 0.000000
# 6 0.000000 0.000000 0.000000 0.000000 0.000000 0.036722
#
#
# Mechanical properties :
#
#
# Convention : Reuss Voigt Hill
#
# Bulk Modulus (GPa) = 36.69386 37.89680 37.29533
# Shear Modulus (GPa) = 27.81545 45.71804 36.76675
#
# Velocity S-wave (km/s) = 3.73023 4.78230 4.28865
# Velocity P-wave (km/s) = 6.07527 7.03218 6.57117
#
# Compressibility (1/GPa) = 0.02725252
#
# Stress axis : x y z
#
# Youngs Moduli (GPa) = 71.43199 97.35713 91.15976
#
# Poissons Ratio (x) = 0.13378 0.07508
# Poissons Ratio (y) = 0.09815 0.16375
# Poissons Ratio (z) = 0.05883 0.17488
#
# Static dielectric constant tensor:
#      x y z
#    x 3.733300 0.000000 0.000000 
#    y 0.000000 3.771230 0.000000 
#    z 0.000000 0.000000 14.785370 
# 
# 
# High freq. dielectric constant tensor:
#      x y z
#    x 1.755040 0.000000 0.000000 
#    y 0.000000 1.789270 0.000000 
#    z 0.000000 0.000000 1.784120 
# 
# From -- ./inp_files/6926.got.cif
#   From: 2010.03.12/outbox.cif.g09.slc.cpg/sg63_4_cif.got.tgz:6926.got - 2010.04.10 19:34:48.
