data_PCOD8259353
_publ_section_title
;
Structure prediction by ZEFSAII (Michael W. Deem and Ramdas Pophale) SiO2 
 PCOD8259353
Probable space group: C M C M
;
_chemical_formula_sum "Si O2"
_cell_formula_units_Z 104
_cell_length_a 16.840421
_cell_length_b 35.426808
_cell_length_c 9.799962
_cell_angle_alpha 90.000000
_cell_angle_beta 90.000000
_cell_angle_gamma 90.000000
_cell_volume 5846.680471
_symmetry_space_group_name_H-M "C M C M"
_symmetry_group_IT_number 63
_symmetry_cell_setting 'orthorhombic'
loop_
_space_group_symop_operation_xyz
x,y,z
-x,-y,1/2+z
x,-y,-z
-x,y,1/2-z
-x,-y,-z
x,y,1/2-z
-x,y,z
x,-y,1/2+z
1/2+x,1/2+y,z
1/2-x,1/2-y,1/2+z
1/2+x,1/2-y,-z
1/2-x,1/2+y,1/2-z
1/2-x,1/2-y,-z
1/2+x,1/2+y,1/2-z
1/2-x,1/2+y,z
1/2+x,1/2-y,1/2+z
loop_
_atom_site_type_symbol
_atom_site_label
_atom_site_fract_x
_atom_site_fract_y
_atom_site_fract_z
Si Si1 0.500000 0.461305 0.586119
Si Si2 0.808809 0.604526 0.088123
Si Si3 0.407101 0.033515 0.405593
Si Si4 0.408694 0.680352 0.400331
Si Si5 0.131562 0.901878 0.911828
Si Si6 0.411063 0.826734 0.912644
Si Si7 0.594386 0.743169 0.598559
O O1 0.500000 0.500000 0.500000
O O2 0.500000 0.469388 0.750000
O O3 0.422731 0.436958 0.539376
O O4 0.804730 0.607420 0.250000
O O5 0.865519 0.571019 0.040572
O O6 0.721163 0.595437 0.030054
O O7 0.846825 0.643271 0.029264
O O8 0.383884 0.024103 0.250000
O O9 0.500000 0.040101 0.422061
O O10 0.375787 0.000000 0.500000
O O11 0.367577 0.682304 0.250000
O O12 0.500000 0.690962 0.384400
O O13 0.401713 0.638381 0.463520
O O14 0.368134 0.711300 0.499307
O O15 0.129029 0.902209 0.750000
O O16 0.414187 0.828394 0.750000
O O17 0.500000 0.836010 0.968299
O O18 0.383848 0.784833 0.958671
O O19 0.630229 0.737161 0.750000
O O20 0.500000 0.739290 0.606777
#
# Coordination Sequence:
#
# PCOD8259353 Si02
#       7
#     8  16  16  16  16  16  16
#     4  10  20  36  54  72  94 118 148 190 236 280
#     4   9  16  26  44  68  90 117 152 186 219 262
#     4   9  17  29  46  68  91 114 144 180 217 259
#     4   9  15  26  45  64  83 114 153 187 219 260
#     4   9  17  30  47  66  89 117 150 186 224 267
#     4   8  13  23  40  63  92 121 151 186 223 261
#     4   8  14  24  40  64  90 116 145 183 227 263
#
# _framework density 17.787870999999999
#
# number of rings (size 3 to 8) (size 9 to 14) (size 15 to 20)
#    0.000    3.231    0.769    1.385    0.000    2.462 
#    0.000    1.538    0.000    1.846    0.000    4.308 
#    0.000    0.000    0.000    0.000    0.000    0.000 
#
# Total GULP energy -644336.084537 kJ/mol
# GULP energy per Si atom -12391.078549 kJ/mol
# Density = 1.774739 g / cm^3
# Si number density = 17.787871 Si / 1000 Ang^3
#
#
#
# Elastic Constant Matrix: (Units=GPa)
#
#
# Indices 1 2 3 4 5 6 
#
# 1 63.8579 57.8043 20.9029 0.0000 0.0000 0.0000
# 2 57.8043 177.4168 53.7921 0.0000 0.0000 0.0000
# 3 20.9029 53.7921 41.6312 0.0000 0.0000 0.0000
# 4 0.0000 0.0000 0.0000 29.1528 0.0000 0.0000
# 5 0.0000 0.0000 0.0000 0.0000 7.6896 0.0000
# 6 0.0000 0.0000 0.0000 0.0000 0.0000 8.8382
#
#
#
# Elastic Compliance Matrix: (Units=1/GPa)
#
#
# Indices 1 2 3 4 5 6 
#
# 1 0.022434 -0.006402 -0.002992 0.000000 0.000000 0.000000
# 2 -0.006402 0.011094 -0.011120 0.000000 0.000000 0.000000
# 3 -0.002992 -0.011120 0.039891 0.000000 0.000000 0.000000
# 4 0.000000 0.000000 0.000000 0.034302 0.000000 0.000000
# 5 0.000000 0.000000 0.000000 0.000000 0.130046 0.000000
# 6 0.000000 0.000000 0.000000 0.000000 0.000000 0.113145
#
#
# Mechanical properties :
#
#
# Convention : Reuss Voigt Hill
#
# Bulk Modulus (GPa) = 30.87267 60.87827 45.87547
# Shear Modulus (GPa) = 12.41503 19.16322 15.78913
#
# Velocity S-wave (km/s) = 2.64474 3.28582 2.98255
# Velocity P-wave (km/s) = 5.16913 6.97813 6.14061
#
# Compressibility (1/GPa) = 0.03239111
#
# Stress axis : x y z
#
# Youngs Moduli (GPa) = 44.57431 90.13936 25.06837
#
# Poissons Ratio (x) = 0.57710 0.07500
# Poissons Ratio (y) = 0.28538 0.27876
# Poissons Ratio (z) = 0.13336 1.00235
#
# Static dielectric constant tensor:
#      x y z
#    x 3.303840 0.000000 0.000000 
#    y 0.000000 3.546930 0.000000 
#    z 0.000000 0.000000 3.033800 
# 
# 
# High freq. dielectric constant tensor:
#      x y z
#    x 1.670970 0.000000 0.000000 
#    y 0.000000 1.700140 0.000000 
#    z 0.000000 0.000000 1.628890 
# 
# From -- ./inp_files/21615.got.cif
#   From: 2010.03.12/outbox.cif.g09.slc.cpg/sg63_11_cif.got.tgz:21615.got - 2010.04.10 19:34:48.
