data_PCOD8259544
_publ_section_title
;
Structure prediction by ZEFSAII (Michael W. Deem and Ramdas Pophale) SiO2 
 PCOD8259544
Probable space group: C M C M
;
_chemical_formula_sum "Si O2"
_cell_formula_units_Z 96
_cell_length_a 11.653591
_cell_length_b 23.938769
_cell_length_c 18.025946
_cell_angle_alpha 90.000000
_cell_angle_beta 90.000000
_cell_angle_gamma 90.000000
_cell_volume 5028.745437
_symmetry_space_group_name_H-M "C M C M"
_symmetry_group_IT_number 63
_symmetry_cell_setting 'orthorhombic'
loop_
_space_group_symop_operation_xyz
x,y,z
-x,-y,1/2+z
x,-y,-z
-x,y,1/2-z
-x,-y,-z
x,y,1/2-z
-x,y,z
x,-y,1/2+z
1/2+x,1/2+y,z
1/2-x,1/2-y,1/2+z
1/2+x,1/2-y,-z
1/2-x,1/2+y,1/2-z
1/2-x,1/2-y,-z
1/2+x,1/2+y,1/2-z
1/2-x,1/2+y,z
1/2+x,1/2-y,1/2+z
loop_
_atom_site_type_symbol
_atom_site_label
_atom_site_fract_x
_atom_site_fract_y
_atom_site_fract_z
Si Si1 0.500000 0.861882 0.165013
Si Si2 0.215868 0.716749 0.834307
Si Si3 0.500000 0.026335 0.582012
Si Si4 0.366279 0.320093 0.921086
Si Si5 0.132797 0.138422 0.583932
Si Si6 0.752473 0.019511 0.916065
Si Si7 0.365143 0.425026 0.831424
O O1 0.500000 0.887142 0.250000
O O2 0.609730 0.823763 0.152945
O O3 0.500000 0.906938 0.097871
O O4 0.220960 0.739035 0.750000
O O5 0.206678 0.768549 0.890341
O O6 0.331007 0.681635 0.851815
O O7 0.377117 0.007496 0.615585
O O8 0.500000 0.000000 0.500000
O O9 0.500000 0.310503 0.902224
O O10 0.316189 0.375467 0.881854
O O11 0.345549 0.328391 0.007830
O O12 0.212587 0.084003 0.589277
O O13 0.000000 0.121016 0.592770
O O14 0.837534 0.985064 0.865045
O O15 0.765509 0.000000 0.000000
O O16 0.309992 0.420047 0.750000
O O17 0.500000 0.419697 0.826977
#
# Coordination Sequence:
#
# PCOD8259544 Si02
#       7
#     8  16   8  16  16  16  16
#     4  10  20  36  60  88 112 149 197 240 289 340
#     4  11  22  38  61  86 118 154 192 245 292 340
#     4  10  22  38  60  86 112 150 191 240 289 336
#     4  10  20  37  61  88 117 149 198 243 286 343
#     4  11  23  37  60  90 116 154 194 237 294 349
#     4  11  21  38  60  84 117 153 191 237 292 348
#     4  10  21  35  57  89 119 153 194 241 291 347
#
# _framework density 19.090249
#
# number of rings (size 3 to 8) (size 9 to 14) (size 15 to 20)
#    0.000    1.500    4.167    1.500    0.000    3.000 
#    0.000    0.000    1.833    0.000    0.000    0.000 
#    0.000    0.000    0.000    0.000    0.000    0.000 
#
# Total GULP energy -594895.001808 kJ/mol
# GULP energy per Si atom -12393.645871 kJ/mol
# Density = 1.904680 g / cm^3
# Si number density = 19.090249 Si / 1000 Ang^3
#
#
#
# Elastic Constant Matrix: (Units=GPa)
#
#
# Indices 1 2 3 4 5 6 
#
# 1 58.5950 24.9516 27.7849 0.0000 0.0000 0.0000
# 2 24.9516 102.3801 34.5474 0.0000 0.0000 0.0000
# 3 27.7849 34.5474 66.1584 0.0000 0.0000 0.0000
# 4 0.0000 0.0000 0.0000 26.8030 0.0000 0.0000
# 5 0.0000 0.0000 0.0000 0.0000 8.2185 0.0000
# 6 0.0000 0.0000 0.0000 0.0000 0.0000 0.1948
#
#
#
# Elastic Compliance Matrix: (Units=1/GPa)
#
#
# Indices 1 2 3 4 5 6 
#
# 1 0.021914 -0.002713 -0.007786 0.000000 0.000000 0.000000
# 2 -0.002713 0.012193 -0.005227 0.000000 0.000000 0.000000
# 3 -0.007786 -0.005227 0.021115 0.000000 0.000000 0.000000
# 4 0.000000 0.000000 0.000000 0.037309 0.000000 0.000000
# 5 0.000000 0.000000 0.000000 0.000000 0.121676 0.000000
# 6 0.000000 0.000000 0.000000 0.000000 0.000000 5.132240
#
#
# Mechanical properties :
#
#
# Convention : Reuss Voigt Hill
#
# Bulk Modulus (GPa) = 42.07445 44.63349 43.35397
# Shear Modulus (GPa) = 0.92836 16.36658 8.64747
#
# Velocity S-wave (km/s) = 0.69811 2.93119 2.13064
# Velocity P-wave (km/s) = 4.76838 5.90651 5.36769
#
# Compressibility (1/GPa) = 0.02376739
#
# Stress axis : x y z
#
# Youngs Moduli (GPa) = 45.63310 82.01597 47.35949
#
# Poissons Ratio (x) = 0.22253 0.36876
# Poissons Ratio (y) = 0.12382 0.24757
# Poissons Ratio (z) = 0.35532 0.42873
#
# Static dielectric constant tensor:
#      x y z
#    x 3.530340 0.000000 0.000000 
#    y 0.000000 3.472160 0.000000 
#    z 0.000000 0.000000 3.655120 
# 
# 
# High freq. dielectric constant tensor:
#      x y z
#    x 1.733350 0.000000 0.000000 
#    y 0.000000 1.745010 0.000000 
#    z 0.000000 0.000000 1.739740 
# 
# From -- ./inp_files/42571.got.cif
#   From: 2010.03.12/outbox.cif.g09.slc.cpg/sg63_22_cif.got.tgz:42571.got - 2010.04.10 19:34:48.
