data_PCOD8259508
_publ_section_title
;
Structure prediction by ZEFSAII (Michael W. Deem and Ramdas Pophale) SiO2 
 PCOD8259508
Probable space group: C M C M
;
_chemical_formula_sum "Si O2"
_cell_formula_units_Z 80
_cell_length_a 8.090178
_cell_length_b 19.653474
_cell_length_c 25.696605
_cell_angle_alpha 90.000000
_cell_angle_beta 90.000000
_cell_angle_gamma 90.000000
_cell_volume 4085.762841
_symmetry_space_group_name_H-M "C M C M"
_symmetry_group_IT_number 63
_symmetry_cell_setting 'orthorhombic'
loop_
_space_group_symop_operation_xyz
x,y,z
-x,-y,1/2+z
x,-y,-z
-x,y,1/2-z
-x,-y,-z
x,y,1/2-z
-x,y,z
x,-y,1/2+z
1/2+x,1/2+y,z
1/2-x,1/2-y,1/2+z
1/2+x,1/2-y,-z
1/2-x,1/2+y,1/2-z
1/2-x,1/2-y,-z
1/2+x,1/2+y,1/2-z
1/2-x,1/2+y,z
1/2+x,1/2-y,1/2+z
loop_
_atom_site_type_symbol
_atom_site_label
_atom_site_fract_x
_atom_site_fract_y
_atom_site_fract_z
Si Si1 0.500000 0.164417 0.309847
Si Si2 0.000000 0.173777 0.810589
Si Si3 0.312497 0.723609 0.446111
Si Si4 0.312378 0.473246 0.444012
Si Si5 0.688280 0.146527 0.622152
Si Si6 0.677904 0.903773 0.605420
O O1 0.500000 0.144562 0.250000
O O2 0.500000 0.245116 0.319058
O O3 0.663832 0.129824 0.336455
O O4 0.166931 0.139704 0.834574
O O5 0.000000 0.155451 0.750000
O O6 0.500000 0.700775 0.450535
O O7 0.250000 0.750000 0.500000
O O8 0.286604 0.779498 0.401965
O O9 0.211528 0.656409 0.434397
O O10 0.244668 0.500000 0.500000
O O11 0.500000 0.448549 0.450151
O O12 0.207363 0.409781 0.423077
O O13 0.306434 0.534558 0.401200
O O14 0.500000 0.140030 0.645259
O O15 0.500000 0.935268 0.589841
#
# Coordination Sequence:
#
# PCOD8259508 Si02
#       6
#     8   8  16  16  16  16
#     4   9  20  40  67  88 114 157 200 259 319 361
#     4  11  22  44  71  90 122 161 206 265 319 365
#     4  11  22  34  56  87 122 158 200 247 304 367
#     4  11  23  38  60  87 128 174 206 248 311 374
#     4  11  23  40  62  92 126 162 208 258 306 373
#     4  10  20  36  59  85 117 155 201 251 300 367
#
# _framework density 19.580186000000001
#
# number of rings (size 3 to 8) (size 9 to 14) (size 15 to 20)
#    0.600    0.800    3.000    3.000    1.400    5.200 
#    0.000    1.000    0.000    1.800    0.000    0.000 
#    0.000    0.000    0.000    0.000    0.000    0.000 
#
# Total GULP energy -495666.402231 kJ/mol
# GULP energy per Si atom -12391.660056 kJ/mol
# Density = 1.953562 g / cm^3
# Si number density = 19.580186 Si / 1000 Ang^3
#
#
#
# Elastic Constant Matrix: (Units=GPa)
#
#
# Indices 1 2 3 4 5 6 
#
# 1 101.5093 17.2875 45.0426 0.0000 0.0000 0.0000
# 2 17.2875 63.4617 2.9218 0.0000 0.0000 0.0000
# 3 45.0426 2.9218 87.7486 0.0000 0.0000 0.0000
# 4 0.0000 0.0000 0.0000 28.8591 0.0000 0.0000
# 5 0.0000 0.0000 0.0000 0.0000 24.9438 0.0000
# 6 0.0000 0.0000 0.0000 0.0000 0.0000 32.7075
#
#
#
# Elastic Compliance Matrix: (Units=1/GPa)
#
#
# Indices 1 2 3 4 5 6 
#
# 1 0.013431 -0.003346 -0.006783 0.000000 0.000000 0.000000
# 2 -0.003346 0.016616 0.001165 0.000000 0.000000 0.000000
# 3 -0.006783 0.001165 0.014839 0.000000 0.000000 0.000000
# 4 0.000000 0.000000 0.000000 0.034651 0.000000 0.000000
# 5 0.000000 0.000000 0.000000 0.000000 0.040090 0.000000
# 6 0.000000 0.000000 0.000000 0.000000 0.000000 0.030574
#
#
# Mechanical properties :
#
#
# Convention : Reuss Voigt Hill
#
# Bulk Modulus (GPa) = 37.09739 42.58039 39.83889
# Shear Modulus (GPa) = 28.23009 29.79992 29.01500
#
# Velocity S-wave (km/s) = 3.80118 3.90544 3.85366
# Velocity P-wave (km/s) = 6.18489 6.49080 6.33969
#
# Compressibility (1/GPa) = 0.02695607
#
# Stress axis : x y z
#
# Youngs Moduli (GPa) = 74.45466 60.18466 67.38923
#
# Poissons Ratio (x) = 0.20140 0.45709
# Poissons Ratio (y) = 0.24916 -0.07848
# Poissons Ratio (z) = 0.50502 -0.07009
#
# Static dielectric constant tensor:
#      x y z
#    x 4.116870 0.000000 0.000000 
#    y 0.000000 3.659170 0.000000 
#    z 0.000000 0.000000 3.550400 
# 
# 
# High freq. dielectric constant tensor:
#      x y z
#    x 1.764040 0.000000 0.000000 
#    y 0.000000 1.770680 0.000000 
#    z 0.000000 0.000000 1.737790 
# 
# From -- ./inp_files/71624.got.cif
#   From: 2010.03.12/outbox.cif.g09.slc.cpg/sg63_36_cif.got.tgz:71624.got - 2010.04.10 19:34:48.
