data_PCOD8259044
_publ_section_title
;
Structure prediction by ZEFSAII (Michael W. Deem and Ramdas Pophale) SiO2 
 PCOD8259044
Probable space group: C M C M
;
_chemical_formula_sum "Si O2"
_cell_formula_units_Z 80
_cell_length_a 8.800209
_cell_length_b 15.561897
_cell_length_c 28.781888
_cell_angle_alpha 90.000000
_cell_angle_beta 90.000000
_cell_angle_gamma 90.000000
_cell_volume 3941.620445
_symmetry_space_group_name_H-M "C M C M"
_symmetry_group_IT_number 63
_symmetry_cell_setting 'orthorhombic'
loop_
_space_group_symop_operation_xyz
x,y,z
-x,-y,1/2+z
x,-y,-z
-x,y,1/2-z
-x,-y,-z
x,y,1/2-z
-x,y,z
x,-y,1/2+z
1/2+x,1/2+y,z
1/2-x,1/2-y,1/2+z
1/2+x,1/2-y,-z
1/2-x,1/2+y,1/2-z
1/2-x,1/2-y,-z
1/2+x,1/2+y,1/2-z
1/2-x,1/2+y,z
1/2+x,1/2-y,1/2+z
loop_
_atom_site_type_symbol
_atom_site_label
_atom_site_fract_x
_atom_site_fract_y
_atom_site_fract_z
Si Si1 0.174937 0.843916 0.053900
Si Si2 0.676277 0.092459 0.364471
Si Si3 0.826006 0.598579 0.642801
Si Si4 0.320340 0.750486 0.801948
Si Si5 0.675859 0.337453 0.550154
O O1 0.277528 0.898573 0.088839
O O2 0.218112 0.744364 0.058453
O O3 0.000000 0.854155 0.068508
O O4 0.203255 0.876394 0.001261
O O5 0.500000 0.107439 0.376838
O O6 0.739205 0.166438 0.330142
O O7 0.774751 0.092693 0.411798
O O8 0.698414 0.999572 0.340188
O O9 0.727511 0.662129 0.673908
O O10 0.000000 0.626917 0.647439
O O11 0.251501 0.753925 0.750000
O O12 0.500000 0.752940 0.799805
O O13 0.500000 0.311239 0.556133
#
# Coordination Sequence:
#
# PCOD8259044 Si02
#       5
#    16  16  16  16  16
#     4  10  20  35  56  84 121 161 197 238 292 346
#     4  10  22  39  60  87 121 158 194 239 294 351
#     4  11  23  38  60  91 121 154 199 244 288 345
#     4  10  22  42  65  86 113 153 196 242 301 358
#     4  10  20  34  57  87 118 156 201 243 285 344
#
# _framework density 20.296222
#
# number of rings (size 3 to 8) (size 9 to 14) (size 15 to 20)
#    0.000    1.800    2.000    1.800    0.000    6.000 
#    0.000    6.000    0.000    0.000    0.000    0.000 
#    0.000    0.000    0.000    0.000    0.000    0.000 
#
# Total GULP energy -496060.840472 kJ/mol
# GULP energy per Si atom -12401.521012 kJ/mol
# Density = 2.025003 g / cm^3
# Si number density = 20.296222 Si / 1000 Ang^3
#
#
#
# Elastic Constant Matrix: (Units=GPa)
#
#
# Indices 1 2 3 4 5 6 
#
# 1 26.2833 12.6543 21.5257 0.0000 0.0000 0.0000
# 2 12.6543 101.6406 50.1250 0.0000 0.0000 0.0000
# 3 21.5257 50.1250 126.8782 0.0000 0.0000 0.0000
# 4 0.0000 0.0000 0.0000 12.5578 0.0000 0.0000
# 5 0.0000 0.0000 0.0000 0.0000 24.7296 0.0000
# 6 0.0000 0.0000 0.0000 0.0000 0.0000 27.7380
#
#
#
# Elastic Compliance Matrix: (Units=1/GPa)
#
#
# Indices 1 2 3 4 5 6 
#
# 1 0.044601 -0.002262 -0.006673 0.000000 0.000000 0.000000
# 2 -0.002262 0.012334 -0.004489 0.000000 0.000000 0.000000
# 3 -0.006673 -0.004489 0.010787 0.000000 0.000000 0.000000
# 4 0.000000 0.000000 0.000000 0.079632 0.000000 0.000000
# 5 0.000000 0.000000 0.000000 0.000000 0.040437 0.000000
# 6 0.000000 0.000000 0.000000 0.000000 0.000000 0.036052
#
#
# Mechanical properties :
#
#
# Convention : Reuss Voigt Hill
#
# Bulk Modulus (GPa) = 24.46536 47.04580 35.75558
# Shear Modulus (GPa) = 18.91675 24.37156 21.64416
#
# Velocity S-wave (km/s) = 3.05623 3.46901 3.26914
# Velocity P-wave (km/s) = 4.95322 6.26700 5.64843
#
# Compressibility (1/GPa) = 0.04087411
#
# Stress axis : x y z
#
# Youngs Moduli (GPa) = 22.42089 81.07688 92.70262
#
# Poissons Ratio (x) = 0.18339 0.61863
# Poissons Ratio (y) = 0.05071 0.41614
# Poissons Ratio (z) = 0.14962 0.36395
#
# Static dielectric constant tensor:
#      x y z
#    x 3.579270 0.000000 0.000000 
#    y 0.000000 3.532620 0.000000 
#    z 0.000000 0.000000 3.908640 
# 
# 
# High freq. dielectric constant tensor:
#      x y z
#    x 1.789620 0.000000 0.000000 
#    y 0.000000 1.786200 0.000000 
#    z 0.000000 0.000000 1.790710 
# 
# From -- ./inp_files/71602.got.cif
#   From: 2010.03.12/outbox.cif.g09.slc.cpg/sg63_36_cif.got.tgz:71602.got - 2010.04.10 19:34:48.
