data_PCOD8259958
_publ_section_title
;
Structure prediction by ZEFSAII (Michael W. Deem and Ramdas Pophale) SiO2 
 PCOD8259958
Probable space group: C M C M
;
_chemical_formula_sum "Si O2"
_cell_formula_units_Z 112
_cell_length_a 28.091826
_cell_length_b 12.379600
_cell_length_c 15.150370
_cell_angle_alpha 90.000000
_cell_angle_beta 90.000000
_cell_angle_gamma 90.000000
_cell_volume 5268.777046
_symmetry_space_group_name_H-M "C M C M"
_symmetry_group_IT_number 63
_symmetry_cell_setting 'orthorhombic'
loop_
_space_group_symop_operation_xyz
x,y,z
-x,-y,1/2+z
x,-y,-z
-x,y,1/2-z
-x,-y,-z
x,y,1/2-z
-x,y,z
x,-y,1/2+z
1/2+x,1/2+y,z
1/2-x,1/2-y,1/2+z
1/2+x,1/2-y,-z
1/2-x,1/2+y,1/2-z
1/2-x,1/2-y,-z
1/2+x,1/2+y,1/2-z
1/2-x,1/2+y,z
1/2+x,1/2-y,1/2+z
loop_
_atom_site_type_symbol
_atom_site_label
_atom_site_fract_x
_atom_site_fract_y
_atom_site_fract_z
Si Si1 0.804133 0.949940 0.353508
Si Si2 0.054838 0.163628 0.652201
Si Si3 0.866900 0.600139 0.934111
Si Si4 0.896411 0.065105 0.349623
Si Si5 0.295494 0.965638 0.651882
Si Si6 0.555767 0.747334 0.035778
Si Si7 0.802509 0.258240 0.961786
O O1 0.803884 0.917378 0.250000
O O2 0.752064 0.981895 0.389905
O O3 0.820475 0.848108 0.411698
O O4 0.839905 0.051073 0.370122
O O5 0.065911 0.215797 0.750000
O O6 0.066496 0.244263 0.570347
O O7 0.000000 0.130406 0.646428
O O8 0.083874 0.054949 0.640838
O O9 0.839281 0.552418 0.849179
O O10 0.920954 0.643016 0.922414
O O11 0.864048 0.500000 0.000000
O O12 0.839645 0.710844 0.961528
O O13 0.904150 0.109731 0.250000
O O14 0.922681 0.141599 0.418334
O O15 0.282792 0.933716 0.750000
O O16 0.307884 0.855719 0.605505
O O17 0.500000 0.752954 0.056050
O O18 0.750000 0.250000 0.000000
#
# Coordination Sequence:
#
# PCOD8259958 Si02
#       7
#    16  16  16  16  16  16  16
#     4  10  21  36  57  88 124 164 207 246 304 376
#     4   9  18  35  57  83 118 157 199 253 316 383
#     4  10  23  42  59  85 117 157 208 260 308 363
#     4  10  21  35  55  88 127 163 202 253 312 381
#     4  10  22  40  59  84 121 163 205 251 307 372
#     4  11  23  39  62  92 122 162 212 266 325 380
#     4  11  21  36  59  87 118 159 204 252 305 370
#
# _framework density 21.257306
#
# number of rings (size 3 to 8) (size 9 to 14) (size 15 to 20)
#    0.000    1.857    1.429    2.143    2.000    2.857 
#    0.000    2.857    0.000    0.000    0.000    2.000 
#    0.000    0.000    0.000    0.000    0.000    0.000 
#
# Total GULP energy -693977.754122 kJ/mol
# GULP energy per Si atom -12392.459895 kJ/mol
# Density = 2.120892 g / cm^3
# Si number density = 21.257306 Si / 1000 Ang^3
#
#
#
# Elastic Constant Matrix: (Units=GPa)
#
#
# Indices 1 2 3 4 5 6 
#
# 1 111.0253 29.9749 28.2484 0.0000 0.0000 0.0000
# 2 29.9749 44.9655 11.9109 0.0000 0.0000 0.0000
# 3 28.2484 11.9109 67.4179 0.0000 0.0000 0.0000
# 4 0.0000 0.0000 0.0000 10.4613 0.0000 0.0000
# 5 0.0000 0.0000 0.0000 0.0000 28.7700 0.0000
# 6 0.0000 0.0000 0.0000 0.0000 0.0000 31.7783
#
#
#
# Elastic Compliance Matrix: (Units=1/GPa)
#
#
# Indices 1 2 3 4 5 6 
#
# 1 0.011817 -0.006888 -0.003734 0.000000 0.000000 0.000000
# 2 -0.006888 0.027346 -0.001945 0.000000 0.000000 0.000000
# 3 -0.003734 -0.001945 0.016741 0.000000 0.000000 0.000000
# 4 0.000000 0.000000 0.000000 0.095591 0.000000 0.000000
# 5 0.000000 0.000000 0.000000 0.000000 0.034758 0.000000
# 6 0.000000 0.000000 0.000000 0.000000 0.000000 0.031468
#
#
# Mechanical properties :
#
#
# Convention : Reuss Voigt Hill
#
# Bulk Modulus (GPa) = 32.50025 40.40856 36.45440
# Shear Modulus (GPa) = 19.75403 24.42023 22.08713
#
# Velocity S-wave (km/s) = 3.05172 3.39306 3.22691
# Velocity P-wave (km/s) = 5.26683 5.86524 5.57407
#
# Compressibility (1/GPa) = 0.03076900
#
# Stress axis : x y z
#
# Youngs Moduli (GPa) = 84.62566 36.56804 59.73276
#
# Poissons Ratio (x) = 0.25188 0.22306
# Poissons Ratio (y) = 0.58291 0.11619
# Poissons Ratio (z) = 0.31602 0.07113
#
# Static dielectric constant tensor:
#      x y z
#    x 4.330170 0.000000 0.000000 
#    y 0.000000 3.746970 0.000000 
#    z 0.000000 0.000000 4.057560 
# 
# 
# High freq. dielectric constant tensor:
#      x y z
#    x 1.844870 0.000000 0.000000 
#    y 0.000000 1.812740 0.000000 
#    z 0.000000 0.000000 1.829400 
# 
# From -- ./inp_files/38564.got.cif
#   From: 2010.03.12/outbox.cif.g09.slc.cpg/sg63_20_cif.got.tgz:38564.got - 2010.04.10 19:34:48.
