data_PCOD8259991
_publ_section_title
;
Structure prediction by ZEFSAII (Michael W. Deem and Ramdas Pophale) SiO2 
 PCOD8259991
Probable space group: C M C M
;
_chemical_formula_sum "Si O2"
_cell_formula_units_Z 96
_cell_length_a 26.893611
_cell_length_b 20.216522
_cell_length_c 9.627188
_cell_angle_alpha 90.000000
_cell_angle_beta 90.000000
_cell_angle_gamma 90.000000
_cell_volume 5234.256660
_symmetry_space_group_name_H-M "C M C M"
_symmetry_group_IT_number 63
_symmetry_cell_setting 'orthorhombic'
loop_
_space_group_symop_operation_xyz
x,y,z
-x,-y,1/2+z
x,-y,-z
-x,y,1/2-z
-x,-y,-z
x,y,1/2-z
-x,y,z
x,-y,1/2+z
1/2+x,1/2+y,z
1/2-x,1/2-y,1/2+z
1/2+x,1/2-y,-z
1/2-x,1/2+y,1/2-z
1/2-x,1/2-y,-z
1/2+x,1/2+y,1/2-z
1/2-x,1/2+y,z
1/2+x,1/2-y,1/2+z
loop_
_atom_site_type_symbol
_atom_site_label
_atom_site_fract_x
_atom_site_fract_y
_atom_site_fract_z
Si Si1 0.620392 0.437598 0.089026
Si Si2 0.218435 0.300575 0.088735
Si Si3 0.103431 0.699436 0.588814
Si Si4 0.942565 0.187864 0.909460
Si Si5 0.264548 0.561746 0.590072
Si Si6 0.442500 0.938418 0.089910
O O1 0.610303 0.453542 0.250000
O O2 0.589399 0.374397 0.038350
O O3 0.677964 0.421998 0.059771
O O4 0.602162 0.500000 0.000000
O O5 0.231012 0.288975 0.250000
O O6 0.160962 0.288258 0.055872
O O7 0.232427 0.375031 0.045565
O O8 0.250000 0.250000 0.000000
O O9 0.091049 0.711280 0.750000
O O10 0.070083 0.748752 0.500512
O O11 0.089493 0.625010 0.545839
O O12 0.929674 0.204461 0.750000
O O13 0.000000 0.169530 0.928347
O O14 0.245798 0.500000 0.500000
O O15 0.255936 0.543134 0.750000
O O16 0.433970 0.956753 0.250000
O O17 0.500000 0.922800 0.058451
O O18 0.423236 0.000000 0.000000
#
# Coordination Sequence:
#
# PCOD8259991 Si02
#       6
#    16  16  16  16  16  16
#     4   9  18  33  52  74 102 135 170 209 253 302
#     4  10  21  36  54  77 105 137 174 215 258 306
#     4  10  21  36  54  77 105 137 174 215 258 306
#     4  10  21  36  54  77 105 137 174 215 258 306
#     4   9  18  33  52  74 102 135 170 209 253 302
#     4   9  18  33  52  74 102 135 170 209 253 302
#
# _framework density 18.340713000000001
#
# number of rings (size 3 to 8) (size 9 to 14) (size 15 to 20)
#    0.000    2.500    0.000    1.500    0.000    6.000 
#    0.000    5.000    0.000    0.000    0.000    0.000 
#    0.000    0.000    0.000    0.000    0.000    0.000 
#
# Total GULP energy -595410.053759 kJ/mol
# GULP energy per Si atom -12404.376120 kJ/mol
# Density = 1.829897 g / cm^3
# Si number density = 18.340713 Si / 1000 Ang^3
#
#
#
# Elastic Constant Matrix: (Units=GPa)
#
#
# Indices 1 2 3 4 5 6 
#
# 1 41.6404 20.7596 21.3024 0.0000 0.0000 0.0000
# 2 20.7596 96.3800 50.8572 0.0000 0.0000 0.0000
# 3 21.3024 50.8572 57.5488 0.0000 0.0000 0.0000
# 4 0.0000 0.0000 0.0000 41.4505 0.0000 0.0000
# 5 0.0000 0.0000 0.0000 0.0000 23.1137 0.0000
# 6 0.0000 0.0000 0.0000 0.0000 0.0000 37.7970
#
#
#
# Elastic Compliance Matrix: (Units=1/GPa)
#
#
# Indices 1 2 3 4 5 6 
#
# 1 0.029689 -0.001116 -0.010003 0.000000 0.000000 0.000000
# 2 -0.001116 0.019484 -0.016805 0.000000 0.000000 0.000000
# 3 -0.010003 -0.016805 0.035930 0.000000 0.000000 0.000000
# 4 0.000000 0.000000 0.000000 0.024125 0.000000 0.000000
# 5 0.000000 0.000000 0.000000 0.000000 0.043264 0.000000
# 6 0.000000 0.000000 0.000000 0.000000 0.000000 0.026457
#
#
# Mechanical properties :
#
#
# Convention : Reuss Voigt Hill
#
# Bulk Modulus (GPa) = 34.18332 42.37862 38.28097
# Shear Modulus (GPa) = 20.44575 27.31558 23.88066
#
# Velocity S-wave (km/s) = 3.34245 3.86338 3.61232
# Velocity P-wave (km/s) = 5.79434 6.56182 6.18998
#
# Compressibility (1/GPa) = 0.02925403
#
# Stress axis : x y z
#
# Youngs Moduli (GPa) = 33.68231 51.32542 27.83178
#
# Poissons Ratio (x) = 0.05730 0.27841
# Poissons Ratio (y) = 0.03760 0.46771
# Poissons Ratio (z) = 0.33693 0.86251
#
# Static dielectric constant tensor:
#      x y z
#    x 3.398160 0.000000 0.000000 
#    y 0.000000 3.446220 0.000000 
#    z 0.000000 0.000000 3.335830 
# 
# 
# High freq. dielectric constant tensor:
#      x y z
#    x 1.712590 0.000000 0.000000 
#    y 0.000000 1.716060 0.000000 
#    z 0.000000 0.000000 1.706220 
# 
# From -- ./inp_files/12320.got.cif
#   From: 2010.03.12/outbox.cif.g09.slc.cpg/sg63_7_cif.got.tgz:12320.got - 2010.04.10 19:34:48.
