data_PCOD8259857
_publ_section_title
;
Structure prediction by ZEFSAII (Michael W. Deem and Ramdas Pophale) SiO2 
 PCOD8259857
Probable space group: C M C M
;
_chemical_formula_sum "Si O2"
_cell_formula_units_Z 56
_cell_length_a 13.507959
_cell_length_b 35.050164
_cell_length_c 7.647119
_cell_angle_alpha 90.000000
_cell_angle_beta 90.000000
_cell_angle_gamma 90.000000
_cell_volume 3620.575736
_symmetry_space_group_name_H-M "C M C M"
_symmetry_group_IT_number 63
_symmetry_cell_setting 'orthorhombic'
loop_
_space_group_symop_operation_xyz
x,y,z
-x,-y,1/2+z
x,-y,-z
-x,y,1/2-z
-x,-y,-z
x,y,1/2-z
-x,y,z
x,-y,1/2+z
1/2+x,1/2+y,z
1/2-x,1/2-y,1/2+z
1/2+x,1/2-y,-z
1/2-x,1/2+y,1/2-z
1/2-x,1/2-y,-z
1/2+x,1/2+y,1/2-z
1/2-x,1/2+y,z
1/2+x,1/2-y,1/2+z
loop_
_atom_site_type_symbol
_atom_site_label
_atom_site_fract_x
_atom_site_fract_y
_atom_site_fract_z
Si Si1 0.117640 0.041251 0.554942
Si Si2 0.889468 0.756578 0.750000
Si Si3 0.617579 0.596073 0.250000
Si Si4 0.755277 0.829608 0.750000
Si Si5 0.888741 0.683327 0.942673
O O1 0.154568 0.051676 0.750000
O O2 0.155452 0.073370 0.420999
O O3 0.000000 0.039274 0.547900
O O4 0.160739 0.000000 0.500000
O O5 0.808470 0.789120 0.750000
O O6 0.876762 0.729459 0.921818
O O7 0.000000 0.774546 0.750000
O O8 0.500000 0.600622 0.250000
O O9 0.663482 0.637724 0.250000
O O10 0.688551 0.833840 0.578290
O O11 0.871185 0.664531 0.750000
O O12 0.000000 0.674158 0.008088
#
# Coordination Sequence:
#
# PCOD8259857 Si02
#       5
#    16   8   8   8  16
#     4   9  15  27  46  61  82 122 163 185 206 255
#     4   8  17  33  47  65  92 122 156 194 225 269
#     4  10  21  29  39  69 100 124 152 188 227 265
#     4  12  18  28  50  68  94 124 148 188 246 280
#     4   8  18  33  48  66  86 115 162 199 222 268
#
# _framework density 15.467155
#
# number of rings (size 3 to 8) (size 9 to 14) (size 15 to 20)
#    0.857    2.000    1.429    1.714    0.000    1.143 
#    0.000    0.000    0.000    1.714    0.000    0.000 
#    0.000    4.571    0.000    0.000    0.000    0.000 
#
# Total GULP energy -346914.172663 kJ/mol
# GULP energy per Si atom -12389.791881 kJ/mol
# Density = 1.543195 g / cm^3
# Si number density = 15.467155 Si / 1000 Ang^3
#
#
#
# Elastic Constant Matrix: (Units=GPa)
#
#
# Indices 1 2 3 4 5 6 
#
# 1 49.7685 20.1107 31.7653 0.0000 0.0000 0.0000
# 2 20.1107 57.6498 33.5983 0.0000 0.0000 0.0000
# 3 31.7653 33.5983 111.0881 0.0000 0.0000 0.0000
# 4 0.0000 0.0000 0.0000 16.0966 0.0000 0.0000
# 5 0.0000 0.0000 0.0000 0.0000 20.7656 0.0000
# 6 0.0000 0.0000 0.0000 0.0000 0.0000 10.2248
#
#
#
# Elastic Compliance Matrix: (Units=1/GPa)
#
#
# Indices 1 2 3 4 5 6 
#
# 1 0.026067 -0.005766 -0.005710 0.000000 0.000000 0.000000
# 2 -0.005766 0.022333 -0.005106 0.000000 0.000000 0.000000
# 3 -0.005710 -0.005106 0.012179 0.000000 0.000000 0.000000
# 4 0.000000 0.000000 0.000000 0.062125 0.000000 0.000000
# 5 0.000000 0.000000 0.000000 0.000000 0.048157 0.000000
# 6 0.000000 0.000000 0.000000 0.000000 0.000000 0.097802
#
#
# Mechanical properties :
#
#
# Convention : Reuss Voigt Hill
#
# Bulk Modulus (GPa) = 36.47479 43.27278 39.87378
# Shear Modulus (GPa) = 16.07901 18.28621 17.18261
#
# Velocity S-wave (km/s) = 3.22772 3.44213 3.33665
# Velocity P-wave (km/s) = 6.12570 6.62085 6.37808
#
# Compressibility (1/GPa) = 0.02741619
#
# Stress axis : x y z
#
# Youngs Moduli (GPa) = 38.36226 44.77654 82.10899
#
# Poissons Ratio (x) = 0.25816 0.46885
# Poissons Ratio (y) = 0.22118 0.41925
# Poissons Ratio (z) = 0.21905 0.22863
#
# Static dielectric constant tensor:
#      x y z
#    x 2.592460 0.000000 0.000000 
#    y 0.000000 2.705270 0.000000 
#    z 0.000000 0.000000 3.065340 
# 
# 
# High freq. dielectric constant tensor:
#      x y z
#    x 1.557610 0.000000 0.000000 
#    y 0.000000 1.568640 0.000000 
#    z 0.000000 0.000000 1.600050 
# 
# From -- ./inp_files/3051.got.cif
#   From: 2010.03.12/outbox.cif.g09.slc.cpg/sg63_2_cif.got.tgz:3051.got - 2010.04.10 19:34:48.
