data_PCOD8259028
_publ_section_title
;
Structure prediction by ZEFSAII (Michael W. Deem and Ramdas Pophale) SiO2 
 PCOD8259028
Probable space group: C M C M
;
_chemical_formula_sum "Si O2"
_cell_formula_units_Z 120
_cell_length_a 20.696062
_cell_length_b 11.760900
_cell_length_c 26.331366
_cell_angle_alpha 90.000000
_cell_angle_beta 90.000000
_cell_angle_gamma 90.000000
_cell_volume 6409.168119
_symmetry_space_group_name_H-M "C M C M"
_symmetry_group_IT_number 63
_symmetry_cell_setting 'orthorhombic'
loop_
_space_group_symop_operation_xyz
x,y,z
-x,-y,1/2+z
x,-y,-z
-x,y,1/2-z
-x,-y,-z
x,y,1/2-z
-x,y,z
x,-y,1/2+z
1/2+x,1/2+y,z
1/2-x,1/2-y,1/2+z
1/2+x,1/2-y,-z
1/2-x,1/2+y,1/2-z
1/2-x,1/2-y,-z
1/2+x,1/2+y,1/2-z
1/2-x,1/2+y,z
1/2+x,1/2-y,1/2+z
loop_
_atom_site_type_symbol
_atom_site_label
_atom_site_fract_x
_atom_site_fract_y
_atom_site_fract_z
Si Si1 0.261532 0.309528 0.553893
Si Si2 0.343196 0.733709 0.867884
Si Si3 0.425678 0.570485 0.572168
Si Si4 0.824367 0.000000 0.500000
Si Si5 0.206338 0.026444 0.808112
Si Si6 0.574048 0.168751 0.807011
Si Si7 0.627449 0.355935 0.623175
Si Si8 0.647259 0.953085 0.807414
O O1 0.250000 0.250000 0.500000
O O2 0.197768 0.288444 0.586286
O O3 0.276539 0.442340 0.541185
O O4 0.325324 0.278091 0.587347
O O5 0.406251 0.663504 0.885789
O O6 0.298431 0.650573 0.834115
O O7 0.370968 0.837763 0.835962
O O8 0.500000 0.589897 0.554940
O O9 0.373084 0.590014 0.527086
O O10 0.418052 0.439938 0.590559
O O11 0.182394 0.036927 0.750000
O O12 0.166305 0.932395 0.837381
O O13 0.278081 0.981151 0.811270
O O14 0.601208 0.196103 0.750000
O O15 0.500000 0.137521 0.803467
O O16 0.582557 0.274337 0.844261
O O17 0.609372 0.059623 0.831138
O O18 0.624402 0.935067 0.750000
#
# Coordination Sequence:
#
# PCOD8259028 Si02
#       8
#    16  16  16   8  16  16  16  16
#     4  11  21  35  56  84 112 142 186 233 297 334
#     4  11  21  36  56  83 116 148 182 231 281 342
#     4  10  21  36  56  81 109 147 187 226 278 331
#     4  10  21  36  56  80 107 138 184 242 276 330
#     4  10  20  34  56  87 118 144 179 231 290 344
#     4  10  21  37  57  82 115 155 195 230 275 340
#     4  10  20  35  59  85 115 145 188 240 287 332
#     4  10  21  34  54  82 113 151 186 225 275 335
#
# _framework density 18.723178999999998
#
# number of rings (size 3 to 8) (size 9 to 14) (size 15 to 20)
#    0.000    1.733    2.667    2.200    0.000    1.600 
#    0.000    0.000    0.000    7.600    0.000    1.400 
#    0.000    0.000    0.000    0.000    0.000    0.000 
#
# Total GULP energy -743596.927579 kJ/mol
# GULP energy per Si atom -12393.282126 kJ/mol
# Density = 1.868056 g / cm^3
# Si number density = 18.723179 Si / 1000 Ang^3
#
#
#
# Elastic Constant Matrix: (Units=GPa)
#
#
# Indices 1 2 3 4 5 6 
#
# 1 63.7650 26.6699 18.4724 0.0000 0.0000 0.0000
# 2 26.6699 88.9695 32.4501 0.0000 0.0000 0.0000
# 3 18.4724 32.4501 79.6122 0.0000 0.0000 0.0000
# 4 0.0000 0.0000 0.0000 39.0591 0.0000 0.0000
# 5 0.0000 0.0000 0.0000 0.0000 28.2203 0.0000
# 6 0.0000 0.0000 0.0000 0.0000 0.0000 15.1632
#
#
#
# Elastic Compliance Matrix: (Units=1/GPa)
#
#
# Indices 1 2 3 4 5 6 
#
# 1 0.018301 -0.004625 -0.002361 0.000000 0.000000 0.000000
# 2 -0.004625 0.014371 -0.004785 0.000000 0.000000 0.000000
# 3 -0.002361 -0.004785 0.015059 0.000000 0.000000 0.000000
# 4 0.000000 0.000000 0.000000 0.025602 0.000000 0.000000
# 5 0.000000 0.000000 0.000000 0.000000 0.035436 0.000000
# 6 0.000000 0.000000 0.000000 0.000000 0.000000 0.065949
#
#
# Mechanical properties :
#
#
# Convention : Reuss Voigt Hill
#
# Bulk Modulus (GPa) = 41.33974 43.05905 42.19939
# Shear Modulus (GPa) = 24.23389 26.80548 25.51968
#
# Velocity S-wave (km/s) = 3.60158 3.78785 3.69589
# Velocity P-wave (km/s) = 6.27874 6.49446 6.38751
#
# Compressibility (1/GPa) = 0.02418980
#
# Stress axis : x y z
#
# Youngs Moduli (GPa) = 54.64196 69.58333 66.40539
#
# Poissons Ratio (x) = 0.32180 0.15680
# Poissons Ratio (y) = 0.25270 0.31773
# Poissons Ratio (z) = 0.12903 0.33293
#
# Static dielectric constant tensor:
#      x y z
#    x 3.313390 0.000000 0.000000 
#    y 0.000000 3.476310 0.000000 
#    z 0.000000 0.000000 3.783130 
# 
# 
# High freq. dielectric constant tensor:
#      x y z
#    x 1.710990 0.000000 0.000000 
#    y 0.000000 1.721130 0.000000 
#    z 0.000000 0.000000 1.738280 
# 
# From -- ./inp_files/70510.got.cif
#   From: 2010.03.12/outbox.cif.g09.slc.cpg/sg63_36_cif.got.tgz:70510.got - 2010.04.10 19:34:48.
