data_PCOD8259679
_publ_section_title
;
Structure prediction by ZEFSAII (Michael W. Deem and Ramdas Pophale) SiO2 
 PCOD8259679
Probable space group: C M C M
;
_chemical_formula_sum "Si O2"
_cell_formula_units_Z 96
_cell_length_a 15.727971
_cell_length_b 16.920476
_cell_length_c 19.282456
_cell_angle_alpha 90.000000
_cell_angle_beta 90.000000
_cell_angle_gamma 90.000000
_cell_volume 5131.538895
_symmetry_space_group_name_H-M "C M C M"
_symmetry_group_IT_number 63
_symmetry_cell_setting 'orthorhombic'
loop_
_space_group_symop_operation_xyz
x,y,z
-x,-y,1/2+z
x,-y,-z
-x,y,1/2-z
-x,-y,-z
x,y,1/2-z
-x,y,z
x,-y,1/2+z
1/2+x,1/2+y,z
1/2-x,1/2-y,1/2+z
1/2+x,1/2-y,-z
1/2-x,1/2+y,1/2-z
1/2-x,1/2-y,-z
1/2+x,1/2+y,1/2-z
1/2-x,1/2+y,z
1/2+x,1/2-y,1/2+z
loop_
_atom_site_type_symbol
_atom_site_label
_atom_site_fract_x
_atom_site_fract_y
_atom_site_fract_z
Si Si1 0.000000 0.473595 0.109984
Si Si2 0.802930 0.816450 0.172560
Si Si3 0.171056 0.563616 0.672092
Si Si4 0.721715 0.539498 0.427457
Si Si5 0.403814 0.522869 0.829334
Si Si6 0.814646 0.298439 0.950860
Si Si7 0.500000 0.129545 0.473020
O O1 0.072479 0.443946 0.161219
O O2 0.000000 0.568341 0.092863
O O3 0.000000 0.424488 0.040046
O O4 0.819687 0.783918 0.250000
O O5 0.705149 0.846066 0.163301
O O6 0.827302 0.747368 0.120822
O O7 0.860303 0.893027 0.157399
O O8 0.197001 0.534558 0.750000
O O9 0.208242 0.510955 0.611331
O O10 0.696912 0.500000 0.500000
O O11 0.638093 0.543425 0.378883
O O12 0.761787 0.623715 0.438298
O O13 0.394237 0.495276 0.750000
O O14 0.500000 0.532062 0.852209
O O15 0.912333 0.317681 0.975630
O O16 0.750000 0.250000 0.000000
#
# Coordination Sequence:
#
# PCOD8259679 Si02
#       7
#     8  16  16  16  16  16   8
#     4  11  19  38  62  86 118 148 198 254 298 344
#     4   9  20  37  58  83 116 153 188 238 297 355
#     4  10  20  37  62  89 115 153 201 244 297 361
#     4  11  21  37  59  85 115 154 197 247 296 356
#     4   9  19  38  62  84 112 151 197 247 298 351
#     4  12  24  40  58  86 121 161 196 239 303 362
#     4  11  24  38  60  88 119 158 196 250 303 353
#
# _framework density 18.707839
#
# number of rings (size 3 to 8) (size 9 to 14) (size 15 to 20)
#    0.000    1.667    1.667    5.750    1.167    1.667 
#    1.500    0.000    0.000    0.000    0.000    0.000 
#    0.000    0.000    0.000    0.000    0.000    0.000 
#
# Total GULP energy -594660.896213 kJ/mol
# GULP energy per Si atom -12388.768671 kJ/mol
# Density = 1.866526 g / cm^3
# Si number density = 18.707839 Si / 1000 Ang^3
#
#
#
# Elastic Constant Matrix: (Units=GPa)
#
#
# Indices 1 2 3 4 5 6 
#
# 1 137.1434 33.0395 38.0745 0.0000 0.0000 0.0000
# 2 33.0395 75.2120 44.6629 0.0000 0.0000 0.0000
# 3 38.0745 44.6629 97.8908 0.0000 0.0000 0.0000
# 4 0.0000 0.0000 0.0000 35.4843 0.0000 0.0000
# 5 0.0000 0.0000 0.0000 0.0000 30.3003 0.0000
# 6 0.0000 0.0000 0.0000 0.0000 0.0000 -5.4388
#
#
#
# Elastic Compliance Matrix: (Units=1/GPa)
#
#
# Indices 1 2 3 4 5 6 
#
# 1 0.008485 -0.002424 -0.002194 0.000000 0.000000 0.000000
# 2 -0.002424 0.018929 -0.007694 0.000000 0.000000 0.000000
# 3 -0.002194 -0.007694 0.014579 0.000000 0.000000 0.000000
# 4 0.000000 0.000000 0.000000 0.028181 0.000000 0.000000
# 5 0.000000 0.000000 0.000000 0.000000 0.033003 0.000000
# 6 0.000000 0.000000 0.000000 0.000000 0.000000 -0.183865
#
#
# Mechanical properties :
#
#
# Convention : Reuss Voigt Hill
#
# Bulk Modulus (GPa) = 57.57308 60.20000 58.88654
# Shear Modulus (GPa) = -99.45596 25.03377 -37.21109
#
# Velocity S-wave (km/s) = -7.29919 3.66203 -4.46473
# Velocity P-wave (km/s) = 6.34002 7.08022 2.22864
#
# Compressibility (1/GPa) = 0.01736923
#
# Stress axis : x y z
#
# Youngs Moduli (GPa) = 117.85752 52.82771 68.59140
#
# Poissons Ratio (x) = 0.12807 0.15049
# Poissons Ratio (y) = 0.28573 0.52772
# Poissons Ratio (z) = 0.25858 0.40644
#
# Static dielectric constant tensor:
#      x y z
#    x 3.760180 0.000000 0.000000 
#    y 0.000000 3.370790 0.000000 
#    z 0.000000 0.000000 3.774910 
# 
# 
# High freq. dielectric constant tensor:
#      x y z
#    x 1.739120 0.000000 0.000000 
#    y 0.000000 1.701730 0.000000 
#    z 0.000000 0.000000 1.741160 
# 
# From -- ./inp_files/54269.got.cif
#   From: 2010.03.12/outbox.cif.g09.slc.cpg/sg63_28_cif.got.tgz:54269.got - 2010.04.10 19:34:48.
