data_PCOD8259614
_publ_section_title
;
Structure prediction by ZEFSAII (Michael W. Deem and Ramdas Pophale) SiO2 
 PCOD8259614
Probable space group: C M C M
;
_chemical_formula_sum "Si O2"
_cell_formula_units_Z 88
_cell_length_a 22.086891
_cell_length_b 22.889687
_cell_length_c 9.017084
_cell_angle_alpha 90.000000
_cell_angle_beta 90.000000
_cell_angle_gamma 90.000000
_cell_volume 4558.695218
_symmetry_space_group_name_H-M "C M C M"
_symmetry_group_IT_number 63
_symmetry_cell_setting 'orthorhombic'
loop_
_space_group_symop_operation_xyz
x,y,z
-x,-y,1/2+z
x,-y,-z
-x,y,1/2-z
-x,-y,-z
x,y,1/2-z
-x,y,z
x,-y,1/2+z
1/2+x,1/2+y,z
1/2-x,1/2-y,1/2+z
1/2+x,1/2-y,-z
1/2-x,1/2+y,1/2-z
1/2-x,1/2-y,-z
1/2+x,1/2+y,1/2-z
1/2-x,1/2+y,z
1/2+x,1/2-y,1/2+z
loop_
_atom_site_type_symbol
_atom_site_label
_atom_site_fract_x
_atom_site_fract_y
_atom_site_fract_z
Si Si1 0.500000 0.436054 0.428224
Si Si2 0.071240 0.442486 0.081788
Si Si3 0.158749 0.634704 0.081328
Si Si4 0.256423 0.439661 0.077201
Si Si5 0.122639 0.876974 0.421737
Si Si6 0.311972 0.263408 0.081754
O O1 0.500000 0.500000 0.500000
O O2 0.500000 0.443046 0.250000
O O3 0.558912 0.400127 0.487702
O O4 0.094667 0.444233 0.250000
O O5 0.000000 0.437280 0.072985
O O6 0.095529 0.500000 0.000000
O O7 0.098179 0.387709 0.996294
O O8 0.163692 0.612316 0.250000
O O9 0.149918 0.704131 0.076103
O O10 0.217979 0.613116 0.993025
O O11 0.240760 0.444004 0.250000
O O12 0.327158 0.426792 0.050430
O O13 0.238336 0.500000 0.000000
O O14 0.111334 0.865233 0.250000
O O15 0.147600 0.815647 0.491630
O O16 0.295509 0.281780 0.250000
O O17 0.250000 0.250000 0.000000
#
# Coordination Sequence:
#
# PCOD8259614 Si02
#       6
#     8  16  16  16  16  16
#     4  10  20  38  62  86 116 152 193 240 289 348
#     4  10  21  38  59  81 110 147 185 228 278 334
#     4  11  22  35  55  83 113 145 186 232 280 340
#     4  11  21  34  54  80 113 146 184 232 283 341
#     4   9  19  36  58  83 112 149 188 232 289 342
#     4  10  20  37  58  83 111 146 188 230 281 338
#
# _framework density 19.303768999999999
#
# number of rings (size 3 to 8) (size 9 to 14) (size 15 to 20)
#    0.000    1.818    1.818    2.727    0.000    1.818 
#    1.636    1.818    0.000    0.000    0.000    0.000 
#    0.000    0.000    0.000    0.000    0.000    0.000 
#
# Total GULP energy -545519.868051 kJ/mol
# GULP energy per Si atom -12398.178819 kJ/mol
# Density = 1.925983 g / cm^3
# Si number density = 19.303769 Si / 1000 Ang^3
#
#
#
# Elastic Constant Matrix: (Units=GPa)
#
#
# Indices 1 2 3 4 5 6 
#
# 1 90.0018 57.9200 33.0043 0.0000 0.0000 0.0000
# 2 57.9200 122.6108 43.9688 0.0000 0.0000 0.0000
# 3 33.0043 43.9688 101.7757 0.0000 0.0000 0.0000
# 4 0.0000 0.0000 0.0000 26.1803 0.0000 0.0000
# 5 0.0000 0.0000 0.0000 0.0000 26.9660 0.0000
# 6 0.0000 0.0000 0.0000 0.0000 0.0000 34.5554
#
#
#
# Elastic Compliance Matrix: (Units=1/GPa)
#
#
# Indices 1 2 3 4 5 6 
#
# 1 0.016420 -0.006919 -0.002336 0.000000 0.000000 0.000000
# 2 -0.006919 0.012567 -0.003185 0.000000 0.000000 0.000000
# 3 -0.002336 -0.003185 0.011959 0.000000 0.000000 0.000000
# 4 0.000000 0.000000 0.000000 0.038197 0.000000 0.000000
# 5 0.000000 0.000000 0.000000 0.000000 0.037084 0.000000
# 6 0.000000 0.000000 0.000000 0.000000 0.000000 0.028939
#
#
# Mechanical properties :
#
#
# Convention : Reuss Voigt Hill
#
# Bulk Modulus (GPa) = 62.24391 64.90827 63.57609
# Shear Modulus (GPa) = 28.50620 29.50668 29.00644
#
# Velocity S-wave (km/s) = 3.84698 3.91390 3.88058
# Velocity P-wave (km/s) = 7.21434 7.35680 7.28592
#
# Compressibility (1/GPa) = 0.01606583
#
# Stress axis : x y z
#
# Youngs Moduli (GPa) = 60.90085 79.57570 83.61899
#
# Poissons Ratio (x) = 0.55059 0.19530
# Poissons Ratio (y) = 0.42138 0.26635
# Poissons Ratio (z) = 0.14224 0.25347
#
# Static dielectric constant tensor:
#      x y z
#    x 3.539170 0.000000 0.000000 
#    y 0.000000 3.796450 0.000000 
#    z 0.000000 0.000000 3.505950 
# 
# 
# High freq. dielectric constant tensor:
#      x y z
#    x 1.751020 0.000000 0.000000 
#    y 0.000000 1.759270 0.000000 
#    z 0.000000 0.000000 1.738670 
# 
# From -- ./inp_files/8203.got.cif
#   From: 2010.03.12/outbox.cif.g09.slc.cpg/sg63_5_cif.got.tgz:8203.got - 2010.04.10 19:34:48.
