data_PCOD8259696
_publ_section_title
;
Structure prediction by ZEFSAII (Michael W. Deem and Ramdas Pophale) SiO2 
 PCOD8259696
Probable space group: C M C M
;
_chemical_formula_sum "Si O2"
_cell_formula_units_Z 64
_cell_length_a 14.771710
_cell_length_b 8.916717
_cell_length_c 23.034028
_cell_angle_alpha 90.000000
_cell_angle_beta 90.000000
_cell_angle_gamma 90.000000
_cell_volume 3033.930630
_symmetry_space_group_name_H-M "C M C M"
_symmetry_group_IT_number 63
_symmetry_cell_setting 'orthorhombic'
loop_
_space_group_symop_operation_xyz
x,y,z
-x,-y,1/2+z
x,-y,-z
-x,y,1/2-z
-x,-y,-z
x,y,1/2-z
-x,y,z
x,-y,1/2+z
1/2+x,1/2+y,z
1/2-x,1/2-y,1/2+z
1/2+x,1/2-y,-z
1/2-x,1/2+y,1/2-z
1/2-x,1/2-y,-z
1/2+x,1/2+y,1/2-z
1/2-x,1/2+y,z
1/2+x,1/2-y,1/2+z
loop_
_atom_site_type_symbol
_atom_site_label
_atom_site_fract_x
_atom_site_fract_y
_atom_site_fract_z
Si Si1 0.340477 0.197870 0.750000
Si Si2 0.500000 0.892732 0.447579
Si Si3 0.857146 0.943210 0.250000
Si Si4 0.500000 0.353600 0.036269
Si Si5 0.352164 0.689355 0.866302
Si Si6 0.840735 0.540955 0.862756
O O1 0.237682 0.142779 0.750000
O O2 0.350059 0.377221 0.750000
O O3 0.384702 0.125429 0.807143
O O4 0.500000 0.733984 0.476269
O O5 0.591657 0.922314 0.413605
O O6 0.500000 0.000000 0.500000
O O7 0.903351 0.886987 0.189765
O O8 0.412281 0.327673 0.076241
O O9 0.500000 0.500000 0.000000
O O10 0.258158 0.604249 0.878466
O O11 0.333326 0.863153 0.851930
#
# Coordination Sequence:
#
# PCOD8259696 Si02
#       6
#     8   8   8   8  16  16
#     4  10  20  37  64 101 126 167 205 268 316 390
#     4  12  26  49  62  93 129 174 217 266 306 388
#     4  10  20  37  64  97 134 157 215 258 326 380
#     4  12  30  45  66  91 133 168 225 264 316 374
#     4  11  23  44  67  99 127 173 207 269 320 383
#     4  11  23  42  71  94 132 166 216 259 329 374
#
# _framework density 21.094747000000002
#
# number of rings (size 3 to 8) (size 9 to 14) (size 15 to 20)
#    0.000    1.000    2.500    6.750    7.000    3.000 
#    0.000    3.750    0.000    0.000    0.000    0.000 
#    0.000    0.000    0.000    0.000    0.000    0.000 
#
# Total GULP energy -396422.995625 kJ/mol
# GULP energy per Si atom -12388.218613 kJ/mol
# Density = 2.104673 g / cm^3
# Si number density = 21.094747 Si / 1000 Ang^3
#
#
#
# Elastic Constant Matrix: (Units=GPa)
#
#
# Indices 1 2 3 4 5 6 
#
# 1 99.3809 42.1007 54.4837 0.0000 0.0000 0.0000
# 2 42.1007 223.1573 67.9675 0.0000 0.0000 0.0000
# 3 54.4837 67.9675 138.4884 0.0000 0.0000 0.0000
# 4 0.0000 0.0000 0.0000 51.7983 0.0000 0.0000
# 5 0.0000 0.0000 0.0000 0.0000 -2.7589 0.0000
# 6 0.0000 0.0000 0.0000 0.0000 0.0000 19.8224
#
#
#
# Elastic Compliance Matrix: (Units=1/GPa)
#
#
# Indices 1 2 3 4 5 6 
#
# 1 0.013037 -0.001055 -0.004611 0.000000 0.000000 0.000000
# 2 -0.001055 0.005354 -0.002213 0.000000 0.000000 0.000000
# 3 -0.004611 -0.002213 0.010121 0.000000 0.000000 0.000000
# 4 0.000000 0.000000 0.000000 0.019306 0.000000 0.000000
# 5 0.000000 0.000000 0.000000 0.000000 -0.362457 0.000000
# 6 0.000000 0.000000 0.000000 0.000000 0.000000 0.050448
#
#
# Mechanical properties :
#
#
# Convention : Reuss Voigt Hill
#
# Bulk Modulus (GPa) = 78.40484 87.79226 83.09855
# Shear Modulus (GPa) = -20.47655 33.53733 6.53039
#
# Velocity S-wave (km/s) = -3.11898 3.99161 1.76138
# Velocity P-wave (km/s) = 4.92727 7.93425 6.60418
#
# Compressibility (1/GPa) = 0.01275431
#
# Stress axis : x y z
#
# Youngs Moduli (GPa) = 76.70282 186.77284 98.80583
#
# Poissons Ratio (x) = 0.19707 0.45562
# Poissons Ratio (y) = 0.08093 0.21862
# Poissons Ratio (z) = 0.35370 0.41325
#
# Static dielectric constant tensor:
#      x y z
#    x 3.589840 0.000000 0.000000 
#    y 0.000000 3.877350 0.000000 
#    z 0.000000 0.000000 4.438260 
# 
# 
# High freq. dielectric constant tensor:
#      x y z
#    x 1.811750 0.000000 0.000000 
#    y 0.000000 1.853440 0.000000 
#    z 0.000000 0.000000 1.848600 
# 
# From -- ./inp_files/55078.got.cif
#   From: 2010.03.12/outbox.cif.g09.slc.cpg/sg63_28_cif.got.tgz:55078.got - 2010.04.10 19:34:48.
