data_PCOD8259076
_publ_section_title
;
Structure prediction by ZEFSAII (Michael W. Deem and Ramdas Pophale) SiO2 
 PCOD8259076
Probable space group: C M C M
;
_chemical_formula_sum "Si O2"
_cell_formula_units_Z 80
_cell_length_a 8.754190
_cell_length_b 19.866591
_cell_length_c 25.361174
_cell_angle_alpha 90.000000
_cell_angle_beta 90.000000
_cell_angle_gamma 90.000000
_cell_volume 4410.711712
_symmetry_space_group_name_H-M "C M C M"
_symmetry_group_IT_number 63
_symmetry_cell_setting 'orthorhombic'
loop_
_space_group_symop_operation_xyz
x,y,z
-x,-y,1/2+z
x,-y,-z
-x,y,1/2-z
-x,-y,-z
x,y,1/2-z
-x,y,z
x,-y,1/2+z
1/2+x,1/2+y,z
1/2-x,1/2-y,1/2+z
1/2+x,1/2-y,-z
1/2-x,1/2+y,1/2-z
1/2-x,1/2-y,-z
1/2+x,1/2+y,1/2-z
1/2-x,1/2+y,z
1/2+x,1/2-y,1/2+z
loop_
_atom_site_type_symbol
_atom_site_label
_atom_site_fract_x
_atom_site_fract_y
_atom_site_fract_z
Si Si1 0.166509 0.424398 0.750000
Si Si2 0.323162 0.819460 0.557812
Si Si3 0.682274 0.065861 0.362471
Si Si4 0.679030 0.422111 0.142212
Si Si5 0.824123 0.679548 0.563796
Si Si6 0.668621 0.083798 0.750000
O O1 0.247844 0.405714 0.694305
O O2 0.152226 0.504364 0.750000
O O3 0.000000 0.389900 0.750000
O O4 0.500000 0.801901 0.568314
O O5 0.268312 0.883060 0.591993
O O6 0.221454 0.756430 0.575118
O O7 0.295357 0.838360 0.497186
O O8 0.500000 0.057843 0.358386
O O9 0.750282 0.993198 0.375362
O O10 0.500000 0.431201 0.147860
O O11 0.717034 0.368895 0.097121
O O12 0.742687 0.393404 0.197496
O O13 0.000000 0.668803 0.579713
O O14 0.500000 0.117143 0.750000
#
# Coordination Sequence:
#
# PCOD8259076 Si02
#       6
#     8  16  16  16  16   8
#     4   7  12  25  48  73  96 125 157 195 247 303
#     4   9  19  35  54  74  99 135 178 220 262 311
#     4   9  17  32  53  76 102 133 170 211 258 308
#     4  11  21  33  52  79 107 134 170 212 253 303
#     4  10  20  35  53  72 100 139 177 215 263 313
#     4   9  17  33  54  75 102 135 169 205 253 305
#
# _framework density 18.137661999999999
#
# number of rings (size 3 to 8) (size 9 to 14) (size 15 to 20)
#    0.000    2.600    0.000    3.900    0.000    2.400 
#    0.000    5.000    0.000    2.400    0.000    0.000 
#    0.000    0.000    0.000    0.000    0.000    0.000 
#
# Total GULP energy -495836.446070 kJ/mol
# GULP energy per Si atom -12395.911152 kJ/mol
# Density = 1.809638 g / cm^3
# Si number density = 18.137662 Si / 1000 Ang^3
#
#
#
# Elastic Constant Matrix: (Units=GPa)
#
#
# Indices 1 2 3 4 5 6 
#
# 1 72.0046 30.6642 37.6331 0.0000 0.0000 0.0000
# 2 30.6642 75.6829 64.8050 0.0000 0.0000 0.0000
# 3 37.6331 64.8050 115.4274 0.0000 0.0000 0.0000
# 4 0.0000 0.0000 0.0000 3.4280 0.0000 0.0000
# 5 0.0000 0.0000 0.0000 0.0000 24.3401 0.0000
# 6 0.0000 0.0000 0.0000 0.0000 0.0000 27.0391
#
#
#
# Elastic Compliance Matrix: (Units=1/GPa)
#
#
# Indices 1 2 3 4 5 6 
#
# 1 0.017415 -0.004226 -0.003305 0.000000 0.000000 0.000000
# 2 -0.004226 0.026471 -0.013484 0.000000 0.000000 0.000000
# 3 -0.003305 -0.013484 0.017312 0.000000 0.000000 0.000000
# 4 0.000000 0.000000 0.000000 0.291715 0.000000 0.000000
# 5 0.000000 0.000000 0.000000 0.000000 0.041085 0.000000
# 6 0.000000 0.000000 0.000000 0.000000 0.000000 0.036983
#
#
# Mechanical properties :
#
#
# Convention : Reuss Voigt Hill
#
# Bulk Modulus (GPa) = 52.17192 58.81327 55.49260
# Shear Modulus (GPa) = 10.42968 19.62894 15.02931
#
# Velocity S-wave (km/s) = 2.40058 3.29328 2.88171
# Velocity P-wave (km/s) = 6.04240 6.85254 6.46018
#
# Compressibility (1/GPa) = 0.01916740
#
# Stress axis : x y z
#
# Youngs Moduli (GPa) = 57.42122 37.77695 57.76472
#
# Poissons Ratio (x) = 0.15963 0.19094
# Poissons Ratio (y) = 0.24264 0.77891
# Poissons Ratio (z) = 0.18980 0.50939
#
# Static dielectric constant tensor:
#      x y z
#    x 3.270200 0.000000 0.000000 
#    y 0.000000 3.064590 0.000000 
#    z 0.000000 0.000000 3.728700 
# 
# 
# High freq. dielectric constant tensor:
#      x y z
#    x 1.694370 0.000000 0.000000 
#    y 0.000000 1.675580 0.000000 
#    z 0.000000 0.000000 1.717190 
# 
# From -- ./inp_files/59559.got.cif
#   From: 2010.03.12/outbox.cif.g09.slc.cpg/sg63_30_cif.got.tgz:59559.got - 2010.04.10 19:34:48.
