data_PCOD8259340
_publ_section_title
;
Structure prediction by ZEFSAII (Michael W. Deem and Ramdas Pophale) SiO2 
 PCOD8259340
Probable space group: C M C M
;
_chemical_formula_sum "Si O2"
_cell_formula_units_Z 92
_cell_length_a 10.293889
_cell_length_b 19.865893
_cell_length_c 22.499738
_cell_angle_alpha 90.000000
_cell_angle_beta 90.000000
_cell_angle_gamma 90.000000
_cell_volume 4601.135614
_symmetry_space_group_name_H-M "C M C M"
_symmetry_group_IT_number 63
_symmetry_cell_setting 'orthorhombic'
loop_
_space_group_symop_operation_xyz
x,y,z
-x,-y,1/2+z
x,-y,-z
-x,y,1/2-z
-x,-y,-z
x,y,1/2-z
-x,y,z
x,-y,1/2+z
1/2+x,1/2+y,z
1/2-x,1/2-y,1/2+z
1/2+x,1/2-y,-z
1/2-x,1/2+y,1/2-z
1/2-x,1/2-y,-z
1/2+x,1/2+y,1/2-z
1/2-x,1/2+y,z
1/2+x,1/2-y,1/2+z
loop_
_atom_site_type_symbol
_atom_site_label
_atom_site_fract_x
_atom_site_fract_y
_atom_site_fract_z
Si Si1 0.850007 0.062224 0.250000
Si Si2 0.849643 0.747325 0.945009
Si Si3 0.243501 0.863626 0.867108
Si Si4 0.500000 0.327425 0.250000
Si Si5 0.000000 0.302381 0.684047
Si Si6 0.253349 0.086780 0.750000
Si Si7 0.647655 0.987192 0.931020
Si Si8 0.850792 0.618737 0.874557
O O1 0.822643 0.107870 0.307656
O O2 0.000000 0.040386 0.250000
O O3 0.760530 0.994793 0.250000
O O4 0.848932 0.812838 0.902829
O O5 0.795812 0.686012 0.904612
O O6 0.000000 0.737588 0.966747
O O7 0.750000 0.750000 0.000000
O O8 0.374791 0.824669 0.851881
O O9 0.269066 0.923032 0.913447
O O10 0.500000 0.279210 0.191593
O O11 0.383753 0.378572 0.250000
O O12 0.000000 0.336570 0.750000
O O13 0.334027 0.116355 0.804433
O O14 0.500000 0.976329 0.908263
O O15 0.716277 0.051845 0.900935
O O16 0.651753 0.000000 0.000000
O O17 0.000000 0.615503 0.892391
#
# Coordination Sequence:
#
# PCOD8259340 Si02
#       8
#     8  16  16   4   8   8  16  16
#     4  12  25  41  62  97 133 173 212 268 338 400
#     4  11  26  46  69  97 131 177 224 273 333 394
#     4  12  22  41  68  95 136 165 220 272 335 397
#     4  10  22  38  54  86 134 160 216 240 320 394
#     4  10  22  38  63 103 123 167 217 274 325 393
#     4  12  21  39  62  92 127 172 206 262 326 399
#     4  10  20  35  61  93 126 165 210 267 322 377
#     4  10  22  40  64  94 125 161 215 269 321 384
#
# _framework density 19.995063999999999
#
# number of rings (size 3 to 8) (size 9 to 14) (size 15 to 20)
#    0.261    0.870    3.913    2.870    1.217    2.087 
#    3.130    0.870    0.000    2.087    0.000    0.000 
#    0.000    0.000    0.000    0.000    0.000    0.000 
#
# Total GULP energy -570266.529676 kJ/mol
# GULP energy per Si atom -12397.098471 kJ/mol
# Density = 1.994955 g / cm^3
# Si number density = 19.995064 Si / 1000 Ang^3
#
#
#
# Elastic Constant Matrix: (Units=GPa)
#
#
# Indices 1 2 3 4 5 6 
#
# 1 63.0541 21.2792 23.7002 0.0000 0.0000 0.0000
# 2 21.2792 138.0111 49.3921 0.0000 0.0000 0.0000
# 3 23.7002 49.3921 113.8936 0.0000 0.0000 0.0000
# 4 0.0000 0.0000 0.0000 43.2954 0.0000 0.0000
# 5 0.0000 0.0000 0.0000 0.0000 40.6131 0.0000
# 6 0.0000 0.0000 0.0000 0.0000 0.0000 23.8092
#
#
#
# Elastic Compliance Matrix: (Units=1/GPa)
#
#
# Indices 1 2 3 4 5 6 
#
# 1 0.017518 -0.001653 -0.002928 0.000000 0.000000 0.000000
# 2 -0.001653 0.008733 -0.003443 0.000000 0.000000 0.000000
# 3 -0.002928 -0.003443 0.010883 0.000000 0.000000 0.000000
# 4 0.000000 0.000000 0.000000 0.023097 0.000000 0.000000
# 5 0.000000 0.000000 0.000000 0.000000 0.024623 0.000000
# 6 0.000000 0.000000 0.000000 0.000000 0.000000 0.042001
#
#
# Mechanical properties :
#
#
# Convention : Reuss Voigt Hill
#
# Bulk Modulus (GPa) = 47.42865 55.96684 51.69775
# Shear Modulus (GPa) = 33.34858 36.24935 34.79897
#
# Velocity S-wave (km/s) = 4.08835 4.26245 4.17631
# Velocity P-wave (km/s) = 6.78659 7.23020 7.01190
#
# Compressibility (1/GPa) = 0.02108430
#
# Stress axis : x y z
#
# Youngs Moduli (GPa) = 57.08428 114.50903 91.88860
#
# Poissons Ratio (x) = 0.18928 0.26910
# Poissons Ratio (y) = 0.09436 0.31639
# Poissons Ratio (z) = 0.16717 0.39428
#
# Static dielectric constant tensor:
#      x y z
#    x 3.559530 0.000000 0.000000 
#    y 0.000000 3.934310 0.000000 
#    z 0.000000 0.000000 3.379810 
# 
# 
# High freq. dielectric constant tensor:
#      x y z
#    x 1.760780 0.000000 0.000000 
#    y 0.000000 1.799150 0.000000 
#    z 0.000000 0.000000 1.786300 
# 
# From -- ./inp_files/52613.got.cif
#   From: 2010.03.12/outbox.cif.g09.slc.cpg/sg63_27_cif.got.tgz:52613.got - 2010.04.10 19:34:48.
