data_PCOD8259439
_publ_section_title
;
Structure prediction by ZEFSAII (Michael W. Deem and Ramdas Pophale) SiO2 
 PCOD8259439
Probable space group: C M C M
;
_chemical_formula_sum "Si O2"
_cell_formula_units_Z 80
_cell_length_a 18.609253
_cell_length_b 13.259845
_cell_length_c 17.686352
_cell_angle_alpha 90.000000
_cell_angle_beta 90.000000
_cell_angle_gamma 90.000000
_cell_volume 4364.210120
_symmetry_space_group_name_H-M "C M C M"
_symmetry_group_IT_number 63
_symmetry_cell_setting 'orthorhombic'
loop_
_space_group_symop_operation_xyz
x,y,z
-x,-y,1/2+z
x,-y,-z
-x,y,1/2-z
-x,-y,-z
x,y,1/2-z
-x,y,z
x,-y,1/2+z
1/2+x,1/2+y,z
1/2-x,1/2-y,1/2+z
1/2+x,1/2-y,-z
1/2-x,1/2+y,1/2-z
1/2-x,1/2-y,-z
1/2+x,1/2+y,1/2-z
1/2-x,1/2+y,z
1/2+x,1/2-y,1/2+z
loop_
_atom_site_type_symbol
_atom_site_label
_atom_site_fract_x
_atom_site_fract_y
_atom_site_fract_z
Si Si1 0.213824 0.711067 0.163709
Si Si2 0.500000 0.502244 0.410880
Si Si3 0.645002 0.169737 0.837671
Si Si4 0.279828 0.007688 0.411737
Si Si5 0.641313 0.581154 0.662063
Si Si6 0.500000 0.719188 0.338379
O O1 0.208055 0.674154 0.250000
O O2 0.294405 0.747329 0.145196
O O3 0.193274 0.619771 0.108530
O O4 0.158409 0.801537 0.148054
O O5 0.500000 0.500000 0.500000
O O6 0.569284 0.443716 0.381695
O O7 0.500000 0.616903 0.384469
O O8 0.647600 0.137681 0.750000
O O9 0.568987 0.215616 0.861288
O O10 0.658229 0.070294 0.887419
O O11 0.264807 0.000000 0.500000
O O12 0.206222 0.987608 0.367232
O O13 0.631026 0.556507 0.750000
O O14 0.500000 0.692087 0.250000
#
# Coordination Sequence:
#
# PCOD8259439 Si02
#       6
#    16   8  16  16  16   8
#     4   9  18  34  55  75 101 140 180 220 264 313
#     4  12  24  36  55  84 115 140 167 216 276 324
#     4   9  19  35  55  78 102 136 184 226 259 311
#     4  11  21  33  54  82 111 141 174 222 277 320
#     4  10  21  37  56  78 106 142 185 222 255 314
#     4  10  20  36  58  78 102 142 186 224 260 306
#
# _framework density 18.330922999999999
#
# number of rings (size 3 to 8) (size 9 to 14) (size 15 to 20)
#    0.000    2.000    0.000    5.700    0.000    6.400 
#    0.000    1.500    0.000    2.400    0.000    0.000 
#    0.000    0.000    0.000    0.000    0.000    0.000 
#
# Total GULP energy -496186.747273 kJ/mol
# GULP energy per Si atom -12404.668682 kJ/mol
# Density = 1.828920 g / cm^3
# Si number density = 18.330923 Si / 1000 Ang^3
#
#
#
# Elastic Constant Matrix: (Units=GPa)
#
#
# Indices 1 2 3 4 5 6 
#
# 1 135.1207 60.7453 55.6290 0.0000 0.0000 0.0000
# 2 60.7453 122.0990 66.1304 0.0000 0.0000 0.0000
# 3 55.6290 66.1304 121.0495 0.0000 0.0000 0.0000
# 4 0.0000 0.0000 0.0000 16.0588 0.0000 0.0000
# 5 0.0000 0.0000 0.0000 0.0000 22.8341 0.0000
# 6 0.0000 0.0000 0.0000 0.0000 0.0000 16.1917
#
#
#
# Elastic Compliance Matrix: (Units=1/GPa)
#
#
# Indices 1 2 3 4 5 6 
#
# 1 0.010118 -0.003572 -0.002698 0.000000 0.000000 0.000000
# 2 -0.003572 0.012893 -0.005402 0.000000 0.000000 0.000000
# 3 -0.002698 -0.005402 0.012452 0.000000 0.000000 0.000000
# 4 0.000000 0.000000 0.000000 0.062271 0.000000 0.000000
# 5 0.000000 0.000000 0.000000 0.000000 0.043794 0.000000
# 6 0.000000 0.000000 0.000000 0.000000 0.000000 0.061760
#
#
# Mechanical properties :
#
#
# Convention : Reuss Voigt Hill
#
# Bulk Modulus (GPa) = 82.52016 82.58652 82.55334
# Shear Modulus (GPa) = 21.67581 24.06788 22.87185
#
# Velocity S-wave (km/s) = 3.44244 3.62742 3.53614
# Velocity P-wave (km/s) = 7.80482 7.91803 7.86163
#
# Compressibility (1/GPa) = 0.01211825
#
# Stress axis : x y z
#
# Youngs Moduli (GPa) = 98.83847 77.56098 80.30780
#
# Poissons Ratio (x) = 0.27707 0.21667
# Poissons Ratio (y) = 0.35308 0.43382
# Poissons Ratio (z) = 0.26667 0.41898
#
# Static dielectric constant tensor:
#      x y z
#    x 3.386370 0.000000 0.000000 
#    y 0.000000 3.371160 0.000000 
#    z 0.000000 0.000000 3.321910 
# 
# 
# High freq. dielectric constant tensor:
#      x y z
#    x 1.702490 0.000000 0.000000 
#    y 0.000000 1.717730 0.000000 
#    z 0.000000 0.000000 1.709070 
# 
# From -- ./inp_files/55318.got.cif
#   From: 2010.03.12/outbox.cif.g09.slc.cpg/sg63_28_cif.got.tgz:55318.got - 2010.04.10 19:34:48.
