data_PCOD8259856
_publ_section_title
;
Structure prediction by ZEFSAII (Michael W. Deem and Ramdas Pophale) SiO2 
 PCOD8259856
Probable space group: C M C M
;
_chemical_formula_sum "Si O2"
_cell_formula_units_Z 52
_cell_length_a 10.509704
_cell_length_b 13.794757
_cell_length_c 17.682648
_cell_angle_alpha 90.000000
_cell_angle_beta 90.000000
_cell_angle_gamma 90.000000
_cell_volume 2563.609315
_symmetry_space_group_name_H-M "C M C M"
_symmetry_group_IT_number 63
_symmetry_cell_setting 'orthorhombic'
loop_
_space_group_symop_operation_xyz
x,y,z
-x,-y,1/2+z
x,-y,-z
-x,y,1/2-z
-x,-y,-z
x,y,1/2-z
-x,y,z
x,-y,1/2+z
1/2+x,1/2+y,z
1/2-x,1/2-y,1/2+z
1/2+x,1/2-y,-z
1/2-x,1/2+y,1/2-z
1/2-x,1/2-y,-z
1/2+x,1/2+y,1/2-z
1/2-x,1/2+y,z
1/2+x,1/2-y,1/2+z
loop_
_atom_site_type_symbol
_atom_site_label
_atom_site_fract_x
_atom_site_fract_y
_atom_site_fract_z
Si Si1 0.252501 0.351536 0.625891
Si Si2 0.500000 0.696354 0.750000
Si Si3 0.000000 0.276086 0.912591
Si Si4 0.000000 0.892300 0.971221
Si Si5 0.355908 0.017057 0.250000
Si Si6 0.271240 0.809694 0.250000
O O1 0.131921 0.332664 0.569362
O O2 0.375125 0.374606 0.577437
O O3 0.218613 0.444585 0.676630
O O4 0.286331 0.256644 0.675856
O O5 0.500000 0.766944 0.821927
O O6 0.368630 0.636852 0.750000
O O7 0.000000 0.174843 0.955398
O O8 0.000000 0.000000 0.000000
O O9 0.500000 0.056376 0.250000
O O10 0.366415 0.899824 0.250000
#
# Coordination Sequence:
#
# PCOD8259856 Si02
#       6
#    16   4   8   8   8   8
#     4  10  23  43  65  97 130 175 216 272 327 393
#     4   8  18  36  70  94 110 166 212 272 330 372
#     4  10  20  46  66  88 130 175 218 268 331 387
#     4  12  28  41  61  96 140 178 222 265 329 396
#     4  11  22  40  70 101 126 164 230 276 330 390
#     4   9  21  36  71  93 128 158 220 273 328 370
#
# _framework density 20.283902000000001
#
# number of rings (size 3 to 8) (size 9 to 14) (size 15 to 20)
#    0.000    1.846    1.538    1.846   12.923    1.846 
#    0.000    0.769    0.000    0.000    0.000    0.000 
#    0.000    0.000    0.000    0.000    0.000    0.000 
#
# Total GULP energy -322241.700933 kJ/mol
# GULP energy per Si atom -12393.911574 kJ/mol
# Density = 2.023773 g / cm^3
# Si number density = 20.283902 Si / 1000 Ang^3
#
#
#
# Elastic Constant Matrix: (Units=GPa)
#
#
# Indices 1 2 3 4 5 6 
#
# 1 181.2045 59.2268 72.3916 0.0000 0.0000 0.0000
# 2 59.2268 142.1667 55.0988 0.0000 0.0000 0.0000
# 3 72.3916 55.0988 91.5955 0.0000 0.0000 0.0000
# 4 0.0000 0.0000 0.0000 20.0649 0.0000 0.0000
# 5 0.0000 0.0000 0.0000 0.0000 25.5574 0.0000
# 6 0.0000 0.0000 0.0000 0.0000 0.0000 26.8437
#
#
#
# Elastic Compliance Matrix: (Units=1/GPa)
#
#
# Indices 1 2 3 4 5 6 
#
# 1 0.008215 -0.001181 -0.005782 0.000000 0.000000 0.000000
# 2 -0.001181 0.009342 -0.004686 0.000000 0.000000 0.000000
# 3 -0.005782 -0.004686 0.018306 0.000000 0.000000 0.000000
# 4 0.000000 0.000000 0.000000 0.049838 0.000000 0.000000
# 5 0.000000 0.000000 0.000000 0.000000 0.039128 0.000000
# 6 0.000000 0.000000 0.000000 0.000000 0.000000 0.037253
#
#
# Mechanical properties :
#
#
# Convention : Reuss Voigt Hill
#
# Bulk Modulus (GPa) = 79.58927 87.60015 83.59471
# Shear Modulus (GPa) = 26.37579 29.70983 28.04281
#
# Velocity S-wave (km/s) = 3.60992 3.83129 3.72225
# Velocity P-wave (km/s) = 7.52982 7.92796 7.73145
#
# Compressibility (1/GPa) = 0.01256451
#
# Stress axis : x y z
#
# Youngs Moduli (GPa) = 121.73531 107.03935 54.62719
#
# Poissons Ratio (x) = 0.12646 0.31583
# Poissons Ratio (y) = 0.14382 0.25599
# Poissons Ratio (z) = 0.70382 0.50160
#
# Static dielectric constant tensor:
#      x y z
#    x 4.291560 0.000000 0.000000 
#    y 0.000000 3.466970 0.000000 
#    z 0.000000 0.000000 3.576840 
# 
# 
# High freq. dielectric constant tensor:
#      x y z
#    x 1.816670 0.000000 0.000000 
#    y 0.000000 1.780800 0.000000 
#    z 0.000000 0.000000 1.776480 
# 
# From -- ./inp_files/28807.got.cif
#   From: 2010.03.12/outbox.cif.g09.slc.cpg/sg63_15_cif.got.tgz:28807.got - 2010.04.10 19:34:48.
