data_PCOD8259889
_publ_section_title
;
Structure prediction by ZEFSAII (Michael W. Deem and Ramdas Pophale) SiO2 
 PCOD8259889
Probable space group: C M C M
;
_chemical_formula_sum "Si O2"
_cell_formula_units_Z 112
_cell_length_a 15.199286
_cell_length_b 23.893751
_cell_length_c 14.700718
_cell_angle_alpha 90.000000
_cell_angle_beta 90.000000
_cell_angle_gamma 90.000000
_cell_volume 5338.829694
_symmetry_space_group_name_H-M "C M C M"
_symmetry_group_IT_number 63
_symmetry_cell_setting 'orthorhombic'
loop_
_space_group_symop_operation_xyz
x,y,z
-x,-y,1/2+z
x,-y,-z
-x,y,1/2-z
-x,-y,-z
x,y,1/2-z
-x,y,z
x,-y,1/2+z
1/2+x,1/2+y,z
1/2-x,1/2-y,1/2+z
1/2+x,1/2-y,-z
1/2-x,1/2+y,1/2-z
1/2-x,1/2-y,-z
1/2+x,1/2+y,1/2-z
1/2-x,1/2+y,z
1/2+x,1/2-y,1/2+z
loop_
_atom_site_type_symbol
_atom_site_label
_atom_site_fract_x
_atom_site_fract_y
_atom_site_fract_z
Si Si1 0.266215 0.464331 0.850427
Si Si2 0.100621 0.946287 0.356387
Si Si3 0.401531 0.666633 0.961429
Si Si4 0.902439 0.475132 0.400785
Si Si5 0.757709 0.227103 0.853372
Si Si6 0.098728 0.351519 0.143439
Si Si7 0.819994 0.155011 0.353923
O O1 0.304794 0.460276 0.750000
O O2 0.335429 0.506021 0.899568
O O3 0.168263 0.489173 0.845417
O O4 0.267317 0.400698 0.886677
O O5 0.120239 0.933582 0.250000
O O6 0.123047 0.891514 0.413794
O O7 0.000000 0.965693 0.370444
O O8 0.500000 0.684655 0.935248
O O9 0.335505 0.712896 0.922461
O O10 0.396538 0.662889 0.071376
O O11 0.901660 0.500000 0.500000
O O12 0.875636 0.409842 0.405262
O O13 0.000000 0.481181 0.356549
O O14 0.781599 0.209255 0.750000
O O15 0.667400 0.196534 0.884925
O O16 0.747257 0.293607 0.859858
O O17 0.102924 0.363561 0.250000
O O18 0.000000 0.332049 0.115068
O O19 0.858317 0.151746 0.250000
#
# Coordination Sequence:
#
# PCOD8259889 Si02
#       7
#    16  16  16  16  16  16  16
#     4  10  21  37  59  83 113 160 199 235 294 353
#     4   9  19  36  59  91 123 149 191 247 300 355
#     4  11  23  38  61  91 118 154 199 245 300 352
#     4  10  21  34  52  84 117 146 184 235 293 350
#     4  10  21  40  64  89 119 153 193 248 302 349
#     4   9  18  34  59  88 113 144 190 241 296 351
#     4  10  24  42  58  82 118 161 206 244 287 350
#
# _framework density 20.978380999999999
#
# number of rings (size 3 to 8) (size 9 to 14) (size 15 to 20)
#    0.000    2.143    0.000    2.143    4.000    5.429 
#    0.000    5.000    0.000    2.571    0.000    0.000 
#    0.000    0.000    0.000    0.000    0.000    0.000 
#
# Total GULP energy -694126.822826 kJ/mol
# GULP energy per Si atom -12395.121836 kJ/mol
# Density = 2.093063 g / cm^3
# Si number density = 20.978381 Si / 1000 Ang^3
#
#
#
# Elastic Constant Matrix: (Units=GPa)
#
#
# Indices 1 2 3 4 5 6 
#
# 1 112.5521 58.5538 33.5583 0.0000 0.0000 0.0000
# 2 58.5538 120.0661 34.4787 0.0000 0.0000 0.0000
# 3 33.5583 34.4787 85.2185 0.0000 0.0000 0.0000
# 4 0.0000 0.0000 0.0000 9.0545 0.0000 0.0000
# 5 0.0000 0.0000 0.0000 0.0000 24.7055 0.0000
# 6 0.0000 0.0000 0.0000 0.0000 0.0000 15.4575
#
#
#
# Elastic Compliance Matrix: (Units=1/GPa)
#
#
# Indices 1 2 3 4 5 6 
#
# 1 0.012457 -0.005280 -0.002769 0.000000 0.000000 0.000000
# 2 -0.005280 0.011661 -0.002639 0.000000 0.000000 0.000000
# 3 -0.002769 -0.002639 0.013893 0.000000 0.000000 0.000000
# 4 0.000000 0.000000 0.000000 0.110443 0.000000 0.000000
# 5 0.000000 0.000000 0.000000 0.000000 0.040477 0.000000
# 6 0.000000 0.000000 0.000000 0.000000 0.000000 0.064693
#
#
# Mechanical properties :
#
#
# Convention : Reuss Voigt Hill
#
# Bulk Modulus (GPa) = 60.11384 63.44646 61.78015
# Shear Modulus (GPa) = 17.82240 22.59323 20.20782
#
# Velocity S-wave (km/s) = 2.91788 3.28529 3.10702
# Velocity P-wave (km/s) = 6.33004 6.68583 6.51036
#
# Compressibility (1/GPa) = 0.01663510
#
# Stress axis : x y z
#
# Youngs Moduli (GPa) = 80.27437 85.75256 71.97983
#
# Poissons Ratio (x) = 0.45277 0.19934
# Poissons Ratio (y) = 0.42384 0.18995
# Poissons Ratio (z) = 0.22231 0.22630
#
# Static dielectric constant tensor:
#      x y z
#    x 3.816660 0.000000 0.000000 
#    y 0.000000 3.881210 0.000000 
#    z 0.000000 0.000000 3.901620 
# 
# 
# High freq. dielectric constant tensor:
#      x y z
#    x 1.810310 0.000000 0.000000 
#    y 0.000000 1.825020 0.000000 
#    z 0.000000 0.000000 1.818110 
# 
# From -- ./inp_files/32263.got.cif
#   From: 2010.03.12/outbox.cif.g09.slc.cpg/sg63_17_cif.got.tgz:32263.got - 2010.04.10 19:34:48.
