data_PCOD8259965
_publ_section_title
;
Structure prediction by ZEFSAII (Michael W. Deem and Ramdas Pophale) SiO2 
 PCOD8259965
Probable space group: C M C M
;
_chemical_formula_sum "Si O2"
_cell_formula_units_Z 96
_cell_length_a 8.786190
_cell_length_b 19.776313
_cell_length_c 28.876126
_cell_angle_alpha 90.000000
_cell_angle_beta 90.000000
_cell_angle_gamma 90.000000
_cell_volume 5017.470709
_symmetry_space_group_name_H-M "C M C M"
_symmetry_group_IT_number 63
_symmetry_cell_setting 'orthorhombic'
loop_
_space_group_symop_operation_xyz
x,y,z
-x,-y,1/2+z
x,-y,-z
-x,y,1/2-z
-x,-y,-z
x,y,1/2-z
-x,y,z
x,-y,1/2+z
1/2+x,1/2+y,z
1/2-x,1/2-y,1/2+z
1/2+x,1/2-y,-z
1/2-x,1/2+y,1/2-z
1/2-x,1/2-y,-z
1/2+x,1/2+y,1/2-z
1/2-x,1/2+y,z
1/2+x,1/2-y,1/2+z
loop_
_atom_site_type_symbol
_atom_site_label
_atom_site_fract_x
_atom_site_fract_y
_atom_site_fract_z
Si Si1 0.676322 0.735769 0.304150
Si Si2 0.178996 0.509415 0.876709
Si Si3 0.169216 0.938322 0.034243
Si Si4 0.819967 0.643663 0.120707
Si Si5 0.818823 0.387828 0.301284
Si Si6 0.819473 0.186882 0.025666
O O1 0.703249 0.721556 0.250000
O O2 0.500000 0.725425 0.317199
O O3 0.777665 0.683342 0.332764
O O4 0.729905 0.812136 0.316661
O O5 0.216953 0.546401 0.924357
O O6 0.244813 0.433153 0.875215
O O7 0.249499 0.555361 0.835558
O O8 0.000000 0.506281 0.870890
O O9 0.000000 0.923153 0.053960
O O10 0.234353 0.876155 0.005050
O O11 0.161962 0.000000 0.000000
O O12 0.745076 0.681079 0.077278
O O13 0.000000 0.643318 0.113910
O O14 0.755112 0.403587 0.250000
O O15 0.000000 0.390169 0.300577
O O16 0.000000 0.192497 0.028955
O O17 0.750000 0.250000 0.000000
#
# Coordination Sequence:
#
# PCOD8259965 Si02
#       6
#    16  16  16  16  16  16
#     4   9  19  37  60  83 110 149 194 238 286 340
#     4  10  21  35  57  86 112 147 189 232 278 331
#     4  10  21  39  59  80 111 151 186 226 282 334
#     4  11  23  37  55  85 120 151 188 235 286 337
#     4   8  16  34  58  83 109 140 184 231 277 332
#     4  11  24  41  60  83 114 151 190 235 284 339
#
# _framework density 19.133146
#
# number of rings (size 3 to 8) (size 9 to 14) (size 15 to 20)
#    0.000    2.167    1.667    2.000    2.333    3.333 
#    0.000    1.667    0.000    1.500    0.000    0.000 
#    0.000    0.000    0.000    0.000    0.000    0.000 
#
# Total GULP energy -595182.814841 kJ/mol
# GULP energy per Si atom -12399.641976 kJ/mol
# Density = 1.908960 g / cm^3
# Si number density = 19.133146 Si / 1000 Ang^3
#
#
#
# Elastic Constant Matrix: (Units=GPa)
#
#
# Indices 1 2 3 4 5 6 
#
# 1 40.0695 30.8231 27.7720 0.0000 0.0000 0.0000
# 2 30.8231 128.6680 68.2176 0.0000 0.0000 0.0000
# 3 27.7720 68.2176 115.3662 0.0000 0.0000 0.0000
# 4 0.0000 0.0000 0.0000 40.0981 0.0000 0.0000
# 5 0.0000 0.0000 0.0000 0.0000 19.3514 0.0000
# 6 0.0000 0.0000 0.0000 0.0000 0.0000 19.5095
#
#
#
# Elastic Compliance Matrix: (Units=1/GPa)
#
#
# Indices 1 2 3 4 5 6 
#
# 1 0.032221 -0.005253 -0.004650 0.000000 0.000000 0.000000
# 2 -0.005253 0.012178 -0.005936 0.000000 0.000000 0.000000
# 3 -0.004650 -0.005936 0.013298 0.000000 0.000000 0.000000
# 4 0.000000 0.000000 0.000000 0.024939 0.000000 0.000000
# 5 0.000000 0.000000 0.000000 0.000000 0.051676 0.000000
# 6 0.000000 0.000000 0.000000 0.000000 0.000000 0.051257
#
#
# Mechanical properties :
#
#
# Convention : Reuss Voigt Hill
#
# Bulk Modulus (GPa) = 38.43670 59.74766 49.09218
# Shear Modulus (GPa) = 22.13182 26.27787 24.20485
#
# Velocity S-wave (km/s) = 3.40476 3.70999 3.56065
# Velocity P-wave (km/s) = 5.96567 7.04607 6.52826
#
# Compressibility (1/GPa) = 0.02601680
#
# Stress axis : x y z
#
# Youngs Moduli (GPa) = 31.03601 82.11776 75.20128
#
# Poissons Ratio (x) = 0.43138 0.34970
# Poissons Ratio (y) = 0.16304 0.44641
# Poissons Ratio (z) = 0.14432 0.48747
#
# Static dielectric constant tensor:
#      x y z
#    x 3.295870 0.000000 0.000000 
#    y 0.000000 3.739780 0.000000 
#    z 0.000000 0.000000 3.548360 
# 
# 
# High freq. dielectric constant tensor:
#      x y z
#    x 1.720970 0.000000 0.000000 
#    y 0.000000 1.756880 0.000000 
#    z 0.000000 0.000000 1.750540 
# 
# From -- ./inp_files/59929.got.cif
#   From: 2010.03.12/outbox.cif.g09.slc.cpg/sg63_30_cif.got.tgz:59929.got - 2010.04.10 19:34:48.
