data_PCOD8259689
_publ_section_title
;
Structure prediction by ZEFSAII (Michael W. Deem and Ramdas Pophale) SiO2 
 PCOD8259689
Probable space group: C M C M
;
_chemical_formula_sum "Si O2"
_cell_formula_units_Z 56
_cell_length_a 8.396728
_cell_length_b 22.316411
_cell_length_c 12.810121
_cell_angle_alpha 90.000000
_cell_angle_beta 90.000000
_cell_angle_gamma 90.000000
_cell_volume 2400.422386
_symmetry_space_group_name_H-M "C M C M"
_symmetry_group_IT_number 63
_symmetry_cell_setting 'orthorhombic'
loop_
_space_group_symop_operation_xyz
x,y,z
-x,-y,1/2+z
x,-y,-z
-x,y,1/2-z
-x,-y,-z
x,y,1/2-z
-x,y,z
x,-y,1/2+z
1/2+x,1/2+y,z
1/2-x,1/2-y,1/2+z
1/2+x,1/2-y,-z
1/2-x,1/2+y,1/2-z
1/2-x,1/2-y,-z
1/2+x,1/2+y,1/2-z
1/2-x,1/2+y,z
1/2+x,1/2-y,1/2+z
loop_
_atom_site_type_symbol
_atom_site_label
_atom_site_fract_x
_atom_site_fract_y
_atom_site_fract_z
Si Si1 0.000000 0.209040 0.126183
Si Si2 0.672879 0.893545 0.365065
Si Si3 0.000000 0.070803 0.371786
Si Si4 0.678961 0.273343 0.125293
Si Si5 0.252508 0.500000 0.000000
O O1 0.168900 0.235498 0.078164
O O2 0.000000 0.220526 0.250000
O O3 0.000000 0.139891 0.095824
O O4 0.723353 0.916179 0.250000
O O5 0.500000 0.861494 0.360690
O O6 0.797935 0.843570 0.403261
O O7 0.651503 0.950900 0.438688
O O8 0.151639 0.037246 0.415525
O O9 0.000000 0.063275 0.250000
O O10 0.681901 0.264361 0.250000
O O11 0.500000 0.255050 0.082993
#
# Coordination Sequence:
#
# PCOD8259689 Si02
#       5
#     8  16   8  16   8
#     4   9  17  37  61  87 122 158 200 251 312 374
#     4  10  20  37  62  91 125 163 204 255 310 364
#     4  10  23  41  62  87 124 167 203 254 315 365
#     4   9  17  31  59  92 119 156 205 252 305 368
#     4  11  23  38  60  88 124 160 216 252 300 370
#
# _framework density 23.329228000000001
#
# number of rings (size 3 to 8) (size 9 to 14) (size 15 to 20)
#    0.000    2.286    1.429    1.286    4.000    0.000 
#    0.000    4.286    0.000    6.857    0.000    0.000 
#    0.000    0.000    0.000    0.000    0.000    0.000 
#
# Total GULP energy -346973.382990 kJ/mol
# GULP energy per Si atom -12391.906535 kJ/mol
# Density = 2.327613 g / cm^3
# Si number density = 23.329228 Si / 1000 Ang^3
#
#
#
# Elastic Constant Matrix: (Units=GPa)
#
#
# Indices 1 2 3 4 5 6 
#
# 1 166.8733 62.9027 46.6897 0.0000 0.0000 0.0000
# 2 62.9027 120.1993 43.2442 0.0000 0.0000 0.0000
# 3 46.6897 43.2442 66.0324 0.0000 0.0000 0.0000
# 4 0.0000 0.0000 0.0000 17.1621 0.0000 0.0000
# 5 0.0000 0.0000 0.0000 0.0000 40.0732 0.0000
# 6 0.0000 0.0000 0.0000 0.0000 0.0000 38.7897
#
#
#
# Elastic Compliance Matrix: (Units=1/GPa)
#
#
# Indices 1 2 3 4 5 6 
#
# 1 0.008164 -0.002872 -0.003892 0.000000 0.000000 0.000000
# 2 -0.002872 0.011894 -0.005759 0.000000 0.000000 0.000000
# 3 -0.003892 -0.005759 0.021667 0.000000 0.000000 0.000000
# 4 0.000000 0.000000 0.000000 0.058268 0.000000 0.000000
# 5 0.000000 0.000000 0.000000 0.000000 0.024954 0.000000
# 6 0.000000 0.000000 0.000000 0.000000 0.000000 0.025780
#
#
# Mechanical properties :
#
#
# Convention : Reuss Voigt Hill
#
# Bulk Modulus (GPa) = 59.95031 73.19758 66.57394
# Shear Modulus (GPa) = 27.57357 32.55623 30.06490
#
# Velocity S-wave (km/s) = 3.44165 3.73971 3.59377
# Velocity P-wave (km/s) = 6.44567 7.07752 6.76897
#
# Compressibility (1/GPa) = 0.01668048
#
# Stress axis : x y z
#
# Youngs Moduli (GPa) = 122.48705 84.07259 46.15327
#
# Poissons Ratio (x) = 0.24149 0.17961
# Poissons Ratio (y) = 0.35183 0.26578
# Poissons Ratio (z) = 0.47666 0.48414
#
# Static dielectric constant tensor:
#      x y z
#    x 4.114500 0.000000 0.000000 
#    y 0.000000 4.003270 0.000000 
#    z 0.000000 0.000000 4.268780 
# 
# 
# High freq. dielectric constant tensor:
#      x y z
#    x 1.931560 0.000000 0.000000 
#    y 0.000000 1.910420 0.000000 
#    z 0.000000 0.000000 1.948430 
# 
# From -- ./inp_files/27291.got.cif
#   From: 2010.03.12/outbox.cif.g09.slc.cpg/sg63_14_cif.got.tgz:27291.got - 2010.04.10 19:34:48.
