data_PCOD8259123
_publ_section_title
;
Structure prediction by ZEFSAII (Michael W. Deem and Ramdas Pophale) SiO2 
 PCOD8259123
Probable space group: C M C M
;
_chemical_formula_sum "Si O2"
_cell_formula_units_Z 80
_cell_length_a 33.368377
_cell_length_b 14.763177
_cell_length_c 8.922433
_cell_angle_alpha 90.000000
_cell_angle_beta 90.000000
_cell_angle_gamma 90.000000
_cell_volume 4395.397995
_symmetry_space_group_name_H-M "C M C M"
_symmetry_group_IT_number 63
_symmetry_cell_setting 'orthorhombic'
loop_
_space_group_symop_operation_xyz
x,y,z
-x,-y,1/2+z
x,-y,-z
-x,y,1/2-z
-x,-y,-z
x,y,1/2-z
-x,y,z
x,-y,1/2+z
1/2+x,1/2+y,z
1/2-x,1/2-y,1/2+z
1/2+x,1/2-y,-z
1/2-x,1/2+y,1/2-z
1/2-x,1/2-y,-z
1/2+x,1/2+y,1/2-z
1/2-x,1/2+y,z
1/2+x,1/2-y,1/2+z
loop_
_atom_site_type_symbol
_atom_site_label
_atom_site_fract_x
_atom_site_fract_y
_atom_site_fract_z
Si Si1 0.808102 0.759056 0.573495
Si Si2 0.251611 0.599547 0.573033
Si Si3 0.398706 0.249772 0.928233
Si Si4 0.954923 0.406545 0.073323
Si Si5 0.545067 0.406627 0.573358
O O1 0.805834 0.778456 0.750000
O O2 0.786327 0.664006 0.534147
O O3 0.789974 0.846833 0.490775
O O4 0.853315 0.749436 0.513031
O O5 0.246503 0.500000 0.500000
O O6 0.256625 0.586023 0.750000
O O7 0.399384 0.248699 0.750000
O O8 0.422665 0.163682 0.991094
O O9 0.422640 0.336201 0.989817
O O10 0.951630 0.416333 0.250000
O O11 0.000000 0.376424 0.027946
O O12 0.942855 0.500000 0.000000
O O13 0.557322 0.500000 0.500000
O O14 0.548141 0.416602 0.750000
O O15 0.500000 0.376741 0.527288
#
# Coordination Sequence:
#
# PCOD8259123 Si02
#       5
#    16  16  16  16  16
#     4   9  19  35  53  75 100 126 162 204 243 290
#     4  10  20  35  55  75  98 129 161 197 244 295
#     4   9  17  31  51  72  96 127 161 197 238 284
#     4   9  17  30  48  70  97 130 166 200 236 281
#     4   9  17  30  48  69  94 126 162 197 234 278
#
# _framework density 18.200855000000001
#
# number of rings (size 3 to 8) (size 9 to 14) (size 15 to 20)
#    0.000    2.800    0.000    1.200    0.000    4.800 
#    0.000    5.000    0.000    4.800    0.000    0.000 
#    0.000    0.000    0.000    0.000    0.000    0.000 
#
# Total GULP energy -495841.727686 kJ/mol
# GULP energy per Si atom -12396.043192 kJ/mol
# Density = 1.815943 g / cm^3
# Si number density = 18.200855 Si / 1000 Ang^3
#
#
#
# Elastic Constant Matrix: (Units=GPa)
#
#
# Indices 1 2 3 4 5 6 
#
# 1 168.2866 103.2359 31.5406 0.0000 0.0000 0.0000
# 2 103.2359 165.4889 43.7588 0.0000 0.0000 0.0000
# 3 31.5406 43.7588 33.6375 0.0000 0.0000 0.0000
# 4 0.0000 0.0000 0.0000 31.5155 0.0000 0.0000
# 5 0.0000 0.0000 0.0000 0.0000 19.7604 0.0000
# 6 0.0000 0.0000 0.0000 0.0000 0.0000 59.9876
#
#
#
# Elastic Compliance Matrix: (Units=1/GPa)
#
#
# Indices 1 2 3 4 5 6 
#
# 1 0.009702 -0.005559 -0.001865 0.000000 0.000000 0.000000
# 2 -0.005559 0.012397 -0.010914 0.000000 0.000000 0.000000
# 3 -0.001865 -0.010914 0.045676 0.000000 0.000000 0.000000
# 4 0.000000 0.000000 0.000000 0.031730 0.000000 0.000000
# 5 0.000000 0.000000 0.000000 0.000000 0.050606 0.000000
# 6 0.000000 0.000000 0.000000 0.000000 0.000000 0.016670
#
#
# Mechanical properties :
#
#
# Convention : Reuss Voigt Hill
#
# Bulk Modulus (GPa) = 32.15708 80.49817 56.32762
# Shear Modulus (GPa) = 23.38371 34.84456 29.11414
#
# Velocity S-wave (km/s) = 3.58824 4.38019 4.00384
# Velocity P-wave (km/s) = 5.90538 8.36093 7.23805
#
# Compressibility (1/GPa) = 0.03109735
#
# Stress axis : x y z
#
# Youngs Moduli (GPa) = 103.06988 80.66790 21.89344
#
# Poissons Ratio (x) = 0.44845 0.04084
# Poissons Ratio (y) = 0.57298 0.23894
# Poissons Ratio (z) = 0.19227 0.88040
#
# Static dielectric constant tensor:
#      x y z
#    x 3.596190 0.000000 0.000000 
#    y 0.000000 3.449170 0.000000 
#    z 0.000000 0.000000 3.105130 
# 
# 
# High freq. dielectric constant tensor:
#      x y z
#    x 1.708830 0.000000 0.000000 
#    y 0.000000 1.713050 0.000000 
#    z 0.000000 0.000000 1.681120 
# 
# From -- ./inp_files/25666.got.cif
#   From: 2010.03.12/outbox.cif.g09.slc.cpg/sg63_13_cif.got.tgz:25666.got - 2010.04.10 19:34:48.
