data_PCOD8259523
_publ_section_title
;
Structure prediction by ZEFSAII (Michael W. Deem and Ramdas Pophale) SiO2 
 PCOD8259523
Probable space group: C M C M
;
_chemical_formula_sum "Si O2"
_cell_formula_units_Z 64
_cell_length_a 8.984401
_cell_length_b 27.318356
_cell_length_c 13.091575
_cell_angle_alpha 90.000000
_cell_angle_beta 90.000000
_cell_angle_gamma 90.000000
_cell_volume 3213.183927
_symmetry_space_group_name_H-M "C M C M"
_symmetry_group_IT_number 63
_symmetry_cell_setting 'orthorhombic'
loop_
_space_group_symop_operation_xyz
x,y,z
-x,-y,1/2+z
x,-y,-z
-x,y,1/2-z
-x,-y,-z
x,y,1/2-z
-x,y,z
x,-y,1/2+z
1/2+x,1/2+y,z
1/2-x,1/2-y,1/2+z
1/2+x,1/2-y,-z
1/2-x,1/2+y,1/2-z
1/2-x,1/2-y,-z
1/2+x,1/2+y,1/2-z
1/2-x,1/2+y,z
1/2+x,1/2-y,1/2+z
loop_
_atom_site_type_symbol
_atom_site_label
_atom_site_fract_x
_atom_site_fract_y
_atom_site_fract_z
Si Si1 0.676559 0.160009 0.750000
Si Si2 0.174251 0.129071 0.133121
Si Si3 0.839014 0.018428 0.389394
Si Si4 0.322696 0.199217 0.529982
Si Si5 0.673719 0.949015 0.250000
O O1 0.500000 0.158208 0.750000
O O2 0.730847 0.186501 0.854256
O O3 0.745086 0.105208 0.750000
O O4 0.206066 0.146304 0.250000
O O5 0.226613 0.072959 0.120001
O O6 0.000000 0.135278 0.106945
O O7 0.269821 0.159413 0.052258
O O8 0.000000 0.017774 0.332265
O O9 0.868677 0.000000 0.500000
O O10 0.723136 0.979498 0.347368
O O11 0.500000 0.203132 0.525013
O O12 0.250000 0.250000 0.500000
O O13 0.500000 0.942779 0.250000
#
# Coordination Sequence:
#
# PCOD8259523 Si02
#       5
#     8  16  16  16   8
#     4   9  22  43  62  85 124 163 192 247 314 365
#     4  10  21  39  61  89 128 166 200 248 309 360
#     4  10  20  36  59  87 122 164 205 244 293 351
#     4  11  24  43  66  91 119 157 206 253 311 369
#     4  11  21  35  58  87 120 159 200 239 294 355
#
# _framework density 19.917940000000002
#
# number of rings (size 3 to 8) (size 9 to 14) (size 15 to 20)
#    0.000    1.750    1.250    2.625    1.750    2.000 
#    0.000    5.625    0.000    0.000    0.000    0.000 
#    0.000    0.000    0.000    0.000    0.000    0.000 
#
# Total GULP energy -396578.883239 kJ/mol
# GULP energy per Si atom -12393.090101 kJ/mol
# Density = 1.987261 g / cm^3
# Si number density = 19.917940 Si / 1000 Ang^3
#
#
#
# Elastic Constant Matrix: (Units=GPa)
#
#
# Indices 1 2 3 4 5 6 
#
# 1 68.8213 51.1575 46.2933 0.0000 0.0000 0.0000
# 2 51.1575 167.1787 82.4765 0.0000 0.0000 0.0000
# 3 46.2933 82.4765 168.7662 0.0000 0.0000 0.0000
# 4 0.0000 0.0000 0.0000 29.9935 0.0000 0.0000
# 5 0.0000 0.0000 0.0000 0.0000 19.5587 0.0000
# 6 0.0000 0.0000 0.0000 0.0000 0.0000 34.2375
#
#
#
# Elastic Compliance Matrix: (Units=1/GPa)
#
#
# Indices 1 2 3 4 5 6 
#
# 1 0.020119 -0.004525 -0.003307 0.000000 0.000000 0.000000
# 2 -0.004525 0.008900 -0.003108 0.000000 0.000000 0.000000
# 3 -0.003307 -0.003108 0.008352 0.000000 0.000000 0.000000
# 4 0.000000 0.000000 0.000000 0.033341 0.000000 0.000000
# 5 0.000000 0.000000 0.000000 0.000000 0.051128 0.000000
# 6 0.000000 0.000000 0.000000 0.000000 0.000000 0.029208
#
#
# Mechanical properties :
#
#
# Convention : Reuss Voigt Hill
#
# Bulk Modulus (GPa) = 64.56082 84.95788 74.75935
# Shear Modulus (GPa) = 28.07577 31.74718 29.91147
#
# Velocity S-wave (km/s) = 3.75850 3.99670 3.87943
# Velocity P-wave (km/s) = 7.16372 8.00279 7.59485
#
# Compressibility (1/GPa) = 0.01548927
#
# Stress axis : x y z
#
# Youngs Moduli (GPa) = 49.70545 112.36506 119.73872
#
# Poissons Ratio (x) = 0.50842 0.39602
# Poissons Ratio (y) = 0.22490 0.37216
# Poissons Ratio (z) = 0.16439 0.34924
#
# Static dielectric constant tensor:
#      x y z
#    x 3.446570 0.000000 0.000000 
#    y 0.000000 3.766450 0.000000 
#    z 0.000000 0.000000 3.907490 
# 
# 
# High freq. dielectric constant tensor:
#      x y z
#    x 1.758840 0.000000 0.000000 
#    y 0.000000 1.786490 0.000000 
#    z 0.000000 0.000000 1.797940 
# 
# From -- ./inp_files/16229.got.cif
#   From: 2010.03.12/outbox.cif.g09.slc.cpg/sg63_9_cif.got.tgz:16229.got - 2010.04.10 19:34:48.
