data_PCOD8259307
_publ_section_title
;
Structure prediction by ZEFSAII (Michael W. Deem and Ramdas Pophale) SiO2 
 PCOD8259307
Probable space group: C M C M
;
_chemical_formula_sum "Si O2"
_cell_formula_units_Z 96
_cell_length_a 22.942222
_cell_length_b 11.539817
_cell_length_c 19.724967
_cell_angle_alpha 90.000000
_cell_angle_beta 90.000000
_cell_angle_gamma 90.000000
_cell_volume 5222.166145
_symmetry_space_group_name_H-M "C M C M"
_symmetry_group_IT_number 63
_symmetry_cell_setting 'orthorhombic'
loop_
_space_group_symop_operation_xyz
x,y,z
-x,-y,1/2+z
x,-y,-z
-x,y,1/2-z
-x,-y,-z
x,y,1/2-z
-x,y,z
x,-y,1/2+z
1/2+x,1/2+y,z
1/2-x,1/2-y,1/2+z
1/2+x,1/2-y,-z
1/2-x,1/2+y,1/2-z
1/2-x,1/2-y,-z
1/2+x,1/2+y,1/2-z
1/2-x,1/2+y,z
1/2+x,1/2-y,1/2+z
loop_
_atom_site_type_symbol
_atom_site_label
_atom_site_fract_x
_atom_site_fract_y
_atom_site_fract_z
Si Si1 0.294792 0.786223 0.590405
Si Si2 0.365056 0.010390 0.922030
Si Si3 0.933576 0.384918 0.822464
Si Si4 0.878930 0.852368 0.170032
Si Si5 0.568327 0.450624 0.924812
Si Si6 0.833229 0.763314 0.939989
O O1 0.314406 0.688776 0.645401
O O2 0.225792 0.808808 0.594643
O O3 0.320535 0.738465 0.519838
O O4 0.318731 0.915010 0.603326
O O5 0.341026 0.136952 0.907946
O O6 0.421266 0.986445 0.876155
O O7 0.383075 0.000000 0.000000
O O8 0.900534 0.404716 0.750000
O O9 0.918920 0.257085 0.850399
O O10 0.000000 0.389711 0.806835
O O11 0.878525 0.881456 0.250000
O O12 0.905416 0.961324 0.130246
O O13 0.500000 0.421720 0.908164
O O14 0.609308 0.337022 0.921936
O O15 0.573232 0.500000 0.000000
#
# Coordination Sequence:
#
# PCOD8259307 Si02
#       6
#    16  16  16  16  16  16
#     4   9  19  35  59  85 111 150 195 239 292 348
#     4   9  19  33  51  84 110 138 182 231 282 337
#     4   9  18  34  56  78 106 148 189 226 271 329
#     4  10  20  38  60  85 115 152 200 246 289 345
#     4  11  23  37  57  87 124 163 203 245 295 357
#     4  10  20  35  59  84 118 150 187 241 297 352
#
# _framework density 18.383177
#
# number of rings (size 3 to 8) (size 9 to 14) (size 15 to 20)
#    0.000    2.333    1.667    0.500    2.333    2.667 
#    0.000    2.500    0.000    0.000    0.000    0.000 
#    0.000    0.000    0.000    0.000    0.000    0.000 
#
# Total GULP energy -594715.442172 kJ/mol
# GULP energy per Si atom -12389.905045 kJ/mol
# Density = 1.834134 g / cm^3
# Si number density = 18.383177 Si / 1000 Ang^3
#
#
#
# Elastic Constant Matrix: (Units=GPa)
#
#
# Indices 1 2 3 4 5 6 
#
# 1 117.2590 52.8817 31.1765 0.0000 0.0000 0.0000
# 2 52.8817 104.1173 46.4915 0.0000 0.0000 0.0000
# 3 31.1765 46.4915 68.7754 0.0000 0.0000 0.0000
# 4 0.0000 0.0000 0.0000 25.0992 0.0000 0.0000
# 5 0.0000 0.0000 0.0000 0.0000 17.7310 0.0000
# 6 0.0000 0.0000 0.0000 0.0000 0.0000 22.7045
#
#
#
# Elastic Compliance Matrix: (Units=1/GPa)
#
#
# Indices 1 2 3 4 5 6 
#
# 1 0.011210 -0.004905 -0.001766 0.000000 0.000000 0.000000
# 2 -0.004905 0.015903 -0.008527 0.000000 0.000000 0.000000
# 3 -0.001766 -0.008527 0.021105 0.000000 0.000000 0.000000
# 4 0.000000 0.000000 0.000000 0.039842 0.000000 0.000000
# 5 0.000000 0.000000 0.000000 0.000000 0.056398 0.000000
# 6 0.000000 0.000000 0.000000 0.000000 0.000000 0.044044
#
#
# Mechanical properties :
#
#
# Convention : Reuss Voigt Hill
#
# Bulk Modulus (GPa) = 56.10972 61.25012 58.67992
# Shear Modulus (GPa) = 22.23819 23.74708 22.99264
#
# Velocity S-wave (km/s) = 3.48185 3.59804 3.54042
# Velocity P-wave (km/s) = 6.83761 7.11703 6.97872
#
# Compressibility (1/GPa) = 0.01782222
#
# Stress axis : x y z
#
# Youngs Moduli (GPa) = 89.20881 62.87960 47.38279
#
# Poissons Ratio (x) = 0.30842 0.08366
# Poissons Ratio (y) = 0.43757 0.40404
# Poissons Ratio (z) = 0.15752 0.53618
#
# Static dielectric constant tensor:
#      x y z
#    x 3.508050 0.000000 0.000000 
#    y 0.000000 3.355870 0.000000 
#    z 0.000000 0.000000 3.538710 
# 
# 
# High freq. dielectric constant tensor:
#      x y z
#    x 1.709830 0.000000 0.000000 
#    y 0.000000 1.706610 0.000000 
#    z 0.000000 0.000000 1.705210 
# 
# From -- ./inp_files/57498.got.cif
#   From: 2010.03.12/outbox.cif.g09.slc.cpg/sg63_29_cif.got.tgz:57498.got - 2010.04.10 19:34:48.
