data_PCOD8259083
_publ_section_title
;
Structure prediction by ZEFSAII (Michael W. Deem and Ramdas Pophale) SiO2 
 PCOD8259083
Probable space group: C M C M
;
_chemical_formula_sum "Si O2"
_cell_formula_units_Z 96
_cell_length_a 18.329084
_cell_length_b 16.221950
_cell_length_c 18.164339
_cell_angle_alpha 90.000000
_cell_angle_beta 90.000000
_cell_angle_gamma 90.000000
_cell_volume 5400.866203
_symmetry_space_group_name_H-M "C M C M"
_symmetry_group_IT_number 63
_symmetry_cell_setting 'orthorhombic'
loop_
_space_group_symop_operation_xyz
x,y,z
-x,-y,1/2+z
x,-y,-z
-x,y,1/2-z
-x,-y,-z
x,y,1/2-z
-x,y,z
x,-y,1/2+z
1/2+x,1/2+y,z
1/2-x,1/2-y,1/2+z
1/2+x,1/2-y,-z
1/2-x,1/2+y,1/2-z
1/2-x,1/2-y,-z
1/2+x,1/2+y,1/2-z
1/2-x,1/2+y,z
1/2+x,1/2-y,1/2+z
loop_
_atom_site_type_symbol
_atom_site_label
_atom_site_fract_x
_atom_site_fract_y
_atom_site_fract_z
Si Si1 0.584211 0.823266 0.602921
Si Si2 0.916655 0.502588 0.335795
Si Si3 0.330695 0.841070 0.164940
Si Si4 0.914059 0.915842 0.035109
Si Si5 0.339727 0.666945 0.834468
Si Si6 0.916733 0.246104 0.450308
O O1 0.500000 0.807944 0.625797
O O2 0.609020 0.915770 0.621380
O O3 0.633287 0.759169 0.648193
O O4 0.594441 0.811891 0.515740
O O5 0.908581 0.521648 0.250000
O O6 0.864729 0.428137 0.360653
O O7 0.000000 0.479112 0.355950
O O8 0.349020 0.824302 0.250000
O O9 0.245535 0.840158 0.149079
O O10 0.366549 0.767736 0.118606
O O11 0.879031 0.900868 0.114947
O O12 0.000000 0.918720 0.047858
O O13 0.892240 0.843198 0.979410
O O14 0.884069 0.000000 0.000000
O O15 0.357209 0.645333 0.750000
O O16 0.000000 0.244836 0.423253
#
# Coordination Sequence:
#
# PCOD8259083 Si02
#       6
#    16  16  16  16  16  16
#     4   9  18  32  54  81 101 127 172 222 268 310
#     4   9  17  31  51  74 104 139 173 213 258 308
#     4  10  21  35  48  73 110 144 175 207 256 320
#     4   9  19  37  57  78 104 134 175 224 267 309
#     4  10  20  35  53  77 107 137 173 217 265 317
#     4   9  18  34  55  76 101 135 174 218 259 305
#
# _framework density 17.774926000000001
#
# number of rings (size 3 to 8) (size 9 to 14) (size 15 to 20)
#    0.000    2.667    0.000    2.500    0.000    6.333 
#    6.000    3.333    0.000    3.000    0.000    0.000 
#    0.000    0.000    0.000    0.000    0.000    0.000 
#
# Total GULP energy -595293.997812 kJ/mol
# GULP energy per Si atom -12401.958288 kJ/mol
# Density = 1.773447 g / cm^3
# Si number density = 17.774926 Si / 1000 Ang^3
#
#
#
# Elastic Constant Matrix: (Units=GPa)
#
#
# Indices 1 2 3 4 5 6 
#
# 1 81.3639 60.0820 52.0487 0.0000 0.0000 0.0000
# 2 60.0820 119.6769 66.4451 0.0000 0.0000 0.0000
# 3 52.0487 66.4451 96.6407 0.0000 0.0000 0.0000
# 4 0.0000 0.0000 0.0000 26.5840 0.0000 0.0000
# 5 0.0000 0.0000 0.0000 0.0000 28.0127 0.0000
# 6 0.0000 0.0000 0.0000 0.0000 0.0000 13.9224
#
#
#
# Elastic Compliance Matrix: (Units=1/GPa)
#
#
# Indices 1 2 3 4 5 6 
#
# 1 0.022049 -0.007240 -0.006897 0.000000 0.000000 0.000000
# 2 -0.007240 0.015892 -0.007027 0.000000 0.000000 0.000000
# 3 -0.006897 -0.007027 0.018894 0.000000 0.000000 0.000000
# 4 0.000000 0.000000 0.000000 0.037617 0.000000 0.000000
# 5 0.000000 0.000000 0.000000 0.000000 0.035698 0.000000
# 6 0.000000 0.000000 0.000000 0.000000 0.000000 0.071827
#
#
# Mechanical properties :
#
#
# Convention : Reuss Voigt Hill
#
# Bulk Modulus (GPa) = 68.93737 72.75926 70.84831
# Shear Modulus (GPa) = 20.06895 21.64418 20.85657
#
# Velocity S-wave (km/s) = 3.36379 3.49331 3.42917
# Velocity P-wave (km/s) = 7.34537 7.56925 7.45815
#
# Compressibility (1/GPa) = 0.01450592
#
# Stress axis : x y z
#
# Youngs Moduli (GPa) = 45.35371 62.92423 52.92696
#
# Poissons Ratio (x) = 0.45557 0.36505
# Poissons Ratio (y) = 0.32836 0.37193
# Poissons Ratio (z) = 0.31282 0.44219
#
# Static dielectric constant tensor:
#      x y z
#    x 3.236480 0.000000 0.000000 
#    y 0.000000 3.336390 0.000000 
#    z 0.000000 0.000000 3.250420 
# 
# 
# High freq. dielectric constant tensor:
#      x y z
#    x 1.681550 0.000000 0.000000 
#    y 0.000000 1.683900 0.000000 
#    z 0.000000 0.000000 1.686580 
# 
# From -- ./inp_files/47252.got.cif
#   From: 2010.03.12/outbox.cif.g09.slc.cpg/sg63_24_cif.got.tgz:47252.got - 2010.04.10 19:34:48.
