data_PCOD8259491
_publ_section_title
;
Structure prediction by ZEFSAII (Michael W. Deem and Ramdas Pophale) SiO2 
 PCOD8259491
Probable space group: C M C M
;
_chemical_formula_sum "Si O2"
_cell_formula_units_Z 96
_cell_length_a 27.920711
_cell_length_b 10.393633
_cell_length_c 16.233297
_cell_angle_alpha 90.000000
_cell_angle_beta 90.000000
_cell_angle_gamma 90.000000
_cell_volume 4710.864207
_symmetry_space_group_name_H-M "C M C M"
_symmetry_group_IT_number 63
_symmetry_cell_setting 'orthorhombic'
loop_
_space_group_symop_operation_xyz
x,y,z
-x,-y,1/2+z
x,-y,-z
-x,y,1/2-z
-x,-y,-z
x,y,1/2-z
-x,y,z
x,-y,1/2+z
1/2+x,1/2+y,z
1/2-x,1/2-y,1/2+z
1/2+x,1/2-y,-z
1/2-x,1/2+y,1/2-z
1/2-x,1/2-y,-z
1/2+x,1/2+y,1/2-z
1/2-x,1/2+y,z
1/2+x,1/2-y,1/2+z
loop_
_atom_site_type_symbol
_atom_site_label
_atom_site_fract_x
_atom_site_fract_y
_atom_site_fract_z
Si Si1 0.446341 0.699915 0.846327
Si Si2 0.847283 0.131900 0.904578
Si Si3 0.051226 0.502435 0.152884
Si Si4 0.789978 0.633404 0.344887
Si Si5 0.312413 0.641864 0.090028
Si Si6 0.852292 0.399401 0.154430
O O1 0.437814 0.674208 0.750000
O O2 0.500000 0.651890 0.871181
O O3 0.405153 0.626471 0.897920
O O4 0.440791 0.849031 0.867879
O O5 0.826383 0.246551 0.848968
O O6 0.827407 0.995467 0.871882
O O7 0.830136 0.155060 0.997212
O O8 0.048933 0.482642 0.250000
O O9 0.095108 0.421327 0.113825
O O10 0.000000 0.456031 0.115123
O O11 0.773490 0.617147 0.250000
O O12 0.744629 0.658584 0.403384
O O13 0.814763 0.504036 0.380884
O O14 0.336592 0.754225 0.142195
O O15 0.856482 0.432109 0.250000
#
# Coordination Sequence:
#
# PCOD8259491 Si02
#       6
#    16  16  16  16  16  16
#     4   9  17  34  63  91 111 142 195 246 281 332
#     4  11  23  41  58  82 119 160 195 228 286 350
#     4   8  14  29  55  85 112 137 176 234 290 335
#     4  11  22  39  63  85 108 149 202 245 284 340
#     4  11  25  38  53  82 121 160 191 234 287 340
#     4  10  20  36  58  87 114 144 190 246 297 336
#
# _framework density 20.378426999999999
#
# number of rings (size 3 to 8) (size 9 to 14) (size 15 to 20)
#    0.000    2.000    1.667    3.500    0.000    6.000 
#    0.000    3.333    0.000    4.000    0.000    0.000 
#    0.000    0.000    0.000    0.000    0.000    0.000 
#
# Total GULP energy -595047.699874 kJ/mol
# GULP energy per Si atom -12396.827081 kJ/mol
# Density = 2.033204 g / cm^3
# Si number density = 20.378427 Si / 1000 Ang^3
#
#
#
# Elastic Constant Matrix: (Units=GPa)
#
#
# Indices 1 2 3 4 5 6 
#
# 1 182.5109 50.6660 36.5390 0.0000 0.0000 0.0000
# 2 50.6660 107.9178 11.0546 0.0000 0.0000 0.0000
# 3 36.5390 11.0546 43.4401 0.0000 0.0000 0.0000
# 4 0.0000 0.0000 0.0000 18.9169 0.0000 0.0000
# 5 0.0000 0.0000 0.0000 0.0000 12.1682 0.0000
# 6 0.0000 0.0000 0.0000 0.0000 0.0000 8.6968
#
#
#
# Elastic Compliance Matrix: (Units=1/GPa)
#
#
# Indices 1 2 3 4 5 6 
#
# 1 0.007380 -0.002905 -0.005469 0.000000 0.000000 0.000000
# 2 -0.002905 0.010658 -0.000269 0.000000 0.000000 0.000000
# 3 -0.005469 -0.000269 0.027688 0.000000 0.000000 0.000000
# 4 0.000000 0.000000 0.000000 0.052863 0.000000 0.000000
# 5 0.000000 0.000000 0.000000 0.000000 0.082181 0.000000
# 6 0.000000 0.000000 0.000000 0.000000 0.000000 0.114985
#
#
# Mechanical properties :
#
#
# Convention : Reuss Voigt Hill
#
# Bulk Modulus (GPa) = 35.15941 58.93202 47.04572
# Shear Modulus (GPa) = 15.50286 23.66364 19.58325
#
# Velocity S-wave (km/s) = 2.76116 3.41135 3.10333
# Velocity P-wave (km/s) = 5.23985 6.67068 5.99809
#
# Compressibility (1/GPa) = 0.02844188
#
# Stress axis : x y z
#
# Youngs Moduli (GPa) = 135.49497 93.82963 36.11611
#
# Poissons Ratio (x) = 0.27256 0.19751
# Poissons Ratio (y) = 0.39358 0.00971
# Poissons Ratio (z) = 0.74098 0.02522
#
# Static dielectric constant tensor:
#      x y z
#    x 3.907030 0.000000 0.000000 
#    y 0.000000 3.630140 0.000000 
#    z 0.000000 0.000000 3.242540 
# 
# 
# High freq. dielectric constant tensor:
#      x y z
#    x 1.818580 0.000000 0.000000 
#    y 0.000000 1.783380 0.000000 
#    z 0.000000 0.000000 1.763690 
# 
# From -- ./inp_files/58068.got.cif
#   From: 2010.03.12/outbox.cif.g09.slc.cpg/sg63_30_cif.got.tgz:58068.got - 2010.04.10 19:34:48.
