data_PCOD8259327
_publ_section_title
;
Structure prediction by ZEFSAII (Michael W. Deem and Ramdas Pophale) SiO2 
 PCOD8259327
Probable space group: C M C M
;
_chemical_formula_sum "Si O2"
_cell_formula_units_Z 88
_cell_length_a 15.680958
_cell_length_b 15.607628
_cell_length_c 18.596038
_cell_angle_alpha 90.000000
_cell_angle_beta 90.000000
_cell_angle_gamma 90.000000
_cell_volume 4551.241930
_symmetry_space_group_name_H-M "C M C M"
_symmetry_group_IT_number 63
_symmetry_cell_setting 'orthorhombic'
loop_
_space_group_symop_operation_xyz
x,y,z
-x,-y,1/2+z
x,-y,-z
-x,y,1/2-z
-x,-y,-z
x,y,1/2-z
-x,y,z
x,-y,1/2+z
1/2+x,1/2+y,z
1/2-x,1/2-y,1/2+z
1/2+x,1/2-y,-z
1/2-x,1/2+y,1/2-z
1/2-x,1/2-y,-z
1/2+x,1/2+y,1/2-z
1/2-x,1/2+y,z
1/2+x,1/2-y,1/2+z
loop_
_atom_site_type_symbol
_atom_site_label
_atom_site_fract_x
_atom_site_fract_y
_atom_site_fract_z
Si Si1 0.357685 0.805554 0.039330
Si Si2 0.000000 0.555016 0.331931
Si Si3 0.329059 0.541302 0.887688
Si Si4 0.204831 0.876085 0.529652
Si Si5 0.500000 0.776694 0.572686
Si Si6 0.856817 0.581983 0.667705
Si Si7 0.000000 0.108905 0.830922
O O1 0.307748 0.719015 0.060897
O O2 0.393538 0.845290 0.113540
O O3 0.301515 0.879266 0.000580
O O4 0.422449 0.773277 0.981000
O O5 0.913267 0.502250 0.347893
O O6 0.000000 0.586392 0.250000
O O7 0.000000 0.637490 0.381426
O O8 0.312894 0.441799 0.906226
O O9 0.244738 0.570920 0.844525
O O10 0.415216 0.551019 0.841689
O O11 0.349403 0.596887 0.959305
O O12 0.500000 0.694011 0.622051
O O13 0.871426 0.611777 0.750000
O O14 0.000000 0.142055 0.750000
#
# Coordination Sequence:
#
# PCOD8259327 Si02
#       7
#    16   8  16  16   8  16   8
#     4  10  20  35  59  91 119 148 195 248 291 358
#     4  10  22  39  60  87 119 153 195 241 299 372
#     4  10  20  38  60  83 117 161 196 244 290 352
#     4   9  19  36  59  87 115 147 201 241 288 343
#     4  12  22  37  60  89 117 153 199 252 308 348
#     4  10  21  39  59  85 121 158 192 243 306 358
#     4  12  25  39  56  85 123 162 205 251 301 359
#
# _framework density 19.335381999999999
#
# number of rings (size 3 to 8) (size 9 to 14) (size 15 to 20)
#    0.000    1.818    1.818    2.455    0.000    5.091 
#    0.000    1.818    0.000    1.091    0.000    0.000 
#    0.000    0.000    0.000    0.000    0.000    0.000 
#
# Total GULP energy -545229.116490 kJ/mol
# GULP energy per Si atom -12391.570829 kJ/mol
# Density = 1.929137 g / cm^3
# Si number density = 19.335382 Si / 1000 Ang^3
#
#
#
# Elastic Constant Matrix: (Units=GPa)
#
#
# Indices 1 2 3 4 5 6 
#
# 1 92.2604 26.5814 31.3884 0.0000 0.0000 0.0000
# 2 26.5814 104.3425 55.6350 0.0000 0.0000 0.0000
# 3 31.3884 55.6350 116.2893 0.0000 0.0000 0.0000
# 4 0.0000 0.0000 0.0000 10.8577 0.0000 0.0000
# 5 0.0000 0.0000 0.0000 0.0000 20.5830 0.0000
# 6 0.0000 0.0000 0.0000 0.0000 0.0000 22.8677
#
#
#
# Elastic Compliance Matrix: (Units=1/GPa)
#
#
# Indices 1 2 3 4 5 6 
#
# 1 0.012185 -0.001813 -0.002422 0.000000 0.000000 0.000000
# 2 -0.001813 0.013136 -0.005795 0.000000 0.000000 0.000000
# 3 -0.002422 -0.005795 0.012025 0.000000 0.000000 0.000000
# 4 0.000000 0.000000 0.000000 0.092100 0.000000 0.000000
# 5 0.000000 0.000000 0.000000 0.000000 0.048584 0.000000
# 6 0.000000 0.000000 0.000000 0.000000 0.000000 0.043730
#
#
# Mechanical properties :
#
#
# Convention : Reuss Voigt Hill
#
# Bulk Modulus (GPa) = 57.84735 60.01131 58.92933
# Shear Modulus (GPa) = 20.19539 24.14751 22.17145
#
# Velocity S-wave (km/s) = 3.23535 3.53778 3.38994
# Velocity P-wave (km/s) = 6.62868 6.91319 6.77243
#
# Compressibility (1/GPa) = 0.01728688
#
# Stress axis : x y z
#
# Youngs Moduli (GPa) = 82.06748 76.12946 83.15823
#
# Poissons Ratio (x) = 0.13802 0.20137
# Poissons Ratio (y) = 0.14879 0.48190
# Poissons Ratio (z) = 0.19873 0.44116
#
# Static dielectric constant tensor:
#      x y z
#    x 3.528980 0.000000 0.000000 
#    y 0.000000 3.411520 0.000000 
#    z 0.000000 0.000000 3.534780 
# 
# 
# High freq. dielectric constant tensor:
#      x y z
#    x 1.755180 0.000000 0.000000 
#    y 0.000000 1.747210 0.000000 
#    z 0.000000 0.000000 1.748160 
# 
# From -- ./inp_files/45574.got.cif
#   From: 2010.03.12/outbox.cif.g09.slc.cpg/sg63_23_cif.got.tgz:45574.got - 2010.04.10 19:34:48.
