data_PCOD8259441
_publ_section_title
;
Structure prediction by ZEFSAII (Michael W. Deem and Ramdas Pophale) SiO2 
 PCOD8259441
Probable space group: C M C M
;
_chemical_formula_sum "Si O2"
_cell_formula_units_Z 80
_cell_length_a 8.963449
_cell_length_b 25.572266
_cell_length_c 17.971430
_cell_angle_alpha 90.000000
_cell_angle_beta 90.000000
_cell_angle_gamma 90.000000
_cell_volume 4119.333945
_symmetry_space_group_name_H-M "C M C M"
_symmetry_group_IT_number 63
_symmetry_cell_setting 'orthorhombic'
loop_
_space_group_symop_operation_xyz
x,y,z
-x,-y,1/2+z
x,-y,-z
-x,y,1/2-z
-x,-y,-z
x,y,1/2-z
-x,y,z
x,-y,1/2+z
1/2+x,1/2+y,z
1/2-x,1/2-y,1/2+z
1/2+x,1/2-y,-z
1/2-x,1/2+y,1/2-z
1/2-x,1/2-y,-z
1/2+x,1/2+y,1/2-z
1/2-x,1/2+y,z
1/2+x,1/2-y,1/2+z
loop_
_atom_site_type_symbol
_atom_site_label
_atom_site_fract_x
_atom_site_fract_y
_atom_site_fract_z
Si Si1 0.172206 0.758746 0.835623
Si Si2 0.323583 0.145416 0.093013
Si Si3 0.174759 0.952377 0.835959
Si Si4 0.672917 0.940408 0.336197
Si Si5 0.676653 0.159518 0.575312
O O1 0.190730 0.742700 0.750000
O O2 0.264475 0.811014 0.850713
O O3 0.239491 0.711597 0.885054
O O4 0.000000 0.769964 0.855224
O O5 0.500000 0.141939 0.099128
O O6 0.256854 0.089586 0.113359
O O7 0.270853 0.159882 0.009878
O O8 0.213928 0.941288 0.750000
O O9 0.000000 0.949219 0.850859
O O10 0.233035 0.009130 0.859971
O O11 0.695933 0.926486 0.250000
O O12 0.500000 0.951569 0.354104
O O13 0.737927 0.892127 0.383672
O O14 0.500000 0.159612 0.583664
#
# Coordination Sequence:
#
# PCOD8259441 Si02
#       5
#    16  16  16  16  16
#     4  10  20  36  58  80 104 137 176 216 259 310
#     4  11  22  35  53  78 109 141 174 215 260 309
#     4  10  21  37  55  76 105 140 177 217 261 309
#     4   9  17  33  58  82 103 133 176 220 258 304
#     4   9  19  35  55  80 108 138 172 212 262 315
#
# _framework density 19.420615000000002
#
# number of rings (size 3 to 8) (size 9 to 14) (size 15 to 20)
#    0.000    2.200    0.000    3.000    0.000    7.200 
#    0.000    8.000    0.000    2.400    0.000    0.000 
#    0.000    0.000    0.000    0.000    0.000    0.000 
#
# Total GULP energy -496172.908978 kJ/mol
# GULP energy per Si atom -12404.322724 kJ/mol
# Density = 1.937641 g / cm^3
# Si number density = 19.420615 Si / 1000 Ang^3
#
#
#
# Elastic Constant Matrix: (Units=GPa)
#
#
# Indices 1 2 3 4 5 6 
#
# 1 57.1853 33.4135 28.1683 0.0000 0.0000 0.0000
# 2 33.4135 114.5708 37.4184 0.0000 0.0000 0.0000
# 3 28.1683 37.4184 70.5936 0.0000 0.0000 0.0000
# 4 0.0000 0.0000 0.0000 35.0507 0.0000 0.0000
# 5 0.0000 0.0000 0.0000 0.0000 22.6605 0.0000
# 6 0.0000 0.0000 0.0000 0.0000 0.0000 29.4325
#
#
#
# Elastic Compliance Matrix: (Units=1/GPa)
#
#
# Indices 1 2 3 4 5 6 
#
# 1 0.023619 -0.004608 -0.006982 0.000000 0.000000 0.000000
# 2 -0.004608 0.011454 -0.004233 0.000000 0.000000 0.000000
# 3 -0.006982 -0.004233 0.019195 0.000000 0.000000 0.000000
# 4 0.000000 0.000000 0.000000 0.028530 0.000000 0.000000
# 5 0.000000 0.000000 0.000000 0.000000 0.044130 0.000000
# 6 0.000000 0.000000 0.000000 0.000000 0.000000 0.033976
#
#
# Mechanical properties :
#
#
# Convention : Reuss Voigt Hill
#
# Bulk Modulus (GPa) = 44.20286 48.92779 46.56532
# Shear Modulus (GPa) = 24.98872 26.98536 25.98704
#
# Velocity S-wave (km/s) = 3.59097 3.73167 3.66200
# Velocity P-wave (km/s) = 6.32484 6.61934 6.47376
#
# Compressibility (1/GPa) = 0.02262297
#
# Stress axis : x y z
#
# Youngs Moduli (GPa) = 42.33965 87.30194 52.09653
#
# Poissons Ratio (x) = 0.40228 0.36373
# Poissons Ratio (y) = 0.19510 0.22052
# Poissons Ratio (z) = 0.29561 0.36954
#
# Static dielectric constant tensor:
#      x y z
#    x 3.311920 0.000000 0.000000 
#    y 0.000000 3.641250 0.000000 
#    z 0.000000 0.000000 3.590660 
# 
# 
# High freq. dielectric constant tensor:
#      x y z
#    x 1.733590 0.000000 0.000000 
#    y 0.000000 1.770930 0.000000 
#    z 0.000000 0.000000 1.758470 
# 
# From -- ./inp_files/40464.got.cif
#   From: 2010.03.12/outbox.cif.g09.slc.cpg/sg63_21_cif.got.tgz:40464.got - 2010.04.10 19:34:48.
