data_PCOD8259955
_publ_section_title
;
Structure prediction by ZEFSAII (Michael W. Deem and Ramdas Pophale) SiO2 
 PCOD8259955
Probable space group: C M C M
;
_chemical_formula_sum "Si O2"
_cell_formula_units_Z 72
_cell_length_a 9.142455
_cell_length_b 14.860364
_cell_length_c 23.905249
_cell_angle_alpha 90.000000
_cell_angle_beta 90.000000
_cell_angle_gamma 90.000000
_cell_volume 3247.772129
_symmetry_space_group_name_H-M "C M C M"
_symmetry_group_IT_number 63
_symmetry_cell_setting 'orthorhombic'
loop_
_space_group_symop_operation_xyz
x,y,z
-x,-y,1/2+z
x,-y,-z
-x,y,1/2-z
-x,-y,-z
x,y,1/2-z
-x,y,z
x,-y,1/2+z
1/2+x,1/2+y,z
1/2-x,1/2-y,1/2+z
1/2+x,1/2-y,-z
1/2-x,1/2+y,1/2-z
1/2-x,1/2-y,-z
1/2+x,1/2+y,1/2-z
1/2-x,1/2+y,z
1/2+x,1/2-y,1/2+z
loop_
_atom_site_type_symbol
_atom_site_label
_atom_site_fract_x
_atom_site_fract_y
_atom_site_fract_z
Si Si1 0.824517 0.643256 0.843164
Si Si2 0.657105 0.184308 0.964944
Si Si3 0.330634 0.814905 0.812147
Si Si4 0.667666 0.468807 0.625161
Si Si5 0.243505 0.500000 0.500000
O O1 0.776605 0.677324 0.903988
O O2 0.746886 0.716938 0.804382
O O3 0.754828 0.543947 0.838517
O O4 0.000000 0.637253 0.833165
O O5 0.500000 0.229971 0.961460
O O6 0.750000 0.250000 0.000000
O O7 0.642144 0.086637 0.993005
O O8 0.323021 0.858780 0.750000
O O9 0.500000 0.804087 0.831107
O O10 0.244940 0.874776 0.858062
O O11 0.500000 0.466552 0.645294
O O12 0.665495 0.485338 0.557747
#
# Coordination Sequence:
#
# PCOD8259955 Si02
#       5
#    16  16  16  16   8
#     4  10  22  40  61  87 119 156 200 248 300 359
#     4  10  21  35  55  84 118 157 198 241 292 352
#     4  11  25  44  65  90 121 159 206 260 315 371
#     4  11  23  40  64  94 128 166 208 254 308 370
#     4  10  22  38  60  90 128 166 204 248 302 366
#
# _framework density 22.169042000000001
#
# number of rings (size 3 to 8) (size 9 to 14) (size 15 to 20)
#    0.000    1.556    0.000    4.000    0.000   14.222 
#    0.000    0.000    0.000    0.000    0.000    0.000 
#    0.000    0.000    0.000    0.000    0.000    0.000 
#
# Total GULP energy -446080.266928 kJ/mol
# GULP energy per Si atom -12391.118526 kJ/mol
# Density = 2.211858 g / cm^3
# Si number density = 22.169042 Si / 1000 Ang^3
#
#
#
# Elastic Constant Matrix: (Units=GPa)
#
#
# Indices 1 2 3 4 5 6 
#
# 1 142.5252 40.5249 26.4742 0.0000 0.0000 0.0000
# 2 40.5249 103.1910 27.6904 0.0000 0.0000 0.0000
# 3 26.4742 27.6904 75.3783 0.0000 0.0000 0.0000
# 4 0.0000 0.0000 0.0000 31.7734 0.0000 0.0000
# 5 0.0000 0.0000 0.0000 0.0000 18.8049 0.0000
# 6 0.0000 0.0000 0.0000 0.0000 0.0000 39.0747
#
#
#
# Elastic Compliance Matrix: (Units=1/GPa)
#
#
# Indices 1 2 3 4 5 6 
#
# 1 0.008128 -0.002691 -0.001866 0.000000 0.000000 0.000000
# 2 -0.002691 0.011642 -0.003331 0.000000 0.000000 0.000000
# 3 -0.001866 -0.003331 0.015146 0.000000 0.000000 0.000000
# 4 0.000000 0.000000 0.000000 0.031473 0.000000 0.000000
# 5 0.000000 0.000000 0.000000 0.000000 0.053178 0.000000
# 6 0.000000 0.000000 0.000000 0.000000 0.000000 0.025592
#
#
# Mechanical properties :
#
#
# Convention : Reuss Voigt Hill
#
# Bulk Modulus (GPa) = 52.25240 56.71929 54.48584
# Shear Modulus (GPa) = 29.88380 33.02426 31.45403
#
# Velocity S-wave (km/s) = 3.67549 3.86379 3.77082
# Velocity P-wave (km/s) = 6.45240 6.74875 6.60224
#
# Compressibility (1/GPa) = 0.01913788
#
# Stress axis : x y z
#
# Youngs Moduli (GPa) = 123.02890 85.89855 66.02579
#
# Poissons Ratio (x) = 0.23118 0.12321
# Poissons Ratio (y) = 0.33111 0.21995
# Poissons Ratio (z) = 0.22958 0.28616
#
# Static dielectric constant tensor:
#      x y z
#    x 2.674990 0.000000 0.000000 
#    y 0.000000 4.049410 0.000000 
#    z 0.000000 0.000000 3.916090 
# 
# 
# High freq. dielectric constant tensor:
#      x y z
#    x 1.872990 0.000000 0.000000 
#    y 0.000000 1.880320 0.000000 
#    z 0.000000 0.000000 1.868430 
# 
# From -- ./inp_files/66355.got.cif
#   From: 2010.03.12/outbox.cif.g09.slc.cpg/sg63_34_cif.got.tgz:66355.got - 2010.04.10 19:34:48.
