data_PCOD8259399
_publ_section_title
;
Structure prediction by ZEFSAII (Michael W. Deem and Ramdas Pophale) SiO2 
 PCOD8259399
Probable space group: C M C M
;
_chemical_formula_sum "Si O2"
_cell_formula_units_Z 80
_cell_length_a 8.916577
_cell_length_b 29.548764
_cell_length_c 16.085487
_cell_angle_alpha 90.000000
_cell_angle_beta 90.000000
_cell_angle_gamma 90.000000
_cell_volume 4238.104859
_symmetry_space_group_name_H-M "C M C M"
_symmetry_group_IT_number 63
_symmetry_cell_setting 'orthorhombic'
loop_
_space_group_symop_operation_xyz
x,y,z
-x,-y,1/2+z
x,-y,-z
-x,y,1/2-z
-x,-y,-z
x,y,1/2-z
-x,y,z
x,-y,1/2+z
1/2+x,1/2+y,z
1/2-x,1/2-y,1/2+z
1/2+x,1/2-y,-z
1/2-x,1/2+y,1/2-z
1/2-x,1/2-y,-z
1/2+x,1/2+y,1/2-z
1/2-x,1/2+y,z
1/2+x,1/2-y,1/2+z
loop_
_atom_site_type_symbol
_atom_site_label
_atom_site_fract_x
_atom_site_fract_y
_atom_site_fract_z
Si Si1 0.677364 0.897047 0.250000
Si Si2 0.322978 0.544142 0.890595
Si Si3 0.322423 0.445458 0.922176
Si Si4 0.677372 0.738646 0.087679
Si Si5 0.321916 0.644453 0.341787
Si Si6 0.678051 0.206680 0.750000
O O1 0.500000 0.898304 0.250000
O O2 0.736297 0.922189 0.168952
O O3 0.734670 0.845159 0.250000
O O4 0.500000 0.551626 0.878557
O O5 0.278452 0.491580 0.873329
O O6 0.266496 0.554908 0.983192
O O7 0.500000 0.442432 0.924362
O O8 0.251041 0.401886 0.877430
O O9 0.500000 0.744460 0.080142
O O10 0.725782 0.686869 0.102740
O O11 0.737628 0.769033 0.165346
O O12 0.750000 0.750000 0.000000
O O13 0.256803 0.651986 0.250000
O O14 0.500000 0.640377 0.338563
O O15 0.500000 0.210380 0.750000
#
# Coordination Sequence:
#
# PCOD8259399 Si02
#       6
#     8  16  16  16  16   8
#     4  11  23  35  50  71 103 145 183 207 240 303
#     4   9  18  34  53  77 106 133 166 213 260 302
#     4   8  16  30  51  80 108 129 159 210 268 311
#     4  10  20  36  57  79 104 137 176 219 262 311
#     4   9  16  28  51  80 104 129 166 210 257 312
#     4   9  20  39  54  71 107 149 179 207 260 325
#
# _framework density 18.876362
#
# number of rings (size 3 to 8) (size 9 to 14) (size 15 to 20)
#    0.000    2.800    1.000    1.500    4.200    0.000 
#    0.000    3.500    0.000    1.200    0.000    0.000 
#    0.000    0.000    0.000    0.000    0.000    0.000 
#
# Total GULP energy -495738.389883 kJ/mol
# GULP energy per Si atom -12393.459747 kJ/mol
# Density = 1.883340 g / cm^3
# Si number density = 18.876362 Si / 1000 Ang^3
#
#
#
# Elastic Constant Matrix: (Units=GPa)
#
#
# Indices 1 2 3 4 5 6 
#
# 1 25.2218 28.2978 23.2858 0.0000 0.0000 0.0000
# 2 28.2978 180.2375 87.2037 0.0000 0.0000 0.0000
# 3 23.2858 87.2037 140.8084 0.0000 0.0000 0.0000
# 4 0.0000 0.0000 0.0000 39.3131 0.0000 0.0000
# 5 0.0000 0.0000 0.0000 0.0000 25.4367 0.0000
# 6 0.0000 0.0000 0.0000 0.0000 0.0000 19.2555
#
#
#
# Elastic Compliance Matrix: (Units=1/GPa)
#
#
# Indices 1 2 3 4 5 6 
#
# 1 0.050389 -0.005539 -0.004902 0.000000 0.000000 0.000000
# 2 -0.005539 0.008531 -0.004367 0.000000 0.000000 0.000000
# 3 -0.004902 -0.004367 0.010617 0.000000 0.000000 0.000000
# 4 0.000000 0.000000 0.000000 0.025437 0.000000 0.000000
# 5 0.000000 0.000000 0.000000 0.000000 0.039313 0.000000
# 6 0.000000 0.000000 0.000000 0.000000 0.000000 0.051933
#
#
# Mechanical properties :
#
#
# Convention : Reuss Voigt Hill
#
# Bulk Modulus (GPa) = 25.05040 69.31581 47.18310
# Shear Modulus (GPa) = 21.82020 30.63307 26.22664
#
# Velocity S-wave (km/s) = 3.40362 4.03280 3.73150
# Velocity P-wave (km/s) = 5.36151 7.64757 6.60421
#
# Compressibility (1/GPa) = 0.03991952
#
# Stress axis : x y z
#
# Youngs Moduli (GPa) = 19.84544 117.22105 94.18672
#
# Poissons Ratio (x) = 0.64933 0.46175
# Poissons Ratio (y) = 0.10993 0.41133
# Poissons Ratio (z) = 0.09729 0.51193
#
# Static dielectric constant tensor:
#      x y z
#    x 2.866770 0.000000 0.000000 
#    y 0.000000 3.957820 0.000000 
#    z 0.000000 0.000000 3.657060 
# 
# 
# High freq. dielectric constant tensor:
#      x y z
#    x 1.669480 0.000000 0.000000 
#    y 0.000000 1.753510 0.000000 
#    z 0.000000 0.000000 1.743760 
# 
# From -- ./inp_files/40612.got.cif
#   From: 2010.03.12/outbox.cif.g09.slc.cpg/sg63_21_cif.got.tgz:40612.got - 2010.04.10 19:34:48.
