data_PCOD8259690
_publ_section_title
;
Structure prediction by ZEFSAII (Michael W. Deem and Ramdas Pophale) SiO2 
 PCOD8259690
Probable space group: C M C M
;
_chemical_formula_sum "Si O2"
_cell_formula_units_Z 112
_cell_length_a 14.810618
_cell_length_b 24.569390
_cell_length_c 14.022532
_cell_angle_alpha 90.000000
_cell_angle_beta 90.000000
_cell_angle_gamma 90.000000
_cell_volume 5102.629018
_symmetry_space_group_name_H-M "C M C M"
_symmetry_group_IT_number 63
_symmetry_cell_setting 'orthorhombic'
loop_
_space_group_symop_operation_xyz
x,y,z
-x,-y,1/2+z
x,-y,-z
-x,y,1/2-z
-x,-y,-z
x,y,1/2-z
-x,y,z
x,-y,1/2+z
1/2+x,1/2+y,z
1/2-x,1/2-y,1/2+z
1/2+x,1/2-y,-z
1/2-x,1/2+y,1/2-z
1/2-x,1/2-y,-z
1/2+x,1/2+y,1/2-z
1/2-x,1/2+y,z
1/2+x,1/2-y,1/2+z
loop_
_atom_site_type_symbol
_atom_site_label
_atom_site_fract_x
_atom_site_fract_y
_atom_site_fract_z
Si Si1 0.337564 0.665046 0.853987
Si Si2 0.897421 0.375938 0.553168
Si Si3 0.660398 0.097538 0.856034
Si Si4 0.597849 0.448622 0.638050
Si Si5 0.597911 0.668295 0.445064
Si Si6 0.270420 0.213141 0.358400
Si Si7 0.709190 0.024145 0.360057
O O1 0.386128 0.659493 0.750000
O O2 0.261881 0.619057 0.862157
O O3 0.294407 0.724237 0.862583
O O4 0.405458 0.656240 0.941250
O O5 0.899253 0.373744 0.437523
O O6 0.848957 0.322547 0.593656
O O7 0.844680 0.430228 0.582492
O O8 0.000000 0.376759 0.591631
O O9 0.620277 0.109533 0.750000
O O10 0.660357 0.032976 0.875501
O O11 0.590431 0.454848 0.750000
O O12 0.500000 0.468183 0.594206
O O13 0.615826 0.386305 0.612546
O O14 0.686588 0.481158 0.602012
O O15 0.500000 0.693114 0.417635
O O16 0.677247 0.709351 0.417192
O O17 0.256703 0.193033 0.250000
O O18 0.709418 0.042051 0.250000
#
# Coordination Sequence:
#
# PCOD8259690 Si02
#       7
#    16  16  16  16  16  16  16
#     4  10  22  42  64  87 124 170 210 250 302 367
#     4  12  25  40  64  92 122 163 213 269 325 374
#     4  10  22  41  64  88 122 168 211 253 310 376
#     4   9  17  32  58  92 125 158 198 248 305 362
#     4  11  21  35  62  95 124 157 198 245 309 373
#     4  11  23  42  66  91 124 161 206 265 317 369
#     4  10  20  37  62  91 128 165 204 258 310 370
#
# _framework density 21.949469000000001
#
# number of rings (size 3 to 8) (size 9 to 14) (size 15 to 20)
#    0.000    1.571    2.857    1.714    0.000    4.286 
#    0.000    3.571    0.000    7.714    0.000    0.000 
#    0.000    0.000    0.000    0.000    0.000    0.000 
#
# Total GULP energy -694096.070147 kJ/mol
# GULP energy per Si atom -12394.572681 kJ/mol
# Density = 2.189951 g / cm^3
# Si number density = 21.949469 Si / 1000 Ang^3
#
#
#
# Elastic Constant Matrix: (Units=GPa)
#
#
# Indices 1 2 3 4 5 6 
#
# 1 113.9855 7.6867 41.2475 0.0000 0.0000 0.0000
# 2 7.6867 52.8255 3.9887 0.0000 0.0000 0.0000
# 3 41.2475 3.9887 39.1883 0.0000 0.0000 0.0000
# 4 0.0000 0.0000 0.0000 23.3984 0.0000 0.0000
# 5 0.0000 0.0000 0.0000 0.0000 19.5297 0.0000
# 6 0.0000 0.0000 0.0000 0.0000 0.0000 -1.2725
#
#
#
# Elastic Compliance Matrix: (Units=1/GPa)
#
#
# Indices 1 2 3 4 5 6 
#
# 1 0.014217 -0.000946 -0.014868 0.000000 0.000000 0.000000
# 2 -0.000946 0.019140 -0.000952 0.000000 0.000000 0.000000
# 3 -0.014868 -0.000952 0.041264 0.000000 0.000000 0.000000
# 4 0.000000 0.000000 0.000000 0.042738 0.000000 0.000000
# 5 0.000000 0.000000 0.000000 0.000000 0.051204 0.000000
# 6 0.000000 0.000000 0.000000 0.000000 0.000000 -0.785851
#
#
# Mechanical properties :
#
#
# Convention : Reuss Voigt Hill
#
# Bulk Modulus (GPa) = 24.33787 34.64946 29.49367
# Shear Modulus (GPa) = -8.77100 18.53622 4.88261
#
# Velocity S-wave (km/s) = -2.00117 2.90917 1.49309
# Velocity P-wave (km/s) = 2.40263 5.20621 4.05446
#
# Compressibility (1/GPa) = 0.04108823
#
# Stress axis : x y z
#
# Youngs Moduli (GPa) = 70.33838 52.24713 24.23435
#
# Poissons Ratio (x) = 0.04943 0.36031
# Poissons Ratio (y) = 0.06655 0.02308
# Poissons Ratio (z) = 1.04577 0.04976
#
# Static dielectric constant tensor:
#      x y z
#    x 3.670150 0.000000 0.000000 
#    y 0.000000 3.713290 0.000000 
#    z 0.000000 0.000000 4.537250 
# 
# 
# High freq. dielectric constant tensor:
#      x y z
#    x 1.849850 0.000000 0.000000 
#    y 0.000000 1.850370 0.000000 
#    z 0.000000 0.000000 1.882490 
# 
# From -- ./inp_files/32360.got.cif
#   From: 2010.03.12/outbox.cif.g09.slc.cpg/sg63_17_cif.got.tgz:32360.got - 2010.04.10 19:34:48.
