data_PCOD8259440
_publ_section_title
;
Structure prediction by ZEFSAII (Michael W. Deem and Ramdas Pophale) SiO2 
 PCOD8259440
Probable space group: C M C M
;
_chemical_formula_sum "Si O2"
_cell_formula_units_Z 112
_cell_length_a 24.135211
_cell_length_b 15.503673
_cell_length_c 15.481319
_cell_angle_alpha 90.000000
_cell_angle_beta 90.000000
_cell_angle_gamma 90.000000
_cell_volume 5792.868357
_symmetry_space_group_name_H-M "C M C M"
_symmetry_group_IT_number 63
_symmetry_cell_setting 'orthorhombic'
loop_
_space_group_symop_operation_xyz
x,y,z
-x,-y,1/2+z
x,-y,-z
-x,y,1/2-z
-x,-y,-z
x,y,1/2-z
-x,y,z
x,-y,1/2+z
1/2+x,1/2+y,z
1/2-x,1/2-y,1/2+z
1/2+x,1/2-y,-z
1/2-x,1/2+y,1/2-z
1/2-x,1/2-y,-z
1/2+x,1/2+y,1/2-z
1/2-x,1/2+y,z
1/2+x,1/2-y,1/2+z
loop_
_atom_site_type_symbol
_atom_site_label
_atom_site_fract_x
_atom_site_fract_y
_atom_site_fract_z
Si Si1 0.062306 0.686994 0.101441
Si Si2 0.129258 0.336305 0.153191
Si Si3 0.437015 0.996415 0.147738
Si Si4 0.280079 0.709766 0.149410
Si Si5 0.834889 0.210955 0.655011
Si Si6 0.659902 0.600003 0.487162
Si Si7 0.938316 0.205286 0.431321
O O1 0.077268 0.585901 0.100533
O O2 0.106960 0.738525 0.157756
O O3 0.000000 0.700965 0.139606
O O4 0.065658 0.722008 0.004833
O O5 0.139458 0.364769 0.250000
O O6 0.104574 0.423054 0.108926
O O7 0.187291 0.297203 0.116409
O O8 0.085627 0.256350 0.150950
O O9 0.430082 0.009641 0.250000
O O10 0.500000 0.967387 0.126404
O O11 0.295951 0.689618 0.250000
O O12 0.214640 0.721331 0.139220
O O13 0.296963 0.632327 0.085510
O O14 0.827681 0.167477 0.750000
O O15 0.830619 0.140007 0.581295
O O16 0.667889 0.500000 0.500000
O O17 0.597774 0.621546 0.455056
O O18 0.000000 0.171637 0.413933
#
# Coordination Sequence:
#
# PCOD8259440 Si02
#       7
#    16  16  16  16  16  16  16
#     4   9  18  32  50  75 106 137 171 214 263 317
#     4   9  17  30  48  71 102 137 172 213 261 311
#     4   9  16  26  43  69 101 133 165 204 252 308
#     4   9  19  37  58  78 105 140 179 221 263 317
#     4  10  20  36  58  79 104 141 181 218 263 322
#     4  10  21  37  56  78 108 139 173 226 274 312
#     4   9  18  32  51  73  99 137 179 216 262 317
#
# _framework density 19.334118
#
# number of rings (size 3 to 8) (size 9 to 14) (size 15 to 20)
#    0.000    2.714    0.000    1.286    0.000    3.143 
#    2.571    2.143    0.000    0.000    0.000    4.000 
#    0.000    0.000    0.000    0.000    0.000    0.000 
#
# Total GULP energy -693885.716010 kJ/mol
# GULP energy per Si atom -12390.816357 kJ/mol
# Density = 1.929011 g / cm^3
# Si number density = 19.334118 Si / 1000 Ang^3
#
#
#
# Elastic Constant Matrix: (Units=GPa)
#
#
# Indices 1 2 3 4 5 6 
#
# 1 113.0324 49.3305 33.3314 0.0000 0.0000 0.0000
# 2 49.3305 126.1266 40.4731 0.0000 0.0000 0.0000
# 3 33.3314 40.4731 48.8770 0.0000 0.0000 0.0000
# 4 0.0000 0.0000 0.0000 15.4396 0.0000 0.0000
# 5 0.0000 0.0000 0.0000 0.0000 20.9884 0.0000
# 6 0.0000 0.0000 0.0000 0.0000 0.0000 9.7560
#
#
#
# Elastic Compliance Matrix: (Units=1/GPa)
#
#
# Indices 1 2 3 4 5 6 
#
# 1 0.011737 -0.002754 -0.005723 0.000000 0.000000 0.000000
# 2 -0.002754 0.011444 -0.007598 0.000000 0.000000 0.000000
# 3 -0.005723 -0.007598 0.030654 0.000000 0.000000 0.000000
# 4 0.000000 0.000000 0.000000 0.064768 0.000000 0.000000
# 5 0.000000 0.000000 0.000000 0.000000 0.047645 0.000000
# 6 0.000000 0.000000 0.000000 0.000000 0.000000 0.102501
#
#
# Mechanical properties :
#
#
# Convention : Reuss Voigt Hill
#
# Bulk Modulus (GPa) = 46.11710 59.36733 52.74222
# Shear Modulus (GPa) = 16.22698 20.23019 18.22858
#
# Velocity S-wave (km/s) = 2.90020 3.23824 3.07387
# Velocity P-wave (km/s) = 5.92616 6.68986 6.31956
#
# Compressibility (1/GPa) = 0.02168393
#
# Stress axis : x y z
#
# Youngs Moduli (GPa) = 85.20358 87.38325 32.62176
#
# Poissons Ratio (x) = 0.24064 0.18671
# Poissons Ratio (y) = 0.23464 0.24787
# Poissons Ratio (z) = 0.48765 0.66396
#
# Static dielectric constant tensor:
#      x y z
#    x 3.731810 0.000000 0.000000 
#    y 0.000000 3.273210 0.000000 
#    z 0.000000 0.000000 3.548960 
# 
# 
# High freq. dielectric constant tensor:
#      x y z
#    x 1.756420 0.000000 0.000000 
#    y 0.000000 1.721720 0.000000 
#    z 0.000000 0.000000 1.752240 
# 
# From -- ./inp_files/36952.got.cif
#   From: 2010.03.12/outbox.cif.g09.slc.cpg/sg63_19_cif.got.tgz:36952.got - 2010.04.10 19:34:48.
