data_PCOD8259093
_publ_section_title
;
Structure prediction by ZEFSAII (Michael W. Deem and Ramdas Pophale) SiO2 
 PCOD8259093
Probable space group: C M C M
;
_chemical_formula_sum "Si O2"
_cell_formula_units_Z 80
_cell_length_a 25.421942
_cell_length_b 18.516310
_cell_length_c 8.986247
_cell_angle_alpha 90.000000
_cell_angle_beta 90.000000
_cell_angle_gamma 90.000000
_cell_volume 4230.011210
_symmetry_space_group_name_H-M "C M C M"
_symmetry_group_IT_number 63
_symmetry_cell_setting 'orthorhombic'
loop_
_space_group_symop_operation_xyz
x,y,z
-x,-y,1/2+z
x,-y,-z
-x,y,1/2-z
-x,-y,-z
x,y,1/2-z
-x,y,z
x,-y,1/2+z
1/2+x,1/2+y,z
1/2-x,1/2-y,1/2+z
1/2+x,1/2-y,-z
1/2-x,1/2+y,1/2-z
1/2-x,1/2-y,-z
1/2+x,1/2+y,1/2-z
1/2-x,1/2+y,z
1/2+x,1/2-y,1/2+z
loop_
_atom_site_type_symbol
_atom_site_label
_atom_site_fract_x
_atom_site_fract_y
_atom_site_fract_z
Si Si1 0.059321 0.575122 0.425221
Si Si2 0.346281 0.828466 0.573876
Si Si3 0.752635 0.922332 0.926853
Si Si4 0.656100 0.334033 0.075226
Si Si5 0.558707 0.427785 0.077392
O O1 0.074837 0.500000 0.500000
O O2 0.065209 0.564121 0.250000
O O3 0.099484 0.635967 0.484944
O O4 0.000000 0.598714 0.468394
O O5 0.348142 0.824506 0.750000
O O6 0.297078 0.875432 0.518967
O O7 0.340533 0.747331 0.511996
O O8 0.754584 0.930703 0.750000
O O9 0.804843 0.883506 0.982450
O O10 0.747462 0.000000 0.000000
O O11 0.670154 0.338924 0.250000
O O12 0.597026 0.361175 0.042895
O O13 0.557831 0.445571 0.250000
O O14 0.500000 0.407633 0.020085
O O15 0.580234 0.500000 0.000000
#
# Coordination Sequence:
#
# PCOD8259093 Si02
#       5
#    16  16  16  16  16
#     4   9  17  31  52  76 102 134 172 211 250 295
#     4   9  19  34  52  76 104 133 166 207 253 301
#     4  11  22  36  54  75 101 133 170 208 249 298
#     4  10  20  35  54  76 103 132 166 208 253 301
#     4   9  18  32  51  74  99 129 164 202 244 291
#
# _framework density 18.912479000000001
#
# number of rings (size 3 to 8) (size 9 to 14) (size 15 to 20)
#    0.000    2.400    0.000    2.400    0.000    3.200 
#    0.000    7.000    0.000    0.000    0.000    5.600 
#    0.000    0.000    0.000    0.000    0.000    0.000 
#
# Total GULP energy -496014.702467 kJ/mol
# GULP energy per Si atom -12400.367562 kJ/mol
# Density = 1.886943 g / cm^3
# Si number density = 18.912479 Si / 1000 Ang^3
#
#
#
# Elastic Constant Matrix: (Units=GPa)
#
#
# Indices 1 2 3 4 5 6 
#
# 1 120.3909 78.6750 35.1664 0.0000 0.0000 0.0000
# 2 78.6750 167.5987 41.4984 0.0000 0.0000 0.0000
# 3 35.1664 41.4984 39.7145 0.0000 0.0000 0.0000
# 4 0.0000 0.0000 0.0000 20.5793 0.0000 0.0000
# 5 0.0000 0.0000 0.0000 0.0000 20.6264 0.0000
# 6 0.0000 0.0000 0.0000 0.0000 0.0000 33.1247
#
#
#
# Elastic Compliance Matrix: (Units=1/GPa)
#
#
# Indices 1 2 3 4 5 6 
#
# 1 0.013315 -0.004494 -0.007095 0.000000 0.000000 0.000000
# 2 -0.004494 0.009566 -0.006016 0.000000 0.000000 0.000000
# 3 -0.007095 -0.006016 0.037749 0.000000 0.000000 0.000000
# 4 0.000000 0.000000 0.000000 0.048593 0.000000 0.000000
# 5 0.000000 0.000000 0.000000 0.000000 0.048481 0.000000
# 6 0.000000 0.000000 0.000000 0.000000 0.000000 0.030189
#
#
# Mechanical properties :
#
#
# Convention : Reuss Voigt Hill
#
# Bulk Modulus (GPa) = 39.33931 70.93153 55.13542
# Shear Modulus (GPa) = 21.59119 26.35704 23.97411
#
# Velocity S-wave (km/s) = 3.38248 3.73719 3.56425
# Velocity P-wave (km/s) = 6.00839 7.49724 6.79373
#
# Compressibility (1/GPa) = 0.02541987
#
# Stress axis : x y z
#
# Youngs Moduli (GPa) = 75.10097 104.53873 26.49109
#
# Poissons Ratio (x) = 0.46978 0.18795
# Poissons Ratio (y) = 0.33749 0.15938
# Poissons Ratio (z) = 0.53283 0.62893
#
# Static dielectric constant tensor:
#      x y z
#    x 3.782150 0.000000 0.000000 
#    y 0.000000 3.695520 0.000000 
#    z 0.000000 0.000000 3.239370 
# 
# 
# High freq. dielectric constant tensor:
#      x y z
#    x 1.750340 0.000000 0.000000 
#    y 0.000000 1.739070 0.000000 
#    z 0.000000 0.000000 1.709800 
# 
# From -- ./inp_files/12016.got.cif
#   From: 2010.03.12/outbox.cif.g09.slc.cpg/sg63_7_cif.got.tgz:12016.got - 2010.04.10 19:34:48.
