data_PCOD8259261
_publ_section_title
;
Structure prediction by ZEFSAII (Michael W. Deem and Ramdas Pophale) SiO2 
 PCOD8259261
Probable space group: C M C M
;
_chemical_formula_sum "Si O2"
_cell_formula_units_Z 104
_cell_length_a 22.036950
_cell_length_b 28.301376
_cell_length_c 8.669785
_cell_angle_alpha 90.000000
_cell_angle_beta 90.000000
_cell_angle_gamma 90.000000
_cell_volume 5407.136898
_symmetry_space_group_name_H-M "C M C M"
_symmetry_group_IT_number 63
_symmetry_cell_setting 'orthorhombic'
loop_
_space_group_symop_operation_xyz
x,y,z
-x,-y,1/2+z
x,-y,-z
-x,y,1/2-z
-x,-y,-z
x,y,1/2-z
-x,y,z
x,-y,1/2+z
1/2+x,1/2+y,z
1/2-x,1/2-y,1/2+z
1/2+x,1/2-y,-z
1/2-x,1/2+y,1/2-z
1/2-x,1/2-y,-z
1/2+x,1/2+y,1/2-z
1/2-x,1/2+y,z
1/2+x,1/2-y,1/2+z
loop_
_atom_site_type_symbol
_atom_site_label
_atom_site_fract_x
_atom_site_fract_y
_atom_site_fract_z
Si Si1 0.624310 0.896933 0.932460
Si Si2 0.674061 0.199182 0.572993
Si Si3 0.500000 0.947199 0.568317
Si Si4 0.161899 0.889008 0.927006
Si Si5 0.817639 0.203979 0.574868
Si Si6 0.234869 0.450043 0.068195
Si Si7 0.571430 0.548066 0.924060
O O1 0.628581 0.890721 0.750000
O O2 0.558597 0.916690 0.984439
O O3 0.638973 0.846314 0.008130
O O4 0.672198 0.935702 0.988318
O O5 0.654887 0.205640 0.750000
O O6 0.746073 0.195710 0.556033
O O7 0.656052 0.245400 0.475951
O O8 0.500000 0.953979 0.750000
O O9 0.500000 0.000000 0.500000
O O10 0.179063 0.897440 0.750000
O O11 0.152648 0.833998 0.961815
O O12 0.214084 0.911266 0.033526
O O13 0.097221 0.910792 0.969627
O O14 0.838040 0.195482 0.750000
O O15 0.224672 0.453359 0.250000
O O16 0.256465 0.500000 0.000000
O O17 0.596983 0.550886 0.750000
O O18 0.500000 0.552361 0.925925
O O19 0.594508 0.500000 0.000000
#
# Coordination Sequence:
#
# PCOD8259261 Si02
#       7
#    16  16   8  16  16  16  16
#     4  11  22  39  61  86 117 154 196 243 297 355
#     4  10  20  35  58  87 117 151 189 233 285 345
#     4  10  24  42  62  88 118 158 204 250 301 360
#     4  12  23  36  57  85 117 152 189 236 287 341
#     4  10  20  35  57  86 120 152 188 233 284 344
#     4  12  24  38  55  82 117 152 191 237 290 348
#     4  10  21  38  59  82 112 151 193 234 279 335
#
# _framework density 19.233837999999999
#
# number of rings (size 3 to 8) (size 9 to 14) (size 15 to 20)
#    0.000    1.231    1.538    5.538    0.000    4.615 
#    0.000    0.000    1.692    0.000    0.000    0.000 
#    0.000    0.000    0.000    0.000    0.000    0.000 
#
# Total GULP energy -644892.698614 kJ/mol
# GULP energy per Si atom -12401.782666 kJ/mol
# Density = 1.919006 g / cm^3
# Si number density = 19.233838 Si / 1000 Ang^3
#
#
#
# Elastic Constant Matrix: (Units=GPa)
#
#
# Indices 1 2 3 4 5 6 
#
# 1 47.5204 39.1695 32.3362 0.0000 0.0000 0.0000
# 2 39.1695 129.0819 41.8819 0.0000 0.0000 0.0000
# 3 32.3362 41.8819 106.3980 0.0000 0.0000 0.0000
# 4 0.0000 0.0000 0.0000 40.0864 0.0000 0.0000
# 5 0.0000 0.0000 0.0000 0.0000 25.3445 0.0000
# 6 0.0000 0.0000 0.0000 0.0000 0.0000 22.9739
#
#
#
# Elastic Compliance Matrix: (Units=1/GPa)
#
#
# Indices 1 2 3 4 5 6 
#
# 1 0.031762 -0.007459 -0.006717 0.000000 0.000000 0.000000
# 2 -0.007459 0.010633 -0.001919 0.000000 0.000000 0.000000
# 3 -0.006717 -0.001919 0.012195 0.000000 0.000000 0.000000
# 4 0.000000 0.000000 0.000000 0.024946 0.000000 0.000000
# 5 0.000000 0.000000 0.000000 0.000000 0.039456 0.000000
# 6 0.000000 0.000000 0.000000 0.000000 0.000000 0.043528
#
#
# Mechanical properties :
#
#
# Convention : Reuss Voigt Hill
#
# Bulk Modulus (GPa) = 44.63959 56.64172 50.64066
# Shear Modulus (GPa) = 24.73081 28.98848 26.85964
#
# Velocity S-wave (km/s) = 3.58969 3.88643 3.74100
# Velocity P-wave (km/s) = 6.35928 7.04642 6.71165
#
# Compressibility (1/GPa) = 0.02240164
#
# Stress axis : x y z
#
# Youngs Moduli (GPa) = 31.48374 94.04801 81.99840
#
# Poissons Ratio (x) = 0.70148 0.55079
# Poissons Ratio (y) = 0.23483 0.15732
# Poissons Ratio (z) = 0.21148 0.18044
#
# Static dielectric constant tensor:
#      x y z
#    x 3.389110 0.000000 0.000000 
#    y 0.000000 3.838070 0.000000 
#    z 0.000000 0.000000 3.668100 
# 
# 
# High freq. dielectric constant tensor:
#      x y z
#    x 1.723950 0.000000 0.000000 
#    y 0.000000 1.760160 0.000000 
#    z 0.000000 0.000000 1.765120 
# 
# From -- ./inp_files/8758.got.cif
#   From: 2010.03.12/outbox.cif.g09.slc.cpg/sg63_5_cif.got.tgz:8758.got - 2010.04.10 19:34:48.
