data_PCOD8259290
_publ_section_title
;
Structure prediction by ZEFSAII (Michael W. Deem and Ramdas Pophale) SiO2 
 PCOD8259290
Probable space group: C M C M
;
_chemical_formula_sum "Si O2"
_cell_formula_units_Z 80
_cell_length_a 7.745897
_cell_length_b 18.105266
_cell_length_c 29.080950
_cell_angle_alpha 90.000000
_cell_angle_beta 90.000000
_cell_angle_gamma 90.000000
_cell_volume 4078.356794
_symmetry_space_group_name_H-M "C M C M"
_symmetry_group_IT_number 63
_symmetry_cell_setting 'orthorhombic'
loop_
_space_group_symop_operation_xyz
x,y,z
-x,-y,1/2+z
x,-y,-z
-x,y,1/2-z
-x,-y,-z
x,y,1/2-z
-x,y,z
x,-y,1/2+z
1/2+x,1/2+y,z
1/2-x,1/2-y,1/2+z
1/2+x,1/2-y,-z
1/2-x,1/2+y,1/2-z
1/2-x,1/2-y,-z
1/2+x,1/2+y,1/2-z
1/2-x,1/2+y,z
1/2+x,1/2-y,1/2+z
loop_
_atom_site_type_symbol
_atom_site_label
_atom_site_fract_x
_atom_site_fract_y
_atom_site_fract_z
Si Si1 0.000000 0.710453 0.698772
Si Si2 0.000000 0.535131 0.698787
Si Si3 0.202934 0.206151 0.045356
Si Si4 0.301535 0.961242 0.954222
Si Si5 0.692166 0.461766 0.364782
Si Si6 0.805876 0.207971 0.634349
O O1 0.000000 0.622772 0.702219
O O2 0.171538 0.738092 0.672331
O O3 0.000000 0.744932 0.750000
O O4 0.171004 0.507246 0.672232
O O5 0.000000 0.500619 0.750000
O O6 0.282415 0.125661 0.040513
O O7 0.291270 0.245934 0.088073
O O8 0.000000 0.202470 0.053224
O O9 0.250000 0.250000 0.000000
O O10 0.500000 0.983641 0.946883
O O11 0.195320 0.990057 0.910786
O O12 0.227461 0.000000 0.000000
O O13 0.500000 0.468221 0.343399
O O14 0.736275 0.377170 0.377529
O O15 0.000000 0.216528 0.654090
#
# Coordination Sequence:
#
# PCOD8259290 Si02
#       6
#     8   8  16  16  16  16
#     4   9  18  34  58  87 116 150 193 240 294 341
#     4   9  18  34  57  85 117 148 188 242 288 337
#     4  12  24  38  57  84 117 155 194 237 283 343
#     4  11  23  38  58  84 116 155 192 236 283 341
#     4  10  20  35  58  86 116 153 192 236 286 338
#     4  10  20  36  58  86 119 153 192 240 286 341
#
# _framework density 19.615743999999999
#
# number of rings (size 3 to 8) (size 9 to 14) (size 15 to 20)
#    0.000    1.600    2.000    3.600    0.000    5.600 
#    0.000    4.000    0.000    1.200    0.000    0.000 
#    0.000    0.000    0.000    0.000    0.000    0.000 
#
# Total GULP energy -496131.667813 kJ/mol
# GULP energy per Si atom -12403.291695 kJ/mol
# Density = 1.957110 g / cm^3
# Si number density = 19.615744 Si / 1000 Ang^3
#
#
#
# Elastic Constant Matrix: (Units=GPa)
#
#
# Indices 1 2 3 4 5 6 
#
# 1 134.4183 17.7067 61.9720 0.0000 0.0000 0.0000
# 2 17.7067 74.4469 50.5732 0.0000 0.0000 0.0000
# 3 61.9720 50.5732 161.4654 0.0000 0.0000 0.0000
# 4 0.0000 0.0000 0.0000 21.2330 0.0000 0.0000
# 5 0.0000 0.0000 0.0000 0.0000 19.9966 0.0000
# 6 0.0000 0.0000 0.0000 0.0000 0.0000 23.7163
#
#
#
# Elastic Compliance Matrix: (Units=1/GPa)
#
#
# Indices 1 2 3 4 5 6 
#
# 1 0.009043 0.000263 -0.003553 0.000000 0.000000 0.000000
# 2 0.000263 0.017071 -0.005448 0.000000 0.000000 0.000000
# 3 -0.003553 -0.005448 0.009263 0.000000 0.000000 0.000000
# 4 0.000000 0.000000 0.000000 0.047097 0.000000 0.000000
# 5 0.000000 0.000000 0.000000 0.000000 0.050009 0.000000
# 6 0.000000 0.000000 0.000000 0.000000 0.000000 0.042165
#
#
# Mechanical properties :
#
#
# Convention : Reuss Voigt Hill
#
# Bulk Modulus (GPa) = 55.86261 70.09272 62.97767
# Shear Modulus (GPa) = 25.24110 28.99443 27.11776
#
# Velocity S-wave (km/s) = 3.59106 3.84880 3.72216
# Velocity P-wave (km/s) = 6.76273 7.45396 7.11674
#
# Compressibility (1/GPa) = 0.01790106
#
# Stress axis : x y z
#
# Youngs Moduli (GPa) = 110.58332 58.58048 107.95323
#
# Poissons Ratio (x) = -0.01540 0.38357
# Poissons Ratio (y) = -0.02907 0.58809
# Poissons Ratio (z) = 0.39292 0.31912
#
# Static dielectric constant tensor:
#      x y z
#    x 3.798550 0.000000 0.000000 
#    y 0.000000 3.321070 0.000000 
#    z 0.000000 0.000000 3.628930 
# 
# 
# High freq. dielectric constant tensor:
#      x y z
#    x 1.784600 0.000000 0.000000 
#    y 0.000000 1.738110 0.000000 
#    z 0.000000 0.000000 1.758370 
# 
# From -- ./inp_files/66675.got.cif
#   From: 2010.03.12/outbox.cif.g09.slc.cpg/sg63_34_cif.got.tgz:66675.got - 2010.04.10 19:34:48.
