data_PCOD8259137
_publ_section_title
;
Structure prediction by ZEFSAII (Michael W. Deem and Ramdas Pophale) SiO2 
 PCOD8259137
Probable space group: C M C M
;
_chemical_formula_sum "Si O2"
_cell_formula_units_Z 80
_cell_length_a 8.887690
_cell_length_b 29.011020
_cell_length_c 16.997114
_cell_angle_alpha 90.000000
_cell_angle_beta 90.000000
_cell_angle_gamma 90.000000
_cell_volume 4382.552061
_symmetry_space_group_name_H-M "C M C M"
_symmetry_group_IT_number 63
_symmetry_cell_setting 'orthorhombic'
loop_
_space_group_symop_operation_xyz
x,y,z
-x,-y,1/2+z
x,-y,-z
-x,y,1/2-z
-x,-y,-z
x,y,1/2-z
-x,y,z
x,-y,1/2+z
1/2+x,1/2+y,z
1/2-x,1/2-y,1/2+z
1/2+x,1/2-y,-z
1/2-x,1/2+y,1/2-z
1/2-x,1/2-y,-z
1/2+x,1/2+y,1/2-z
1/2-x,1/2+y,z
1/2+x,1/2-y,1/2+z
loop_
_atom_site_type_symbol
_atom_site_label
_atom_site_fract_x
_atom_site_fract_y
_atom_site_fract_z
Si Si1 0.176280 0.083877 0.383467
Si Si2 0.168345 0.183433 0.836356
Si Si3 0.178290 0.356622 0.750000
Si Si4 0.169114 0.507848 0.907518
Si Si5 0.823659 0.901176 0.064136
Si Si6 0.823764 0.757711 0.750000
O O1 0.260998 0.119167 0.327870
O O2 0.215232 0.099048 0.472105
O O3 0.000000 0.085594 0.365904
O O4 0.234227 0.032185 0.366020
O O5 0.161710 0.159298 0.750000
O O6 0.234036 0.147076 0.899213
O O7 0.275623 0.228635 0.828554
O O8 0.000000 0.199110 0.861761
O O9 0.232920 0.304551 0.750000
O O10 0.000000 0.358334 0.750000
O O11 0.241322 0.557483 0.889833
O O12 0.000000 0.506500 0.873877
O O13 0.171477 0.500000 0.000000
O O14 0.000000 0.907679 0.078758
O O15 0.000000 0.767732 0.750000
#
# Coordination Sequence:
#
# PCOD8259137 Si02
#       6
#    16  16   8  16  16   8
#     4  10  20  35  55  79 106 139 182 223 262 311
#     4   8  16  33  55  79 107 136 168 208 261 315
#     4  12  24  40  57  74 101 138 178 219 271 321
#     4   9  17  30  49  75 108 143 175 211 257 305
#     4   9  17  32  56  82 109 142 177 217 263 312
#     4  10  20  36  57  78 103 136 172 215 267 315
#
# _framework density 18.254204000000001
#
# number of rings (size 3 to 8) (size 9 to 14) (size 15 to 20)
#    0.600    2.000    0.000    2.700    0.000    4.000 
#    1.800    1.000    0.000    0.000    0.000    0.000 
#    0.000    0.000    0.000    0.000    0.000    0.000 
#
# Total GULP energy -495798.577270 kJ/mol
# GULP energy per Si atom -12394.964432 kJ/mol
# Density = 1.821266 g / cm^3
# Si number density = 18.254204 Si / 1000 Ang^3
#
#
#
# Elastic Constant Matrix: (Units=GPa)
#
#
# Indices 1 2 3 4 5 6 
#
# 1 114.2898 66.0558 38.5161 0.0000 0.0000 0.0000
# 2 66.0558 146.7537 53.8391 0.0000 0.0000 0.0000
# 3 38.5161 53.8391 56.2632 0.0000 0.0000 0.0000
# 4 0.0000 0.0000 0.0000 30.0213 0.0000 0.0000
# 5 0.0000 0.0000 0.0000 0.0000 17.4876 0.0000
# 6 0.0000 0.0000 0.0000 0.0000 0.0000 35.3229
#
#
#
# Elastic Compliance Matrix: (Units=1/GPa)
#
#
# Indices 1 2 3 4 5 6 
#
# 1 0.012663 -0.003883 -0.004953 0.000000 0.000000 0.000000
# 2 -0.003883 0.011691 -0.008529 0.000000 0.000000 0.000000
# 3 -0.004953 -0.008529 0.029326 0.000000 0.000000 0.000000
# 4 0.000000 0.000000 0.000000 0.033310 0.000000 0.000000
# 5 0.000000 0.000000 0.000000 0.000000 0.057183 0.000000
# 6 0.000000 0.000000 0.000000 0.000000 0.000000 0.028310
#
#
# Mechanical properties :
#
#
# Convention : Reuss Voigt Hill
#
# Bulk Modulus (GPa) = 52.77130 70.45875 61.61502
# Shear Modulus (GPa) = 23.41584 27.15939 25.28761
#
# Velocity S-wave (km/s) = 3.58546 3.86144 3.72600
# Velocity P-wave (km/s) = 6.79062 7.65267 7.23450
#
# Compressibility (1/GPa) = 0.01894969
#
# Stress axis : x y z
#
# Youngs Moduli (GPa) = 78.97024 85.53714 34.09898
#
# Poissons Ratio (x) = 0.33210 0.16891
# Poissons Ratio (y) = 0.30660 0.29084
# Poissons Ratio (z) = 0.39118 0.72957
#
# Static dielectric constant tensor:
#      x y z
#    x 3.394630 0.000000 0.000000 
#    y 0.000000 3.392990 0.000000 
#    z 0.000000 0.000000 3.169260 
# 
# 
# High freq. dielectric constant tensor:
#      x y z
#    x 1.712390 0.000000 0.000000 
#    y 0.000000 1.706480 0.000000 
#    z 0.000000 0.000000 1.679110 
# 
# From -- ./inp_files/40554.got.cif
#   From: 2010.03.12/outbox.cif.g09.slc.cpg/sg63_21_cif.got.tgz:40554.got - 2010.04.10 19:34:48.
