data_PCOD8259438
_publ_section_title
;
Structure prediction by ZEFSAII (Michael W. Deem and Ramdas Pophale) SiO2 
 PCOD8259438
Probable space group: C M C M
;
_chemical_formula_sum "Si O2"
_cell_formula_units_Z 80
_cell_length_a 9.013648
_cell_length_b 18.393203
_cell_length_c 25.511511
_cell_angle_alpha 90.000000
_cell_angle_beta 90.000000
_cell_angle_gamma 90.000000
_cell_volume 4229.549772
_symmetry_space_group_name_H-M "C M C M"
_symmetry_group_IT_number 63
_symmetry_cell_setting 'orthorhombic'
loop_
_space_group_symop_operation_xyz
x,y,z
-x,-y,1/2+z
x,-y,-z
-x,y,1/2-z
-x,-y,-z
x,y,1/2-z
-x,y,z
x,-y,1/2+z
1/2+x,1/2+y,z
1/2-x,1/2-y,1/2+z
1/2+x,1/2-y,-z
1/2-x,1/2+y,1/2-z
1/2-x,1/2-y,-z
1/2+x,1/2+y,1/2-z
1/2-x,1/2+y,z
1/2+x,1/2-y,1/2+z
loop_
_atom_site_type_symbol
_atom_site_label
_atom_site_fract_x
_atom_site_fract_y
_atom_site_fract_z
Si Si1 0.169954 0.084866 0.310614
Si Si2 0.674327 0.415990 0.506044
Si Si3 0.676342 0.670446 0.904752
Si Si4 0.824539 0.334967 0.600199
Si Si5 0.176550 0.079578 0.807759
O O1 0.185711 0.105943 0.250000
O O2 0.273435 0.139377 0.342675
O O3 0.000000 0.093075 0.329346
O O4 0.226122 0.002676 0.320529
O O5 0.715142 0.500000 0.500000
O O6 0.500000 0.404381 0.513584
O O7 0.734681 0.372985 0.455358
O O8 0.755490 0.387009 0.557022
O O9 0.500000 0.666766 0.902421
O O10 0.733426 0.752865 0.908431
O O11 0.742114 0.633115 0.852082
O O12 0.000000 0.338549 0.596408
O O13 0.236264 0.102901 0.750000
O O14 0.000000 0.081973 0.807029
#
# Coordination Sequence:
#
# PCOD8259438 Si02
#       5
#    16  16  16  16  16
#     4   9  18  34  56  78 100 133 178 218 247 286
#     4  10  20  36  58  76  94 130 179 221 251 292
#     4   9  18  31  48  75 106 133 165 205 253 307
#     4  11  22  33  49  77 111 138 160 200 262 319
#     4   8  14  28  52  77  98 125 168 217 252 284
#
# _framework density 18.914542000000001
#
# number of rings (size 3 to 8) (size 9 to 14) (size 15 to 20)
#    0.000    2.600    0.000    3.600    0.000    4.800 
#    0.000    3.000    0.000    2.400    0.000    0.000 
#    0.000    0.000    0.000    0.000    0.000    0.000 
#
# Total GULP energy -496000.483767 kJ/mol
# GULP energy per Si atom -12400.012094 kJ/mol
# Density = 1.887149 g / cm^3
# Si number density = 18.914542 Si / 1000 Ang^3
#
#
#
# Elastic Constant Matrix: (Units=GPa)
#
#
# Indices 1 2 3 4 5 6 
#
# 1 28.3908 42.9455 31.7148 0.0000 0.0000 0.0000
# 2 42.9455 139.3630 74.1215 0.0000 0.0000 0.0000
# 3 31.7148 74.1215 124.4881 0.0000 0.0000 0.0000
# 4 0.0000 0.0000 0.0000 29.3867 0.0000 0.0000
# 5 0.0000 0.0000 0.0000 0.0000 19.5378 0.0000
# 6 0.0000 0.0000 0.0000 0.0000 0.0000 19.6315
#
#
#
# Elastic Compliance Matrix: (Units=1/GPa)
#
#
# Indices 1 2 3 4 5 6 
#
# 1 0.070268 -0.017755 -0.007330 0.000000 0.000000 0.000000
# 2 -0.017755 0.014987 -0.004400 0.000000 0.000000 0.000000
# 3 -0.007330 -0.004400 0.012520 0.000000 0.000000 0.000000
# 4 0.000000 0.000000 0.000000 0.034029 0.000000 0.000000
# 5 0.000000 0.000000 0.000000 0.000000 0.051183 0.000000
# 6 0.000000 0.000000 0.000000 0.000000 0.000000 0.050938
#
#
# Mechanical properties :
#
#
# Convention : Reuss Voigt Hill
#
# Bulk Modulus (GPa) = 25.76992 65.53395 45.65194
# Shear Modulus (GPa) = 16.34888 23.27522 19.81205
#
# Velocity S-wave (km/s) = 2.94318 3.51172 3.23995
# Velocity P-wave (km/s) = 5.02033 7.15301 6.17937
#
# Compressibility (1/GPa) = 0.03880494
#
# Stress axis : x y z
#
# Youngs Moduli (GPa) = 14.23119 66.72431 79.87059
#
# Poissons Ratio (x) = 1.18468 0.58547
# Poissons Ratio (y) = 0.25267 0.35144
# Poissons Ratio (z) = 0.10432 0.29360
#
# Static dielectric constant tensor:
#      x y z
#    x 2.998670 0.000000 0.000000 
#    y 0.000000 3.607610 0.000000 
#    z 0.000000 0.000000 3.722810 
# 
# 
# High freq. dielectric constant tensor:
#      x y z
#    x 1.685830 0.000000 0.000000 
#    y 0.000000 1.741220 0.000000 
#    z 0.000000 0.000000 1.752720 
# 
# From -- ./inp_files/66561.got.cif
#   From: 2010.03.12/outbox.cif.g09.slc.cpg/sg63_34_cif.got.tgz:66561.got - 2010.04.10 19:34:48.
