data_PCOD8259187
_publ_section_title
;
Structure prediction by ZEFSAII (Michael W. Deem and Ramdas Pophale) SiO2 
 PCOD8259187
Probable space group: C M C M
;
_chemical_formula_sum "Si O2"
_cell_formula_units_Z 112
_cell_length_a 13.736378
_cell_length_b 14.166799
_cell_length_c 29.062694
_cell_angle_alpha 90.000000
_cell_angle_beta 90.000000
_cell_angle_gamma 90.000000
_cell_volume 5655.614961
_symmetry_space_group_name_H-M "C M C M"
_symmetry_group_IT_number 63
_symmetry_cell_setting 'orthorhombic'
loop_
_space_group_symop_operation_xyz
x,y,z
-x,-y,1/2+z
x,-y,-z
-x,y,1/2-z
-x,-y,-z
x,y,1/2-z
-x,y,z
x,-y,1/2+z
1/2+x,1/2+y,z
1/2-x,1/2-y,1/2+z
1/2+x,1/2-y,-z
1/2-x,1/2+y,1/2-z
1/2-x,1/2-y,-z
1/2+x,1/2+y,1/2-z
1/2-x,1/2+y,z
1/2+x,1/2-y,1/2+z
loop_
_atom_site_type_symbol
_atom_site_label
_atom_site_fract_x
_atom_site_fract_y
_atom_site_fract_z
Si Si1 0.391341 0.665445 0.875050
Si Si2 0.887122 0.263289 0.966832
Si Si3 0.285477 0.396613 0.521834
Si Si4 0.726546 0.830108 0.302494
Si Si5 0.609504 0.454312 0.609437
Si Si6 0.294615 0.383181 0.697774
Si Si7 0.892683 0.507530 0.303816
O O1 0.500000 0.681862 0.856626
O O2 0.364036 0.743122 0.913262
O O3 0.324787 0.671067 0.830840
O O4 0.382494 0.565108 0.900500
O O5 0.822722 0.352980 0.981927
O O6 0.000000 0.288385 0.974814
O O7 0.861782 0.170666 0.996246
O O8 0.285501 0.500000 0.500000
O O9 0.317821 0.400470 0.575182
O O10 0.754059 0.854450 0.250000
O O11 0.679602 0.726888 0.306373
O O12 0.652311 0.908570 0.322629
O O13 0.500000 0.418059 0.600777
O O14 0.636237 0.437822 0.662821
O O15 0.315349 0.418649 0.750000
O O16 0.181190 0.406344 0.685051
O O17 0.907858 0.496775 0.250000
O O18 0.000000 0.525169 0.326508
#
# Coordination Sequence:
#
# PCOD8259187 Si02
#       7
#    16  16  16  16  16  16  16
#     4  10  20  35  57  83 115 153 191 236 290 347
#     4  10  22  40  63  90 119 153 194 240 291 349
#     4  11  22  39  65  90 118 155 192 238 293 351
#     4  10  20  35  56  80 112 152 195 242 289 340
#     4  11  22  36  59  87 117 153 193 237 288 352
#     4  10  21  37  57  82 115 155 196 241 290 340
#     4   9  18  34  54  76 106 146 191 236 283 338
#
# _framework density 19.803329999999999
#
# number of rings (size 3 to 8) (size 9 to 14) (size 15 to 20)
#    0.000    1.857    2.857    1.286    0.000    2.571 
#    0.000    5.000    0.000    0.857    0.000    0.000 
#    0.000    0.000    0.000    0.000    0.000    0.000 
#
# Total GULP energy -694289.480854 kJ/mol
# GULP energy per Si atom -12398.026444 kJ/mol
# Density = 1.975826 g / cm^3
# Si number density = 19.803330 Si / 1000 Ang^3
#
#
#
# Elastic Constant Matrix: (Units=GPa)
#
#
# Indices 1 2 3 4 5 6 
#
# 1 96.0944 24.2512 36.5911 0.0000 0.0000 0.0000
# 2 24.2512 74.7328 15.2123 0.0000 0.0000 0.0000
# 3 36.5911 15.2123 78.5578 0.0000 0.0000 0.0000
# 4 0.0000 0.0000 0.0000 18.3673 0.0000 0.0000
# 5 0.0000 0.0000 0.0000 0.0000 31.0586 0.0000
# 6 0.0000 0.0000 0.0000 0.0000 0.0000 21.8045
#
#
#
# Elastic Compliance Matrix: (Units=1/GPa)
#
#
# Indices 1 2 3 4 5 6 
#
# 1 0.013343 -0.003191 -0.005597 0.000000 0.000000 0.000000
# 2 -0.003191 0.014693 -0.001359 0.000000 0.000000 0.000000
# 3 -0.005597 -0.001359 0.015600 0.000000 0.000000 0.000000
# 4 0.000000 0.000000 0.000000 0.054444 0.000000 0.000000
# 5 0.000000 0.000000 0.000000 0.000000 0.032197 0.000000
# 6 0.000000 0.000000 0.000000 0.000000 0.000000 0.045862
#
#
# Mechanical properties :
#
#
# Convention : Reuss Voigt Hill
#
# Bulk Modulus (GPa) = 42.84098 44.61046 43.72572
# Shear Modulus (GPa) = 24.48417 25.80145 25.14281
#
# Velocity S-wave (km/s) = 3.52001 3.61346 3.56705
# Velocity P-wave (km/s) = 6.18068 6.32338 6.25244
#
# Compressibility (1/GPa) = 0.02334214
#
# Stress axis : x y z
#
# Youngs Moduli (GPa) = 74.94625 68.05957 64.10374
#
# Poissons Ratio (x) = 0.21715 0.35879
# Poissons Ratio (y) = 0.23912 0.08712
# Poissons Ratio (z) = 0.41948 0.09250
#
# Static dielectric constant tensor:
#      x y z
#    x 3.622180 0.000000 0.000000 
#    y 0.000000 3.660640 0.000000 
#    z 0.000000 0.000000 3.437540 
# 
# 
# High freq. dielectric constant tensor:
#      x y z
#    x 1.766980 0.000000 0.000000 
#    y 0.000000 1.773780 0.000000 
#    z 0.000000 0.000000 1.760960 
# 
# From -- ./inp_files/72835.got.cif
#   From: 2010.03.12/outbox.cif.g09.slc.cpg/sg63_37_cif.got.tgz:72835.got - 2010.04.10 19:34:48.
