data_PCOD8259970
_publ_section_title
;
Structure prediction by ZEFSAII (Michael W. Deem and Ramdas Pophale) SiO2 
 PCOD8259970
Probable space group: C M C M
;
_chemical_formula_sum "Si O2"
_cell_formula_units_Z 104
_cell_length_a 26.734469
_cell_length_b 21.243384
_cell_length_c 9.256631
_cell_angle_alpha 90.000000
_cell_angle_beta 90.000000
_cell_angle_gamma 90.000000
_cell_volume 5257.123915
_symmetry_space_group_name_H-M "C M C M"
_symmetry_group_IT_number 63
_symmetry_cell_setting 'orthorhombic'
loop_
_space_group_symop_operation_xyz
x,y,z
-x,-y,1/2+z
x,-y,-z
-x,y,1/2-z
-x,-y,-z
x,y,1/2-z
-x,y,z
x,-y,1/2+z
1/2+x,1/2+y,z
1/2-x,1/2-y,1/2+z
1/2+x,1/2-y,-z
1/2-x,1/2+y,1/2-z
1/2-x,1/2-y,-z
1/2+x,1/2+y,1/2-z
1/2-x,1/2+y,z
1/2+x,1/2-y,1/2+z
loop_
_atom_site_type_symbol
_atom_site_label
_atom_site_fract_x
_atom_site_fract_y
_atom_site_fract_z
Si Si1 0.125380 0.310735 0.420250
Si Si2 0.557187 0.389682 0.912905
Si Si3 0.213442 0.087111 0.590442
Si Si4 0.628911 0.500000 0.500000
Si Si5 0.798210 0.775603 0.077863
Si Si6 0.941348 0.767671 0.087777
Si Si7 0.177914 0.559149 0.919144
O O1 0.128929 0.297279 0.250000
O O2 0.155244 0.260676 0.515200
O O3 0.071098 0.293555 0.486306
O O4 0.143914 0.380525 0.456557
O O5 0.559225 0.363651 0.750000
O O6 0.500000 0.409839 0.952219
O O7 0.593343 0.450566 0.919502
O O8 0.576428 0.334158 0.017565
O O9 0.232390 0.102998 0.750000
O O10 0.194130 0.152480 0.524517
O O11 0.265520 0.065967 0.514366
O O12 0.168227 0.037171 0.601288
O O13 0.793688 0.767336 0.250000
O O14 0.750000 0.750000 0.000000
O O15 0.917912 0.763228 0.250000
O O16 0.000000 0.768543 0.099551
O O17 0.177511 0.545044 0.750000
O O18 0.152827 0.500000 0.000000
#
# Coordination Sequence:
#
# PCOD8259970 Si02
#       7
#    16  16  16   8  16  16  16
#     4  11  22  38  61  88 119 153 193 241 299 362
#     4  10  22  39  58  83 116 155 201 252 304 355
#     4  10  21  36  51  74 113 152 192 242 290 337
#     4  12  21  34  56  82 114 158 207 248 290 344
#     4  11  21  36  56  80 114 154 200 252 302 353
#     4  10  22  41  65  92 119 150 193 245 303 363
#     4  10  21  39  57  81 115 155 194 233 282 346
#
# _framework density 19.782679999999999
#
# number of rings (size 3 to 8) (size 9 to 14) (size 15 to 20)
#    0.000    1.538    2.308    3.000    0.000    4.615 
#    0.000    3.846    0.000    0.462    0.000    0.000 
#    0.000    0.000    0.000    0.000    0.000    0.000 
#
# Total GULP energy -644273.582407 kJ/mol
# GULP energy per Si atom -12389.876585 kJ/mol
# Density = 1.973765 g / cm^3
# Si number density = 19.782680 Si / 1000 Ang^3
#
#
#
# Elastic Constant Matrix: (Units=GPa)
#
#
# Indices 1 2 3 4 5 6 
#
# 1 62.7401 48.7141 29.5904 0.0000 0.0000 0.0000
# 2 48.7141 160.0861 66.8765 0.0000 0.0000 0.0000
# 3 29.5904 66.8765 104.3548 0.0000 0.0000 0.0000
# 4 0.0000 0.0000 0.0000 31.7076 0.0000 0.0000
# 5 0.0000 0.0000 0.0000 0.0000 27.9169 0.0000
# 6 0.0000 0.0000 0.0000 0.0000 0.0000 38.7839
#
#
#
# Elastic Compliance Matrix: (Units=1/GPa)
#
#
# Indices 1 2 3 4 5 6 
#
# 1 0.021368 -0.005423 -0.002584 0.000000 0.000000 0.000000
# 2 -0.005423 0.009907 -0.004811 0.000000 0.000000 0.000000
# 3 -0.002584 -0.004811 0.013399 0.000000 0.000000 0.000000
# 4 0.000000 0.000000 0.000000 0.031538 0.000000 0.000000
# 5 0.000000 0.000000 0.000000 0.000000 0.035821 0.000000
# 6 0.000000 0.000000 0.000000 0.000000 0.000000 0.025784
#
#
# Mechanical properties :
#
#
# Convention : Reuss Voigt Hill
#
# Bulk Modulus (GPa) = 52.52713 68.61590 60.57152
# Shear Modulus (GPa) = 29.44694 31.81501 30.63098
#
# Velocity S-wave (km/s) = 3.86232 4.01462 3.93921
# Velocity P-wave (km/s) = 6.81907 7.49998 7.16762
#
# Compressibility (1/GPa) = 0.01903778
#
# Stress axis : x y z
#
# Youngs Moduli (GPa) = 46.79918 100.94219 74.63516
#
# Poissons Ratio (x) = 0.54740 0.19283
# Poissons Ratio (y) = 0.25379 0.35907
# Poissons Ratio (z) = 0.12091 0.48564
#
# Static dielectric constant tensor:
#      x y z
#    x 3.049730 0.000000 0.000000 
#    y 0.000000 3.730580 0.000000 
#    z 0.000000 0.000000 3.597050 
# 
# 
# High freq. dielectric constant tensor:
#      x y z
#    x 1.769820 0.000000 0.000000 
#    y 0.000000 1.769700 0.000000 
#    z 0.000000 0.000000 1.766270 
# 
# From -- ./inp_files/12607.got.cif
#   From: 2010.03.12/outbox.cif.g09.slc.cpg/sg63_7_cif.got.tgz:12607.got - 2010.04.10 19:34:48.
