data_PCOD8259953
_publ_section_title
;
Structure prediction by ZEFSAII (Michael W. Deem and Ramdas Pophale) SiO2 
 PCOD8259953
Probable space group: C M C M
;
_chemical_formula_sum "Si O2"
_cell_formula_units_Z 96
_cell_length_a 8.894264
_cell_length_b 19.698420
_cell_length_c 29.018628
_cell_angle_alpha 90.000000
_cell_angle_beta 90.000000
_cell_angle_gamma 90.000000
_cell_volume 5084.149169
_symmetry_space_group_name_H-M "C M C M"
_symmetry_group_IT_number 63
_symmetry_cell_setting 'orthorhombic'
loop_
_space_group_symop_operation_xyz
x,y,z
-x,-y,1/2+z
x,-y,-z
-x,y,1/2-z
-x,-y,-z
x,y,1/2-z
-x,y,z
x,-y,1/2+z
1/2+x,1/2+y,z
1/2-x,1/2-y,1/2+z
1/2+x,1/2-y,-z
1/2-x,1/2+y,1/2-z
1/2-x,1/2-y,-z
1/2+x,1/2+y,1/2-z
1/2-x,1/2+y,z
1/2+x,1/2-y,1/2+z
loop_
_atom_site_type_symbol
_atom_site_label
_atom_site_fract_x
_atom_site_fract_y
_atom_site_fract_z
Si Si1 0.827784 0.247652 0.373631
Si Si2 0.828676 0.572927 0.522461
Si Si3 0.821461 0.107952 0.617295
Si Si4 0.678190 0.359802 0.801660
Si Si5 0.329036 0.690387 0.026667
Si Si6 0.178841 0.011131 0.698369
O O1 0.728803 0.314727 0.377061
O O2 0.756394 0.198895 0.334536
O O3 0.818432 0.203266 0.419429
O O4 0.000000 0.268643 0.363165
O O5 0.818042 0.500000 0.500000
O O6 0.743540 0.575279 0.570973
O O7 0.754403 0.621101 0.484712
O O8 0.000000 0.595735 0.531302
O O9 0.759717 0.064672 0.660880
O O10 0.000000 0.105176 0.614461
O O11 0.728346 0.341411 0.750000
O O12 0.500000 0.360079 0.806708
O O13 0.737853 0.435337 0.814510
O O14 0.500000 0.685234 0.009567
O O15 0.250000 0.750000 0.000000
O O16 0.235300 0.031067 0.750000
O O17 0.000000 0.010930 0.698141
#
# Coordination Sequence:
#
# PCOD8259953 Si02
#       6
#    16  16  16  16  16  16
#     4  10  21  35  55  82 113 145 181 228 277 329
#     4  11  25  42  58  80 113 150 188 236 287 334
#     4  11  22  35  57  84 112 147 187 230 278 334
#     4   8  15  31  55  81 108 141 183 227 272 326
#     4  11  22  37  59  83 114 150 188 230 277 334
#     4   8  16  32  54  81 111 142 181 229 277 327
#
# _framework density 18.882214999999999
#
# number of rings (size 3 to 8) (size 9 to 14) (size 15 to 20)
#    0.000    2.167    1.667    2.500    2.333    2.667 
#    0.000    0.000    0.000    1.500    0.000    4.667 
#    0.000    0.000    0.000    0.000    0.000    0.000 
#
# Total GULP energy -595129.525590 kJ/mol
# GULP energy per Si atom -12398.531783 kJ/mol
# Density = 1.883924 g / cm^3
# Si number density = 18.882215 Si / 1000 Ang^3
#
#
#
# Elastic Constant Matrix: (Units=GPa)
#
#
# Indices 1 2 3 4 5 6 
#
# 1 79.4432 47.5587 40.5697 0.0000 0.0000 0.0000
# 2 47.5587 102.0044 65.5151 0.0000 0.0000 0.0000
# 3 40.5697 65.5151 123.9342 0.0000 0.0000 0.0000
# 4 0.0000 0.0000 0.0000 42.7873 0.0000 0.0000
# 5 0.0000 0.0000 0.0000 0.0000 15.6801 0.0000
# 6 0.0000 0.0000 0.0000 0.0000 0.0000 17.4196
#
#
#
# Elastic Compliance Matrix: (Units=1/GPa)
#
#
# Indices 1 2 3 4 5 6 
#
# 1 0.017844 -0.006916 -0.002185 0.000000 0.000000 0.000000
# 2 -0.006916 0.017524 -0.007000 0.000000 0.000000 0.000000
# 3 -0.002185 -0.007000 0.012484 0.000000 0.000000 0.000000
# 4 0.000000 0.000000 0.000000 0.023371 0.000000 0.000000
# 5 0.000000 0.000000 0.000000 0.000000 0.063775 0.000000
# 6 0.000000 0.000000 0.000000 0.000000 0.000000 0.057406
#
#
# Mechanical properties :
#
#
# Convention : Reuss Voigt Hill
#
# Bulk Modulus (GPa) = 63.89664 68.07432 65.98548
# Shear Modulus (GPa) = 21.75587 25.29330 23.52459
#
# Velocity S-wave (km/s) = 3.39807 3.66393 3.53350
# Velocity P-wave (km/s) = 7.02203 7.35048 7.18813
#
# Compressibility (1/GPa) = 0.01565027
#
# Stress axis : x y z
#
# Youngs Moduli (GPa) = 56.04185 57.06543 80.10088
#
# Poissons Ratio (x) = 0.39467 0.17503
# Poissons Ratio (y) = 0.38759 0.56067
# Poissons Ratio (z) = 0.12246 0.39943
#
# Static dielectric constant tensor:
#      x y z
#    x 3.607280 0.000000 0.000000 
#    y 0.000000 3.586600 0.000000 
#    z 0.000000 0.000000 3.577890 
# 
# 
# High freq. dielectric constant tensor:
#      x y z
#    x 1.706100 0.000000 0.000000 
#    y 0.000000 1.743180 0.000000 
#    z 0.000000 0.000000 1.745130 
# 
# From -- ./inp_files/66884.got.cif
#   From: 2010.03.12/outbox.cif.g09.slc.cpg/sg63_34_cif.got.tgz:66884.got - 2010.04.10 19:34:48.
