data_PCOD8259984
_publ_section_title
;
Structure prediction by ZEFSAII (Michael W. Deem and Ramdas Pophale) SiO2 
 PCOD8259984
Probable space group: C M C M
;
_chemical_formula_sum "Si O2"
_cell_formula_units_Z 96
_cell_length_a 19.364164
_cell_length_b 9.046564
_cell_length_c 28.622070
_cell_angle_alpha 90.000000
_cell_angle_beta 90.000000
_cell_angle_gamma 90.000000
_cell_volume 5013.989863
_symmetry_space_group_name_H-M "C M C M"
_symmetry_group_IT_number 63
_symmetry_cell_setting 'orthorhombic'
loop_
_space_group_symop_operation_xyz
x,y,z
-x,-y,1/2+z
x,-y,-z
-x,y,1/2-z
-x,-y,-z
x,y,1/2-z
-x,y,z
x,-y,1/2+z
1/2+x,1/2+y,z
1/2-x,1/2-y,1/2+z
1/2+x,1/2-y,-z
1/2-x,1/2+y,1/2-z
1/2-x,1/2-y,-z
1/2+x,1/2+y,1/2-z
1/2-x,1/2+y,z
1/2+x,1/2-y,1/2+z
loop_
_atom_site_type_symbol
_atom_site_label
_atom_site_fract_x
_atom_site_fract_y
_atom_site_fract_z
Si Si1 0.576228 0.576004 0.548888
Si Si2 0.080036 0.197165 0.391148
Si Si3 0.707940 0.767370 0.548346
Si Si4 0.155004 0.873447 0.800767
Si Si5 0.689514 0.069279 0.901655
Si Si6 0.229100 0.419383 0.302039
O O1 0.566490 0.500000 0.500000
O O2 0.500000 0.633958 0.565467
O O3 0.605899 0.451059 0.583481
O O4 0.630077 0.708465 0.544435
O O5 0.095520 0.168244 0.336808
O O6 0.118935 0.340889 0.411381
O O7 0.000000 0.226625 0.399506
O O8 0.750000 0.750000 0.500000
O O9 0.747531 0.683408 0.589903
O O10 0.699159 0.938453 0.561477
O O11 0.119308 0.864741 0.750000
O O12 0.219175 0.757454 0.804506
O O13 0.190294 0.034340 0.808010
O O14 0.689061 0.013626 0.847446
O O15 0.203127 0.475249 0.250000
#
# Coordination Sequence:
#
# PCOD8259984 Si02
#       6
#    16  16  16  16  16  16
#     4  10  21  38  57  76 105 142 176 215 265 317
#     4  10  21  36  53  76 107 143 183 223 265 317
#     4  12  23  36  56  83 110 138 177 221 267 319
#     4   9  17  30  50  76 105 137 173 218 269 318
#     4  11  21  34  55  79 108 141 176 223 271 315
#     4   9  17  30  49  75 103 131 169 215 264 314
#
# _framework density 19.146429000000001
#
# number of rings (size 3 to 8) (size 9 to 14) (size 15 to 20)
#    0.000    1.833    0.000    6.500    0.000    1.000 
#    0.000    0.000    0.000    5.000    0.000    0.000 
#    0.000    6.667    0.000    0.000    0.000    0.000 
#
# Total GULP energy -594745.366726 kJ/mol
# GULP energy per Si atom -12390.528473 kJ/mol
# Density = 1.910285 g / cm^3
# Si number density = 19.146429 Si / 1000 Ang^3
#
#
#
# Elastic Constant Matrix: (Units=GPa)
#
#
# Indices 1 2 3 4 5 6 
#
# 1 87.5123 44.7033 29.5965 0.0000 0.0000 0.0000
# 2 44.7033 79.3641 38.9072 0.0000 0.0000 0.0000
# 3 29.5965 38.9072 111.6115 0.0000 0.0000 0.0000
# 4 0.0000 0.0000 0.0000 28.7234 0.0000 0.0000
# 5 0.0000 0.0000 0.0000 0.0000 25.5863 0.0000
# 6 0.0000 0.0000 0.0000 0.0000 0.0000 41.7631
#
#
#
# Elastic Compliance Matrix: (Units=1/GPa)
#
#
# Indices 1 2 3 4 5 6 
#
# 1 0.016209 -0.008470 -0.001345 0.000000 0.000000 0.000000
# 2 -0.008470 0.019624 -0.004595 0.000000 0.000000 0.000000
# 3 -0.001345 -0.004595 0.010918 0.000000 0.000000 0.000000
# 4 0.000000 0.000000 0.000000 0.034815 0.000000 0.000000
# 5 0.000000 0.000000 0.000000 0.000000 0.039083 0.000000
# 6 0.000000 0.000000 0.000000 0.000000 0.000000 0.023945
#
#
# Mechanical properties :
#
#
# Convention : Reuss Voigt Hill
#
# Bulk Modulus (GPa) = 55.77301 56.10021 55.93661
# Shear Modulus (GPa) = 27.87209 30.23327 29.05268
#
# Velocity S-wave (km/s) = 3.81955 3.97804 3.89960
# Velocity P-wave (km/s) = 6.97459 7.10380 7.03949
#
# Compressibility (1/GPa) = 0.01792982
#
# Stress axis : x y z
#
# Youngs Moduli (GPa) = 61.69470 50.95887 91.59118
#
# Poissons Ratio (x) = 0.43164 0.12323
# Poissons Ratio (y) = 0.52258 0.42082
# Poissons Ratio (z) = 0.08301 0.23414
#
# Static dielectric constant tensor:
#      x y z
#    x 3.425840 0.000000 0.000000 
#    y 0.000000 3.242060 0.000000 
#    z 0.000000 0.000000 3.758980 
# 
# 
# High freq. dielectric constant tensor:
#      x y z
#    x 1.716820 0.000000 0.000000 
#    y 0.000000 1.733940 0.000000 
#    z 0.000000 0.000000 1.767530 
# 
# From -- ./inp_files/70285.got.cif
#   From: 2010.03.12/outbox.cif.g09.slc.cpg/sg63_36_cif.got.tgz:70285.got - 2010.04.10 19:34:48.
