data_PCOD8259185
_publ_section_title
;
Structure prediction by ZEFSAII (Michael W. Deem and Ramdas Pophale) SiO2 
 PCOD8259185
Probable space group: C M C M
;
_chemical_formula_sum "Si O2"
_cell_formula_units_Z 96
_cell_length_a 8.855773
_cell_length_b 25.352680
_cell_length_c 23.168980
_cell_angle_alpha 90.000000
_cell_angle_beta 90.000000
_cell_angle_gamma 90.000000
_cell_volume 5201.843298
_symmetry_space_group_name_H-M "C M C M"
_symmetry_group_IT_number 63
_symmetry_cell_setting 'orthorhombic'
loop_
_space_group_symop_operation_xyz
x,y,z
-x,-y,1/2+z
x,-y,-z
-x,y,1/2-z
-x,-y,-z
x,y,1/2-z
-x,y,z
x,-y,1/2+z
1/2+x,1/2+y,z
1/2-x,1/2-y,1/2+z
1/2+x,1/2-y,-z
1/2-x,1/2+y,1/2-z
1/2-x,1/2-y,-z
1/2+x,1/2+y,1/2-z
1/2-x,1/2+y,z
1/2+x,1/2-y,1/2+z
loop_
_atom_site_type_symbol
_atom_site_label
_atom_site_fract_x
_atom_site_fract_y
_atom_site_fract_z
Si Si1 0.178502 0.937045 0.750000
Si Si2 0.821257 0.409472 0.867182
Si Si3 0.174845 0.995951 0.067085
Si Si4 0.173453 0.450221 0.250000
Si Si5 0.177991 0.310004 0.560625
Si Si6 0.674670 0.902915 0.128015
Si Si7 0.675932 0.796545 0.430608
O O1 0.243406 0.906776 0.805158
O O2 0.000000 0.933142 0.750000
O O3 0.223143 0.998411 0.750000
O O4 0.778177 0.463374 0.898637
O O5 0.759599 0.360377 0.904587
O O6 0.000000 0.408162 0.859026
O O7 0.000000 0.007233 0.080782
O O8 0.219159 0.937744 0.087411
O O9 0.210973 0.000000 0.000000
O O10 0.209711 0.414274 0.194779
O O11 0.000000 0.469443 0.250000
O O12 0.240470 0.256544 0.589430
O O13 0.232549 0.314404 0.494233
O O14 0.000000 0.309017 0.564935
O O15 0.500000 0.914401 0.112541
O O16 0.714801 0.842114 0.115246
O O17 0.500000 0.783788 0.432538
#
# Coordination Sequence:
#
# PCOD8259185 Si02
#       7
#     8  16  16   8  16  16  16
#     4  12  24  38  57  82 113 147 188 234 284 333
#     4  11  22  38  59  81 110 149 193 231 274 336
#     4  11  23  35  51  81 116 145 179 230 287 335
#     4  10  20  36  57  80 107 147 188 224 274 333
#     4   9  19  35  56  81 109 145 187 230 278 331
#     4  10  20  35  56  80 109 145 187 228 274 338
#     4   9  18  34  56  82 111 146 186 229 278 331
#
# _framework density 18.454996000000001
#
# number of rings (size 3 to 8) (size 9 to 14) (size 15 to 20)
#    0.000    1.833    1.667    2.750    0.000    4.667 
#    0.000    4.167    0.000    1.000    0.000    0.000 
#    0.000    0.000    0.000    0.000    0.000    0.000 
#
# Total GULP energy -595390.971332 kJ/mol
# GULP energy per Si atom -12403.978569 kJ/mol
# Density = 1.841299 g / cm^3
# Si number density = 18.454996 Si / 1000 Ang^3
#
#
#
# Elastic Constant Matrix: (Units=GPa)
#
#
# Indices 1 2 3 4 5 6 
#
# 1 51.5755 14.9049 29.4643 0.0000 0.0000 0.0000
# 2 14.9049 82.4818 24.5215 0.0000 0.0000 0.0000
# 3 29.4643 24.5215 85.8365 0.0000 0.0000 0.0000
# 4 0.0000 0.0000 0.0000 28.8300 0.0000 0.0000
# 5 0.0000 0.0000 0.0000 0.0000 24.0923 0.0000
# 6 0.0000 0.0000 0.0000 0.0000 0.0000 31.8199
#
#
#
# Elastic Compliance Matrix: (Units=1/GPa)
#
#
# Indices 1 2 3 4 5 6 
#
# 1 0.024448 -0.002101 -0.007792 0.000000 0.000000 0.000000
# 2 -0.002101 0.013430 -0.003115 0.000000 0.000000 0.000000
# 3 -0.007792 -0.003115 0.015215 0.000000 0.000000 0.000000
# 4 0.000000 0.000000 0.000000 0.034686 0.000000 0.000000
# 5 0.000000 0.000000 0.000000 0.000000 0.041507 0.000000
# 6 0.000000 0.000000 0.000000 0.000000 0.000000 0.031427
#
#
# Mechanical properties :
#
#
# Convention : Reuss Voigt Hill
#
# Bulk Modulus (GPa) = 36.93385 39.74170 38.33778
# Shear Modulus (GPa) = 25.54232 27.01530 26.27881
#
# Velocity S-wave (km/s) = 3.72430 3.83018 3.77761
# Velocity P-wave (km/s) = 6.20888 6.41416 6.31236
#
# Compressibility (1/GPa) = 0.02707543
#
# Stress axis : x y z
#
# Youngs Moduli (GPa) = 40.90391 74.46147 65.72658
#
# Poissons Ratio (x) = 0.15647 0.51211
# Poissons Ratio (y) = 0.08596 0.20475
# Poissons Ratio (z) = 0.31871 0.23197
#
# Static dielectric constant tensor:
#      x y z
#    x 3.335520 0.000000 0.000000 
#    y 0.000000 3.424490 0.000000 
#    z 0.000000 0.000000 3.774540 
# 
# 
# High freq. dielectric constant tensor:
#      x y z
#    x 1.713680 0.000000 0.000000 
#    y 0.000000 1.715040 0.000000 
#    z 0.000000 0.000000 1.716040 
# 
# From -- ./inp_files/60071.got.cif
#   From: 2010.03.12/outbox.cif.g09.slc.cpg/sg63_31_cif.got.tgz:60071.got - 2010.04.10 19:34:48.
