data_PCOD8259790
_publ_section_title
;
Structure prediction by ZEFSAII (Michael W. Deem and Ramdas Pophale) SiO2 
 PCOD8259790
Probable space group: C M C M
;
_chemical_formula_sum "Si O2"
_cell_formula_units_Z 64
_cell_length_a 23.921958
_cell_length_b 9.447491
_cell_length_c 15.370008
_cell_angle_alpha 90.000000
_cell_angle_beta 90.000000
_cell_angle_gamma 90.000000
_cell_volume 3473.659970
_symmetry_space_group_name_H-M "C M C M"
_symmetry_group_IT_number 63
_symmetry_cell_setting 'orthorhombic'
loop_
_space_group_symop_operation_xyz
x,y,z
-x,-y,1/2+z
x,-y,-z
-x,y,1/2-z
-x,-y,-z
x,y,1/2-z
-x,y,z
x,-y,1/2+z
1/2+x,1/2+y,z
1/2-x,1/2-y,1/2+z
1/2+x,1/2-y,-z
1/2-x,1/2+y,1/2-z
1/2-x,1/2-y,-z
1/2+x,1/2+y,1/2-z
1/2-x,1/2+y,z
1/2+x,1/2-y,1/2+z
loop_
_atom_site_type_symbol
_atom_site_label
_atom_site_fract_x
_atom_site_fract_y
_atom_site_fract_z
Si Si1 0.000000 0.127784 0.353449
Si Si2 0.309035 0.541579 0.750000
Si Si3 0.108423 0.041239 0.593680
Si Si4 0.000000 0.552665 0.646745
Si Si5 0.905602 0.654149 0.347539
Si Si6 0.803061 0.367371 0.750000
O O1 0.054057 0.051876 0.390418
O O2 0.000000 0.122245 0.250000
O O3 0.000000 0.288720 0.390092
O O4 0.345014 0.505121 0.834883
O O5 0.253787 0.449670 0.750000
O O6 0.288782 0.701963 0.750000
O O7 0.133626 0.000000 0.500000
O O8 0.091697 0.206894 0.592911
O O9 0.944964 0.468550 0.613092
O O10 0.000000 0.561078 0.750000
O O11 0.926644 0.699805 0.250000
O O12 0.841325 0.597850 0.335996
#
# Coordination Sequence:
#
# PCOD8259790 Si02
#       6
#     8   8  16   8  16   8
#     4  11  20  33  53  87 110 134 181 232 268 312
#     4  10  20  39  54  81 105 142 186 228 269 318
#     4  11  21  36  57  80 110 146 183 220 267 326
#     4   9  17  29  56  84 110 138 174 221 273 324
#     4   8  16  34  53  77 107 146 180 209 273 332
#     4   8  18  31  58  73 103 138 182 222 265 318
#
# _framework density 18.424371000000001
#
# number of rings (size 3 to 8) (size 9 to 14) (size 15 to 20)
#    0.750    1.750    2.500    1.125    0.000    3.000 
#    0.000    7.500    0.000    0.000    0.000    0.000 
#    0.000    0.000    0.000    0.000    0.000    0.000 
#
# Total GULP energy -396554.692509 kJ/mol
# GULP energy per Si atom -12392.334141 kJ/mol
# Density = 1.838244 g / cm^3
# Si number density = 18.424371 Si / 1000 Ang^3
#
#
#
# Elastic Constant Matrix: (Units=GPa)
#
#
# Indices 1 2 3 4 5 6 
#
# 1 167.0873 95.6480 40.3513 0.0000 0.0000 0.0000
# 2 95.6480 104.4643 21.2305 0.0000 0.0000 0.0000
# 3 40.3513 21.2305 74.0004 0.0000 0.0000 0.0000
# 4 0.0000 0.0000 0.0000 10.9810 0.0000 0.0000
# 5 0.0000 0.0000 0.0000 0.0000 21.6769 0.0000
# 6 0.0000 0.0000 0.0000 0.0000 0.0000 43.6945
#
#
#
# Elastic Compliance Matrix: (Units=1/GPa)
#
#
# Indices 1 2 3 4 5 6 
#
# 1 0.013655 -0.011669 -0.004098 0.000000 0.000000 0.000000
# 2 -0.011669 0.020138 0.000586 0.000000 0.000000 0.000000
# 3 -0.004098 0.000586 0.015580 0.000000 0.000000 0.000000
# 4 0.000000 0.000000 0.000000 0.091067 0.000000 0.000000
# 5 0.000000 0.000000 0.000000 0.000000 0.046132 0.000000
# 6 0.000000 0.000000 0.000000 0.000000 0.000000 0.022886
#
#
# Mechanical properties :
#
#
# Convention : Reuss Voigt Hill
#
# Bulk Modulus (GPa) = 52.60521 73.33465 62.96993
# Shear Modulus (GPa) = 20.31223 27.82527 24.06875
#
# Velocity S-wave (km/s) = 3.32394 3.89040 3.61827
# Velocity P-wave (km/s) = 6.58372 7.75047 7.19080
#
# Compressibility (1/GPa) = 0.01900952
#
# Stress axis : x y z
#
# Youngs Moduli (GPa) = 73.23572 49.65694 64.18537
#
# Poissons Ratio (x) = 0.57947 0.26301
# Poissons Ratio (y) = 0.85461 -0.03758
# Poissons Ratio (z) = 0.30010 -0.02908
#
# Static dielectric constant tensor:
#      x y z
#    x 3.314050 0.000000 0.000000 
#    y 0.000000 3.442980 0.000000 
#    z 0.000000 0.000000 3.217400 
# 
# 
# High freq. dielectric constant tensor:
#      x y z
#    x 1.707950 0.000000 0.000000 
#    y 0.000000 1.717440 0.000000 
#    z 0.000000 0.000000 1.686510 
# 
# From -- ./inp_files/48674.got.cif
#   From: 2010.03.12/outbox.cif.g09.slc.cpg/sg63_25_cif.got.tgz:48674.got - 2010.04.10 19:34:48.
