data_PCOD8259802
_publ_section_title
;
Structure prediction by ZEFSAII (Michael W. Deem and Ramdas Pophale) SiO2 
 PCOD8259802
Probable space group: C M C M
;
_chemical_formula_sum "Si O2"
_cell_formula_units_Z 72
_cell_length_a 14.900004
_cell_length_b 18.614530
_cell_length_c 13.583310
_cell_angle_alpha 90.000000
_cell_angle_beta 90.000000
_cell_angle_gamma 90.000000
_cell_volume 3767.420291
_symmetry_space_group_name_H-M "C M C M"
_symmetry_group_IT_number 63
_symmetry_cell_setting 'orthorhombic'
loop_
_space_group_symop_operation_xyz
x,y,z
-x,-y,1/2+z
x,-y,-z
-x,y,1/2-z
-x,-y,-z
x,y,1/2-z
-x,y,z
x,-y,1/2+z
1/2+x,1/2+y,z
1/2-x,1/2-y,1/2+z
1/2+x,1/2-y,-z
1/2-x,1/2+y,1/2-z
1/2-x,1/2-y,-z
1/2+x,1/2+y,1/2-z
1/2-x,1/2+y,z
1/2+x,1/2-y,1/2+z
loop_
_atom_site_type_symbol
_atom_site_label
_atom_site_fract_x
_atom_site_fract_y
_atom_site_fract_z
Si Si1 0.103054 0.762360 0.437465
Si Si2 0.729854 0.615001 0.639688
Si Si3 0.398791 0.792054 0.358241
Si Si4 0.605123 0.894835 0.863496
Si Si5 0.284010 0.000000 0.000000
O O1 0.163329 0.820630 0.384915
O O2 0.119028 0.766187 0.555863
O O3 0.133600 0.684304 0.399687
O O4 0.000000 0.777845 0.409458
O O5 0.708855 0.588517 0.750000
O O6 0.832993 0.640524 0.630971
O O7 0.717402 0.549811 0.564066
O O8 0.386206 0.755690 0.250000
O O9 0.500000 0.822722 0.370617
O O10 0.633032 0.903683 0.750000
O O11 0.500000 0.906133 0.878830
O O12 0.655290 0.954451 0.926325
#
# Coordination Sequence:
#
# PCOD8259802 Si02
#       5
#    16  16  16  16   8
#     4  10  20  39  63  85 111 146 195 247 285 328
#     4  11  23  38  58  85 115 154 195 234 286 341
#     4   9  18  33  56  87 118 146 181 228 284 340
#     4  10  21  36  56  83 112 146 189 237 288 342
#     4  12  23  36  53  78 122 154 186 228 288 354
#
# _framework density 19.111221
#
# number of rings (size 3 to 8) (size 9 to 14) (size 15 to 20)
#    0.000    1.778    2.222    2.333    0.000    2.222 
#    0.000    3.889    0.000    0.000    0.000    0.000 
#    0.000    0.000    0.000    0.000    0.000    0.000 
#
# Total GULP energy -446385.585098 kJ/mol
# GULP energy per Si atom -12399.599586 kJ/mol
# Density = 1.906772 g / cm^3
# Si number density = 19.111221 Si / 1000 Ang^3
#
#
#
# Elastic Constant Matrix: (Units=GPa)
#
#
# Indices 1 2 3 4 5 6 
#
# 1 54.9010 42.4635 36.2603 0.0000 0.0000 0.0000
# 2 42.4635 102.8102 60.4203 0.0000 0.0000 0.0000
# 3 36.2603 60.4203 152.3484 0.0000 0.0000 0.0000
# 4 0.0000 0.0000 0.0000 29.0117 0.0000 0.0000
# 5 0.0000 0.0000 0.0000 0.0000 23.2084 0.0000
# 6 0.0000 0.0000 0.0000 0.0000 0.0000 19.1052
#
#
#
# Elastic Compliance Matrix: (Units=1/GPa)
#
#
# Indices 1 2 3 4 5 6 
#
# 1 0.027572 -0.009820 -0.002668 0.000000 0.000000 0.000000
# 2 -0.009820 0.016180 -0.004080 0.000000 0.000000 0.000000
# 3 -0.002668 -0.004080 0.008817 0.000000 0.000000 0.000000
# 4 0.000000 0.000000 0.000000 0.034469 0.000000 0.000000
# 5 0.000000 0.000000 0.000000 0.000000 0.043088 0.000000
# 6 0.000000 0.000000 0.000000 0.000000 0.000000 0.052342
#
#
# Mechanical properties :
#
#
# Convention : Reuss Voigt Hill
#
# Bulk Modulus (GPa) = 51.45668 65.37198 58.41433
# Shear Modulus (GPa) = 22.51429 25.65941 24.08685
#
# Velocity S-wave (km/s) = 3.43602 3.66818 3.55399
# Velocity P-wave (km/s) = 6.53643 7.22641 6.89006
#
# Compressibility (1/GPa) = 0.01943382
#
# Stress axis : x y z
#
# Youngs Moduli (GPa) = 36.26853 61.80355 113.41948
#
# Poissons Ratio (x) = 0.60693 0.30258
# Poissons Ratio (y) = 0.35617 0.46272
# Poissons Ratio (z) = 0.09676 0.25214
#
# Static dielectric constant tensor:
#      x y z
#    x 3.353630 0.000000 0.000000 
#    y 0.000000 3.223930 0.000000 
#    z 0.000000 0.000000 4.038150 
# 
# 
# High freq. dielectric constant tensor:
#      x y z
#    x 1.728120 0.000000 0.000000 
#    y 0.000000 1.708260 0.000000 
#    z 0.000000 0.000000 1.776520 
# 
# From -- ./inp_files/33662.got.cif
#   From: 2010.03.12/outbox.cif.g09.slc.cpg/sg63_17_cif.got.tgz:33662.got - 2010.04.10 19:34:48.
