data_PCOD8259014
_publ_section_title
;
Structure prediction by ZEFSAII (Michael W. Deem and Ramdas Pophale) SiO2 
 PCOD8259014
Probable space group: C M C M
;
_chemical_formula_sum "Si O2"
_cell_formula_units_Z 96
_cell_length_a 8.847895
_cell_length_b 20.419245
_cell_length_c 26.749982
_cell_angle_alpha 90.000000
_cell_angle_beta 90.000000
_cell_angle_gamma 90.000000
_cell_volume 4832.847979
_symmetry_space_group_name_H-M "C M C M"
_symmetry_group_IT_number 63
_symmetry_cell_setting 'orthorhombic'
loop_
_space_group_symop_operation_xyz
x,y,z
-x,-y,1/2+z
x,-y,-z
-x,y,1/2-z
-x,-y,-z
x,y,1/2-z
-x,y,z
x,-y,1/2+z
1/2+x,1/2+y,z
1/2-x,1/2-y,1/2+z
1/2+x,1/2-y,-z
1/2-x,1/2+y,1/2-z
1/2-x,1/2-y,-z
1/2+x,1/2+y,1/2-z
1/2-x,1/2+y,z
1/2+x,1/2-y,1/2+z
loop_
_atom_site_type_symbol
_atom_site_label
_atom_site_fract_x
_atom_site_fract_y
_atom_site_fract_z
Si Si1 0.678134 0.191403 0.030944
Si Si2 0.825667 0.819232 0.636123
Si Si3 0.324246 0.428978 0.022438
Si Si4 0.319873 0.552605 0.306349
Si Si5 0.821640 0.926781 0.135345
Si Si6 0.673018 0.812464 0.306885
O O1 0.500000 0.197649 0.026650
O O2 0.726093 0.197702 0.088300
O O3 0.750000 0.250000 0.000000
O O4 0.730102 0.121887 0.009925
O O5 0.763673 0.884978 0.662180
O O6 0.806517 0.762023 0.676337
O O7 0.000000 0.827465 0.619427
O O8 0.500000 0.409099 0.020257
O O9 0.260735 0.428857 0.078819
O O10 0.296492 0.500000 0.000000
O O11 0.254652 0.555425 0.250000
O O12 0.500000 0.552084 0.304520
O O13 0.254725 0.487606 0.333138
O O14 0.775707 0.858550 0.159505
O O15 0.000000 0.932798 0.134790
O O16 0.728152 0.817955 0.250000
O O17 0.500000 0.834864 0.312608
#
# Coordination Sequence:
#
# PCOD8259014 Si02
#       6
#    16  16  16  16  16  16
#     4  12  25  40  59  84 115 151 192 238 288 342
#     4  10  20  37  60  83 109 144 187 234 281 331
#     4  10  21  39  62  87 116 151 191 235 285 340
#     4   9  17  32  57  86 112 142 184 229 272 325
#     4  10  20  34  56  84 111 143 184 228 274 327
#     4  10  21  36  55  81 112 146 183 225 277 335
#
# _framework density 19.864063999999999
#
# number of rings (size 3 to 8) (size 9 to 14) (size 15 to 20)
#    0.000    1.833    0.000    4.500    0.000   10.000 
#    0.000    2.500    0.000    2.500    0.000    0.000 
#    0.000    0.000    0.000    0.000    0.000    0.000 
#
# Total GULP energy -595413.178388 kJ/mol
# GULP energy per Si atom -12404.441216 kJ/mol
# Density = 1.981885 g / cm^3
# Si number density = 19.864064 Si / 1000 Ang^3
#
#
#
# Elastic Constant Matrix: (Units=GPa)
#
#
# Indices 1 2 3 4 5 6 
#
# 1 53.2439 20.9151 25.8614 0.0000 0.0000 0.0000
# 2 20.9151 87.6539 20.9480 0.0000 0.0000 0.0000
# 3 25.8614 20.9480 125.8317 0.0000 0.0000 0.0000
# 4 0.0000 0.0000 0.0000 43.2268 0.0000 0.0000
# 5 0.0000 0.0000 0.0000 0.0000 20.8755 0.0000
# 6 0.0000 0.0000 0.0000 0.0000 0.0000 25.8319
#
#
#
# Elastic Compliance Matrix: (Units=1/GPa)
#
#
# Indices 1 2 3 4 5 6 
#
# 1 0.022396 -0.004420 -0.003867 0.000000 0.000000 0.000000
# 2 -0.004420 0.012753 -0.001215 0.000000 0.000000 0.000000
# 3 -0.003867 -0.001215 0.008944 0.000000 0.000000 0.000000
# 4 0.000000 0.000000 0.000000 0.023134 0.000000 0.000000
# 5 0.000000 0.000000 0.000000 0.000000 0.047903 0.000000
# 6 0.000000 0.000000 0.000000 0.000000 0.000000 0.038712
#
#
# Mechanical properties :
#
#
# Convention : Reuss Voigt Hill
#
# Bulk Modulus (GPa) = 39.85609 44.68649 42.27129
# Shear Modulus (GPa) = 27.59246 31.25384 29.42315
#
# Velocity S-wave (km/s) = 3.73106 3.97090 3.85284
# Velocity P-wave (km/s) = 6.21844 6.60068 6.41241
#
# Compressibility (1/GPa) = 0.02509027
#
# Stress axis : x y z
#
# Youngs Moduli (GPa) = 44.65091 78.41044 111.80498
#
# Poissons Ratio (x) = 0.34655 0.43236
# Poissons Ratio (y) = 0.19734 0.13582
# Poissons Ratio (z) = 0.17267 0.09525
#
# Static dielectric constant tensor:
#      x y z
#    x 3.361470 0.000000 0.000000 
#    y 0.000000 3.710070 0.000000 
#    z 0.000000 0.000000 3.857470 
# 
# 
# High freq. dielectric constant tensor:
#      x y z
#    x 1.740430 0.000000 0.000000 
#    y 0.000000 1.791430 0.000000 
#    z 0.000000 0.000000 1.794720 
# 
# From -- ./inp_files/66911.got.cif
#   From: 2010.03.12/outbox.cif.g09.slc.cpg/sg63_34_cif.got.tgz:66911.got - 2010.04.10 19:34:48.
