data_PCOD8259252
_publ_section_title
;
Structure prediction by ZEFSAII (Michael W. Deem and Ramdas Pophale) SiO2 
 PCOD8259252
Probable space group: C M C M
;
_chemical_formula_sum "Si O2"
_cell_formula_units_Z 88
_cell_length_a 23.300009
_cell_length_b 20.056291
_cell_length_c 8.861798
_cell_angle_alpha 90.000000
_cell_angle_beta 90.000000
_cell_angle_gamma 90.000000
_cell_volume 4141.222427
_symmetry_space_group_name_H-M "C M C M"
_symmetry_group_IT_number 63
_symmetry_cell_setting 'orthorhombic'
loop_
_space_group_symop_operation_xyz
x,y,z
-x,-y,1/2+z
x,-y,-z
-x,y,1/2-z
-x,-y,-z
x,y,1/2-z
-x,y,z
x,-y,1/2+z
1/2+x,1/2+y,z
1/2-x,1/2-y,1/2+z
1/2+x,1/2-y,-z
1/2-x,1/2+y,1/2-z
1/2-x,1/2-y,-z
1/2+x,1/2+y,1/2-z
1/2-x,1/2+y,z
1/2+x,1/2-y,1/2+z
loop_
_atom_site_type_symbol
_atom_site_label
_atom_site_fract_x
_atom_site_fract_y
_atom_site_fract_z
Si Si1 0.587346 0.562241 0.414336
Si Si2 0.220672 0.063189 0.082780
Si Si3 0.892252 0.334905 0.927573
Si Si4 0.500000 0.073825 0.429245
Si Si5 0.772325 0.681741 0.571705
Si Si6 0.434303 0.706720 0.419563
O O1 0.558330 0.500000 0.500000
O O2 0.558123 0.565659 0.250000
O O3 0.654157 0.548449 0.397865
O O4 0.574551 0.633455 0.492912
O O5 0.248299 0.073438 0.250000
O O6 0.225734 0.127382 0.976445
O O7 0.250385 0.000000 0.000000
O O8 0.883574 0.341318 0.750000
O O9 0.942837 0.385511 0.982056
O O10 0.832268 0.348937 0.010536
O O11 0.905794 0.258712 0.967831
O O12 0.500000 0.066778 0.250000
O O13 0.500000 0.000000 0.500000
O O14 0.775677 0.690844 0.750000
O O15 0.750000 0.750000 0.500000
O O16 0.406359 0.710399 0.250000
O O17 0.500000 0.725948 0.407614
#
# Coordination Sequence:
#
# PCOD8259252 Si02
#       6
#    16  16  16   8  16  16
#     4   9  19  34  53  80 115 154 198 243 291 346
#     4  10  20  37  59  84 118 159 203 251 304 365
#     4  11  23  42  64  91 125 161 206 262 319 383
#     4  10  24  44  68  96 127 164 213 268 327 388
#     4  12  25  41  63  94 127 165 210 262 323 388
#     4  10  20  35  57  84 116 156 200 247 299 358
#
# _framework density 21.249763999999999
#
# number of rings (size 3 to 8) (size 9 to 14) (size 15 to 20)
#    0.000    1.636    0.909    3.818    0.000    5.455 
#    0.000    1.818    0.000    0.000    0.000    0.000 
#    0.000    0.000    0.000    0.000    0.000    0.000 
#
# Total GULP energy -545394.976576 kJ/mol
# GULP energy per Si atom -12395.340377 kJ/mol
# Density = 2.120140 g / cm^3
# Si number density = 21.249764 Si / 1000 Ang^3
#
#
#
# Elastic Constant Matrix: (Units=GPa)
#
#
# Indices 1 2 3 4 5 6 
#
# 1 66.2420 13.3405 30.7539 0.0000 0.0000 0.0000
# 2 13.3405 140.4444 42.8610 0.0000 0.0000 0.0000
# 3 30.7539 42.8610 113.2932 0.0000 0.0000 0.0000
# 4 0.0000 0.0000 0.0000 38.9164 0.0000 0.0000
# 5 0.0000 0.0000 0.0000 0.0000 19.9389 0.0000
# 6 0.0000 0.0000 0.0000 0.0000 0.0000 27.6924
#
#
#
# Elastic Compliance Matrix: (Units=1/GPa)
#
#
# Indices 1 2 3 4 5 6 
#
# 1 0.017280 -0.000237 -0.004601 0.000000 0.000000 0.000000
# 2 -0.000237 0.008053 -0.002982 0.000000 0.000000 0.000000
# 3 -0.004601 -0.002982 0.011204 0.000000 0.000000 0.000000
# 4 0.000000 0.000000 0.000000 0.025696 0.000000 0.000000
# 5 0.000000 0.000000 0.000000 0.000000 0.050153 0.000000
# 6 0.000000 0.000000 0.000000 0.000000 0.000000 0.036111
#
#
# Mechanical properties :
#
#
# Convention : Reuss Voigt Hill
#
# Bulk Modulus (GPa) = 47.85619 54.87671 51.36645
# Shear Modulus (GPa) = 29.22216 32.84450 31.03333
#
# Velocity S-wave (km/s) = 3.71236 3.93573 3.82567
# Velocity P-wave (km/s) = 6.39884 6.82158 6.61359
#
# Compressibility (1/GPa) = 0.02089594
#
# Stress axis : x y z
#
# Youngs Moduli (GPa) = 57.87027 124.17905 89.25526
#
# Poissons Ratio (x) = 0.02946 0.41066
# Poissons Ratio (y) = 0.01373 0.26617
# Poissons Ratio (z) = 0.26626 0.37032
#
# Static dielectric constant tensor:
#      x y z
#    x 3.857040 0.000000 0.000000 
#    y 0.000000 3.941310 0.000000 
#    z 0.000000 0.000000 3.456480 
# 
# 
# High freq. dielectric constant tensor:
#      x y z
#    x 1.828460 0.000000 0.000000 
#    y 0.000000 1.842960 0.000000 
#    z 0.000000 0.000000 1.828040 
# 
# From -- ./inp_files/10197.got.cif
#   From: 2010.03.12/outbox.cif.g09.slc.cpg/sg63_6_cif.got.tgz:10197.got - 2010.04.10 19:34:48.
