data_PCOD8259630
_publ_section_title
;
Structure prediction by ZEFSAII (Michael W. Deem and Ramdas Pophale) SiO2 
 PCOD8259630
Probable space group: C M C M
;
_chemical_formula_sum "Si O2"
_cell_formula_units_Z 96
_cell_length_a 8.753430
_cell_length_b 24.976747
_cell_length_c 23.550202
_cell_angle_alpha 90.000000
_cell_angle_beta 90.000000
_cell_angle_gamma 90.000000
_cell_volume 5148.832627
_symmetry_space_group_name_H-M "C M C M"
_symmetry_group_IT_number 63
_symmetry_cell_setting 'orthorhombic'
loop_
_space_group_symop_operation_xyz
x,y,z
-x,-y,1/2+z
x,-y,-z
-x,y,1/2-z
-x,-y,-z
x,y,1/2-z
-x,y,z
x,-y,1/2+z
1/2+x,1/2+y,z
1/2-x,1/2-y,1/2+z
1/2+x,1/2-y,-z
1/2-x,1/2+y,1/2-z
1/2-x,1/2-y,-z
1/2+x,1/2+y,1/2-z
1/2-x,1/2+y,z
1/2+x,1/2-y,1/2+z
loop_
_atom_site_type_symbol
_atom_site_label
_atom_site_fract_x
_atom_site_fract_y
_atom_site_fract_z
Si Si1 0.823979 0.736333 0.638839
Si Si2 0.322282 0.225959 0.250000
Si Si3 0.820465 0.109175 0.250000
Si Si4 0.321983 0.338571 0.563895
Si Si5 0.320604 0.069646 0.136609
Si Si6 0.179096 0.644790 0.553528
Si Si7 0.819400 0.524122 0.942067
O O1 0.721414 0.739982 0.694763
O O2 0.783226 0.783757 0.595729
O O3 0.785795 0.680229 0.608761
O O4 0.000000 0.739472 0.657453
O O5 0.500000 0.213963 0.250000
O O6 0.238757 0.169351 0.250000
O O7 0.767110 0.077018 0.304868
O O8 0.000000 0.112751 0.250000
O O9 0.500000 0.353039 0.568823
O O10 0.222008 0.385363 0.591113
O O11 0.273863 0.331323 0.498800
O O12 0.500000 0.072718 0.148478
O O13 0.269702 0.012213 0.111332
O O14 0.236899 0.584758 0.567247
O O15 0.000000 0.646515 0.538006
O O16 0.000000 0.522803 0.947801
O O17 0.747149 0.500000 0.000000
#
# Coordination Sequence:
#
# PCOD8259630 Si02
#       7
#    16   8   8  16  16  16  16
#     4  10  22  38  57  82 116 152 191 237 289 338
#     4  12  24  38  61  84 109 151 194 232 282 341
#     4  12  24  40  59  84 119 147 184 238 290 339
#     4  11  21  33  53  85 121 152 183 236 291 339
#     4  11  21  36  60  87 113 148 193 235 281 339
#     4  10  20  37  59  83 114 157 195 233 283 339
#     4   9  17  33  58  86 113 143 190 241 276 322
#
# _framework density 18.645002000000002
#
# number of rings (size 3 to 8) (size 9 to 14) (size 15 to 20)
#    0.000    1.500    3.333    3.000    0.000    1.333 
#    0.000    3.333    0.000    5.000    0.000    0.000 
#    0.000    0.000    0.000    0.000    0.000    0.000 
#
# Total GULP energy -595372.294862 kJ/mol
# GULP energy per Si atom -12403.589476 kJ/mol
# Density = 1.860257 g / cm^3
# Si number density = 18.645002 Si / 1000 Ang^3
#
#
#
# Elastic Constant Matrix: (Units=GPa)
#
#
# Indices 1 2 3 4 5 6 
#
# 1 81.9339 40.6516 52.5646 0.0000 0.0000 0.0000
# 2 40.6516 136.3837 69.1067 0.0000 0.0000 0.0000
# 3 52.5646 69.1067 139.0753 0.0000 0.0000 0.0000
# 4 0.0000 0.0000 0.0000 23.8728 0.0000 0.0000
# 5 0.0000 0.0000 0.0000 0.0000 33.6369 0.0000
# 6 0.0000 0.0000 0.0000 0.0000 0.0000 20.5889
#
#
#
# Elastic Compliance Matrix: (Units=1/GPa)
#
#
# Indices 1 2 3 4 5 6 
#
# 1 0.016667 -0.002374 -0.005120 0.000000 0.000000 0.000000
# 2 -0.002374 0.010138 -0.004140 0.000000 0.000000 0.000000
# 3 -0.005120 -0.004140 0.011183 0.000000 0.000000 0.000000
# 4 0.000000 0.000000 0.000000 0.041889 0.000000 0.000000
# 5 0.000000 0.000000 0.000000 0.000000 0.029729 0.000000
# 6 0.000000 0.000000 0.000000 0.000000 0.000000 0.048570
#
#
# Mechanical properties :
#
#
# Convention : Reuss Voigt Hill
#
# Bulk Modulus (GPa) = 67.93532 75.78208 71.85870
# Shear Modulus (GPa) = 26.83114 28.62438 27.72776
#
# Velocity S-wave (km/s) = 3.79760 3.92245 3.86053
# Velocity P-wave (km/s) = 7.46621 7.82605 7.64825
#
# Compressibility (1/GPa) = 0.01471988
#
# Stress axis : x y z
#
# Youngs Moduli (GPa) = 59.99718 98.64192 89.42259
#
# Poissons Ratio (x) = 0.23414 0.45786
# Poissons Ratio (y) = 0.14241 0.37024
# Poissons Ratio (z) = 0.30719 0.40841
#
# Static dielectric constant tensor:
#      x y z
#    x 3.303280 0.000000 0.000000 
#    y 0.000000 3.613280 0.000000 
#    z 0.000000 0.000000 3.492220 
# 
# 
# High freq. dielectric constant tensor:
#      x y z
#    x 1.712240 0.000000 0.000000 
#    y 0.000000 1.724530 0.000000 
#    z 0.000000 0.000000 1.726520 
# 
# From -- ./inp_files/59981.got.cif
#   From: 2010.03.12/outbox.cif.g09.slc.cpg/sg63_30_cif.got.tgz:59981.got - 2010.04.10 19:34:48.
