data_PCOD8259295
_publ_section_title
;
Structure prediction by ZEFSAII (Michael W. Deem and Ramdas Pophale) SiO2 
 PCOD8259295
Probable space group: C M C M
;
_chemical_formula_sum "Si O2"
_cell_formula_units_Z 104
_cell_length_a 22.022450
_cell_length_b 28.328018
_cell_length_c 8.563906
_cell_angle_alpha 90.000000
_cell_angle_beta 90.000000
_cell_angle_gamma 90.000000
_cell_volume 5342.612969
_symmetry_space_group_name_H-M "C M C M"
_symmetry_group_IT_number 63
_symmetry_cell_setting 'orthorhombic'
loop_
_space_group_symop_operation_xyz
x,y,z
-x,-y,1/2+z
x,-y,-z
-x,y,1/2-z
-x,-y,-z
x,y,1/2-z
-x,y,z
x,-y,1/2+z
1/2+x,1/2+y,z
1/2-x,1/2-y,1/2+z
1/2+x,1/2-y,-z
1/2-x,1/2+y,1/2-z
1/2-x,1/2-y,-z
1/2+x,1/2+y,1/2-z
1/2-x,1/2+y,z
1/2+x,1/2-y,1/2+z
loop_
_atom_site_type_symbol
_atom_site_label
_atom_site_fract_x
_atom_site_fract_y
_atom_site_fract_z
Si Si1 0.620331 0.898361 0.934528
Si Si2 0.673884 0.197977 0.570028
Si Si3 0.500000 0.946419 0.435380
Si Si4 0.164019 0.889227 0.927736
Si Si5 0.817576 0.204546 0.572141
Si Si6 0.232735 0.450079 0.066953
Si Si7 0.571267 0.548719 0.926403
O O1 0.612176 0.895747 0.750000
O O2 0.640186 0.846820 0.995676
O O3 0.558070 0.916476 0.009640
O O4 0.671495 0.936219 0.977978
O O5 0.654738 0.200653 0.750000
O O6 0.745970 0.196766 0.549847
O O7 0.654457 0.245561 0.481204
O O8 0.500000 0.949952 0.250000
O O9 0.500000 0.000000 0.500000
O O10 0.183650 0.897526 0.750000
O O11 0.152877 0.834430 0.961598
O O12 0.215580 0.911231 0.038548
O O13 0.099095 0.911422 0.964693
O O14 0.836893 0.196547 0.750000
O O15 0.219103 0.452983 0.250000
O O16 0.255650 0.500000 0.000000
O O17 0.596320 0.551881 0.750000
O O18 0.500000 0.554884 0.931135
O O19 0.592915 0.500000 0.000000
#
# Coordination Sequence:
#
# PCOD8259295 Si02
#       7
#    16  16   8  16  16  16  16
#     4  12  24  41  64  91 122 159 203 250 306 364
#     4  10  20  36  60  89 121 157 195 240 294 353
#     4  12  26  46  68  92 124 164 212 260 311 372
#     4  12  23  36  57  86 119 155 194 242 295 351
#     4  10  20  35  58  88 123 157 195 241 293 352
#     4  12  24  39  57  84 120 157 196 243 298 356
#     4  10  21  38  59  82 112 152 196 239 286 345
#
# _framework density 19.466131000000001
#
# number of rings (size 3 to 8) (size 9 to 14) (size 15 to 20)
#    0.000    0.923    1.538    7.154    0.000    2.154 
#    0.000    0.000    1.692    0.000    0.000    0.000 
#    0.000    0.000    0.000    0.000    0.000    0.000 
#
# Total GULP energy -644899.798596 kJ/mol
# GULP energy per Si atom -12401.919204 kJ/mol
# Density = 1.942183 g / cm^3
# Si number density = 19.466131 Si / 1000 Ang^3
#
#
#
# Elastic Constant Matrix: (Units=GPa)
#
#
# Indices 1 2 3 4 5 6 
#
# 1 43.9247 40.5083 38.6755 0.0000 0.0000 0.0000
# 2 40.5083 125.2599 52.8040 0.0000 0.0000 0.0000
# 3 38.6755 52.8040 149.6417 0.0000 0.0000 0.0000
# 4 0.0000 0.0000 0.0000 38.9579 0.0000 0.0000
# 5 0.0000 0.0000 0.0000 0.0000 29.8306 0.0000
# 6 0.0000 0.0000 0.0000 0.0000 0.0000 27.7661
#
#
#
# Elastic Compliance Matrix: (Units=1/GPa)
#
#
# Indices 1 2 3 4 5 6 
#
# 1 0.036816 -0.009274 -0.006243 0.000000 0.000000 0.000000
# 2 -0.009274 0.011715 -0.001737 0.000000 0.000000 0.000000
# 3 -0.006243 -0.001737 0.008909 0.000000 0.000000 0.000000
# 4 0.000000 0.000000 0.000000 0.025669 0.000000 0.000000
# 5 0.000000 0.000000 0.000000 0.000000 0.033523 0.000000
# 6 0.000000 0.000000 0.000000 0.000000 0.000000 0.036015
#
#
# Mechanical properties :
#
#
# Convention : Reuss Voigt Hill
#
# Bulk Modulus (GPa) = 43.60713 64.75577 54.18145
# Shear Modulus (GPa) = 25.66766 31.76681 28.71724
#
# Velocity S-wave (km/s) = 3.63517 4.04406 3.84505
# Velocity P-wave (km/s) = 6.33004 7.42590 6.89976
#
# Compressibility (1/GPa) = 0.02293203
#
# Stress axis : x y z
#
# Youngs Moduli (GPa) = 27.16226 85.36176 112.24725
#
# Poissons Ratio (x) = 0.79168 0.70071
# Poissons Ratio (y) = 0.25191 0.19495
# Poissons Ratio (z) = 0.16956 0.14826
#
# Static dielectric constant tensor:
#      x y z
#    x 3.385730 0.000000 0.000000 
#    y 0.000000 3.705810 0.000000 
#    z 0.000000 0.000000 3.752320 
# 
# 
# High freq. dielectric constant tensor:
#      x y z
#    x 1.734130 0.000000 0.000000 
#    y 0.000000 1.771480 0.000000 
#    z 0.000000 0.000000 1.779400 
# 
# From -- ./inp_files/8759.got.cif
#   From: 2010.03.12/outbox.cif.g09.slc.cpg/sg63_5_cif.got.tgz:8759.got - 2010.04.10 19:34:48.
