data_PCOD8259885
_publ_section_title
;
Structure prediction by ZEFSAII (Michael W. Deem and Ramdas Pophale) SiO2 
 PCOD8259885
Probable space group: C M C M
;
_chemical_formula_sum "Si O2"
_cell_formula_units_Z 120
_cell_length_a 26.318703
_cell_length_b 24.830406
_cell_length_c 10.031909
_cell_angle_alpha 90.000000
_cell_angle_beta 90.000000
_cell_angle_gamma 90.000000
_cell_volume 6555.893471
_symmetry_space_group_name_H-M "C M C M"
_symmetry_group_IT_number 63
_symmetry_cell_setting 'orthorhombic'
loop_
_space_group_symop_operation_xyz
x,y,z
-x,-y,1/2+z
x,-y,-z
-x,y,1/2-z
-x,-y,-z
x,y,1/2-z
-x,y,z
x,-y,1/2+z
1/2+x,1/2+y,z
1/2-x,1/2-y,1/2+z
1/2+x,1/2-y,-z
1/2-x,1/2+y,1/2-z
1/2-x,1/2-y,-z
1/2+x,1/2+y,1/2-z
1/2-x,1/2+y,z
1/2+x,1/2-y,1/2+z
loop_
_atom_site_type_symbol
_atom_site_label
_atom_site_fract_x
_atom_site_fract_y
_atom_site_fract_z
Si Si1 0.870251 0.542953 0.105141
Si Si2 0.369877 0.500000 0.500000
Si Si3 0.282783 0.128618 0.102756
Si Si4 0.441481 0.592388 0.401412
Si Si5 0.201978 0.088849 0.895015
Si Si6 0.944270 0.370286 0.908119
Si Si7 0.361726 0.789060 0.908898
Si Si8 0.886327 0.829597 0.098659
O O1 0.876542 0.514948 0.250000
O O2 0.830767 0.590709 0.118922
O O3 0.923031 0.570113 0.057312
O O4 0.850565 0.500000 0.000000
O O5 0.406258 0.539514 0.415884
O O6 0.332357 0.464534 0.409504
O O7 0.257588 0.136674 0.250000
O O8 0.306621 0.185338 0.046739
O O9 0.243640 0.098066 0.007737
O O10 0.435132 0.613405 0.250000
O O11 0.500000 0.576561 0.430590
O O12 0.426081 0.640116 0.502641
O O13 0.228761 0.084565 0.750000
O O14 0.166760 0.140483 0.899526
O O15 0.946609 0.363405 0.750000
O O16 0.908053 0.324119 0.968738
O O17 0.000000 0.364229 0.972428
O O18 0.361948 0.789976 0.750000
O O19 0.371836 0.728793 0.961036
O O20 0.909009 0.826602 0.250000
#
# Coordination Sequence:
#
# PCOD8259885 Si02
#       8
#    16   8  16  16  16  16  16  16
#     4   9  18  31  46  68  96 126 160 201 245 292
#     4  10  21  38  56  74 102 142 181 214 254 310
#     4   9  19  34  51  72  99 134 171 208 254 308
#     4  10  21  37  57  81 109 141 176 214 262 316
#     4  10  21  34  50  75 103 129 167 216 258 302
#     4   8  14  26  46  71  96 123 160 202 242 288
#     4   8  15  31  52  73 101 134 170 209 251 302
#     4   9  19  35  54  78 106 134 169 214 256 299
#
# _framework density 18.304141000000001
#
# number of rings (size 3 to 8) (size 9 to 14) (size 15 to 20)
#    0.000    2.933    0.000    2.200    0.933    5.333 
#    0.000    2.000    0.000    0.800    0.000    0.000 
#    0.000    0.000    0.000    0.000    0.000    0.000 
#
# Total GULP energy -743373.148170 kJ/mol
# GULP energy per Si atom -12389.552469 kJ/mol
# Density = 1.826248 g / cm^3
# Si number density = 18.304141 Si / 1000 Ang^3
#
#
#
# Elastic Constant Matrix: (Units=GPa)
#
#
# Indices 1 2 3 4 5 6 
#
# 1 93.5038 32.8141 42.5928 0.0000 0.0000 0.0000
# 2 32.8141 99.1215 44.4134 0.0000 0.0000 0.0000
# 3 42.5928 44.4134 86.6827 0.0000 0.0000 0.0000
# 4 0.0000 0.0000 0.0000 16.7322 0.0000 0.0000
# 5 0.0000 0.0000 0.0000 0.0000 17.1581 0.0000
# 6 0.0000 0.0000 0.0000 0.0000 0.0000 17.6237
#
#
#
# Elastic Compliance Matrix: (Units=1/GPa)
#
#
# Indices 1 2 3 4 5 6 
#
# 1 0.014086 -0.002027 -0.005883 0.000000 0.000000 0.000000
# 2 -0.002027 0.013387 -0.005863 0.000000 0.000000 0.000000
# 3 -0.005883 -0.005863 0.017431 0.000000 0.000000 0.000000
# 4 0.000000 0.000000 0.000000 0.059765 0.000000 0.000000
# 5 0.000000 0.000000 0.000000 0.000000 0.058281 0.000000
# 6 0.000000 0.000000 0.000000 0.000000 0.000000 0.056742
#
#
# Mechanical properties :
#
#
# Convention : Reuss Voigt Hill
#
# Bulk Modulus (GPa) = 57.61039 57.66095 57.63567
# Shear Modulus (GPa) = 19.76106 20.93530 20.34818
#
# Velocity S-wave (km/s) = 3.28928 3.38560 3.33779
# Velocity P-wave (km/s) = 6.77998 6.84493 6.81253
#
# Compressibility (1/GPa) = 0.01735798
#
# Stress axis : x y z
#
# Youngs Moduli (GPa) = 70.99329 74.70105 57.37009
#
# Poissons Ratio (x) = 0.15144 0.33748
# Poissons Ratio (y) = 0.14393 0.33635
# Poissons Ratio (z) = 0.41762 0.43795
#
# Static dielectric constant tensor:
#      x y z
#    x 3.445880 0.000000 0.000000 
#    y 0.000000 3.535400 0.000000 
#    z 0.000000 0.000000 3.218150 
# 
# 
# High freq. dielectric constant tensor:
#      x y z
#    x 1.706090 0.000000 0.000000 
#    y 0.000000 1.710670 0.000000 
#    z 0.000000 0.000000 1.679590 
# 
# From -- ./inp_files/13196.got.cif
#   From: 2010.03.12/outbox.cif.g09.slc.cpg/sg63_7_cif.got.tgz:13196.got - 2010.04.10 19:34:48.
