data_PCOD8259424
_publ_section_title
;
Structure prediction by ZEFSAII (Michael W. Deem and Ramdas Pophale) SiO2 
 PCOD8259424
Probable space group: C M C M
;
_chemical_formula_sum "Si O2"
_cell_formula_units_Z 96
_cell_length_a 23.353063
_cell_length_b 25.479016
_cell_length_c 8.638236
_cell_angle_alpha 90.000000
_cell_angle_beta 90.000000
_cell_angle_gamma 90.000000
_cell_volume 5139.863286
_symmetry_space_group_name_H-M "C M C M"
_symmetry_group_IT_number 63
_symmetry_cell_setting 'orthorhombic'
loop_
_space_group_symop_operation_xyz
x,y,z
-x,-y,1/2+z
x,-y,-z
-x,y,1/2-z
-x,-y,-z
x,y,1/2-z
-x,y,z
x,-y,1/2+z
1/2+x,1/2+y,z
1/2-x,1/2-y,1/2+z
1/2+x,1/2-y,-z
1/2-x,1/2+y,1/2-z
1/2-x,1/2-y,-z
1/2+x,1/2+y,1/2-z
1/2-x,1/2+y,z
1/2+x,1/2-y,1/2+z
loop_
_atom_site_type_symbol
_atom_site_label
_atom_site_fract_x
_atom_site_fract_y
_atom_site_fract_z
Si Si1 0.618258 0.348780 0.432869
Si Si2 0.182331 0.554218 0.431179
Si Si3 0.121910 0.659173 0.070049
Si Si4 0.812135 0.055450 0.433498
Si Si5 0.000000 0.815839 0.567939
Si Si6 0.500000 0.797208 0.573276
Si Si7 0.312543 0.746987 0.431309
O O1 0.616027 0.351623 0.250000
O O2 0.647152 0.400573 0.498221
O O3 0.554561 0.344726 0.497674
O O4 0.653551 0.298158 0.482076
O O5 0.158570 0.500000 0.500000
O O6 0.183149 0.547090 0.250000
O O7 0.139857 0.600793 0.481666
O O8 0.246902 0.566423 0.489327
O O9 0.137723 0.669496 0.250000
O O10 0.054603 0.666329 0.039483
O O11 0.156351 0.698269 0.960710
O O12 0.817253 0.055536 0.250000
O O13 0.833338 0.000000 0.500000
O O14 0.000000 0.823501 0.750000
O O15 0.000000 0.753809 0.533700
O O16 0.500000 0.776843 0.750000
O O17 0.310334 0.734352 0.250000
O O18 0.250000 0.750000 0.500000
#
# Coordination Sequence:
#
# PCOD8259424 Si02
#       7
#    16  16  16  16   8   8  16
#     4  12  24  40  61  87 119 156 197 242 296 354
#     4   9  19  35  57  83 115 153 194 241 294 349
#     4  10  20  36  57  83 115 153 197 244 294 350
#     4  10  20  37  60  87 118 155 198 245 298 355
#     4  12  24  40  61  86 117 156 201 244 292 349
#     4  10  20  36  59  82 114 158 200 240 293 349
#     4  12  24  37  56  85 118 152 190 241 298 357
#
# _framework density 18.67754
#
# number of rings (size 3 to 8) (size 9 to 14) (size 15 to 20)
#    0.000    1.333    1.667    5.250    0.000    2.667 
#    0.000    0.833    0.000    0.000    0.000    0.000 
#    0.000    0.000    0.000    0.000    0.000    0.000 
#
# Total GULP energy -595407.495554 kJ/mol
# GULP energy per Si atom -12404.322824 kJ/mol
# Density = 1.863503 g / cm^3
# Si number density = 18.677540 Si / 1000 Ang^3
#
#
#
# Elastic Constant Matrix: (Units=GPa)
#
#
# Indices 1 2 3 4 5 6 
#
# 1 112.6789 53.6207 26.7456 0.0000 0.0000 0.0000
# 2 53.6207 134.2351 33.2233 0.0000 0.0000 0.0000
# 3 26.7456 33.2233 86.4348 0.0000 0.0000 0.0000
# 4 0.0000 0.0000 0.0000 35.6757 0.0000 0.0000
# 5 0.0000 0.0000 0.0000 0.0000 26.9850 0.0000
# 6 0.0000 0.0000 0.0000 0.0000 0.0000 49.1410
#
#
#
# Elastic Compliance Matrix: (Units=1/GPa)
#
#
# Indices 1 2 3 4 5 6 
#
# 1 0.011244 -0.004012 -0.001937 0.000000 0.000000 0.000000
# 2 -0.004012 0.009664 -0.002473 0.000000 0.000000 0.000000
# 3 -0.001937 -0.002473 0.013119 0.000000 0.000000 0.000000
# 4 0.000000 0.000000 0.000000 0.028030 0.000000 0.000000
# 5 0.000000 0.000000 0.000000 0.000000 0.037058 0.000000
# 6 0.000000 0.000000 0.000000 0.000000 0.000000 0.020350
#
#
# Mechanical properties :
#
#
# Convention : Reuss Voigt Hill
#
# Bulk Modulus (GPa) = 58.19728 62.28089 60.23908
# Shear Modulus (GPa) = 35.20203 37.01097 36.10650
#
# Velocity S-wave (km/s) = 4.34605 4.45632 4.40153
# Velocity P-wave (km/s) = 7.51071 7.73926 7.62584
#
# Compressibility (1/GPa) = 0.01718293
#
# Stress axis : x y z
#
# Youngs Moduli (GPa) = 88.93851 103.47322 76.22251
#
# Poissons Ratio (x) = 0.41513 0.14765
# Poissons Ratio (y) = 0.35681 0.18852
# Poissons Ratio (z) = 0.17228 0.25592
#
# Static dielectric constant tensor:
#      x y z
#    x 3.594200 0.000000 0.000000 
#    y 0.000000 3.489200 0.000000 
#    z 0.000000 0.000000 3.512420 
# 
# 
# High freq. dielectric constant tensor:
#      x y z
#    x 1.728760 0.000000 0.000000 
#    y 0.000000 1.727870 0.000000 
#    z 0.000000 0.000000 1.732940 
# 
# From -- ./inp_files/10540.got.cif
#   From: 2010.03.12/outbox.cif.g09.slc.cpg/sg63_6_cif.got.tgz:10540.got - 2010.04.10 19:34:48.
