data_PCOD8259779
_publ_section_title
;
Structure prediction by ZEFSAII (Michael W. Deem and Ramdas Pophale) SiO2 
 PCOD8259779
Probable space group: C M C M
;
_chemical_formula_sum "Si O2"
_cell_formula_units_Z 96
_cell_length_a 22.655837
_cell_length_b 11.101839
_cell_length_c 18.450436
_cell_angle_alpha 90.000000
_cell_angle_beta 90.000000
_cell_angle_gamma 90.000000
_cell_volume 4640.680504
_symmetry_space_group_name_H-M "C M C M"
_symmetry_group_IT_number 63
_symmetry_cell_setting 'orthorhombic'
loop_
_space_group_symop_operation_xyz
x,y,z
-x,-y,1/2+z
x,-y,-z
-x,y,1/2-z
-x,-y,-z
x,y,1/2-z
-x,y,z
x,-y,1/2+z
1/2+x,1/2+y,z
1/2-x,1/2-y,1/2+z
1/2+x,1/2-y,-z
1/2-x,1/2+y,1/2-z
1/2-x,1/2-y,-z
1/2+x,1/2+y,1/2-z
1/2-x,1/2+y,z
1/2+x,1/2-y,1/2+z
loop_
_atom_site_type_symbol
_atom_site_label
_atom_site_fract_x
_atom_site_fract_y
_atom_site_fract_z
Si Si1 0.862038 0.122210 0.835985
Si Si2 0.568926 0.569822 0.425094
Si Si3 0.337645 0.230798 0.555327
Si Si4 0.562912 0.153792 0.166351
Si Si5 0.213219 0.299829 0.907110
Si Si6 0.662151 0.980805 0.167583
O O1 0.854790 0.109068 0.750000
O O2 0.902323 0.232250 0.864602
O O3 0.799250 0.165590 0.871266
O O4 0.891947 0.000824 0.865543
O O5 0.571853 0.500000 0.500000
O O6 0.500000 0.585805 0.400544
O O7 0.600612 0.698868 0.434585
O O8 0.280411 0.315800 0.566256
O O9 0.332015 0.177238 0.474390
O O10 0.330236 0.129291 0.614884
O O11 0.553779 0.182223 0.250000
O O12 0.500000 0.145045 0.126026
O O13 0.595476 0.027294 0.156162
O O14 0.204869 0.406176 0.848841
O O15 0.673898 0.939008 0.250000
#
# Coordination Sequence:
#
# PCOD8259779 Si02
#       6
#    16  16  16  16  16  16
#     4  10  20  38  65  93 120 161 216 267 313 369
#     4  11  24  42  63  93 134 173 213 262 320 388
#     4  11  24  40  64  88 124 171 210 256 326 389
#     4   8  15  31  56  83 114 153 194 240 293 353
#     4  10  22  41  64  87 122 165 216 262 316 384
#     4  10  22  38  58  91 124 153 201 261 316 373
#
# _framework density 20.686620999999999
#
# number of rings (size 3 to 8) (size 9 to 14) (size 15 to 20)
#    0.000    2.000    1.667    2.500    2.333    3.667 
#    0.000    0.000    0.000    3.000    0.000    0.000 
#    0.000    0.000    0.000    0.000    0.000    0.000 
#
# Total GULP energy -594833.344948 kJ/mol
# GULP energy per Si atom -12392.361353 kJ/mol
# Density = 2.063954 g / cm^3
# Si number density = 20.686621 Si / 1000 Ang^3
#
#
#
# Elastic Constant Matrix: (Units=GPa)
#
#
# Indices 1 2 3 4 5 6 
#
# 1 81.0104 12.0084 13.0592 0.0000 0.0000 0.0000
# 2 12.0084 67.0510 22.9469 0.0000 0.0000 0.0000
# 3 13.0592 22.9469 102.9101 0.0000 0.0000 0.0000
# 4 0.0000 0.0000 0.0000 36.9363 0.0000 0.0000
# 5 0.0000 0.0000 0.0000 0.0000 19.7533 0.0000
# 6 0.0000 0.0000 0.0000 0.0000 0.0000 17.8156
#
#
#
# Elastic Compliance Matrix: (Units=1/GPa)
#
#
# Indices 1 2 3 4 5 6 
#
# 1 0.012818 -0.001883 -0.001207 0.000000 0.000000 0.000000
# 2 -0.001883 0.016423 -0.003423 0.000000 0.000000 0.000000
# 3 -0.001207 -0.003423 0.010634 0.000000 0.000000 0.000000
# 4 0.000000 0.000000 0.000000 0.027074 0.000000 0.000000
# 5 0.000000 0.000000 0.000000 0.000000 0.050624 0.000000
# 6 0.000000 0.000000 0.000000 0.000000 0.000000 0.056130
#
#
# Mechanical properties :
#
#
# Convention : Reuss Voigt Hill
#
# Bulk Modulus (GPa) = 37.24506 38.55563 37.90034
# Shear Modulus (GPa) = 25.55233 28.43152 26.99192
#
# Velocity S-wave (km/s) = 3.51837 3.71130 3.61612
# Velocity P-wave (km/s) = 5.87782 6.08633 5.98298
#
# Compressibility (1/GPa) = 0.02684920
#
# Stress axis : x y z
#
# Youngs Moduli (GPa) = 78.01717 60.89156 94.04131
#
# Poissons Ratio (x) = 0.11463 0.11349
# Poissons Ratio (y) = 0.14687 0.32191
# Poissons Ratio (z) = 0.09415 0.20843
#
# Static dielectric constant tensor:
#      x y z
#    x 4.275550 0.000000 0.000000 
#    y 0.000000 3.479040 0.000000 
#    z 0.000000 0.000000 3.704230 
# 
# 
# High freq. dielectric constant tensor:
#      x y z
#    x 1.814160 0.000000 0.000000 
#    y 0.000000 1.787390 0.000000 
#    z 0.000000 0.000000 1.810200 
# 
# From -- ./inp_files/48044.got.cif
#   From: 2010.03.12/outbox.cif.g09.slc.cpg/sg63_25_cif.got.tgz:48044.got - 2010.04.10 19:34:48.
