data_PCOD8259279
_publ_section_title
;
Structure prediction by ZEFSAII (Michael W. Deem and Ramdas Pophale) SiO2 
 PCOD8259279
Probable space group: C M C M
;
_chemical_formula_sum "Si O2"
_cell_formula_units_Z 64
_cell_length_a 8.530036
_cell_length_b 22.724183
_cell_length_c 16.326504
_cell_angle_alpha 90.000000
_cell_angle_beta 90.000000
_cell_angle_gamma 90.000000
_cell_volume 3164.698500
_symmetry_space_group_name_H-M "C M C M"
_symmetry_group_IT_number 63
_symmetry_cell_setting 'orthorhombic'
loop_
_space_group_symop_operation_xyz
x,y,z
-x,-y,1/2+z
x,-y,-z
-x,y,1/2-z
-x,-y,-z
x,y,1/2-z
-x,y,z
x,-y,1/2+z
1/2+x,1/2+y,z
1/2-x,1/2-y,1/2+z
1/2+x,1/2-y,-z
1/2-x,1/2+y,1/2-z
1/2-x,1/2-y,-z
1/2+x,1/2+y,1/2-z
1/2-x,1/2+y,z
1/2+x,1/2-y,1/2+z
loop_
_atom_site_type_symbol
_atom_site_label
_atom_site_fract_x
_atom_site_fract_y
_atom_site_fract_z
Si Si1 0.681519 0.581680 0.950719
Si Si2 0.819170 0.526441 0.391505
Si Si3 0.318135 0.738107 0.250000
Si Si4 0.815690 0.215387 0.921111
Si Si5 0.684046 0.887773 0.750000
O O1 0.500000 0.579646 0.976453
O O2 0.717723 0.533792 0.879229
O O3 0.732450 0.647038 0.926052
O O4 0.792162 0.558716 0.022672
O O5 0.764535 0.574301 0.327018
O O6 0.000000 0.509790 0.379860
O O7 0.500000 0.753419 0.250000
O O8 0.245329 0.762999 0.333618
O O9 0.291745 0.668982 0.250000
O O10 0.000000 0.224423 0.922478
O O11 0.750000 0.250000 0.000000
O O12 0.500000 0.870622 0.750000
#
# Coordination Sequence:
#
# PCOD8259279 Si02
#       5
#    16  16   8  16   8
#     4  10  21  37  57  83 114 149 191 237 289 348
#     4  10  20  35  58  85 113 148 187 234 291 348
#     4  12  26  41  62  91 121 160 206 250 301 362
#     4  11  24  42  64  90 123 163 204 250 303 357
#     4  10  22  39  58  83 115 148 188 240 293 348
#
# _framework density 20.223095000000001
#
# number of rings (size 3 to 8) (size 9 to 14) (size 15 to 20)
#    0.000    1.500    0.000    6.375    0.000   11.000 
#    0.000    2.500    0.000    0.000    0.000    0.000 
#    0.000    0.000    0.000    0.000    0.000    0.000 
#
# Total GULP energy -396684.798017 kJ/mol
# GULP energy per Si atom -12396.399938 kJ/mol
# Density = 2.017707 g / cm^3
# Si number density = 20.223095 Si / 1000 Ang^3
#
#
#
# Elastic Constant Matrix: (Units=GPa)
#
#
# Indices 1 2 3 4 5 6 
#
# 1 79.2319 54.7076 36.7903 0.0000 0.0000 0.0000
# 2 54.7076 189.7454 77.8113 0.0000 0.0000 0.0000
# 3 36.7903 77.8113 124.6250 0.0000 0.0000 0.0000
# 4 0.0000 0.0000 0.0000 38.5377 0.0000 0.0000
# 5 0.0000 0.0000 0.0000 0.0000 25.2665 0.0000
# 6 0.0000 0.0000 0.0000 0.0000 0.0000 36.5820
#
#
#
# Elastic Compliance Matrix: (Units=1/GPa)
#
#
# Indices 1 2 3 4 5 6 
#
# 1 0.016330 -0.003671 -0.002529 0.000000 0.000000 0.000000
# 2 -0.003671 0.007909 -0.003855 0.000000 0.000000 0.000000
# 3 -0.002529 -0.003855 0.011177 0.000000 0.000000 0.000000
# 4 0.000000 0.000000 0.000000 0.025949 0.000000 0.000000
# 5 0.000000 0.000000 0.000000 0.000000 0.039578 0.000000
# 6 0.000000 0.000000 0.000000 0.000000 0.000000 0.027336
#
#
# Mechanical properties :
#
#
# Convention : Reuss Voigt Hill
#
# Bulk Modulus (GPa) = 65.32578 81.35787 73.34182
# Shear Modulus (GPa) = 32.57515 35.03009 33.80262
#
# Velocity S-wave (km/s) = 4.01782 4.16647 4.09282
# Velocity P-wave (km/s) = 7.34142 7.96639 7.66028
#
# Compressibility (1/GPa) = 0.01530789
#
# Stress axis : x y z
#
# Youngs Moduli (GPa) = 61.23572 126.43080 89.46832
#
# Poissons Ratio (x) = 0.46419 0.22622
# Poissons Ratio (y) = 0.22483 0.34486
# Poissons Ratio (z) = 0.15484 0.48733
#
# Static dielectric constant tensor:
#      x y z
#    x 3.665850 0.000000 0.000000 
#    y 0.000000 4.131530 0.000000 
#    z 0.000000 0.000000 3.873530 
# 
# 
# High freq. dielectric constant tensor:
#      x y z
#    x 1.795150 0.000000 0.000000 
#    y 0.000000 1.810930 0.000000 
#    z 0.000000 0.000000 1.787090 
# 
# From -- ./inp_files/27586.got.cif
#   From: 2010.03.12/outbox.cif.g09.slc.cpg/sg63_14_cif.got.tgz:27586.got - 2010.04.10 19:34:48.
