data_PCOD8259216
_publ_section_title
;
Structure prediction by ZEFSAII (Michael W. Deem and Ramdas Pophale) SiO2 
 PCOD8259216
Probable space group: C M C M
;
_chemical_formula_sum "Si O2"
_cell_formula_units_Z 88
_cell_length_a 22.359114
_cell_length_b 24.454163
_cell_length_c 8.596447
_cell_angle_alpha 90.000000
_cell_angle_beta 90.000000
_cell_angle_gamma 90.000000
_cell_volume 4700.308711
_symmetry_space_group_name_H-M "C M C M"
_symmetry_group_IT_number 63
_symmetry_cell_setting 'orthorhombic'
loop_
_space_group_symop_operation_xyz
x,y,z
-x,-y,1/2+z
x,-y,-z
-x,y,1/2-z
-x,-y,-z
x,y,1/2-z
-x,y,z
x,-y,1/2+z
1/2+x,1/2+y,z
1/2-x,1/2-y,1/2+z
1/2+x,1/2-y,-z
1/2-x,1/2+y,1/2-z
1/2-x,1/2-y,-z
1/2+x,1/2+y,1/2-z
1/2-x,1/2+y,z
1/2+x,1/2-y,1/2+z
loop_
_atom_site_type_symbol
_atom_site_label
_atom_site_fract_x
_atom_site_fract_y
_atom_site_fract_z
Si Si1 0.279574 0.558335 0.566710
Si Si2 0.651484 0.941881 0.933141
Si Si3 0.069425 0.765278 0.067457
Si Si4 0.615380 0.373731 0.933426
Si Si5 0.500000 0.560281 0.433979
Si Si6 0.570241 0.149937 0.929830
O O1 0.300620 0.500000 0.500000
O O2 0.276056 0.553308 0.750000
O O3 0.215132 0.575805 0.502661
O O4 0.326017 0.604612 0.518407
O O5 0.657935 0.946941 0.750000
O O6 0.602060 0.897822 0.976401
O O7 0.630459 0.000000 0.000000
O O8 0.081844 0.768164 0.250000
O O9 0.000000 0.774593 0.027433
O O10 0.107780 0.810741 0.979106
O O11 0.091231 0.707241 0.002330
O O12 0.623378 0.379521 0.750000
O O13 0.558379 0.407926 0.994839
O O14 0.500000 0.500000 0.500000
O O15 0.500000 0.557686 0.250000
O O16 0.588867 0.148032 0.750000
O O17 0.500000 0.141608 0.952838
#
# Coordination Sequence:
#
# PCOD8259216 Si02
#       6
#    16  16  16  16   8  16
#     4  11  22  38  58  82 112 150 192 235 285 341
#     4  11  22  39  62  87 116 150 187 230 280 338
#     4  10  20  35  56  83 114 151 192 235 283 337
#     4  11  21  36  55  80 111 151 195 237 286 337
#     4  10  22  34  50  76 110 146 187 238 287 332
#     4  10  21  38  61  88 118 151 186 229 280 336
#
# _framework density 18.722176000000001
#
# number of rings (size 3 to 8) (size 9 to 14) (size 15 to 20)
#    0.000    1.455    0.909    6.545    0.000    5.091 
#    0.000    0.909    0.000    0.000    0.000    0.000 
#    0.000    0.000    0.000    0.000    0.000    0.000 
#
# Total GULP energy -545873.372132 kJ/mol
# GULP energy per Si atom -12406.213003 kJ/mol
# Density = 1.867956 g / cm^3
# Si number density = 18.722176 Si / 1000 Ang^3
#
#
#
# Elastic Constant Matrix: (Units=GPa)
#
#
# Indices 1 2 3 4 5 6 
#
# 1 65.9045 55.2925 33.8256 0.0000 0.0000 0.0000
# 2 55.2925 121.6047 35.0613 0.0000 0.0000 0.0000
# 3 33.8256 35.0613 120.1697 0.0000 0.0000 0.0000
# 4 0.0000 0.0000 0.0000 38.4772 0.0000 0.0000
# 5 0.0000 0.0000 0.0000 0.0000 29.1125 0.0000
# 6 0.0000 0.0000 0.0000 0.0000 0.0000 15.4359
#
#
#
# Elastic Compliance Matrix: (Units=1/GPa)
#
#
# Indices 1 2 3 4 5 6 
#
# 1 0.026415 -0.010773 -0.004292 0.000000 0.000000 0.000000
# 2 -0.010773 0.013372 -0.000869 0.000000 0.000000 0.000000
# 3 -0.004292 -0.000869 0.009783 0.000000 0.000000 0.000000
# 4 0.000000 0.000000 0.000000 0.025989 0.000000 0.000000
# 5 0.000000 0.000000 0.000000 0.000000 0.034350 0.000000
# 6 0.000000 0.000000 0.000000 0.000000 0.000000 0.064784
#
#
# Mechanical properties :
#
#
# Convention : Reuss Voigt Hill
#
# Bulk Modulus (GPa) = 56.49130 61.78196 59.13663
# Shear Modulus (GPa) = 23.53355 28.83841 26.18598
#
# Velocity S-wave (km/s) = 3.54925 3.92897 3.74393
# Velocity P-wave (km/s) = 6.85822 7.32485 7.09537
#
# Compressibility (1/GPa) = 0.01770184
#
# Stress axis : x y z
#
# Youngs Moduli (GPa) = 37.85772 74.78112 102.21501
#
# Poissons Ratio (x) = 0.80562 0.43871
# Poissons Ratio (y) = 0.40784 0.08884
# Poissons Ratio (z) = 0.16249 0.06500
#
# Static dielectric constant tensor:
#      x y z
#    x 3.405200 0.000000 0.000000 
#    y 0.000000 3.440680 0.000000 
#    z 0.000000 0.000000 3.536120 
# 
# 
# High freq. dielectric constant tensor:
#      x y z
#    x 1.716840 0.000000 0.000000 
#    y 0.000000 1.733450 0.000000 
#    z 0.000000 0.000000 1.745380 
# 
# From -- ./inp_files/10186.got.cif
#   From: 2010.03.12/outbox.cif.g09.slc.cpg/sg63_6_cif.got.tgz:10186.got - 2010.04.10 19:34:48.
