data_PCOD8259156
_publ_section_title
;
Structure prediction by ZEFSAII (Michael W. Deem and Ramdas Pophale) SiO2 
 PCOD8259156
Probable space group: C M C M
;
_chemical_formula_sum "Si O2"
_cell_formula_units_Z 112
_cell_length_a 24.718355
_cell_length_b 14.541849
_cell_length_c 15.346190
_cell_angle_alpha 90.000000
_cell_angle_beta 90.000000
_cell_angle_gamma 90.000000
_cell_volume 5516.196987
_symmetry_space_group_name_H-M "C M C M"
_symmetry_group_IT_number 63
_symmetry_cell_setting 'orthorhombic'
loop_
_space_group_symop_operation_xyz
x,y,z
-x,-y,1/2+z
x,-y,-z
-x,y,1/2-z
-x,-y,-z
x,y,1/2-z
-x,y,z
x,-y,1/2+z
1/2+x,1/2+y,z
1/2-x,1/2-y,1/2+z
1/2+x,1/2-y,-z
1/2-x,1/2+y,1/2-z
1/2-x,1/2-y,-z
1/2+x,1/2+y,1/2-z
1/2-x,1/2+y,z
1/2+x,1/2-y,1/2+z
loop_
_atom_site_type_symbol
_atom_site_label
_atom_site_fract_x
_atom_site_fract_y
_atom_site_fract_z
Si Si1 0.438579 0.024262 0.651202
Si Si2 0.165219 0.938380 0.148904
Si Si3 0.441847 0.650401 0.849029
Si Si4 0.061449 0.665341 0.071056
Si Si5 0.865480 0.684414 0.586088
Si Si6 0.244767 0.394823 0.015408
Si Si7 0.307602 0.646697 0.151477
O O1 0.439401 0.991109 0.750000
O O2 0.500000 0.052912 0.623080
O O3 0.396034 0.106853 0.642325
O O4 0.417386 0.936279 0.596481
O O5 0.174224 0.909031 0.250000
O O6 0.107895 0.904940 0.109248
O O7 0.209756 0.887545 0.090166
O O8 0.165204 0.047688 0.137985
O O9 0.445042 0.619467 0.750000
O O10 0.500000 0.626228 0.894521
O O11 0.432691 0.760790 0.851697
O O12 0.000000 0.654870 0.039971
O O13 0.096019 0.708696 0.993629
O O14 0.807931 0.652866 0.551400
O O15 0.854418 0.776081 0.642534
O O16 0.230042 0.500000 0.000000
O O17 0.262367 0.344110 0.924873
O O18 0.282583 0.653704 0.250000
#
# Coordination Sequence:
#
# PCOD8259156 Si02
#       7
#    16  16  16  16  16  16  16
#     4  10  21  37  56  80 114 153 190 232 284 341
#     4   9  19  37  59  84 114 147 181 226 286 338
#     4   9  17  32  56  83 108 138 182 232 278 327
#     4  10  20  35  55  80 111 145 184 235 289 332
#     4  12  22  36  56  82 111 147 191 231 276 339
#     4  10  21  38  59  81 109 145 189 239 285 332
#     4  10  22  39  57  79 114 153 184 225 284 344
#
# _framework density 20.303843000000001
#
# number of rings (size 3 to 8) (size 9 to 14) (size 15 to 20)
#    0.000    2.000    0.000    3.857    0.000    4.000 
#    0.000    7.143    0.000    9.000    0.000    0.000 
#    0.000    0.000    0.000    0.000    0.000    0.000 
#
# Total GULP energy -694035.292722 kJ/mol
# GULP energy per Si atom -12393.487370 kJ/mol
# Density = 2.025763 g / cm^3
# Si number density = 20.303843 Si / 1000 Ang^3
#
#
#
# Elastic Constant Matrix: (Units=GPa)
#
#
# Indices 1 2 3 4 5 6 
#
# 1 116.1249 51.7754 42.2348 0.0000 0.0000 0.0000
# 2 51.7754 71.0452 27.3592 0.0000 0.0000 0.0000
# 3 42.2348 27.3592 95.0905 0.0000 0.0000 0.0000
# 4 0.0000 0.0000 0.0000 29.9840 0.0000 0.0000
# 5 0.0000 0.0000 0.0000 0.0000 32.4674 0.0000
# 6 0.0000 0.0000 0.0000 0.0000 0.0000 20.9967
#
#
#
# Elastic Compliance Matrix: (Units=1/GPa)
#
#
# Indices 1 2 3 4 5 6 
#
# 1 0.013791 -0.008650 -0.003636 0.000000 0.000000 0.000000
# 2 -0.008650 0.021255 -0.002274 0.000000 0.000000 0.000000
# 3 -0.003636 -0.002274 0.012786 0.000000 0.000000 0.000000
# 4 0.000000 0.000000 0.000000 0.033351 0.000000 0.000000
# 5 0.000000 0.000000 0.000000 0.000000 0.030800 0.000000
# 6 0.000000 0.000000 0.000000 0.000000 0.000000 0.047626
#
#
# Mechanical properties :
#
#
# Convention : Reuss Voigt Hill
#
# Bulk Modulus (GPa) = 53.44331 58.33326 55.88829
# Shear Modulus (GPa) = 25.64560 27.41570 26.53065
#
# Velocity S-wave (km/s) = 3.55785 3.67859 3.61873
# Velocity P-wave (km/s) = 6.57698 6.84363 6.71163
#
# Compressibility (1/GPa) = 0.01871142
#
# Stress axis : x y z
#
# Youngs Moduli (GPa) = 72.51336 47.04839 78.21310
#
# Poissons Ratio (x) = 0.40696 0.28442
# Poissons Ratio (y) = 0.62722 0.17782
# Poissons Ratio (z) = 0.26369 0.10697
#
# Static dielectric constant tensor:
#      x y z
#    x 1.782930 0.000000 0.000000 
#    y 0.000000 3.735450 0.000000 
#    z 0.000000 0.000000 3.758480 
# 
# 
# High freq. dielectric constant tensor:
#      x y z
#    x 1.788870 0.000000 0.000000 
#    y 0.000000 1.794590 0.000000 
#    z 0.000000 0.000000 1.791020 
# 
# From -- ./inp_files/36924.got.cif
#   From: 2010.03.12/outbox.cif.g09.slc.cpg/sg63_19_cif.got.tgz:36924.got - 2010.04.10 19:34:48.
