data_PCOD8259394
_publ_section_title
;
Structure prediction by ZEFSAII (Michael W. Deem and Ramdas Pophale) SiO2 
 PCOD8259394
Probable space group: C M C M
;
_chemical_formula_sum "Si O2"
_cell_formula_units_Z 88
_cell_length_a 11.269479
_cell_length_b 26.653739
_cell_length_c 14.898412
_cell_angle_alpha 90.000000
_cell_angle_beta 90.000000
_cell_angle_gamma 90.000000
_cell_volume 4475.091910
_symmetry_space_group_name_H-M "C M C M"
_symmetry_group_IT_number 63
_symmetry_cell_setting 'orthorhombic'
loop_
_space_group_symop_operation_xyz
x,y,z
-x,-y,1/2+z
x,-y,-z
-x,y,1/2-z
-x,-y,-z
x,y,1/2-z
-x,y,z
x,-y,1/2+z
1/2+x,1/2+y,z
1/2-x,1/2-y,1/2+z
1/2+x,1/2-y,-z
1/2-x,1/2+y,1/2-z
1/2-x,1/2-y,-z
1/2+x,1/2+y,1/2-z
1/2-x,1/2+y,z
1/2+x,1/2-y,1/2+z
loop_
_atom_site_type_symbol
_atom_site_label
_atom_site_fract_x
_atom_site_fract_y
_atom_site_fract_z
Si Si1 0.866570 0.328269 0.848094
Si Si2 0.000000 0.163964 0.855245
Si Si3 0.314111 0.500000 0.000000
Si Si4 0.277546 0.272253 0.404229
Si Si5 0.362187 0.860610 0.345715
Si Si6 0.000000 0.044359 0.859647
Si Si7 0.358855 0.085418 0.021220
O O1 0.862392 0.353568 0.750000
O O2 0.796298 0.276102 0.842010
O O3 0.815533 0.367973 0.918430
O O4 0.000000 0.314532 0.877685
O O5 0.886091 0.188385 0.902654
O O6 0.000000 0.104326 0.871428
O O7 0.000000 0.177288 0.750000
O O8 0.388305 0.478423 0.084770
O O9 0.224879 0.539513 0.047088
O O10 0.250000 0.250000 0.500000
O O11 0.164098 0.303176 0.371632
O O12 0.298946 0.873998 0.250000
O O13 0.500000 0.864082 0.332970
O O14 0.323705 0.900851 0.419419
O O15 0.000000 0.031073 0.750000
O O16 0.500000 0.073766 0.034512
#
# Coordination Sequence:
#
# PCOD8259394 Si02
#       7
#    16   8   8  16  16   8  16
#     4  10  20  36  56  84 120 157 196 241 296 362
#     4  11  23  41  65  92 121 162 211 254 295 355
#     4  11  23  42  66  92 117 159 204 256 310 357
#     4  12  22  33  58  88 120 158 200 246 295 351
#     4  10  21  37  56  84 123 161 197 244 302 360
#     4  10  25  45  66  89 119 160 212 260 298 350
#     4  10  21  38  61  91 121 152 194 251 309 366
#
# _framework density 19.664400000000001
#
# number of rings (size 3 to 8) (size 9 to 14) (size 15 to 20)
#    0.000    1.455    2.727    3.000    1.273    2.909 
#    0.000    0.000    0.000    5.455    0.000    0.000 
#    0.000    0.000    0.000    0.000    0.000    0.000 
#
# Total GULP energy -545197.331858 kJ/mol
# GULP energy per Si atom -12390.848451 kJ/mol
# Density = 1.961964 g / cm^3
# Si number density = 19.664400 Si / 1000 Ang^3
#
#
#
# Elastic Constant Matrix: (Units=GPa)
#
#
# Indices 1 2 3 4 5 6 
#
# 1 54.4018 49.1569 36.0540 0.0000 0.0000 0.0000
# 2 49.1569 120.6903 45.8181 0.0000 0.0000 0.0000
# 3 36.0540 45.8181 126.0351 0.0000 0.0000 0.0000
# 4 0.0000 0.0000 0.0000 21.9416 0.0000 0.0000
# 5 0.0000 0.0000 0.0000 0.0000 12.7909 0.0000
# 6 0.0000 0.0000 0.0000 0.0000 0.0000 41.3919
#
#
#
# Elastic Compliance Matrix: (Units=1/GPa)
#
#
# Indices 1 2 3 4 5 6 
#
# 1 0.031650 -0.010967 -0.005067 0.000000 0.000000 0.000000
# 2 -0.010967 0.013413 -0.001739 0.000000 0.000000 0.000000
# 3 -0.005067 -0.001739 0.010016 0.000000 0.000000 0.000000
# 4 0.000000 0.000000 0.000000 0.045576 0.000000 0.000000
# 5 0.000000 0.000000 0.000000 0.000000 0.078180 0.000000
# 6 0.000000 0.000000 0.000000 0.000000 0.000000 0.024159
#
#
# Mechanical properties :
#
#
# Convention : Reuss Voigt Hill
#
# Bulk Modulus (GPa) = 51.19644 62.57614 56.88629
# Shear Modulus (GPa) = 20.40403 26.56476 23.48440
#
# Velocity S-wave (km/s) = 3.22469 3.67946 3.45956
# Velocity P-wave (km/s) = 6.32111 7.06699 6.70443
#
# Compressibility (1/GPa) = 0.01953261
#
# Stress axis : x y z
#
# Youngs Moduli (GPa) = 31.59601 74.55643 99.84248
#
# Poissons Ratio (x) = 0.81768 0.50588
# Poissons Ratio (y) = 0.34652 0.17359
# Poissons Ratio (z) = 0.16009 0.12963
#
# Static dielectric constant tensor:
#      x y z
#    x 3.627380 0.000000 0.000000 
#    y 0.000000 3.876250 0.000000 
#    z 0.000000 0.000000 4.962710 
# 
# 
# High freq. dielectric constant tensor:
#      x y z
#    x 1.761260 0.000000 0.000000 
#    y 0.000000 1.763780 0.000000 
#    z 0.000000 0.000000 1.775360 
# 
# From -- ./inp_files/30184.got.cif
#   From: 2010.03.12/outbox.cif.g09.slc.cpg/sg63_16_cif.got.tgz:30184.got - 2010.04.10 19:34:48.
