data_PCOD8259463
_publ_section_title
;
Structure prediction by ZEFSAII (Michael W. Deem and Ramdas Pophale) SiO2 
 PCOD8259463
Probable space group: C M C M
;
_chemical_formula_sum "Si O2"
_cell_formula_units_Z 96
_cell_length_a 11.825161
_cell_length_b 32.341351
_cell_length_c 14.033312
_cell_angle_alpha 90.000000
_cell_angle_beta 90.000000
_cell_angle_gamma 90.000000
_cell_volume 5366.923453
_symmetry_space_group_name_H-M "C M C M"
_symmetry_group_IT_number 63
_symmetry_cell_setting 'orthorhombic'
loop_
_space_group_symop_operation_xyz
x,y,z
-x,-y,1/2+z
x,-y,-z
-x,y,1/2-z
-x,-y,-z
x,y,1/2-z
-x,y,z
x,-y,1/2+z
1/2+x,1/2+y,z
1/2-x,1/2-y,1/2+z
1/2+x,1/2-y,-z
1/2-x,1/2+y,1/2-z
1/2-x,1/2-y,-z
1/2+x,1/2+y,1/2-z
1/2-x,1/2+y,z
1/2+x,1/2-y,1/2+z
loop_
_atom_site_type_symbol
_atom_site_label
_atom_site_fract_x
_atom_site_fract_y
_atom_site_fract_z
Si Si1 0.364680 0.987798 0.250000
Si Si2 0.813258 0.769997 0.363018
Si Si3 0.872556 0.298526 0.003443
Si Si4 0.000000 0.072087 0.635889
Si Si5 0.634008 0.109902 0.047197
Si Si6 0.261807 0.459984 0.066330
Si Si7 0.632493 0.919507 0.750000
Si Si8 0.000000 0.165732 0.637883
O O1 0.500000 0.984806 0.250000
O O2 0.316900 0.965276 0.342312
O O3 0.316176 0.034424 0.250000
O O4 0.805363 0.764790 0.250000
O O5 0.862597 0.727740 0.406240
O O6 0.691252 0.777875 0.408050
O O7 0.890125 0.808767 0.394856
O O8 0.828923 0.344537 0.983721
O O9 0.000000 0.300083 0.038364
O O10 0.890441 0.048827 0.595911
O O11 0.000000 0.070406 0.750000
O O12 0.000000 0.119337 0.596286
O O13 0.500000 0.101412 0.033229
O O14 0.671100 0.105457 0.157162
O O15 0.708355 0.078587 0.987288
O O16 0.257529 0.500000 0.000000
O O17 0.500000 0.925488 0.750000
O O18 0.000000 0.162235 0.750000
#
# Coordination Sequence:
#
# PCOD8259463 Si02
#       8
#     8  16  16   8  16  16   8   8
#     4  11  22  37  61  85 113 152 191 234 291 347
#     4  10  20  36  58  83 111 149 190 234 284 338
#     4  10  21  36  56  85 115 146 186 235 288 343
#     4  11  23  39  57  82 113 155 200 238 280 329
#     4  10  21  36  58  88 117 146 185 236 289 344
#     4  12  23  39  60  84 117 153 194 238 282 340
#     4   9  18  34  55  85 115 149 186 224 285 345
#     4   9  18  35  59  81 105 146 193 234 270 326
#
# _framework density 17.887343000000001
#
# number of rings (size 3 to 8) (size 9 to 14) (size 15 to 20)
#    0.000    1.667    3.333    1.750    1.167    1.000 
#    1.500    0.000    0.000    0.000    0.000    0.000 
#    0.000    0.000    0.000    0.000    0.000    0.000 
#
# Total GULP energy -595195.842171 kJ/mol
# GULP energy per Si atom -12399.913379 kJ/mol
# Density = 1.784663 g / cm^3
# Si number density = 17.887343 Si / 1000 Ang^3
#
#
#
# Elastic Constant Matrix: (Units=GPa)
#
#
# Indices 1 2 3 4 5 6 
#
# 1 87.9197 40.8099 45.0981 0.0000 0.0000 0.0000
# 2 40.8099 108.2385 32.7376 0.0000 0.0000 0.0000
# 3 45.0981 32.7376 96.5880 0.0000 0.0000 0.0000
# 4 0.0000 0.0000 0.0000 15.6005 0.0000 0.0000
# 5 0.0000 0.0000 0.0000 0.0000 6.8912 0.0000
# 6 0.0000 0.0000 0.0000 0.0000 0.0000 28.3074
#
#
#
# Elastic Compliance Matrix: (Units=1/GPa)
#
#
# Indices 1 2 3 4 5 6 
#
# 1 0.016623 -0.004368 -0.006281 0.000000 0.000000 0.000000
# 2 -0.004368 0.011442 -0.001839 0.000000 0.000000 0.000000
# 3 -0.006281 -0.001839 0.013909 0.000000 0.000000 0.000000
# 4 0.000000 0.000000 0.000000 0.064100 0.000000 0.000000
# 5 0.000000 0.000000 0.000000 0.000000 0.145112 0.000000
# 6 0.000000 0.000000 0.000000 0.000000 0.000000 0.035326
#
#
# Mechanical properties :
#
#
# Convention : Reuss Voigt Hill
#
# Bulk Modulus (GPa) = 58.82722 58.89304 58.86013
# Shear Modulus (GPa) = 15.76514 21.76655 18.76584
#
# Velocity S-wave (km/s) = 2.97199 3.49215 3.24252
# Velocity P-wave (km/s) = 6.68849 7.01826 6.85536
#
# Compressibility (1/GPa) = 0.01699893
#
# Stress axis : x y z
#
# Youngs Moduli (GPa) = 60.15631 87.39877 71.89463
#
# Poissons Ratio (x) = 0.38174 0.45159
# Poissons Ratio (y) = 0.26275 0.13219
# Poissons Ratio (z) = 0.37786 0.16070
#
# Static dielectric constant tensor:
#      x y z
#    x 3.264690 0.000000 0.000000 
#    y 0.000000 3.521830 0.000000 
#    z 0.000000 0.000000 3.329240 
# 
# 
# High freq. dielectric constant tensor:
#      x y z
#    x 1.687740 0.000000 0.000000 
#    y 0.000000 1.705560 0.000000 
#    z 0.000000 0.000000 1.691810 
# 
# From -- ./inp_files/30380.got.cif
#   From: 2010.03.12/outbox.cif.g09.slc.cpg/sg63_16_cif.got.tgz:30380.got - 2010.04.10 19:34:48.
