data_PCOD8259016
_publ_section_title
;
Structure prediction by ZEFSAII (Michael W. Deem and Ramdas Pophale) SiO2 
 PCOD8259016
Probable space group: C M C M
;
_chemical_formula_sum "Si O2"
_cell_formula_units_Z 104
_cell_length_a 21.546729
_cell_length_b 28.382731
_cell_length_c 8.862325
_cell_angle_alpha 90.000000
_cell_angle_beta 90.000000
_cell_angle_gamma 90.000000
_cell_volume 5419.799282
_symmetry_space_group_name_H-M "C M C M"
_symmetry_group_IT_number 63
_symmetry_cell_setting 'orthorhombic'
loop_
_space_group_symop_operation_xyz
x,y,z
-x,-y,1/2+z
x,-y,-z
-x,y,1/2-z
-x,-y,-z
x,y,1/2-z
-x,y,z
x,-y,1/2+z
1/2+x,1/2+y,z
1/2-x,1/2-y,1/2+z
1/2+x,1/2-y,-z
1/2-x,1/2+y,1/2-z
1/2-x,1/2-y,-z
1/2+x,1/2+y,1/2-z
1/2-x,1/2+y,z
1/2+x,1/2-y,1/2+z
loop_
_atom_site_type_symbol
_atom_site_label
_atom_site_fract_x
_atom_site_fract_y
_atom_site_fract_z
Si Si1 0.372496 0.601491 0.071488
Si Si2 0.689281 0.796742 0.923996
Si Si3 0.500000 0.551671 0.427316
Si Si4 0.180070 0.191723 0.924902
Si Si5 0.427632 0.955289 0.916631
Si Si6 0.758417 0.950550 0.427054
Si Si7 0.644467 0.117793 0.924663
O O1 0.363915 0.600684 0.250000
O O2 0.439983 0.582096 0.022794
O O3 0.363344 0.655381 0.015310
O O4 0.322534 0.567271 0.996880
O O5 0.708568 0.801748 0.750000
O O6 0.658408 0.745578 0.953974
O O7 0.748578 0.809128 0.025581
O O8 0.639494 0.835066 0.975457
O O9 0.500000 0.500000 0.500000
O O10 0.500000 0.543385 0.250000
O O11 0.177194 0.177222 0.750000
O O12 0.397248 0.949983 0.750000
O O13 0.500000 0.962871 0.898426
O O14 0.415594 0.910707 0.022388
O O15 0.396958 0.000000 0.000000
O O16 0.767434 0.957546 0.250000
O O17 0.705813 0.912238 0.463798
O O18 0.739252 0.000000 0.500000
O O19 0.639748 0.130593 0.750000
#
# Coordination Sequence:
#
# PCOD8259016 Si02
#       7
#    16  16   8  16  16  16  16
#     4  11  22  38  60  83 112 150 191 238 289 343
#     4  10  20  34  56  84 116 149 184 227 279 334
#     4  10  24  42  60  86 114 150 200 244 291 350
#     4  10  20  35  56  85 115 145 185 228 277 338
#     4  10  21  37  57  80 109 147 190 231 272 327
#     4  11  23  36  52  80 115 147 184 229 278 337
#     4  11  22  35  55  83 115 147 185 232 279 335
#
# _framework density 19.188903
#
# number of rings (size 3 to 8) (size 9 to 14) (size 15 to 20)
#    0.000    1.538    1.538    3.692    0.000    8.308 
#    0.000    0.000    1.692    0.000    0.000    0.000 
#    0.000    0.000    0.000    0.000    0.000    0.000 
#
# Total GULP energy -644799.889403 kJ/mol
# GULP energy per Si atom -12399.997873 kJ/mol
# Density = 1.914523 g / cm^3
# Si number density = 19.188903 Si / 1000 Ang^3
#
#
#
# Elastic Constant Matrix: (Units=GPa)
#
#
# Indices 1 2 3 4 5 6 
#
# 1 43.4577 23.4333 30.8814 0.0000 0.0000 0.0000
# 2 23.4333 139.6572 56.2297 0.0000 0.0000 0.0000
# 3 30.8814 56.2297 94.5378 0.0000 0.0000 0.0000
# 4 0.0000 0.0000 0.0000 38.3868 0.0000 0.0000
# 5 0.0000 0.0000 0.0000 0.0000 24.6902 0.0000
# 6 0.0000 0.0000 0.0000 0.0000 0.0000 24.5169
#
#
#
# Elastic Compliance Matrix: (Units=1/GPa)
#
#
# Indices 1 2 3 4 5 6 
#
# 1 0.030186 -0.001440 -0.009004 0.000000 0.000000 0.000000
# 2 -0.001440 0.009484 -0.005171 0.000000 0.000000 0.000000
# 3 -0.009004 -0.005171 0.016594 0.000000 0.000000 0.000000
# 4 0.000000 0.000000 0.000000 0.026051 0.000000 0.000000
# 5 0.000000 0.000000 0.000000 0.000000 0.040502 0.000000
# 6 0.000000 0.000000 0.000000 0.000000 0.000000 0.040788
#
#
# Mechanical properties :
#
#
# Convention : Reuss Voigt Hill
#
# Bulk Modulus (GPa) = 39.94366 55.41572 47.67969
# Shear Modulus (GPa) = 24.60898 28.65933 26.63416
#
# Velocity S-wave (km/s) = 3.58503 3.86882 3.72963
# Velocity P-wave (km/s) = 6.16423 6.99277 6.59153
#
# Compressibility (1/GPa) = 0.02503526
#
# Stress axis : x y z
#
# Youngs Moduli (GPa) = 33.12848 105.44371 60.26146
#
# Poissons Ratio (x) = 0.15180 0.54260
# Poissons Ratio (y) = 0.04769 0.31158
# Poissons Ratio (z) = 0.29829 0.54520
#
# Static dielectric constant tensor:
#      x y z
#    x 3.256650 0.000000 0.000000 
#    y 0.000000 3.850030 0.000000 
#    z 0.000000 0.000000 3.712550 
# 
# 
# High freq. dielectric constant tensor:
#      x y z
#    x 1.715120 0.000000 0.000000 
#    y 0.000000 1.760820 0.000000 
#    z 0.000000 0.000000 1.763910 
# 
# From -- ./inp_files/10822.got.cif
#   From: 2010.03.12/outbox.cif.g09.slc.cpg/sg63_6_cif.got.tgz:10822.got - 2010.04.10 19:34:48.
