data_PCOD8259843
_publ_section_title
;
Structure prediction by ZEFSAII (Michael W. Deem and Ramdas Pophale) SiO2 
 PCOD8259843
Probable space group: C M C M
;
_chemical_formula_sum "Si O2"
_cell_formula_units_Z 88
_cell_length_a 17.015515
_cell_length_b 9.127066
_cell_length_c 29.569143
_cell_angle_alpha 90.000000
_cell_angle_beta 90.000000
_cell_angle_gamma 90.000000
_cell_volume 4592.139016
_symmetry_space_group_name_H-M "C M C M"
_symmetry_group_IT_number 63
_symmetry_cell_setting 'orthorhombic'
loop_
_space_group_symop_operation_xyz
x,y,z
-x,-y,1/2+z
x,-y,-z
-x,y,1/2-z
-x,-y,-z
x,y,1/2-z
-x,y,z
x,-y,1/2+z
1/2+x,1/2+y,z
1/2-x,1/2-y,1/2+z
1/2+x,1/2-y,-z
1/2-x,1/2+y,1/2-z
1/2-x,1/2-y,-z
1/2+x,1/2+y,1/2-z
1/2-x,1/2+y,z
1/2+x,1/2-y,1/2+z
loop_
_atom_site_type_symbol
_atom_site_label
_atom_site_fract_x
_atom_site_fract_y
_atom_site_fract_z
Si Si1 0.591615 0.613697 0.630606
Si Si2 0.694222 0.252394 0.060217
Si Si3 0.343176 0.170004 0.301203
Si Si4 0.911132 0.362467 0.199365
Si Si5 0.304386 0.669248 0.138488
Si Si6 0.262532 0.000000 0.500000
O O1 0.500000 0.576558 0.628322
O O2 0.615561 0.722594 0.589652
O O3 0.613813 0.688439 0.678079
O O4 0.641793 0.467045 0.625565
O O5 0.770319 0.238454 0.092570
O O6 0.706249 0.391732 0.027970
O O7 0.682904 0.101369 0.032164
O O8 0.319292 0.209735 0.250000
O O9 0.265617 0.120975 0.328329
O O10 0.404417 0.037332 0.303150
O O11 0.888505 0.308452 0.250000
O O12 0.855107 0.292787 0.162512
O O13 0.000000 0.317065 0.188081
#
# Coordination Sequence:
#
# PCOD8259843 Si02
#       6
#    16  16  16  16  16   8
#     4  11  23  38  57  88 125 152 187 239 298 350
#     4  10  21  39  64  91 110 152 188 240 288 352
#     4  10  21  37  57  82 114 157 202 239 274 328
#     4  10  21  36  54  80 116 155 192 232 278 327
#     4  11  21  36  59  87 113 152 194 237 281 338
#     4  10  20  40  68  86 114 142 200 236 292 352
#
# _framework density 19.163183
#
# number of rings (size 3 to 8) (size 9 to 14) (size 15 to 20)
#    0.000    1.636    1.818    3.818    2.545    4.000 
#    0.000    0.909    0.000    0.000    0.000    0.000 
#    0.000    0.000    0.000    0.000    0.000    0.000 
#
# Total GULP energy -545678.341401 kJ/mol
# GULP energy per Si atom -12401.780486 kJ/mol
# Density = 1.911957 g / cm^3
# Si number density = 19.163183 Si / 1000 Ang^3
#
#
#
# Elastic Constant Matrix: (Units=GPa)
#
#
# Indices 1 2 3 4 5 6 
#
# 1 108.6373 29.3113 42.3279 0.0000 0.0000 0.0000
# 2 29.3113 87.1894 43.2293 0.0000 0.0000 0.0000
# 3 42.3279 43.2293 116.1283 0.0000 0.0000 0.0000
# 4 0.0000 0.0000 0.0000 36.1079 0.0000 0.0000
# 5 0.0000 0.0000 0.0000 0.0000 16.0226 0.0000
# 6 0.0000 0.0000 0.0000 0.0000 0.0000 16.5899
#
#
#
# Elastic Compliance Matrix: (Units=1/GPa)
#
#
# Indices 1 2 3 4 5 6 
#
# 1 0.011034 -0.002104 -0.003239 0.000000 0.000000 0.000000
# 2 -0.002104 0.014466 -0.004618 0.000000 0.000000 0.000000
# 3 -0.003239 -0.004618 0.011511 0.000000 0.000000 0.000000
# 4 0.000000 0.000000 0.000000 0.027695 0.000000 0.000000
# 5 0.000000 0.000000 0.000000 0.000000 0.062412 0.000000
# 6 0.000000 0.000000 0.000000 0.000000 0.000000 0.060278
#
#
# Mechanical properties :
#
#
# Convention : Reuss Voigt Hill
#
# Bulk Modulus (GPa) = 58.51431 60.18800 59.35115
# Shear Modulus (GPa) = 23.47260 26.88319 25.17790
#
# Velocity S-wave (km/s) = 3.50363 3.74954 3.62866
# Velocity P-wave (km/s) = 6.85334 7.08673 6.97101
#
# Compressibility (1/GPa) = 0.01708984
#
# Stress axis : x y z
#
# Youngs Moduli (GPa) = 90.62491 69.12600 86.87406
#
# Poissons Ratio (x) = 0.14542 0.28137
# Poissons Ratio (y) = 0.19065 0.40122
# Poissons Ratio (z) = 0.29352 0.31925
#
# Static dielectric constant tensor:
#      x y z
#    x 3.330820 0.000000 0.000000 
#    y 0.000000 3.533970 0.000000 
#    z 0.000000 0.000000 3.748690 
# 
# 
# High freq. dielectric constant tensor:
#      x y z
#    x 1.725570 0.000000 0.000000 
#    y 0.000000 1.752450 0.000000 
#    z 0.000000 0.000000 1.755320 
# 
# From -- ./inp_files/73786.got.cif
#   From: 2010.03.12/outbox.cif.g09.slc.cpg/sg63_37_cif.got.tgz:73786.got - 2010.04.10 19:34:48.
