data_PCOD8259098
_publ_section_title
;
Structure prediction by ZEFSAII (Michael W. Deem and Ramdas Pophale) SiO2 
 PCOD8259098
Probable space group: C M C M
;
_chemical_formula_sum "Si O2"
_cell_formula_units_Z 80
_cell_length_a 25.686532
_cell_length_b 19.824016
_cell_length_c 8.532513
_cell_angle_alpha 90.000000
_cell_angle_beta 90.000000
_cell_angle_gamma 90.000000
_cell_volume 4344.842833
_symmetry_space_group_name_H-M "C M C M"
_symmetry_group_IT_number 63
_symmetry_cell_setting 'orthorhombic'
loop_
_space_group_symop_operation_xyz
x,y,z
-x,-y,1/2+z
x,-y,-z
-x,y,1/2-z
-x,-y,-z
x,y,1/2-z
-x,y,z
x,-y,1/2+z
1/2+x,1/2+y,z
1/2-x,1/2-y,1/2+z
1/2+x,1/2-y,-z
1/2-x,1/2+y,1/2-z
1/2-x,1/2-y,-z
1/2+x,1/2+y,1/2-z
1/2-x,1/2+y,z
1/2+x,1/2-y,1/2+z
loop_
_atom_site_type_symbol
_atom_site_label
_atom_site_fract_x
_atom_site_fract_y
_atom_site_fract_z
Si Si1 0.611133 0.821721 0.561787
Si Si2 0.308682 0.427927 0.433813
Si Si3 0.500000 0.672947 0.576097
Si Si4 0.697240 0.072476 0.064991
Si Si5 0.609075 0.325911 0.565997
Si Si6 0.000000 0.667473 0.420314
O O1 0.608647 0.812493 0.750000
O O2 0.655577 0.872703 0.506291
O O3 0.622275 0.750247 0.482796
O O4 0.555094 0.851364 0.497442
O O5 0.326545 0.500000 0.500000
O O6 0.301678 0.434694 0.250000
O O7 0.253597 0.404988 0.505114
O O8 0.351148 0.372794 0.474319
O O9 0.500000 0.639693 0.750000
O O10 0.551108 0.650499 0.480984
O O11 0.500000 0.752403 0.595812
O O12 0.698256 0.068628 0.250000
O O13 0.680434 0.000000 0.000000
O O14 0.616714 0.334886 0.750000
O O15 0.000000 0.632648 0.250000
#
# Coordination Sequence:
#
# PCOD8259098 Si02
#       6
#    16  16   8  16  16   8
#     4   9  18  33  54  78 105 140 179 219 264 313
#     4  11  22  38  57  76 103 139 176 216 266 319
#     4   9  17  33  54  77 108 143 174 208 257 311
#     4  10  20  35  54  76 104 139 179 221 268 319
#     4  11  21  34  55  83 110 137 174 218 261 308
#     4   7  12  27  50  73  99 133 171 208 251 303
#
# _framework density 18.412634000000001
#
# number of rings (size 3 to 8) (size 9 to 14) (size 15 to 20)
#    0.000    2.200    0.000    6.900    0.000    2.400 
#    0.000    1.000    0.000    0.000    0.000    0.000 
#    0.000    0.000    0.000    0.000    0.000    0.000 
#
# Total GULP energy -495826.545680 kJ/mol
# GULP energy per Si atom -12395.663642 kJ/mol
# Density = 1.837073 g / cm^3
# Si number density = 18.412634 Si / 1000 Ang^3
#
#
#
# Elastic Constant Matrix: (Units=GPa)
#
#
# Indices 1 2 3 4 5 6 
#
# 1 139.9694 73.4531 13.4299 0.0000 0.0000 0.0000
# 2 73.4531 78.5882 13.7818 0.0000 0.0000 0.0000
# 3 13.4299 13.7818 58.3443 0.0000 0.0000 0.0000
# 4 0.0000 0.0000 0.0000 26.6669 0.0000 0.0000
# 5 0.0000 0.0000 0.0000 0.0000 11.8627 0.0000
# 6 0.0000 0.0000 0.0000 0.0000 0.0000 -12.4006
#
#
#
# Elastic Compliance Matrix: (Units=1/GPa)
#
#
# Indices 1 2 3 4 5 6 
#
# 1 0.014023 -0.013083 -0.000138 0.000000 0.000000 0.000000
# 2 -0.013083 0.025480 -0.003007 0.000000 0.000000 0.000000
# 3 -0.000138 -0.003007 0.017882 0.000000 0.000000 0.000000
# 4 0.000000 0.000000 0.000000 0.037500 0.000000 0.000000
# 5 0.000000 0.000000 0.000000 0.000000 0.084298 0.000000
# 6 0.000000 0.000000 0.000000 0.000000 0.000000 -0.080641
#
#
# Mechanical properties :
#
#
# Convention : Reuss Voigt Hill
#
# Bulk Modulus (GPa) = 40.11317 53.13684 46.62501
# Shear Modulus (GPa) = 35.89227 16.97496 26.43361
#
# Velocity S-wave (km/s) = 4.41991 3.03961 3.79307
# Velocity P-wave (km/s) = 6.91957 6.42188 6.67536
#
# Compressibility (1/GPa) = 0.02492947
#
# Stress axis : x y z
#
# Youngs Moduli (GPa) = 71.31052 39.24672 55.92322
#
# Poissons Ratio (x) = 0.51346 0.00769
# Poissons Ratio (y) = 0.93294 0.16818
# Poissons Ratio (z) = 0.00981 0.11803
#
# Static dielectric constant tensor:
#      x y z
#    x 3.845950 0.000000 0.000000 
#    y 0.000000 3.201780 0.000000 
#    z 0.000000 0.000000 3.389190 
# 
# 
# High freq. dielectric constant tensor:
#      x y z
#    x 1.732380 0.000000 0.000000 
#    y 0.000000 1.687750 0.000000 
#    z 0.000000 0.000000 1.715820 
# 
# From -- ./inp_files/12111.got.cif
#   From: 2010.03.12/outbox.cif.g09.slc.cpg/sg63_7_cif.got.tgz:12111.got - 2010.04.10 19:34:48.
