data_PCOD8259373
_publ_section_title
;
Structure prediction by ZEFSAII (Michael W. Deem and Ramdas Pophale) SiO2 
 PCOD8259373
Probable space group: C M C M
;
_chemical_formula_sum "Si O2"
_cell_formula_units_Z 88
_cell_length_a 18.778007
_cell_length_b 24.739889
_cell_length_c 9.682491
_cell_angle_alpha 90.000000
_cell_angle_beta 90.000000
_cell_angle_gamma 90.000000
_cell_volume 4498.154263
_symmetry_space_group_name_H-M "C M C M"
_symmetry_group_IT_number 63
_symmetry_cell_setting 'orthorhombic'
loop_
_space_group_symop_operation_xyz
x,y,z
-x,-y,1/2+z
x,-y,-z
-x,y,1/2-z
-x,-y,-z
x,y,1/2-z
-x,y,z
x,-y,1/2+z
1/2+x,1/2+y,z
1/2-x,1/2-y,1/2+z
1/2+x,1/2-y,-z
1/2-x,1/2+y,1/2-z
1/2-x,1/2-y,-z
1/2+x,1/2+y,1/2-z
1/2-x,1/2+y,z
1/2+x,1/2-y,1/2+z
loop_
_atom_site_type_symbol
_atom_site_label
_atom_site_fract_x
_atom_site_fract_y
_atom_site_fract_z
Si Si1 0.000000 0.951316 0.400525
Si Si2 0.580262 0.741785 0.589272
Si Si3 0.417228 0.949999 0.408786
Si Si4 0.845792 0.053158 0.591360
Si Si5 0.863017 0.666917 0.588987
Si Si6 0.203430 0.836060 0.412072
O O1 0.925657 0.919917 0.420623
O O2 0.000000 0.978074 0.250000
O O3 0.000000 0.000000 0.500000
O O4 0.595229 0.754266 0.750000
O O5 0.500000 0.718200 0.570106
O O6 0.584874 0.797505 0.504520
O O7 0.640249 0.701288 0.526294
O O8 0.404259 0.965700 0.250000
O O9 0.500000 0.938856 0.439189
O O10 0.373991 0.896026 0.448164
O O11 0.388536 0.000000 0.500000
O O12 0.827503 0.037838 0.750000
O O13 0.798289 0.102052 0.532289
O O14 0.834546 0.000000 0.500000
O O15 0.880983 0.676549 0.750000
O O16 0.782115 0.685728 0.553696
O O17 0.189594 0.839635 0.250000
#
# Coordination Sequence:
#
# PCOD8259373 Si02
#       6
#     8  16  16  16  16  16
#     4   8  14  24  42  64  88 124 164 204 245 286
#     4  10  21  36  56  80 103 132 175 221 261 307
#     4   9  18  32  51  76 104 135 170 208 251 302
#     4   9  17  30  48  71 100 134 172 211 254 302
#     4  10  20  36  56  77 106 141 173 210 262 317
#     4   9  19  34  53  77 105 138 175 215 259 312
#
# _framework density 19.563579000000001
#
# number of rings (size 3 to 8) (size 9 to 14) (size 15 to 20)
#    0.000    2.727    0.000    1.091    1.273    2.545 
#    0.000    3.636    0.000    0.000    0.000    0.000 
#    0.000    0.000    0.000    0.000    0.000    0.000 
#
# Total GULP energy -545178.976783 kJ/mol
# GULP energy per Si atom -12390.431291 kJ/mol
# Density = 1.951905 g / cm^3
# Si number density = 19.563579 Si / 1000 Ang^3
#
#
#
# Elastic Constant Matrix: (Units=GPa)
#
#
# Indices 1 2 3 4 5 6 
#
# 1 82.5703 36.2663 25.1722 0.0000 0.0000 0.0000
# 2 36.2663 99.3272 41.2289 0.0000 0.0000 0.0000
# 3 25.1722 41.2289 53.6506 0.0000 0.0000 0.0000
# 4 0.0000 0.0000 0.0000 29.8339 0.0000 0.0000
# 5 0.0000 0.0000 0.0000 0.0000 18.2380 0.0000
# 6 0.0000 0.0000 0.0000 0.0000 0.0000 32.7995
#
#
#
# Elastic Compliance Matrix: (Units=1/GPa)
#
#
# Indices 1 2 3 4 5 6 
#
# 1 0.015032 -0.003760 -0.004163 0.000000 0.000000 0.000000
# 2 -0.003760 0.015724 -0.010319 0.000000 0.000000 0.000000
# 3 -0.004163 -0.010319 0.028522 0.000000 0.000000 0.000000
# 4 0.000000 0.000000 0.000000 0.033519 0.000000 0.000000
# 5 0.000000 0.000000 0.000000 0.000000 0.054830 0.000000
# 6 0.000000 0.000000 0.000000 0.000000 0.000000 0.030488
#
#
# Mechanical properties :
#
#
# Convention : Reuss Voigt Hill
#
# Bulk Modulus (GPa) = 43.87299 48.98698 46.42998
# Shear Modulus (GPa) = 22.50246 25.03300 23.76773
#
# Velocity S-wave (km/s) = 3.39517 3.58099 3.48932
# Velocity P-wave (km/s) = 6.15176 6.49556 6.32599
#
# Compressibility (1/GPa) = 0.02279307
#
# Stress axis : x y z
#
# Youngs Moduli (GPa) = 66.52648 63.59703 35.06041
#
# Poissons Ratio (x) = 0.23915 0.14595
# Poissons Ratio (y) = 0.25017 0.36179
# Poissons Ratio (z) = 0.27694 0.65626
#
# Static dielectric constant tensor:
#      x y z
#    x 3.452730 0.000000 0.000000 
#    y 0.000000 3.390280 0.000000 
#    z 0.000000 0.000000 3.338550 
# 
# 
# High freq. dielectric constant tensor:
#      x y z
#    x 1.773430 0.000000 0.000000 
#    y 0.000000 1.752140 0.000000 
#    z 0.000000 0.000000 1.732910 
# 
# From -- ./inp_files/8238.got.cif
#   From: 2010.03.12/outbox.cif.g09.slc.cpg/sg63_5_cif.got.tgz:8238.got - 2010.04.10 19:34:48.
