data_PCOD8259516
_publ_section_title
;
Structure prediction by ZEFSAII (Michael W. Deem and Ramdas Pophale) SiO2 
 PCOD8259516
Probable space group: C M C M
;
_chemical_formula_sum "Si O2"
_cell_formula_units_Z 112
_cell_length_a 14.309067
_cell_length_b 23.634050
_cell_length_c 17.325435
_cell_angle_alpha 90.000000
_cell_angle_beta 90.000000
_cell_angle_gamma 90.000000
_cell_volume 5859.136484
_symmetry_space_group_name_H-M "C M C M"
_symmetry_group_IT_number 63
_symmetry_cell_setting 'orthorhombic'
loop_
_space_group_symop_operation_xyz
x,y,z
-x,-y,1/2+z
x,-y,-z
-x,y,1/2-z
-x,-y,-z
x,y,1/2-z
-x,y,z
x,-y,1/2+z
1/2+x,1/2+y,z
1/2-x,1/2-y,1/2+z
1/2+x,1/2-y,-z
1/2-x,1/2+y,1/2-z
1/2-x,1/2-y,-z
1/2+x,1/2+y,1/2-z
1/2-x,1/2+y,z
1/2+x,1/2-y,1/2+z
loop_
_atom_site_type_symbol
_atom_site_label
_atom_site_fract_x
_atom_site_fract_y
_atom_site_fract_z
Si Si1 0.246339 0.452000 0.661803
Si Si2 0.107274 0.956695 0.337855
Si Si3 0.389513 0.655321 0.928521
Si Si4 0.107340 0.475109 0.419766
Si Si5 0.746391 0.228378 0.841045
Si Si6 0.108903 0.342860 0.066207
Si Si7 0.753028 0.160109 0.434984
O O1 0.248961 0.431667 0.750000
O O2 0.339048 0.486463 0.638561
O O3 0.159694 0.494569 0.650497
O O4 0.236257 0.398510 0.607435
O O5 0.130907 0.938581 0.250000
O O6 0.136371 0.905629 0.393359
O O7 0.000000 0.972170 0.348065
O O8 0.500000 0.666561 0.931033
O O9 0.341788 0.702607 0.875225
O O10 0.347187 0.657755 0.014186
O O11 0.147276 0.500000 0.500000
O O12 0.123903 0.408462 0.415092
O O13 0.000000 0.491595 0.411111
O O14 0.754626 0.230368 0.750000
O O15 0.654999 0.192075 0.864104
O O16 0.734099 0.291609 0.871949
O O17 0.000000 0.327122 0.057325
O O18 0.162569 0.326398 0.987605
#
# Coordination Sequence:
#
# PCOD8259516 Si02
#       7
#    16  16  16  16  16  16  16
#     4  11  22  36  57  84 119 159 191 229 288 347
#     4   9  19  35  56  85 117 147 185 236 289 341
#     4  10  21  38  62  87 110 143 191 242 289 338
#     4  10  20  36  59  87 117 148 186 236 289 343
#     4  11  24  40  58  84 116 150 192 241 288 338
#     4  10  21  39  64  86 111 150 195 241 289 341
#     4  11  23  38  57  83 117 153 194 236 281 343
#
# _framework density 19.115445000000001
#
# number of rings (size 3 to 8) (size 9 to 14) (size 15 to 20)
#    0.000    1.714    1.429    4.286    0.000    6.000 
#    0.000    2.857    0.000    5.143    0.000    0.000 
#    0.000    0.000    0.000    0.000    0.000    0.000 
#
# Total GULP energy -694591.735063 kJ/mol
# GULP energy per Si atom -12403.423840 kJ/mol
# Density = 1.907194 g / cm^3
# Si number density = 19.115445 Si / 1000 Ang^3
#
#
#
# Elastic Constant Matrix: (Units=GPa)
#
#
# Indices 1 2 3 4 5 6 
#
# 1 106.9501 28.8730 32.8475 0.0000 0.0000 0.0000
# 2 28.8730 76.7176 31.8951 0.0000 0.0000 0.0000
# 3 32.8475 31.8951 92.1950 0.0000 0.0000 0.0000
# 4 0.0000 0.0000 0.0000 31.4260 0.0000 0.0000
# 5 0.0000 0.0000 0.0000 0.0000 16.5841 0.0000
# 6 0.0000 0.0000 0.0000 0.0000 0.0000 19.4663
#
#
#
# Elastic Compliance Matrix: (Units=1/GPa)
#
#
# Indices 1 2 3 4 5 6 
#
# 1 0.011040 -0.002943 -0.002915 0.000000 0.000000 0.000000
# 2 -0.002943 0.016009 -0.004490 0.000000 0.000000 0.000000
# 3 -0.002915 -0.004490 0.013439 0.000000 0.000000 0.000000
# 4 0.000000 0.000000 0.000000 0.031821 0.000000 0.000000
# 5 0.000000 0.000000 0.000000 0.000000 0.060299 0.000000
# 6 0.000000 0.000000 0.000000 0.000000 0.000000 0.051371
#
#
# Mechanical properties :
#
#
# Convention : Reuss Voigt Hill
#
# Bulk Modulus (GPa) = 50.52684 51.45490 50.99087
# Shear Modulus (GPa) = 23.66627 25.64507 24.65567
#
# Velocity S-wave (km/s) = 3.52244 3.66674 3.59532
# Velocity P-wave (km/s) = 6.55998 6.70098 6.63085
#
# Compressibility (1/GPa) = 0.01979146
#
# Stress axis : x y z
#
# Youngs Moduli (GPa) = 90.57954 62.46464 74.41300
#
# Poissons Ratio (x) = 0.18383 0.21693
# Poissons Ratio (y) = 0.26657 0.33410
# Poissons Ratio (z) = 0.26406 0.28046
#
# Static dielectric constant tensor:
#      x y z
#    x 3.617480 0.000000 0.000000 
#    y 0.000000 3.511970 0.000000 
#    z 0.000000 0.000000 3.505100 
# 
# 
# High freq. dielectric constant tensor:
#      x y z
#    x 1.748030 0.000000 0.000000 
#    y 0.000000 1.750560 0.000000 
#    z 0.000000 0.000000 1.739900 
# 
# From -- ./inp_files/32264.got.cif
#   From: 2010.03.12/outbox.cif.g09.slc.cpg/sg63_17_cif.got.tgz:32264.got - 2010.04.10 19:34:48.
