data_PCOD8259038
_publ_section_title
;
Structure prediction by ZEFSAII (Michael W. Deem and Ramdas Pophale) SiO2 
 PCOD8259038
Probable space group: C M C M
;
_chemical_formula_sum "Si O2"
_cell_formula_units_Z 80
_cell_length_a 8.947459
_cell_length_b 28.809895
_cell_length_c 15.750939
_cell_angle_alpha 90.000000
_cell_angle_beta 90.000000
_cell_angle_gamma 90.000000
_cell_volume 4060.203881
_symmetry_space_group_name_H-M "C M C M"
_symmetry_group_IT_number 63
_symmetry_cell_setting 'orthorhombic'
loop_
_space_group_symop_operation_xyz
x,y,z
-x,-y,1/2+z
x,-y,-z
-x,y,1/2-z
-x,-y,-z
x,y,1/2-z
-x,y,z
x,-y,1/2+z
1/2+x,1/2+y,z
1/2-x,1/2-y,1/2+z
1/2+x,1/2-y,-z
1/2-x,1/2+y,1/2-z
1/2-x,1/2-y,-z
1/2+x,1/2+y,1/2-z
1/2-x,1/2+y,z
1/2+x,1/2-y,1/2+z
loop_
_atom_site_type_symbol
_atom_site_label
_atom_site_fract_x
_atom_site_fract_y
_atom_site_fract_z
Si Si1 0.324216 0.711995 0.250000
Si Si2 0.676838 0.055431 0.908594
Si Si3 0.329884 0.643648 0.653263
Si Si4 0.823427 0.548289 0.099951
Si Si5 0.321673 0.112184 0.250000
Si Si6 0.176412 0.269733 0.084176
O O1 0.500000 0.703226 0.250000
O O2 0.240674 0.663503 0.250000
O O3 0.274559 0.739727 0.334110
O O4 0.500000 0.061566 0.895956
O O5 0.763752 0.092074 0.851467
O O6 0.730983 0.004141 0.880235
O O7 0.725083 0.063991 0.006221
O O8 0.320017 0.660556 0.750000
O O9 0.500000 0.644035 0.620668
O O10 0.232546 0.677782 0.595288
O O11 0.758872 0.584741 0.167843
O O12 0.000000 0.547279 0.105316
O O13 0.500000 0.114532 0.250000
O O14 0.000000 0.270349 0.072459
O O15 0.250000 0.250000 0.000000
#
# Coordination Sequence:
#
# PCOD8259038 Si02
#       6
#     8  16  16  16   8  16
#     4  10  24  44  61  86 121 155 194 243 297 360
#     4   9  18  35  59  84 116 153 196 243 291 343
#     4  11  24  40  59  88 122 154 196 245 296 355
#     4   8  17  34  55  85 117 151 196 242 282 343
#     4  10  20  34  57  84 115 155 198 237 283 342
#     4  11  24  44  67  90 119 156 201 248 302 361
#
# _framework density 19.703444000000001
#
# number of rings (size 3 to 8) (size 9 to 14) (size 15 to 20)
#    0.000    2.200    1.000    2.400    4.200    2.800 
#    0.000    3.000    0.000    0.000    0.000    0.000 
#    0.000    0.000    0.000    0.000    0.000    0.000 
#
# Total GULP energy -496025.620835 kJ/mol
# GULP energy per Si atom -12400.640521 kJ/mol
# Density = 1.965860 g / cm^3
# Si number density = 19.703444 Si / 1000 Ang^3
#
#
#
# Elastic Constant Matrix: (Units=GPa)
#
#
# Indices 1 2 3 4 5 6 
#
# 1 66.0453 45.5132 40.9247 0.0000 0.0000 0.0000
# 2 45.5132 122.9858 44.4485 0.0000 0.0000 0.0000
# 3 40.9247 44.4485 97.2796 0.0000 0.0000 0.0000
# 4 0.0000 0.0000 0.0000 37.6150 0.0000 0.0000
# 5 0.0000 0.0000 0.0000 0.0000 26.7367 0.0000
# 6 0.0000 0.0000 0.0000 0.0000 0.0000 31.7963
#
#
#
# Elastic Compliance Matrix: (Units=1/GPa)
#
#
# Indices 1 2 3 4 5 6 
#
# 1 0.023909 -0.006244 -0.007205 0.000000 0.000000 0.000000
# 2 -0.006244 0.011370 -0.002568 0.000000 0.000000 0.000000
# 3 -0.007205 -0.002568 0.014484 0.000000 0.000000 0.000000
# 4 0.000000 0.000000 0.000000 0.026585 0.000000 0.000000
# 5 0.000000 0.000000 0.000000 0.000000 0.037402 0.000000
# 6 0.000000 0.000000 0.000000 0.000000 0.000000 0.031450
#
#
# Mechanical properties :
#
#
# Convention : Reuss Voigt Hill
#
# Bulk Modulus (GPa) = 56.40789 60.89817 58.65303
# Shear Modulus (GPa) = 27.30092 29.59121 28.44606
#
# Velocity S-wave (km/s) = 3.72639 3.87955 3.80374
# Velocity P-wave (km/s) = 6.87061 7.14439 7.00884
#
# Compressibility (1/GPa) = 0.01772802
#
# Stress axis : x y z
#
# Youngs Moduli (GPa) = 41.82612 87.95176 69.03993
#
# Poissons Ratio (x) = 0.54915 0.49745
# Poissons Ratio (y) = 0.26115 0.17732
# Poissons Ratio (z) = 0.30137 0.22589
#
# Static dielectric constant tensor:
#      x y z
#    x 3.308730 0.000000 0.000000 
#    y 0.000000 3.666090 0.000000 
#    z 0.000000 0.000000 3.883810 
# 
# 
# High freq. dielectric constant tensor:
#      x y z
#    x 1.742300 0.000000 0.000000 
#    y 0.000000 1.779080 0.000000 
#    z 0.000000 0.000000 1.774470 
# 
# From -- ./inp_files/40551.got.cif
#   From: 2010.03.12/outbox.cif.g09.slc.cpg/sg63_21_cif.got.tgz:40551.got - 2010.04.10 19:34:48.
