data_PCOD8259940
_publ_section_title
;
Structure prediction by ZEFSAII (Michael W. Deem and Ramdas Pophale) SiO2 
 PCOD8259940
Probable space group: C M C M
;
_chemical_formula_sum "Si O2"
_cell_formula_units_Z 88
_cell_length_a 13.803434
_cell_length_b 13.331643
_cell_length_c 25.662195
_cell_angle_alpha 90.000000
_cell_angle_beta 90.000000
_cell_angle_gamma 90.000000
_cell_volume 4722.420106
_symmetry_space_group_name_H-M "C M C M"
_symmetry_group_IT_number 63
_symmetry_cell_setting 'orthorhombic'
loop_
_space_group_symop_operation_xyz
x,y,z
-x,-y,1/2+z
x,-y,-z
-x,y,1/2-z
-x,-y,-z
x,y,1/2-z
-x,y,z
x,-y,1/2+z
1/2+x,1/2+y,z
1/2-x,1/2-y,1/2+z
1/2+x,1/2-y,-z
1/2-x,1/2+y,1/2-z
1/2-x,1/2-y,-z
1/2+x,1/2+y,1/2-z
1/2-x,1/2+y,z
1/2+x,1/2-y,1/2+z
loop_
_atom_site_type_symbol
_atom_site_label
_atom_site_fract_x
_atom_site_fract_y
_atom_site_fract_z
Si Si1 0.301410 0.185868 0.379997
Si Si2 0.000000 0.010422 0.560362
Si Si3 0.000000 0.755377 0.424728
Si Si4 0.500000 0.886663 0.475028
Si Si5 0.832736 0.367858 0.109773
Si Si6 0.294998 0.476296 0.560210
Si Si7 0.610568 0.027294 0.190512
O O1 0.404617 0.233737 0.391345
O O2 0.211276 0.261452 0.371103
O O3 0.273337 0.118719 0.430123
O O4 0.315510 0.112513 0.330336
O O5 0.000000 0.127984 0.567903
O O6 0.000000 0.000000 0.500000
O O7 0.096286 0.956463 0.582466
O O8 0.000000 0.693480 0.478515
O O9 0.593081 0.865025 0.438837
O O10 0.500000 0.000000 0.500000
O O11 0.739023 0.426705 0.091016
O O12 0.881022 0.423272 0.158840
O O13 0.294551 0.500000 0.500000
O O14 0.638248 0.004817 0.250000
O O15 0.500000 0.065735 0.185083
#
# Coordination Sequence:
#
# PCOD8259940 Si02
#       7
#    16   8   8   8  16  16  16
#     4  11  23  37  60  88 113 151 199 240 291 344
#     4  10  22  36  50  78 119 160 196 228 272 329
#     4  12  22  38  58  83 119 163 199 231 275 339
#     4  12  24  36  56  87 129 161 200 241 279 334
#     4  11  22  37  58  90 113 153 198 241 288 343
#     4  10  21  35  53  80 121 158 192 233 276 336
#     4  10  21  42  65  84 111 146 189 247 308 357
#
# _framework density 18.634512999999998
#
# number of rings (size 3 to 8) (size 9 to 14) (size 15 to 20)
#    0.000    1.273    3.636    3.818    5.091    2.182 
#    0.000    0.000    0.000    0.000    0.000    3.818 
#    0.000    0.000    0.000    0.000    0.000    0.000 
#
# Total GULP energy -545247.833506 kJ/mol
# GULP energy per Si atom -12391.996216 kJ/mol
# Density = 1.859210 g / cm^3
# Si number density = 18.634513 Si / 1000 Ang^3
#
#
#
# Elastic Constant Matrix: (Units=GPa)
#
#
# Indices 1 2 3 4 5 6 
#
# 1 98.4975 20.0342 25.1041 0.0000 0.0000 0.0000
# 2 20.0342 83.4867 27.8198 0.0000 0.0000 0.0000
# 3 25.1041 27.8198 92.8212 0.0000 0.0000 0.0000
# 4 0.0000 0.0000 0.0000 19.0522 0.0000 0.0000
# 5 0.0000 0.0000 0.0000 0.0000 28.2579 0.0000
# 6 0.0000 0.0000 0.0000 0.0000 0.0000 54.0136
#
#
#
# Elastic Compliance Matrix: (Units=1/GPa)
#
#
# Indices 1 2 3 4 5 6 
#
# 1 0.011158 -0.001857 -0.002461 0.000000 0.000000 0.000000
# 2 -0.001857 0.013616 -0.003579 0.000000 0.000000 0.000000
# 3 -0.002461 -0.003579 0.012512 0.000000 0.000000 0.000000
# 4 0.000000 0.000000 0.000000 0.052487 0.000000 0.000000
# 5 0.000000 0.000000 0.000000 0.000000 0.035388 0.000000
# 6 0.000000 0.000000 0.000000 0.000000 0.000000 0.018514
#
#
# Mechanical properties :
#
#
# Convention : Reuss Voigt Hill
#
# Bulk Modulus (GPa) = 46.53039 46.74684 46.63862
# Shear Modulus (GPa) = 30.00615 33.72123 31.86369
#
# Velocity S-wave (km/s) = 4.01714 4.25857 4.13961
# Velocity P-wave (km/s) = 6.82208 7.02290 6.92322
#
# Compressibility (1/GPa) = 0.02149133
#
# Stress axis : x y z
#
# Youngs Moduli (GPa) = 89.62537 73.44222 79.92630
#
# Poissons Ratio (x) = 0.13641 0.19669
# Poissons Ratio (y) = 0.16647 0.28602
# Poissons Ratio (z) = 0.22056 0.26282
#
# Static dielectric constant tensor:
#      x y z
#    x 4.008040 0.000000 0.000000 
#    y 0.000000 3.449340 0.000000 
#    z 0.000000 0.000000 3.290870 
# 
# 
# High freq. dielectric constant tensor:
#      x y z
#    x 1.743940 0.000000 0.000000 
#    y 0.000000 1.722990 0.000000 
#    z 0.000000 0.000000 1.694510 
# 
# From -- ./inp_files/62740.got.cif
#   From: 2010.03.12/outbox.cif.g09.slc.cpg/sg63_32_cif.got.tgz:62740.got - 2010.04.10 19:34:48.
