data_PCOD8259673
_publ_section_title
;
Structure prediction by ZEFSAII (Michael W. Deem and Ramdas Pophale) SiO2 
 PCOD8259673
Probable space group: C M C M
;
_chemical_formula_sum "Si O2"
_cell_formula_units_Z 112
_cell_length_a 25.927554
_cell_length_b 14.637249
_cell_length_c 14.196081
_cell_angle_alpha 90.000000
_cell_angle_beta 90.000000
_cell_angle_gamma 90.000000
_cell_volume 5387.527215
_symmetry_space_group_name_H-M "C M C M"
_symmetry_group_IT_number 63
_symmetry_cell_setting 'orthorhombic'
loop_
_space_group_symop_operation_xyz
x,y,z
-x,-y,1/2+z
x,-y,-z
-x,y,1/2-z
-x,-y,-z
x,y,1/2-z
-x,y,z
x,-y,1/2+z
1/2+x,1/2+y,z
1/2-x,1/2-y,1/2+z
1/2+x,1/2-y,-z
1/2-x,1/2+y,1/2-z
1/2-x,1/2-y,-z
1/2+x,1/2+y,1/2-z
1/2-x,1/2+y,z
1/2+x,1/2-y,1/2+z
loop_
_atom_site_type_symbol
_atom_site_label
_atom_site_fract_x
_atom_site_fract_y
_atom_site_fract_z
Si Si1 0.268909 0.549001 0.143147
Si Si2 0.304905 0.710565 0.020988
Si Si3 0.152981 0.890323 0.353436
Si Si4 0.879008 0.640890 0.955573
Si Si5 0.059799 0.219132 0.145981
Si Si6 0.851219 0.542764 0.138874
Si Si7 0.057871 0.982838 0.891864
O O1 0.272152 0.581883 0.250000
O O2 0.297607 0.454084 0.125879
O O3 0.209317 0.539006 0.113140
O O4 0.300238 0.621355 0.083097
O O5 0.341112 0.689839 0.929783
O O6 0.250000 0.750000 0.000000
O O7 0.332888 0.791949 0.076357
O O8 0.158897 0.845849 0.250000
O O9 0.098535 0.943520 0.352658
O O10 0.929065 0.701569 0.930609
O O11 0.876831 0.553522 0.887661
O O12 0.877064 0.616561 0.067615
O O13 0.078577 0.250189 0.250000
O O14 0.082827 0.118100 0.123746
O O15 0.000000 0.202493 0.142780
O O16 0.861258 0.565358 0.250000
O O17 0.000000 0.993893 0.845752
O O18 0.051522 0.000000 0.000000
#
# Coordination Sequence:
#
# PCOD8259673 Si02
#       7
#    16  16  16  16  16  16  16
#     4  10  21  37  56  79 114 155 196 240 293 360
#     4  12  23  36  57  83 120 153 198 250 296 350
#     4  11  23  36  56  86 120 163 206 246 297 361
#     4  11  22  37  62  85 112 155 195 247 302 361
#     4  10  21  38  62  93 125 157 201 254 302 355
#     4  10  22  40  58  81 114 154 197 244 306 370
#     4  10  20  37  61  89 125 166 205 249 302 357
#
# _framework density 20.78876
#
# number of rings (size 3 to 8) (size 9 to 14) (size 15 to 20)
#    0.000    1.429    1.429    4.714    2.000    4.286 
#    0.000    1.429    0.000    1.286    0.000    0.000 
#    0.000    0.000    0.000    0.000    0.000    0.000 
#
# Total GULP energy -694001.019064 kJ/mol
# GULP energy per Si atom -12392.875340 kJ/mol
# Density = 2.074144 g / cm^3
# Si number density = 20.788760 Si / 1000 Ang^3
#
#
#
# Elastic Constant Matrix: (Units=GPa)
#
#
# Indices 1 2 3 4 5 6 
#
# 1 61.3123 30.0712 29.2552 0.0000 0.0000 0.0000
# 2 30.0712 78.4411 33.2269 0.0000 0.0000 0.0000
# 3 29.2552 33.2269 106.7256 0.0000 0.0000 0.0000
# 4 0.0000 0.0000 0.0000 22.4458 0.0000 0.0000
# 5 0.0000 0.0000 0.0000 0.0000 25.4912 0.0000
# 6 0.0000 0.0000 0.0000 0.0000 0.0000 37.6609
#
#
#
# Elastic Compliance Matrix: (Units=1/GPa)
#
#
# Indices 1 2 3 4 5 6 
#
# 1 0.021349 -0.006572 -0.003806 0.000000 0.000000 0.000000
# 2 -0.006572 0.016708 -0.003400 0.000000 0.000000 0.000000
# 3 -0.003806 -0.003400 0.011472 0.000000 0.000000 0.000000
# 4 0.000000 0.000000 0.000000 0.044552 0.000000 0.000000
# 5 0.000000 0.000000 0.000000 0.000000 0.039229 0.000000
# 6 0.000000 0.000000 0.000000 0.000000 0.000000 0.026553
#
#
# Mechanical properties :
#
#
# Convention : Reuss Voigt Hill
#
# Bulk Modulus (GPa) = 45.51194 47.95396 46.73295
# Shear Modulus (GPa) = 25.67468 27.38130 26.52799
#
# Velocity S-wave (km/s) = 3.51811 3.63315 3.57609
# Velocity P-wave (km/s) = 6.20023 6.38099 6.29126
#
# Compressibility (1/GPa) = 0.02197226
#
# Stress axis : x y z
#
# Youngs Moduli (GPa) = 46.83958 59.85062 87.17088
#
# Poissons Ratio (x) = 0.39336 0.33178
# Poissons Ratio (y) = 0.30784 0.29640
# Poissons Ratio (z) = 0.17828 0.20350
#
# Static dielectric constant tensor:
#      x y z
#    x 3.958770 0.000000 0.000000 
#    y 0.000000 3.658900 0.000000 
#    z 0.000000 0.000000 3.860990 
# 
# 
# High freq. dielectric constant tensor:
#      x y z
#    x 1.801600 0.000000 0.000000 
#    y 0.000000 1.809740 0.000000 
#    z 0.000000 0.000000 1.821720 
# 
# From -- ./inp_files/36887.got.cif
#   From: 2010.03.12/outbox.cif.g09.slc.cpg/sg63_19_cif.got.tgz:36887.got - 2010.04.10 19:34:48.
