data_PCOD8259638
_publ_section_title
;
Structure prediction by ZEFSAII (Michael W. Deem and Ramdas Pophale) SiO2 
 PCOD8259638
Probable space group: C M C M
;
_chemical_formula_sum "Si O2"
_cell_formula_units_Z 96
_cell_length_a 19.971601
_cell_length_b 16.573761
_cell_length_c 14.031716
_cell_angle_alpha 90.000000
_cell_angle_beta 90.000000
_cell_angle_gamma 90.000000
_cell_volume 4644.561725
_symmetry_space_group_name_H-M "C M C M"
_symmetry_group_IT_number 63
_symmetry_cell_setting 'orthorhombic'
loop_
_space_group_symop_operation_xyz
x,y,z
-x,-y,1/2+z
x,-y,-z
-x,y,1/2-z
-x,-y,-z
x,y,1/2-z
-x,y,z
x,-y,1/2+z
1/2+x,1/2+y,z
1/2-x,1/2-y,1/2+z
1/2+x,1/2-y,-z
1/2-x,1/2+y,1/2-z
1/2-x,1/2-y,-z
1/2+x,1/2+y,1/2-z
1/2-x,1/2+y,z
1/2+x,1/2-y,1/2+z
loop_
_atom_site_type_symbol
_atom_site_label
_atom_site_fract_x
_atom_site_fract_y
_atom_site_fract_z
Si Si1 0.374183 0.133336 0.637649
Si Si2 0.294824 0.870556 0.861029
Si Si3 0.670530 0.411968 0.976315
Si Si4 0.423884 0.699292 0.141597
Si Si5 0.575103 0.962949 0.863437
Si Si6 0.725067 0.317088 0.359615
O O1 0.383353 0.126136 0.750000
O O2 0.414961 0.210683 0.598211
O O3 0.297180 0.148295 0.610695
O O4 0.402508 0.050080 0.592276
O O5 0.285004 0.891861 0.750000
O O6 0.241611 0.921091 0.922260
O O7 0.370218 0.895137 0.894347
O O8 0.279940 0.777400 0.882279
O O9 0.618131 0.368340 0.909666
O O10 0.642858 0.500000 0.000000
O O11 0.672369 0.363075 0.075154
O O12 0.397606 0.701782 0.250000
O O13 0.500000 0.672388 0.134152
O O14 0.574068 0.968689 0.750000
O O15 0.500000 0.941038 0.900420
O O16 0.707771 0.334628 0.250000
#
# Coordination Sequence:
#
# PCOD8259638 Si02
#       6
#    16  16  16  16  16  16
#     4   9  16  31  57  86 114 148 196 242 287 347
#     4  10  20  37  59  85 121 160 199 242 294 362
#     4  12  24  37  60  88 118 151 197 254 308 360
#     4  10  21  38  61  87 116 153 197 248 305 362
#     4   9  17  30  53  86 123 160 193 231 286 354
#     4  10  21  38  61  87 116 155 203 248 294 356
#
# _framework density 20.669335
#
# number of rings (size 3 to 8) (size 9 to 14) (size 15 to 20)
#    0.000    2.000    1.667    2.500    0.000    5.000 
#    0.000    0.833    0.000    3.000    0.000    0.000 
#    0.000    0.000    0.000    0.000    0.000    0.000 
#
# Total GULP energy -595206.491291 kJ/mol
# GULP energy per Si atom -12400.135235 kJ/mol
# Density = 2.062229 g / cm^3
# Si number density = 20.669335 Si / 1000 Ang^3
#
#
#
# Elastic Constant Matrix: (Units=GPa)
#
#
# Indices 1 2 3 4 5 6 
#
# 1 76.5797 37.8809 27.6738 0.0000 0.0000 0.0000
# 2 37.8809 100.6433 23.7877 0.0000 0.0000 0.0000
# 3 27.6738 23.7877 39.1087 0.0000 0.0000 0.0000
# 4 0.0000 0.0000 0.0000 20.3709 0.0000 0.0000
# 5 0.0000 0.0000 0.0000 0.0000 17.2092 0.0000
# 6 0.0000 0.0000 0.0000 0.0000 0.0000 32.1714
#
#
#
# Elastic Compliance Matrix: (Units=1/GPa)
#
#
# Indices 1 2 3 4 5 6 
#
# 1 0.019284 -0.004710 -0.010781 0.000000 0.000000 0.000000
# 2 -0.004710 0.012755 -0.004425 0.000000 0.000000 0.000000
# 3 -0.010781 -0.004425 0.035890 0.000000 0.000000 0.000000
# 4 0.000000 0.000000 0.000000 0.049090 0.000000 0.000000
# 5 0.000000 0.000000 0.000000 0.000000 0.058108 0.000000
# 6 0.000000 0.000000 0.000000 0.000000 0.000000 0.031084
#
#
# Mechanical properties :
#
#
# Convention : Reuss Voigt Hill
#
# Bulk Modulus (GPa) = 35.59123 43.89074 39.74099
# Shear Modulus (GPa) = 19.57654 22.41626 20.99640
#
# Velocity S-wave (km/s) = 3.08089 3.29677 3.19066
# Velocity P-wave (km/s) = 5.46924 5.98101 5.73084
#
# Compressibility (1/GPa) = 0.02809681
#
# Stress axis : x y z
#
# Youngs Moduli (GPa) = 51.85629 78.40160 27.86304
#
# Poissons Ratio (x) = 0.36929 0.30038
# Poissons Ratio (y) = 0.24425 0.12330
# Poissons Ratio (z) = 0.55905 0.34693
#
# Static dielectric constant tensor:
#      x y z
#    x 3.739790 0.000000 0.000000 
#    y 0.000000 3.765640 0.000000 
#    z 0.000000 0.000000 3.660550 
# 
# 
# High freq. dielectric constant tensor:
#      x y z
#    x 1.794680 0.000000 0.000000 
#    y 0.000000 1.807210 0.000000 
#    z 0.000000 0.000000 1.809570 
# 
# From -- ./inp_files/35295.got.cif
#   From: 2010.03.12/outbox.cif.g09.slc.cpg/sg63_18_cif.got.tgz:35295.got - 2010.04.10 19:34:48.
