data_PCOD8259886
_publ_section_title
;
Structure prediction by ZEFSAII (Michael W. Deem and Ramdas Pophale) SiO2 
 PCOD8259886
Probable space group: C M C M
;
_chemical_formula_sum "Si O2"
_cell_formula_units_Z 80
_cell_length_a 9.055400
_cell_length_b 22.574551
_cell_length_c 22.665645
_cell_angle_alpha 90.000000
_cell_angle_beta 90.000000
_cell_angle_gamma 90.000000
_cell_volume 4633.347169
_symmetry_space_group_name_H-M "C M C M"
_symmetry_group_IT_number 63
_symmetry_cell_setting 'orthorhombic'
loop_
_space_group_symop_operation_xyz
x,y,z
-x,-y,1/2+z
x,-y,-z
-x,y,1/2-z
-x,-y,-z
x,y,1/2-z
-x,y,z
x,-y,1/2+z
1/2+x,1/2+y,z
1/2-x,1/2-y,1/2+z
1/2+x,1/2-y,-z
1/2-x,1/2+y,1/2-z
1/2-x,1/2-y,-z
1/2+x,1/2+y,1/2-z
1/2-x,1/2+y,z
1/2+x,1/2-y,1/2+z
loop_
_atom_site_type_symbol
_atom_site_label
_atom_site_fract_x
_atom_site_fract_y
_atom_site_fract_z
Si Si1 0.173124 0.527186 0.250000
Si Si2 0.166532 0.653568 0.603130
Si Si3 0.824964 0.335849 0.750000
Si Si4 0.173017 0.210569 0.134065
Si Si5 0.833745 0.065632 0.685246
Si Si6 0.671319 0.808487 0.978382
O O1 0.218204 0.595362 0.250000
O O2 0.240460 0.495649 0.308879
O O3 0.000000 0.517694 0.250000
O O4 0.203946 0.720513 0.621624
O O5 0.273644 0.608561 0.635374
O O6 0.185772 0.644675 0.532284
O O7 0.000000 0.638483 0.622309
O O8 0.754092 0.305073 0.806131
O O9 0.000000 0.326201 0.750000
O O10 0.245851 0.170951 0.081422
O O11 0.000000 0.196129 0.137955
O O12 0.828411 0.097626 0.750000
O O13 0.000000 0.048630 0.667770
O O14 0.500000 0.795617 0.964531
O O15 0.750000 0.750000 0.000000
#
# Coordination Sequence:
#
# PCOD8259886 Si02
#       6
#     8  16   8  16  16  16
#     4   9  19  36  53  68  93 130 168 205 254 303
#     4   9  18  31  50  75 104 135 163 196 244 295
#     4  11  23  36  53  74  97 132 170 209 250 295
#     4  10  21  34  50  75 105 138 169 201 247 297
#     4   9  19  31  48  75  99 125 162 205 249 290
#     4   9  17  31  49  72 102 136 170 202 242 296
#
# _framework density 17.266134999999998
#
# number of rings (size 3 to 8) (size 9 to 14) (size 15 to 20)
#    0.600    2.000    0.000    3.300    1.400    6.400 
#    0.000    0.000    0.000    1.200    0.000    8.400 
#    0.000    0.000    0.000    0.000    0.000    0.000 
#
# Total GULP energy -495659.214673 kJ/mol
# GULP energy per Si atom -12391.480367 kJ/mol
# Density = 1.722684 g / cm^3
# Si number density = 17.266135 Si / 1000 Ang^3
#
#
#
# Elastic Constant Matrix: (Units=GPa)
#
#
# Indices 1 2 3 4 5 6 
#
# 1 115.9542 35.9951 59.5266 0.0000 0.0000 0.0000
# 2 35.9951 44.0704 31.5883 0.0000 0.0000 0.0000
# 3 59.5266 31.5883 127.1455 0.0000 0.0000 0.0000
# 4 0.0000 0.0000 0.0000 -7.5211 0.0000 0.0000
# 5 0.0000 0.0000 0.0000 0.0000 36.9489 0.0000
# 6 0.0000 0.0000 0.0000 0.0000 0.0000 21.4443
#
#
#
# Elastic Compliance Matrix: (Units=1/GPa)
#
#
# Indices 1 2 3 4 5 6 
#
# 1 0.013215 -0.007737 -0.004265 0.000000 0.000000 0.000000
# 2 -0.007737 0.032137 -0.004362 0.000000 0.000000 0.000000
# 3 -0.004265 -0.004362 0.010945 0.000000 0.000000 0.000000
# 4 0.000000 0.000000 0.000000 -0.132959 0.000000 0.000000
# 5 0.000000 0.000000 0.000000 0.000000 0.027064 0.000000
# 6 0.000000 0.000000 0.000000 0.000000 0.000000 0.046633
#
#
# Mechanical properties :
#
#
# Convention : Reuss Voigt Hill
#
# Bulk Modulus (GPa) = 42.42674 60.15446 51.29060
# Shear Modulus (GPa) = 132.91256 20.84508 76.87882
#
# Velocity S-wave (km/s) = 8.78327 3.47837 6.68000
# Velocity P-wave (km/s) = 11.29100 7.14473 9.44812
#
# Compressibility (1/GPa) = 0.02357004
#
# Stress axis : x y z
#
# Youngs Moduli (GPa) = 75.67029 31.11723 91.36228
#
# Poissons Ratio (x) = 0.24075 0.38965
# Poissons Ratio (y) = 0.58544 0.39851
# Poissons Ratio (z) = 0.32273 0.13573
#
# Static dielectric constant tensor:
#      x y z
#    x 3.410140 0.000000 0.000000 
#    y 0.000000 2.843120 0.000000 
#    z 0.000000 0.000000 3.444390 
# 
# 
# High freq. dielectric constant tensor:
#      x y z
#    x 1.686930 0.000000 0.000000 
#    y 0.000000 1.621750 0.000000 
#    z 0.000000 0.000000 1.669380 
# 
# From -- ./inp_files/51231.got.cif
#   From: 2010.03.12/outbox.cif.g09.slc.cpg/sg63_26_cif.got.tgz:51231.got - 2010.04.10 19:34:48.
