data_PCOD8259848
_publ_section_title
;
Structure prediction by ZEFSAII (Michael W. Deem and Ramdas Pophale) SiO2 
 PCOD8259848
Probable space group: C M C M
;
_chemical_formula_sum "Si O2"
_cell_formula_units_Z 88
_cell_length_a 7.603573
_cell_length_b 21.590421
_cell_length_c 26.701091
_cell_angle_alpha 90.000000
_cell_angle_beta 90.000000
_cell_angle_gamma 90.000000
_cell_volume 4383.367039
_symmetry_space_group_name_H-M "C M C M"
_symmetry_group_IT_number 63
_symmetry_cell_setting 'orthorhombic'
loop_
_space_group_symop_operation_xyz
x,y,z
-x,-y,1/2+z
x,-y,-z
-x,y,1/2-z
-x,-y,-z
x,y,1/2-z
-x,y,z
x,-y,1/2+z
1/2+x,1/2+y,z
1/2-x,1/2-y,1/2+z
1/2+x,1/2-y,-z
1/2-x,1/2+y,1/2-z
1/2-x,1/2-y,-z
1/2+x,1/2+y,1/2-z
1/2-x,1/2+y,z
1/2+x,1/2-y,1/2+z
loop_
_atom_site_type_symbol
_atom_site_label
_atom_site_fract_x
_atom_site_fract_y
_atom_site_fract_z
Si Si1 0.798676 0.878074 0.071538
Si Si2 0.500000 0.695296 0.310200
Si Si3 0.696765 0.863905 0.627126
Si Si4 0.500000 0.953357 0.307685
Si Si5 0.200811 0.812999 0.973158
Si Si6 0.500000 0.172206 0.638395
Si Si7 0.799939 0.000387 0.373530
O O1 0.673817 0.833284 0.104082
O O2 0.000000 0.860043 0.084767
O O3 0.760102 0.950426 0.082638
O O4 0.761670 0.868141 0.012687
O O5 0.500000 0.695934 0.250000
O O6 0.325619 0.660378 0.329511
O O7 0.500000 0.764131 0.331912
O O8 0.500000 0.866406 0.649763
O O9 0.690189 0.821038 0.577698
O O10 0.760450 0.930840 0.606954
O O11 0.500000 0.963838 0.250000
O O12 0.675330 0.986398 0.327003
O O13 0.500000 0.881041 0.320151
O O14 0.000000 0.811943 0.955726
O O15 0.250000 0.750000 0.000000
O O16 0.000000 0.994497 0.354946
#
# Coordination Sequence:
#
# PCOD8259848 Si02
#       7
#    16   8  16   8  16   8  16
#     4   9  21  37  63  95 127 163 200 248 309 370
#     4  12  27  46  66  88 122 171 214 260 318 370
#     4  12  25  43  62  91 129 161 209 264 307 370
#     4  10  21  38  63  93 120 155 204 262 313 366
#     4  11  22  38  60  93 128 168 210 248 303 370
#     4  10  21  40  65  92 126 160 205 254 305 374
#     4  10  20  41  61  87 124 160 204 256 313 369
#
# _framework density 20.075892
#
# number of rings (size 3 to 8) (size 9 to 14) (size 15 to 20)
#    0.000    1.455    2.727    1.909    2.545    4.364 
#    0.000    3.636    0.000    3.273    0.000    0.000 
#    0.000    0.000    0.000    0.000    0.000    0.000 
#
# Total GULP energy -545635.853548 kJ/mol
# GULP energy per Si atom -12400.814853 kJ/mol
# Density = 2.003020 g / cm^3
# Si number density = 20.075892 Si / 1000 Ang^3
#
#
#
# Elastic Constant Matrix: (Units=GPa)
#
#
# Indices 1 2 3 4 5 6 
#
# 1 138.0576 40.2371 49.4743 0.0000 0.0000 0.0000
# 2 40.2371 100.9925 35.9202 0.0000 0.0000 0.0000
# 3 49.4743 35.9202 108.2878 0.0000 0.0000 0.0000
# 4 0.0000 0.0000 0.0000 16.7936 0.0000 0.0000
# 5 0.0000 0.0000 0.0000 0.0000 22.8817 0.0000
# 6 0.0000 0.0000 0.0000 0.0000 0.0000 27.3720
#
#
#
# Elastic Compliance Matrix: (Units=1/GPa)
#
#
# Indices 1 2 3 4 5 6 
#
# 1 0.009167 -0.002452 -0.003375 0.000000 0.000000 0.000000
# 2 -0.002452 0.011882 -0.002821 0.000000 0.000000 0.000000
# 3 -0.003375 -0.002821 0.011712 0.000000 0.000000 0.000000
# 4 0.000000 0.000000 0.000000 0.059546 0.000000 0.000000
# 5 0.000000 0.000000 0.000000 0.000000 0.043703 0.000000
# 6 0.000000 0.000000 0.000000 0.000000 0.000000 0.036534
#
#
# Mechanical properties :
#
#
# Convention : Reuss Voigt Hill
#
# Bulk Modulus (GPa) = 64.65991 66.51121 65.58556
# Shear Modulus (GPa) = 25.64148 28.18992 26.91570
#
# Velocity S-wave (km/s) = 3.57771 3.75129 3.66553
# Velocity P-wave (km/s) = 7.02455 7.20865 7.11720
#
# Compressibility (1/GPa) = 0.01546553
#
# Stress axis : x y z
#
# Youngs Moduli (GPa) = 109.08113 84.16055 85.37943
#
# Poissons Ratio (x) = 0.20637 0.28816
# Poissons Ratio (y) = 0.26747 0.24086
# Poissons Ratio (z) = 0.36815 0.23743
#
# Static dielectric constant tensor:
#      x y z
#    x 2.905170 0.000000 0.000000 
#    y 0.000000 3.787950 0.000000 
#    z 0.000000 0.000000 3.411930 
# 
# 
# High freq. dielectric constant tensor:
#      x y z
#    x 1.801030 0.000000 0.000000 
#    y 0.000000 1.793910 0.000000 
#    z 0.000000 0.000000 1.761540 
# 
# From -- ./inp_files/59676.got.cif
#   From: 2010.03.12/outbox.cif.g09.slc.cpg/sg63_30_cif.got.tgz:59676.got - 2010.04.10 19:34:48.
