data_PCOD8259161
_publ_section_title
;
Structure prediction by ZEFSAII (Michael W. Deem and Ramdas Pophale) SiO2 
 PCOD8259161
Probable space group: C M C M
;
_chemical_formula_sum "Si O2"
_cell_formula_units_Z 104
_cell_length_a 20.324468
_cell_length_b 29.208618
_cell_length_c 8.848301
_cell_angle_alpha 90.000000
_cell_angle_beta 90.000000
_cell_angle_gamma 90.000000
_cell_volume 5252.790543
_symmetry_space_group_name_H-M "C M C M"
_symmetry_group_IT_number 63
_symmetry_cell_setting 'orthorhombic'
loop_
_space_group_symop_operation_xyz
x,y,z
-x,-y,1/2+z
x,-y,-z
-x,y,1/2-z
-x,-y,-z
x,y,1/2-z
-x,y,z
x,-y,1/2+z
1/2+x,1/2+y,z
1/2-x,1/2-y,1/2+z
1/2+x,1/2-y,-z
1/2-x,1/2+y,1/2-z
1/2-x,1/2-y,-z
1/2+x,1/2+y,1/2-z
1/2-x,1/2+y,z
1/2+x,1/2-y,1/2+z
loop_
_atom_site_type_symbol
_atom_site_label
_atom_site_fract_x
_atom_site_fract_y
_atom_site_fract_z
Si Si1 0.117113 0.609912 0.572500
Si Si2 0.326119 0.196778 0.427163
Si Si3 0.118554 0.953754 0.072548
Si Si4 0.927024 0.866508 0.921675
Si Si5 0.176553 0.207511 0.427478
Si Si6 0.500000 0.948568 0.568902
Si Si7 0.266285 0.954809 0.424915
O O1 0.099443 0.610473 0.750000
O O2 0.124820 0.661541 0.511396
O O3 0.187850 0.587911 0.537883
O O4 0.062976 0.580328 0.484864
O O5 0.338867 0.191775 0.250000
O O6 0.249277 0.188993 0.468596
O O7 0.343952 0.247531 0.480868
O O8 0.114978 0.958932 0.250000
O O9 0.193088 0.944747 0.013303
O O10 0.073874 0.911888 0.021643
O O11 0.090156 0.000000 0.000000
O O12 0.909273 0.879633 0.750000
O O13 0.874713 0.830311 0.984175
O O14 0.000000 0.845065 0.933117
O O15 0.170747 0.218382 0.250000
O O16 0.500000 0.952762 0.750000
O O17 0.500000 0.000000 0.500000
O O18 0.263709 0.965552 0.250000
O O19 0.296957 0.000000 0.500000
#
# Coordination Sequence:
#
# PCOD8259161 Si02
#       7
#    16  16  16  16  16   8  16
#     4  11  22  38  59  85 115 152 193 236 291 350
#     4  10  20  35  59  88 115 146 187 240 295 344
#     4  10  20  35  55  81 112 145 183 230 278 327
#     4  10  21  37  56  79 108 145 187 228 274 331
#     4   9  19  37  59  84 115 151 190 236 291 350
#     4  12  26  44  62  84 118 158 202 246 293 354
#     4   9  19  33  53  81 110 141 181 228 278 331
#
# _framework density 19.798999999999999
#
# number of rings (size 3 to 8) (size 9 to 14) (size 15 to 20)
#    0.000    2.000    0.000    3.462    0.000    4.923 
#    1.385    0.000    0.000    0.000    0.000    0.000 
#    0.000    0.000    0.000    0.000    0.000    0.000 
#
# Total GULP energy -644860.219558 kJ/mol
# GULP energy per Si atom -12401.158068 kJ/mol
# Density = 1.975394 g / cm^3
# Si number density = 19.799000 Si / 1000 Ang^3
#
#
#
# Elastic Constant Matrix: (Units=GPa)
#
#
# Indices 1 2 3 4 5 6 
#
# 1 78.7706 59.3583 35.7155 0.0000 0.0000 0.0000
# 2 59.3583 135.9621 52.2331 0.0000 0.0000 0.0000
# 3 35.7155 52.2331 80.1683 0.0000 0.0000 0.0000
# 4 0.0000 0.0000 0.0000 38.1248 0.0000 0.0000
# 5 0.0000 0.0000 0.0000 0.0000 24.4404 0.0000
# 6 0.0000 0.0000 0.0000 0.0000 0.0000 19.9290
#
#
#
# Elastic Compliance Matrix: (Units=1/GPa)
#
#
# Indices 1 2 3 4 5 6 
#
# 1 0.019967 -0.007069 -0.004290 0.000000 0.000000 0.000000
# 2 -0.007069 0.012314 -0.004873 0.000000 0.000000 0.000000
# 3 -0.004290 -0.004873 0.017560 0.000000 0.000000 0.000000
# 4 0.000000 0.000000 0.000000 0.026230 0.000000 0.000000
# 5 0.000000 0.000000 0.000000 0.000000 0.040916 0.000000
# 6 0.000000 0.000000 0.000000 0.000000 0.000000 0.050178
#
#
# Mechanical properties :
#
#
# Convention : Reuss Voigt Hill
#
# Bulk Modulus (GPa) = 57.54985 65.50163 61.52574
# Shear Modulus (GPa) = 24.34030 26.33847 25.33938
#
# Velocity S-wave (km/s) = 3.51004 3.65127 3.58135
# Velocity P-wave (km/s) = 6.74962 7.13659 6.94580
#
# Compressibility (1/GPa) = 0.01737624
#
# Stress axis : x y z
#
# Youngs Moduli (GPa) = 50.08219 81.21141 56.94770
#
# Poissons Ratio (x) = 0.57411 0.24428
# Poissons Ratio (y) = 0.35405 0.27753
# Poissons Ratio (z) = 0.21483 0.39577
#
# Static dielectric constant tensor:
#      x y z
#    x 3.713920 0.000000 0.000000 
#    y 0.000000 3.572850 0.000000 
#    z 0.000000 0.000000 3.555330 
# 
# 
# High freq. dielectric constant tensor:
#      x y z
#    x 1.766590 0.000000 0.000000 
#    y 0.000000 1.774440 0.000000 
#    z 0.000000 0.000000 1.773370 
# 
# From -- ./inp_files/8839.got.cif
#   From: 2010.03.12/outbox.cif.g09.slc.cpg/sg63_5_cif.got.tgz:8839.got - 2010.04.10 19:34:48.
