data_PCOD8259987
_publ_section_title
;
Structure prediction by ZEFSAII (Michael W. Deem and Ramdas Pophale) SiO2 
 PCOD8259987
Probable space group: C M C M
;
_chemical_formula_sum "Si O2"
_cell_formula_units_Z 96
_cell_length_a 21.481436
_cell_length_b 9.367749
_cell_length_c 24.238172
_cell_angle_alpha 90.000000
_cell_angle_beta 90.000000
_cell_angle_gamma 90.000000
_cell_volume 4877.512809
_symmetry_space_group_name_H-M "C M C M"
_symmetry_group_IT_number 63
_symmetry_cell_setting 'orthorhombic'
loop_
_space_group_symop_operation_xyz
x,y,z
-x,-y,1/2+z
x,-y,-z
-x,y,1/2-z
-x,-y,-z
x,y,1/2-z
-x,y,z
x,-y,1/2+z
1/2+x,1/2+y,z
1/2-x,1/2-y,1/2+z
1/2+x,1/2-y,-z
1/2-x,1/2+y,1/2-z
1/2-x,1/2-y,-z
1/2+x,1/2+y,1/2-z
1/2-x,1/2+y,z
1/2+x,1/2-y,1/2+z
loop_
_atom_site_type_symbol
_atom_site_label
_atom_site_fract_x
_atom_site_fract_y
_atom_site_fract_z
Si Si1 0.571969 0.833897 0.185233
Si Si2 0.741831 0.878781 0.538964
Si Si3 0.930251 0.867266 0.097762
Si Si4 0.139250 0.839054 0.594762
Si Si5 0.425904 0.155294 0.188996
Si Si6 0.107402 0.652659 0.488994
O O1 0.579907 0.803172 0.250000
O O2 0.500000 0.809391 0.167685
O O3 0.616528 0.724153 0.152882
O O4 0.593797 0.995186 0.170978
O O5 0.750000 0.750000 0.500000
O O6 0.785173 0.862172 0.593786
O O7 0.667775 0.891661 0.549142
O O8 0.770057 0.000000 0.500000
O O9 0.899871 0.777000 0.148179
O O10 0.000000 0.917246 0.112230
O O11 0.890295 0.005992 0.084508
O O12 0.934555 0.761491 0.045404
O O13 0.121688 0.728529 0.546851
O O14 0.399828 0.189157 0.250000
O O15 0.500000 0.159041 0.189168
O O16 0.072996 0.500000 0.500000
#
# Coordination Sequence:
#
# PCOD8259987 Si02
#       6
#    16  16  16  16  16  16
#     4   9  18  33  53  78 109 146 186 223 264 324
#     4   9  18  34  53  73  98 134 181 223 260 309
#     4  11  22  33  50  81 116 142 169 218 284 340
#     4  11  20  32  52  78 109 141 175 222 273 321
#     4   8  16  33  53  71  98 140 184 217 250 308
#     4  10  21  36  54  75 102 142 187 225 265 318
#
# _framework density 19.682162000000002
#
# number of rings (size 3 to 8) (size 9 to 14) (size 15 to 20)
#    0.000    2.333    0.000    5.000    0.000    3.000 
#    0.000    1.667    0.000    1.000    0.000   14.000 
#    0.000    0.000    0.000    0.000    0.000    0.000 
#
# Total GULP energy -594635.281071 kJ/mol
# GULP energy per Si atom -12388.235022 kJ/mol
# Density = 1.963736 g / cm^3
# Si number density = 19.682162 Si / 1000 Ang^3
#
#
#
# Elastic Constant Matrix: (Units=GPa)
#
#
# Indices 1 2 3 4 5 6 
#
# 1 61.6518 22.0058 24.0450 0.0000 0.0000 0.0000
# 2 22.0058 137.3699 37.8162 0.0000 0.0000 0.0000
# 3 24.0450 37.8162 73.6293 0.0000 0.0000 0.0000
# 4 0.0000 0.0000 0.0000 35.3739 0.0000 0.0000
# 5 0.0000 0.0000 0.0000 0.0000 20.4533 0.0000
# 6 0.0000 0.0000 0.0000 0.0000 0.0000 17.4100
#
#
#
# Elastic Compliance Matrix: (Units=1/GPa)
#
#
# Indices 1 2 3 4 5 6 
#
# 1 0.018865 -0.001544 -0.005367 0.000000 0.000000 0.000000
# 2 -0.001544 0.008605 -0.003915 0.000000 0.000000 0.000000
# 3 -0.005367 -0.003915 0.017345 0.000000 0.000000 0.000000
# 4 0.000000 0.000000 0.000000 0.028269 0.000000 0.000000
# 5 0.000000 0.000000 0.000000 0.000000 0.048892 0.000000
# 6 0.000000 0.000000 0.000000 0.000000 0.000000 0.057438
#
#
# Mechanical properties :
#
#
# Convention : Reuss Voigt Hill
#
# Bulk Modulus (GPa) = 43.17626 48.93165 46.05396
# Shear Modulus (GPa) = 23.94769 27.23304 25.59036
#
# Velocity S-wave (km/s) = 3.49194 3.72377 3.60971
# Velocity P-wave (km/s) = 6.18405 6.58813 6.38929
#
# Compressibility (1/GPa) = 0.02316087
#
# Stress axis : x y z
#
# Youngs Moduli (GPa) = 53.00893 116.21426 57.65290
#
# Poissons Ratio (x) = 0.17948 0.30945
# Poissons Ratio (y) = 0.08187 0.22572
# Poissons Ratio (z) = 0.28452 0.45499
#
# Static dielectric constant tensor:
#      x y z
#    x 3.088490 0.000000 0.000000 
#    y 0.000000 3.752440 0.000000 
#    z 0.000000 0.000000 3.385410 
# 
# 
# High freq. dielectric constant tensor:
#      x y z
#    x 1.735280 0.000000 0.000000 
#    y 0.000000 1.788530 0.000000 
#    z 0.000000 0.000000 1.746660 
# 
# From -- ./inp_files/64990.got.cif
#   From: 2010.03.12/outbox.cif.g09.slc.cpg/sg63_33_cif.got.tgz:64990.got - 2010.04.10 19:34:48.
