data_PCOD8259941
_publ_section_title
;
Structure prediction by ZEFSAII (Michael W. Deem and Ramdas Pophale) SiO2 
 PCOD8259941
Probable space group: C M C M
;
_chemical_formula_sum "Si O2"
_cell_formula_units_Z 80
_cell_length_a 9.310071
_cell_length_b 15.383279
_cell_length_c 29.131569
_cell_angle_alpha 90.000000
_cell_angle_beta 90.000000
_cell_angle_gamma 90.000000
_cell_volume 4172.206407
_symmetry_space_group_name_H-M "C M C M"
_symmetry_group_IT_number 63
_symmetry_cell_setting 'orthorhombic'
loop_
_space_group_symop_operation_xyz
x,y,z
-x,-y,1/2+z
x,-y,-z
-x,y,1/2-z
-x,-y,-z
x,y,1/2-z
-x,y,z
x,-y,1/2+z
1/2+x,1/2+y,z
1/2-x,1/2-y,1/2+z
1/2+x,1/2-y,-z
1/2-x,1/2+y,1/2-z
1/2-x,1/2-y,-z
1/2+x,1/2+y,1/2-z
1/2-x,1/2+y,z
1/2+x,1/2-y,1/2+z
loop_
_atom_site_type_symbol
_atom_site_label
_atom_site_fract_x
_atom_site_fract_y
_atom_site_fract_z
Si Si1 0.167582 0.353784 0.197851
Si Si2 0.160900 0.960399 0.549789
Si Si3 0.664348 0.788496 0.642918
Si Si4 0.164412 0.707935 0.459099
Si Si5 0.831912 0.489668 0.631984
O O1 0.220056 0.364218 0.250000
O O2 0.241538 0.269220 0.176529
O O3 0.205877 0.444328 0.172904
O O4 0.000000 0.335045 0.194709
O O5 0.280752 0.888147 0.546599
O O6 0.229723 0.021430 0.589464
O O7 0.000000 0.929581 0.564407
O O8 0.148459 0.000000 0.500000
O O9 0.500000 0.779690 0.658324
O O10 0.684587 0.749329 0.591205
O O11 0.709417 0.890531 0.646286
O O12 0.250000 0.750000 0.500000
O O13 0.000000 0.708635 0.474346
O O14 0.000000 0.494713 0.618131
#
# Coordination Sequence:
#
# PCOD8259941 Si02
#       5
#    16  16  16  16  16
#     4  10  22  39  60  87 115 147 192 241 292 347
#     4  10  21  35  53  81 115 150 188 234 283 336
#     4   9  20  38  58  82 114 149 189 235 285 342
#     4  10  21  36  55  81 114 151 191 234 284 344
#     4   9  20  39  59  81 112 153 193 235 286 345
#
# _framework density 19.174506999999998
#
# number of rings (size 3 to 8) (size 9 to 14) (size 15 to 20)
#    0.000    2.400    0.000    2.400    2.800    7.600 
#    0.000    2.000    0.000    0.000    0.000    0.000 
#    0.000    0.000    0.000    0.000    0.000    0.000 
#
# Total GULP energy -495641.008919 kJ/mol
# GULP energy per Si atom -12391.025223 kJ/mol
# Density = 1.913086 g / cm^3
# Si number density = 19.174507 Si / 1000 Ang^3
#
#
#
# Elastic Constant Matrix: (Units=GPa)
#
#
# Indices 1 2 3 4 5 6 
#
# 1 93.1910 42.4223 74.9854 0.0000 0.0000 0.0000
# 2 42.4223 85.9624 61.8304 0.0000 0.0000 0.0000
# 3 74.9854 61.8304 141.9578 0.0000 0.0000 0.0000
# 4 0.0000 0.0000 0.0000 30.2845 0.0000 0.0000
# 5 0.0000 0.0000 0.0000 0.0000 135.2004 0.0000
# 6 0.0000 0.0000 0.0000 0.0000 0.0000 33.2945
#
#
#
# Elastic Compliance Matrix: (Units=1/GPa)
#
#
# Indices 1 2 3 4 5 6 
#
# 1 0.019243 -0.003182 -0.008778 0.000000 0.000000 0.000000
# 2 -0.003182 0.017466 -0.005927 0.000000 0.000000 0.000000
# 3 -0.008778 -0.005927 0.014263 0.000000 0.000000 0.000000
# 4 0.000000 0.000000 0.000000 0.033020 0.000000 0.000000
# 5 0.000000 0.000000 0.000000 0.000000 0.007396 0.000000
# 6 0.000000 0.000000 0.000000 0.000000 0.000000 0.030035
#
#
# Mechanical properties :
#
#
# Convention : Reuss Voigt Hill
#
# Bulk Modulus (GPa) = 65.80154 75.50972 70.65563
# Shear Modulus (GPa) = 30.81409 49.21409 40.01409
#
# Velocity S-wave (km/s) = 4.01313 5.07170 4.57315
# Velocity P-wave (km/s) = 7.47431 8.58848 8.05069
#
# Compressibility (1/GPa) = 0.01519721
#
# Stress axis : x y z
#
# Youngs Moduli (GPa) = 51.96764 57.25335 70.11306
#
# Poissons Ratio (x) = 0.18219 0.61548
# Poissons Ratio (y) = 0.16537 0.41553
# Poissons Ratio (z) = 0.45620 0.33932
#
# Static dielectric constant tensor:
#      x y z
#    x 3.690150 0.000000 0.000000 
#    y 0.000000 3.438340 0.000000 
#    z 0.000000 0.000000 3.438490 
# 
# 
# High freq. dielectric constant tensor:
#      x y z
#    x 1.752310 0.000000 0.000000 
#    y 0.000000 1.733390 0.000000 
#    z 0.000000 0.000000 1.750240 
# 
# From -- ./inp_files/71584.got.cif
#   From: 2010.03.12/outbox.cif.g09.slc.cpg/sg63_36_cif.got.tgz:71584.got - 2010.04.10 19:34:48.
