data_PCOD8259786
_publ_section_title
;
Structure prediction by ZEFSAII (Michael W. Deem and Ramdas Pophale) SiO2 
 PCOD8259786
Probable space group: C M C M
;
_chemical_formula_sum "Si O2"
_cell_formula_units_Z 60
_cell_length_a 10.765047
_cell_length_b 18.859529
_cell_length_c 14.098999
_cell_angle_alpha 90.000000
_cell_angle_beta 90.000000
_cell_angle_gamma 90.000000
_cell_volume 2862.431170
_symmetry_space_group_name_H-M "C M C M"
_symmetry_group_IT_number 63
_symmetry_cell_setting 'orthorhombic'
loop_
_space_group_symop_operation_xyz
x,y,z
-x,-y,1/2+z
x,-y,-z
-x,y,1/2-z
-x,-y,-z
x,y,1/2-z
-x,y,z
x,-y,1/2+z
1/2+x,1/2+y,z
1/2-x,1/2-y,1/2+z
1/2+x,1/2-y,-z
1/2-x,1/2+y,1/2-z
1/2-x,1/2-y,-z
1/2+x,1/2+y,1/2-z
1/2-x,1/2+y,z
1/2+x,1/2-y,1/2+z
loop_
_atom_site_type_symbol
_atom_site_label
_atom_site_fract_x
_atom_site_fract_y
_atom_site_fract_z
Si Si1 0.197911 0.262007 0.250000
Si Si2 0.000000 0.615619 0.750000
Si Si3 0.639127 0.290036 0.550797
Si Si4 0.644909 0.613892 0.750000
Si Si5 0.271232 0.421813 0.042809
Si Si6 0.500000 0.074309 0.548797
O O1 0.118333 0.333706 0.250000
O O2 0.169993 0.211628 0.338197
O O3 0.333909 0.299655 0.250000
O O4 0.000000 0.562833 0.838331
O O5 0.500000 0.257463 0.533686
O O6 0.750000 0.250000 0.500000
O O7 0.634991 0.370638 0.513226
O O8 0.500000 0.599563 0.750000
O O9 0.701850 0.577483 0.655374
O O10 0.131634 0.388595 0.023100
O O11 0.285448 0.500000 0.000000
O O12 0.500000 0.000000 0.500000
#
# Coordination Sequence:
#
# PCOD8259786 Si02
#       6
#     8   4  16   8  16   8
#     4  12  24  41  66  94 129 180 224 269 334 408
#     4  12  16  40  68  86 124 168 220 264 328 394
#     4  12  25  41  68  99 132 173 228 274 334 401
#     4  12  24  41  64  95 130 176 220 274 341 394
#     4  11  25  43  68  99 135 175 222 277 341 404
#     4  10  20  38  68  96 124 176 220 266 330 406
#
# _framework density 20.961203000000001
#
# number of rings (size 3 to 8) (size 9 to 14) (size 15 to 20)
#    0.000    0.533    6.667    0.800    1.867    3.200 
#    0.000    1.333    0.000    0.000    0.000    0.000 
#    0.000    0.000    0.000    0.000    0.000    0.000 
#
# Total GULP energy -371663.432472 kJ/mol
# GULP energy per Si atom -12388.781082 kJ/mol
# Density = 2.091349 g / cm^3
# Si number density = 20.961203 Si / 1000 Ang^3
#
#
#
# Elastic Constant Matrix: (Units=GPa)
#
#
# Indices 1 2 3 4 5 6 
#
# 1 140.3817 30.4091 36.4860 0.0000 0.0000 0.0000
# 2 30.4091 79.2536 67.5374 0.0000 0.0000 0.0000
# 3 36.4860 67.5374 178.2314 0.0000 0.0000 0.0000
# 4 0.0000 0.0000 0.0000 37.7220 0.0000 0.0000
# 5 0.0000 0.0000 0.0000 0.0000 23.5200 0.0000
# 6 0.0000 0.0000 0.0000 0.0000 0.0000 29.3495
#
#
#
# Elastic Compliance Matrix: (Units=1/GPa)
#
#
# Indices 1 2 3 4 5 6 
#
# 1 0.007825 -0.002418 -0.000686 0.000000 0.000000 0.000000
# 2 -0.002418 0.019383 -0.006850 0.000000 0.000000 0.000000
# 3 -0.000686 -0.006850 0.008347 0.000000 0.000000 0.000000
# 4 0.000000 0.000000 0.000000 0.026510 0.000000 0.000000
# 5 0.000000 0.000000 0.000000 0.000000 0.042517 0.000000
# 6 0.000000 0.000000 0.000000 0.000000 0.000000 0.034072
#
#
# Mechanical properties :
#
#
# Convention : Reuss Voigt Hill
#
# Bulk Modulus (GPa) = 63.90761 74.08128 68.99445
# Shear Modulus (GPa) = 30.52942 35.68059 33.10500
#
# Velocity S-wave (km/s) = 3.82052 4.13027 3.97841
# Velocity P-wave (km/s) = 7.07223 7.62656 7.35462
#
# Compressibility (1/GPa) = 0.01564759
#
# Stress axis : x y z
#
# Youngs Moduli (GPa) = 127.78773 51.59251 119.80981
#
# Poissons Ratio (x) = 0.12477 0.08214
# Poissons Ratio (y) = 0.30904 0.82065
# Poissons Ratio (z) = 0.08761 0.35339
#
# Static dielectric constant tensor:
#      x y z
#    x 4.955900 0.000000 0.000000 
#    y 0.000000 5.019360 0.000000 
#    z 0.000000 0.000000 3.778510 
# 
# 
# High freq. dielectric constant tensor:
#      x y z
#    x 1.849050 0.000000 0.000000 
#    y 0.000000 1.791040 0.000000 
#    z 0.000000 0.000000 1.828410 
# 
# From -- ./inp_files/29356.got.cif
#   From: 2010.03.12/outbox.cif.g09.slc.cpg/sg63_15_cif.got.tgz:29356.got - 2010.04.10 19:34:48.
