data_PCOD8259553
_publ_section_title
;
Structure prediction by ZEFSAII (Michael W. Deem and Ramdas Pophale) SiO2 
 PCOD8259553
Probable space group: C M C M
;
_chemical_formula_sum "Si O2"
_cell_formula_units_Z 112
_cell_length_a 27.387538
_cell_length_b 12.652423
_cell_length_c 14.401793
_cell_angle_alpha 90.000000
_cell_angle_beta 90.000000
_cell_angle_gamma 90.000000
_cell_volume 4990.490814
_symmetry_space_group_name_H-M "C M C M"
_symmetry_group_IT_number 63
_symmetry_cell_setting 'orthorhombic'
loop_
_space_group_symop_operation_xyz
x,y,z
-x,-y,1/2+z
x,-y,-z
-x,y,1/2-z
-x,-y,-z
x,y,1/2-z
-x,y,z
x,-y,1/2+z
1/2+x,1/2+y,z
1/2-x,1/2-y,1/2+z
1/2+x,1/2-y,-z
1/2-x,1/2+y,1/2-z
1/2-x,1/2-y,-z
1/2+x,1/2+y,1/2-z
1/2-x,1/2+y,z
1/2+x,1/2-y,1/2+z
loop_
_atom_site_type_symbol
_atom_site_label
_atom_site_fract_x
_atom_site_fract_y
_atom_site_fract_z
Si Si1 0.353814 0.960019 0.899218
Si Si2 0.208099 0.356728 0.351099
Si Si3 0.806980 0.058537 0.858357
Si Si4 0.617523 0.738454 0.643133
Si Si5 0.053776 0.568688 0.853960
Si Si6 0.352637 0.341935 0.861209
Si Si7 0.556284 0.277064 0.968168
O O1 0.345464 0.835929 0.880999
O O2 0.323476 0.037071 0.832813
O O3 0.411311 0.972381 0.879345
O O4 0.337704 0.000000 0.000000
O O5 0.222294 0.310582 0.250000
O O6 0.257922 0.390868 0.405288
O O7 0.175693 0.263609 0.398590
O O8 0.795455 0.046746 0.750000
O O9 0.852544 0.133135 0.877268
O O10 0.820594 0.941949 0.896513
O O11 0.600067 0.745327 0.750000
O O12 0.570402 0.732016 0.576585
O O13 0.063298 0.612795 0.750000
O O14 0.062737 0.661534 0.925802
O O15 0.000000 0.520689 0.863162
O O16 0.360824 0.342490 0.750000
O O17 0.405742 0.350588 0.911005
O O18 0.500000 0.317657 0.958218
#
# Coordination Sequence:
#
# PCOD8259553 Si02
#       7
#    16  16  16  16  16  16  16
#     4  12  22  38  59  93 133 166 212 261 313 390
#     4  10  20  37  63  93 125 168 217 265 322 378
#     4   9  22  41  64  94 130 174 220 266 322 389
#     4  11  24  43  63  89 132 175 213 261 323 393
#     4  10  20  36  60  90 123 161 207 262 320 372
#     4  10  20  40  67  97 135 171 217 276 324 378
#     4  11  23  41  66  96 127 166 219 273 325 384
#
# _framework density 22.442684
#
# number of rings (size 3 to 8) (size 9 to 14) (size 15 to 20)
#    0.000    1.571    2.857    1.714    2.000    2.571 
#    2.571    2.857    0.000    2.571    0.000    0.000 
#    0.000    0.000    0.000    0.000    0.000    0.000 
#
# Total GULP energy -694078.140444 kJ/mol
# GULP energy per Si atom -12394.252508 kJ/mol
# Density = 2.239160 g / cm^3
# Si number density = 22.442684 Si / 1000 Ang^3
#
#
#
# Elastic Constant Matrix: (Units=GPa)
#
#
# Indices 1 2 3 4 5 6 
#
# 1 131.2060 51.8541 38.6539 0.0000 0.0000 0.0000
# 2 51.8541 116.2925 23.2901 0.0000 0.0000 0.0000
# 3 38.6539 23.2901 89.7196 0.0000 0.0000 0.0000
# 4 0.0000 0.0000 0.0000 18.2712 0.0000 0.0000
# 5 0.0000 0.0000 0.0000 0.0000 26.2218 0.0000
# 6 0.0000 0.0000 0.0000 0.0000 0.0000 19.8890
#
#
#
# Elastic Compliance Matrix: (Units=1/GPa)
#
#
# Indices 1 2 3 4 5 6 
#
# 1 0.010133 -0.003844 -0.003368 0.000000 0.000000 0.000000
# 2 -0.003844 0.010529 -0.001077 0.000000 0.000000 0.000000
# 3 -0.003368 -0.001077 0.012876 0.000000 0.000000 0.000000
# 4 0.000000 0.000000 0.000000 0.054731 0.000000 0.000000
# 5 0.000000 0.000000 0.000000 0.000000 0.038136 0.000000
# 6 0.000000 0.000000 0.000000 0.000000 0.000000 0.050279
#
#
# Mechanical properties :
#
#
# Convention : Reuss Voigt Hill
#
# Bulk Modulus (GPa) = 58.95993 62.75716 60.85855
# Shear Modulus (GPa) = 25.13640 27.77106 26.45373
#
# Velocity S-wave (km/s) = 3.35031 3.52152 3.43698
# Velocity P-wave (km/s) = 6.42608 6.67524 6.55184
#
# Compressibility (1/GPa) = 0.01696067
#
# Stress axis : x y z
#
# Youngs Moduli (GPa) = 98.68907 94.97937 77.66165
#
# Poissons Ratio (x) = 0.36507 0.26155
# Poissons Ratio (y) = 0.37933 0.08365
# Poissons Ratio (z) = 0.33236 0.10230
#
# Static dielectric constant tensor:
#      x y z
#    x 4.107330 0.000000 0.000000 
#    y 0.000000 3.953120 0.000000 
#    z 0.000000 0.000000 4.013960 
# 
# 
# High freq. dielectric constant tensor:
#      x y z
#    x 1.878920 0.000000 0.000000 
#    y 0.000000 1.870700 0.000000 
#    z 0.000000 0.000000 1.883930 
# 
# From -- ./inp_files/38560.got.cif
#   From: 2010.03.12/outbox.cif.g09.slc.cpg/sg63_20_cif.got.tgz:38560.got - 2010.04.10 19:34:48.
