data_PCOD8259494
_publ_section_title
;
Structure prediction by ZEFSAII (Michael W. Deem and Ramdas Pophale) SiO2 
 PCOD8259494
Probable space group: C M C M
;
_chemical_formula_sum "Si O2"
_cell_formula_units_Z 112
_cell_length_a 22.398624
_cell_length_b 13.368265
_cell_length_c 19.036150
_cell_angle_alpha 90.000000
_cell_angle_beta 90.000000
_cell_angle_gamma 90.000000
_cell_volume 5700.008505
_symmetry_space_group_name_H-M "C M C M"
_symmetry_group_IT_number 63
_symmetry_cell_setting 'orthorhombic'
loop_
_space_group_symop_operation_xyz
x,y,z
-x,-y,1/2+z
x,-y,-z
-x,y,1/2-z
-x,-y,-z
x,y,1/2-z
-x,y,z
x,-y,1/2+z
1/2+x,1/2+y,z
1/2-x,1/2-y,1/2+z
1/2+x,1/2-y,-z
1/2-x,1/2+y,1/2-z
1/2-x,1/2-y,-z
1/2+x,1/2+y,1/2-z
1/2-x,1/2+y,z
1/2+x,1/2-y,1/2+z
loop_
_atom_site_type_symbol
_atom_site_label
_atom_site_fract_x
_atom_site_fract_y
_atom_site_fract_z
Si Si1 0.069282 0.228719 0.582869
Si Si2 0.432101 0.330889 0.826756
Si Si3 0.431433 0.929322 0.668718
Si Si4 0.657285 0.032739 0.573664
Si Si5 0.286240 0.455689 0.574092
Si Si6 0.647274 0.743830 0.443529
Si Si7 0.615772 0.542487 0.831850
O O1 0.081650 0.326583 0.628763
O O2 0.113599 0.228521 0.517000
O O3 0.083944 0.134841 0.631347
O O4 0.000000 0.223691 0.558440
O O5 0.402785 0.312574 0.750000
O O6 0.500000 0.298608 0.825471
O O7 0.401547 0.260469 0.882823
O O8 0.426933 0.447950 0.845866
O O9 0.414469 0.915359 0.750000
O O10 0.500000 0.962525 0.660172
O O11 0.390217 0.016167 0.635670
O O12 0.715967 0.966354 0.587898
O O13 0.677509 0.147873 0.564669
O O14 0.626964 0.000000 0.500000
O O15 0.306793 0.500000 0.500000
O O16 0.301665 0.337952 0.571360
O O17 0.319864 0.515680 0.635498
O O18 0.624397 0.567261 0.750000
#
# Coordination Sequence:
#
# PCOD8259494 Si02
#       7
#    16  16  16  16  16  16  16
#     4  11  21  35  60  91 123 162 203 247 295 354
#     4   9  19  35  56  86 124 161 199 246 298 354
#     4  10  23  42  62  89 125 160 199 246 296 353
#     4  11  24  41  64  90 115 159 197 248 301 355
#     4  10  22  40  62  89 119 157 198 250 299 353
#     4  11  22  39  61  91 119 155 202 250 297 358
#     4  10  20  36  58  88 125 163 199 245 301 354
#
# _framework density 19.649093000000001
#
# number of rings (size 3 to 8) (size 9 to 14) (size 15 to 20)
#    0.000    1.714    2.857    1.286    0.000    7.429 
#    0.000    3.571    0.000    0.000    0.000    0.000 
#    0.000    0.000    0.000    0.000    0.000    0.000 
#
# Total GULP energy -694443.820983 kJ/mol
# GULP energy per Si atom -12400.782518 kJ/mol
# Density = 1.960437 g / cm^3
# Si number density = 19.649093 Si / 1000 Ang^3
#
#
#
# Elastic Constant Matrix: (Units=GPa)
#
#
# Indices 1 2 3 4 5 6 
#
# 1 92.2055 34.0335 49.5923 0.0000 0.0000 0.0000
# 2 34.0335 100.6846 29.7729 0.0000 0.0000 0.0000
# 3 49.5923 29.7729 109.1316 0.0000 0.0000 0.0000
# 4 0.0000 0.0000 0.0000 28.1733 0.0000 0.0000
# 5 0.0000 0.0000 0.0000 0.0000 26.8783 0.0000
# 6 0.0000 0.0000 0.0000 0.0000 0.0000 21.5874
#
#
#
# Elastic Compliance Matrix: (Units=1/GPa)
#
#
# Indices 1 2 3 4 5 6 
#
# 1 0.015354 -0.003401 -0.006050 0.000000 0.000000 0.000000
# 2 -0.003401 0.011557 -0.001607 0.000000 0.000000 0.000000
# 3 -0.006050 -0.001607 0.012351 0.000000 0.000000 0.000000
# 4 0.000000 0.000000 0.000000 0.035495 0.000000 0.000000
# 5 0.000000 0.000000 0.000000 0.000000 0.037205 0.000000
# 6 0.000000 0.000000 0.000000 0.000000 0.000000 0.046323
#
#
# Mechanical properties :
#
#
# Convention : Reuss Voigt Hill
#
# Bulk Modulus (GPa) = 58.32251 58.75767 58.54009
# Shear Modulus (GPa) = 26.86490 27.90268 27.38379
#
# Velocity S-wave (km/s) = 3.70162 3.77244 3.73720
# Velocity P-wave (km/s) = 6.92935 6.99596 6.96273
#
# Compressibility (1/GPa) = 0.01714604
#
# Stress axis : x y z
#
# Youngs Moduli (GPa) = 65.12753 86.52775 80.96623
#
# Poissons Ratio (x) = 0.29430 0.48981
# Poissons Ratio (y) = 0.22152 0.13014
# Poissons Ratio (z) = 0.39399 0.13908
#
# Static dielectric constant tensor:
#      x y z
#    x 3.440970 0.000000 0.000000 
#    y 0.000000 3.560420 0.000000 
#    z 0.000000 0.000000 3.787830 
# 
# 
# High freq. dielectric constant tensor:
#      x y z
#    x 1.756530 0.000000 0.000000 
#    y 0.000000 1.769400 0.000000 
#    z 0.000000 0.000000 1.775880 
# 
# From -- ./inp_files/57591.got.cif
#   From: 2010.03.12/outbox.cif.g09.slc.cpg/sg63_29_cif.got.tgz:57591.got - 2010.04.10 19:34:48.
