data_PCOD8259869
_publ_section_title
;
Structure prediction by ZEFSAII (Michael W. Deem and Ramdas Pophale) SiO2 
 PCOD8259869
Probable space group: C M C M
;
_chemical_formula_sum "Si O2"
_cell_formula_units_Z 96
_cell_length_a 23.750214
_cell_length_b 13.569041
_cell_length_c 17.404754
_cell_angle_alpha 90.000000
_cell_angle_beta 90.000000
_cell_angle_gamma 90.000000
_cell_volume 5608.988779
_symmetry_space_group_name_H-M "C M C M"
_symmetry_group_IT_number 63
_symmetry_cell_setting 'orthorhombic'
loop_
_space_group_symop_operation_xyz
x,y,z
-x,-y,1/2+z
x,-y,-z
-x,y,1/2-z
-x,-y,-z
x,y,1/2-z
-x,y,z
x,-y,1/2+z
1/2+x,1/2+y,z
1/2-x,1/2-y,1/2+z
1/2+x,1/2-y,-z
1/2-x,1/2+y,1/2-z
1/2-x,1/2-y,-z
1/2+x,1/2+y,1/2-z
1/2-x,1/2+y,z
1/2+x,1/2-y,1/2+z
loop_
_atom_site_type_symbol
_atom_site_label
_atom_site_fract_x
_atom_site_fract_y
_atom_site_fract_z
Si Si1 0.234351 0.241658 0.588188
Si Si2 0.435317 0.986500 0.411087
Si Si3 0.063442 0.722153 0.839142
Si Si4 0.226205 0.037255 0.839243
Si Si5 0.666526 0.091531 0.338471
Si Si6 0.334566 0.347132 0.659993
O O1 0.250000 0.250000 0.500000
O O2 0.215042 0.131485 0.608098
O O3 0.183721 0.315612 0.609192
O O4 0.289715 0.264628 0.637081
O O5 0.500000 0.014979 0.392867
O O6 0.395805 0.057728 0.361681
O O7 0.420819 0.000000 0.500000
O O8 0.423401 0.873718 0.389144
O O9 0.074550 0.695326 0.750000
O O10 0.103756 0.811284 0.867056
O O11 0.000000 0.759356 0.852146
O O12 0.215272 0.063078 0.750000
O O13 0.289684 0.997746 0.851009
O O14 0.182472 0.954724 0.872020
O O15 0.666583 0.125386 0.250000
O O16 0.331351 0.356877 0.750000
#
# Coordination Sequence:
#
# PCOD8259869 Si02
#       6
#    16  16  16  16  16  16
#     4  11  22  31  49  75 103 139 171 213 252 307
#     4  10  21  33  50  75 105 136 169 215 267 316
#     4   9  17  31  53  78 101 130 169 212 259 309
#     4   9  18  34  52  72 102 136 167 207 260 310
#     4  10  21  34  52  74 102 138 177 214 257 320
#     4   9  18  32  51  74 101 131 166 208 257 309
#
# _framework density 17.115385
#
# number of rings (size 3 to 8) (size 9 to 14) (size 15 to 20)
#    0.000    2.333    0.000    4.000    4.667    5.667 
#    0.000    0.000    0.000    1.000    0.000    3.500 
#    0.000    0.000    0.000    0.000    0.000    0.000 
#
# Total GULP energy -595180.904234 kJ/mol
# GULP energy per Si atom -12399.602172 kJ/mol
# Density = 1.707643 g / cm^3
# Si number density = 17.115385 Si / 1000 Ang^3
#
#
#
# Elastic Constant Matrix: (Units=GPa)
#
#
# Indices 1 2 3 4 5 6 
#
# 1 109.0258 62.1458 34.9581 0.0000 0.0000 0.0000
# 2 62.1458 122.5745 49.3258 0.0000 0.0000 0.0000
# 3 34.9581 49.3258 47.0452 0.0000 0.0000 0.0000
# 4 0.0000 0.0000 0.0000 16.9584 0.0000 0.0000
# 5 0.0000 0.0000 0.0000 0.0000 22.7885 0.0000
# 6 0.0000 0.0000 0.0000 0.0000 0.0000 29.5333
#
#
#
# Elastic Compliance Matrix: (Units=1/GPa)
#
#
# Indices 1 2 3 4 5 6 
#
# 1 0.013536 -0.004870 -0.004952 0.000000 0.000000 0.000000
# 2 -0.004870 0.015865 -0.013015 0.000000 0.000000 0.000000
# 3 -0.004952 -0.013015 0.038582 0.000000 0.000000 0.000000
# 4 0.000000 0.000000 0.000000 0.058968 0.000000 0.000000
# 5 0.000000 0.000000 0.000000 0.000000 0.043882 0.000000
# 6 0.000000 0.000000 0.000000 0.000000 0.000000 0.033860
#
#
# Mechanical properties :
#
#
# Convention : Reuss Voigt Hill
#
# Bulk Modulus (GPa) = 44.82641 63.50053 54.16347
# Shear Modulus (GPa) = 19.39461 22.67045 21.03253
#
# Velocity S-wave (km/s) = 3.36991 3.64341 3.50932
# Velocity P-wave (km/s) = 6.43345 7.40818 6.93796
#
# Compressibility (1/GPa) = 0.02230828
#
# Stress axis : x y z
#
# Youngs Moduli (GPa) = 73.87750 63.03207 25.91864
#
# Poissons Ratio (x) = 0.30696 0.12835
# Poissons Ratio (y) = 0.35978 0.33734
# Poissons Ratio (z) = 0.36585 0.82038
#
# Static dielectric constant tensor:
#      x y z
#    x 3.301940 0.000000 0.000000 
#    y 0.000000 3.198570 0.000000 
#    z 0.000000 0.000000 3.159050 
# 
# 
# High freq. dielectric constant tensor:
#      x y z
#    x 1.653060 0.000000 0.000000 
#    y 0.000000 1.652280 0.000000 
#    z 0.000000 0.000000 1.657250 
# 
# From -- ./inp_files/48060.got.cif
#   From: 2010.03.12/outbox.cif.g09.slc.cpg/sg63_25_cif.got.tgz:48060.got - 2010.04.10 19:34:48.
