data_PCOD8259602
_publ_section_title
;
Structure prediction by ZEFSAII (Michael W. Deem and Ramdas Pophale) SiO2 
 PCOD8259602
Probable space group: C M C M
;
_chemical_formula_sum "Si O2"
_cell_formula_units_Z 112
_cell_length_a 13.488562
_cell_length_b 29.247059
_cell_length_c 14.349831
_cell_angle_alpha 90.000000
_cell_angle_beta 90.000000
_cell_angle_gamma 90.000000
_cell_volume 5661.019359
_symmetry_space_group_name_H-M "C M C M"
_symmetry_group_IT_number 63
_symmetry_cell_setting 'orthorhombic'
loop_
_space_group_symop_operation_xyz
x,y,z
-x,-y,1/2+z
x,-y,-z
-x,y,1/2-z
-x,-y,-z
x,y,1/2-z
-x,y,z
x,-y,1/2+z
1/2+x,1/2+y,z
1/2-x,1/2-y,1/2+z
1/2+x,1/2-y,-z
1/2-x,1/2+y,1/2-z
1/2-x,1/2-y,-z
1/2+x,1/2+y,1/2-z
1/2-x,1/2+y,z
1/2+x,1/2-y,1/2+z
loop_
_atom_site_type_symbol
_atom_site_label
_atom_site_fract_x
_atom_site_fract_y
_atom_site_fract_z
Si Si1 0.297090 0.670963 0.352808
Si Si2 0.610655 0.229777 0.142102
Si Si3 0.239029 0.569783 0.353341
Si Si4 0.108496 0.996918 0.358212
Si Si5 0.613873 0.677306 0.955880
Si Si6 0.779367 0.906116 0.358876
Si Si7 0.612539 0.053566 0.983263
O O1 0.328973 0.690168 0.250000
O O2 0.187359 0.689144 0.379615
O O3 0.298108 0.616586 0.347000
O O4 0.374400 0.684523 0.432880
O O5 0.609363 0.242320 0.250000
O O6 0.500000 0.214670 0.109281
O O7 0.646193 0.275195 0.089760
O O8 0.203506 0.554146 0.250000
O O9 0.311734 0.532097 0.401995
O O10 0.144276 0.576728 0.419222
O O11 0.104308 0.009241 0.250000
O O12 0.000000 0.004731 0.403521
O O13 0.137201 0.944428 0.373499
O O14 0.500000 0.665240 0.932089
O O15 0.686494 0.638230 0.916471
O O16 0.765573 0.893807 0.250000
O O17 0.676434 0.926301 0.397985
O O18 0.500000 0.066524 0.960330
O O19 0.626641 0.000000 0.000000
#
# Coordination Sequence:
#
# PCOD8259602 Si02
#       7
#    16  16  16  16  16  16  16
#     4  10  21  37  58  84 117 154 193 236 290 350
#     4   9  19  37  61  88 116 148 192 245 295 344
#     4  10  20  37  57  82 114 149 192 237 283 338
#     4   9  18  33  55  82 114 152 191 233 280 334
#     4  11  22  37  60  90 121 155 195 239 292 350
#     4  11  22  39  60  85 118 154 198 243 291 349
#     4  11  23  39  58  82 113 152 198 244 296 348
#
# _framework density 19.784423
#
# number of rings (size 3 to 8) (size 9 to 14) (size 15 to 20)
#    0.000    1.857    2.857    1.286    0.000    3.429 
#    0.000    5.000    0.000    0.000    0.000    2.000 
#    0.000    0.000    0.000    0.000    0.000    0.000 
#
# Total GULP energy -694242.638768 kJ/mol
# GULP energy per Si atom -12397.189978 kJ/mol
# Density = 1.973939 g / cm^3
# Si number density = 19.784423 Si / 1000 Ang^3
#
#
#
# Elastic Constant Matrix: (Units=GPa)
#
#
# Indices 1 2 3 4 5 6 
#
# 1 93.1721 20.1526 35.4286 0.0000 0.0000 0.0000
# 2 20.1526 61.6341 19.0956 0.0000 0.0000 0.0000
# 3 35.4286 19.0956 98.0897 0.0000 0.0000 0.0000
# 4 0.0000 0.0000 0.0000 22.5479 0.0000 0.0000
# 5 0.0000 0.0000 0.0000 0.0000 27.4451 0.0000
# 6 0.0000 0.0000 0.0000 0.0000 0.0000 24.8020
#
#
#
# Elastic Compliance Matrix: (Units=1/GPa)
#
#
# Indices 1 2 3 4 5 6 
#
# 1 0.012930 -0.002959 -0.004094 0.000000 0.000000 0.000000
# 2 -0.002959 0.017943 -0.002424 0.000000 0.000000 0.000000
# 3 -0.004094 -0.002424 0.012145 0.000000 0.000000 0.000000
# 4 0.000000 0.000000 0.000000 0.044350 0.000000 0.000000
# 5 0.000000 0.000000 0.000000 0.000000 0.036436 0.000000
# 6 0.000000 0.000000 0.000000 0.000000 0.000000 0.040319
#
#
# Mechanical properties :
#
#
# Convention : Reuss Voigt Hill
#
# Bulk Modulus (GPa) = 41.55663 44.69438 43.12550
# Shear Modulus (GPa) = 26.16427 26.84027 26.50227
#
# Velocity S-wave (km/s) = 3.64052 3.68725 3.66396
# Velocity P-wave (km/s) = 6.22266 6.38494 6.30432
#
# Compressibility (1/GPa) = 0.02406355
#
# Stress axis : x y z
#
# Youngs Moduli (GPa) = 77.34200 55.73057 82.33601
#
# Poissons Ratio (x) = 0.16492 0.33707
# Poissons Ratio (y) = 0.22887 0.19961
# Poissons Ratio (z) = 0.31663 0.13511
#
# Static dielectric constant tensor:
#      x y z
#    x 3.580180 0.000000 0.000000 
#    y 0.000000 3.479370 0.000000 
#    z 0.000000 0.000000 3.802660 
# 
# 
# High freq. dielectric constant tensor:
#      x y z
#    x 1.758130 0.000000 0.000000 
#    y 0.000000 1.764350 0.000000 
#    z 0.000000 0.000000 1.778790 
# 
# From -- ./inp_files/30435.got.cif
#   From: 2010.03.12/outbox.cif.g09.slc.cpg/sg63_16_cif.got.tgz:30435.got - 2010.04.10 19:34:48.
