data_PCOD8259243
_publ_section_title
;
Structure prediction by ZEFSAII (Michael W. Deem and Ramdas Pophale) SiO2 
 PCOD8259243
Probable space group: C M C M
;
_chemical_formula_sum "Si O2"
_cell_formula_units_Z 96
_cell_length_a 22.412089
_cell_length_b 15.221028
_cell_length_c 15.344429
_cell_angle_alpha 90.000000
_cell_angle_beta 90.000000
_cell_angle_gamma 90.000000
_cell_volume 5234.522312
_symmetry_space_group_name_H-M "C M C M"
_symmetry_group_IT_number 63
_symmetry_cell_setting 'orthorhombic'
loop_
_space_group_symop_operation_xyz
x,y,z
-x,-y,1/2+z
x,-y,-z
-x,y,1/2-z
-x,-y,-z
x,y,1/2-z
-x,y,z
x,-y,1/2+z
1/2+x,1/2+y,z
1/2-x,1/2-y,1/2+z
1/2+x,1/2-y,-z
1/2-x,1/2+y,1/2-z
1/2-x,1/2-y,-z
1/2+x,1/2+y,1/2-z
1/2-x,1/2+y,z
1/2+x,1/2-y,1/2+z
loop_
_atom_site_type_symbol
_atom_site_label
_atom_site_fract_x
_atom_site_fract_y
_atom_site_fract_z
Si Si1 0.770931 0.371626 0.845796
Si Si2 0.500000 0.004193 0.648443
Si Si3 0.238911 0.322176 0.150293
Si Si4 0.314201 0.596242 0.998318
Si Si5 0.500000 0.208935 0.648007
Si Si6 0.383133 0.926614 0.565660
Si Si7 0.619645 0.235522 0.555335
O O1 0.746459 0.396504 0.750000
O O2 0.777086 0.266745 0.855058
O O3 0.835617 0.414627 0.857428
O O4 0.727374 0.408027 0.917807
O O5 0.500000 0.987400 0.750000
O O6 0.443548 0.959101 0.606970
O O7 0.500000 0.106283 0.624361
O O8 0.235912 0.358146 0.250000
O O9 0.273009 0.390760 0.087779
O O10 0.171826 0.302500 0.117300
O O11 0.345518 0.500000 0.000000
O O12 0.362705 0.672861 0.009183
O O13 0.500000 0.225918 0.750000
O O14 0.559711 0.253403 0.610031
O O15 0.394457 0.834193 0.519226
O O16 0.357854 0.000000 0.500000
#
# Coordination Sequence:
#
# PCOD8259243 Si02
#       7
#    16   8  16  16   8  16  16
#     4  10  20  35  57  83 117 154 189 232 289 344
#     4  11  24  36  52  86 117 147 192 229 282 359
#     4  10  20  37  59  85 116 152 194 238 287 344
#     4  11  22  39  58  85 117 154 197 243 286 337
#     4  11  23  39  58  83 114 151 193 238 290 344
#     4  12  20  35  55  81 118 154 187 228 284 344
#     4  11  21  39  59  83 115 155 192 237 288 348
#
# _framework density 18.339783000000001
#
# number of rings (size 3 to 8) (size 9 to 14) (size 15 to 20)
#    0.000    1.167    5.000    3.250    0.000    1.333 
#    0.000    0.417    0.000    0.000    0.000    1.167 
#    0.000    0.000    0.000    0.000    0.000    0.000 
#
# Total GULP energy -595166.582183 kJ/mol
# GULP energy per Si atom -12399.303795 kJ/mol
# Density = 1.829804 g / cm^3
# Si number density = 18.339783 Si / 1000 Ang^3
#
#
#
# Elastic Constant Matrix: (Units=GPa)
#
#
# Indices 1 2 3 4 5 6 
#
# 1 91.2173 22.2624 44.1162 0.0000 0.0000 0.0000
# 2 22.2624 88.2913 49.6551 0.0000 0.0000 0.0000
# 3 44.1162 49.6551 117.2565 0.0000 0.0000 0.0000
# 4 0.0000 0.0000 0.0000 14.7726 0.0000 0.0000
# 5 0.0000 0.0000 0.0000 0.0000 21.7473 0.0000
# 6 0.0000 0.0000 0.0000 0.0000 0.0000 40.6359
#
#
#
# Elastic Compliance Matrix: (Units=1/GPa)
#
#
# Indices 1 2 3 4 5 6 
#
# 1 0.013436 -0.000715 -0.004752 0.000000 0.000000 0.000000
# 2 -0.000715 0.014905 -0.006043 0.000000 0.000000 0.000000
# 3 -0.004752 -0.006043 0.012875 0.000000 0.000000 0.000000
# 4 0.000000 0.000000 0.000000 0.067693 0.000000 0.000000
# 5 0.000000 0.000000 0.000000 0.000000 0.045983 0.000000
# 6 0.000000 0.000000 0.000000 0.000000 0.000000 0.024609
#
#
# Mechanical properties :
#
#
# Convention : Reuss Voigt Hill
#
# Bulk Modulus (GPa) = 54.95820 58.75917 56.85868
# Shear Modulus (GPa) = 23.97095 27.47991 25.72543
#
# Velocity S-wave (km/s) = 3.61923 3.87509 3.74934
# Velocity P-wave (km/s) = 6.89179 7.22014 7.05788
#
# Compressibility (1/GPa) = 0.01819565
#
# Stress axis : x y z
#
# Youngs Moduli (GPa) = 74.42859 67.09186 77.66862
#
# Poissons Ratio (x) = 0.04798 0.36909
# Poissons Ratio (y) = 0.05323 0.46934
# Poissons Ratio (z) = 0.35370 0.40542
#
# Static dielectric constant tensor:
#      x y z
#    x 3.292790 0.000000 0.000000 
#    y 0.000000 3.560670 0.000000 
#    z 0.000000 0.000000 3.654920 
# 
# 
# High freq. dielectric constant tensor:
#      x y z
#    x 1.693150 0.000000 0.000000 
#    y 0.000000 1.706820 0.000000 
#    z 0.000000 0.000000 1.724920 
# 
# From -- ./inp_files/36812.got.cif
#   From: 2010.03.12/outbox.cif.g09.slc.cpg/sg63_19_cif.got.tgz:36812.got - 2010.04.10 19:34:48.
