data_PCOD8259756
_publ_section_title
;
Structure prediction by ZEFSAII (Michael W. Deem and Ramdas Pophale) SiO2 
 PCOD8259756
Probable space group: C M C M
;
_chemical_formula_sum "Si O2"
_cell_formula_units_Z 96
_cell_length_a 23.415535
_cell_length_b 25.311975
_cell_length_c 8.450234
_cell_angle_alpha 90.000000
_cell_angle_beta 90.000000
_cell_angle_gamma 90.000000
_cell_volume 5008.398229
_symmetry_space_group_name_H-M "C M C M"
_symmetry_group_IT_number 63
_symmetry_cell_setting 'orthorhombic'
loop_
_space_group_symop_operation_xyz
x,y,z
-x,-y,1/2+z
x,-y,-z
-x,y,1/2-z
-x,-y,-z
x,y,1/2-z
-x,y,z
x,-y,1/2+z
1/2+x,1/2+y,z
1/2-x,1/2-y,1/2+z
1/2+x,1/2-y,-z
1/2-x,1/2+y,1/2-z
1/2-x,1/2-y,-z
1/2+x,1/2+y,1/2-z
1/2-x,1/2+y,z
1/2+x,1/2-y,1/2+z
loop_
_atom_site_type_symbol
_atom_site_label
_atom_site_fract_x
_atom_site_fract_y
_atom_site_fract_z
Si Si1 0.694574 0.943852 0.436714
Si Si2 0.618371 0.848289 0.435900
Si Si3 0.813112 0.251004 0.934359
Si Si4 0.500000 0.303091 0.439039
Si Si5 0.117843 0.842547 0.564844
Si Si6 0.675065 0.443245 0.437769
Si Si7 0.500000 0.817605 0.564162
O O1 0.691132 0.944986 0.250000
O O2 0.654387 0.897519 0.506155
O O3 0.759483 0.932733 0.490947
O O4 0.672400 0.000000 0.500000
O O5 0.612974 0.853528 0.250000
O O6 0.649606 0.794059 0.475867
O O7 0.555269 0.849405 0.507393
O O8 0.812986 0.264411 0.750000
O O9 0.750000 0.250000 0.000000
O O10 0.840193 0.194065 0.963298
O O11 0.500000 0.305866 0.250000
O O12 0.553697 0.333300 0.509656
O O13 0.500000 0.242490 0.500517
O O14 0.124558 0.830363 0.750000
O O15 0.134368 0.902365 0.526584
O O16 0.655192 0.500000 0.500000
O O17 0.667562 0.438983 0.250000
O O18 0.500000 0.815503 0.750000
#
# Coordination Sequence:
#
# PCOD8259756 Si02
#       7
#    16  16  16   8  16  16   8
#     4   9  20  37  60  88 118 154 194 239 293 350
#     4  11  22  38  60  87 118 154 197 245 297 353
#     4  12  24  38  57  86 120 155 193 241 298 356
#     4  11  23  41  62  85 117 158 202 246 297 353
#     4  12  24  39  61  89 119 156 200 245 298 356
#     4  10  20  38  62  89 123 159 198 244 296 356
#     4  11  23  39  60  85 115 158 203 244 296 354
#
# _framework density 19.167805000000001
#
# number of rings (size 3 to 8) (size 9 to 14) (size 15 to 20)
#    0.000    1.167    1.667    5.500    0.000    4.000 
#    0.000    0.833    0.000    0.000    0.000    0.000 
#    0.000    0.000    0.000    0.000    0.000    0.000 
#
# Total GULP energy -595472.501322 kJ/mol
# GULP energy per Si atom -12405.677111 kJ/mol
# Density = 1.912418 g / cm^3
# Si number density = 19.167805 Si / 1000 Ang^3
#
#
#
# Elastic Constant Matrix: (Units=GPa)
#
#
# Indices 1 2 3 4 5 6 
#
# 1 130.2066 51.9237 29.1716 0.0000 0.0000 0.0000
# 2 51.9237 116.2043 23.8524 0.0000 0.0000 0.0000
# 3 29.1716 23.8524 48.2253 0.0000 0.0000 0.0000
# 4 0.0000 0.0000 0.0000 33.1396 0.0000 0.0000
# 5 0.0000 0.0000 0.0000 0.0000 27.6650 0.0000
# 6 0.0000 0.0000 0.0000 0.0000 0.0000 23.8348
#
#
#
# Elastic Compliance Matrix: (Units=1/GPa)
#
#
# Indices 1 2 3 4 5 6 
#
# 1 0.010091 -0.003624 -0.004312 0.000000 0.000000 0.000000
# 2 -0.003624 0.010879 -0.003189 0.000000 0.000000 0.000000
# 3 -0.004312 -0.003189 0.024921 0.000000 0.000000 0.000000
# 4 0.000000 0.000000 0.000000 0.030175 0.000000 0.000000
# 5 0.000000 0.000000 0.000000 0.000000 0.036147 0.000000
# 6 0.000000 0.000000 0.000000 0.000000 0.000000 0.041955
#
#
# Mechanical properties :
#
#
# Convention : Reuss Voigt Hill
#
# Bulk Modulus (GPa) = 42.29609 56.05905 49.17757
# Shear Modulus (GPa) = 27.12968 29.57377 28.35173
#
# Velocity S-wave (km/s) = 3.76623 3.93222 3.85012
# Velocity P-wave (km/s) = 6.40522 7.06587 6.74364
#
# Compressibility (1/GPa) = 0.02364285
#
# Stress axis : x y z
#
# Youngs Moduli (GPa) = 99.09508 91.91668 40.12617
#
# Poissons Ratio (x) = 0.33311 0.17302
# Poissons Ratio (y) = 0.35913 0.12795
# Poissons Ratio (z) = 0.42728 0.29310
#
# Static dielectric constant tensor:
#      x y z
#    x 3.870260 0.000000 0.000000 
#    y 0.000000 3.722740 0.000000 
#    z 0.000000 0.000000 3.546110 
# 
# 
# High freq. dielectric constant tensor:
#      x y z
#    x 1.748400 0.000000 0.000000 
#    y 0.000000 1.748100 0.000000 
#    z 0.000000 0.000000 1.756020 
# 
# From -- ./inp_files/10543.got.cif
#   From: 2010.03.12/outbox.cif.g09.slc.cpg/sg63_6_cif.got.tgz:10543.got - 2010.04.10 19:34:48.
