data_PCOD8259264
_publ_section_title
;
Structure prediction by ZEFSAII (Michael W. Deem and Ramdas Pophale) SiO2 
 PCOD8259264
Probable space group: C M C M
;
_chemical_formula_sum "Si O2"
_cell_formula_units_Z 80
_cell_length_a 7.586743
_cell_length_b 27.994255
_cell_length_c 18.965010
_cell_angle_alpha 90.000000
_cell_angle_beta 90.000000
_cell_angle_gamma 90.000000
_cell_volume 4027.887786
_symmetry_space_group_name_H-M "C M C M"
_symmetry_group_IT_number 63
_symmetry_cell_setting 'orthorhombic'
loop_
_space_group_symop_operation_xyz
x,y,z
-x,-y,1/2+z
x,-y,-z
-x,y,1/2-z
-x,-y,-z
x,y,1/2-z
-x,y,z
x,-y,1/2+z
1/2+x,1/2+y,z
1/2-x,1/2-y,1/2+z
1/2+x,1/2-y,-z
1/2-x,1/2+y,1/2-z
1/2-x,1/2-y,-z
1/2+x,1/2+y,1/2-z
1/2-x,1/2+y,z
1/2+x,1/2-y,1/2+z
loop_
_atom_site_type_symbol
_atom_site_label
_atom_site_fract_x
_atom_site_fract_y
_atom_site_fract_z
Si Si1 0.000000 0.526320 0.893628
Si Si2 0.300473 0.274996 0.672434
Si Si3 0.000000 0.426022 0.545391
Si Si4 0.792140 0.848302 0.941958
Si Si5 0.296371 0.680947 0.596635
Si Si6 0.199921 0.084379 0.667984
O O1 0.000000 0.469288 0.899326
O O2 0.175739 0.540058 0.850795
O O3 0.000000 0.552952 0.967686
O O4 0.206833 0.273828 0.750000
O O5 0.500000 0.290226 0.683764
O O6 0.217585 0.315293 0.621517
O O7 0.301928 0.223803 0.634980
O O8 0.821433 0.396369 0.557952
O O9 0.000000 0.861392 0.935714
O O10 0.757871 0.818265 0.013313
O O11 0.500000 0.687212 0.614676
O O12 0.227377 0.630839 0.627375
O O13 0.209055 0.095850 0.750000
O O14 0.000000 0.071998 0.644379
#
# Coordination Sequence:
#
# PCOD8259264 Si02
#       6
#     8  16   8  16  16  16
#     4  11  23  40  62  94 121 150 211 262 305 373
#     4  10  22  37  56  85 120 162 205 247 300 357
#     4  11  24  40  66  90 114 161 208 255 316 356
#     4  10  22  41  60  86 122 159 204 253 301 362
#     4  10  20  35  57  87 119 158 199 243 301 361
#     4  10  21  38  60  89 128 162 194 248 313 368
#
# _framework density 19.861526000000001
#
# number of rings (size 3 to 8) (size 9 to 14) (size 15 to 20)
#    0.000    1.800    2.000    1.500    4.200    2.000 
#    0.000    4.000    0.000    2.400    0.000    0.000 
#    0.000    0.000    0.000    0.000    0.000    0.000 
#
# Total GULP energy -495989.962844 kJ/mol
# GULP energy per Si atom -12399.749071 kJ/mol
# Density = 1.981632 g / cm^3
# Si number density = 19.861526 Si / 1000 Ang^3
#
#
#
# Elastic Constant Matrix: (Units=GPa)
#
#
# Indices 1 2 3 4 5 6 
#
# 1 79.3903 43.0673 34.1147 0.0000 0.0000 0.0000
# 2 43.0673 111.4132 62.6684 0.0000 0.0000 0.0000
# 3 34.1147 62.6684 129.2133 0.0000 0.0000 0.0000
# 4 0.0000 0.0000 0.0000 28.9451 0.0000 0.0000
# 5 0.0000 0.0000 0.0000 0.0000 18.9148 0.0000
# 6 0.0000 0.0000 0.0000 0.0000 0.0000 -22.7498
#
#
#
# Elastic Compliance Matrix: (Units=1/GPa)
#
#
# Indices 1 2 3 4 5 6 
#
# 1 0.016207 -0.005305 -0.001706 0.000000 0.000000 0.000000
# 2 -0.005305 0.014080 -0.005428 0.000000 0.000000 0.000000
# 3 -0.001706 -0.005428 0.010822 0.000000 0.000000 0.000000
# 4 0.000000 0.000000 0.000000 0.034548 0.000000 0.000000
# 5 0.000000 0.000000 0.000000 0.000000 0.052869 0.000000
# 6 0.000000 0.000000 0.000000 0.000000 0.000000 -0.043956
#
#
# Mechanical properties :
#
#
# Convention : Reuss Voigt Hill
#
# Bulk Modulus (GPa) = 61.61268 66.63528 64.12398
# Shear Modulus (GPa) = 43.53231 17.03311 30.28271
#
# Velocity S-wave (km/s) = 4.68674 2.93165 3.90897
# Velocity P-wave (km/s) = 7.77019 6.71433 7.26147
#
# Compressibility (1/GPa) = 0.01623043
#
# Stress axis : x y z
#
# Youngs Moduli (GPa) = 61.70154 71.02521 92.40422
#
# Poissons Ratio (x) = 0.37682 0.15763
# Poissons Ratio (y) = 0.32735 0.50156
# Poissons Ratio (z) = 0.10525 0.38551
#
# Static dielectric constant tensor:
#      x y z
#    x 3.621140 0.000000 0.000000 
#    y 0.000000 3.481080 0.000000 
#    z 0.000000 0.000000 3.936920 
# 
# 
# High freq. dielectric constant tensor:
#      x y z
#    x 1.775540 0.000000 0.000000 
#    y 0.000000 1.756540 0.000000 
#    z 0.000000 0.000000 1.783850 
# 
# From -- ./inp_files/40548.got.cif
#   From: 2010.03.12/outbox.cif.g09.slc.cpg/sg63_21_cif.got.tgz:40548.got - 2010.04.10 19:34:48.
