data_PCOD8259099
_publ_section_title
;
Structure prediction by ZEFSAII (Michael W. Deem and Ramdas Pophale) SiO2 
 PCOD8259099
Probable space group: C M C M
;
_chemical_formula_sum "Si O2"
_cell_formula_units_Z 96
_cell_length_a 25.190442
_cell_length_b 10.931783
_cell_length_c 18.427192
_cell_angle_alpha 90.000000
_cell_angle_beta 90.000000
_cell_angle_gamma 90.000000
_cell_volume 5074.414636
_symmetry_space_group_name_H-M "C M C M"
_symmetry_group_IT_number 63
_symmetry_cell_setting 'orthorhombic'
loop_
_space_group_symop_operation_xyz
x,y,z
-x,-y,1/2+z
x,-y,-z
-x,y,1/2-z
-x,-y,-z
x,y,1/2-z
-x,y,z
x,-y,1/2+z
1/2+x,1/2+y,z
1/2-x,1/2-y,1/2+z
1/2+x,1/2-y,-z
1/2-x,1/2+y,1/2-z
1/2-x,1/2-y,-z
1/2+x,1/2+y,1/2-z
1/2-x,1/2+y,z
1/2+x,1/2-y,1/2+z
loop_
_atom_site_type_symbol
_atom_site_label
_atom_site_fract_x
_atom_site_fract_y
_atom_site_fract_z
Si Si1 0.880969 0.610694 0.050406
Si Si2 0.160859 0.092222 0.412873
Si Si3 0.790821 0.298434 0.168988
Si Si4 0.559745 0.260940 0.564383
Si Si5 0.899230 0.568272 0.831819
Si Si6 0.193471 0.833962 0.065639
O O1 0.907471 0.556172 0.122919
O O2 0.834965 0.703694 0.074928
O O3 0.857855 0.500000 0.000000
O O4 0.926619 0.681047 0.006477
O O5 0.183134 0.164662 0.343442
O O6 0.099845 0.125200 0.430631
O O7 0.198831 0.134098 0.480260
O O8 0.161405 0.947297 0.398103
O O9 0.765538 0.299093 0.250000
O O10 0.836941 0.398882 0.163269
O O11 0.749394 0.329536 0.106233
O O12 0.500000 0.311295 0.558562
O O13 0.565184 0.176895 0.635690
O O14 0.917954 0.544940 0.750000
#
# Coordination Sequence:
#
# PCOD8259099 Si02
#       6
#    16  16  16  16  16  16
#     4   9  19  34  53  77 109 138 178 219 268 323
#     4   9  20  37  53  79 108 136 184 229 262 322
#     4  10  21  35  52  75 107 147 182 219 262 317
#     4   9  18  36  59  79 103 138 178 226 279 321
#     4   9  19  34  51  78 111 139 179 222 262 320
#     4  10  20  35  54  76 107 145 182 217 273 317
#
# _framework density 18.918437999999998
#
# number of rings (size 3 to 8) (size 9 to 14) (size 15 to 20)
#    0.000    2.667    0.000    1.500    2.333    4.667 
#    6.000    6.667    0.000    0.000    0.000    0.000 
#    0.000   13.333    0.000    0.000    0.000    0.000 
#
# Total GULP energy -594968.047827 kJ/mol
# GULP energy per Si atom -12395.167663 kJ/mol
# Density = 1.887538 g / cm^3
# Si number density = 18.918438 Si / 1000 Ang^3
#
#
#
# Elastic Constant Matrix: (Units=GPa)
#
#
# Indices 1 2 3 4 5 6 
#
# 1 101.3912 28.4121 34.7815 0.0000 0.0000 0.0000
# 2 28.4121 102.6881 15.2089 0.0000 0.0000 0.0000
# 3 34.7815 15.2089 88.4280 0.0000 0.0000 0.0000
# 4 0.0000 0.0000 0.0000 16.7260 0.0000 0.0000
# 5 0.0000 0.0000 0.0000 0.0000 15.7473 0.0000
# 6 0.0000 0.0000 0.0000 0.0000 0.0000 10.6488
#
#
#
# Elastic Compliance Matrix: (Units=1/GPa)
#
#
# Indices 1 2 3 4 5 6 
#
# 1 0.012094 -0.002711 -0.004291 0.000000 0.000000 0.000000
# 2 -0.002711 0.010600 -0.000757 0.000000 0.000000 0.000000
# 3 -0.004291 -0.000757 0.013127 0.000000 0.000000 0.000000
# 4 0.000000 0.000000 0.000000 0.059787 0.000000 0.000000
# 5 0.000000 0.000000 0.000000 0.000000 0.063503 0.000000
# 6 0.000000 0.000000 0.000000 0.000000 0.000000 0.093907
#
#
# Mechanical properties :
#
#
# Convention : Reuss Voigt Hill
#
# Bulk Modulus (GPa) = 49.25116 49.92361 49.58739
# Shear Modulus (GPa) = 18.16175 22.89807 20.52991
#
# Velocity S-wave (km/s) = 3.10175 3.48279 3.29778
# Velocity P-wave (km/s) = 6.23841 6.52834 6.38502
#
# Compressibility (1/GPa) = 0.02030409
#
# Stress axis : x y z
#
# Youngs Moduli (GPa) = 82.68315 94.33631 76.18149
#
# Poissons Ratio (x) = 0.25573 0.32688
# Poissons Ratio (y) = 0.22414 0.05766
# Poissons Ratio (z) = 0.35478 0.07141
#
# Static dielectric constant tensor:
#      x y z
#    x 3.117120 0.000000 0.000000 
#    y 0.000000 3.555100 0.000000 
#    z 0.000000 0.000000 3.568900 
# 
# 
# High freq. dielectric constant tensor:
#      x y z
#    x 1.707480 0.000000 0.000000 
#    y 0.000000 1.731400 0.000000 
#    z 0.000000 0.000000 1.730260 
# 
# From -- ./inp_files/48027.got.cif
#   From: 2010.03.12/outbox.cif.g09.slc.cpg/sg63_25_cif.got.tgz:48027.got - 2010.04.10 19:34:48.
