data_PCOD8259644
_publ_section_title
;
Structure prediction by ZEFSAII (Michael W. Deem and Ramdas Pophale) SiO2 
 PCOD8259644
Probable space group: C M C M
;
_chemical_formula_sum "Si O2"
_cell_formula_units_Z 80
_cell_length_a 9.103777
_cell_length_b 20.208517
_cell_length_c 22.675428
_cell_angle_alpha 90.000000
_cell_angle_beta 90.000000
_cell_angle_gamma 90.000000
_cell_volume 4171.685387
_symmetry_space_group_name_H-M "C M C M"
_symmetry_group_IT_number 63
_symmetry_cell_setting 'orthorhombic'
loop_
_space_group_symop_operation_xyz
x,y,z
-x,-y,1/2+z
x,-y,-z
-x,y,1/2-z
-x,-y,-z
x,y,1/2-z
-x,y,z
x,-y,1/2+z
1/2+x,1/2+y,z
1/2-x,1/2-y,1/2+z
1/2+x,1/2-y,-z
1/2-x,1/2+y,1/2-z
1/2-x,1/2-y,-z
1/2+x,1/2+y,1/2-z
1/2-x,1/2+y,z
1/2+x,1/2-y,1/2+z
loop_
_atom_site_type_symbol
_atom_site_label
_atom_site_fract_x
_atom_site_fract_y
_atom_site_fract_z
Si Si1 0.671523 0.732983 0.133507
Si Si2 0.325949 0.050359 0.250000
Si Si3 0.668591 0.864343 0.435393
Si Si4 0.829932 0.498652 0.373739
Si Si5 0.325863 0.201194 0.250000
Si Si6 0.672831 0.608147 0.055398
O O1 0.500000 0.733024 0.149390
O O2 0.714072 0.795384 0.093709
O O3 0.764103 0.738357 0.193032
O O4 0.718852 0.667150 0.098952
O O5 0.500000 0.047928 0.250000
O O6 0.265904 0.013511 0.308421
O O7 0.268724 0.125574 0.250000
O O8 0.500000 0.863325 0.457034
O O9 0.772659 0.875578 0.490466
O O10 0.693057 0.921484 0.386933
O O11 0.744455 0.540398 0.422688
O O12 0.000000 0.519415 0.377590
O O13 0.500000 0.205343 0.250000
O O14 0.500000 0.598499 0.053086
#
# Coordination Sequence:
#
# PCOD8259644 Si02
#       6
#    16   8  16  16   8  16
#     4  10  22  39  58  84 115 149 187 230 281 333
#     4   9  18  34  57  83 107 136 182 231 273 323
#     4  10  22  38  58  83 113 150 190 232 278 330
#     4  10  20  37  60  84 110 145 190 234 276 329
#     4  11  21  36  61  87 111 144 186 233 279 333
#     4  11  22  36  57  83 116 152 186 230 281 334
#
# _framework density 19.176901999999998
#
# number of rings (size 3 to 8) (size 9 to 14) (size 15 to 20)
#    0.000    1.800    2.000    2.100    0.000    5.600 
#    0.000    3.500    0.000    0.000    0.000    0.000 
#    0.000    0.000    0.000    0.000    0.000    0.000 
#
# Total GULP energy -496214.719976 kJ/mol
# GULP energy per Si atom -12405.367999 kJ/mol
# Density = 1.913325 g / cm^3
# Si number density = 19.176902 Si / 1000 Ang^3
#
#
#
# Elastic Constant Matrix: (Units=GPa)
#
#
# Indices 1 2 3 4 5 6 
#
# 1 55.3868 25.3252 39.3530 0.0000 0.0000 0.0000
# 2 25.3252 65.2803 9.1227 0.0000 0.0000 0.0000
# 3 39.3530 9.1227 106.7949 0.0000 0.0000 0.0000
# 4 0.0000 0.0000 0.0000 13.9911 0.0000 0.0000
# 5 0.0000 0.0000 0.0000 0.0000 30.1193 0.0000
# 6 0.0000 0.0000 0.0000 0.0000 0.0000 23.8208
#
#
#
# Elastic Compliance Matrix: (Units=1/GPa)
#
#
# Indices 1 2 3 4 5 6 
#
# 1 0.029934 -0.010193 -0.010160 0.000000 0.000000 0.000000
# 2 -0.010193 0.018975 0.002135 0.000000 0.000000 0.000000
# 3 -0.010160 0.002135 0.012925 0.000000 0.000000 0.000000
# 4 0.000000 0.000000 0.000000 0.071474 0.000000 0.000000
# 5 0.000000 0.000000 0.000000 0.000000 0.033201 0.000000
# 6 0.000000 0.000000 0.000000 0.000000 0.000000 0.041980
#
#
# Mechanical properties :
#
#
# Convention : Reuss Voigt Hill
#
# Bulk Modulus (GPa) = 39.37225 41.67377 40.52301
# Shear Modulus (GPa) = 19.73238 23.83031 21.78134
#
# Velocity S-wave (km/s) = 3.21123 3.52896 3.37384
# Velocity P-wave (km/s) = 5.85875 6.19541 6.02943
#
# Compressibility (1/GPa) = 0.02539860
#
# Stress axis : x y z
#
# Youngs Moduli (GPa) = 33.40667 52.70230 77.36866
#
# Poissons Ratio (x) = 0.53720 0.78605
# Poissons Ratio (y) = 0.34051 -0.16520
# Poissons Ratio (z) = 0.33940 -0.11253
#
# Static dielectric constant tensor:
#      x y z
#    x 3.335020 0.000000 0.000000 
#    y 0.000000 3.600620 0.000000 
#    z 0.000000 0.000000 3.626730 
# 
# 
# High freq. dielectric constant tensor:
#      x y z
#    x 1.732110 0.000000 0.000000 
#    y 0.000000 1.751470 0.000000 
#    z 0.000000 0.000000 1.756700 
# 
# From -- ./inp_files/59529.got.cif
#   From: 2010.03.12/outbox.cif.g09.slc.cpg/sg63_30_cif.got.tgz:59529.got - 2010.04.10 19:34:48.
