data_PCOD8259809
_publ_section_title
;
Structure prediction by ZEFSAII (Michael W. Deem and Ramdas Pophale) SiO2 
 PCOD8259809
Probable space group: C M C M
;
_chemical_formula_sum "Si O2"
_cell_formula_units_Z 80
_cell_length_a 11.894013
_cell_length_b 15.043829
_cell_length_c 22.650039
_cell_angle_alpha 90.000000
_cell_angle_beta 90.000000
_cell_angle_gamma 90.000000
_cell_volume 4052.805401
_symmetry_space_group_name_H-M "C M C M"
_symmetry_group_IT_number 63
_symmetry_cell_setting 'orthorhombic'
loop_
_space_group_symop_operation_xyz
x,y,z
-x,-y,1/2+z
x,-y,-z
-x,y,1/2-z
-x,-y,-z
x,y,1/2-z
-x,y,z
x,-y,1/2+z
1/2+x,1/2+y,z
1/2-x,1/2-y,1/2+z
1/2+x,1/2-y,-z
1/2-x,1/2+y,1/2-z
1/2-x,1/2-y,-z
1/2+x,1/2+y,1/2-z
1/2-x,1/2+y,z
1/2+x,1/2-y,1/2+z
loop_
_atom_site_type_symbol
_atom_site_label
_atom_site_fract_x
_atom_site_fract_y
_atom_site_fract_z
Si Si1 0.500000 0.181868 0.680209
Si Si2 0.631205 0.827920 0.875722
Si Si3 0.870537 0.397536 0.005357
Si Si4 0.000000 0.122578 0.180295
Si Si5 0.270982 0.848193 0.376399
Si Si6 0.722103 0.474032 0.819847
O O1 0.500000 0.178647 0.750000
O O2 0.500000 0.280045 0.652551
O O3 0.387951 0.135825 0.657477
O O4 0.500000 0.811266 0.861088
O O5 0.703132 0.740522 0.858006
O O6 0.671255 0.913705 0.838500
O O7 0.649153 0.846828 0.944474
O O8 0.791495 0.349907 0.053412
O O9 0.000000 0.390947 0.025849
O O10 0.834425 0.500000 0.000000
O O11 0.111616 0.076020 0.157896
O O12 0.000000 0.129137 0.250000
O O13 0.204638 0.934351 0.354692
O O14 0.726632 0.491027 0.750000
#
# Coordination Sequence:
#
# PCOD8259809 Si02
#       6
#     8  16  16   8  16  16
#     4  11  22  38  63  93 119 161 217 256 294 360
#     4  11  25  42  63  93 129 162 205 257 314 372
#     4  10  20  39  64  91 120 163 210 256 310 364
#     4   9  20  42  62  82 122 166 205 248 305 368
#     4  12  23  40  66  91 125 163 207 259 308 368
#     4  11  24  41  64  91 124 165 205 252 309 372
#
# _framework density 19.739412000000002
#
# number of rings (size 3 to 8) (size 9 to 14) (size 15 to 20)
#    0.000    1.200    5.000    1.200    2.800    1.200 
#    0.000    0.000    0.000    1.800    0.000    0.000 
#    0.000    0.000    0.000    0.000    0.000    0.000 
#
# Total GULP energy -496025.363934 kJ/mol
# GULP energy per Si atom -12400.634098 kJ/mol
# Density = 1.969448 g / cm^3
# Si number density = 19.739412 Si / 1000 Ang^3
#
#
#
# Elastic Constant Matrix: (Units=GPa)
#
#
# Indices 1 2 3 4 5 6 
#
# 1 74.4768 5.1176 14.9880 0.0000 0.0000 0.0000
# 2 5.1176 83.8789 5.6994 0.0000 0.0000 0.0000
# 3 14.9880 5.6994 71.7533 0.0000 0.0000 0.0000
# 4 0.0000 0.0000 0.0000 27.0370 0.0000 0.0000
# 5 0.0000 0.0000 0.0000 0.0000 24.5184 0.0000
# 6 0.0000 0.0000 0.0000 0.0000 0.0000 10.7356
#
#
#
# Elastic Compliance Matrix: (Units=1/GPa)
#
#
# Indices 1 2 3 4 5 6 
#
# 1 0.014053 -0.000661 -0.002883 0.000000 0.000000 0.000000
# 2 -0.000661 0.012018 -0.000816 0.000000 0.000000 0.000000
# 3 -0.002883 -0.000816 0.014604 0.000000 0.000000 0.000000
# 4 0.000000 0.000000 0.000000 0.036986 0.000000 0.000000
# 5 0.000000 0.000000 0.000000 0.000000 0.040786 0.000000
# 6 0.000000 0.000000 0.000000 0.000000 0.000000 0.093148
#
#
# Mechanical properties :
#
#
# Convention : Reuss Voigt Hill
#
# Bulk Modulus (GPa) = 31.29631 31.30210 31.29920
# Shear Modulus (GPa) = 21.64814 26.07846 23.86330
#
# Velocity S-wave (km/s) = 3.31523 3.63869 3.48072
# Velocity P-wave (km/s) = 5.52662 5.79185 5.66079
#
# Compressibility (1/GPa) = 0.03195265
#
# Stress axis : x y z
#
# Youngs Moduli (GPa) = 71.16118 83.21007 68.47600
#
# Poissons Ratio (x) = 0.05504 0.19740
# Poissons Ratio (y) = 0.04707 0.05590
# Poissons Ratio (z) = 0.20514 0.06793
#
# Static dielectric constant tensor:
#      x y z
#    x 3.597530 0.000000 0.000000 
#    y 0.000000 3.616290 0.000000 
#    z 0.000000 0.000000 3.453640 
# 
# 
# High freq. dielectric constant tensor:
#      x y z
#    x 1.767240 0.000000 0.000000 
#    y 0.000000 1.779890 0.000000 
#    z 0.000000 0.000000 1.765120 
# 
# From -- ./inp_files/61146.got.cif
#   From: 2010.03.12/outbox.cif.g09.slc.cpg/sg63_31_cif.got.tgz:61146.got - 2010.04.10 19:34:48.
