data_PCOD8259302
_publ_section_title
;
Structure prediction by ZEFSAII (Michael W. Deem and Ramdas Pophale) SiO2 
 PCOD8259302
Probable space group: C M C M
;
_chemical_formula_sum "Si O2"
_cell_formula_units_Z 112
_cell_length_a 22.290995
_cell_length_b 10.948033
_cell_length_c 24.109013
_cell_angle_alpha 90.000000
_cell_angle_beta 90.000000
_cell_angle_gamma 90.000000
_cell_volume 5883.624983
_symmetry_space_group_name_H-M "C M C M"
_symmetry_group_IT_number 63
_symmetry_cell_setting 'orthorhombic'
loop_
_space_group_symop_operation_xyz
x,y,z
-x,-y,1/2+z
x,-y,-z
-x,y,1/2-z
-x,-y,-z
x,y,1/2-z
-x,y,z
x,-y,1/2+z
1/2+x,1/2+y,z
1/2-x,1/2-y,1/2+z
1/2+x,1/2-y,-z
1/2-x,1/2+y,1/2-z
1/2-x,1/2-y,-z
1/2+x,1/2+y,1/2-z
1/2-x,1/2+y,z
1/2+x,1/2-y,1/2+z
loop_
_atom_site_type_symbol
_atom_site_label
_atom_site_fract_x
_atom_site_fract_y
_atom_site_fract_z
Si Si1 0.150282 0.350983 0.812474
Si Si2 0.931068 0.050404 0.438544
Si Si3 0.284744 0.593066 0.187376
Si Si4 0.855535 0.737135 0.606765
Si Si5 0.069515 0.576265 0.686675
Si Si6 0.843727 0.890195 0.377000
Si Si7 0.741056 0.125096 0.534315
O O1 0.143951 0.299115 0.750000
O O2 0.213501 0.419721 0.819700
O O3 0.098353 0.445973 0.826034
O O4 0.142504 0.245144 0.857086
O O5 0.890841 0.171951 0.434131
O O6 0.000000 0.078793 0.423561
O O7 0.924550 0.000000 0.500000
O O8 0.906571 0.951063 0.394759
O O9 0.302008 0.631131 0.250000
O O10 0.306860 0.694164 0.144389
O O11 0.313921 0.462522 0.174167
O O12 0.904280 0.677415 0.646339
O O13 0.819389 0.638230 0.570663
O O14 0.082005 0.616582 0.750000
O O15 0.000000 0.563374 0.673904
O O16 0.799661 0.893041 0.428996
O O17 0.750000 0.250000 0.500000
O O18 0.733062 0.000000 0.500000
#
# Coordination Sequence:
#
# PCOD8259302 Si02
#       7
#    16  16  16  16  16  16  16
#     4  10  21  35  57  86 121 157 190 235 296 364
#     4  10  22  41  61  83 112 155 204 248 294 348
#     4  10  20  35  58  92 122 149 188 240 301 367
#     4  11  21  38  64  88 118 155 194 249 300 361
#     4  10  22  39  59  86 121 160 199 238 291 361
#     4  11  21  37  59  85 119 154 195 243 302 357
#     4  12  25  39  61  91 125 160 203 257 314 368
#
# _framework density 19.035882999999998
#
# number of rings (size 3 to 8) (size 9 to 14) (size 15 to 20)
#    0.000    1.429    1.429    5.143    2.000    0.571 
#    0.000    0.000    0.000    9.000    0.000    0.000 
#    0.000    0.000    0.000    0.000    0.000    0.000 
#
# Total GULP energy -694584.615234 kJ/mol
# GULP energy per Si atom -12403.296701 kJ/mol
# Density = 1.899256 g / cm^3
# Si number density = 19.035883 Si / 1000 Ang^3
#
#
#
# Elastic Constant Matrix: (Units=GPa)
#
#
# Indices 1 2 3 4 5 6 
#
# 1 105.6891 40.7424 43.2442 0.0000 0.0000 0.0000
# 2 40.7424 96.7663 46.7726 0.0000 0.0000 0.0000
# 3 43.2442 46.7726 83.6480 0.0000 0.0000 0.0000
# 4 0.0000 0.0000 0.0000 32.8847 0.0000 0.0000
# 5 0.0000 0.0000 0.0000 0.0000 28.8127 0.0000
# 6 0.0000 0.0000 0.0000 0.0000 0.0000 27.5673
#
#
#
# Elastic Compliance Matrix: (Units=1/GPa)
#
#
# Indices 1 2 3 4 5 6 
#
# 1 0.012587 -0.002952 -0.004856 0.000000 0.000000 0.000000
# 2 -0.002952 0.014854 -0.006780 0.000000 0.000000 0.000000
# 3 -0.004856 -0.006780 0.018256 0.000000 0.000000 0.000000
# 4 0.000000 0.000000 0.000000 0.030409 0.000000 0.000000
# 5 0.000000 0.000000 0.000000 0.000000 0.034707 0.000000
# 6 0.000000 0.000000 0.000000 0.000000 0.000000 0.036275
#
#
# Mechanical properties :
#
#
# Convention : Reuss Voigt Hill
#
# Bulk Modulus (GPa) = 60.52906 60.84687 60.68796
# Shear Modulus (GPa) = 27.50703 28.20922 27.85812
#
# Velocity S-wave (km/s) = 3.80545 3.85372 3.82966
# Velocity P-wave (km/s) = 7.15367 7.19967 7.17671
#
# Compressibility (1/GPa) = 0.01652099
#
# Stress axis : x y z
#
# Youngs Moduli (GPa) = 79.44824 67.32134 54.77541
#
# Poissons Ratio (x) = 0.19875 0.26601
# Poissons Ratio (y) = 0.23455 0.37136
# Poissons Ratio (z) = 0.38583 0.45641
#
# Static dielectric constant tensor:
#      x y z
#    x 3.547940 0.000000 0.000000 
#    y 0.000000 3.678090 0.000000 
#    z 0.000000 0.000000 3.576030 
# 
# 
# High freq. dielectric constant tensor:
#      x y z
#    x 1.742040 0.000000 0.000000 
#    y 0.000000 1.741280 0.000000 
#    z 0.000000 0.000000 1.747850 
# 
# From -- ./inp_files/64642.got.cif
#   From: 2010.03.12/outbox.cif.g09.slc.cpg/sg63_33_cif.got.tgz:64642.got - 2010.04.10 19:34:48.
