data_PCOD8259888
_publ_section_title
;
Structure prediction by ZEFSAII (Michael W. Deem and Ramdas Pophale) SiO2 
 PCOD8259888
Probable space group: C M C M
;
_chemical_formula_sum "Si O2"
_cell_formula_units_Z 80
_cell_length_a 10.176418
_cell_length_b 25.343057
_cell_length_c 16.849554
_cell_angle_alpha 90.000000
_cell_angle_beta 90.000000
_cell_angle_gamma 90.000000
_cell_volume 4345.525949
_symmetry_space_group_name_H-M "C M C M"
_symmetry_group_IT_number 63
_symmetry_cell_setting 'orthorhombic'
loop_
_space_group_symop_operation_xyz
x,y,z
-x,-y,1/2+z
x,-y,-z
-x,y,1/2-z
-x,-y,-z
x,y,1/2-z
-x,y,z
x,-y,1/2+z
1/2+x,1/2+y,z
1/2-x,1/2-y,1/2+z
1/2+x,1/2-y,-z
1/2-x,1/2+y,1/2-z
1/2-x,1/2-y,-z
1/2+x,1/2+y,1/2-z
1/2-x,1/2+y,z
1/2+x,1/2-y,1/2+z
loop_
_atom_site_type_symbol
_atom_site_label
_atom_site_fract_x
_atom_site_fract_y
_atom_site_fract_z
Si Si1 0.347807 0.731601 0.931242
Si Si2 0.356315 0.413068 0.657907
Si Si3 0.154080 0.980472 0.416167
Si Si4 0.642927 0.835563 0.843334
Si Si5 0.656293 0.626759 0.840274
O O1 0.500000 0.727978 0.961119
O O2 0.332883 0.774623 0.862109
O O3 0.299161 0.676661 0.893134
O O4 0.250000 0.750000 0.000000
O O5 0.365738 0.400686 0.750000
O O6 0.500000 0.403611 0.617939
O O7 0.313521 0.473631 0.646876
O O8 0.253250 0.373121 0.616644
O O9 0.214859 0.925768 0.383097
O O10 0.000000 0.971143 0.426844
O O11 0.215324 0.000000 0.500000
O O12 0.647323 0.842920 0.750000
O O13 0.500000 0.853331 0.876132
O O14 0.711813 0.630771 0.750000
O O15 0.500000 0.624318 0.835791
#
# Coordination Sequence:
#
# PCOD8259888 Si02
#       5
#    16  16  16  16  16
#     4  10  21  34  52  76 102 132 168 211 255 300
#     4   9  17  29  48  74 101 128 160 201 249 299
#     4   9  17  27  44  73 106 132 160 207 258 298
#     4   9  18  33  51  71  98 132 168 203 242 296
#     4   9  17  31  51  73  99 136 178 213 249 301
#
# _framework density 18.409739999999999
#
# number of rings (size 3 to 8) (size 9 to 14) (size 15 to 20)
#    0.000    2.800    0.000    1.200    2.800    5.600 
#    0.000    0.000    0.000    3.600    0.000    0.000 
#    0.000    0.000    0.000    0.000    0.000    0.000 
#
# Total GULP energy -495665.451117 kJ/mol
# GULP energy per Si atom -12391.636278 kJ/mol
# Density = 1.836784 g / cm^3
# Si number density = 18.409740 Si / 1000 Ang^3
#
#
#
# Elastic Constant Matrix: (Units=GPa)
#
#
# Indices 1 2 3 4 5 6 
#
# 1 64.6175 62.7831 25.2095 0.0000 0.0000 0.0000
# 2 62.7831 167.1440 43.9753 0.0000 0.0000 0.0000
# 3 25.2095 43.9753 70.8789 0.0000 0.0000 0.0000
# 4 0.0000 0.0000 0.0000 33.9579 0.0000 0.0000
# 5 0.0000 0.0000 0.0000 0.0000 15.9711 0.0000
# 6 0.0000 0.0000 0.0000 0.0000 0.0000 21.9902
#
#
#
# Elastic Compliance Matrix: (Units=1/GPa)
#
#
# Indices 1 2 3 4 5 6 
#
# 1 0.025150 -0.008477 -0.003686 0.000000 0.000000 0.000000
# 2 -0.008477 0.010007 -0.003194 0.000000 0.000000 0.000000
# 3 -0.003686 -0.003194 0.017401 0.000000 0.000000 0.000000
# 4 0.000000 0.000000 0.000000 0.029448 0.000000 0.000000
# 5 0.000000 0.000000 0.000000 0.000000 0.062613 0.000000
# 6 0.000000 0.000000 0.000000 0.000000 0.000000 0.045475
#
#
# Mechanical properties :
#
#
# Convention : Reuss Voigt Hill
#
# Bulk Modulus (GPa) = 45.77665 62.95289 54.36477
# Shear Modulus (GPa) = 21.92117 25.76199 23.84158
#
# Velocity S-wave (km/s) = 3.45445 3.74487 3.60259
# Velocity P-wave (km/s) = 6.38987 7.27794 6.84831
#
# Compressibility (1/GPa) = 0.02184520
#
# Stress axis : x y z
#
# Youngs Moduli (GPa) = 39.76106 99.92594 57.46820
#
# Poissons Ratio (x) = 0.84710 0.21181
# Poissons Ratio (y) = 0.33707 0.18354
# Poissons Ratio (z) = 0.14654 0.31914
#
# Static dielectric constant tensor:
#      x y z
#    x 3.387510 0.000000 0.000000 
#    y 0.000000 3.685140 0.000000 
#    z 0.000000 0.000000 3.287270 
# 
# 
# High freq. dielectric constant tensor:
#      x y z
#    x 1.662360 0.000000 0.000000 
#    y 0.000000 1.728310 0.000000 
#    z 0.000000 0.000000 1.705560 
# 
# From -- ./inp_files/29700.got.cif
#   From: 2010.03.12/outbox.cif.g09.slc.cpg/sg63_15_cif.got.tgz:29700.got - 2010.04.10 19:34:48.
