data_PCOD8259459
_publ_section_title
;
Structure prediction by ZEFSAII (Michael W. Deem and Ramdas Pophale) SiO2 
 PCOD8259459
Probable space group: C M C M
;
_chemical_formula_sum "Si O2"
_cell_formula_units_Z 96
_cell_length_a 8.569779
_cell_length_b 24.619307
_cell_length_c 21.968100
_cell_angle_alpha 90.000000
_cell_angle_beta 90.000000
_cell_angle_gamma 90.000000
_cell_volume 4634.874116
_symmetry_space_group_name_H-M "C M C M"
_symmetry_group_IT_number 63
_symmetry_cell_setting 'orthorhombic'
loop_
_space_group_symop_operation_xyz
x,y,z
-x,-y,1/2+z
x,-y,-z
-x,y,1/2-z
-x,-y,-z
x,y,1/2-z
-x,y,z
x,-y,1/2+z
1/2+x,1/2+y,z
1/2-x,1/2-y,1/2+z
1/2+x,1/2-y,-z
1/2-x,1/2+y,1/2-z
1/2-x,1/2-y,-z
1/2+x,1/2+y,1/2-z
1/2-x,1/2+y,z
1/2+x,1/2-y,1/2+z
loop_
_atom_site_type_symbol
_atom_site_label
_atom_site_fract_x
_atom_site_fract_y
_atom_site_fract_z
Si Si1 0.816252 0.687371 0.182589
Si Si2 0.679371 0.255209 0.067806
Si Si3 0.680992 0.424799 0.849945
Si Si4 0.680608 0.379086 0.420291
Si Si5 0.179417 0.558914 0.475016
Si Si6 0.184471 0.957470 0.183836
O O1 0.759847 0.709318 0.250000
O O2 0.744501 0.718150 0.122440
O O3 0.773941 0.624070 0.180721
O O4 0.000000 0.694907 0.178951
O O5 0.500000 0.239169 0.059915
O O6 0.700850 0.315835 0.093030
O O7 0.750000 0.250000 0.000000
O O8 0.500000 0.417833 0.833420
O O9 0.704107 0.424555 0.921927
O O10 0.751632 0.481987 0.826421
O O11 0.500000 0.393527 0.434366
O O12 0.792316 0.394858 0.475454
O O13 0.747507 0.413367 0.363546
O O14 0.227366 0.500000 0.500000
O O15 0.000000 0.560085 0.453386
O O16 0.237051 0.936786 0.250000
O O17 0.000000 0.961453 0.177941
#
# Coordination Sequence:
#
# PCOD8259459 Si02
#       6
#    16  16  16  16  16  16
#     4  10  22  40  60  85 120 160 200 244 297 356
#     4  10  22  39  60  85 113 150 196 244 294 347
#     4  11  21  35  58  85 116 150 191 238 285 342
#     4  10  20  36  58  83 110 144 188 234 285 339
#     4  11  22  35  54  82 117 151 186 228 286 355
#     4   9  18  32  52  80 111 140 175 225 279 331
#
# _framework density 20.712537000000001
#
# number of rings (size 3 to 8) (size 9 to 14) (size 15 to 20)
#    0.000    1.833    1.667    2.500    0.000    6.333 
#    0.000    3.333    0.000    1.500    0.000    2.333 
#    0.000    0.000    0.000    0.000    0.000    0.000 
#
# Total GULP energy -594936.868926 kJ/mol
# GULP energy per Si atom -12394.518103 kJ/mol
# Density = 2.066539 g / cm^3
# Si number density = 20.712537 Si / 1000 Ang^3
#
#
#
# Elastic Constant Matrix: (Units=GPa)
#
#
# Indices 1 2 3 4 5 6 
#
# 1 20.4392 11.8533 13.4414 0.0000 0.0000 0.0000
# 2 11.8533 99.1733 47.9468 0.0000 0.0000 0.0000
# 3 13.4414 47.9468 157.4676 0.0000 0.0000 0.0000
# 4 0.0000 0.0000 0.0000 17.3868 0.0000 0.0000
# 5 0.0000 0.0000 0.0000 0.0000 3.4918 0.0000
# 6 0.0000 0.0000 0.0000 0.0000 0.0000 25.2392
#
#
#
# Elastic Compliance Matrix: (Units=1/GPa)
#
#
# Indices 1 2 3 4 5 6 
#
# 1 0.053822 -0.004939 -0.003090 0.000000 0.000000 0.000000
# 2 -0.004939 0.012277 -0.003317 0.000000 0.000000 0.000000
# 3 -0.003090 -0.003317 0.007624 0.000000 0.000000 0.000000
# 4 0.000000 0.000000 0.000000 0.057515 0.000000 0.000000
# 5 0.000000 0.000000 0.000000 0.000000 0.286389 0.000000
# 6 0.000000 0.000000 0.000000 0.000000 0.000000 0.039621
#
#
# Mechanical properties :
#
#
# Convention : Reuss Voigt Hill
#
# Bulk Modulus (GPa) = 19.59568 47.06260 33.32914
# Shear Modulus (GPa) = 10.06137 22.81279 16.43708
#
# Velocity S-wave (km/s) = 2.20639 3.32234 2.82011
# Velocity P-wave (km/s) = 3.99652 6.12277 5.17013
#
# Compressibility (1/GPa) = 0.05103166
#
# Stress axis : x y z
#
# Youngs Moduli (GPa) = 18.57973 81.45230 131.16146
#
# Poissons Ratio (x) = 0.40227 0.40535
# Poissons Ratio (y) = 0.09176 0.43502
# Poissons Ratio (z) = 0.05742 0.27015
#
# Static dielectric constant tensor:
#      x y z
#    x 3.448760 0.000000 0.000000 
#    y 0.000000 3.860760 0.000000 
#    z 0.000000 0.000000 4.096370 
# 
# 
# High freq. dielectric constant tensor:
#      x y z
#    x 1.774910 0.000000 0.000000 
#    y 0.000000 1.812230 0.000000 
#    z 0.000000 0.000000 1.827060 
# 
# From -- ./inp_files/51340.got.cif
#   From: 2010.03.12/outbox.cif.g09.slc.cpg/sg63_26_cif.got.tgz:51340.got - 2010.04.10 19:34:48.
