data_PCOD8259134
_publ_section_title
;
Structure prediction by ZEFSAII (Michael W. Deem and Ramdas Pophale) SiO2 
 PCOD8259134
Probable space group: C M C M
;
_chemical_formula_sum "Si O2"
_cell_formula_units_Z 112
_cell_length_a 13.767646
_cell_length_b 24.278536
_cell_length_c 15.791107
_cell_angle_alpha 90.000000
_cell_angle_beta 90.000000
_cell_angle_gamma 90.000000
_cell_volume 5278.308408
_symmetry_space_group_name_H-M "C M C M"
_symmetry_group_IT_number 63
_symmetry_cell_setting 'orthorhombic'
loop_
_space_group_symop_operation_xyz
x,y,z
-x,-y,1/2+z
x,-y,-z
-x,y,1/2-z
-x,-y,-z
x,y,1/2-z
-x,y,z
x,-y,1/2+z
1/2+x,1/2+y,z
1/2-x,1/2-y,1/2+z
1/2+x,1/2-y,-z
1/2-x,1/2+y,1/2-z
1/2-x,1/2-y,-z
1/2+x,1/2+y,1/2-z
1/2-x,1/2+y,z
1/2+x,1/2-y,1/2+z
loop_
_atom_site_type_symbol
_atom_site_label
_atom_site_fract_x
_atom_site_fract_y
_atom_site_fract_z
Si Si1 0.802726 0.330540 0.596862
Si Si2 0.390655 0.721342 0.652492
Si Si3 0.604559 0.564192 0.500000
Si Si4 0.197274 0.669460 0.903139
Si Si5 0.239886 0.937968 0.654365
Si Si6 0.390655 0.721341 0.347508
Si Si7 0.760114 0.937968 0.345635
O O1 0.869815 0.286510 0.643981
O O2 0.835036 0.334643 0.500000
O O3 0.820873 0.390313 0.641759
O O4 0.688625 0.313082 0.600182
O O5 0.380141 0.704373 0.750000
O O6 0.500000 0.709025 0.619629
O O7 0.311375 0.686919 0.600181
O O8 0.588268 0.500000 0.500000
O O9 0.500000 0.594219 0.500000
O O10 0.659094 0.580225 0.413680
O O11 0.659094 0.580225 0.586319
O O12 0.130184 0.713490 0.856020
O O13 0.179127 0.609688 0.858241
O O14 0.197581 0.935833 0.750000
O O15 0.280121 0.000000 0.635634
O O16 0.380141 0.704373 0.250000
O O17 0.500000 0.709024 0.380371
O O18 0.802419 0.935833 0.250000
#
# Coordination Sequence:
#
# PCOD8259134 Si02
#       7
#    16  16  16  16  16  16  16
#     4  11  21  35  57  82 113 147 185 233 278 334
#     4  10  21  37  57  81 110 145 187 232 279 335
#     4   9  18  32  48  71 103 139 183 227 269 322
#     4  11  21  35  57  82 113 147 185 233 278 334
#     4  10  20  35  55  78 108 147 187 227 275 331
#     4  10  21  37  57  81 110 145 187 232 279 335
#     4  10  20  35  55  78 108 147 187 227 275 331
#
# _framework density 21.218919
#
# number of rings (size 3 to 8) (size 9 to 14) (size 15 to 20)
#    0.000    1.857    1.429    5.143    0.000    4.000 
#    0.000    2.857    0.000    0.857    0.000    6.000 
#    0.000    0.000    0.000    0.000    0.000    0.000 
#
# Total GULP energy -693915.143792 kJ/mol
# GULP energy per Si atom -12391.341853 kJ/mol
# Density = 2.117062 g / cm^3
# Si number density = 21.218919 Si / 1000 Ang^3
#
#
#
# Elastic Constant Matrix: (Units=GPa)
#
#
# Indices 1 2 3 4 5 6 
#
# 1 38.3436 -7.6952 -3.1607 0.0000 0.0000 0.0000
# 2 -7.6952 114.4753 1.9489 0.0000 0.0000 0.0000
# 3 -3.1607 1.9489 105.7848 0.0000 0.0000 0.0000
# 4 0.0000 0.0000 0.0000 32.0511 0.0000 0.0000
# 5 0.0000 0.0000 0.0000 0.0000 19.3873 0.0000
# 6 0.0000 0.0000 0.0000 0.0000 0.0000 13.4123
#
#
#
# Elastic Compliance Matrix: (Units=1/GPa)
#
#
# Indices 1 2 3 4 5 6 
#
# 1 0.026497 0.001768 0.000759 0.000000 0.000000 0.000000
# 2 0.001768 0.008856 -0.000110 0.000000 0.000000 0.000000
# 3 0.000759 -0.000110 0.009478 0.000000 0.000000 0.000000
# 4 0.000000 0.000000 0.000000 0.031200 0.000000 0.000000
# 5 0.000000 0.000000 0.000000 0.000000 0.051580 0.000000
# 6 0.000000 0.000000 0.000000 0.000000 0.000000 0.074559
#
#
# Mechanical properties :
#
#
# Convention : Reuss Voigt Hill
#
# Bulk Modulus (GPa) = 20.13464 26.75442 23.44453
# Shear Modulus (GPa) = 23.37633 30.80418 27.09026
#
# Velocity S-wave (km/s) = 3.32275 3.81429 3.57697
# Velocity P-wave (km/s) = 4.92245 5.65991 5.30401
#
# Compressibility (1/GPa) = 0.04966565
#
# Stress axis : x y z
#
# Youngs Moduli (GPa) = 37.73956 112.91456 105.50900
#
# Poissons Ratio (x) = -0.19966 -0.08009
# Poissons Ratio (y) = -0.06673 0.01164
# Poissons Ratio (z) = -0.02865 0.01246
#
# Static dielectric constant tensor:
#      x y z
#    x 3.598300 0.000000 0.000000 
#    y 0.000000 4.185560 0.000000 
#    z 0.000000 0.000000 3.834770 
# 
# 
# High freq. dielectric constant tensor:
#      x y z
#    x 1.768640 0.000000 0.000000 
#    y 0.000000 1.854200 0.000000 
#    z 0.000000 0.000000 1.844630 
# 
# From -- ./inp_files/32575.got.cif
#   From: 2010.03.12/outbox.cif.g09.slc.cpg/sg63_17_cif.got.tgz:32575.got - 2010.04.10 19:34:48.
