data_PCOD8259594
_publ_section_title
;
Structure prediction by ZEFSAII (Michael W. Deem and Ramdas Pophale) SiO2 
 PCOD8259594
Probable space group: C M C M
;
_chemical_formula_sum "Si O2"
_cell_formula_units_Z 88
_cell_length_a 22.056069
_cell_length_b 11.483421
_cell_length_c 18.834037
_cell_angle_alpha 90.000000
_cell_angle_beta 90.000000
_cell_angle_gamma 90.000000
_cell_volume 4770.268429
_symmetry_space_group_name_H-M "C M C M"
_symmetry_group_IT_number 63
_symmetry_cell_setting 'orthorhombic'
loop_
_space_group_symop_operation_xyz
x,y,z
-x,-y,1/2+z
x,-y,-z
-x,y,1/2-z
-x,-y,-z
x,y,1/2-z
-x,y,z
x,-y,1/2+z
1/2+x,1/2+y,z
1/2-x,1/2-y,1/2+z
1/2+x,1/2-y,-z
1/2-x,1/2+y,1/2-z
1/2-x,1/2-y,-z
1/2+x,1/2+y,1/2-z
1/2-x,1/2+y,z
1/2+x,1/2-y,1/2+z
loop_
_atom_site_type_symbol
_atom_site_label
_atom_site_fract_x
_atom_site_fract_y
_atom_site_fract_z
Si Si1 0.174716 0.924557 0.096538
Si Si2 0.500000 0.751692 0.331818
Si Si3 0.718410 0.409683 0.250000
Si Si4 0.717377 0.000000 0.000000
Si Si5 0.000000 0.367732 0.019314
Si Si6 0.869836 0.707482 0.487775
Si Si7 0.375863 0.656183 0.377058
Si Si8 0.285002 0.336176 0.750000
O O1 0.176962 0.905369 0.180639
O O2 0.145932 0.809398 0.065502
O O3 0.241069 0.950240 0.063391
O O4 0.129620 0.033217 0.081039
O O5 0.500000 0.802349 0.250000
O O6 0.500000 0.850010 0.394186
O O7 0.441781 0.669863 0.342401
O O8 0.753133 0.539052 0.250000
O O9 0.754730 0.289614 0.250000
O O10 0.673216 0.900898 0.968472
O O11 0.941398 0.314947 0.980614
O O12 0.000000 0.500000 0.000000
O O13 0.858358 0.740953 0.569353
O O14 0.324685 0.660652 0.319269
#
# Coordination Sequence:
#
# PCOD8259594 Si02
#       8
#    16   8   8   8   8  16  16   8
#     4  11  23  38  58  90 122 159 201 244 310 367
#     4  10  20  37  65  89 115 156 206 257 311 357
#     4  10  24  36  56  82 126 160 198 251 305 378
#     4  12  22  35  64  89 126 156 200 250 296 376
#     4  10  22  43  63  89 123 157 210 254 302 362
#     4  11  22  38  62  87 120 161 201 247 304 358
#     4  10  20  37  58  87 118 154 200 254 295 365
#     4  10  20  37  54  82 124 151 200 247 309 362
#
# _framework density 18.447599
#
# number of rings (size 3 to 8) (size 9 to 14) (size 15 to 20)
#    0.000    1.455    3.636    1.636    5.091    0.727 
#    0.000    2.727    2.000    0.000    0.000    0.000 
#    0.000    0.000    0.000    0.000    0.000    0.000 
#
# Total GULP energy -545173.289851 kJ/mol
# GULP energy per Si atom -12390.302042 kJ/mol
# Density = 1.840561 g / cm^3
# Si number density = 18.447599 Si / 1000 Ang^3
#
#
#
# Elastic Constant Matrix: (Units=GPa)
#
#
# Indices 1 2 3 4 5 6 
#
# 1 102.5963 70.9289 48.3478 0.0000 0.0000 0.0000
# 2 70.9289 162.4354 35.3298 0.0000 0.0000 0.0000
# 3 48.3478 35.3298 79.9506 0.0000 0.0000 0.0000
# 4 0.0000 0.0000 0.0000 21.5996 0.0000 0.0000
# 5 0.0000 0.0000 0.0000 0.0000 10.9971 0.0000
# 6 0.0000 0.0000 0.0000 0.0000 0.0000 25.5561
#
#
#
# Elastic Compliance Matrix: (Units=1/GPa)
#
#
# Indices 1 2 3 4 5 6 
#
# 1 0.017659 -0.005961 -0.008045 0.000000 0.000000 0.000000
# 2 -0.005961 0.008823 -0.000294 0.000000 0.000000 0.000000
# 3 -0.008045 -0.000294 0.017502 0.000000 0.000000 0.000000
# 4 0.000000 0.000000 0.000000 0.046297 0.000000 0.000000
# 5 0.000000 0.000000 0.000000 0.000000 0.090933 0.000000
# 6 0.000000 0.000000 0.000000 0.000000 0.000000 0.039130
#
#
# Mechanical properties :
#
#
# Convention : Reuss Voigt Hill
#
# Bulk Modulus (GPa) = 64.99852 72.68836 68.84344
# Shear Modulus (GPa) = 19.67939 24.32228 22.00084
#
# Velocity S-wave (km/s) = 3.26969 3.63499 3.45717
# Velocity P-wave (km/s) = 7.04025 7.55683 7.30311
#
# Compressibility (1/GPa) = 0.01538497
#
# Stress axis : x y z
#
# Youngs Moduli (GPa) = 56.62761 113.33598 57.13499
#
# Poissons Ratio (x) = 0.67564 0.45963
# Poissons Ratio (y) = 0.33758 0.01680
# Poissons Ratio (z) = 0.45555 0.03332
#
# Static dielectric constant tensor:
#      x y z
#    x 2.546540 0.000000 0.000000 
#    y 0.000000 4.016470 0.000000 
#    z 0.000000 0.000000 -2.740880 
# 
# 
# High freq. dielectric constant tensor:
#      x y z
#    x 1.701290 0.000000 0.000000 
#    y 0.000000 1.726910 0.000000 
#    z 0.000000 0.000000 1.723530 
# 
# From -- ./inp_files/57438.got.cif
#   From: 2010.03.12/outbox.cif.g09.slc.cpg/sg63_29_cif.got.tgz:57438.got - 2010.04.10 19:34:48.
