data_PCOD8259015
_publ_section_title
;
Structure prediction by ZEFSAII (Michael W. Deem and Ramdas Pophale) SiO2 
 PCOD8259015
Probable space group: C M C M
;
_chemical_formula_sum "Si O2"
_cell_formula_units_Z 112
_cell_length_a 22.522551
_cell_length_b 12.345997
_cell_length_c 18.876979
_cell_angle_alpha 90.000000
_cell_angle_beta 90.000000
_cell_angle_gamma 90.000000
_cell_volume 5248.995963
_symmetry_space_group_name_H-M "C M C M"
_symmetry_group_IT_number 63
_symmetry_cell_setting 'orthorhombic'
loop_
_space_group_symop_operation_xyz
x,y,z
-x,-y,1/2+z
x,-y,-z
-x,y,1/2-z
-x,-y,-z
x,y,1/2-z
-x,y,z
x,-y,1/2+z
1/2+x,1/2+y,z
1/2-x,1/2-y,1/2+z
1/2+x,1/2-y,-z
1/2-x,1/2+y,1/2-z
1/2-x,1/2-y,-z
1/2+x,1/2+y,1/2-z
1/2-x,1/2+y,z
1/2+x,1/2-y,1/2+z
loop_
_atom_site_type_symbol
_atom_site_label
_atom_site_fract_x
_atom_site_fract_y
_atom_site_fract_z
Si Si1 0.325992 0.128820 0.988549
Si Si2 0.434049 0.231176 0.665045
Si Si3 0.361644 0.353362 0.167988
Si Si4 0.429577 0.995766 0.671930
Si Si5 0.070012 0.302577 0.928356
Si Si6 0.748751 0.240977 0.390295
Si Si7 0.344415 0.405510 0.832695
O O1 0.392552 0.181259 0.998969
O O2 0.284992 0.186164 0.045834
O O3 0.296987 0.167268 0.914215
O O4 0.325577 0.000000 0.000000
O O5 0.434905 0.231628 0.750000
O O6 0.500000 0.249336 0.634726
O O7 0.408223 0.112765 0.642090
O O8 0.393856 0.326411 0.633090
O O9 0.382899 0.350427 0.250000
O O10 0.412323 0.302313 0.117571
O O11 0.298250 0.294842 0.162796
O O12 0.352997 0.474279 0.136933
O O13 0.402607 0.971431 0.750000
O O14 0.500000 0.997966 0.678089
O O15 0.408332 0.904971 0.618167
O O16 0.000000 0.301028 0.945486
O O17 0.780220 0.142771 0.349307
O O18 0.354037 0.411901 0.750000
#
# Coordination Sequence:
#
# PCOD8259015 Si02
#       7
#    16  16  16  16  16  16  16
#     4  10  22  38  58  80 107 151 201 241 286 336
#     4   8  15  28  46  73 108 143 178 215 266 335
#     4  10  21  37  59  88 118 147 185 232 288 354
#     4   8  14  27  48  75 109 144 176 218 276 340
#     4  10  21  36  56  85 118 150 187 234 287 346
#     4  10  21  39  58  78 111 150 193 245 289 339
#     4  10  20  34  56  84 111 144 185 233 290 348
#
# _framework density 21.337413999999999
#
# number of rings (size 3 to 8) (size 9 to 14) (size 15 to 20)
#    0.000    2.571    0.000    2.571    2.000    1.714 
#    0.000    2.143    0.000    0.857    0.000    0.000 
#    0.000    0.000    0.000    0.000    0.000    0.000 
#
# Total GULP energy -694134.806329 kJ/mol
# GULP energy per Si atom -12395.264399 kJ/mol
# Density = 2.128885 g / cm^3
# Si number density = 21.337414 Si / 1000 Ang^3
#
#
#
# Elastic Constant Matrix: (Units=GPa)
#
#
# Indices 1 2 3 4 5 6 
#
# 1 106.1087 40.8080 3.6403 0.0000 0.0000 0.0000
# 2 40.8080 130.9692 6.7355 0.0000 0.0000 0.0000
# 3 3.6403 6.7355 21.1085 0.0000 0.0000 0.0000
# 4 0.0000 0.0000 0.0000 19.6594 0.0000 0.0000
# 5 0.0000 0.0000 0.0000 0.0000 13.5684 0.0000
# 6 0.0000 0.0000 0.0000 0.0000 0.0000 23.8958
#
#
#
# Elastic Compliance Matrix: (Units=1/GPa)
#
#
# Indices 1 2 3 4 5 6 
#
# 1 0.010721 -0.003299 -0.000796 0.000000 0.000000 0.000000
# 2 -0.003299 0.008778 -0.002232 0.000000 0.000000 0.000000
# 3 -0.000796 -0.002232 0.048224 0.000000 0.000000 0.000000
# 4 0.000000 0.000000 0.000000 0.050866 0.000000 0.000000
# 5 0.000000 0.000000 0.000000 0.000000 0.073701 0.000000
# 6 0.000000 0.000000 0.000000 0.000000 0.000000 0.041848
#
#
# Mechanical properties :
#
#
# Convention : Reuss Voigt Hill
#
# Bulk Modulus (GPa) = 18.15947 40.06155 29.11051
# Shear Modulus (GPa) = 18.85733 25.22488 22.04111
#
# Velocity S-wave (km/s) = 2.97605 3.44203 3.21749
# Velocity P-wave (km/s) = 4.50980 5.88326 5.24171
#
# Compressibility (1/GPa) = 0.05506767
#
# Stress axis : x y z
#
# Youngs Moduli (GPa) = 93.27908 113.91830 20.73662
#
# Poissons Ratio (x) = 0.37586 0.01651
# Poissons Ratio (y) = 0.30777 0.04628
# Poissons Ratio (z) = 0.07425 0.25427
#
# Static dielectric constant tensor:
#      x y z
#    x 3.865660 0.000000 0.000000 
#    y 0.000000 4.299400 0.000000 
#    z 0.000000 0.000000 3.750430 
# 
# 
# High freq. dielectric constant tensor:
#      x y z
#    x 1.833530 0.000000 0.000000 
#    y 0.000000 1.843670 0.000000 
#    z 0.000000 0.000000 1.821250 
# 
# From -- ./inp_files/57627.got.cif
#   From: 2010.03.12/outbox.cif.g09.slc.cpg/sg63_29_cif.got.tgz:57627.got - 2010.04.10 19:34:48.
