data_PCOD8259291
_publ_section_title
;
Structure prediction by ZEFSAII (Michael W. Deem and Ramdas Pophale) SiO2 
 PCOD8259291
Probable space group: C M C M
;
_chemical_formula_sum "Si O2"
_cell_formula_units_Z 96
_cell_length_a 8.641176
_cell_length_b 29.043135
_cell_length_c 20.462126
_cell_angle_alpha 90.000000
_cell_angle_beta 90.000000
_cell_angle_gamma 90.000000
_cell_volume 5135.315125
_symmetry_space_group_name_H-M "C M C M"
_symmetry_group_IT_number 63
_symmetry_cell_setting 'orthorhombic'
loop_
_space_group_symop_operation_xyz
x,y,z
-x,-y,1/2+z
x,-y,-z
-x,y,1/2-z
-x,-y,-z
x,y,1/2-z
-x,y,z
x,-y,1/2+z
1/2+x,1/2+y,z
1/2-x,1/2-y,1/2+z
1/2+x,1/2-y,-z
1/2-x,1/2+y,1/2-z
1/2-x,1/2-y,-z
1/2+x,1/2+y,1/2-z
1/2-x,1/2+y,z
1/2+x,1/2-y,1/2+z
loop_
_atom_site_type_symbol
_atom_site_label
_atom_site_fract_x
_atom_site_fract_y
_atom_site_fract_z
Si Si1 0.318691 0.030640 0.438714
Si Si2 0.184081 0.780597 0.322169
Si Si3 0.183283 0.876021 0.123643
Si Si4 0.682985 0.220206 0.441326
Si Si5 0.319427 0.473245 0.175116
Si Si6 0.317434 0.624633 0.023918
O O1 0.500000 0.040049 0.444071
O O2 0.229532 0.078870 0.437634
O O3 0.260386 0.000000 0.500000
O O4 0.280502 0.006131 0.370680
O O5 0.246165 0.767674 0.250000
O O6 0.252280 0.830564 0.342181
O O7 0.241461 0.742355 0.373301
O O8 0.000000 0.783307 0.322194
O O9 0.236413 0.920827 0.163753
O O10 0.000000 0.872798 0.122035
O O11 0.246883 0.879087 0.049855
O O12 0.500000 0.221783 0.446915
O O13 0.750000 0.250000 0.500000
O O14 0.740873 0.168135 0.441116
O O15 0.287461 0.486841 0.250000
O O16 0.500000 0.478435 0.157173
O O17 0.500000 0.631173 0.025618
#
# Coordination Sequence:
#
# PCOD8259291 Si02
#       6
#    16  16  16  16  16  16
#     4  11  23  38  57  83 115 152 190 233 284 339
#     4   9  17  31  53  82 113 145 184 228 275 330
#     4   9  16  29  53  85 114 139 177 229 283 336
#     4  11  21  35  56  84 115 149 189 233 282 338
#     4  10  20  35  58  87 116 148 187 234 287 342
#     4  11  21  36  59  85 111 147 192 237 285 334
#
# _framework density 18.694082000000002
#
# number of rings (size 3 to 8) (size 9 to 14) (size 15 to 20)
#    0.000    1.833    3.333    2.000    0.000    3.000 
#    0.000    0.833    0.000    5.000    0.000    0.000 
#    0.000    0.000    0.000    0.000    0.000    0.000 
#
# Total GULP energy -595286.402232 kJ/mol
# GULP energy per Si atom -12401.800046 kJ/mol
# Density = 1.865153 g / cm^3
# Si number density = 18.694082 Si / 1000 Ang^3
#
#
#
# Elastic Constant Matrix: (Units=GPa)
#
#
# Indices 1 2 3 4 5 6 
#
# 1 41.2765 23.7312 25.8507 0.0000 0.0000 0.0000
# 2 23.7312 133.5035 63.0486 0.0000 0.0000 0.0000
# 3 25.8507 63.0486 138.2129 0.0000 0.0000 0.0000
# 4 0.0000 0.0000 0.0000 33.5385 0.0000 0.0000
# 5 0.0000 0.0000 0.0000 0.0000 21.6276 0.0000
# 6 0.0000 0.0000 0.0000 0.0000 0.0000 26.9152
#
#
#
# Elastic Compliance Matrix: (Units=1/GPa)
#
#
# Indices 1 2 3 4 5 6 
#
# 1 0.028506 -0.003249 -0.003849 0.000000 0.000000 0.000000
# 2 -0.003249 0.009918 -0.003916 0.000000 0.000000 0.000000
# 3 -0.003849 -0.003916 0.009742 0.000000 0.000000 0.000000
# 4 0.000000 0.000000 0.000000 0.029817 0.000000 0.000000
# 5 0.000000 0.000000 0.000000 0.000000 0.046237 0.000000
# 6 0.000000 0.000000 0.000000 0.000000 0.000000 0.037154
#
#
# Mechanical properties :
#
#
# Convention : Reuss Voigt Hill
#
# Bulk Modulus (GPa) = 38.26271 59.80598 49.03434
# Shear Modulus (GPa) = 26.02620 29.77374 27.89997
#
# Velocity S-wave (km/s) = 3.73529 3.99517 3.86741
# Velocity P-wave (km/s) = 6.25423 7.30365 6.79922
#
# Compressibility (1/GPa) = 0.02613511
#
# Stress axis : x y z
#
# Youngs Moduli (GPa) = 35.08066 100.83123 102.65117
#
# Poissons Ratio (x) = 0.32762 0.39515
# Poissons Ratio (y) = 0.11398 0.40202
# Poissons Ratio (z) = 0.13504 0.39489
#
# Static dielectric constant tensor:
#      x y z
#    x 3.131470 0.000000 0.000000 
#    y 0.000000 3.640100 0.000000 
#    z 0.000000 0.000000 3.622670 
# 
# 
# High freq. dielectric constant tensor:
#      x y z
#    x 1.697730 0.000000 0.000000 
#    y 0.000000 1.731560 0.000000 
#    z 0.000000 0.000000 1.726050 
# 
# From -- ./inp_files/51323.got.cif
#   From: 2010.03.12/outbox.cif.g09.slc.cpg/sg63_26_cif.got.tgz:51323.got - 2010.04.10 19:34:48.
