data_PCOD8259111
_publ_section_title
;
Structure prediction by ZEFSAII (Michael W. Deem and Ramdas Pophale) SiO2 
 PCOD8259111
Probable space group: C M C M
;
_chemical_formula_sum "Si O2"
_cell_formula_units_Z 96
_cell_length_a 29.799853
_cell_length_b 9.733698
_cell_length_c 18.543443
_cell_angle_alpha 90.000000
_cell_angle_beta 90.000000
_cell_angle_gamma 90.000000
_cell_volume 5378.762434
_symmetry_space_group_name_H-M "C M C M"
_symmetry_group_IT_number 63
_symmetry_cell_setting 'orthorhombic'
loop_
_space_group_symop_operation_xyz
x,y,z
-x,-y,1/2+z
x,-y,-z
-x,y,1/2-z
-x,-y,-z
x,y,1/2-z
-x,y,z
x,-y,1/2+z
1/2+x,1/2+y,z
1/2-x,1/2-y,1/2+z
1/2+x,1/2-y,-z
1/2-x,1/2+y,1/2-z
1/2-x,1/2-y,-z
1/2+x,1/2+y,1/2-z
1/2-x,1/2+y,z
1/2+x,1/2-y,1/2+z
loop_
_atom_site_type_symbol
_atom_site_label
_atom_site_fract_x
_atom_site_fract_y
_atom_site_fract_z
Si Si1 0.551354 0.907561 0.104133
Si Si2 0.206679 0.098346 0.666436
Si Si3 0.284142 0.713869 0.167838
Si Si4 0.448510 0.203340 0.445968
Si Si5 0.883027 0.206563 0.167029
Si Si6 0.618937 0.447230 0.079242
O O1 0.500000 0.881309 0.126622
O O2 0.583778 0.835659 0.161740
O O3 0.561377 0.070186 0.103579
O O4 0.561828 0.838843 0.027573
O O5 0.194974 0.133208 0.750000
O O6 0.244141 0.199114 0.631365
O O7 0.162346 0.114993 0.618509
O O8 0.226955 0.946223 0.659835
O O9 0.284845 0.763526 0.250000
O O10 0.333641 0.744821 0.134947
O O11 0.500000 0.249072 0.437571
O O12 0.418312 0.329533 0.421941
O O13 0.877643 0.161883 0.250000
O O14 0.901783 0.074719 0.124047
O O15 0.632013 0.500000 0.000000
#
# Coordination Sequence:
#
# PCOD8259111 Si02
#       6
#    16  16  16  16  16  16
#     4   9  18  35  56  77 103 137 178 221 261 310
#     4   9  18  34  53  73 101 136 176 217 258 310
#     4   8  16  31  51  71  97 136 175 208 252 314
#     4   9  19  35  55  77 103 138 179 216 257 319
#     4  10  20  35  54  79 110 140 175 220 266 317
#     4  11  20  33  54  81 108 139 178 218 268 315
#
# _framework density 17.847971000000001
#
# number of rings (size 3 to 8) (size 9 to 14) (size 15 to 20)
#    0.000    2.667    1.667    2.500    0.000    2.667 
#    0.000    6.667    3.667    3.500    0.000    0.000 
#    0.000    0.000    0.000    0.000    0.000    0.000 
#
# Total GULP energy -595037.119267 kJ/mol
# GULP energy per Si atom -12396.606651 kJ/mol
# Density = 1.780735 g / cm^3
# Si number density = 17.847971 Si / 1000 Ang^3
#
#
#
# Elastic Constant Matrix: (Units=GPa)
#
#
# Indices 1 2 3 4 5 6 
#
# 1 115.9909 82.0695 38.8577 0.0000 0.0000 0.0000
# 2 82.0695 100.0275 34.6599 0.0000 0.0000 0.0000
# 3 38.8577 34.6599 62.2748 0.0000 0.0000 0.0000
# 4 0.0000 0.0000 0.0000 25.8863 0.0000 0.0000
# 5 0.0000 0.0000 0.0000 0.0000 25.2509 0.0000
# 6 0.0000 0.0000 0.0000 0.0000 0.0000 44.4600
#
#
#
# Elastic Compliance Matrix: (Units=1/GPa)
#
#
# Indices 1 2 3 4 5 6 
#
# 1 0.021508 -0.016101 -0.004459 0.000000 0.000000 0.000000
# 2 -0.016101 0.024440 -0.003556 0.000000 0.000000 0.000000
# 3 -0.004459 -0.003556 0.020819 0.000000 0.000000 0.000000
# 4 0.000000 0.000000 0.000000 0.038630 0.000000 0.000000
# 5 0.000000 0.000000 0.000000 0.000000 0.039603 0.000000
# 6 0.000000 0.000000 0.000000 0.000000 0.000000 0.022492
#
#
# Mechanical properties :
#
#
# Convention : Reuss Voigt Hill
#
# Bulk Modulus (GPa) = 53.95164 65.49639 59.72401
# Shear Modulus (GPa) = 22.53253 27.29984 24.91619
#
# Velocity S-wave (km/s) = 3.55698 3.91522 3.74039
# Velocity P-wave (km/s) = 6.86757 7.56407 7.22422
#
# Compressibility (1/GPa) = 0.01853512
#
# Stress axis : x y z
#
# Youngs Moduli (GPa) = 46.49511 40.91656 48.03330
#
# Poissons Ratio (x) = 0.65881 0.21417
# Poissons Ratio (y) = 0.74864 0.17079
# Poissons Ratio (z) = 0.20731 0.14548
#
# Static dielectric constant tensor:
#      x y z
#    x 3.351130 0.000000 0.000000 
#    y 0.000000 3.363500 0.000000 
#    z 0.000000 0.000000 3.095010 
# 
# 
# High freq. dielectric constant tensor:
#      x y z
#    x 1.691980 0.000000 0.000000 
#    y 0.000000 1.692240 0.000000 
#    z 0.000000 0.000000 1.665180 
# 
# From -- ./inp_files/48957.got.cif
#   From: 2010.03.12/outbox.cif.g09.slc.cpg/sg63_25_cif.got.tgz:48957.got - 2010.04.10 19:34:48.
