data_PCOD8259750
_publ_section_title
;
Structure prediction by ZEFSAII (Michael W. Deem and Ramdas Pophale) SiO2 
 PCOD8259750
Probable space group: C M C M
;
_chemical_formula_sum "Si O2"
_cell_formula_units_Z 96
_cell_length_a 16.227559
_cell_length_b 16.449395
_cell_length_c 19.197313
_cell_angle_alpha 90.000000
_cell_angle_beta 90.000000
_cell_angle_gamma 90.000000
_cell_volume 5124.406485
_symmetry_space_group_name_H-M "C M C M"
_symmetry_group_IT_number 63
_symmetry_cell_setting 'orthorhombic'
loop_
_space_group_symop_operation_xyz
x,y,z
-x,-y,1/2+z
x,-y,-z
-x,y,1/2-z
-x,-y,-z
x,y,1/2-z
-x,y,z
x,-y,1/2+z
1/2+x,1/2+y,z
1/2-x,1/2-y,1/2+z
1/2+x,1/2-y,-z
1/2-x,1/2+y,1/2-z
1/2-x,1/2-y,-z
1/2+x,1/2+y,1/2-z
1/2-x,1/2+y,z
1/2+x,1/2-y,1/2+z
loop_
_atom_site_type_symbol
_atom_site_label
_atom_site_fract_x
_atom_site_fract_y
_atom_site_fract_z
Si Si1 0.500000 0.623881 0.049723
Si Si2 0.903771 0.561568 0.330078
Si Si3 0.671338 0.796490 0.584055
Si Si4 0.850872 0.140299 0.669157
Si Si5 0.500000 0.555218 0.602780
Si Si6 0.142364 0.752386 0.567743
Si Si7 0.163783 0.613139 0.830481
O O1 0.500000 0.540403 0.091400
O O2 0.420248 0.673628 0.072517
O O3 0.500000 0.607079 0.967704
O O4 0.878533 0.578694 0.250000
O O5 0.852800 0.618984 0.381013
O O6 0.881218 0.469858 0.350744
O O7 0.000000 0.576311 0.341754
O O8 0.632443 0.723770 0.628720
O O9 0.769416 0.792095 0.581498
O O10 0.635278 0.792390 0.506453
O O11 0.860450 0.159968 0.750000
O O12 0.760688 0.104945 0.651177
O O13 0.918191 0.074732 0.646427
O O14 0.121810 0.685266 0.625905
O O15 0.150648 0.635088 0.750000
#
# Coordination Sequence:
#
# PCOD8259750 Si02
#       7
#     8  16  16  16   8  16  16
#     4  11  24  40  60  86 120 158 196 248 294 345
#     4  10  22  38  61  91 120 151 189 240 299 352
#     4  10  21  38  60  88 118 153 196 239 296 357
#     4  10  20  38  62  87 117 153 194 246 298 348
#     4  11  23  38  60  89 120 154 198 241 299 354
#     4  10  22  40  60  86 116 156 201 241 291 353
#     4   9  21  41  61  83 117 159 197 243 297 346
#
# _framework density 18.733877
#
# number of rings (size 3 to 8) (size 9 to 14) (size 15 to 20)
#    0.000    2.000    1.667    0.750    5.833    1.333 
#    0.000    2.500    0.000    0.000    0.000    0.000 
#    0.000    0.000    0.000    0.000    0.000    0.000 
#
# Total GULP energy -595422.170935 kJ/mol
# GULP energy per Si atom -12404.628561 kJ/mol
# Density = 1.869124 g / cm^3
# Si number density = 18.733877 Si / 1000 Ang^3
#
#
#
# Elastic Constant Matrix: (Units=GPa)
#
#
# Indices 1 2 3 4 5 6 
#
# 1 75.1158 54.5097 41.8538 0.0000 0.0000 0.0000
# 2 54.5097 128.9025 72.2949 0.0000 0.0000 0.0000
# 3 41.8538 72.2949 105.9130 0.0000 0.0000 0.0000
# 4 0.0000 0.0000 0.0000 38.8694 0.0000 0.0000
# 5 0.0000 0.0000 0.0000 0.0000 22.5352 0.0000
# 6 0.0000 0.0000 0.0000 0.0000 0.0000 33.6190
#
#
#
# Elastic Compliance Matrix: (Units=1/GPa)
#
#
# Indices 1 2 3 4 5 6 
#
# 1 0.019953 -0.006506 -0.003444 0.000000 0.000000 0.000000
# 2 -0.006506 0.014691 -0.007457 0.000000 0.000000 0.000000
# 3 -0.003444 -0.007457 0.015893 0.000000 0.000000 0.000000
# 4 0.000000 0.000000 0.000000 0.025727 0.000000 0.000000
# 5 0.000000 0.000000 0.000000 0.000000 0.044375 0.000000
# 6 0.000000 0.000000 0.000000 0.000000 0.000000 0.029745
#
#
# Mechanical properties :
#
#
# Convention : Reuss Voigt Hill
#
# Bulk Modulus (GPa) = 63.60136 71.91646 67.75891
# Shear Modulus (GPa) = 26.25502 28.42291 27.33897
#
# Velocity S-wave (km/s) = 3.74769 3.89934 3.82427
# Velocity P-wave (km/s) = 7.26295 7.66453 7.46644
#
# Compressibility (1/GPa) = 0.01572293
#
# Stress axis : x y z
#
# Youngs Moduli (GPa) = 50.11771 68.06692 62.92173
#
# Poissons Ratio (x) = 0.44285 0.21669
# Poissons Ratio (y) = 0.32607 0.46922
# Poissons Ratio (z) = 0.17260 0.50758
#
# Static dielectric constant tensor:
#      x y z
#    x 3.486370 0.000000 0.000000 
#    y 0.000000 3.335880 0.000000 
#    z 0.000000 0.000000 3.549060 
# 
# 
# High freq. dielectric constant tensor:
#      x y z
#    x 1.732610 0.000000 0.000000 
#    y 0.000000 1.725580 0.000000 
#    z 0.000000 0.000000 1.734000 
# 
# From -- ./inp_files/54256.got.cif
#   From: 2010.03.12/outbox.cif.g09.slc.cpg/sg63_28_cif.got.tgz:54256.got - 2010.04.10 19:34:48.
