data_PCOD8259268
_publ_section_title
;
Structure prediction by ZEFSAII (Michael W. Deem and Ramdas Pophale) SiO2 
 PCOD8259268
Probable space group: C M C M
;
_chemical_formula_sum "Si O2"
_cell_formula_units_Z 96
_cell_length_a 22.684342
_cell_length_b 13.712314
_cell_length_c 14.789685
_cell_angle_alpha 90.000000
_cell_angle_beta 90.000000
_cell_angle_gamma 90.000000
_cell_volume 4600.402811
_symmetry_space_group_name_H-M "C M C M"
_symmetry_group_IT_number 63
_symmetry_cell_setting 'orthorhombic'
loop_
_space_group_symop_operation_xyz
x,y,z
-x,-y,1/2+z
x,-y,-z
-x,y,1/2-z
-x,-y,-z
x,y,1/2-z
-x,y,z
x,-y,1/2+z
1/2+x,1/2+y,z
1/2-x,1/2-y,1/2+z
1/2+x,1/2-y,-z
1/2-x,1/2+y,1/2-z
1/2-x,1/2-y,-z
1/2+x,1/2+y,1/2-z
1/2-x,1/2+y,z
1/2+x,1/2-y,1/2+z
loop_
_atom_site_type_symbol
_atom_site_label
_atom_site_fract_x
_atom_site_fract_y
_atom_site_fract_z
Si Si1 0.352064 0.153723 0.849988
Si Si2 0.933878 0.127952 0.969314
Si Si3 0.386895 0.461521 0.644498
Si Si4 0.277871 0.668703 0.351318
Si Si5 0.326190 0.954651 0.591405
Si Si6 0.567490 0.150807 0.015829
O O1 0.371115 0.190709 0.750000
O O2 0.307181 0.233711 0.895627
O O3 0.323704 0.045187 0.838464
O O4 0.409188 0.145519 0.913080
O O5 0.926422 0.240433 0.946105
O O6 0.000000 0.092695 0.947923
O O7 0.890962 0.068827 0.900992
O O8 0.922594 0.110393 0.076877
O O9 0.409650 0.460038 0.750000
O O10 0.319441 0.426279 0.641560
O O11 0.266277 0.701077 0.250000
O O12 0.214229 0.638791 0.388707
O O13 0.393713 0.918294 0.580358
O O14 0.301265 0.000000 0.500000
O O15 0.500000 0.114827 0.017861
#
# Coordination Sequence:
#
# PCOD8259268 Si02
#       6
#    16  16  16  16  16  16
#     4  10  21  39  60  87 119 152 196 244 294 355
#     4  10  21  36  58  87 122 163 202 246 296 358
#     4  10  20  35  57  87 123 159 196 244 298 355
#     4  10  21  37  58  88 121 151 192 244 297 357
#     4  10  23  37  60  87 115 155 194 242 298 354
#     4  10  22  41  60  84 117 154 202 250 297 352
#
# _framework density 20.867737999999999
#
# number of rings (size 3 to 8) (size 9 to 14) (size 15 to 20)
#    0.000    2.000    1.667    1.500    2.333    8.667 
#    0.000    5.000    0.000    3.500    0.000    0.000 
#    0.000    0.000    0.000    0.000    0.000    0.000 
#
# Total GULP energy -594649.025362 kJ/mol
# GULP energy per Si atom -12388.521362 kJ/mol
# Density = 2.082024 g / cm^3
# Si number density = 20.867738 Si / 1000 Ang^3
#
#
#
# Elastic Constant Matrix: (Units=GPa)
#
#
# Indices 1 2 3 4 5 6 
#
# 1 129.1405 55.8556 35.7484 0.0000 0.0000 0.0000
# 2 55.8556 117.9361 31.1032 0.0000 0.0000 0.0000
# 3 35.7484 31.1032 86.3560 0.0000 0.0000 0.0000
# 4 0.0000 0.0000 0.0000 24.0851 0.0000 0.0000
# 5 0.0000 0.0000 0.0000 0.0000 13.9322 0.0000
# 6 0.0000 0.0000 0.0000 0.0000 0.0000 32.0937
#
#
#
# Elastic Compliance Matrix: (Units=1/GPa)
#
#
# Indices 1 2 3 4 5 6 
#
# 1 0.010306 -0.004150 -0.002771 0.000000 0.000000 0.000000
# 2 -0.004150 0.011040 -0.002258 0.000000 0.000000 0.000000
# 3 -0.002771 -0.002258 0.013541 0.000000 0.000000 0.000000
# 4 0.000000 0.000000 0.000000 0.041519 0.000000 0.000000
# 5 0.000000 0.000000 0.000000 0.000000 0.071776 0.000000
# 6 0.000000 0.000000 0.000000 0.000000 0.000000 0.031159
#
#
# Mechanical properties :
#
#
# Convention : Reuss Voigt Hill
#
# Bulk Modulus (GPa) = 60.50775 64.31634 62.41204
# Shear Modulus (GPa) = 24.60516 28.07058 26.33787
#
# Velocity S-wave (km/s) = 3.43753 3.67163 3.55651
# Velocity P-wave (km/s) = 6.69434 6.99016 6.84385
#
# Compressibility (1/GPa) = 0.01652681
#
# Stress axis : x y z
#
# Youngs Moduli (GPa) = 97.03453 90.57783 73.85130
#
# Poissons Ratio (x) = 0.37589 0.20468
# Poissons Ratio (y) = 0.40268 0.16679
# Poissons Ratio (z) = 0.26893 0.20457
#
# Static dielectric constant tensor:
#      x y z
#    x 3.616010 0.000000 0.000000 
#    y 0.000000 4.217640 0.000000 
#    z 0.000000 0.000000 3.674960 
# 
# 
# High freq. dielectric constant tensor:
#      x y z
#    x 1.799000 0.000000 0.000000 
#    y 0.000000 1.834420 0.000000 
#    z 0.000000 0.000000 1.800060 
# 
# From -- ./inp_files/35389.got.cif
#   From: 2010.03.12/outbox.cif.g09.slc.cpg/sg63_18_cif.got.tgz:35389.got - 2010.04.10 19:34:48.
