data_PCOD8259361
_publ_section_title
;
Structure prediction by ZEFSAII (Michael W. Deem and Ramdas Pophale) SiO2 
 PCOD8259361
Probable space group: C M C M
;
_chemical_formula_sum "Si O2"
_cell_formula_units_Z 96
_cell_length_a 25.230212
_cell_length_b 23.656580
_cell_length_c 8.764623
_cell_angle_alpha 90.000000
_cell_angle_beta 90.000000
_cell_angle_gamma 90.000000
_cell_volume 5231.257517
_symmetry_space_group_name_H-M "C M C M"
_symmetry_group_IT_number 63
_symmetry_cell_setting 'orthorhombic'
loop_
_space_group_symop_operation_xyz
x,y,z
-x,-y,1/2+z
x,-y,-z
-x,y,1/2-z
-x,-y,-z
x,y,1/2-z
-x,y,z
x,-y,1/2+z
1/2+x,1/2+y,z
1/2-x,1/2-y,1/2+z
1/2+x,1/2-y,-z
1/2-x,1/2+y,1/2-z
1/2-x,1/2-y,-z
1/2+x,1/2+y,1/2-z
1/2-x,1/2+y,z
1/2+x,1/2-y,1/2+z
loop_
_atom_site_type_symbol
_atom_site_label
_atom_site_fract_x
_atom_site_fract_y
_atom_site_fract_z
Si Si1 0.940365 0.559635 0.930674
Si Si2 0.061273 0.940386 0.071907
Si Si3 0.652311 0.375524 0.930658
Si Si4 0.846616 0.636202 0.930658
Si Si5 0.250736 0.439555 0.068740
Si Si6 0.692413 0.254430 0.930151
O O1 0.936602 0.554189 0.750000
O O2 0.900456 0.607642 0.994492
O O3 0.000000 0.575729 0.982560
O O4 0.922715 0.500000 0.000000
O O5 0.074426 0.942298 0.250000
O O6 0.000000 0.927128 0.039985
O O7 0.093992 0.890786 0.990473
O O8 0.078066 0.000000 0.000000
O O9 0.655301 0.381691 0.750000
O O10 0.663940 0.311590 0.984604
O O11 0.693353 0.418471 0.006090
O O12 0.847911 0.633502 0.750000
O O13 0.794988 0.602766 0.989425
O O14 0.842854 0.701125 0.986911
O O15 0.253516 0.443442 0.250000
O O16 0.236912 0.500000 0.000000
O O17 0.699234 0.252958 0.750000
O O18 0.750000 0.250000 0.000000
#
# Coordination Sequence:
#
# PCOD8259361 Si02
#       6
#    16  16  16  16  16  16
#     4   9  17  31  52  76 103 135 170 210 258 310
#     4  10  21  38  60  83 109 142 179 220 269 323
#     4  11  22  35  54  80 109 139 178 221 265 321
#     4   9  18  33  52  75 103 136 174 217 264 311
#     4  11  21  33  51  74 106 139 172 219 269 321
#     4  10  20  36  55  76 104 140 182 221 263 316
#
# _framework density 18.351227000000002
#
# number of rings (size 3 to 8) (size 9 to 14) (size 15 to 20)
#    0.000    2.000    1.667    2.500    0.000    1.667 
#    0.000    2.500    0.000    3.000    0.000    2.333 
#    0.000    0.000    0.000    0.000    0.000    0.000 
#
# Total GULP energy -595272.681878 kJ/mol
# GULP energy per Si atom -12401.514206 kJ/mol
# Density = 1.830946 g / cm^3
# Si number density = 18.351227 Si / 1000 Ang^3
#
#
#
# Elastic Constant Matrix: (Units=GPa)
#
#
# Indices 1 2 3 4 5 6 
#
# 1 112.0031 68.9643 28.4583 0.0000 0.0000 0.0000
# 2 68.9643 143.8714 37.0577 0.0000 0.0000 0.0000
# 3 28.4583 37.0577 53.0358 0.0000 0.0000 0.0000
# 4 0.0000 0.0000 0.0000 21.5367 0.0000 0.0000
# 5 0.0000 0.0000 0.0000 0.0000 22.9755 0.0000
# 6 0.0000 0.0000 0.0000 0.0000 0.0000 37.3944
#
#
#
# Elastic Compliance Matrix: (Units=1/GPa)
#
#
# Indices 1 2 3 4 5 6 
#
# 1 0.013104 -0.005451 -0.003222 0.000000 0.000000 0.000000
# 2 -0.005451 0.010744 -0.004582 0.000000 0.000000 0.000000
# 3 -0.003222 -0.004582 0.023786 0.000000 0.000000 0.000000
# 4 0.000000 0.000000 0.000000 0.046432 0.000000 0.000000
# 5 0.000000 0.000000 0.000000 0.000000 0.043525 0.000000
# 6 0.000000 0.000000 0.000000 0.000000 0.000000 0.026742
#
#
# Mechanical properties :
#
#
# Convention : Reuss Voigt Hill
#
# Bulk Modulus (GPa) = 47.34345 64.20788 55.77567
# Shear Modulus (GPa) = 25.26734 28.00999 26.63867
#
# Velocity S-wave (km/s) = 3.71465 3.91106 3.81412
# Velocity P-wave (km/s) = 6.65227 7.44711 7.06089
#
# Compressibility (1/GPa) = 0.02112225
#
# Stress axis : x y z
#
# Youngs Moduli (GPa) = 76.31535 93.07641 42.04181
#
# Poissons Ratio (x) = 0.50737 0.13547
# Poissons Ratio (y) = 0.41601 0.19264
# Poissons Ratio (z) = 0.24591 0.42648
#
# Static dielectric constant tensor:
#      x y z
#    x 3.466320 0.000000 0.000000 
#    y 0.000000 3.733470 0.000000 
#    z 0.000000 0.000000 3.260630 
# 
# 
# High freq. dielectric constant tensor:
#      x y z
#    x 1.713900 0.000000 0.000000 
#    y 0.000000 1.715060 0.000000 
#    z 0.000000 0.000000 1.701300 
# 
# From -- ./inp_files/10425.got.cif
#   From: 2010.03.12/outbox.cif.g09.slc.cpg/sg63_6_cif.got.tgz:10425.got - 2010.04.10 19:34:48.
