data_PCOD8259292
_publ_section_title
;
Structure prediction by ZEFSAII (Michael W. Deem and Ramdas Pophale) SiO2 
 PCOD8259292
Probable space group: C M C M
;
_chemical_formula_sum "Si O2"
_cell_formula_units_Z 96
_cell_length_a 8.806574
_cell_length_b 20.162091
_cell_length_c 27.942645
_cell_angle_alpha 90.000000
_cell_angle_beta 90.000000
_cell_angle_gamma 90.000000
_cell_volume 4961.466605
_symmetry_space_group_name_H-M "C M C M"
_symmetry_group_IT_number 63
_symmetry_cell_setting 'orthorhombic'
loop_
_space_group_symop_operation_xyz
x,y,z
-x,-y,1/2+z
x,-y,-z
-x,y,1/2-z
-x,-y,-z
x,y,1/2-z
-x,y,z
x,-y,1/2+z
1/2+x,1/2+y,z
1/2-x,1/2-y,1/2+z
1/2+x,1/2-y,-z
1/2-x,1/2+y,1/2-z
1/2-x,1/2-y,-z
1/2+x,1/2+y,1/2-z
1/2-x,1/2+y,z
1/2+x,1/2-y,1/2+z
loop_
_atom_site_type_symbol
_atom_site_label
_atom_site_fract_x
_atom_site_fract_y
_atom_site_fract_z
Si Si1 0.821274 0.739543 0.948686
Si Si2 0.824871 0.119397 0.601205
Si Si3 0.677115 0.674166 0.303906
Si Si4 0.826755 0.812893 0.303063
Si Si5 0.676261 0.517123 0.445891
Si Si6 0.821844 0.360707 0.895795
O O1 0.780304 0.666471 0.930497
O O2 0.756478 0.792964 0.912017
O O3 0.000000 0.747620 0.952514
O O4 0.750000 0.750000 0.000000
O O5 0.792762 0.130443 0.657692
O O6 0.000000 0.134228 0.588057
O O7 0.783642 0.043987 0.588767
O O8 0.721456 0.652516 0.250000
O O9 0.500000 0.664732 0.313410
O O10 0.717574 0.751000 0.312276
O O11 0.768176 0.627386 0.340989
O O12 0.798251 0.843097 0.250000
O O13 0.000000 0.787392 0.307975
O O14 0.722014 0.500000 0.500000
O O15 0.500000 0.536839 0.442642
O O16 0.775256 0.579101 0.429641
O O17 0.000000 0.351242 0.898451
#
# Coordination Sequence:
#
# PCOD8259292 Si02
#       6
#    16  16  16  16  16  16
#     4  12  24  38  59  86 117 150 193 247 297 348
#     4  10  20  36  58  85 116 152 196 241 295 356
#     4  10  20  35  58  88 119 153 195 244 297 351
#     4   9  17  31  54  84 117 151 188 235 293 357
#     4  10  22  40  60  82 116 162 205 247 297 353
#     4  12  24  39  60  87 120 158 201 245 296 354
#
# _framework density 19.349119000000002
#
# number of rings (size 3 to 8) (size 9 to 14) (size 15 to 20)
#    0.000    1.500    1.667    4.500    0.000    3.333 
#    0.000    0.833    0.000    3.000    0.000    0.000 
#    0.000    0.000    0.000    0.000    0.000    0.000 
#
# Total GULP energy -595357.598638 kJ/mol
# GULP energy per Si atom -12403.283305 kJ/mol
# Density = 1.930508 g / cm^3
# Si number density = 19.349119 Si / 1000 Ang^3
#
#
#
# Elastic Constant Matrix: (Units=GPa)
#
#
# Indices 1 2 3 4 5 6 
#
# 1 110.5043 25.2393 37.2653 0.0000 0.0000 0.0000
# 2 25.2393 49.8217 18.6719 0.0000 0.0000 0.0000
# 3 37.2653 18.6719 116.6140 0.0000 0.0000 0.0000
# 4 0.0000 0.0000 0.0000 34.0823 0.0000 0.0000
# 5 0.0000 0.0000 0.0000 0.0000 30.0066 0.0000
# 6 0.0000 0.0000 0.0000 0.0000 0.0000 28.1714
#
#
#
# Elastic Compliance Matrix: (Units=1/GPa)
#
#
# Indices 1 2 3 4 5 6 
#
# 1 0.011030 -0.004539 -0.002798 0.000000 0.000000 0.000000
# 2 -0.004539 0.023221 -0.002268 0.000000 0.000000 0.000000
# 3 -0.002798 -0.002268 0.009832 0.000000 0.000000 0.000000
# 4 0.000000 0.000000 0.000000 0.029341 0.000000 0.000000
# 5 0.000000 0.000000 0.000000 0.000000 0.033326 0.000000
# 6 0.000000 0.000000 0.000000 0.000000 0.000000 0.035497
#
#
# Mechanical properties :
#
#
# Convention : Reuss Voigt Hill
#
# Bulk Modulus (GPa) = 40.20246 48.81033 44.50639
# Shear Modulus (GPa) = 29.45563 31.50296 30.47930
#
# Velocity S-wave (km/s) = 3.90593 4.03939 3.97322
# Velocity P-wave (km/s) = 6.41594 6.85831 6.64081
#
# Compressibility (1/GPa) = 0.02487410
#
# Stress axis : x y z
#
# Youngs Moduli (GPa) = 90.66475 43.06481 101.70385
#
# Poissons Ratio (x) = 0.19547 0.28455
# Poissons Ratio (y) = 0.41152 0.23062
# Poissons Ratio (z) = 0.25367 0.09765
#
# Static dielectric constant tensor:
#      x y z
#    x 3.529900 0.000000 0.000000 
#    y 0.000000 3.274780 0.000000 
#    z 0.000000 0.000000 4.824570 
# 
# 
# High freq. dielectric constant tensor:
#      x y z
#    x 1.753340 0.000000 0.000000 
#    y 0.000000 1.725560 0.000000 
#    z 0.000000 0.000000 1.776050 
# 
# From -- ./inp_files/66986.got.cif
#   From: 2010.03.12/outbox.cif.g09.slc.cpg/sg63_34_cif.got.tgz:66986.got - 2010.04.10 19:34:48.
