data_PCOD8259199
_publ_section_title
;
Structure prediction by ZEFSAII (Michael W. Deem and Ramdas Pophale) SiO2 
 PCOD8259199
Probable space group: C M C M
;
_chemical_formula_sum "Si O2"
_cell_formula_units_Z 80
_cell_length_a 8.662808
_cell_length_b 27.381728
_cell_length_c 18.098747
_cell_angle_alpha 90.000000
_cell_angle_beta 90.000000
_cell_angle_gamma 90.000000
_cell_volume 4293.070793
_symmetry_space_group_name_H-M "C M C M"
_symmetry_group_IT_number 63
_symmetry_cell_setting 'orthorhombic'
loop_
_space_group_symop_operation_xyz
x,y,z
-x,-y,1/2+z
x,-y,-z
-x,y,1/2-z
-x,-y,-z
x,y,1/2-z
-x,y,z
x,-y,1/2+z
1/2+x,1/2+y,z
1/2-x,1/2-y,1/2+z
1/2+x,1/2-y,-z
1/2-x,1/2+y,1/2-z
1/2-x,1/2-y,-z
1/2+x,1/2+y,1/2-z
1/2-x,1/2+y,z
1/2+x,1/2-y,1/2+z
loop_
_atom_site_type_symbol
_atom_site_label
_atom_site_fract_x
_atom_site_fract_y
_atom_site_fract_z
Si Si1 0.318858 0.059956 0.395019
Si Si2 0.320367 0.654313 0.166952
Si Si3 0.181826 0.699775 0.027553
Si Si4 0.677514 0.536067 0.665632
Si Si5 0.820377 0.895651 0.034598
O O1 0.500000 0.068623 0.402469
O O2 0.248597 0.100159 0.340163
O O3 0.243744 0.064961 0.475999
O O4 0.286852 0.007196 0.361306
O O5 0.292742 0.673303 0.250000
O O6 0.500000 0.652222 0.146947
O O7 0.236619 0.691192 0.111410
O O8 0.000000 0.702815 0.025552
O O9 0.250000 0.750000 0.000000
O O10 0.235937 0.656067 0.974165
O O11 0.716216 0.549758 0.750000
O O12 0.500000 0.519309 0.656508
O O13 0.710919 0.584054 0.616682
O O14 0.000000 0.887561 0.019160
#
# Coordination Sequence:
#
# PCOD8259199 Si02
#       5
#    16  16  16  16  16
#     4  11  21  32  51  79 110 143 179 218 261 313
#     4  10  20  35  56  82 111 140 174 220 271 319
#     4  11  22  38  60  82 107 139 177 221 268 321
#     4  10  21  36  53  75 106 144 182 218 259 310
#     4  10  20  36  57  78 103 138 179 222 268 318
#
# _framework density 18.634679999999999
#
# number of rings (size 3 to 8) (size 9 to 14) (size 15 to 20)
#    0.000    1.600    0.000    8.400    0.000    8.400 
#    0.000    1.000    0.000    3.600    0.000    0.000 
#    0.000    0.000    0.000    0.000    0.000    0.000 
#
# Total GULP energy -496131.355153 kJ/mol
# GULP energy per Si atom -12403.283879 kJ/mol
# Density = 1.859227 g / cm^3
# Si number density = 18.634680 Si / 1000 Ang^3
#
#
#
# Elastic Constant Matrix: (Units=GPa)
#
#
# Indices 1 2 3 4 5 6 
#
# 1 155.2081 60.7622 58.8566 0.0000 0.0000 0.0000
# 2 60.7622 118.7032 76.8717 0.0000 0.0000 0.0000
# 3 58.8566 76.8717 142.7606 0.0000 0.0000 0.0000
# 4 0.0000 0.0000 0.0000 22.0211 0.0000 0.0000
# 5 0.0000 0.0000 0.0000 0.0000 17.1989 0.0000
# 6 0.0000 0.0000 0.0000 0.0000 0.0000 32.3364
#
#
#
# Elastic Compliance Matrix: (Units=1/GPa)
#
#
# Indices 1 2 3 4 5 6 
#
# 1 0.008332 -0.003133 -0.001748 0.000000 0.000000 0.000000
# 2 -0.003133 0.014113 -0.006308 0.000000 0.000000 0.000000
# 3 -0.001748 -0.006308 0.011122 0.000000 0.000000 0.000000
# 4 0.000000 0.000000 0.000000 0.045411 0.000000 0.000000
# 5 0.000000 0.000000 0.000000 0.000000 0.058143 0.000000
# 6 0.000000 0.000000 0.000000 0.000000 0.000000 0.030925
#
#
# Mechanical properties :
#
#
# Convention : Reuss Voigt Hill
#
# Bulk Modulus (GPa) = 89.36994 89.96142 89.66568
# Shear Modulus (GPa) = 25.75275 28.99006 27.37141
#
# Velocity S-wave (km/s) = 3.72153 3.94852 3.83671
# Velocity P-wave (km/s) = 8.15656 8.31678 8.23706
#
# Compressibility (1/GPa) = 0.01118944
#
# Stress axis : x y z
#
# Youngs Moduli (GPa) = 120.01233 70.85671 89.91251
#
# Poissons Ratio (x) = 0.22200 0.15718
# Poissons Ratio (y) = 0.37602 0.56714
# Poissons Ratio (z) = 0.20980 0.44694
#
# Static dielectric constant tensor:
#      x y z
#    x 3.545750 0.000000 0.000000 
#    y 0.000000 3.204810 0.000000 
#    z 0.000000 0.000000 3.508550 
# 
# 
# High freq. dielectric constant tensor:
#      x y z
#    x 1.738710 0.000000 0.000000 
#    y 0.000000 1.705810 0.000000 
#    z 0.000000 0.000000 1.727530 
# 
# From -- ./inp_files/40707.got.cif
#   From: 2010.03.12/outbox.cif.g09.slc.cpg/sg63_21_cif.got.tgz:40707.got - 2010.04.10 19:34:48.
