data_PCOD8259902
_publ_section_title
;
Structure prediction by ZEFSAII (Michael W. Deem and Ramdas Pophale) SiO2 
 PCOD8259902
Probable space group: C M C M
;
_chemical_formula_sum "Si O2"
_cell_formula_units_Z 48
_cell_length_a 9.279681
_cell_length_b 10.030859
_cell_length_c 19.938410
_cell_angle_alpha 90.000000
_cell_angle_beta 90.000000
_cell_angle_gamma 90.000000
_cell_volume 1855.930441
_symmetry_space_group_name_H-M "C M C M"
_symmetry_group_IT_number 63
_symmetry_cell_setting 'orthorhombic'
loop_
_space_group_symop_operation_xyz
x,y,z
-x,-y,1/2+z
x,-y,-z
-x,y,1/2-z
-x,-y,-z
x,y,1/2-z
-x,y,z
x,-y,1/2+z
1/2+x,1/2+y,z
1/2-x,1/2-y,1/2+z
1/2+x,1/2-y,-z
1/2-x,1/2+y,1/2-z
1/2-x,1/2-y,-z
1/2+x,1/2+y,1/2-z
1/2-x,1/2+y,z
1/2+x,1/2-y,1/2+z
loop_
_atom_site_type_symbol
_atom_site_label
_atom_site_fract_x
_atom_site_fract_y
_atom_site_fract_z
Si Si1 0.500000 0.438651 0.400927
Si Si2 0.500000 0.615674 0.750000
Si Si3 0.000000 0.650864 0.462281
Si Si4 0.302606 0.141512 0.250000
Si Si5 0.500000 0.986649 0.340980
Si Si6 0.254701 0.500000 0.500000
Si Si7 0.000000 0.243062 0.250000
O O1 0.500000 0.466277 0.320721
O O2 0.500000 0.280724 0.416600
O O3 0.357126 0.502874 0.434170
O O4 0.643412 0.706229 0.750000
O O5 0.152227 0.633918 0.501672
O O6 0.000000 0.509226 0.419918
O O7 0.357467 0.061090 0.314324
O O8 0.131352 0.140320 0.250000
O O9 0.500000 0.832760 0.317591
#
# Coordination Sequence:
#
# PCOD8259902 Si02
#       7
#     8   4   8   8   8   8   4
#     4  11  22  47  64  95 135 165 215 271 314 381
#     4  10  21  38  71  88 134 174 199 270 335 358
#     4  11  21  43  66  90 127 168 210 267 313 377
#     4   9  18  40  54  91 125 171 195 268 318 369
#     4   9  21  37  61  87 128 163 212 256 328 374
#     4  10  26  40  70  98 120 176 222 250 326 388
#     4  10  21  34  61  88 128 162 215 258 313 392
#
# _framework density 25.863040000000002
#
# number of rings (size 3 to 8) (size 9 to 14) (size 15 to 20)
#    0.000    2.333    3.333    1.000    4.667    0.000 
#    0.000   15.000    0.000    0.000    0.000    0.000 
#    0.000    0.000    0.000    0.000    0.000    0.000 
#
# Total GULP energy -297320.964816 kJ/mol
# GULP energy per Si atom -12388.373534 kJ/mol
# Density = 2.580417 g / cm^3
# Si number density = 25.863040 Si / 1000 Ang^3
#
#
#
# Elastic Constant Matrix: (Units=GPa)
#
#
# Indices 1 2 3 4 5 6 
#
# 1 229.9898 46.8079 53.6153 0.0000 0.0000 0.0000
# 2 46.8079 62.5794 13.5193 0.0000 0.0000 0.0000
# 3 53.6153 13.5193 112.8413 0.0000 0.0000 0.0000
# 4 0.0000 0.0000 0.0000 24.9106 0.0000 0.0000
# 5 0.0000 0.0000 0.0000 0.0000 10.4645 0.0000
# 6 0.0000 0.0000 0.0000 0.0000 0.0000 25.7587
#
#
#
# Elastic Compliance Matrix: (Units=1/GPa)
#
#
# Indices 1 2 3 4 5 6 
#
# 1 0.005626 -0.003727 -0.002226 0.000000 0.000000 0.000000
# 2 -0.003727 0.018873 -0.000490 0.000000 0.000000 0.000000
# 3 -0.002226 -0.000490 0.009979 0.000000 0.000000 0.000000
# 4 0.000000 0.000000 0.000000 0.040144 0.000000 0.000000
# 5 0.000000 0.000000 0.000000 0.000000 0.095561 0.000000
# 6 0.000000 0.000000 0.000000 0.000000 0.000000 0.038822
#
#
# Mechanical properties :
#
#
# Convention : Reuss Voigt Hill
#
# Bulk Modulus (GPa) = 46.31752 70.36616 58.34184
# Shear Modulus (GPa) = 21.82571 31.65797 26.74184
#
# Velocity S-wave (km/s) = 2.90814 3.50246 3.21904
# Velocity P-wave (km/s) = 5.40592 6.60474 6.03517
#
# Compressibility (1/GPa) = 0.02159010
#
# Stress axis : x y z
#
# Youngs Moduli (GPa) = 177.76148 52.98524 100.21434
#
# Poissons Ratio (x) = 0.19746 0.22312
# Poissons Ratio (y) = 0.66248 0.04915
# Poissons Ratio (z) = 0.39577 0.02599
#
# Static dielectric constant tensor:
#      x y z
#    x 4.814330 0.000000 0.000000 
#    y 0.000000 4.243240 0.000000 
#    z 0.000000 0.000000 4.574170 
# 
# 
# High freq. dielectric constant tensor:
#      x y z
#    x 2.053980 0.000000 0.000000 
#    y 0.000000 2.016200 0.000000 
#    z 0.000000 0.000000 2.025170 
# 
# From -- ./inp_files/58912.got.cif
#   From: 2010.03.12/outbox.cif.g09.slc.cpg/sg63_30_cif.got.tgz:58912.got - 2010.04.10 19:34:48.
