data_PCOD8259814
_publ_section_title
;
Structure prediction by ZEFSAII (Michael W. Deem and Ramdas Pophale) SiO2 
 PCOD8259814
Probable space group: C M C M
;
_chemical_formula_sum "Si O2"
_cell_formula_units_Z 96
_cell_length_a 14.393860
_cell_length_b 20.153894
_cell_length_c 17.053136
_cell_angle_alpha 90.000000
_cell_angle_beta 90.000000
_cell_angle_gamma 90.000000
_cell_volume 4946.983934
_symmetry_space_group_name_H-M "C M C M"
_symmetry_group_IT_number 63
_symmetry_cell_setting 'orthorhombic'
loop_
_space_group_symop_operation_xyz
x,y,z
-x,-y,1/2+z
x,-y,-z
-x,y,1/2-z
-x,-y,-z
x,y,1/2-z
-x,y,z
x,-y,1/2+z
1/2+x,1/2+y,z
1/2-x,1/2-y,1/2+z
1/2+x,1/2-y,-z
1/2-x,1/2+y,1/2-z
1/2-x,1/2-y,-z
1/2+x,1/2+y,1/2-z
1/2-x,1/2+y,z
1/2+x,1/2-y,1/2+z
loop_
_atom_site_type_symbol
_atom_site_label
_atom_site_fract_x
_atom_site_fract_y
_atom_site_fract_z
Si Si1 0.316924 0.271603 0.341630
Si Si2 0.801398 0.400285 0.340743
Si Si3 0.000000 0.651599 0.840702
Si Si4 0.191306 0.851807 0.659758
Si Si5 0.000000 0.204024 0.396155
Si Si6 0.179846 0.010098 0.089389
Si Si7 0.500000 0.452778 0.339910
Si Si8 0.000000 0.812573 0.421631
O O1 0.342142 0.273414 0.250000
O O2 0.252398 0.333553 0.364553
O O3 0.263889 0.204757 0.365137
O O4 0.410141 0.273116 0.392222
O O5 0.784680 0.416752 0.250000
O O6 0.764686 0.461307 0.391589
O O7 0.910066 0.392433 0.359832
O O8 0.000000 0.674839 0.750000
O O9 0.000000 0.716579 0.894046
O O10 0.205149 0.872070 0.750000
O O11 0.088285 0.824631 0.648535
O O12 0.212282 0.914870 0.605041
O O13 0.000000 0.181061 0.485493
O O14 0.090919 0.996045 0.143556
O O15 0.149909 0.000000 0.000000
O O16 0.500000 0.430487 0.250000
O O17 0.500000 0.387128 0.391066
#
# Coordination Sequence:
#
# PCOD8259814 Si02
#       8
#    16  16   8  16   8  16   8   8
#     4  10  21  39  64  87 119 161 206 248 291 356
#     4  10  20  39  66  90 116 159 207 251 293 352
#     4  10  20  39  66  93 114 148 216 264 286 342
#     4  11  23  40  61  88 121 160 205 252 299 354
#     4  12  23  36  60  92 128 156 188 254 320 356
#     4  12  25  40  59  91 127 161 197 249 309 366
#     4  12  22  39  64  85 118 164 210 250 288 356
#     4  12  24  36  58  96 128 158 196 244 302 368
#
# _framework density 19.405764000000001
#
# number of rings (size 3 to 8) (size 9 to 14) (size 15 to 20)
#    0.000    1.000    3.333    4.750    0.000    2.000 
#    0.000    1.250    0.000    2.000    0.000    0.000 
#    0.000    0.000    0.000    0.000    0.000    0.000 
#
# Total GULP energy -595564.041733 kJ/mol
# GULP energy per Si atom -12407.584203 kJ/mol
# Density = 1.936160 g / cm^3
# Si number density = 19.405764 Si / 1000 Ang^3
#
#
#
# Elastic Constant Matrix: (Units=GPa)
#
#
# Indices 1 2 3 4 5 6 
#
# 1 125.6642 44.6386 24.5700 0.0000 0.0000 0.0000
# 2 44.6386 108.6764 12.3456 0.0000 0.0000 0.0000
# 3 24.5700 12.3456 47.5412 0.0000 0.0000 0.0000
# 4 0.0000 0.0000 0.0000 28.5061 0.0000 0.0000
# 5 0.0000 0.0000 0.0000 0.0000 7.9695 0.0000
# 6 0.0000 0.0000 0.0000 0.0000 0.0000 87.2505
#
#
#
# Elastic Compliance Matrix: (Units=1/GPa)
#
#
# Indices 1 2 3 4 5 6 
#
# 1 0.010092 -0.003661 -0.004265 0.000000 0.000000 0.000000
# 2 -0.003661 0.010809 -0.000915 0.000000 0.000000 0.000000
# 3 -0.004265 -0.000915 0.023476 0.000000 0.000000 0.000000
# 4 0.000000 0.000000 0.000000 0.035080 0.000000 0.000000
# 5 0.000000 0.000000 0.000000 0.000000 0.125478 0.000000
# 6 0.000000 0.000000 0.000000 0.000000 0.000000 0.011461
#
#
# Mechanical properties :
#
#
# Convention : Reuss Voigt Hill
#
# Bulk Modulus (GPa) = 37.45908 49.44333 43.45121
# Shear Modulus (GPa) = 20.57806 38.10041 29.33923
#
# Velocity S-wave (km/s) = 3.25993 4.43578 3.89251
# Velocity P-wave (km/s) = 5.78917 7.19506 6.53006
#
# Compressibility (1/GPa) = 0.02669580
#
# Stress axis : x y z
#
# Youngs Moduli (GPa) = 99.08836 92.51359 42.59624
#
# Poissons Ratio (x) = 0.33867 0.18168
# Poissons Ratio (y) = 0.36274 0.03898
# Poissons Ratio (z) = 0.42262 0.08465
#
# Static dielectric constant tensor:
#      x y z
#    x 3.622020 0.000000 0.000000 
#    y 0.000000 3.540400 0.000000 
#    z 0.000000 0.000000 3.460980 
# 
# 
# High freq. dielectric constant tensor:
#      x y z
#    x 1.758930 0.000000 0.000000 
#    y 0.000000 1.757030 0.000000 
#    z 0.000000 0.000000 1.752440 
# 
# From -- ./inp_files/32007.got.cif
#   From: 2010.03.12/outbox.cif.g09.slc.cpg/sg63_17_cif.got.tgz:32007.got - 2010.04.10 19:34:48.
