data_PCOD8259566
_publ_section_title
;
Structure prediction by ZEFSAII (Michael W. Deem and Ramdas Pophale) SiO2 
 PCOD8259566
Probable space group: C M C M
;
_chemical_formula_sum "Si O2"
_cell_formula_units_Z 80
_cell_length_a 8.663165
_cell_length_b 25.027467
_cell_length_c 18.646262
_cell_angle_alpha 90.000000
_cell_angle_beta 90.000000
_cell_angle_gamma 90.000000
_cell_volume 4042.828008
_symmetry_space_group_name_H-M "C M C M"
_symmetry_group_IT_number 63
_symmetry_cell_setting 'orthorhombic'
loop_
_space_group_symop_operation_xyz
x,y,z
-x,-y,1/2+z
x,-y,-z
-x,y,1/2-z
-x,-y,-z
x,y,1/2-z
-x,y,z
x,-y,1/2+z
1/2+x,1/2+y,z
1/2-x,1/2-y,1/2+z
1/2+x,1/2-y,-z
1/2-x,1/2+y,1/2-z
1/2-x,1/2-y,-z
1/2+x,1/2+y,1/2-z
1/2-x,1/2+y,z
1/2+x,1/2-y,1/2+z
loop_
_atom_site_type_symbol
_atom_site_label
_atom_site_fract_x
_atom_site_fract_y
_atom_site_fract_z
Si Si1 0.816625 0.834335 0.086019
Si Si2 0.320035 0.028029 0.073989
Si Si3 0.318508 0.357137 0.927244
Si Si4 0.816907 0.268498 0.668932
Si Si5 0.679104 0.439552 0.166174
O O1 0.748622 0.781422 0.123851
O O2 0.756230 0.886515 0.127636
O O3 0.000000 0.833516 0.089248
O O4 0.756964 0.836467 0.004310
O O5 0.500000 0.042230 0.075108
O O6 0.222167 0.081341 0.083458
O O7 0.278658 0.989570 0.139799
O O8 0.270660 0.000000 0.000000
O O9 0.500000 0.349557 0.921093
O O10 0.237995 0.323735 0.864981
O O11 0.753963 0.264774 0.750000
O O12 0.000000 0.266895 0.668376
O O13 0.704798 0.431973 0.250000
O O14 0.500000 0.449354 0.147207
#
# Coordination Sequence:
#
# PCOD8259566 Si02
#       5
#    16  16  16  16  16
#     4   9  18  35  60  88 115 149 191 235 286 345
#     4  11  23  39  59  84 116 154 193 237 288 345
#     4  11  22  37  61  87 115 151 194 243 287 339
#     4  10  21  38  59  84 118 156 192 234 286 345
#     4  10  20  36  61  90 118 150 191 239 291 347
#
# _framework density 19.788129000000001
#
# number of rings (size 3 to 8) (size 9 to 14) (size 15 to 20)
#    0.000    1.800    2.000    2.400    0.000    4.800 
#    0.000    2.000    0.000    2.400    0.000    0.000 
#    0.000    0.000    0.000    0.000    0.000    0.000 
#
# Total GULP energy -496196.450555 kJ/mol
# GULP energy per Si atom -12404.911264 kJ/mol
# Density = 1.974309 g / cm^3
# Si number density = 19.788129 Si / 1000 Ang^3
#
#
#
# Elastic Constant Matrix: (Units=GPa)
#
#
# Indices 1 2 3 4 5 6 
#
# 1 14.0855 4.8882 25.2132 0.0000 0.0000 0.0000
# 2 4.8882 126.1794 55.7871 0.0000 0.0000 0.0000
# 3 25.2132 55.7871 108.4331 0.0000 0.0000 0.0000
# 4 0.0000 0.0000 0.0000 36.4611 0.0000 0.0000
# 5 0.0000 0.0000 0.0000 0.0000 23.5141 0.0000
# 6 0.0000 0.0000 0.0000 0.0000 0.0000 9.8094
#
#
#
# Elastic Compliance Matrix: (Units=1/GPa)
#
#
# Indices 1 2 3 4 5 6 
#
# 1 0.132407 0.010980 -0.036437 0.000000 0.000000 0.000000
# 2 0.010980 0.011169 -0.008300 0.000000 0.000000 0.000000
# 3 -0.036437 -0.008300 0.021965 0.000000 0.000000 0.000000
# 4 0.000000 0.000000 0.000000 0.027427 0.000000 0.000000
# 5 0.000000 0.000000 0.000000 0.000000 0.042528 0.000000
# 6 0.000000 0.000000 0.000000 0.000000 0.000000 0.101943
#
#
# Mechanical properties :
#
#
# Convention : Reuss Voigt Hill
#
# Bulk Modulus (GPa) = 10.20111 46.71946 28.46029
# Shear Modulus (GPa) = 11.42526 24.81088 18.11807
#
# Velocity S-wave (km/s) = 2.40548 3.54478 3.02918
# Velocity P-wave (km/s) = 3.58908 6.35729 5.16220
#
# Compressibility (1/GPa) = 0.09802854
#
# Stress axis : x y z
#
# Youngs Moduli (GPa) = 7.55247 89.53099 45.52756
#
# Poissons Ratio (x) = -0.98307 1.65888
# Poissons Ratio (y) = -0.08293 0.37786
# Poissons Ratio (z) = 0.27519 0.74307
#
# Static dielectric constant tensor:
#      x y z
#    x 3.296770 0.000000 0.000000 
#    y 0.000000 3.673640 0.000000 
#    z 0.000000 0.000000 3.738510 
# 
# 
# High freq. dielectric constant tensor:
#      x y z
#    x 1.745280 0.000000 0.000000 
#    y 0.000000 1.784210 0.000000 
#    z 0.000000 0.000000 1.780370 
# 
# From -- ./inp_files/40456.got.cif
#   From: 2010.03.12/outbox.cif.g09.slc.cpg/sg63_21_cif.got.tgz:40456.got - 2010.04.10 19:34:48.
