data_PCOD8259002
_publ_section_title
;
Structure prediction by ZEFSAII (Michael W. Deem and Ramdas Pophale) SiO2 
 PCOD8259002
Probable space group: C M C M
;
_chemical_formula_sum "Si O2"
_cell_formula_units_Z 112
_cell_length_a 23.376209
_cell_length_b 13.576984
_cell_length_c 17.257066
_cell_angle_alpha 90.000000
_cell_angle_beta 90.000000
_cell_angle_gamma 90.000000
_cell_volume 5477.020265
_symmetry_space_group_name_H-M "C M C M"
_symmetry_group_IT_number 63
_symmetry_cell_setting 'orthorhombic'
loop_
_space_group_symop_operation_xyz
x,y,z
-x,-y,1/2+z
x,-y,-z
-x,y,1/2-z
-x,-y,-z
x,y,1/2-z
-x,y,z
x,-y,1/2+z
1/2+x,1/2+y,z
1/2-x,1/2-y,1/2+z
1/2+x,1/2-y,-z
1/2-x,1/2+y,1/2-z
1/2-x,1/2-y,-z
1/2+x,1/2+y,1/2-z
1/2-x,1/2+y,z
1/2+x,1/2-y,1/2+z
loop_
_atom_site_type_symbol
_atom_site_label
_atom_site_fract_x
_atom_site_fract_y
_atom_site_fract_z
Si Si1 0.565549 0.488626 0.587532
Si Si2 0.370782 0.866229 0.575629
Si Si3 0.156565 0.340965 0.101448
Si Si4 0.661919 0.628812 0.159330
Si Si5 0.738009 0.014006 0.411060
Si Si6 0.435247 0.968564 0.337124
Si Si7 0.934919 0.199755 0.659719
O O1 0.588636 0.500000 0.500000
O O2 0.500000 0.454275 0.586086
O O3 0.599359 0.403093 0.631451
O O4 0.574272 0.588154 0.634914
O O5 0.369613 0.855928 0.483680
O O6 0.307579 0.898224 0.602651
O O7 0.388843 0.763527 0.613331
O O8 0.415734 0.949606 0.601141
O O9 0.177561 0.230307 0.116028
O O10 0.211144 0.411027 0.117924
O O11 0.104620 0.371613 0.158051
O O12 0.662572 0.647552 0.250000
O O13 0.706274 0.542289 0.137735
O O14 0.755883 0.000000 0.500000
O O15 0.430744 0.012479 0.250000
O O16 0.500000 0.937499 0.356245
O O17 0.921886 0.210096 0.750000
O O18 0.000000 0.233729 0.640797
#
# Coordination Sequence:
#
# PCOD8259002 Si02
#       7
#    16  16  16  16  16  16  16
#     4  10  22  41  63  86 115 154 198 241 284 337
#     4  10  20  36  60  87 115 153 198 243 292 345
#     4  10  23  41  59  85 120 155 196 244 292 348
#     4  12  25  39  61  89 117 153 191 235 293 353
#     4   9  22  42  62  84 113 151 195 245 291 339
#     4  10  20  35  57  86 122 161 199 245 297 345
#     4  10  20  34  55  86 122 156 195 247 297 341
#
# _framework density 20.449076000000002
#
# number of rings (size 3 to 8) (size 9 to 14) (size 15 to 20)
#    0.000    1.857    0.000    4.286    0.000   11.143 
#    0.000    0.000    0.000    0.000    0.000    0.000 
#    0.000    0.000    0.000    0.000    0.000    0.000 
#
# Total GULP energy -694532.362691 kJ/mol
# GULP energy per Si atom -12402.363619 kJ/mol
# Density = 2.040253 g / cm^3
# Si number density = 20.449076 Si / 1000 Ang^3
#
#
#
# Elastic Constant Matrix: (Units=GPa)
#
#
# Indices 1 2 3 4 5 6 
#
# 1 88.9781 44.0903 39.2925 0.0000 0.0000 0.0000
# 2 44.0903 104.7842 41.1555 0.0000 0.0000 0.0000
# 3 39.2925 41.1555 92.0627 0.0000 0.0000 0.0000
# 4 0.0000 0.0000 0.0000 33.7419 0.0000 0.0000
# 5 0.0000 0.0000 0.0000 0.0000 24.5112 0.0000
# 6 0.0000 0.0000 0.0000 0.0000 0.0000 20.5396
#
#
#
# Elastic Compliance Matrix: (Units=1/GPa)
#
#
# Indices 1 2 3 4 5 6 
#
# 1 0.015610 -0.004793 -0.004520 0.000000 0.000000 0.000000
# 2 -0.004793 0.013048 -0.003787 0.000000 0.000000 0.000000
# 3 -0.004520 -0.003787 0.014484 0.000000 0.000000 0.000000
# 4 0.000000 0.000000 0.000000 0.029637 0.000000 0.000000
# 5 0.000000 0.000000 0.000000 0.000000 0.040798 0.000000
# 6 0.000000 0.000000 0.000000 0.000000 0.000000 0.048686
#
#
# Mechanical properties :
#
#
# Convention : Reuss Voigt Hill
#
# Bulk Modulus (GPa) = 59.02492 59.43350 59.22921
# Shear Modulus (GPa) = 25.75878 26.51100 26.13489
#
# Velocity S-wave (km/s) = 3.55301 3.60452 3.57886
# Velocity P-wave (km/s) = 6.76453 6.81547 6.79005
#
# Compressibility (1/GPa) = 0.01694200
#
# Stress axis : x y z
#
# Youngs Moduli (GPa) = 64.06350 76.64236 69.04125
#
# Poissons Ratio (x) = 0.36734 0.31203
# Poissons Ratio (y) = 0.30705 0.26147
# Poissons Ratio (z) = 0.28954 0.29026
#
# Static dielectric constant tensor:
#      x y z
#    x 3.702400 0.000000 0.000000 
#    y 0.000000 3.852170 0.000000 
#    z 0.000000 0.000000 3.754540 
# 
# 
# High freq. dielectric constant tensor:
#      x y z
#    x 1.797680 0.000000 0.000000 
#    y 0.000000 1.794700 0.000000 
#    z 0.000000 0.000000 1.804940 
# 
# From -- ./inp_files/36915.got.cif
#   From: 2010.03.12/outbox.cif.g09.slc.cpg/sg63_19_cif.got.tgz:36915.got - 2010.04.10 19:34:48.
