data_PCOD8259192
_publ_section_title
;
Structure prediction by ZEFSAII (Michael W. Deem and Ramdas Pophale) SiO2 
 PCOD8259192
Probable space group: C M C M
;
_chemical_formula_sum "Si O2"
_cell_formula_units_Z 112
_cell_length_a 29.884578
_cell_length_b 12.398978
_cell_length_c 15.547614
_cell_angle_alpha 90.000000
_cell_angle_beta 90.000000
_cell_angle_gamma 90.000000
_cell_volume 5760.985297
_symmetry_space_group_name_H-M "C M C M"
_symmetry_group_IT_number 63
_symmetry_cell_setting 'orthorhombic'
loop_
_space_group_symop_operation_xyz
x,y,z
-x,-y,1/2+z
x,-y,-z
-x,y,1/2-z
-x,-y,-z
x,y,1/2-z
-x,y,z
x,-y,1/2+z
1/2+x,1/2+y,z
1/2-x,1/2-y,1/2+z
1/2+x,1/2-y,-z
1/2-x,1/2+y,1/2-z
1/2-x,1/2-y,-z
1/2+x,1/2+y,1/2-z
1/2-x,1/2+y,z
1/2+x,1/2-y,1/2+z
loop_
_atom_site_type_symbol
_atom_site_label
_atom_site_fract_x
_atom_site_fract_y
_atom_site_fract_z
Si Si1 0.050635 0.451681 0.594060
Si Si2 0.305343 0.421901 0.847700
Si Si3 0.332273 0.240719 0.525929
Si Si4 0.878797 0.922078 0.426780
Si Si5 0.787953 0.429426 0.918871
Si Si6 0.865512 0.563510 0.653797
Si Si7 0.449533 0.281271 0.151950
O O1 0.056733 0.500000 0.500000
O O2 0.084334 0.517048 0.654900
O O3 0.062246 0.323821 0.594259
O O4 0.000000 0.468953 0.628214
O O5 0.319151 0.397084 0.750000
O O6 0.308017 0.315764 0.905263
O O7 0.336744 0.519598 0.880714
O O8 0.252679 0.447222 0.852341
O O9 0.365403 0.310030 0.469143
O O10 0.296801 0.189405 0.458551
O O11 0.360164 0.153291 0.580227
O O12 0.918363 0.886538 0.363108
O O13 0.898816 0.000000 0.500000
O O14 0.832273 0.465814 0.868896
O O15 0.774774 0.500000 0.000000
O O16 0.855532 0.608449 0.750000
O O17 0.443779 0.243991 0.250000
O O18 0.500000 0.319782 0.132567
#
# Coordination Sequence:
#
# PCOD8259192 Si02
#       7
#    16  16  16  16  16  16  16
#     4  10  20  35  56  81 110 143 177 216 267 328
#     4  11  22  37  55  79 108 138 179 227 269 308
#     4  10  21  37  55  76 107 146 179 214 262 322
#     4  10  21  37  57  79 106 143 184 222 266 317
#     4  10  20  36  56  77 106 141 177 214 260 320
#     4  11  21  34  54  81 110 139 174 219 268 314
#     4  10  20  35  56  82 109 138 176 223 271 316
#
# _framework density 19.441119
#
# number of rings (size 3 to 8) (size 9 to 14) (size 15 to 20)
#    0.000    1.714    0.000    6.429    0.000    2.286 
#    0.000    5.000    0.000    0.857    0.000    0.000 
#    0.000    0.000    0.000    0.000    0.000    0.000 
#
# Total GULP energy -694114.818550 kJ/mol
# GULP energy per Si atom -12394.907474 kJ/mol
# Density = 1.939687 g / cm^3
# Si number density = 19.441119 Si / 1000 Ang^3
#
#
#
# Elastic Constant Matrix: (Units=GPa)
#
#
# Indices 1 2 3 4 5 6 
#
# 1 114.0178 58.5551 37.5653 0.0000 0.0000 0.0000
# 2 58.5551 108.0806 38.2853 0.0000 0.0000 0.0000
# 3 37.5653 38.2853 91.7480 0.0000 0.0000 0.0000
# 4 0.0000 0.0000 0.0000 19.0335 0.0000 0.0000
# 5 0.0000 0.0000 0.0000 0.0000 27.9129 0.0000
# 6 0.0000 0.0000 0.0000 0.0000 0.0000 29.1331
#
#
#
# Elastic Compliance Matrix: (Units=1/GPa)
#
#
# Indices 1 2 3 4 5 6 
#
# 1 0.012711 -0.005917 -0.002735 0.000000 0.000000 0.000000
# 2 -0.005917 0.013612 -0.003257 0.000000 0.000000 0.000000
# 3 -0.002735 -0.003257 0.013378 0.000000 0.000000 0.000000
# 4 0.000000 0.000000 0.000000 0.052539 0.000000 0.000000
# 5 0.000000 0.000000 0.000000 0.000000 0.035826 0.000000
# 6 0.000000 0.000000 0.000000 0.000000 0.000000 0.034325
#
#
# Mechanical properties :
#
#
# Convention : Reuss Voigt Hill
#
# Bulk Modulus (GPa) = 62.96548 64.73976 63.85262
# Shear Modulus (GPa) = 26.10904 27.17861 26.64383
#
# Velocity S-wave (km/s) = 3.66865 3.74303 3.70603
# Velocity P-wave (km/s) = 7.09953 7.21479 7.15739
#
# Compressibility (1/GPa) = 0.01588172
#
# Stress axis : x y z
#
# Youngs Moduli (GPa) = 78.67433 73.46402 74.74705
#
# Poissons Ratio (x) = 0.43472 0.20443
# Poissons Ratio (y) = 0.46555 0.24347
# Poissons Ratio (z) = 0.21517 0.23930
#
# Static dielectric constant tensor:
#      x y z
#    x 3.536400 0.000000 0.000000 
#    y 0.000000 3.253010 0.000000 
#    z 0.000000 0.000000 3.502850 
# 
# 
# High freq. dielectric constant tensor:
#      x y z
#    x 1.758440 0.000000 0.000000 
#    y 0.000000 1.751390 0.000000 
#    z 0.000000 0.000000 1.759560 
# 
# From -- ./inp_files/38529.got.cif
#   From: 2010.03.12/outbox.cif.g09.slc.cpg/sg63_20_cif.got.tgz:38529.got - 2010.04.10 19:34:48.
