data_PCOD8259879
_publ_section_title
;
Structure prediction by ZEFSAII (Michael W. Deem and Ramdas Pophale) SiO2 
 PCOD8259879
Probable space group: C M C M
;
_chemical_formula_sum "Si O2"
_cell_formula_units_Z 112
_cell_length_a 23.182075
_cell_length_b 14.954443
_cell_length_c 17.785500
_cell_angle_alpha 90.000000
_cell_angle_beta 90.000000
_cell_angle_gamma 90.000000
_cell_volume 6165.788554
_symmetry_space_group_name_H-M "C M C M"
_symmetry_group_IT_number 63
_symmetry_cell_setting 'orthorhombic'
loop_
_space_group_symop_operation_xyz
x,y,z
-x,-y,1/2+z
x,-y,-z
-x,y,1/2-z
-x,-y,-z
x,y,1/2-z
-x,y,z
x,-y,1/2+z
1/2+x,1/2+y,z
1/2-x,1/2-y,1/2+z
1/2+x,1/2-y,-z
1/2-x,1/2+y,1/2-z
1/2-x,1/2-y,-z
1/2+x,1/2+y,1/2-z
1/2-x,1/2+y,z
1/2+x,1/2-y,1/2+z
loop_
_atom_site_type_symbol
_atom_site_label
_atom_site_fract_x
_atom_site_fract_y
_atom_site_fract_z
Si Si1 0.435628 0.024471 0.662065
Si Si2 0.151947 0.980379 0.162291
Si Si3 0.433345 0.647672 0.908749
Si Si4 0.066202 0.649629 0.072700
Si Si5 0.862282 0.657656 0.572491
Si Si6 0.260017 0.414273 0.045696
Si Si7 0.363886 0.641778 0.053349
O O1 0.433491 0.018593 0.750000
O O2 0.500000 0.051582 0.633958
O O3 0.388986 0.097807 0.638116
O O4 0.419660 0.925343 0.633960
O O5 0.163679 0.999260 0.250000
O O6 0.100942 0.908241 0.153816
O O7 0.209673 0.942777 0.123588
O O8 0.133162 0.071459 0.120809
O O9 0.500000 0.624720 0.899339
O O10 0.420093 0.752470 0.893829
O O11 0.413983 0.619824 0.993034
O O12 0.000000 0.645990 0.045139
O O13 0.107433 0.626859 0.003775
O O14 0.793786 0.646476 0.567146
O O15 0.874147 0.761458 0.589992
O O16 0.237610 0.500000 0.000000
O O17 0.303733 0.359790 0.992325
#
# Coordination Sequence:
#
# PCOD8259879 Si02
#       7
#    16  16  16  16  16  16  16
#     4  10  21  34  47  71 110 144 166 200 251 300
#     4  10  21  36  51  72 105 138 167 204 254 307
#     4   9  18  34  57  80  99 127 171 217 257 297
#     4   9  18  33  54  79 103 130 168 214 257 294
#     4  11  19  32  57  80  98 130 177 212 242 299
#     4   9  18  34  54  75  98 128 167 215 260 293
#     4   9  20  35  53  76 105 134 162 208 261 301
#
# _framework density 18.164747999999999
#
# number of rings (size 3 to 8) (size 9 to 14) (size 15 to 20)
#    0.000    2.429    0.000    3.429    0.000    4.857 
#    0.000    1.429    0.000    0.000    0.000    0.000 
#    0.000    0.000    0.000    0.000    0.000    0.000 
#
# Total GULP energy -694431.973395 kJ/mol
# GULP energy per Si atom -12400.570953 kJ/mol
# Density = 1.812340 g / cm^3
# Si number density = 18.164748 Si / 1000 Ang^3
#
#
#
# Elastic Constant Matrix: (Units=GPa)
#
#
# Indices 1 2 3 4 5 6 
#
# 1 66.6911 36.2220 21.5846 0.0000 0.0000 0.0000
# 2 36.2220 100.1116 50.8965 0.0000 0.0000 0.0000
# 3 21.5846 50.8965 88.6787 0.0000 0.0000 0.0000
# 4 0.0000 0.0000 0.0000 16.4509 0.0000 0.0000
# 5 0.0000 0.0000 0.0000 0.0000 -8.2020 0.0000
# 6 0.0000 0.0000 0.0000 0.0000 0.0000 26.1142
#
#
#
# Elastic Compliance Matrix: (Units=1/GPa)
#
#
# Indices 1 2 3 4 5 6 
#
# 1 0.018718 -0.006292 -0.000945 0.000000 0.000000 0.000000
# 2 -0.006292 0.016220 -0.007778 0.000000 0.000000 0.000000
# 3 -0.000945 -0.007778 0.015970 0.000000 0.000000 0.000000
# 4 0.000000 0.000000 0.000000 0.060787 0.000000 0.000000
# 5 0.000000 0.000000 0.000000 0.000000 -0.121921 0.000000
# 6 0.000000 0.000000 0.000000 0.000000 0.000000 0.038293
#
#
# Mechanical properties :
#
#
# Convention : Reuss Voigt Hill
#
# Bulk Modulus (GPa) = 47.89482 52.54307 50.21894
# Shear Modulus (GPa) = 76.85801 16.65785 46.75793
#
# Velocity S-wave (km/s) = 6.51180 3.03156 5.07907
# Velocity P-wave (km/s) = 9.10835 6.42203 7.88050
#
# Compressibility (1/GPa) = 0.02087908
#
# Stress axis : x y z
#
# Youngs Moduli (GPa) = 53.42547 61.65401 62.61554
#
# Poissons Ratio (x) = 0.38793 0.05915
# Poissons Ratio (y) = 0.33616 0.48700
# Poissons Ratio (z) = 0.05047 0.47952
#
# Static dielectric constant tensor:
#      x y z
#    x 3.332280 0.000000 0.000000 
#    y 0.000000 3.445980 0.000000 
#    z 0.000000 0.000000 3.079990 
# 
# 
# High freq. dielectric constant tensor:
#      x y z
#    x 1.704850 0.000000 0.000000 
#    y 0.000000 1.714230 0.000000 
#    z 0.000000 0.000000 1.680910 
# 
# From -- ./inp_files/36925.got.cif
#   From: 2010.03.12/outbox.cif.g09.slc.cpg/sg63_19_cif.got.tgz:36925.got - 2010.04.10 19:34:48.
