data_PCOD8259165
_publ_section_title
;
Structure prediction by ZEFSAII (Michael W. Deem and Ramdas Pophale) SiO2 
 PCOD8259165
Probable space group: C M C M
;
_chemical_formula_sum "Si O2"
_cell_formula_units_Z 88
_cell_length_a 24.976061
_cell_length_b 20.197603
_cell_length_c 8.321421
_cell_angle_alpha 90.000000
_cell_angle_beta 90.000000
_cell_angle_gamma 90.000000
_cell_volume 4197.795450
_symmetry_space_group_name_H-M "C M C M"
_symmetry_group_IT_number 63
_symmetry_cell_setting 'orthorhombic'
loop_
_space_group_symop_operation_xyz
x,y,z
-x,-y,1/2+z
x,-y,-z
-x,y,1/2-z
-x,-y,-z
x,y,1/2-z
-x,y,z
x,-y,1/2+z
1/2+x,1/2+y,z
1/2-x,1/2-y,1/2+z
1/2+x,1/2-y,-z
1/2-x,1/2+y,1/2-z
1/2-x,1/2-y,-z
1/2+x,1/2+y,1/2-z
1/2-x,1/2+y,z
1/2+x,1/2-y,1/2+z
loop_
_atom_site_type_symbol
_atom_site_label
_atom_site_fract_x
_atom_site_fract_y
_atom_site_fract_z
Si Si1 0.940412 0.191722 0.929688
Si Si2 0.500000 0.923774 0.058218
Si Si3 0.758044 0.067908 0.435145
Si Si4 0.591353 0.175234 0.935268
Si Si5 0.790367 0.694932 0.566881
Si Si6 0.625308 0.566279 0.559140
O O1 0.922115 0.212493 0.750000
O O2 0.904655 0.132266 0.996694
O O3 0.000000 0.163256 0.927116
O O4 0.938728 0.255327 0.043853
O O5 0.500000 0.922280 0.250000
O O6 0.553535 0.884368 0.993739
O O7 0.500000 0.000000 0.000000
O O8 0.742214 0.080244 0.250000
O O9 0.737583 0.124938 0.550634
O O10 0.821319 0.065203 0.453883
O O11 0.731662 0.000000 0.500000
O O12 0.599820 0.158507 0.750000
O O13 0.650555 0.186056 0.016397
O O14 0.799391 0.714816 0.750000
O O15 0.750000 0.750000 0.500000
O O16 0.593548 0.500000 0.500000
O O17 0.635762 0.565725 0.750000
#
# Coordination Sequence:
#
# PCOD8259165 Si02
#       6
#    16   8  16  16  16  16
#     4  10  21  36  56  82 113 149 191 237 287 341
#     4  10  22  42  64  90 119 152 197 250 303 362
#     4  11  22  38  59  83 114 153 194 239 292 351
#     4  10  22  40  62  86 117 153 196 244 297 359
#     4  11  23  39  60  90 123 158 200 250 302 363
#     4  10  20  35  55  81 115 153 194 240 285 340
#
# _framework density 20.963383
#
# number of rings (size 3 to 8) (size 9 to 14) (size 15 to 20)
#    0.000    1.636    0.909    4.909    0.000    7.636 
#    0.000    1.818    0.000    0.000    0.000    0.000 
#    0.000    0.000    0.000    0.000    0.000    0.000 
#
# Total GULP energy -545228.170816 kJ/mol
# GULP energy per Si atom -12391.549337 kJ/mol
# Density = 2.091567 g / cm^3
# Si number density = 20.963383 Si / 1000 Ang^3
#
#
#
# Elastic Constant Matrix: (Units=GPa)
#
#
# Indices 1 2 3 4 5 6 
#
# 1 115.5184 66.6304 15.4349 0.0000 0.0000 0.0000
# 2 66.6304 163.3721 10.8583 0.0000 0.0000 0.0000
# 3 15.4349 10.8583 44.5601 0.0000 0.0000 0.0000
# 4 0.0000 0.0000 0.0000 33.4501 0.0000 0.0000
# 5 0.0000 0.0000 0.0000 0.0000 21.1091 0.0000
# 6 0.0000 0.0000 0.0000 0.0000 0.0000 37.2031
#
#
#
# Elastic Compliance Matrix: (Units=1/GPa)
#
#
# Indices 1 2 3 4 5 6 
#
# 1 0.011685 -0.004571 -0.002934 0.000000 0.000000 0.000000
# 2 -0.004571 0.008010 -0.000369 0.000000 0.000000 0.000000
# 3 -0.002934 -0.000369 0.023548 0.000000 0.000000 0.000000
# 4 0.000000 0.000000 0.000000 0.029895 0.000000 0.000000
# 5 0.000000 0.000000 0.000000 0.000000 0.047373 0.000000
# 6 0.000000 0.000000 0.000000 0.000000 0.000000 0.026879
#
#
# Mechanical properties :
#
#
# Convention : Reuss Voigt Hill
#
# Bulk Modulus (GPa) = 36.36851 56.58864 46.47857
# Shear Modulus (GPa) = 29.01896 33.72092 31.36994
#
# Velocity S-wave (km/s) = 3.72461 4.01504 3.87255
# Velocity P-wave (km/s) = 5.99026 6.96755 6.49731
#
# Compressibility (1/GPa) = 0.02749632
#
# Stress axis : x y z
#
# Youngs Moduli (GPa) = 85.58024 124.85002 42.46717
#
# Poissons Ratio (x) = 0.57065 0.12459
# Poissons Ratio (y) = 0.39116 0.01565
# Poissons Ratio (z) = 0.25107 0.04601
#
# Static dielectric constant tensor:
#      x y z
#    x 4.047530 0.000000 0.000000 
#    y 0.000000 4.045580 0.000000 
#    z 0.000000 0.000000 3.533900 
# 
# 
# High freq. dielectric constant tensor:
#      x y z
#    x 1.818210 0.000000 0.000000 
#    y 0.000000 1.834070 0.000000 
#    z 0.000000 0.000000 1.805540 
# 
# From -- ./inp_files/10208.got.cif
#   From: 2010.03.12/outbox.cif.g09.slc.cpg/sg63_6_cif.got.tgz:10208.got - 2010.04.10 19:34:48.
