data_PCOD8259547
_publ_section_title
;
Structure prediction by ZEFSAII (Michael W. Deem and Ramdas Pophale) SiO2 
 PCOD8259547
Probable space group: C M C M
;
_chemical_formula_sum "Si O2"
_cell_formula_units_Z 64
_cell_length_a 8.916088
_cell_length_b 24.107232
_cell_length_c 14.903666
_cell_angle_alpha 90.000000
_cell_angle_beta 90.000000
_cell_angle_gamma 90.000000
_cell_volume 3203.426787
_symmetry_space_group_name_H-M "C M C M"
_symmetry_group_IT_number 63
_symmetry_cell_setting 'orthorhombic'
loop_
_space_group_symop_operation_xyz
x,y,z
-x,-y,1/2+z
x,-y,-z
-x,y,1/2-z
-x,-y,-z
x,y,1/2-z
-x,y,z
x,-y,1/2+z
1/2+x,1/2+y,z
1/2-x,1/2-y,1/2+z
1/2+x,1/2-y,-z
1/2-x,1/2+y,1/2-z
1/2-x,1/2-y,-z
1/2+x,1/2+y,1/2-z
1/2-x,1/2+y,z
1/2+x,1/2-y,1/2+z
loop_
_atom_site_type_symbol
_atom_site_label
_atom_site_fract_x
_atom_site_fract_y
_atom_site_fract_z
Si Si1 0.823500 0.689993 0.250000
Si Si2 0.326822 0.111532 0.589995
Si Si3 0.671540 0.805299 0.250000
Si Si4 0.164811 0.003742 0.893947
Si Si5 0.677767 0.618119 0.099474
O O1 0.785597 0.754676 0.250000
O O2 0.755308 0.663680 0.160632
O O3 0.000000 0.681325 0.250000
O O4 0.500000 0.107060 0.563296
O O5 0.296111 0.158929 0.661881
O O6 0.232070 0.126337 0.502201
O O7 0.277858 0.052570 0.634019
O O8 0.500000 0.784002 0.250000
O O9 0.220721 0.943020 0.861498
O O10 0.000000 0.016871 0.853631
O O11 0.152542 0.000000 0.000000
O O12 0.500000 0.626618 0.101309
#
# Coordination Sequence:
#
# PCOD8259547 Si02
#       5
#     8  16   8  16  16
#     4  12  26  41  60  85 109 144 198 246 283 334
#     4  10  20  36  60  88 117 151 191 236 283 332
#     4  10  24  43  58  79 115 154 192 236 287 338
#     4   8  16  32  55  84 116 151 187 223 277 344
#     4  10  21  39  61  85 118 155 186 228 288 345
#
# _framework density 19.978605000000002
#
# number of rings (size 3 to 8) (size 9 to 14) (size 15 to 20)
#    0.000    2.250    0.000    4.125    0.000    9.500 
#    0.000    2.500    0.000    0.000    0.000    0.000 
#    0.000    0.000    0.000    0.000    0.000    0.000 
#
# Total GULP energy -396754.672493 kJ/mol
# GULP energy per Si atom -12398.583515 kJ/mol
# Density = 1.993313 g / cm^3
# Si number density = 19.978605 Si / 1000 Ang^3
#
#
#
# Elastic Constant Matrix: (Units=GPa)
#
#
# Indices 1 2 3 4 5 6 
#
# 1 128.2513 72.4343 52.7246 0.0000 0.0000 0.0000
# 2 72.4343 134.9210 50.4402 0.0000 0.0000 0.0000
# 3 52.7246 50.4402 88.4350 0.0000 0.0000 0.0000
# 4 0.0000 0.0000 0.0000 34.3853 0.0000 0.0000
# 5 0.0000 0.0000 0.0000 0.0000 -103.2523 0.0000
# 6 0.0000 0.0000 0.0000 0.0000 0.0000 38.7914
#
#
#
# Elastic Compliance Matrix: (Units=1/GPa)
#
#
# Indices 1 2 3 4 5 6 
#
# 1 0.012514 -0.004994 -0.004612 0.000000 0.000000 0.000000
# 2 -0.004994 0.011413 -0.003532 0.000000 0.000000 0.000000
# 3 -0.004612 -0.003532 0.016072 0.000000 0.000000 0.000000
# 4 0.000000 0.000000 0.000000 0.029082 0.000000 0.000000
# 5 0.000000 0.000000 0.000000 0.000000 -0.009685 0.000000
# 6 0.000000 0.000000 0.000000 0.000000 0.000000 0.025779
#
#
# Mechanical properties :
#
#
# Convention : Reuss Voigt Hill
#
# Bulk Modulus (GPa) = 72.87456 78.08948 75.48202
# Shear Modulus (GPa) = 43.09337 5.71877 24.40607
#
# Velocity S-wave (km/s) = 4.64936 1.69371 3.49895
# Velocity P-wave (km/s) = 8.08564 6.55716 7.36118
#
# Compressibility (1/GPa) = 0.01372221
#
# Stress axis : x y z
#
# Youngs Moduli (GPa) = 79.91166 87.61634 62.21846
#
# Poissons Ratio (x) = 0.43755 0.28697
# Poissons Ratio (y) = 0.39907 0.21978
# Poissons Ratio (z) = 0.36858 0.30950
#
# Static dielectric constant tensor:
#      x y z
#    x 3.690170 0.000000 0.000000 
#    y 0.000000 3.903160 0.000000 
#    z 0.000000 0.000000 3.475510 
# 
# 
# High freq. dielectric constant tensor:
#      x y z
#    x 1.781920 0.000000 0.000000 
#    y 0.000000 1.782510 0.000000 
#    z 0.000000 0.000000 1.774230 
# 
# From -- ./inp_files/27542.got.cif
#   From: 2010.03.12/outbox.cif.g09.slc.cpg/sg63_14_cif.got.tgz:27542.got - 2010.04.10 19:34:48.
