data_PCOD8259531
_publ_section_title
;
Structure prediction by ZEFSAII (Michael W. Deem and Ramdas Pophale) SiO2 
 PCOD8259531
Probable space group: C M C M
;
_chemical_formula_sum "Si O2"
_cell_formula_units_Z 96
_cell_length_a 8.905465
_cell_length_b 29.701139
_cell_length_c 19.000968
_cell_angle_alpha 90.000000
_cell_angle_beta 90.000000
_cell_angle_gamma 90.000000
_cell_volume 5025.802661
_symmetry_space_group_name_H-M "C M C M"
_symmetry_group_IT_number 63
_symmetry_cell_setting 'orthorhombic'
loop_
_space_group_symop_operation_xyz
x,y,z
-x,-y,1/2+z
x,-y,-z
-x,y,1/2-z
-x,-y,-z
x,y,1/2-z
-x,y,z
x,-y,1/2+z
1/2+x,1/2+y,z
1/2-x,1/2-y,1/2+z
1/2+x,1/2-y,-z
1/2-x,1/2+y,1/2-z
1/2-x,1/2-y,-z
1/2+x,1/2+y,1/2-z
1/2-x,1/2+y,z
1/2+x,1/2-y,1/2+z
loop_
_atom_site_type_symbol
_atom_site_label
_atom_site_fract_x
_atom_site_fract_y
_atom_site_fract_z
Si Si1 0.674967 0.424209 0.581776
Si Si2 0.324744 0.927539 0.062346
Si Si3 0.176620 0.820639 0.573530
Si Si4 0.823584 0.502662 0.329611
Si Si5 0.324705 0.747398 0.832620
Si Si6 0.323200 0.824402 0.427207
O O1 0.500000 0.433073 0.580413
O O2 0.741139 0.442132 0.508466
O O3 0.714343 0.371974 0.593233
O O4 0.745836 0.451449 0.645989
O O5 0.500000 0.932736 0.047261
O O6 0.269341 0.960189 0.124362
O O7 0.284275 0.876750 0.084388
O O8 0.240457 0.790512 0.636011
O O9 0.257643 0.806883 0.501104
O O10 0.000000 0.812447 0.564426
O O11 0.774690 0.492566 0.250000
O O12 0.000000 0.509753 0.336443
O O13 0.294493 0.746824 0.750000
O O14 0.500000 0.750295 0.850668
O O15 0.256088 0.701806 0.864108
O O16 0.500000 0.814907 0.426104
#
# Coordination Sequence:
#
# PCOD8259531 Si02
#       6
#    16  16  16  16  16  16
#     4  10  21  36  56  82 109 139 178 224 271 318
#     4   9  19  36  58  82 107 140 182 223 263 314
#     4  10  21  38  59  81 108 142 181 225 270 320
#     4  10  21  36  54  78 110 146 181 219 265 317
#     4  11  24  39  55  79 112 146 180 221 270 323
#     4  10  20  36  60  85 109 140 180 225 270 319
#
# _framework density 19.101427000000001
#
# number of rings (size 3 to 8) (size 9 to 14) (size 15 to 20)
#    0.000    2.000    0.000    3.000    0.000    8.333 
#    0.000    5.000    0.000    0.000    0.000    0.000 
#    0.000    0.000    0.000    0.000    0.000    0.000 
#
# Total GULP energy -595455.904822 kJ/mol
# GULP energy per Si atom -12405.331350 kJ/mol
# Density = 1.905795 g / cm^3
# Si number density = 19.101427 Si / 1000 Ang^3
#
#
#
# Elastic Constant Matrix: (Units=GPa)
#
#
# Indices 1 2 3 4 5 6 
#
# 1 56.5095 33.6802 40.9923 0.0000 0.0000 0.0000
# 2 33.6802 91.9711 53.6823 0.0000 0.0000 0.0000
# 3 40.9923 53.6823 107.3259 0.0000 0.0000 0.0000
# 4 0.0000 0.0000 0.0000 25.1670 0.0000 0.0000
# 5 0.0000 0.0000 0.0000 0.0000 28.2727 0.0000
# 6 0.0000 0.0000 0.0000 0.0000 0.0000 32.2621
#
#
#
# Elastic Compliance Matrix: (Units=1/GPa)
#
#
# Indices 1 2 3 4 5 6 
#
# 1 0.026187 -0.005299 -0.007352 0.000000 0.000000 0.000000
# 2 -0.005299 0.016428 -0.006193 0.000000 0.000000 0.000000
# 3 -0.007352 -0.006193 0.015223 0.000000 0.000000 0.000000
# 4 0.000000 0.000000 0.000000 0.039735 0.000000 0.000000
# 5 0.000000 0.000000 0.000000 0.000000 0.035370 0.000000
# 6 0.000000 0.000000 0.000000 0.000000 0.000000 0.030996
#
#
# Mechanical properties :
#
#
# Convention : Reuss Voigt Hill
#
# Bulk Modulus (GPa) = 49.62497 56.94623 53.28560
# Shear Modulus (GPa) = 23.99881 25.63715 24.81798
#
# Velocity S-wave (km/s) = 3.54840 3.66752 3.60845
# Velocity P-wave (km/s) = 6.54403 6.91459 6.73186
#
# Compressibility (1/GPa) = 0.02015115
#
# Stress axis : x y z
#
# Youngs Moduli (GPa) = 38.18664 60.87030 65.68972
#
# Poissons Ratio (x) = 0.32254 0.48293
# Poissons Ratio (y) = 0.20234 0.40684
# Poissons Ratio (z) = 0.28073 0.37699
#
# Static dielectric constant tensor:
#      x y z
#    x 3.537560 0.000000 0.000000 
#    y 0.000000 3.688600 0.000000 
#    z 0.000000 0.000000 3.490450 
# 
# 
# High freq. dielectric constant tensor:
#      x y z
#    x 1.749210 0.000000 0.000000 
#    y 0.000000 1.754730 0.000000 
#    z 0.000000 0.000000 1.738670 
# 
# From -- ./inp_files/51289.got.cif
#   From: 2010.03.12/outbox.cif.g09.slc.cpg/sg63_26_cif.got.tgz:51289.got - 2010.04.10 19:34:48.
