data_PCOD8259758
_publ_section_title
;
Structure prediction by ZEFSAII (Michael W. Deem and Ramdas Pophale) SiO2 
 PCOD8259758
Probable space group: C M C M
;
_chemical_formula_sum "Si O2"
_cell_formula_units_Z 96
_cell_length_a 19.456819
_cell_length_b 11.220739
_cell_length_c 20.730004
_cell_angle_alpha 90.000000
_cell_angle_beta 90.000000
_cell_angle_gamma 90.000000
_cell_volume 4525.772147
_symmetry_space_group_name_H-M "C M C M"
_symmetry_group_IT_number 63
_symmetry_cell_setting 'orthorhombic'
loop_
_space_group_symop_operation_xyz
x,y,z
-x,-y,1/2+z
x,-y,-z
-x,y,1/2-z
-x,-y,-z
x,y,1/2-z
-x,y,z
x,-y,1/2+z
1/2+x,1/2+y,z
1/2-x,1/2-y,1/2+z
1/2+x,1/2-y,-z
1/2-x,1/2+y,1/2-z
1/2-x,1/2-y,-z
1/2+x,1/2+y,1/2-z
1/2-x,1/2+y,z
1/2+x,1/2-y,1/2+z
loop_
_atom_site_type_symbol
_atom_site_label
_atom_site_fract_x
_atom_site_fract_y
_atom_site_fract_z
Si Si1 0.638270 0.240706 0.128134
Si Si2 0.500000 0.880104 0.675039
Si Si3 0.877253 0.985020 0.069641
Si Si4 0.500000 0.857259 0.325496
Si Si5 0.727858 0.828696 0.179036
Si Si6 0.780407 0.476779 0.571412
Si Si7 0.107981 0.164903 0.176291
O O1 0.568772 0.190585 0.157893
O O2 0.617603 0.344174 0.079064
O O3 0.690492 0.301291 0.179423
O O4 0.682190 0.142887 0.091507
O O5 0.500000 0.899200 0.750000
O O6 0.500000 0.011448 0.641096
O O7 0.801022 0.039975 0.066196
O O8 0.912949 0.056587 0.128734
O O9 0.913857 0.000000 0.000000
O O10 0.500000 0.877865 0.250000
O O11 0.433112 0.782676 0.345830
O O12 0.710398 0.883955 0.250000
O O13 0.687924 0.702686 0.170973
O O14 0.703882 0.918955 0.123132
O O15 0.810466 0.500000 0.500000
O O16 0.089305 0.126544 0.250000
#
# Coordination Sequence:
#
# PCOD8259758 Si02
#       7
#    16   8  16   8  16  16  16
#     4  11  23  41  61  93 128 166 214 259 321 377
#     4  11  24  43  64  93 129 166 206 260 332 383
#     4  10  23  39  64  93 127 172 209 262 316 377
#     4   9  20  39  65  90 122 163 203 255 320 383
#     4  10  21  36  62  94 126 164 211 267 313 367
#     4  10  22  38  64  93 127 168 212 263 318 378
#     4  10  20  38  62  93 124 160 211 260 314 379
#
# _framework density 21.211849999999998
#
# number of rings (size 3 to 8) (size 9 to 14) (size 15 to 20)
#    0.000    1.833    1.667    1.500    2.333    8.667 
#    0.000    2.917    0.000    0.000    0.000    0.000 
#    0.000    0.000    0.000    0.000    0.000    0.000 
#
# Total GULP energy -594846.328436 kJ/mol
# GULP energy per Si atom -12392.631842 kJ/mol
# Density = 2.116357 g / cm^3
# Si number density = 21.211850 Si / 1000 Ang^3
#
#
#
# Elastic Constant Matrix: (Units=GPa)
#
#
# Indices 1 2 3 4 5 6 
#
# 1 77.0941 37.6307 15.7008 0.0000 0.0000 0.0000
# 2 37.6307 145.9373 70.4832 0.0000 0.0000 0.0000
# 3 15.7008 70.4832 155.8443 0.0000 0.0000 0.0000
# 4 0.0000 0.0000 0.0000 31.9143 0.0000 0.0000
# 5 0.0000 0.0000 0.0000 0.0000 -0.1955 0.0000
# 6 0.0000 0.0000 0.0000 0.0000 0.0000 51.6133
#
#
#
# Elastic Compliance Matrix: (Units=1/GPa)
#
#
# Indices 1 2 3 4 5 6 
#
# 1 0.014850 -0.003975 0.000302 0.000000 0.000000 0.000000
# 2 -0.003975 0.009831 -0.004046 0.000000 0.000000 0.000000
# 3 0.000302 -0.004046 0.008216 0.000000 0.000000 0.000000
# 4 0.000000 0.000000 0.000000 0.031334 0.000000 0.000000
# 5 0.000000 0.000000 0.000000 0.000000 -5.114248 0.000000
# 6 0.000000 0.000000 0.000000 0.000000 0.000000 0.019375
#
#
# Mechanical properties :
#
#
# Convention : Reuss Voigt Hill
#
# Bulk Modulus (GPa) = 57.27692 69.61167 63.44429
# Shear Modulus (GPa) = -0.99813 33.67048 16.33618
#
# Velocity S-wave (km/s) = -0.68671 3.98847 2.77816
# Velocity P-wave (km/s) = 5.14122 7.35521 6.34552
#
# Compressibility (1/GPa) = 0.01745904
#
# Stress axis : x y z
#
# Youngs Moduli (GPa) = 67.34063 101.71689 121.71226
#
# Poissons Ratio (x) = 0.40430 -0.03671
# Poissons Ratio (y) = 0.26766 0.49243
# Poissons Ratio (z) = -0.02031 0.41153
#
# Static dielectric constant tensor:
#      x y z
#    x 3.610880 0.000000 0.000000 
#    y 0.000000 3.867710 0.000000 
#    z 0.000000 0.000000 3.962520 
# 
# 
# High freq. dielectric constant tensor:
#      x y z
#    x 1.818790 0.000000 0.000000 
#    y 0.000000 1.833310 0.000000 
#    z 0.000000 0.000000 1.825790 
# 
# From -- ./inp_files/56612.got.cif
#   From: 2010.03.12/outbox.cif.g09.slc.cpg/sg63_29_cif.got.tgz:56612.got - 2010.04.10 19:34:48.
