data_PCOD8259626
_publ_section_title
;
Structure prediction by ZEFSAII (Michael W. Deem and Ramdas Pophale) SiO2 
 PCOD8259626
Probable space group: C M C M
;
_chemical_formula_sum "Si O2"
_cell_formula_units_Z 72
_cell_length_a 13.799652
_cell_length_b 30.669858
_cell_length_c 9.499605
_cell_angle_alpha 90.000000
_cell_angle_beta 90.000000
_cell_angle_gamma 90.000000
_cell_volume 4020.549812
_symmetry_space_group_name_H-M "C M C M"
_symmetry_group_IT_number 63
_symmetry_cell_setting 'orthorhombic'
loop_
_space_group_symop_operation_xyz
x,y,z
-x,-y,1/2+z
x,-y,-z
-x,y,1/2-z
-x,-y,-z
x,y,1/2-z
-x,y,z
x,-y,1/2+z
1/2+x,1/2+y,z
1/2-x,1/2-y,1/2+z
1/2+x,1/2-y,-z
1/2-x,1/2+y,1/2-z
1/2-x,1/2-y,-z
1/2+x,1/2+y,1/2-z
1/2-x,1/2+y,z
1/2+x,1/2-y,1/2+z
loop_
_atom_site_type_symbol
_atom_site_label
_atom_site_fract_x
_atom_site_fract_y
_atom_site_fract_z
Si Si1 0.614829 0.446289 0.750000
Si Si2 0.750757 0.586668 0.022336
Si Si3 0.889047 0.243157 0.410829
Si Si4 0.747965 0.472557 0.250000
Si Si5 0.114718 0.450127 0.750000
Si Si6 0.237773 0.182835 0.913859
O O1 0.500000 0.446994 0.750000
O O2 0.653216 0.420974 0.887670
O O3 0.655412 0.495497 0.750000
O O4 0.845888 0.574202 0.111395
O O5 0.744305 0.557014 0.886148
O O6 0.760721 0.636594 0.980872
O O7 0.873053 0.228180 0.250000
O O8 0.854963 0.204034 0.510788
O O9 0.831342 0.287430 0.442456
O O10 0.000000 0.253549 0.443955
O O11 0.847232 0.500196 0.250000
O O12 0.000000 0.449777 0.750000
O O13 0.213380 0.178011 0.750000
#
# Coordination Sequence:
#
# PCOD8259626 Si02
#       6
#     8  16  16   8   8  16
#     4  10  22  38  56  79 112 152 188 225 278 332
#     4  10  21  37  59  83 111 146 187 230 273 324
#     4   9  20  37  58  81 109 144 180 220 274 334
#     4  10  20  38  60  82 110 146 184 232 280 324
#     4  10  22  38  56  83 114 148 186 223 274 332
#     4  10  20  37  59  81 111 145 180 226 275 317
#
# _framework density 17.908000000000001
#
# number of rings (size 3 to 8) (size 9 to 14) (size 15 to 20)
#    0.000    2.444    1.111    2.667    3.111    5.778 
#    0.000    0.000    0.000    0.000    0.000    0.000 
#    0.000    0.000    0.000    0.000    0.000    0.000 
#
# Total GULP energy -446444.750492 kJ/mol
# GULP energy per Si atom -12401.243069 kJ/mol
# Density = 1.786724 g / cm^3
# Si number density = 17.908000 Si / 1000 Ang^3
#
#
#
# Elastic Constant Matrix: (Units=GPa)
#
#
# Indices 1 2 3 4 5 6 
#
# 1 151.6613 42.7428 55.0228 0.0000 0.0000 0.0000
# 2 42.7428 128.0236 66.7555 0.0000 0.0000 0.0000
# 3 55.0228 66.7555 134.3587 0.0000 0.0000 0.0000
# 4 0.0000 0.0000 0.0000 43.2960 0.0000 0.0000
# 5 0.0000 0.0000 0.0000 0.0000 21.0676 0.0000
# 6 0.0000 0.0000 0.0000 0.0000 0.0000 9.3355
#
#
#
# Elastic Compliance Matrix: (Units=1/GPa)
#
#
# Indices 1 2 3 4 5 6 
#
# 1 0.007897 -0.001283 -0.002597 0.000000 0.000000 0.000000
# 2 -0.001283 0.010751 -0.004816 0.000000 0.000000 0.000000
# 3 -0.002597 -0.004816 0.010899 0.000000 0.000000 0.000000
# 4 0.000000 0.000000 0.000000 0.023097 0.000000 0.000000
# 5 0.000000 0.000000 0.000000 0.000000 0.047466 0.000000
# 6 0.000000 0.000000 0.000000 0.000000 0.000000 0.107119
#
#
# Mechanical properties :
#
#
# Convention : Reuss Voigt Hill
#
# Bulk Modulus (GPa) = 82.26511 82.56507 82.41509
# Shear Modulus (GPa) = 21.86543 31.37464 26.62004
#
# Velocity S-wave (km/s) = 3.49805 4.19022 3.85968
# Velocity P-wave (km/s) = 7.89636 8.34361 8.12306
#
# Compressibility (1/GPa) = 0.01215582
#
# Stress axis : x y z
#
# Youngs Moduli (GPa) = 126.62641 93.01862 91.75059
#
# Poissons Ratio (x) = 0.11930 0.23826
# Poissons Ratio (y) = 0.16240 0.44188
# Poissons Ratio (z) = 0.32883 0.44799
#
# Static dielectric constant tensor:
#      x y z
#    x 3.174740 0.000000 0.000000 
#    y 0.000000 3.356530 0.000000 
#    z 0.000000 0.000000 3.498110 
# 
# 
# High freq. dielectric constant tensor:
#      x y z
#    x 1.681070 0.000000 0.000000 
#    y 0.000000 1.699640 0.000000 
#    z 0.000000 0.000000 1.711150 
# 
# From -- ./inp_files/5002.got.cif
#   From: 2010.03.12/outbox.cif.g09.slc.cpg/sg63_3_cif.got.tgz:5002.got - 2010.04.10 19:34:48.
