data_PCOD8259683
_publ_section_title
;
Structure prediction by ZEFSAII (Michael W. Deem and Ramdas Pophale) SiO2 
 PCOD8259683
Probable space group: C M C M
;
_chemical_formula_sum "Si O2"
_cell_formula_units_Z 80
_cell_length_a 7.749138
_cell_length_b 29.171848
_cell_length_c 17.692803
_cell_angle_alpha 90.000000
_cell_angle_beta 90.000000
_cell_angle_gamma 90.000000
_cell_volume 3999.576233
_symmetry_space_group_name_H-M "C M C M"
_symmetry_group_IT_number 63
_symmetry_cell_setting 'orthorhombic'
loop_
_space_group_symop_operation_xyz
x,y,z
-x,-y,1/2+z
x,-y,-z
-x,y,1/2-z
-x,-y,-z
x,y,1/2-z
-x,y,z
x,-y,1/2+z
1/2+x,1/2+y,z
1/2-x,1/2-y,1/2+z
1/2+x,1/2-y,-z
1/2-x,1/2+y,1/2-z
1/2-x,1/2-y,-z
1/2+x,1/2+y,1/2-z
1/2-x,1/2+y,z
1/2+x,1/2-y,1/2+z
loop_
_atom_site_type_symbol
_atom_site_label
_atom_site_fract_x
_atom_site_fract_y
_atom_site_fract_z
Si Si1 0.500000 0.645979 0.160320
Si Si2 0.500000 0.250958 0.660507
Si Si3 0.298777 0.406934 0.424020
Si Si4 0.195913 0.186103 0.838592
Si Si5 0.795669 0.996586 0.335738
Si Si6 0.190296 0.589389 0.091973
O O1 0.500000 0.644072 0.250000
O O2 0.500000 0.697658 0.127673
O O3 0.328704 0.621710 0.131400
O O4 0.500000 0.253538 0.750000
O O5 0.672991 0.225213 0.632368
O O6 0.500000 0.411355 0.442591
O O7 0.255242 0.360514 0.380324
O O8 0.235887 0.448737 0.371899
O O9 0.197605 0.407511 0.501992
O O10 0.218687 0.176807 0.750000
O O11 0.000000 0.201725 0.857214
O O12 0.726932 0.998742 0.250000
O O13 0.714024 0.036970 0.384262
O O14 0.000000 0.001867 0.337570
O O15 0.000000 0.605864 0.117435
#
# Coordination Sequence:
#
# PCOD8259683 Si02
#       6
#     8   8  16  16  16  16
#     4  11  24  46  67  85 116 159 206 258 303 358
#     4   9  20  38  64  91 116 153 203 252 310 358
#     4  10  20  37  62  89 127 164 198 239 305 363
#     4   9  18  35  61  92 123 154 196 251 301 359
#     4  10  20  37  62  91 122 163 207 247 293 355
#     4  12  25  40  61  88 124 162 205 248 302 354
#
# _framework density 20.002116999999998
#
# number of rings (size 3 to 8) (size 9 to 14) (size 15 to 20)
#    0.000    1.800    2.000    1.800    1.400    8.000 
#    0.000    3.000    0.000    0.000    0.000    0.000 
#    0.000    0.000    0.000    0.000    0.000    0.000 
#
# Total GULP energy -496105.807799 kJ/mol
# GULP energy per Si atom -12402.645195 kJ/mol
# Density = 1.995659 g / cm^3
# Si number density = 20.002117 Si / 1000 Ang^3
#
#
#
# Elastic Constant Matrix: (Units=GPa)
#
#
# Indices 1 2 3 4 5 6 
#
# 1 125.1391 79.1810 36.0490 0.0000 0.0000 0.0000
# 2 79.1810 150.3268 37.2095 0.0000 0.0000 0.0000
# 3 36.0490 37.2095 81.0068 0.0000 0.0000 0.0000
# 4 0.0000 0.0000 0.0000 5.3830 0.0000 0.0000
# 5 0.0000 0.0000 0.0000 0.0000 10.2364 0.0000
# 6 0.0000 0.0000 0.0000 0.0000 0.0000 6.4614
#
#
#
# Elastic Compliance Matrix: (Units=1/GPa)
#
#
# Indices 1 2 3 4 5 6 
#
# 1 0.012553 -0.005900 -0.002876 0.000000 0.000000 0.000000
# 2 -0.005900 0.010279 -0.002096 0.000000 0.000000 0.000000
# 3 -0.002876 -0.002096 0.014587 0.000000 0.000000 0.000000
# 4 0.000000 0.000000 0.000000 0.185770 0.000000 0.000000
# 5 0.000000 0.000000 0.000000 0.000000 0.097690 0.000000
# 6 0.000000 0.000000 0.000000 0.000000 0.000000 0.154765
#
#
# Mechanical properties :
#
#
# Convention : Reuss Voigt Hill
#
# Bulk Modulus (GPa) = 63.79610 73.48352 68.63981
# Shear Modulus (GPa) = 9.94801 18.01838 13.98320
#
# Velocity S-wave (km/s) = 2.23255 3.00463 2.64689
# Velocity P-wave (km/s) = 6.21366 6.98961 6.61303
#
# Compressibility (1/GPa) = 0.01567494
#
# Stress axis : x y z
#
# Youngs Moduli (GPa) = 79.66349 97.28940 68.55324
#
# Poissons Ratio (x) = 0.57401 0.19716
# Poissons Ratio (y) = 0.47001 0.14367
# Poissons Ratio (z) = 0.22912 0.20390
#
# Static dielectric constant tensor:
#      x y z
#    x 3.691520 0.000000 0.000000 
#    y 0.000000 3.767040 0.000000 
#    z 0.000000 0.000000 3.594200 
# 
# 
# High freq. dielectric constant tensor:
#      x y z
#    x 1.784430 0.000000 0.000000 
#    y 0.000000 1.780930 0.000000 
#    z 0.000000 0.000000 1.776320 
# 
# From -- ./inp_files/40609.got.cif
#   From: 2010.03.12/outbox.cif.g09.slc.cpg/sg63_21_cif.got.tgz:40609.got - 2010.04.10 19:34:48.
