data_PCOD8259853
_publ_section_title
;
Structure prediction by ZEFSAII (Michael W. Deem and Ramdas Pophale) SiO2 
 PCOD8259853
Probable space group: C M C M
;
_chemical_formula_sum "Si O2"
_cell_formula_units_Z 68
_cell_length_a 22.549601
_cell_length_b 13.795023
_cell_length_c 11.167517
_cell_angle_alpha 90.000000
_cell_angle_beta 90.000000
_cell_angle_gamma 90.000000
_cell_volume 3473.904801
_symmetry_space_group_name_H-M "C M C M"
_symmetry_group_IT_number 63
_symmetry_cell_setting 'orthorhombic'
loop_
_space_group_symop_operation_xyz
x,y,z
-x,-y,1/2+z
x,-y,-z
-x,y,1/2-z
-x,-y,-z
x,y,1/2-z
-x,y,z
x,-y,1/2+z
1/2+x,1/2+y,z
1/2-x,1/2-y,1/2+z
1/2+x,1/2-y,-z
1/2-x,1/2+y,1/2-z
1/2-x,1/2-y,-z
1/2+x,1/2+y,1/2-z
1/2-x,1/2+y,z
1/2+x,1/2-y,1/2+z
loop_
_atom_site_type_symbol
_atom_site_label
_atom_site_fract_x
_atom_site_fract_y
_atom_site_fract_z
Si Si1 0.223627 0.573330 0.112923
Si Si2 0.152541 0.105864 0.455800
Si Si3 0.435000 0.383635 0.750000
Si Si4 0.000000 0.300631 0.250000
Si Si5 0.614465 0.215796 0.386718
Si Si6 0.500000 0.885219 0.999125
O O1 0.221334 0.526840 0.250000
O O2 0.284600 0.636908 0.103544
O O3 0.170266 0.647169 0.098532
O O4 0.216692 0.500000 0.000000
O O5 0.099589 0.085037 0.366043
O O6 0.129437 0.181680 0.552828
O O7 0.169064 0.000000 0.500000
O O8 0.500000 0.434147 0.750000
O O9 0.441215 0.266696 0.750000
O O10 0.000000 0.369312 0.361243
O O11 0.599933 0.239680 0.250000
O O12 0.557811 0.162318 0.441468
O O13 0.500000 0.000000 0.000000
#
# Coordination Sequence:
#
# PCOD8259853 Si02
#       6
#    16  16   8   4  16   8
#     4  10  22  42  66  95 129 167 215 264 322 383
#     4  11  23  40  65  91 124 169 210 260 313 378
#     4  10  20  42  60  88 126 163 213 253 303 372
#     4  10  22  44  66  86 124 168 208 252 310 378
#     4  11  24  43  61  94 130 166 210 265 320 380
#     4  12  25  44  67  94 127 166 209 259 318 380
#
# _framework density 19.574515000000002
#
# number of rings (size 3 to 8) (size 9 to 14) (size 15 to 20)
#    0.353    0.941    3.529    1.765    3.294    1.412 
#    4.235    0.000    0.000    0.000    0.000    0.000 
#    0.000    0.000    0.000    0.000    0.000    0.000 
#
# Total GULP energy -421197.509997 kJ/mol
# GULP energy per Si atom -12388.162059 kJ/mol
# Density = 1.952996 g / cm^3
# Si number density = 19.574515 Si / 1000 Ang^3
#
#
#
# Elastic Constant Matrix: (Units=GPa)
#
#
# Indices 1 2 3 4 5 6 
#
# 1 165.1719 40.3008 57.0473 0.0000 0.0000 0.0000
# 2 40.3008 90.8936 40.4916 0.0000 0.0000 0.0000
# 3 57.0473 40.4916 155.2674 0.0000 0.0000 0.0000
# 4 0.0000 0.0000 0.0000 21.8352 0.0000 0.0000
# 5 0.0000 0.0000 0.0000 0.0000 8.7130 0.0000
# 6 0.0000 0.0000 0.0000 0.0000 0.0000 29.2220
#
#
#
# Elastic Compliance Matrix: (Units=1/GPa)
#
#
# Indices 1 2 3 4 5 6 
#
# 1 0.007344 -0.002324 -0.002092 0.000000 0.000000 0.000000
# 2 -0.002324 0.013184 -0.002584 0.000000 0.000000 0.000000
# 3 -0.002092 -0.002584 0.007883 0.000000 0.000000 0.000000
# 4 0.000000 0.000000 0.000000 0.045798 0.000000 0.000000
# 5 0.000000 0.000000 0.000000 0.000000 0.114771 0.000000
# 6 0.000000 0.000000 0.000000 0.000000 0.000000 0.034221
#
#
# Mechanical properties :
#
#
# Convention : Reuss Voigt Hill
#
# Bulk Modulus (GPa) = 69.39793 76.33472 72.86632
# Shear Modulus (GPa) = 20.66080 30.18691 25.42385
#
# Velocity S-wave (km/s) = 3.25236 3.93129 3.60783
# Velocity P-wave (km/s) = 7.04514 7.72582 7.39332
#
# Compressibility (1/GPa) = 0.01440965
#
# Stress axis : x y z
#
# Youngs Moduli (GPa) = 136.16595 75.85192 126.85356
#
# Poissons Ratio (x) = 0.17629 0.26540
# Poissons Ratio (y) = 0.31647 0.32781
# Poissons Ratio (z) = 0.28488 0.19601
#
# Static dielectric constant tensor:
#      x y z
#    x 3.790900 0.000000 0.000000 
#    y 0.000000 3.321410 0.000000 
#    z 0.000000 0.000000 3.826660 
# 
# 
# High freq. dielectric constant tensor:
#      x y z
#    x 1.789690 0.000000 0.000000 
#    y 0.000000 1.744180 0.000000 
#    z 0.000000 0.000000 1.779020 
# 
# From -- ./inp_files/22351.got.cif
#   From: 2010.03.12/outbox.cif.g09.slc.cpg/sg63_12_cif.got.tgz:22351.got - 2010.04.10 19:34:48.
