data_PCOD8259833
_publ_section_title
;
Structure prediction by ZEFSAII (Michael W. Deem and Ramdas Pophale) SiO2 
 PCOD8259833
Probable space group: C M C M
;
_chemical_formula_sum "Si O2"
_cell_formula_units_Z 72
_cell_length_a 22.089719
_cell_length_b 17.970674
_cell_length_c 8.727581
_cell_angle_alpha 90.000000
_cell_angle_beta 90.000000
_cell_angle_gamma 90.000000
_cell_volume 3464.562859
_symmetry_space_group_name_H-M "C M C M"
_symmetry_group_IT_number 63
_symmetry_cell_setting 'orthorhombic'
loop_
_space_group_symop_operation_xyz
x,y,z
-x,-y,1/2+z
x,-y,-z
-x,y,1/2-z
-x,-y,-z
x,y,1/2-z
-x,y,z
x,-y,1/2+z
1/2+x,1/2+y,z
1/2-x,1/2-y,1/2+z
1/2+x,1/2-y,-z
1/2-x,1/2+y,1/2-z
1/2-x,1/2-y,-z
1/2+x,1/2+y,1/2-z
1/2-x,1/2+y,z
1/2+x,1/2-y,1/2+z
loop_
_atom_site_type_symbol
_atom_site_label
_atom_site_fract_x
_atom_site_fract_y
_atom_site_fract_z
Si Si1 0.000000 0.582142 0.566965
Si Si2 0.624574 0.847602 0.069462
Si Si3 0.928606 0.924588 0.076715
Si Si4 0.254166 0.921789 0.430038
Si Si5 0.343257 0.315054 0.930488
O O1 0.000000 0.500000 0.500000
O O2 0.059573 0.625595 0.504326
O O3 0.000000 0.576940 0.750000
O O4 0.618419 0.839486 0.250000
O O5 0.675951 0.907411 0.024097
O O6 0.646159 0.767957 0.003630
O O7 0.903166 0.920377 0.250000
O O8 0.000000 0.919924 0.075325
O O9 0.904362 0.857967 0.973603
O O10 0.904855 0.000000 0.000000
O O11 0.245611 0.926061 0.250000
O O12 0.214146 0.853386 0.490210
O O13 0.232662 0.000000 0.500000
O O14 0.332365 0.315281 0.750000
#
# Coordination Sequence:
#
# PCOD8259833 Si02
#       5
#     8  16  16  16  16
#     4  10  20  40  64  90 119 152 195 242 287 348
#     4   9  21  38  61  88 118 154 196 241 294 349
#     4  10  21  37  56  81 114 153 196 243 291 346
#     4  11  22  39  60  86 118 156 197 244 293 350
#     4  11  22  37  59  87 116 154 196 239 294 350
#
# _framework density 20.781842999999999
#
# number of rings (size 3 to 8) (size 9 to 14) (size 15 to 20)
#    0.000    1.778    0.000    4.000    1.556    1.333 
#    0.000    6.667    0.000    0.000    0.000    0.000 
#    0.000    0.000    0.000    0.000    0.000    0.000 
#
# Total GULP energy -446412.943575 kJ/mol
# GULP energy per Si atom -12400.359544 kJ/mol
# Density = 2.073454 g / cm^3
# Si number density = 20.781843 Si / 1000 Ang^3
#
#
#
# Elastic Constant Matrix: (Units=GPa)
#
#
# Indices 1 2 3 4 5 6 
#
# 1 129.8852 71.8906 34.4338 0.0000 0.0000 0.0000
# 2 71.8906 146.8330 37.7351 0.0000 0.0000 0.0000
# 3 34.4338 37.7351 72.9464 0.0000 0.0000 0.0000
# 4 0.0000 0.0000 0.0000 29.5013 0.0000 0.0000
# 5 0.0000 0.0000 0.0000 0.0000 20.1799 0.0000
# 6 0.0000 0.0000 0.0000 0.0000 0.0000 22.1779
#
#
#
# Elastic Compliance Matrix: (Units=1/GPa)
#
#
# Indices 1 2 3 4 5 6 
#
# 1 0.011030 -0.004685 -0.002783 0.000000 0.000000 0.000000
# 2 -0.004685 0.009845 -0.002881 0.000000 0.000000 0.000000
# 3 -0.002783 -0.002881 0.016513 0.000000 0.000000 0.000000
# 4 0.000000 0.000000 0.000000 0.033897 0.000000 0.000000
# 5 0.000000 0.000000 0.000000 0.000000 0.049554 0.000000
# 6 0.000000 0.000000 0.000000 0.000000 0.000000 0.045090
#
#
# Mechanical properties :
#
#
# Convention : Reuss Voigt Hill
#
# Bulk Modulus (GPa) = 59.91952 70.86484 65.39218
# Shear Modulus (GPa) = 26.01584 28.07881 27.04732
#
# Velocity S-wave (km/s) = 3.54199 3.67975 3.61153
# Velocity P-wave (km/s) = 6.75447 7.22686 6.99465
#
# Compressibility (1/GPa) = 0.01668905
#
# Stress axis : x y z
#
# Youngs Moduli (GPa) = 90.66053 101.57643 60.55912
#
# Poissons Ratio (x) = 0.47591 0.16854
# Poissons Ratio (y) = 0.42477 0.17448
# Poissons Ratio (z) = 0.25231 0.29265
#
# Static dielectric constant tensor:
#      x y z
#    x 3.949080 0.000000 0.000000 
#    y 0.000000 4.062590 0.000000 
#    z 0.000000 0.000000 3.638240 
# 
# 
# High freq. dielectric constant tensor:
#      x y z
#    x 1.829930 0.000000 0.000000 
#    y 0.000000 1.821640 0.000000 
#    z 0.000000 0.000000 1.796370 
# 
# From -- ./inp_files/11757.got.cif
#   From: 2010.03.12/outbox.cif.g09.slc.cpg/sg63_6_cif.got.tgz:11757.got - 2010.04.10 19:34:48.
