data_PCOD8259945
_publ_section_title
;
Structure prediction by ZEFSAII (Michael W. Deem and Ramdas Pophale) SiO2 
 PCOD8259945
Probable space group: C M C M
;
_chemical_formula_sum "Si O2"
_cell_formula_units_Z 96
_cell_length_a 17.363056
_cell_length_b 29.408441
_cell_length_c 10.001037
_cell_angle_alpha 90.000000
_cell_angle_beta 90.000000
_cell_angle_gamma 90.000000
_cell_volume 5106.733593
_symmetry_space_group_name_H-M "C M C M"
_symmetry_group_IT_number 63
_symmetry_cell_setting 'orthorhombic'
loop_
_space_group_symop_operation_xyz
x,y,z
-x,-y,1/2+z
x,-y,-z
-x,y,1/2-z
-x,-y,-z
x,y,1/2-z
-x,y,z
x,-y,1/2+z
1/2+x,1/2+y,z
1/2-x,1/2-y,1/2+z
1/2+x,1/2-y,-z
1/2-x,1/2+y,1/2-z
1/2-x,1/2-y,-z
1/2+x,1/2+y,1/2-z
1/2-x,1/2+y,z
1/2+x,1/2-y,1/2+z
loop_
_atom_site_type_symbol
_atom_site_label
_atom_site_fract_x
_atom_site_fract_y
_atom_site_fract_z
Si Si1 0.586866 0.696886 0.104100
Si Si2 0.806775 0.277939 0.098846
Si Si3 0.136507 0.458683 0.404863
Si Si4 0.910892 0.873785 0.401465
Si Si5 0.586503 0.141299 0.591393
Si Si6 0.816284 0.037516 0.899877
O O1 0.593975 0.673398 0.250000
O O2 0.500000 0.702432 0.056972
O O3 0.618691 0.747039 0.110523
O O4 0.627756 0.664985 0.994109
O O5 0.770928 0.284317 0.250000
O O6 0.843562 0.325293 0.039857
O O7 0.750000 0.250000 0.000000
O O8 0.106823 0.500000 0.500000
O O9 0.114548 0.469442 0.250000
O O10 0.100194 0.410968 0.453785
O O11 0.227171 0.452268 0.422231
O O12 0.900025 0.857564 0.250000
O O13 0.863790 0.918200 0.433927
O O14 0.000000 0.883156 0.436230
O O15 0.589957 0.144199 0.750000
O O16 0.500000 0.155260 0.541156
O O17 0.832414 0.020481 0.750000
O O18 0.847944 0.000000 0.000000
#
# Coordination Sequence:
#
# PCOD8259945 Si02
#       6
#    16  16  16  16  16  16
#     4   9  18  33  51  72 100 133 169 209 252 298
#     4  10  21  35  54  80 107 137 173 214 256 303
#     4   9  18  33  53  77 103 135 173 216 263 312
#     4   9  18  31  48  71  98 131 170 211 256 307
#     4   9  18  34  57  81 105 139 181 218 255 309
#     4   9  18  31  47  68  97 131 168 211 258 309
#
# _framework density 18.798708000000001
#
# number of rings (size 3 to 8) (size 9 to 14) (size 15 to 20)
#    0.000    2.833    0.000    0.500    2.333    4.000 
#    0.000    0.833    0.000    2.500    0.000    0.000 
#    0.000    0.000    0.000    0.000    0.000    0.000 
#
# Total GULP energy -594681.423197 kJ/mol
# GULP energy per Si atom -12389.196317 kJ/mol
# Density = 1.875592 g / cm^3
# Si number density = 18.798708 Si / 1000 Ang^3
#
#
#
# Elastic Constant Matrix: (Units=GPa)
#
#
# Indices 1 2 3 4 5 6 
#
# 1 41.6172 44.2526 19.6620 0.0000 0.0000 0.0000
# 2 44.2526 112.8768 57.3972 0.0000 0.0000 0.0000
# 3 19.6620 57.3972 59.9218 0.0000 0.0000 0.0000
# 4 0.0000 0.0000 0.0000 33.4283 0.0000 0.0000
# 5 0.0000 0.0000 0.0000 0.0000 11.0240 0.0000
# 6 0.0000 0.0000 0.0000 0.0000 0.0000 12.5574
#
#
#
# Elastic Compliance Matrix: (Units=1/GPa)
#
#
# Indices 1 2 3 4 5 6 
#
# 1 0.041657 -0.018289 0.003849 0.000000 0.000000 0.000000
# 2 -0.018289 0.025301 -0.018234 0.000000 0.000000 0.000000
# 3 0.003849 -0.018234 0.032891 0.000000 0.000000 0.000000
# 4 0.000000 0.000000 0.000000 0.029915 0.000000 0.000000
# 5 0.000000 0.000000 0.000000 0.000000 0.090711 0.000000
# 6 0.000000 0.000000 0.000000 0.000000 0.000000 0.079634
#
#
# Mechanical properties :
#
#
# Convention : Reuss Voigt Hill
#
# Bulk Modulus (GPa) = 28.98362 50.78217 39.88289
# Shear Modulus (GPa) = 13.26414 17.60890 15.43652
#
# Velocity S-wave (km/s) = 2.65917 3.06389 2.86868
# Velocity P-wave (km/s) = 4.98795 6.29197 5.67752
#
# Compressibility (1/GPa) = 0.03450225
#
# Stress axis : x y z
#
# Youngs Moduli (GPa) = 24.00581 39.52398 30.40323
#
# Poissons Ratio (x) = 0.72284 -0.11703
# Poissons Ratio (y) = 0.43903 0.55438
# Poissons Ratio (z) = -0.09241 0.72069
#
# Static dielectric constant tensor:
#      x y z
#    x 3.421010 0.000000 0.000000 
#    y 0.000000 3.665270 0.000000 
#    z 0.000000 0.000000 3.435520 
# 
# 
# High freq. dielectric constant tensor:
#      x y z
#    x 1.727590 0.000000 0.000000 
#    y 0.000000 1.732720 0.000000 
#    z 0.000000 0.000000 1.708860 
# 
# From -- ./inp_files/8638.got.cif
#   From: 2010.03.12/outbox.cif.g09.slc.cpg/sg63_5_cif.got.tgz:8638.got - 2010.04.10 19:34:48.
