data_PCOD8259972
_publ_section_title
;
Structure prediction by ZEFSAII (Michael W. Deem and Ramdas Pophale) SiO2 
 PCOD8259972
Probable space group: C M C M
;
_chemical_formula_sum "Si O2"
_cell_formula_units_Z 96
_cell_length_a 8.733637
_cell_length_b 30.526052
_cell_length_c 19.247842
_cell_angle_alpha 90.000000
_cell_angle_beta 90.000000
_cell_angle_gamma 90.000000
_cell_volume 5131.541221
_symmetry_space_group_name_H-M "C M C M"
_symmetry_group_IT_number 63
_symmetry_cell_setting 'orthorhombic'
loop_
_space_group_symop_operation_xyz
x,y,z
-x,-y,1/2+z
x,-y,-z
-x,y,1/2-z
-x,-y,-z
x,y,1/2-z
-x,y,z
x,-y,1/2+z
1/2+x,1/2+y,z
1/2-x,1/2-y,1/2+z
1/2+x,1/2-y,-z
1/2-x,1/2+y,1/2-z
1/2-x,1/2-y,-z
1/2+x,1/2+y,1/2-z
1/2-x,1/2+y,z
1/2+x,1/2-y,1/2+z
loop_
_atom_site_type_symbol
_atom_site_label
_atom_site_fract_x
_atom_site_fract_y
_atom_site_fract_z
Si Si1 0.682768 0.936975 0.672092
Si Si2 0.317696 0.014132 0.924665
Si Si3 0.181092 0.690209 0.829693
Si Si4 0.319272 0.237794 0.426228
Si Si5 0.817901 0.388327 0.424221
Si Si6 0.318687 0.860772 0.574147
O O1 0.749359 0.936706 0.750000
O O2 0.500000 0.936754 0.673267
O O3 0.745806 0.894028 0.632193
O O4 0.743966 0.980440 0.633207
O O5 0.500000 0.013118 0.926374
O O6 0.258099 0.062903 0.906100
O O7 0.254114 0.000000 0.000000
O O8 0.232997 0.688574 0.750000
O O9 0.258247 0.731786 0.865202
O O10 0.240305 0.645600 0.865941
O O11 0.000000 0.695017 0.837681
O O12 0.500000 0.242144 0.432280
O O13 0.250000 0.250000 0.500000
O O14 0.269255 0.188426 0.406559
O O15 0.751094 0.373601 0.498792
O O16 0.000000 0.388168 0.426764
O O17 0.500000 0.865156 0.570721
#
# Coordination Sequence:
#
# PCOD8259972 Si02
#       6
#    16  16  16  16  16  16
#     4   9  16  24  35  58  92 124 156 199 248 297
#     4   9  14  21  37  59  86 124 164 197 237 298
#     4  10  21  36  52  73 104 138 173 216 261 304
#     4  11  21  34  55  78 102 134 176 216 257 310
#     4   9  15  26  44  64  90 127 168 200 242 300
#     4   9  16  27  44  64  89 125 163 201 246 304
#
# _framework density 18.707830000000001
#
# number of rings (size 3 to 8) (size 9 to 14) (size 15 to 20)
#    0.000    2.500    3.333    0.500    0.000    1.667 
#    0.000    5.000    0.000    0.000    0.000    0.000 
#    0.000    7.333    0.000    2.000    0.000    1.333 
#
# Total GULP energy -595066.524105 kJ/mol
# GULP energy per Si atom -12397.219252 kJ/mol
# Density = 1.866525 g / cm^3
# Si number density = 18.707830 Si / 1000 Ang^3
#
#
#
# Elastic Constant Matrix: (Units=GPa)
#
#
# Indices 1 2 3 4 5 6 
#
# 1 13.9051 21.0317 21.0042 0.0000 0.0000 0.0000
# 2 21.0317 214.7565 115.0049 0.0000 0.0000 0.0000
# 3 21.0042 115.0049 186.2867 0.0000 0.0000 0.0000
# 4 0.0000 0.0000 0.0000 39.1149 0.0000 0.0000
# 5 0.0000 0.0000 0.0000 0.0000 14.4985 0.0000
# 6 0.0000 0.0000 0.0000 0.0000 0.0000 17.8013
#
#
#
# Elastic Compliance Matrix: (Units=1/GPa)
#
#
# Indices 1 2 3 4 5 6 
#
# 1 0.090217 -0.005061 -0.007048 0.000000 0.000000 0.000000
# 2 -0.005061 0.007240 -0.003899 0.000000 0.000000 0.000000
# 3 -0.007048 -0.003899 0.008570 0.000000 0.000000 0.000000
# 4 0.000000 0.000000 0.000000 0.025566 0.000000 0.000000
# 5 0.000000 0.000000 0.000000 0.000000 0.068972 0.000000
# 6 0.000000 0.000000 0.000000 0.000000 0.000000 0.056176
#
#
# Mechanical properties :
#
#
# Convention : Reuss Voigt Hill
#
# Bulk Modulus (GPa) = 13.51146 81.00333 47.25740
# Shear Modulus (GPa) = 15.95270 31.47680 23.71475
#
# Velocity S-wave (km/s) = 2.92332 4.10634 3.56425
# Velocity P-wave (km/s) = 4.31653 8.11639 6.50032
#
# Compressibility (1/GPa) = 0.07401123
#
# Stress axis : x y z
#
# Youngs Moduli (GPa) = 11.08439 138.12026 116.68879
#
# Poissons Ratio (x) = 0.69904 0.82239
# Poissons Ratio (y) = 0.05610 0.45497
# Poissons Ratio (z) = 0.07812 0.53854
#
# Static dielectric constant tensor:
#      x y z
#    x 2.753890 0.000000 0.000000 
#    y 0.000000 3.847710 0.000000 
#    z 0.000000 0.000000 3.624310 
# 
# 
# High freq. dielectric constant tensor:
#      x y z
#    x 1.652030 0.000000 0.000000 
#    y 0.000000 1.748090 0.000000 
#    z 0.000000 0.000000 1.728680 
# 
# From -- ./inp_files/53272.got.cif
#   From: 2010.03.12/outbox.cif.g09.slc.cpg/sg63_27_cif.got.tgz:53272.got - 2010.04.10 19:34:48.
