data_PCOD8259949
_publ_section_title
;
Structure prediction by ZEFSAII (Michael W. Deem and Ramdas Pophale) SiO2 
 PCOD8259949
Probable space group: C M C M
;
_chemical_formula_sum "Si O2"
_cell_formula_units_Z 72
_cell_length_a 13.018826
_cell_length_b 31.354258
_cell_length_c 9.420965
_cell_angle_alpha 90.000000
_cell_angle_beta 90.000000
_cell_angle_gamma 90.000000
_cell_volume 3845.596736
_symmetry_space_group_name_H-M "C M C M"
_symmetry_group_IT_number 63
_symmetry_cell_setting 'orthorhombic'
loop_
_space_group_symop_operation_xyz
x,y,z
-x,-y,1/2+z
x,-y,-z
-x,y,1/2-z
-x,-y,-z
x,y,1/2-z
-x,y,z
x,-y,1/2+z
1/2+x,1/2+y,z
1/2-x,1/2-y,1/2+z
1/2+x,1/2-y,-z
1/2-x,1/2+y,1/2-z
1/2-x,1/2-y,-z
1/2+x,1/2+y,1/2-z
1/2-x,1/2+y,z
1/2+x,1/2-y,1/2+z
loop_
_atom_site_type_symbol
_atom_site_label
_atom_site_fract_x
_atom_site_fract_y
_atom_site_fract_z
Si Si1 0.217696 0.683742 0.414966
Si Si2 0.500000 0.043076 0.914451
Si Si3 0.194167 0.399762 0.084548
Si Si4 0.116571 0.957617 0.085419
Si Si5 0.618306 0.728376 0.590514
O O1 0.232141 0.673367 0.250000
O O2 0.175288 0.642367 0.493455
O O3 0.326631 0.697541 0.479699
O O4 0.137302 0.721855 0.442681
O O5 0.500000 0.031255 0.750000
O O6 0.601931 0.068856 0.955665
O O7 0.500000 0.000000 0.000000
O O8 0.191837 0.387601 0.250000
O O9 0.303650 0.420664 0.042162
O O10 0.129527 0.969163 0.250000
O O11 0.000000 0.942161 0.051774
O O12 0.144287 0.000000 0.000000
O O13 0.657577 0.718058 0.750000
O O14 0.500000 0.718099 0.574825
#
# Coordination Sequence:
#
# PCOD8259949 Si02
#       5
#    16   8  16  16  16
#     4  10  21  35  54  83 110 137 181 228 270 320
#     4  10  22  38  56  80 110 148 190 234 282 332
#     4  10  21  36  53  77 110 144 180 221 272 333
#     4   9  18  33  53  75 100 133 172 214 263 319
#     4   9  19  37  58  77 106 146 181 220 274 332
#
# _framework density 18.722712000000001
#
# number of rings (size 3 to 8) (size 9 to 14) (size 15 to 20)
#    0.000    2.444    0.000    1.333    1.556    4.000 
#    0.000    2.222    0.000    0.000    0.000    0.000 
#    0.000    0.000    0.000    0.000    0.000    0.000 
#
# Total GULP energy -446478.805332 kJ/mol
# GULP energy per Si atom -12402.189037 kJ/mol
# Density = 1.868010 g / cm^3
# Si number density = 18.722712 Si / 1000 Ang^3
#
#
#
# Elastic Constant Matrix: (Units=GPa)
#
#
# Indices 1 2 3 4 5 6 
#
# 1 90.5491 42.3087 38.6848 0.0000 0.0000 0.0000
# 2 42.3087 114.4369 65.5523 0.0000 0.0000 0.0000
# 3 38.6848 65.5523 83.7013 0.0000 0.0000 0.0000
# 4 0.0000 0.0000 0.0000 42.2262 0.0000 0.0000
# 5 0.0000 0.0000 0.0000 0.0000 21.6701 0.0000
# 6 0.0000 0.0000 0.0000 0.0000 0.0000 15.1839
#
#
#
# Elastic Compliance Matrix: (Units=1/GPa)
#
#
# Indices 1 2 3 4 5 6 
#
# 1 0.014208 -0.002705 -0.004448 0.000000 0.000000 0.000000
# 2 -0.002705 0.016363 -0.011565 0.000000 0.000000 0.000000
# 3 -0.004448 -0.011565 0.023061 0.000000 0.000000 0.000000
# 4 0.000000 0.000000 0.000000 0.023682 0.000000 0.000000
# 5 0.000000 0.000000 0.000000 0.000000 0.046146 0.000000
# 6 0.000000 0.000000 0.000000 0.000000 0.000000 0.065859
#
#
# Mechanical properties :
#
#
# Convention : Reuss Voigt Hill
#
# Bulk Modulus (GPa) = 61.74581 64.64210 63.19396
# Shear Modulus (GPa) = 21.53743 25.29216 23.41479
#
# Velocity S-wave (km/s) = 3.39534 3.67942 3.54023
# Velocity P-wave (km/s) = 6.95858 7.25616 7.10893
#
# Compressibility (1/GPa) = 0.01619543
#
# Stress axis : x y z
#
# Youngs Moduli (GPa) = 70.38318 61.11281 43.36410
#
# Poissons Ratio (x) = 0.16529 0.19290
# Poissons Ratio (y) = 0.19037 0.50151
# Poissons Ratio (z) = 0.31309 0.70677
#
# Static dielectric constant tensor:
#      x y z
#    x 3.531440 0.000000 0.000000 
#    y 0.000000 3.292980 0.000000 
#    z 0.000000 0.000000 3.479080 
# 
# 
# High freq. dielectric constant tensor:
#      x y z
#    x 1.733270 0.000000 0.000000 
#    y 0.000000 1.722580 0.000000 
#    z 0.000000 0.000000 1.726790 
# 
# From -- ./inp_files/4641.got.cif
#   From: 2010.03.12/outbox.cif.g09.slc.cpg/sg63_3_cif.got.tgz:4641.got - 2010.04.10 19:34:48.
