data_PCOD8259121
_publ_section_title
;
Structure prediction by ZEFSAII (Michael W. Deem and Ramdas Pophale) SiO2 
 PCOD8259121
Probable space group: C M C M
;
_chemical_formula_sum "Si O2"
_cell_formula_units_Z 96
_cell_length_a 8.849170
_cell_length_b 23.514369
_cell_length_c 25.084074
_cell_angle_alpha 90.000000
_cell_angle_beta 90.000000
_cell_angle_gamma 90.000000
_cell_volume 5219.560559
_symmetry_space_group_name_H-M "C M C M"
_symmetry_group_IT_number 63
_symmetry_cell_setting 'orthorhombic'
loop_
_space_group_symop_operation_xyz
x,y,z
-x,-y,1/2+z
x,-y,-z
-x,y,1/2-z
-x,-y,-z
x,y,1/2-z
-x,y,z
x,-y,1/2+z
1/2+x,1/2+y,z
1/2-x,1/2-y,1/2+z
1/2+x,1/2-y,-z
1/2-x,1/2+y,1/2-z
1/2-x,1/2-y,-z
1/2+x,1/2+y,1/2-z
1/2-x,1/2+y,z
1/2+x,1/2-y,1/2+z
loop_
_atom_site_type_symbol
_atom_site_label
_atom_site_fract_x
_atom_site_fract_y
_atom_site_fract_z
Si Si1 0.177842 0.366633 0.847432
Si Si2 0.824021 0.064601 0.062045
Si Si3 0.178043 0.368642 0.152595
Si Si4 0.179216 0.554028 0.750000
Si Si5 0.177903 0.245643 0.187632
Si Si6 0.174852 0.935206 0.060969
Si Si7 0.678619 0.432128 0.750000
O O1 0.221317 0.392723 0.904402
O O2 0.232121 0.301731 0.845241
O O3 0.259737 0.402347 0.802253
O O4 0.000000 0.370108 0.838803
O O5 0.000000 0.073613 0.075769
O O6 0.775837 0.999684 0.074771
O O7 0.792048 0.078323 0.000490
O O8 0.233014 0.411406 0.198322
O O9 0.238932 0.305665 0.165373
O O10 0.233659 0.389900 0.095472
O O11 0.000000 0.366264 0.152681
O O12 0.272124 0.496756 0.750000
O O13 0.000000 0.542088 0.750000
O O14 0.216292 0.240608 0.250000
O O15 0.000000 0.237978 0.177944
O O16 0.000000 0.927577 0.074117
O O17 0.500000 0.426860 0.750000
#
# Coordination Sequence:
#
# PCOD8259121 Si02
#       7
#    16  16  16   8  16  16   8
#     4  12  24  37  56  85 113 141 186 239 282 324
#     4   9  19  38  60  82 113 152 188 226 278 339
#     4  10  20  35  57  84 114 147 186 230 280 334
#     4  10  20  35  54  83 117 144 178 230 279 328
#     4  10  20  38  60  79 107 154 194 223 277 343
#     4   9  19  36  59  85 113 148 190 231 275 331
#     4  12  24  37  54  79 113 152 184 218 275 342
#
# _framework density 18.392354000000001
#
# number of rings (size 3 to 8) (size 9 to 14) (size 15 to 20)
#    0.000    1.833    1.667    4.250    0.000    5.333 
#    0.000    2.500    0.000    0.000    0.000    0.000 
#    0.000    0.000    0.000    0.000    0.000    0.000 
#
# Total GULP energy -595351.755077 kJ/mol
# GULP energy per Si atom -12403.161564 kJ/mol
# Density = 1.835049 g / cm^3
# Si number density = 18.392354 Si / 1000 Ang^3
#
#
#
# Elastic Constant Matrix: (Units=GPa)
#
#
# Indices 1 2 3 4 5 6 
#
# 1 70.5394 51.6624 32.6756 0.0000 0.0000 0.0000
# 2 51.6624 137.9009 58.7322 0.0000 0.0000 0.0000
# 3 32.6756 58.7322 89.5417 0.0000 0.0000 0.0000
# 4 0.0000 0.0000 0.0000 49.7650 0.0000 0.0000
# 5 0.0000 0.0000 0.0000 0.0000 35.6224 0.0000
# 6 0.0000 0.0000 0.0000 0.0000 0.0000 31.6447
#
#
#
# Elastic Compliance Matrix: (Units=1/GPa)
#
#
# Indices 1 2 3 4 5 6 
#
# 1 0.020235 -0.006155 -0.003347 0.000000 0.000000 0.000000
# 2 -0.006155 0.011935 -0.005582 0.000000 0.000000 0.000000
# 3 -0.003347 -0.005582 0.016051 0.000000 0.000000 0.000000
# 4 0.000000 0.000000 0.000000 0.020094 0.000000 0.000000
# 5 0.000000 0.000000 0.000000 0.000000 0.028072 0.000000
# 6 0.000000 0.000000 0.000000 0.000000 0.000000 0.031601
#
#
# Mechanical properties :
#
#
# Convention : Reuss Voigt Hill
#
# Bulk Modulus (GPa) = 55.39512 64.90248 60.14880
# Shear Modulus (GPa) = 30.45547 33.73388 32.09468
#
# Velocity S-wave (km/s) = 4.07366 4.28731 4.18185
# Velocity P-wave (km/s) = 7.23258 7.73773 7.48942
#
# Compressibility (1/GPa) = 0.01805213
#
# Stress axis : x y z
#
# Youngs Moduli (GPa) = 49.41972 83.78687 62.30225
#
# Poissons Ratio (x) = 0.51573 0.20851
# Poissons Ratio (y) = 0.30419 0.34779
# Poissons Ratio (z) = 0.16540 0.46772
#
# Static dielectric constant tensor:
#      x y z
#    x 3.236560 0.000000 0.000000 
#    y 0.000000 3.569830 0.000000 
#    z 0.000000 0.000000 3.538020 
# 
# 
# High freq. dielectric constant tensor:
#      x y z
#    x 1.705200 0.000000 0.000000 
#    y 0.000000 1.719560 0.000000 
#    z 0.000000 0.000000 1.714900 
# 
# From -- ./inp_files/60050.got.cif
#   From: 2010.03.12/outbox.cif.g09.slc.cpg/sg63_31_cif.got.tgz:60050.got - 2010.04.10 19:34:48.
