data_PCOD8259505
_publ_section_title
;
Structure prediction by ZEFSAII (Michael W. Deem and Ramdas Pophale) SiO2 
 PCOD8259505
Probable space group: C M C M
;
_chemical_formula_sum "Si O2"
_cell_formula_units_Z 64
_cell_length_a 18.539843
_cell_length_b 7.669707
_cell_length_c 24.825198
_cell_angle_alpha 90.000000
_cell_angle_beta 90.000000
_cell_angle_gamma 90.000000
_cell_volume 3530.023092
_symmetry_space_group_name_H-M "C M C M"
_symmetry_group_IT_number 63
_symmetry_cell_setting 'orthorhombic'
loop_
_space_group_symop_operation_xyz
x,y,z
-x,-y,1/2+z
x,-y,-z
-x,y,1/2-z
-x,-y,-z
x,y,1/2-z
-x,y,z
x,-y,1/2+z
1/2+x,1/2+y,z
1/2-x,1/2-y,1/2+z
1/2+x,1/2-y,-z
1/2-x,1/2+y,1/2-z
1/2-x,1/2-y,-z
1/2+x,1/2+y,1/2-z
1/2-x,1/2+y,z
1/2+x,1/2-y,1/2+z
loop_
_atom_site_type_symbol
_atom_site_label
_atom_site_fract_x
_atom_site_fract_y
_atom_site_fract_z
Si Si1 0.419355 0.634766 0.837472
Si Si2 0.332264 0.316586 0.649127
Si Si3 0.918388 0.047801 0.058818
Si Si4 0.815115 0.436049 0.811224
O O1 0.500000 0.630885 0.813894
O O2 0.376671 0.461949 0.816342
O O3 0.419668 0.625424 0.903171
O O4 0.383006 0.810220 0.817195
O O5 0.364164 0.313416 0.587679
O O6 0.248322 0.372431 0.649094
O O7 0.342530 0.128139 0.674767
O O8 0.000000 0.125205 0.054383
O O9 0.888082 0.000000 0.000000
O O10 0.786381 0.431473 0.750000
#
# Coordination Sequence:
#
# PCOD8259505 Si02
#       4
#    16  16  16  16
#     4   9  21  39  58  84 118 148 189 239 281 341
#     4  10  20  36  59  85 113 150 193 236 280 341
#     4   8  16  36  62  83 113 152 184 231 294 343
#     4  12  23  37  58  83 117 158 195 235 289 337
#
# _framework density 18.130192999999998
#
# number of rings (size 3 to 8) (size 9 to 14) (size 15 to 20)
#    1.500    0.750    2.500    0.750    0.000    3.500 
#    0.000    6.250    0.000    6.750    0.000    0.000 
#    0.000    0.000    0.000    0.000    0.000    0.000 
#
# Total GULP energy -396426.113628 kJ/mol
# GULP energy per Si atom -12388.316051 kJ/mol
# Density = 1.808893 g / cm^3
# Si number density = 18.130193 Si / 1000 Ang^3
#
#
#
# Elastic Constant Matrix: (Units=GPa)
#
#
# Indices 1 2 3 4 5 6 
#
# 1 86.8117 40.5544 1.0847 0.0000 0.0000 0.0000
# 2 40.5544 134.8807 9.0758 0.0000 0.0000 0.0000
# 3 1.0847 9.0758 75.5494 0.0000 0.0000 0.0000
# 4 0.0000 0.0000 0.0000 20.4508 0.0000 0.0000
# 5 0.0000 0.0000 0.0000 0.0000 12.6266 0.0000
# 6 0.0000 0.0000 0.0000 0.0000 0.0000 23.6600
#
#
#
# Elastic Compliance Matrix: (Units=1/GPa)
#
#
# Indices 1 2 3 4 5 6 
#
# 1 0.013408 -0.004051 0.000294 0.000000 0.000000 0.000000
# 2 -0.004051 0.008698 -0.000987 0.000000 0.000000 0.000000
# 3 0.000294 -0.000987 0.013351 0.000000 0.000000 0.000000
# 4 0.000000 0.000000 0.000000 0.048898 0.000000 0.000000
# 5 0.000000 0.000000 0.000000 0.000000 0.079198 0.000000
# 6 0.000000 0.000000 0.000000 0.000000 0.000000 0.042266
#
#
# Mechanical properties :
#
#
# Convention : Reuss Voigt Hill
#
# Bulk Modulus (GPa) = 38.50658 44.29682 41.40170
# Shear Modulus (GPa) = 22.32518 27.78260 25.05389
#
# Velocity S-wave (km/s) = 3.51291 3.91883 3.72141
# Velocity P-wave (km/s) = 6.14322 6.70537 6.43044
#
# Compressibility (1/GPa) = 0.02596958
#
# Stress axis : x y z
#
# Youngs Moduli (GPa) = 74.58221 114.96344 74.90243
#
# Poissons Ratio (x) = 0.46574 -0.02203
# Poissons Ratio (y) = 0.30214 0.07391
# Poissons Ratio (z) = -0.02194 0.11344
#
# Static dielectric constant tensor:
#      x y z
#    x 3.327790 0.000000 0.000000 
#    y 0.000000 3.130080 0.000000 
#    z 0.000000 0.000000 3.178120 
# 
# 
# High freq. dielectric constant tensor:
#      x y z
#    x 1.709970 0.000000 0.000000 
#    y 0.000000 1.681570 0.000000 
#    z 0.000000 0.000000 1.684930 
# 
# From -- ./inp_files/63427.got.cif
#   From: 2010.03.12/outbox.cif.g09.slc.cpg/sg63_32_cif.got.tgz:63427.got - 2010.04.10 19:34:48.
