data_PCOD8259118
_publ_section_title
;
Structure prediction by ZEFSAII (Michael W. Deem and Ramdas Pophale) SiO2 
 PCOD8259118
Probable space group: C M C M
;
_chemical_formula_sum "Si O2"
_cell_formula_units_Z 112
_cell_length_a 23.456259
_cell_length_b 14.555552
_cell_length_c 15.441334
_cell_angle_alpha 90.000000
_cell_angle_beta 90.000000
_cell_angle_gamma 90.000000
_cell_volume 5271.961688
_symmetry_space_group_name_H-M "C M C M"
_symmetry_group_IT_number 63
_symmetry_cell_setting 'orthorhombic'
loop_
_space_group_symop_operation_xyz
x,y,z
-x,-y,1/2+z
x,-y,-z
-x,y,1/2-z
-x,-y,-z
x,y,1/2-z
-x,y,z
x,-y,1/2+z
1/2+x,1/2+y,z
1/2-x,1/2-y,1/2+z
1/2+x,1/2-y,-z
1/2-x,1/2+y,1/2-z
1/2-x,1/2-y,-z
1/2+x,1/2+y,1/2-z
1/2-x,1/2+y,z
1/2+x,1/2-y,1/2+z
loop_
_atom_site_type_symbol
_atom_site_label
_atom_site_fract_x
_atom_site_fract_y
_atom_site_fract_z
Si Si1 0.243318 0.301952 0.650832
Si Si2 0.065500 0.279455 0.023496
Si Si3 0.118440 0.749997 0.150198
Si Si4 0.936666 0.926974 0.576004
Si Si5 0.263363 0.008195 0.904031
Si Si6 0.352354 0.449036 0.345149
Si Si7 0.160689 0.333136 0.150607
O O1 0.245435 0.273872 0.750000
O O2 0.182204 0.269671 0.615869
O O3 0.248749 0.410201 0.638837
O O4 0.295851 0.243692 0.610054
O O5 0.078626 0.173076 0.041782
O O6 0.105076 0.337601 0.088910
O O7 0.000000 0.305990 0.042041
O O8 0.077806 0.298949 0.920994
O O9 0.107372 0.714651 0.250000
O O10 0.107801 0.859366 0.144986
O O11 0.000000 0.928460 0.616511
O O12 0.930630 0.000000 0.500000
O O13 0.890736 0.959196 0.646617
O O14 0.201343 0.056799 0.909964
O O15 0.308615 0.067536 0.849876
O O16 0.288549 0.000000 0.000000
O O17 0.324564 0.451025 0.250000
O O18 0.142120 0.311755 0.250000
#
# Coordination Sequence:
#
# PCOD8259118 Si02
#       7
#    16  16  16  16  16  16  16
#     4  10  21  38  61  91 124 162 206 255 314 383
#     4  11  24  40  62  88 121 167 219 263 311 380
#     4  10  21  37  59  87 126 164 205 258 312 374
#     4  10  20  35  54  81 119 161 207 256 305 368
#     4  12  24  36  62  93 124 164 204 258 320 386
#     4  11  21  34  54  84 122 163 203 247 307 376
#     4  11  24  43  65  93 132 168 207 266 326 381
#
# _framework density 21.244464000000001
#
# number of rings (size 3 to 8) (size 9 to 14) (size 15 to 20)
#    0.000    1.286    2.857    3.429    2.000    3.714 
#    0.000    2.857    0.000    3.857    0.000    4.000 
#    0.000    0.000    0.000    0.000    0.000    0.000 
#
# Total GULP energy -694214.724143 kJ/mol
# GULP energy per Si atom -12396.691503 kJ/mol
# Density = 2.119611 g / cm^3
# Si number density = 21.244464 Si / 1000 Ang^3
#
#
#
# Elastic Constant Matrix: (Units=GPa)
#
#
# Indices 1 2 3 4 5 6 
#
# 1 117.1802 24.2846 47.6498 0.0000 0.0000 0.0000
# 2 24.2846 61.7911 20.0554 0.0000 0.0000 0.0000
# 3 47.6498 20.0554 94.0920 0.0000 0.0000 0.0000
# 4 0.0000 0.0000 0.0000 26.8012 0.0000 0.0000
# 5 0.0000 0.0000 0.0000 0.0000 24.9218 0.0000
# 6 0.0000 0.0000 0.0000 0.0000 0.0000 28.1952
#
#
#
# Elastic Compliance Matrix: (Units=1/GPa)
#
#
# Indices 1 2 3 4 5 6 
#
# 1 0.011163 -0.002742 -0.005069 0.000000 0.000000 0.000000
# 2 -0.002742 0.018060 -0.002461 0.000000 0.000000 0.000000
# 3 -0.005069 -0.002461 0.013719 0.000000 0.000000 0.000000
# 4 0.000000 0.000000 0.000000 0.037312 0.000000 0.000000
# 5 0.000000 0.000000 0.000000 0.000000 0.040125 0.000000
# 6 0.000000 0.000000 0.000000 0.000000 0.000000 0.035467
#
#
# Mechanical properties :
#
#
# Convention : Reuss Voigt Hill
#
# Bulk Modulus (GPa) = 44.64447 50.78253 47.71350
# Shear Modulus (GPa) = 27.19511 28.05522 27.62517
#
# Velocity S-wave (km/s) = 3.58173 3.63793 3.60994
# Velocity P-wave (km/s) = 6.17781 6.44995 6.31535
#
# Compressibility (1/GPa) = 0.02239919
#
# Stress axis : x y z
#
# Youngs Moduli (GPa) = 89.57907 55.37118 72.88981
#
# Poissons Ratio (x) = 0.15184 0.36947
# Poissons Ratio (y) = 0.24564 0.17936
# Poissons Ratio (z) = 0.45406 0.13625
#
# Static dielectric constant tensor:
#      x y z
#    x 3.774960 0.000000 0.000000 
#    y 0.000000 3.678790 0.000000 
#    z 0.000000 0.000000 3.799250 
# 
# 
# High freq. dielectric constant tensor:
#      x y z
#    x 1.820120 0.000000 0.000000 
#    y 0.000000 1.812390 0.000000 
#    z 0.000000 0.000000 1.831560 
# 
# From -- ./inp_files/36867.got.cif
#   From: 2010.03.12/outbox.cif.g09.slc.cpg/sg63_19_cif.got.tgz:36867.got - 2010.04.10 19:34:48.
