data_PCOD8259551
_publ_section_title
;
Structure prediction by ZEFSAII (Michael W. Deem and Ramdas Pophale) SiO2 
 PCOD8259551
Probable space group: C M C M
;
_chemical_formula_sum "Si O2"
_cell_formula_units_Z 72
_cell_length_a 16.451234
_cell_length_b 24.647163
_cell_length_c 8.944457
_cell_angle_alpha 90.000000
_cell_angle_beta 90.000000
_cell_angle_gamma 90.000000
_cell_volume 3626.764846
_symmetry_space_group_name_H-M "C M C M"
_symmetry_group_IT_number 63
_symmetry_cell_setting 'orthorhombic'
loop_
_space_group_symop_operation_xyz
x,y,z
-x,-y,1/2+z
x,-y,-z
-x,y,1/2-z
-x,-y,-z
x,y,1/2-z
-x,y,z
x,-y,1/2+z
1/2+x,1/2+y,z
1/2-x,1/2-y,1/2+z
1/2+x,1/2-y,-z
1/2-x,1/2+y,1/2-z
1/2-x,1/2-y,-z
1/2+x,1/2+y,1/2-z
1/2-x,1/2+y,z
1/2+x,1/2-y,1/2+z
loop_
_atom_site_type_symbol
_atom_site_label
_atom_site_fract_x
_atom_site_fract_y
_atom_site_fract_z
Si Si1 0.500000 0.940412 0.429197
Si Si2 0.095444 0.946975 0.420559
Si Si3 0.874085 0.638443 0.074587
Si Si4 0.090482 0.252353 0.080512
Si Si5 0.686686 0.351957 0.575810
O O1 0.500000 0.944226 0.250000
O O2 0.580473 0.908781 0.483704
O O3 0.500000 0.000000 0.500000
O O4 0.120488 0.951728 0.250000
O O5 0.132543 0.893123 0.485814
O O6 0.000000 0.943662 0.446038
O O7 0.132234 0.000000 0.500000
O O8 0.889031 0.629122 0.250000
O O9 0.779544 0.637837 0.031834
O O10 0.908165 0.696881 0.030035
O O11 0.108712 0.271963 0.250000
O O12 0.157557 0.208366 0.029491
O O13 0.000000 0.226457 0.071452
O O14 0.670865 0.361115 0.750000
#
# Coordination Sequence:
#
# PCOD8259551 Si02
#       5
#     8  16  16  16  16
#     4  12  26  46  70  92 118 158 207 258 315 374
#     4  10  21  37  58  84 116 156 200 246 298 355
#     4  11  23  40  62  90 123 158 200 251 305 362
#     4  10  20  36  60  89 124 165 203 242 298 360
#     4  10  22  38  59  89 124 161 201 247 302 363
#
# _framework density 19.852404
#
# number of rings (size 3 to 8) (size 9 to 14) (size 15 to 20)
#    0.000    1.556    1.111    3.667    0.000    5.778 
#    0.000    0.000    0.000    0.000    0.000    0.000 
#    0.000    0.000    0.000    0.000    0.000    0.000 
#
# Total GULP energy -446497.322984 kJ/mol
# GULP energy per Si atom -12402.703416 kJ/mol
# Density = 1.980722 g / cm^3
# Si number density = 19.852404 Si / 1000 Ang^3
#
#
#
# Elastic Constant Matrix: (Units=GPa)
#
#
# Indices 1 2 3 4 5 6 
#
# 1 143.5751 61.7110 64.8149 0.0000 0.0000 0.0000
# 2 61.7110 146.4563 72.7065 0.0000 0.0000 0.0000
# 3 64.8149 72.7065 99.6257 0.0000 0.0000 0.0000
# 4 0.0000 0.0000 0.0000 40.0748 0.0000 0.0000
# 5 0.0000 0.0000 0.0000 0.0000 18.7293 0.0000
# 6 0.0000 0.0000 0.0000 0.0000 0.0000 6.7205
#
#
#
# Elastic Compliance Matrix: (Units=1/GPa)
#
#
# Indices 1 2 3 4 5 6 
#
# 1 0.010082 -0.001556 -0.005424 0.000000 0.000000 0.000000
# 2 -0.001556 0.010947 -0.006977 0.000000 0.000000 0.000000
# 3 -0.005424 -0.006977 0.018658 0.000000 0.000000 0.000000
# 4 0.000000 0.000000 0.000000 0.024953 0.000000 0.000000
# 5 0.000000 0.000000 0.000000 0.000000 0.053392 0.000000
# 6 0.000000 0.000000 0.000000 0.000000 0.000000 0.148799
#
#
# Mechanical properties :
#
#
# Convention : Reuss Voigt Hill
#
# Bulk Modulus (GPa) = 84.93254 87.56911 86.25083
# Shear Modulus (GPa) = 16.74082 25.79989 21.27035
#
# Velocity S-wave (km/s) = 2.90705 3.60889 3.27681
# Velocity P-wave (km/s) = 7.35818 7.84674 7.60638
#
# Compressibility (1/GPa) = 0.01177405
#
# Stress axis : x y z
#
# Youngs Moduli (GPa) = 99.18451 91.34789 53.59526
#
# Poissons Ratio (x) = 0.14209 0.29071
# Poissons Ratio (y) = 0.15428 0.37395
# Poissons Ratio (z) = 0.53799 0.63735
#
# Static dielectric constant tensor:
#      x y z
#    x 3.868520 0.000000 0.000000 
#    y 0.000000 3.603270 0.000000 
#    z 0.000000 0.000000 1.687390 
# 
# 
# High freq. dielectric constant tensor:
#      x y z
#    x 1.781630 0.000000 0.000000 
#    y 0.000000 1.776790 0.000000 
#    z 0.000000 0.000000 1.779020 
# 
# From -- ./inp_files/4603.got.cif
#   From: 2010.03.12/outbox.cif.g09.slc.cpg/sg63_3_cif.got.tgz:4603.got - 2010.04.10 19:34:48.
