data_PCOD8259266
_publ_section_title
;
Structure prediction by ZEFSAII (Michael W. Deem and Ramdas Pophale) SiO2 
 PCOD8259266
Probable space group: C M C M
;
_chemical_formula_sum "Si O2"
_cell_formula_units_Z 88
_cell_length_a 19.405048
_cell_length_b 24.436689
_cell_length_c 8.959727
_cell_angle_alpha 90.000000
_cell_angle_beta 90.000000
_cell_angle_gamma 90.000000
_cell_volume 4248.658847
_symmetry_space_group_name_H-M "C M C M"
_symmetry_group_IT_number 63
_symmetry_cell_setting 'orthorhombic'
loop_
_space_group_symop_operation_xyz
x,y,z
-x,-y,1/2+z
x,-y,-z
-x,y,1/2-z
-x,-y,-z
x,y,1/2-z
-x,y,z
x,-y,1/2+z
1/2+x,1/2+y,z
1/2-x,1/2-y,1/2+z
1/2+x,1/2-y,-z
1/2-x,1/2+y,1/2-z
1/2-x,1/2-y,-z
1/2+x,1/2+y,1/2-z
1/2-x,1/2+y,z
1/2+x,1/2-y,1/2+z
loop_
_atom_site_type_symbol
_atom_site_label
_atom_site_fract_x
_atom_site_fract_y
_atom_site_fract_z
Si Si1 0.272269 0.554297 0.420942
Si Si2 0.609455 0.053549 0.082041
Si Si3 0.175216 0.757682 0.927936
Si Si4 0.630890 0.366596 0.073126
Si Si5 0.500000 0.560114 0.925975
Si Si6 0.576269 0.161207 0.918030
O O1 0.301400 0.500000 0.500000
O O2 0.298262 0.555529 0.250000
O O3 0.191053 0.557503 0.431963
O O4 0.299787 0.605308 0.514251
O O5 0.584587 0.048259 0.250000
O O6 0.575889 0.107462 0.017003
O O7 0.580971 0.000000 0.000000
O O8 0.182045 0.764811 0.750000
O O9 0.131972 0.704534 0.975012
O O10 0.250000 0.750000 0.000000
O O11 0.130814 0.807626 0.995014
O O12 0.633565 0.358603 0.250000
O O13 0.566049 0.404003 0.024075
O O14 0.500000 0.550486 0.750000
O O15 0.500000 0.500000 0.000000
O O16 0.594585 0.143581 0.750000
O O17 0.500000 0.187733 0.927055
#
# Coordination Sequence:
#
# PCOD8259266 Si02
#       6
#    16  16  16  16   8  16
#     4  10  20  35  57  87 120 155 200 251 306 363
#     4  10  21  37  60  89 120 155 196 242 297 357
#     4  11  24  42  66  93 123 161 207 258 315 374
#     4  11  23  39  60  87 122 162 208 258 313 373
#     4  10  24  42  60  88 126 168 213 264 319 380
#     4  10  23  42  62  86 119 157 199 246 297 356
#
# _framework density 20.712419000000001
#
# number of rings (size 3 to 8) (size 9 to 14) (size 15 to 20)
#    0.000    1.636    0.000    3.818    1.273   10.182 
#    0.000    0.000    0.000    0.000    0.000    0.000 
#    0.000    0.000    0.000    0.000    0.000    0.000 
#
# Total GULP energy -545685.946456 kJ/mol
# GULP energy per Si atom -12401.953329 kJ/mol
# Density = 2.066528 g / cm^3
# Si number density = 20.712419 Si / 1000 Ang^3
#
#
#
# Elastic Constant Matrix: (Units=GPa)
#
#
# Indices 1 2 3 4 5 6 
#
# 1 86.4431 62.9697 51.5540 0.0000 0.0000 0.0000
# 2 62.9697 153.7649 65.5438 0.0000 0.0000 0.0000
# 3 51.5540 65.5438 108.4772 0.0000 0.0000 0.0000
# 4 0.0000 0.0000 0.0000 44.4995 0.0000 0.0000
# 5 0.0000 0.0000 0.0000 0.0000 25.4036 0.0000
# 6 0.0000 0.0000 0.0000 0.0000 0.0000 33.8284
#
#
#
# Elastic Compliance Matrix: (Units=1/GPa)
#
#
# Indices 1 2 3 4 5 6 
#
# 1 0.018842 -0.005252 -0.005781 0.000000 0.000000 0.000000
# 2 -0.005252 0.010223 -0.003681 0.000000 0.000000 0.000000
# 3 -0.005781 -0.003681 0.014190 0.000000 0.000000 0.000000
# 4 0.000000 0.000000 0.000000 0.022472 0.000000 0.000000
# 5 0.000000 0.000000 0.000000 0.000000 0.039365 0.000000
# 6 0.000000 0.000000 0.000000 0.000000 0.000000 0.029561
#
#
# Mechanical properties :
#
#
# Convention : Reuss Voigt Hill
#
# Bulk Modulus (GPa) = 72.32304 78.75779 75.54041
# Shear Modulus (GPa) = 29.63998 31.98749 30.81373
#
# Velocity S-wave (km/s) = 3.78699 3.93410 3.86125
# Velocity P-wave (km/s) = 7.35631 7.66441 7.51194
#
# Compressibility (1/GPa) = 0.01382685
#
# Stress axis : x y z
#
# Youngs Moduli (GPa) = 53.07300 97.81625 70.47009
#
# Poissons Ratio (x) = 0.51370 0.40742
# Poissons Ratio (y) = 0.27873 0.25941
# Poissons Ratio (z) = 0.30684 0.36008
#
# Static dielectric constant tensor:
#      x y z
#    x 3.743790 0.000000 0.000000 
#    y 0.000000 3.926600 0.000000 
#    z 0.000000 0.000000 3.525740 
# 
# 
# High freq. dielectric constant tensor:
#      x y z
#    x 1.816550 0.000000 0.000000 
#    y 0.000000 1.819430 0.000000 
#    z 0.000000 0.000000 1.817650 
# 
# From -- ./inp_files/10185.got.cif
#   From: 2010.03.12/outbox.cif.g09.slc.cpg/sg63_6_cif.got.tgz:10185.got - 2010.04.10 19:34:48.
