data_PCOD8259087
_publ_section_title
;
Structure prediction by ZEFSAII (Michael W. Deem and Ramdas Pophale) SiO2 
 PCOD8259087
Probable space group: C M C M
;
_chemical_formula_sum "Si O2"
_cell_formula_units_Z 80
_cell_length_a 9.201366
_cell_length_b 27.686253
_cell_length_c 18.025760
_cell_angle_alpha 90.000000
_cell_angle_beta 90.000000
_cell_angle_gamma 90.000000
_cell_volume 4592.086641
_symmetry_space_group_name_H-M "C M C M"
_symmetry_group_IT_number 63
_symmetry_cell_setting 'orthorhombic'
loop_
_space_group_symop_operation_xyz
x,y,z
-x,-y,1/2+z
x,-y,-z
-x,y,1/2-z
-x,-y,-z
x,y,1/2-z
-x,y,z
x,-y,1/2+z
1/2+x,1/2+y,z
1/2-x,1/2-y,1/2+z
1/2+x,1/2-y,-z
1/2-x,1/2+y,1/2-z
1/2-x,1/2-y,-z
1/2+x,1/2+y,1/2-z
1/2-x,1/2+y,z
1/2+x,1/2-y,1/2+z
loop_
_atom_site_type_symbol
_atom_site_label
_atom_site_fract_x
_atom_site_fract_y
_atom_site_fract_z
Si Si1 0.331519 0.062506 0.888635
Si Si2 0.669267 0.111231 0.041738
Si Si3 0.833783 0.849076 0.331805
Si Si4 0.672699 0.039678 0.166557
Si Si5 0.171478 0.799075 0.480235
O O1 0.500000 0.064301 0.868780
O O2 0.257123 0.102145 0.837106
O O3 0.266134 0.010066 0.868456
O O4 0.303652 0.073574 0.975008
O O5 0.500000 0.126440 0.045229
O O6 0.722832 0.084959 0.116697
O O7 0.766576 0.158761 0.032617
O O8 0.808760 0.826112 0.250000
O O9 0.788465 0.810460 0.394451
O O10 0.000000 0.863936 0.344330
O O11 0.732773 0.046704 0.250000
O O12 0.500000 0.037407 0.165860
O O13 0.250000 0.750000 0.500000
O O14 0.000000 0.794062 0.493391
#
# Coordination Sequence:
#
# PCOD8259087 Si02
#       5
#    16  16  16  16  16
#     4   9  16  27  46  71  97 125 158 194 229 267
#     4   9  17  30  48  69  94 125 159 194 232 274
#     4   9  18  32  49  71  97 121 148 187 235 282
#     4   9  16  26  43  69  99 130 163 194 223 263
#     4  10  20  35  54  72  91 118 153 193 236 282
#
# _framework density 17.421274
#
# number of rings (size 3 to 8) (size 9 to 14) (size 15 to 20)
#    0.000    2.800    0.000    1.800    0.000    4.400 
#    0.000    2.000    0.000   12.600    0.000    0.000 
#    0.000    0.000    0.000    0.000    0.000    0.000 
#
# Total GULP energy -495918.867299 kJ/mol
# GULP energy per Si atom -12397.971682 kJ/mol
# Density = 1.738162 g / cm^3
# Si number density = 17.421274 Si / 1000 Ang^3
#
#
#
# Elastic Constant Matrix: (Units=GPa)
#
#
# Indices 1 2 3 4 5 6 
#
# 1 52.5640 54.0007 39.2383 0.0000 0.0000 0.0000
# 2 54.0007 145.8512 84.5885 0.0000 0.0000 0.0000
# 3 39.2383 84.5885 125.2018 0.0000 0.0000 0.0000
# 4 0.0000 0.0000 0.0000 19.4046 0.0000 0.0000
# 5 0.0000 0.0000 0.0000 0.0000 19.1493 0.0000
# 6 0.0000 0.0000 0.0000 0.0000 0.0000 24.9924
#
#
#
# Elastic Compliance Matrix: (Units=1/GPa)
#
#
# Indices 1 2 3 4 5 6 
#
# 1 0.031499 -0.009762 -0.003276 0.000000 0.000000 0.000000
# 2 -0.009762 0.014299 -0.006601 0.000000 0.000000 0.000000
# 3 -0.003276 -0.006601 0.013474 0.000000 0.000000 0.000000
# 4 0.000000 0.000000 0.000000 0.051534 0.000000 0.000000
# 5 0.000000 0.000000 0.000000 0.000000 0.052221 0.000000
# 6 0.000000 0.000000 0.000000 0.000000 0.000000 0.040012
#
#
# Mechanical properties :
#
#
# Convention : Reuss Voigt Hill
#
# Bulk Modulus (GPa) = 50.01861 75.47467 62.74664
# Shear Modulus (GPa) = 20.08158 22.42854 21.25506
#
# Velocity S-wave (km/s) = 3.39883 3.59196 3.49673
# Velocity P-wave (km/s) = 6.64653 7.78590 7.23866
#
# Compressibility (1/GPa) = 0.01999256
#
# Stress axis : x y z
#
# Youngs Moduli (GPa) = 31.74671 69.93348 74.21769
#
# Poissons Ratio (x) = 0.68271 0.24316
# Poissons Ratio (y) = 0.30992 0.48994
# Poissons Ratio (z) = 0.10401 0.46165
#
# Static dielectric constant tensor:
#      x y z
#    x 3.067080 0.000000 0.000000 
#    y 0.000000 3.174550 0.000000 
#    z 0.000000 0.000000 3.502790 
# 
# 
# High freq. dielectric constant tensor:
#      x y z
#    x 1.650870 0.000000 0.000000 
#    y 0.000000 1.660960 0.000000 
#    z 0.000000 0.000000 1.678440 
# 
# From -- ./inp_files/40417.got.cif
#   From: 2010.03.12/outbox.cif.g09.slc.cpg/sg63_21_cif.got.tgz:40417.got - 2010.04.10 19:34:48.
