data_PCOD8259528
_publ_section_title
;
Structure prediction by ZEFSAII (Michael W. Deem and Ramdas Pophale) SiO2 
 PCOD8259528
Probable space group: C M C M
;
_chemical_formula_sum "Si O2"
_cell_formula_units_Z 96
_cell_length_a 10.773454
_cell_length_b 17.542171
_cell_length_c 25.438730
_cell_angle_alpha 90.000000
_cell_angle_beta 90.000000
_cell_angle_gamma 90.000000
_cell_volume 4807.659791
_symmetry_space_group_name_H-M "C M C M"
_symmetry_group_IT_number 63
_symmetry_cell_setting 'orthorhombic'
loop_
_space_group_symop_operation_xyz
x,y,z
-x,-y,1/2+z
x,-y,-z
-x,y,1/2-z
-x,-y,-z
x,y,1/2-z
-x,y,z
x,-y,1/2+z
1/2+x,1/2+y,z
1/2-x,1/2-y,1/2+z
1/2+x,1/2-y,-z
1/2-x,1/2+y,1/2-z
1/2-x,1/2-y,-z
1/2+x,1/2+y,1/2-z
1/2-x,1/2+y,z
1/2+x,1/2-y,1/2+z
loop_
_atom_site_type_symbol
_atom_site_label
_atom_site_fract_x
_atom_site_fract_y
_atom_site_fract_z
Si Si1 0.139152 0.707654 0.862391
Si Si2 0.500000 0.608410 0.462029
Si Si3 0.500000 0.436892 0.076896
Si Si4 0.359945 0.811110 0.250000
Si Si5 0.641205 0.043142 0.448190
Si Si6 0.235981 0.050276 0.860746
Si Si7 0.149738 0.062872 0.750000
Si Si8 0.243703 0.198074 0.449173
O O1 0.147423 0.740621 0.802791
O O2 0.161922 0.616763 0.857207
O O3 0.244772 0.747365 0.898114
O O4 0.000000 0.719147 0.885873
O O5 0.500000 0.612837 0.524700
O O6 0.500000 0.525462 0.437294
O O7 0.619759 0.650565 0.441784
O O8 0.618447 0.412975 0.110432
O O9 0.500000 0.851304 0.250000
O O10 0.234931 0.861850 0.250000
O O11 0.500000 0.017161 0.443519
O O12 0.647138 0.135210 0.452836
O O13 0.699490 0.000000 0.500000
O O14 0.711688 0.019206 0.395235
O O15 0.191250 0.018551 0.803429
O O16 0.000000 0.078685 0.750000
O O17 0.250000 0.250000 0.500000
#
# Coordination Sequence:
#
# PCOD8259528 Si02
#       8
#    16   8   8   8  16  16   8  16
#     4  10  20  38  60  86 115 153 199 249 293 355
#     4  11  22  36  56  82 119 156 194 242 303 364
#     4  11  20  35  58  84 118 155 195 238 300 368
#     4   8  18  36  61  84 115 161 209 245 303 366
#     4  11  24  42  62  87 121 160 203 248 304 369
#     4  11  21  38  62  87 121 158 201 248 306 362
#     4  10  20  36  59  96 125 153 205 265 313 362
#     4  12  24  37  57  85 121 156 199 246 300 360
#
# _framework density 19.968136000000001
#
# number of rings (size 3 to 8) (size 9 to 14) (size 15 to 20)
#    0.000    1.333    3.333    3.500    1.167    2.000 
#    1.500    0.833    0.000    1.000    0.000    0.000 
#    0.000    0.000    0.000    0.000    0.000    0.000 
#
# Total GULP energy -594793.807975 kJ/mol
# GULP energy per Si atom -12391.537666 kJ/mol
# Density = 1.992269 g / cm^3
# Si number density = 19.968136 Si / 1000 Ang^3
#
#
#
# Elastic Constant Matrix: (Units=GPa)
#
#
# Indices 1 2 3 4 5 6 
#
# 1 81.9085 10.0245 34.8670 0.0000 0.0000 0.0000
# 2 10.0245 70.4637 43.5725 0.0000 0.0000 0.0000
# 3 34.8670 43.5725 166.9811 0.0000 0.0000 0.0000
# 4 0.0000 0.0000 0.0000 27.4367 0.0000 0.0000
# 5 0.0000 0.0000 0.0000 0.0000 31.5514 0.0000
# 6 0.0000 0.0000 0.0000 0.0000 0.0000 27.4941
#
#
#
# Elastic Compliance Matrix: (Units=1/GPa)
#
#
# Indices 1 2 3 4 5 6 
#
# 1 0.013402 -0.000210 -0.002744 0.000000 0.000000 0.000000
# 2 -0.000210 0.016926 -0.004373 0.000000 0.000000 0.000000
# 3 -0.002744 -0.004373 0.007703 0.000000 0.000000 0.000000
# 4 0.000000 0.000000 0.000000 0.036448 0.000000 0.000000
# 5 0.000000 0.000000 0.000000 0.000000 0.031694 0.000000
# 6 0.000000 0.000000 0.000000 0.000000 0.000000 0.036371
#
#
# Mechanical properties :
#
#
# Convention : Reuss Voigt Hill
#
# Bulk Modulus (GPa) = 42.77605 55.14238 48.95922
# Shear Modulus (GPa) = 30.30496 32.68905 31.49700
#
# Velocity S-wave (km/s) = 3.89995 4.05045 3.97591
# Velocity P-wave (km/s) = 6.46128 7.03918 6.75641
#
# Compressibility (1/GPa) = 0.02337757
#
# Stress axis : x y z
#
# Youngs Moduli (GPa) = 74.61344 59.08228 129.82555
#
# Poissons Ratio (x) = 0.01241 0.35620
# Poissons Ratio (y) = 0.01567 0.56769
# Poissons Ratio (z) = 0.20472 0.25835
#
# Static dielectric constant tensor:
#      x y z
#    x 3.873940 0.000000 0.000000 
#    y 0.000000 3.389980 0.000000 
#    z 0.000000 0.000000 4.060430 
# 
# 
# High freq. dielectric constant tensor:
#      x y z
#    x 1.788360 0.000000 0.000000 
#    y 0.000000 1.740640 0.000000 
#    z 0.000000 0.000000 1.795590 
# 
# From -- ./inp_files/61582.got.cif
#   From: 2010.03.12/outbox.cif.g09.slc.cpg/sg63_31_cif.got.tgz:61582.got - 2010.04.10 19:34:48.
