data_PCOD8259500
_publ_section_title
;
Structure prediction by ZEFSAII (Michael W. Deem and Ramdas Pophale) SiO2 
 PCOD8259500
Probable space group: C M C M
;
_chemical_formula_sum "Si O2"
_cell_formula_units_Z 80
_cell_length_a 22.679199
_cell_length_b 19.728247
_cell_length_c 9.221311
_cell_angle_alpha 90.000000
_cell_angle_beta 90.000000
_cell_angle_gamma 90.000000
_cell_volume 4125.806710
_symmetry_space_group_name_H-M "C M C M"
_symmetry_group_IT_number 63
_symmetry_cell_setting 'orthorhombic'
loop_
_space_group_symop_operation_xyz
x,y,z
-x,-y,1/2+z
x,-y,-z
-x,y,1/2-z
-x,-y,-z
x,y,1/2-z
-x,y,z
x,-y,1/2+z
1/2+x,1/2+y,z
1/2-x,1/2-y,1/2+z
1/2+x,1/2-y,-z
1/2-x,1/2+y,1/2-z
1/2-x,1/2-y,-z
1/2+x,1/2+y,1/2-z
1/2-x,1/2+y,z
1/2+x,1/2-y,1/2+z
loop_
_atom_site_type_symbol
_atom_site_label
_atom_site_fract_x
_atom_site_fract_y
_atom_site_fract_z
Si Si1 0.890193 0.305146 0.414976
Si Si2 0.338547 0.571498 0.923835
Si Si3 0.069728 0.161039 0.079431
Si Si4 0.743626 0.818127 0.086483
Si Si5 0.932711 0.559141 0.591261
O O1 0.910485 0.293900 0.250000
O O2 0.903425 0.231891 0.485976
O O3 0.824824 0.335632 0.427779
O O4 0.928354 0.366523 0.484237
O O5 0.343198 0.562837 0.750000
O O6 0.284438 0.620695 0.971293
O O7 0.326138 0.500000 0.000000
O O8 0.399497 0.601599 0.987515
O O9 0.084144 0.151170 0.250000
O O10 0.000000 0.158595 0.050704
O O11 0.762476 0.802166 0.250000
O O12 0.750000 0.750000 0.000000
O O13 0.900421 0.500000 0.500000
O O14 0.902009 0.562306 0.750000
O O15 0.000000 0.538290 0.610014
#
# Coordination Sequence:
#
# PCOD8259500 Si02
#       5
#    16  16  16  16  16
#     4   9  17  32  56  82 110 142 182 228 274 332
#     4  11  24  40  59  85 117 153 191 234 286 340
#     4  10  20  36  61  88 112 147 193 238 288 343
#     4  10  20  36  59  84 110 144 184 226 278 330
#     4   9  17  30  48  72 105 143 180 219 265 316
#
# _framework density 19.390148
#
# number of rings (size 3 to 8) (size 9 to 14) (size 15 to 20)
#    0.000    2.200    2.000    1.200    0.000    4.800 
#    0.000    2.000    0.000    2.400    0.000    0.000 
#    0.000    0.000    0.000    0.000    0.000    0.000 
#
# Total GULP energy -495620.831754 kJ/mol
# GULP energy per Si atom -12390.520794 kJ/mol
# Density = 1.934602 g / cm^3
# Si number density = 19.390148 Si / 1000 Ang^3
#
#
#
# Elastic Constant Matrix: (Units=GPa)
#
#
# Indices 1 2 3 4 5 6 
#
# 1 87.6166 49.1203 33.8205 0.0000 0.0000 0.0000
# 2 49.1203 170.2962 59.8009 0.0000 0.0000 0.0000
# 3 33.8205 59.8009 66.9605 0.0000 0.0000 0.0000
# 4 0.0000 0.0000 0.0000 33.3430 0.0000 0.0000
# 5 0.0000 0.0000 0.0000 0.0000 21.4254 0.0000
# 6 0.0000 0.0000 0.0000 0.0000 0.0000 35.0879
#
#
#
# Elastic Compliance Matrix: (Units=1/GPa)
#
#
# Indices 1 2 3 4 5 6 
#
# 1 0.014821 -0.002398 -0.005344 0.000000 0.000000 0.000000
# 2 -0.002398 0.008943 -0.006776 0.000000 0.000000 0.000000
# 3 -0.005344 -0.006776 0.023684 0.000000 0.000000 0.000000
# 4 0.000000 0.000000 0.000000 0.029991 0.000000 0.000000
# 5 0.000000 0.000000 0.000000 0.000000 0.046674 0.000000
# 6 0.000000 0.000000 0.000000 0.000000 0.000000 0.028500
#
#
# Mechanical properties :
#
#
# Convention : Reuss Voigt Hill
#
# Bulk Modulus (GPa) = 54.30997 67.81742 61.06369
# Shear Modulus (GPa) = 26.62608 30.11338 28.36973
#
# Velocity S-wave (km/s) = 3.70966 3.94512 3.82920
# Velocity P-wave (km/s) = 6.81312 7.47015 7.14918
#
# Compressibility (1/GPa) = 0.01841283
#
# Stress axis : x y z
#
# Youngs Moduli (GPa) = 67.47341 111.81647 42.22200
#
# Poissons Ratio (x) = 0.26818 0.22562
# Poissons Ratio (y) = 0.16183 0.28608
# Poissons Ratio (z) = 0.36056 0.75763
#
# Static dielectric constant tensor:
#      x y z
#    x 3.948410 0.000000 0.000000 
#    y 0.000000 3.771090 0.000000 
#    z 0.000000 0.000000 3.533660 
# 
# 
# High freq. dielectric constant tensor:
#      x y z
#    x 1.749810 0.000000 0.000000 
#    y 0.000000 1.768400 0.000000 
#    z 0.000000 0.000000 1.725830 
# 
# From -- ./inp_files/12056.got.cif
#   From: 2010.03.12/outbox.cif.g09.slc.cpg/sg63_7_cif.got.tgz:12056.got - 2010.04.10 19:34:48.
