data_PCOD8259917
_publ_section_title
;
Structure prediction by ZEFSAII (Michael W. Deem and Ramdas Pophale) SiO2 
 PCOD8259917
Probable space group: C M C M
;
_chemical_formula_sum "Si O2"
_cell_formula_units_Z 96
_cell_length_a 19.895032
_cell_length_b 27.905211
_cell_length_c 9.314029
_cell_angle_alpha 90.000000
_cell_angle_beta 90.000000
_cell_angle_gamma 90.000000
_cell_volume 5170.916663
_symmetry_space_group_name_H-M "C M C M"
_symmetry_group_IT_number 63
_symmetry_cell_setting 'orthorhombic'
loop_
_space_group_symop_operation_xyz
x,y,z
-x,-y,1/2+z
x,-y,-z
-x,y,1/2-z
-x,-y,-z
x,y,1/2-z
-x,y,z
x,-y,1/2+z
1/2+x,1/2+y,z
1/2-x,1/2-y,1/2+z
1/2+x,1/2-y,-z
1/2-x,1/2+y,1/2-z
1/2-x,1/2-y,-z
1/2+x,1/2+y,1/2-z
1/2-x,1/2+y,z
1/2+x,1/2-y,1/2+z
loop_
_atom_site_type_symbol
_atom_site_label
_atom_site_fract_x
_atom_site_fract_y
_atom_site_fract_z
Si Si1 0.176989 0.113466 0.417322
Si Si2 0.307480 0.722571 0.416876
Si Si3 0.421337 0.452063 0.083132
Si Si4 0.196226 0.547997 0.084054
Si Si5 0.424122 0.207270 0.584477
Si Si6 0.576394 0.113214 0.418111
O O1 0.156395 0.110470 0.250000
O O2 0.187898 0.167859 0.467843
O O3 0.117248 0.092379 0.513343
O O4 0.245771 0.085937 0.449138
O O5 0.289529 0.725424 0.250000
O O6 0.250000 0.750000 0.500000
O O7 0.378584 0.747188 0.452387
O O8 0.401742 0.457906 0.250000
O O9 0.500000 0.442107 0.063832
O O10 0.399155 0.500000 0.000000
O O11 0.193604 0.534389 0.250000
O O12 0.125076 0.570192 0.032932
O O13 0.212144 0.500000 0.000000
O O14 0.418338 0.192545 0.750000
O O15 0.500000 0.221626 0.542661
O O16 0.399719 0.161604 0.494599
O O17 0.584083 0.122759 0.250000
O O18 0.500000 0.099443 0.460717
#
# Coordination Sequence:
#
# PCOD8259917 Si02
#       6
#    16  16  16  16  16  16
#     4  10  21  36  54  77 106 141 179 218 261 312
#     4  10  21  36  55  79 107 140 177 218 263 310
#     4  10  21  37  57  81 108 138 174 217 265 318
#     4  10  21  35  51  74 103 134 172 215 257 304
#     4   9  18  33  53  78 106 135 170 211 254 302
#     4   9  18  34  55  77 103 136 171 208 253 305
#
# _framework density 18.565373000000001
#
# number of rings (size 3 to 8) (size 9 to 14) (size 15 to 20)
#    0.000    2.333    0.000    2.000    0.000    7.333 
#    0.000    1.667    0.000    2.000    0.000    0.000 
#    0.000    0.000    0.000    0.000    0.000    0.000 
#
# Total GULP energy -595375.655362 kJ/mol
# GULP energy per Si atom -12403.659487 kJ/mol
# Density = 1.852312 g / cm^3
# Si number density = 18.565373 Si / 1000 Ang^3
#
#
#
# Elastic Constant Matrix: (Units=GPa)
#
#
# Indices 1 2 3 4 5 6 
#
# 1 87.0115 62.7246 48.1926 0.0000 0.0000 0.0000
# 2 62.7246 143.1510 61.8138 0.0000 0.0000 0.0000
# 3 48.1926 61.8138 69.3908 0.0000 0.0000 0.0000
# 4 0.0000 0.0000 0.0000 34.8920 0.0000 0.0000
# 5 0.0000 0.0000 0.0000 0.0000 29.9475 0.0000
# 6 0.0000 0.0000 0.0000 0.0000 0.0000 35.2720
#
#
#
# Elastic Compliance Matrix: (Units=1/GPa)
#
#
# Indices 1 2 3 4 5 6 
#
# 1 0.020369 -0.004577 -0.010069 0.000000 0.000000 0.000000
# 2 -0.004577 0.012381 -0.007850 0.000000 0.000000 0.000000
# 3 -0.010069 -0.007850 0.028397 0.000000 0.000000 0.000000
# 4 0.000000 0.000000 0.000000 0.028660 0.000000 0.000000
# 5 0.000000 0.000000 0.000000 0.000000 0.033392 0.000000
# 6 0.000000 0.000000 0.000000 0.000000 0.000000 0.028351
#
#
# Mechanical properties :
#
#
# Convention : Reuss Voigt Hill
#
# Bulk Modulus (GPa) = 61.90287 71.66835 66.78561
# Shear Modulus (GPa) = 24.76123 28.47712 26.61918
#
# Velocity S-wave (km/s) = 3.65599 3.92073 3.79067
# Velocity P-wave (km/s) = 7.15802 7.69306 7.43036
#
# Compressibility (1/GPa) = 0.01615434
#
# Stress axis : x y z
#
# Youngs Moduli (GPa) = 49.09322 80.76894 35.21465
#
# Poissons Ratio (x) = 0.36970 0.35459
# Poissons Ratio (y) = 0.22471 0.27644
# Poissons Ratio (z) = 0.49433 0.63404
#
# Static dielectric constant tensor:
#      x y z
#    x 3.793200 0.000000 0.000000 
#    y 0.000000 3.429590 0.000000 
#    z 0.000000 0.000000 3.365740 
# 
# 
# High freq. dielectric constant tensor:
#      x y z
#    x 1.731330 0.000000 0.000000 
#    y 0.000000 1.719740 0.000000 
#    z 0.000000 0.000000 1.716000 
# 
# From -- ./inp_files/8527.got.cif
#   From: 2010.03.12/outbox.cif.g09.slc.cpg/sg63_5_cif.got.tgz:8527.got - 2010.04.10 19:34:48.
