data_PCOD8259357
_publ_section_title
;
Structure prediction by ZEFSAII (Michael W. Deem and Ramdas Pophale) SiO2 
 PCOD8259357
Probable space group: C M C M
;
_chemical_formula_sum "Si O2"
_cell_formula_units_Z 104
_cell_length_a 31.080080
_cell_length_b 19.251458
_cell_length_c 9.083644
_cell_angle_alpha 90.000000
_cell_angle_beta 90.000000
_cell_angle_gamma 90.000000
_cell_volume 5435.078981
_symmetry_space_group_name_H-M "C M C M"
_symmetry_group_IT_number 63
_symmetry_cell_setting 'orthorhombic'
loop_
_space_group_symop_operation_xyz
x,y,z
-x,-y,1/2+z
x,-y,-z
-x,y,1/2-z
-x,-y,-z
x,y,1/2-z
-x,y,z
x,-y,1/2+z
1/2+x,1/2+y,z
1/2-x,1/2-y,1/2+z
1/2+x,1/2-y,-z
1/2-x,1/2+y,1/2-z
1/2-x,1/2-y,-z
1/2+x,1/2+y,1/2-z
1/2-x,1/2+y,z
1/2+x,1/2-y,1/2+z
loop_
_atom_site_type_symbol
_atom_site_label
_atom_site_fract_x
_atom_site_fract_y
_atom_site_fract_z
Si Si1 0.747810 0.426938 0.926519
Si Si2 0.178292 0.348648 0.074924
Si Si3 0.918943 0.659936 0.576245
Si Si4 0.317198 0.308492 0.923329
Si Si5 0.586071 0.685859 0.076566
Si Si6 0.000000 0.426423 0.425954
Si Si7 0.950194 0.062767 0.589594
O O1 0.747643 0.434372 0.750000
O O2 0.715698 0.366207 0.984871
O O3 0.734173 0.500000 0.000000
O O4 0.794683 0.405235 0.984868
O O5 0.185424 0.357220 0.250000
O O6 0.128790 0.365144 0.030700
O O7 0.191653 0.270563 0.021366
O O8 0.921534 0.661740 0.750000
O O9 0.926447 0.737903 0.518667
O O10 0.957037 0.611814 0.514108
O O11 0.313524 0.305920 0.750000
O O12 0.364995 0.331571 0.969507
O O13 0.579431 0.678793 0.250000
O O14 0.554231 0.634155 0.996474
O O15 0.000000 0.500000 0.500000
O O16 0.000000 0.432511 0.250000
O O17 0.928040 0.067433 0.750000
O O18 0.000000 0.046044 0.609380
O O19 0.927710 0.000000 0.500000
#
# Coordination Sequence:
#
# PCOD8259357 Si02
#       7
#    16  16  16  16  16   8  16
#     4  11  22  35  51  76 107 141 176 215 260 315
#     4   9  17  35  58  79 103 135 173 220 265 309
#     4   8  17  33  56  81 106 135 173 214 260 317
#     4   8  17  34  55  78 106 135 170 214 265 315
#     4   9  17  33  57  81 102 133 173 217 263 313
#     4  10  20  36  54  78 107 140 175 208 255 314
#     4  10  21  35  49  71 104 140 176 217 262 311
#
# _framework density 19.134957
#
# number of rings (size 3 to 8) (size 9 to 14) (size 15 to 20)
#    0.000    2.769    0.000    3.231    1.077    2.154 
#    0.000   10.000    0.000    0.000    0.000    0.000 
#    0.000    0.000    0.000    0.000    0.000    0.000 
#
# Total GULP energy -644520.069986 kJ/mol
# GULP energy per Si atom -12394.616731 kJ/mol
# Density = 1.909141 g / cm^3
# Si number density = 19.134957 Si / 1000 Ang^3
#
#
#
# Elastic Constant Matrix: (Units=GPa)
#
#
# Indices 1 2 3 4 5 6 
#
# 1 97.3123 65.2871 27.7778 0.0000 0.0000 0.0000
# 2 65.2871 124.5573 38.8503 0.0000 0.0000 0.0000
# 3 27.7778 38.8503 61.9927 0.0000 0.0000 0.0000
# 4 0.0000 0.0000 0.0000 28.0677 0.0000 0.0000
# 5 0.0000 0.0000 0.0000 0.0000 20.2874 0.0000
# 6 0.0000 0.0000 0.0000 0.0000 0.0000 25.4985
#
#
#
# Elastic Compliance Matrix: (Units=1/GPa)
#
#
# Indices 1 2 3 4 5 6 
#
# 1 0.016132 -0.007708 -0.002398 0.000000 0.000000 0.000000
# 2 -0.007708 0.013662 -0.005108 0.000000 0.000000 0.000000
# 3 -0.002398 -0.005108 0.020407 0.000000 0.000000 0.000000
# 4 0.000000 0.000000 0.000000 0.035628 0.000000 0.000000
# 5 0.000000 0.000000 0.000000 0.000000 0.049292 0.000000
# 6 0.000000 0.000000 0.000000 0.000000 0.000000 0.039218
#
#
# Mechanical properties :
#
#
# Convention : Reuss Voigt Hill
#
# Bulk Modulus (GPa) = 50.57479 60.85475 55.71477
# Shear Modulus (GPa) = 23.65679 24.90052 24.27865
#
# Velocity S-wave (km/s) = 3.51994 3.61128 3.56590
# Velocity P-wave (km/s) = 6.55804 7.01858 6.79221
#
# Compressibility (1/GPa) = 0.01977270
#
# Stress axis : x y z
#
# Youngs Moduli (GPa) = 61.98966 73.19805 49.00369
#
# Poissons Ratio (x) = 0.56417 0.11752
# Poissons Ratio (y) = 0.47779 0.25031
# Poissons Ratio (z) = 0.14866 0.37390
#
# Static dielectric constant tensor:
#      x y z
#    x 3.749560 0.000000 0.000000 
#    y 0.000000 3.675960 0.000000 
#    z 0.000000 0.000000 3.247010 
# 
# 
# High freq. dielectric constant tensor:
#      x y z
#    x 1.741550 0.000000 0.000000 
#    y 0.000000 1.748950 0.000000 
#    z 0.000000 0.000000 1.713120 
# 
# From -- ./inp_files/14459.got.cif
#   From: 2010.03.12/outbox.cif.g09.slc.cpg/sg63_8_cif.got.tgz:14459.got - 2010.04.10 19:34:48.
