data_PCOD8259092
_publ_section_title
;
Structure prediction by ZEFSAII (Michael W. Deem and Ramdas Pophale) SiO2 
 PCOD8259092
Probable space group: C M C M
;
_chemical_formula_sum "Si O2"
_cell_formula_units_Z 88
_cell_length_a 30.785696
_cell_length_b 17.882362
_cell_length_c 8.636867
_cell_angle_alpha 90.000000
_cell_angle_beta 90.000000
_cell_angle_gamma 90.000000
_cell_volume 4754.776315
_symmetry_space_group_name_H-M "C M C M"
_symmetry_group_IT_number 63
_symmetry_cell_setting 'orthorhombic'
loop_
_space_group_symop_operation_xyz
x,y,z
-x,-y,1/2+z
x,-y,-z
-x,y,1/2-z
-x,-y,-z
x,y,1/2-z
-x,y,z
x,-y,1/2+z
1/2+x,1/2+y,z
1/2-x,1/2-y,1/2+z
1/2+x,1/2-y,-z
1/2-x,1/2+y,1/2-z
1/2-x,1/2-y,-z
1/2+x,1/2+y,1/2-z
1/2-x,1/2+y,z
1/2+x,1/2-y,1/2+z
loop_
_atom_site_type_symbol
_atom_site_label
_atom_site_fract_x
_atom_site_fract_y
_atom_site_fract_z
Si Si1 0.585563 0.365912 0.574750
Si Si2 0.882069 0.699528 0.576606
Si Si3 0.500000 0.581538 0.931717
Si Si4 0.450667 0.919218 0.065415
Si Si5 0.296156 0.728741 0.434619
Si Si6 0.330139 0.422188 0.432594
O O1 0.584822 0.397528 0.750000
O O2 0.594769 0.278709 0.575214
O O3 0.540342 0.372239 0.491149
O O4 0.619466 0.414417 0.476654
O O5 0.874713 0.670406 0.750000
O O6 0.914517 0.639115 0.495861
O O7 0.833873 0.713746 0.501492
O O8 0.500000 0.576319 0.750000
O O9 0.500000 0.500000 0.000000
O O10 0.448888 0.920348 0.250000
O O11 0.500000 0.897358 0.012205
O O12 0.437975 0.000000 0.000000
O O13 0.296964 0.730305 0.250000
O O14 0.250000 0.750000 0.500000
O O15 0.303967 0.644588 0.488611
O O16 0.311801 0.500000 0.500000
O O17 0.323449 0.419653 0.250000
#
# Coordination Sequence:
#
# PCOD8259092 Si02
#       6
#    16  16   8  16  16  16
#     4  10  20  35  54  76 102 138 181 223 265 316
#     4   8  17  33  55  78 102 137 179 220 263 324
#     4  12  24  36  48  70 103 140 177 218 263 310
#     4   9  17  31  52  77 106 140 178 218 266 320
#     4  10  20  37  58  82 110 142 184 229 281 334
#     4  11  21  36  57  81 109 141 178 222 272 327
#
# _framework density 18.507705000000001
#
# number of rings (size 3 to 8) (size 9 to 14) (size 15 to 20)
#    0.000    2.182    0.000    5.182    1.273    0.000 
#    0.000    6.364    0.000    2.182    0.000    0.000 
#    0.000    0.000    0.000    0.000    0.000    0.000 
#
# Total GULP energy -545308.766798 kJ/mol
# GULP energy per Si atom -12393.381064 kJ/mol
# Density = 1.846558 g / cm^3
# Si number density = 18.507705 Si / 1000 Ang^3
#
#
#
# Elastic Constant Matrix: (Units=GPa)
#
#
# Indices 1 2 3 4 5 6 
#
# 1 159.6630 69.1275 38.7509 0.0000 0.0000 0.0000
# 2 69.1275 103.0694 26.5597 0.0000 0.0000 0.0000
# 3 38.7509 26.5597 76.4432 0.0000 0.0000 0.0000
# 4 0.0000 0.0000 0.0000 29.6231 0.0000 0.0000
# 5 0.0000 0.0000 0.0000 0.0000 28.7479 0.0000
# 6 0.0000 0.0000 0.0000 0.0000 0.0000 19.7084
#
#
#
# Elastic Compliance Matrix: (Units=1/GPa)
#
#
# Indices 1 2 3 4 5 6 
#
# 1 0.009346 -0.005544 -0.002811 0.000000 0.000000 0.000000
# 2 -0.005544 0.013945 -0.002035 0.000000 0.000000 0.000000
# 3 -0.002811 -0.002035 0.015214 0.000000 0.000000 0.000000
# 4 0.000000 0.000000 0.000000 0.033757 0.000000 0.000000
# 5 0.000000 0.000000 0.000000 0.000000 0.034785 0.000000
# 6 0.000000 0.000000 0.000000 0.000000 0.000000 0.050740
#
#
# Mechanical properties :
#
#
# Convention : Reuss Voigt Hill
#
# Bulk Modulus (GPa) = 56.41949 67.56132 61.99041
# Shear Modulus (GPa) = 27.10409 29.26506 28.18458
#
# Velocity S-wave (km/s) = 3.83100 3.98079 3.90661
# Velocity P-wave (km/s) = 7.07949 7.59688 7.34275
#
# Compressibility (1/GPa) = 0.01772437
#
# Stress axis : x y z
#
# Youngs Moduli (GPa) = 107.00125 71.71263 65.72987
#
# Poissons Ratio (x) = 0.39754 0.18480
# Poissons Ratio (y) = 0.59317 0.13375
# Poissons Ratio (z) = 0.30083 0.14592
#
# Static dielectric constant tensor:
#      x y z
#    x 3.612040 0.000000 0.000000 
#    y 0.000000 3.473500 0.000000 
#    z 0.000000 0.000000 3.840520 
# 
# 
# High freq. dielectric constant tensor:
#      x y z
#    x 1.719400 0.000000 0.000000 
#    y 0.000000 1.716630 0.000000 
#    z 0.000000 0.000000 1.708270 
# 
# From -- ./inp_files/14189.got.cif
#   From: 2010.03.12/outbox.cif.g09.slc.cpg/sg63_8_cif.got.tgz:14189.got - 2010.04.10 19:34:48.
