data_PCOD8259465
_publ_section_title
;
Structure prediction by ZEFSAII (Michael W. Deem and Ramdas Pophale) SiO2 
 PCOD8259465
Probable space group: C M C M
;
_chemical_formula_sum "Si O2"
_cell_formula_units_Z 96
_cell_length_a 9.061887
_cell_length_b 29.983346
_cell_length_c 18.995143
_cell_angle_alpha 90.000000
_cell_angle_beta 90.000000
_cell_angle_gamma 90.000000
_cell_volume 5161.088499
_symmetry_space_group_name_H-M "C M C M"
_symmetry_group_IT_number 63
_symmetry_cell_setting 'orthorhombic'
loop_
_space_group_symop_operation_xyz
x,y,z
-x,-y,1/2+z
x,-y,-z
-x,y,1/2-z
-x,-y,-z
x,y,1/2-z
-x,y,z
x,-y,1/2+z
1/2+x,1/2+y,z
1/2-x,1/2-y,1/2+z
1/2+x,1/2-y,-z
1/2-x,1/2+y,1/2-z
1/2-x,1/2-y,-z
1/2+x,1/2+y,1/2-z
1/2-x,1/2+y,z
1/2+x,1/2-y,1/2+z
loop_
_atom_site_type_symbol
_atom_site_label
_atom_site_fract_x
_atom_site_fract_y
_atom_site_fract_z
Si Si1 0.172256 0.481299 0.074428
Si Si2 0.328444 0.216069 0.168018
Si Si3 0.170818 0.620596 0.556931
Si Si4 0.330304 0.805685 0.330315
Si Si5 0.674827 0.637048 0.086977
Si Si6 0.825891 0.950198 0.669614
O O1 0.210326 0.429340 0.080093
O O2 0.254684 0.505466 0.137951
O O3 0.000000 0.491197 0.082408
O O4 0.231106 0.500000 0.000000
O O5 0.296737 0.207600 0.250000
O O6 0.500000 0.212998 0.149600
O O7 0.270684 0.264617 0.145325
O O8 0.241306 0.179842 0.124166
O O9 0.209002 0.651727 0.622790
O O10 0.271677 0.635824 0.492811
O O11 0.000000 0.624147 0.534123
O O12 0.296252 0.819192 0.250000
O O13 0.500000 0.791226 0.339742
O O14 0.500000 0.640825 0.089352
O O15 0.731153 0.592919 0.127165
O O16 0.774179 0.945027 0.750000
O O17 0.000000 0.954931 0.663701
#
# Coordination Sequence:
#
# PCOD8259465 Si02
#       6
#    16  16  16  16  16  16
#     4  10  20  36  58  83 113 148 186 230 281 333
#     4  10  21  37  58  83 112 146 184 231 284 334
#     4  10  21  37  58  84 114 147 187 232 279 334
#     4   9  19  37  59  81 108 145 187 231 279 333
#     4  11  22  36  57  83 114 151 189 229 277 334
#     4  10  22  38  56  82 114 148 189 234 278 331
#
# _framework density 18.600726999999999
#
# number of rings (size 3 to 8) (size 9 to 14) (size 15 to 20)
#    0.000    2.000    1.667    1.500    0.000    5.667 
#    0.000    1.667    0.000    2.000    0.000    0.000 
#    0.000    0.000    0.000    0.000    0.000    0.000 
#
# Total GULP energy -595448.657468 kJ/mol
# GULP energy per Si atom -12405.180364 kJ/mol
# Density = 1.855839 g / cm^3
# Si number density = 18.600727 Si / 1000 Ang^3
#
#
#
# Elastic Constant Matrix: (Units=GPa)
#
#
# Indices 1 2 3 4 5 6 
#
# 1 61.5901 55.7459 49.8723 0.0000 0.0000 0.0000
# 2 55.7459 153.2166 79.0149 0.0000 0.0000 0.0000
# 3 49.8723 79.0149 110.1746 0.0000 0.0000 0.0000
# 4 0.0000 0.0000 0.0000 -2.5731 0.0000 0.0000
# 5 0.0000 0.0000 0.0000 0.0000 32.7369 0.0000
# 6 0.0000 0.0000 0.0000 0.0000 0.0000 27.0158
#
#
#
# Elastic Compliance Matrix: (Units=1/GPa)
#
#
# Indices 1 2 3 4 5 6 
#
# 1 0.028669 -0.005932 -0.008723 0.000000 0.000000 0.000000
# 2 -0.005932 0.011585 -0.005623 0.000000 0.000000 0.000000
# 3 -0.008723 -0.005623 0.017058 0.000000 0.000000 0.000000
# 4 0.000000 0.000000 0.000000 -0.388633 0.000000 0.000000
# 5 0.000000 0.000000 0.000000 0.000000 0.030547 0.000000
# 6 0.000000 0.000000 0.000000 0.000000 0.000000 0.037015
#
#
# Mechanical properties :
#
#
# Convention : Reuss Voigt Hill
#
# Bulk Modulus (GPa) = 59.68331 77.13862 68.41096
# Shear Modulus (GPa) = -22.97615 20.79246 -1.09184
#
# Velocity S-wave (km/s) = -3.51839 3.34702 -0.76698
# Velocity P-wave (km/s) = 3.95610 7.51648 6.00618
#
# Compressibility (1/GPa) = 0.01675510
#
# Stress axis : x y z
#
# Youngs Moduli (GPa) = 34.88049 86.31815 58.62391
#
# Poissons Ratio (x) = 0.51208 0.51137
# Poissons Ratio (y) = 0.20693 0.32965
# Poissons Ratio (z) = 0.30426 0.48538
#
# Static dielectric constant tensor:
#      x y z
#    x 3.396370 0.000000 0.000000 
#    y 0.000000 3.493850 0.000000 
#    z 0.000000 0.000000 3.526460 
# 
# 
# High freq. dielectric constant tensor:
#      x y z
#    x 1.719280 0.000000 0.000000 
#    y 0.000000 1.731850 0.000000 
#    z 0.000000 0.000000 1.724000 
# 
# From -- ./inp_files/51424.got.cif
#   From: 2010.03.12/outbox.cif.g09.slc.cpg/sg63_26_cif.got.tgz:51424.got - 2010.04.10 19:34:48.
