data_PCOD8259540
_publ_section_title
;
Structure prediction by ZEFSAII (Michael W. Deem and Ramdas Pophale) SiO2 
 PCOD8259540
Probable space group: C M C M
;
_chemical_formula_sum "Si O2"
_cell_formula_units_Z 112
_cell_length_a 28.067609
_cell_length_b 13.023816
_cell_length_c 13.793839
_cell_angle_alpha 90.000000
_cell_angle_beta 90.000000
_cell_angle_gamma 90.000000
_cell_volume 5042.301640
_symmetry_space_group_name_H-M "C M C M"
_symmetry_group_IT_number 63
_symmetry_cell_setting 'orthorhombic'
loop_
_space_group_symop_operation_xyz
x,y,z
-x,-y,1/2+z
x,-y,-z
-x,y,1/2-z
-x,-y,-z
x,y,1/2-z
-x,y,z
x,-y,1/2+z
1/2+x,1/2+y,z
1/2-x,1/2-y,1/2+z
1/2+x,1/2-y,-z
1/2-x,1/2+y,1/2-z
1/2-x,1/2-y,-z
1/2+x,1/2+y,1/2-z
1/2-x,1/2+y,z
1/2+x,1/2-y,1/2+z
loop_
_atom_site_type_symbol
_atom_site_label
_atom_site_fract_x
_atom_site_fract_y
_atom_site_fract_z
Si Si1 0.616052 0.066446 0.365761
Si Si2 0.552671 0.251494 0.362163
Si Si3 0.446613 0.871524 0.365491
Si Si4 0.785591 0.394705 0.972117
Si Si5 0.790954 0.766224 0.864853
Si Si6 0.447686 0.477714 0.389686
Si Si7 0.392381 0.322071 0.643290
O O1 0.623667 0.070551 0.250000
O O2 0.585824 0.163346 0.406813
O O3 0.665929 0.072395 0.419561
O O4 0.588467 0.963104 0.398219
O O5 0.547618 0.225900 0.250000
O O6 0.500000 0.249091 0.410721
O O7 0.575856 0.365144 0.376177
O O8 0.450013 0.868540 0.250000
O O9 0.500000 0.888449 0.407379
O O10 0.426575 0.762059 0.409298
O O11 0.754955 0.330545 0.895836
O O12 0.758477 0.500000 0.000000
O O13 0.793264 0.338452 0.074639
O O14 0.787570 0.742551 0.750000
O O15 0.838686 0.828105 0.897863
O O16 0.454631 0.500000 0.500000
O O17 0.500000 0.479892 0.338605
O O18 0.413842 0.564472 0.346842
O O19 0.386382 0.275552 0.750000
#
# Coordination Sequence:
#
# PCOD8259540 Si02
#       7
#    16  16  16  16  16  16  16
#     4  10  20  36  62  95 131 169 210 257 315 382
#     4   9  18  34  56  83 120 166 212 255 303 367
#     4   9  17  31  57  93 129 167 209 254 309 373
#     4  11  24  43  69  96 126 164 208 263 326 383
#     4  10  24  45  66  94 126 162 210 263 321 385
#     4  10  21  34  52  80 118 162 204 254 310 364
#     4  10  20  36  60  86 117 157 204 256 309 373
#
# _framework density 22.212078999999999
#
# number of rings (size 3 to 8) (size 9 to 14) (size 15 to 20)
#    0.000    2.143    0.000    2.571    2.000    6.000 
#    2.571    0.000    0.000    1.714    0.000    0.000 
#    0.000    0.000    0.000    0.000    0.000    0.000 
#
# Total GULP energy -694057.934478 kJ/mol
# GULP energy per Si atom -12393.891687 kJ/mol
# Density = 2.216152 g / cm^3
# Si number density = 22.212079 Si / 1000 Ang^3
#
#
#
# Elastic Constant Matrix: (Units=GPa)
#
#
# Indices 1 2 3 4 5 6 
#
# 1 121.6242 60.0585 22.0018 0.0000 0.0000 0.0000
# 2 60.0585 174.8644 21.8177 0.0000 0.0000 0.0000
# 3 22.0018 21.8177 63.8702 0.0000 0.0000 0.0000
# 4 0.0000 0.0000 0.0000 19.3634 0.0000 0.0000
# 5 0.0000 0.0000 0.0000 0.0000 14.5144 0.0000
# 6 0.0000 0.0000 0.0000 0.0000 0.0000 13.6663
#
#
#
# Elastic Compliance Matrix: (Units=1/GPa)
#
#
# Indices 1 2 3 4 5 6 
#
# 1 0.010251 -0.003217 -0.002432 0.000000 0.000000 0.000000
# 2 -0.003217 0.006983 -0.001277 0.000000 0.000000 0.000000
# 3 -0.002432 -0.001277 0.016931 0.000000 0.000000 0.000000
# 4 0.000000 0.000000 0.000000 0.051644 0.000000 0.000000
# 5 0.000000 0.000000 0.000000 0.000000 0.068897 0.000000
# 6 0.000000 0.000000 0.000000 0.000000 0.000000 0.073173
#
#
# Mechanical properties :
#
#
# Convention : Reuss Voigt Hill
#
# Bulk Modulus (GPa) = 49.23294 63.12389 56.17842
# Shear Modulus (GPa) = 20.12058 26.60754 23.36406
#
# Velocity S-wave (km/s) = 3.01298 3.46480 3.24676
# Velocity P-wave (km/s) = 5.85808 6.66985 6.27710
#
# Compressibility (1/GPa) = 0.02031161
#
# Stress axis : x y z
#
# Youngs Moduli (GPa) = 97.55432 143.20413 59.06385
#
# Poissons Ratio (x) = 0.46072 0.14365
# Poissons Ratio (y) = 0.31385 0.07543
# Poissons Ratio (z) = 0.23727 0.18289
#
# Static dielectric constant tensor:
#      x y z
#    x 4.119790 0.000000 0.000000 
#    y 0.000000 12.135620 0.000000 
#    z 0.000000 0.000000 3.891830 
# 
# 
# High freq. dielectric constant tensor:
#      x y z
#    x 1.863200 0.000000 0.000000 
#    y 0.000000 1.881690 0.000000 
#    z 0.000000 0.000000 1.880110 
# 
# From -- ./inp_files/38523.got.cif
#   From: 2010.03.12/outbox.cif.g09.slc.cpg/sg63_20_cif.got.tgz:38523.got - 2010.04.10 19:34:48.
