data_PCOD8259910
_publ_section_title
;
Structure prediction by ZEFSAII (Michael W. Deem and Ramdas Pophale) SiO2 
 PCOD8259910
Probable space group: C M C M
;
_chemical_formula_sum "Si O2"
_cell_formula_units_Z 64
_cell_length_a 13.291936
_cell_length_b 13.896398
_cell_length_c 19.422502
_cell_angle_alpha 90.000000
_cell_angle_beta 90.000000
_cell_angle_gamma 90.000000
_cell_volume 3587.530982
_symmetry_space_group_name_H-M "C M C M"
_symmetry_group_IT_number 63
_symmetry_cell_setting 'orthorhombic'
loop_
_space_group_symop_operation_xyz
x,y,z
-x,-y,1/2+z
x,-y,-z
-x,y,1/2-z
-x,-y,-z
x,y,1/2-z
-x,y,z
x,-y,1/2+z
1/2+x,1/2+y,z
1/2-x,1/2-y,1/2+z
1/2+x,1/2-y,-z
1/2-x,1/2+y,1/2-z
1/2-x,1/2-y,-z
1/2+x,1/2+y,1/2-z
1/2-x,1/2+y,z
1/2+x,1/2-y,1/2+z
loop_
_atom_site_type_symbol
_atom_site_label
_atom_site_fract_x
_atom_site_fract_y
_atom_site_fract_z
Si Si1 0.738762 0.477243 0.077591
Si Si2 0.202076 0.187186 0.401067
Si Si3 0.884442 0.797196 0.048303
Si Si4 0.117374 0.358267 0.328017
O O1 0.700042 0.573722 0.115573
O O2 0.645710 0.403475 0.074611
O O3 0.830212 0.431665 0.119667
O O4 0.776821 0.500000 0.000000
O O5 0.133910 0.211797 0.467085
O O6 0.318179 0.216810 0.413408
O O7 0.155751 0.248675 0.338789
O O8 0.000000 0.777729 0.066359
O O9 0.143378 0.387954 0.250000
O O10 0.000000 0.364137 0.342607
#
# Coordination Sequence:
#
# PCOD8259910 Si02
#       4
#    16  16  16  16
#     4   9  19  33  51  76 100 127 164 205 247 289
#     4   9  18  31  49  72  97 128 161 196 243 292
#     4   9  17  30  49  75 102 124 155 200 244 290
#     4  10  21  35  50  71 100 132 166 205 248 296
#
# _framework density 17.839566999999999
#
# number of rings (size 3 to 8) (size 9 to 14) (size 15 to 20)
#    0.000    2.750    0.000    2.250    0.000    8.000 
#    0.000    0.000    0.000   12.000    0.000    0.000 
#    0.000    0.000    0.000    0.000    0.000    0.000 
#
# Total GULP energy -396771.277847 kJ/mol
# GULP energy per Si atom -12399.102433 kJ/mol
# Density = 1.779896 g / cm^3
# Si number density = 17.839567 Si / 1000 Ang^3
#
#
#
# Elastic Constant Matrix: (Units=GPa)
#
#
# Indices 1 2 3 4 5 6 
#
# 1 97.7281 -2.3585 31.3692 0.0000 0.0000 0.0000
# 2 -2.3585 56.1627 10.7483 0.0000 0.0000 0.0000
# 3 31.3692 10.7483 53.9957 0.0000 0.0000 0.0000
# 4 0.0000 0.0000 0.0000 23.6874 0.0000 0.0000
# 5 0.0000 0.0000 0.0000 0.0000 20.5246 0.0000
# 6 0.0000 0.0000 0.0000 0.0000 0.0000 15.8760
#
#
#
# Elastic Compliance Matrix: (Units=1/GPa)
#
#
# Indices 1 2 3 4 5 6 
#
# 1 0.012799 0.002038 -0.007841 0.000000 0.000000 0.000000
# 2 0.002038 0.018835 -0.004933 0.000000 0.000000 0.000000
# 3 -0.007841 -0.004933 0.024057 0.000000 0.000000 0.000000
# 4 0.000000 0.000000 0.000000 0.042217 0.000000 0.000000
# 5 0.000000 0.000000 0.000000 0.000000 0.048722 0.000000
# 6 0.000000 0.000000 0.000000 0.000000 0.000000 0.062988
#
#
# Mechanical properties :
#
#
# Convention : Reuss Voigt Hill
#
# Bulk Modulus (GPa) = 29.22409 31.93381 30.57895
# Shear Modulus (GPa) = 20.61887 23.22611 21.92249
#
# Velocity S-wave (km/s) = 3.40339 3.61216 3.50933
# Velocity P-wave (km/s) = 5.64457 5.94444 5.79645
#
# Compressibility (1/GPa) = 0.03421835
#
# Stress axis : x y z
#
# Youngs Moduli (GPa) = 78.13400 53.09229 41.56739
#
# Poissons Ratio (x) = -0.10821 0.32593
# Poissons Ratio (y) = -0.15924 0.20506
# Poissons Ratio (z) = 0.61266 0.26192
#
# Static dielectric constant tensor:
#      x y z
#    x 3.100400 0.000000 0.000000 
#    y 0.000000 3.482030 0.000000 
#    z 0.000000 0.000000 3.133040 
# 
# 
# High freq. dielectric constant tensor:
#      x y z
#    x 1.682270 0.000000 0.000000 
#    y 0.000000 1.699820 0.000000 
#    z 0.000000 0.000000 1.662690 
# 
# From -- ./inp_files/41498.got.cif
#   From: 2010.03.12/outbox.cif.g09.slc.cpg/sg63_21_cif.got.tgz:41498.got - 2010.04.10 19:34:48.
