data_PCOD8259117
_publ_section_title
;
Structure prediction by ZEFSAII (Michael W. Deem and Ramdas Pophale) SiO2 
 PCOD8259117
Probable space group: C M C M
;
_chemical_formula_sum "Si O2"
_cell_formula_units_Z 112
_cell_length_a 28.560538
_cell_length_b 13.966127
_cell_length_c 14.465371
_cell_angle_alpha 90.000000
_cell_angle_beta 90.000000
_cell_angle_gamma 90.000000
_cell_volume 5769.948644
_symmetry_space_group_name_H-M "C M C M"
_symmetry_group_IT_number 63
_symmetry_cell_setting 'orthorhombic'
loop_
_space_group_symop_operation_xyz
x,y,z
-x,-y,1/2+z
x,-y,-z
-x,y,1/2-z
-x,-y,-z
x,y,1/2-z
-x,y,z
x,-y,1/2+z
1/2+x,1/2+y,z
1/2-x,1/2-y,1/2+z
1/2+x,1/2-y,-z
1/2-x,1/2+y,1/2-z
1/2-x,1/2-y,-z
1/2+x,1/2+y,1/2-z
1/2-x,1/2+y,z
1/2+x,1/2-y,1/2+z
loop_
_atom_site_type_symbol
_atom_site_label
_atom_site_fract_x
_atom_site_fract_y
_atom_site_fract_z
Si Si1 0.105881 0.657974 0.003502
Si Si2 0.298025 0.771449 0.451057
Si Si3 0.115193 0.500763 0.357584
Si Si4 0.906777 0.001528 0.357635
Si Si5 0.806140 0.924111 0.856120
Si Si6 0.219793 0.463523 0.354499
Si Si7 0.444953 0.354810 0.002283
O O1 0.159421 0.694213 0.016621
O O2 0.100345 0.597533 0.908238
O O3 0.069845 0.744621 0.998021
O O4 0.092005 0.591949 0.091545
O O5 0.250000 0.750000 0.500000
O O6 0.317250 0.676911 0.402293
O O7 0.284834 0.853490 0.379652
O O8 0.100195 0.495792 0.250000
O O9 0.170789 0.517018 0.370456
O O10 0.922007 0.000136 0.250000
O O11 0.850821 0.007450 0.368158
O O12 0.930710 0.092173 0.407527
O O13 0.921791 0.903802 0.407816
O O14 0.795941 0.900814 0.750000
O O15 0.761378 0.976743 0.905127
O O16 0.235846 0.463108 0.250000
O O17 0.500000 0.361369 0.014390
#
# Coordination Sequence:
#
# PCOD8259117 Si02
#       7
#    16  16  16  16  16  16  16
#     4  10  21  38  57  88 115 147 198 236 293 352
#     4  11  21  31  53  81 112 153 190 236 282 339
#     4   9  19  38  61  83 117 156 192 236 284 346
#     4  10  22  40  62  86 117 156 198 244 294 352
#     4  10  20  35  54  80 114 152 195 243 285 333
#     4   9  19  34  51  76 111 152 192 229 277 333
#     4  11  24  41  62  87 118 152 191 248 303 355
#
# _framework density 19.410917999999999
#
# number of rings (size 3 to 8) (size 9 to 14) (size 15 to 20)
#    0.000    2.000    1.429    2.143    2.000    4.571 
#    0.000    2.143    0.000    0.857    0.000    0.000 
#    0.000    0.000    0.000    0.000    0.000    0.000 
#
# Total GULP energy -694228.898730 kJ/mol
# GULP energy per Si atom -12396.944620 kJ/mol
# Density = 1.936674 g / cm^3
# Si number density = 19.410918 Si / 1000 Ang^3
#
#
#
# Elastic Constant Matrix: (Units=GPa)
#
#
# Indices 1 2 3 4 5 6 
#
# 1 37.7428 29.7847 26.9371 0.0000 0.0000 0.0000
# 2 29.7847 122.7251 53.7634 0.0000 0.0000 0.0000
# 3 26.9371 53.7634 122.7402 0.0000 0.0000 0.0000
# 4 0.0000 0.0000 0.0000 20.3754 0.0000 0.0000
# 5 0.0000 0.0000 0.0000 0.0000 17.7168 0.0000
# 6 0.0000 0.0000 0.0000 0.0000 0.0000 26.0220
#
#
#
# Elastic Compliance Matrix: (Units=1/GPa)
#
#
# Indices 1 2 3 4 5 6 
#
# 1 0.035002 -0.006348 -0.004901 0.000000 0.000000 0.000000
# 2 -0.006348 0.011234 -0.003528 0.000000 0.000000 0.000000
# 3 -0.004901 -0.003528 0.010768 0.000000 0.000000 0.000000
# 4 0.000000 0.000000 0.000000 0.049079 0.000000 0.000000
# 5 0.000000 0.000000 0.000000 0.000000 0.056444 0.000000
# 6 0.000000 0.000000 0.000000 0.000000 0.000000 0.038429
#
#
# Mechanical properties :
#
#
# Convention : Reuss Voigt Hill
#
# Bulk Modulus (GPa) = 36.42820 56.01983 46.22401
# Shear Modulus (GPa) = 20.86282 24.33769 22.60025
#
# Velocity S-wave (km/s) = 3.28197 3.54477 3.41590
# Velocity P-wave (km/s) = 5.75928 6.75843 6.27877
#
# Compressibility (1/GPa) = 0.02745126
#
# Stress axis : x y z
#
# Youngs Moduli (GPa) = 28.56941 89.01291 92.86571
#
# Poissons Ratio (x) = 0.56503 0.45516
# Poissons Ratio (y) = 0.18135 0.32761
# Poissons Ratio (z) = 0.14003 0.31402
#
# Static dielectric constant tensor:
#      x y z
#    x 3.427350 0.000000 0.000000 
#    y 0.000000 3.141750 0.000000 
#    z 0.000000 0.000000 3.680630 
# 
# 
# High freq. dielectric constant tensor:
#      x y z
#    x 1.741110 0.000000 0.000000 
#    y 0.000000 1.763640 0.000000 
#    z 0.000000 0.000000 1.751510 
# 
# From -- ./inp_files/38511.got.cif
#   From: 2010.03.12/outbox.cif.g09.slc.cpg/sg63_20_cif.got.tgz:38511.got - 2010.04.10 19:34:48.
