data_PCOD8259359
_publ_section_title
;
Structure prediction by ZEFSAII (Michael W. Deem and Ramdas Pophale) SiO2 
 PCOD8259359
Probable space group: C M C M
;
_chemical_formula_sum "Si O2"
_cell_formula_units_Z 96
_cell_length_a 12.357452
_cell_length_b 17.918047
_cell_length_c 22.343779
_cell_angle_alpha 90.000000
_cell_angle_beta 90.000000
_cell_angle_gamma 90.000000
_cell_volume 4947.390956
_symmetry_space_group_name_H-M "C M C M"
_symmetry_group_IT_number 63
_symmetry_cell_setting 'orthorhombic'
loop_
_space_group_symop_operation_xyz
x,y,z
-x,-y,1/2+z
x,-y,-z
-x,y,1/2-z
-x,-y,-z
x,y,1/2-z
-x,y,z
x,-y,1/2+z
1/2+x,1/2+y,z
1/2-x,1/2-y,1/2+z
1/2+x,1/2-y,-z
1/2-x,1/2+y,1/2-z
1/2-x,1/2-y,-z
1/2+x,1/2+y,1/2-z
1/2-x,1/2+y,z
1/2+x,1/2-y,1/2+z
loop_
_atom_site_type_symbol
_atom_site_label
_atom_site_fract_x
_atom_site_fract_y
_atom_site_fract_z
Si Si1 0.325627 0.036195 0.819813
Si Si2 0.192828 0.342822 0.088641
Si Si3 0.619830 0.554816 0.318290
Si Si4 0.500000 0.969873 0.601477
Si Si5 0.500000 0.109332 0.985294
Si Si6 0.623894 0.583128 0.981383
Si Si7 0.375670 0.316223 0.903596
O O1 0.359333 0.040009 0.750000
O O2 0.348294 0.116376 0.850590
O O3 0.200135 0.014331 0.827794
O O4 0.395985 0.974039 0.855067
O O5 0.304415 0.383967 0.072149
O O6 0.204685 0.254708 0.101053
O O7 0.108144 0.346961 0.033655
O O8 0.614457 0.578646 0.250000
O O9 0.500000 0.531223 0.342257
O O10 0.661859 0.627863 0.351902
O O11 0.500000 0.896986 0.558296
O O12 0.500000 0.033166 0.551370
O O13 0.500000 0.578226 0.959544
O O14 0.664565 0.500000 0.000000
O O15 0.638726 0.640524 0.034858
O O16 0.500000 0.289971 0.894753
#
# Coordination Sequence:
#
# PCOD8259359 Si02
#       7
#    16  16  16   8   8  16  16
#     4  10  21  36  56  83 111 145 190 234 275 330
#     4  11  21  35  56  83 114 144 182 233 287 338
#     4   9  19  36  58  82 109 147 194 236 278 329
#     4   9  19  34  52  78 111 149 181 221 274 334
#     4   9  20  32  52  82 113 142 181 221 282 343
#     4  10  22  37  56  81 110 147 185 225 276 336
#     4  10  20  36  54  81 114 146 184 232 283 336
#
# _framework density 19.404167999999999
#
# number of rings (size 3 to 8) (size 9 to 14) (size 15 to 20)
#    0.000    2.167    0.833    1.750    7.000    2.667 
#    0.000    0.000    0.000    0.000    0.000    0.000 
#    0.000    0.000    0.000    0.000    0.000    0.000 
#
# Total GULP energy -595010.803320 kJ/mol
# GULP energy per Si atom -12396.058403 kJ/mol
# Density = 1.936000 g / cm^3
# Si number density = 19.404168 Si / 1000 Ang^3
#
#
#
# Elastic Constant Matrix: (Units=GPa)
#
#
# Indices 1 2 3 4 5 6 
#
# 1 67.4918 16.1369 29.5601 0.0000 0.0000 0.0000
# 2 16.1369 88.1371 37.1869 0.0000 0.0000 0.0000
# 3 29.5601 37.1869 108.6922 0.0000 0.0000 0.0000
# 4 0.0000 0.0000 0.0000 22.3064 0.0000 0.0000
# 5 0.0000 0.0000 0.0000 0.0000 24.1112 0.0000
# 6 0.0000 0.0000 0.0000 0.0000 0.0000 22.6512
#
#
#
# Elastic Compliance Matrix: (Units=1/GPa)
#
#
# Indices 1 2 3 4 5 6 
#
# 1 0.016957 -0.001354 -0.004148 0.000000 0.000000 0.000000
# 2 -0.001354 0.013368 -0.004205 0.000000 0.000000 0.000000
# 3 -0.004148 -0.004205 0.011767 0.000000 0.000000 0.000000
# 4 0.000000 0.000000 0.000000 0.044830 0.000000 0.000000
# 5 0.000000 0.000000 0.000000 0.000000 0.041474 0.000000
# 6 0.000000 0.000000 0.000000 0.000000 0.000000 0.044148
#
#
# Mechanical properties :
#
#
# Convention : Reuss Voigt Hill
#
# Bulk Modulus (GPa) = 44.09825 47.78766 45.94296
# Shear Modulus (GPa) = 25.06012 25.90960 25.48486
#
# Velocity S-wave (km/s) = 3.59762 3.65808 3.62798
# Velocity P-wave (km/s) = 6.32714 6.52097 6.42479
#
# Compressibility (1/GPa) = 0.02267664
#
# Stress axis : x y z
#
# Youngs Moduli (GPa) = 58.97149 74.80410 84.98157
#
# Poissons Ratio (x) = 0.10132 0.35253
# Poissons Ratio (y) = 0.07987 0.35738
# Poissons Ratio (z) = 0.24463 0.31458
#
# Static dielectric constant tensor:
#      x y z
#    x 3.586810 0.000000 0.000000 
#    y 0.000000 3.364140 0.000000 
#    z 0.000000 0.000000 3.643130 
# 
# 
# High freq. dielectric constant tensor:
#      x y z
#    x 1.751670 0.000000 0.000000 
#    y 0.000000 1.735300 0.000000 
#    z 0.000000 0.000000 1.755720 
# 
# From -- ./inp_files/61520.got.cif
#   From: 2010.03.12/outbox.cif.g09.slc.cpg/sg63_31_cif.got.tgz:61520.got - 2010.04.10 19:34:48.
