data_PCOD8259989
_publ_section_title
;
Structure prediction by ZEFSAII (Michael W. Deem and Ramdas Pophale) SiO2 
 PCOD8259989
Probable space group: C M C M
;
_chemical_formula_sum "Si O2"
_cell_formula_units_Z 80
_cell_length_a 26.771940
_cell_length_b 18.425735
_cell_length_c 9.099527
_cell_angle_alpha 90.000000
_cell_angle_beta 90.000000
_cell_angle_gamma 90.000000
_cell_volume 4488.729987
_symmetry_space_group_name_H-M "C M C M"
_symmetry_group_IT_number 63
_symmetry_cell_setting 'orthorhombic'
loop_
_space_group_symop_operation_xyz
x,y,z
-x,-y,1/2+z
x,-y,-z
-x,y,1/2-z
-x,-y,-z
x,y,1/2-z
-x,y,z
x,-y,1/2+z
1/2+x,1/2+y,z
1/2-x,1/2-y,1/2+z
1/2+x,1/2-y,-z
1/2-x,1/2+y,1/2-z
1/2-x,1/2-y,-z
1/2+x,1/2+y,1/2-z
1/2-x,1/2+y,z
1/2+x,1/2-y,1/2+z
loop_
_atom_site_type_symbol
_atom_site_label
_atom_site_fract_x
_atom_site_fract_y
_atom_site_fract_z
Si Si1 0.200871 0.721431 0.422336
Si Si2 0.943217 0.070269 0.422373
Si Si3 0.109410 0.783707 0.581018
Si Si4 0.649776 0.072734 0.423141
Si Si5 0.056898 0.363835 0.419081
O O1 0.207788 0.730672 0.250000
O O2 0.250000 0.750000 0.500000
O O3 0.156029 0.771591 0.475863
O O4 0.188007 0.637808 0.463584
O O5 0.939723 0.058789 0.250000
O O6 0.913714 0.141100 0.472771
O O7 0.000000 0.080194 0.475190
O O8 0.919074 0.000000 0.500000
O O9 0.127539 0.786967 0.750000
O O10 0.067924 0.721447 0.561049
O O11 0.646599 0.060736 0.250000
O O12 0.594048 0.089149 0.481297
O O13 0.670522 0.000000 0.500000
O O14 0.064860 0.386984 0.250000
O O15 0.000000 0.378573 0.469351
#
# Coordination Sequence:
#
# PCOD8259989 Si02
#       5
#    16  16  16  16  16
#     4  10  21  37  57  79 100 125 162 206 252 300
#     4   9  17  29  46  70 101 136 171 206 246 293
#     4   9  17  31  51  73  99 131 168 209 250 295
#     4  10  21  36  54  77 104 133 165 202 245 293
#     4   9  17  30  50  75 102 135 172 206 243 289
#
# _framework density 17.822412
#
# number of rings (size 3 to 8) (size 9 to 14) (size 15 to 20)
#    0.000    2.600    0.000    1.800    0.000    6.400 
#    0.000    1.000    0.000    3.600    0.000    0.000 
#    0.000    0.000    0.000    0.000    0.000    0.000 
#
# Total GULP energy -496015.674710 kJ/mol
# GULP energy per Si atom -12400.391868 kJ/mol
# Density = 1.778185 g / cm^3
# Si number density = 17.822412 Si / 1000 Ang^3
#
#
#
# Elastic Constant Matrix: (Units=GPa)
#
#
# Indices 1 2 3 4 5 6 
#
# 1 106.3545 56.6073 54.2903 0.0000 0.0000 0.0000
# 2 56.6073 140.5451 59.5194 0.0000 0.0000 0.0000
# 3 54.2903 59.5194 76.3527 0.0000 0.0000 0.0000
# 4 0.0000 0.0000 0.0000 32.7089 0.0000 0.0000
# 5 0.0000 0.0000 0.0000 0.0000 29.6845 0.0000
# 6 0.0000 0.0000 0.0000 0.0000 0.0000 17.4165
#
#
#
# Elastic Compliance Matrix: (Units=1/GPa)
#
#
# Indices 1 2 3 4 5 6 
#
# 1 0.015248 -0.002314 -0.009038 0.000000 0.000000 0.000000
# 2 -0.002314 0.010973 -0.006908 0.000000 0.000000 0.000000
# 3 -0.009038 -0.006908 0.024909 0.000000 0.000000 0.000000
# 4 0.000000 0.000000 0.000000 0.030573 0.000000 0.000000
# 5 0.000000 0.000000 0.000000 0.000000 0.033688 0.000000
# 6 0.000000 0.000000 0.000000 0.000000 0.000000 0.057417
#
#
# Mechanical properties :
#
#
# Convention : Reuss Voigt Hill
#
# Bulk Modulus (GPa) = 68.45209 73.78736 71.11972
# Shear Modulus (GPa) = 23.34303 26.15101 24.74702
#
# Velocity S-wave (km/s) = 3.62298 3.83470 3.73035
# Velocity P-wave (km/s) = 7.48282 7.81652 7.65149
#
# Compressibility (1/GPa) = 0.01460876
#
# Stress axis : x y z
#
# Youngs Moduli (GPa) = 65.58377 91.13536 40.14610
#
# Poissons Ratio (x) = 0.21086 0.36285
# Poissons Ratio (y) = 0.15174 0.27735
# Poissons Ratio (z) = 0.59276 0.62960
#
# Static dielectric constant tensor:
#      x y z
#    x 3.233250 0.000000 0.000000 
#    y 0.000000 3.442110 0.000000 
#    z 0.000000 0.000000 3.270850 
# 
# 
# High freq. dielectric constant tensor:
#      x y z
#    x 1.672170 0.000000 0.000000 
#    y 0.000000 1.696180 0.000000 
#    z 0.000000 0.000000 1.690260 
# 
# From -- ./inp_files/11983.got.cif
#   From: 2010.03.12/outbox.cif.g09.slc.cpg/sg63_6_cif.got.tgz:11983.got - 2010.04.10 19:34:48.
