data_PCOD8259839
_publ_section_title
;
Structure prediction by ZEFSAII (Michael W. Deem and Ramdas Pophale) SiO2 
 PCOD8259839
Probable space group: C M C M
;
_chemical_formula_sum "Si O2"
_cell_formula_units_Z 72
_cell_length_a 17.020436
_cell_length_b 8.493358
_cell_length_c 22.643807
_cell_angle_alpha 90.000000
_cell_angle_beta 90.000000
_cell_angle_gamma 90.000000
_cell_volume 3273.403600
_symmetry_space_group_name_H-M "C M C M"
_symmetry_group_IT_number 63
_symmetry_cell_setting 'orthorhombic'
loop_
_space_group_symop_operation_xyz
x,y,z
-x,-y,1/2+z
x,-y,-z
-x,y,1/2-z
-x,-y,-z
x,y,1/2-z
-x,y,z
x,-y,1/2+z
1/2+x,1/2+y,z
1/2-x,1/2-y,1/2+z
1/2+x,1/2-y,-z
1/2-x,1/2+y,1/2-z
1/2-x,1/2-y,-z
1/2+x,1/2+y,1/2-z
1/2-x,1/2+y,z
1/2+x,1/2-y,1/2+z
loop_
_atom_site_type_symbol
_atom_site_label
_atom_site_fract_x
_atom_site_fract_y
_atom_site_fract_z
Si Si1 0.500000 0.638704 0.250000
Si Si2 0.000000 0.357992 0.750000
Si Si3 0.653758 0.800546 0.414137
Si Si4 0.912525 0.171594 0.527582
Si Si5 0.190862 0.952011 0.124663
Si Si6 0.000000 0.611379 0.849257
Si Si7 0.865521 0.108171 0.750000
O O1 0.500000 0.734838 0.309595
O O2 0.579042 0.541316 0.250000
O O3 0.000000 0.457361 0.809547
O O4 0.919409 0.261743 0.750000
O O5 0.640899 0.778010 0.484394
O O6 0.724374 0.921704 0.403883
O O7 0.670578 0.635737 0.381395
O O8 0.576549 0.885215 0.389750
O O9 0.872820 0.157959 0.591596
O O10 0.000000 0.243743 0.535222
O O11 0.919257 0.000000 0.500000
O O12 0.190741 0.898614 0.192898
#
# Coordination Sequence:
#
# PCOD8259839 Si02
#       7
#     4   4  16  16  16   8   8
#     4  10  20  40  66  92 120 172 224 250 310 398
#     4  10  28  40  66  92 140 168 220 274 322 386
#     4  11  23  43  68  97 132 171 220 273 325 387
#     4   9  19  38  67  98 127 170 219 267 324 389
#     4  11  25  39  68  97 138 170 219 267 330 385
#     4  11  22  44  67  92 129 176 216 266 327 386
#     4  11  24  42  64  96 133 173 217 264 325 389
#
# _framework density 21.995456000000001
#
# number of rings (size 3 to 8) (size 9 to 14) (size 15 to 20)
#    0.000    1.556    3.333    0.667    7.778    2.667 
#    0.000    0.000    0.000    2.667    0.000    0.000 
#    0.000    0.000    0.000    0.000    0.000    0.000 
#
# Total GULP energy -446522.025831 kJ/mol
# GULP energy per Si atom -12403.389606 kJ/mol
# Density = 2.194539 g / cm^3
# Si number density = 21.995456 Si / 1000 Ang^3
#
#
#
# Elastic Constant Matrix: (Units=GPa)
#
#
# Indices 1 2 3 4 5 6 
#
# 1 128.4155 8.1713 18.0631 0.0000 0.0000 0.0000
# 2 8.1713 50.7308 -2.4096 0.0000 0.0000 0.0000
# 3 18.0631 -2.4096 108.6421 0.0000 0.0000 0.0000
# 4 0.0000 0.0000 0.0000 19.4821 0.0000 0.0000
# 5 0.0000 0.0000 0.0000 0.0000 34.0681 0.0000
# 6 0.0000 0.0000 0.0000 0.0000 0.0000 44.9661
#
#
#
# Elastic Compliance Matrix: (Units=1/GPa)
#
#
# Indices 1 2 3 4 5 6 
#
# 1 0.008067 -0.001365 -0.001371 0.000000 0.000000 0.000000
# 2 -0.001365 0.019963 0.000670 0.000000 0.000000 0.000000
# 3 -0.001371 0.000670 0.009447 0.000000 0.000000 0.000000
# 4 0.000000 0.000000 0.000000 0.051329 0.000000 0.000000
# 5 0.000000 0.000000 0.000000 0.000000 0.029353 0.000000
# 6 0.000000 0.000000 0.000000 0.000000 0.000000 0.022239
#
#
# Mechanical properties :
#
#
# Convention : Reuss Voigt Hill
#
# Bulk Modulus (GPa) = 29.98937 37.27088 33.63013
# Shear Modulus (GPa) = 32.12403 37.30084 34.71243
#
# Velocity S-wave (km/s) = 3.82578 4.12253 3.97692
# Velocity P-wave (km/s) = 5.76015 6.29618 6.03412
#
# Compressibility (1/GPa) = 0.03334515
#
# Stress axis : x y z
#
# Youngs Moduli (GPa) = 123.96236 50.09146 105.84908
#
# Poissons Ratio (x) = 0.06835 0.14517
# Poissons Ratio (y) = 0.16915 -0.07088
# Poissons Ratio (z) = 0.17001 -0.03354
#
# Static dielectric constant tensor:
#      x y z
#    x 3.939980 0.000000 0.000000 
#    y 0.000000 3.774680 0.000000 
#    z 0.000000 0.000000 4.057280 
# 
# 
# High freq. dielectric constant tensor:
#      x y z
#    x 1.870930 0.000000 0.000000 
#    y 0.000000 1.853040 0.000000 
#    z 0.000000 0.000000 1.872640 
# 
# From -- ./inp_files/69117.got.cif
#   From: 2010.03.12/outbox.cif.g09.slc.cpg/sg63_35_cif.got.tgz:69117.got - 2010.04.10 19:34:48.
