data_PCOD8259306
_publ_section_title
;
Structure prediction by ZEFSAII (Michael W. Deem and Ramdas Pophale) SiO2 
 PCOD8259306
Probable space group: C M C M
;
_chemical_formula_sum "Si O2"
_cell_formula_units_Z 96
_cell_length_a 8.999738
_cell_length_b 24.876706
_cell_length_c 23.511006
_cell_angle_alpha 90.000000
_cell_angle_beta 90.000000
_cell_angle_gamma 90.000000
_cell_volume 5263.734219
_symmetry_space_group_name_H-M "C M C M"
_symmetry_group_IT_number 63
_symmetry_cell_setting 'orthorhombic'
loop_
_space_group_symop_operation_xyz
x,y,z
-x,-y,1/2+z
x,-y,-z
-x,y,1/2-z
-x,-y,-z
x,y,1/2-z
-x,y,z
x,-y,1/2+z
1/2+x,1/2+y,z
1/2-x,1/2-y,1/2+z
1/2+x,1/2-y,-z
1/2-x,1/2+y,1/2-z
1/2-x,1/2-y,-z
1/2+x,1/2+y,1/2-z
1/2-x,1/2+y,z
1/2+x,1/2-y,1/2+z
loop_
_atom_site_type_symbol
_atom_site_label
_atom_site_fract_x
_atom_site_fract_y
_atom_site_fract_z
Si Si1 0.824288 0.418498 0.938738
Si Si2 0.824497 0.145365 0.250000
Si Si3 0.173439 0.614323 0.560944
Si Si4 0.172532 0.774388 0.055037
Si Si5 0.172073 0.679093 0.138330
Si Si6 0.673569 0.984884 0.137473
Si Si7 0.323878 0.522007 0.250000
O O1 0.767948 0.367004 0.903807
O O2 0.764301 0.472400 0.908739
O O3 0.000000 0.420887 0.940663
O O4 0.765344 0.413659 0.003231
O O5 0.765614 0.177251 0.195652
O O6 0.766865 0.083691 0.250000
O O7 0.000000 0.147112 0.250000
O O8 0.261467 0.668591 0.572970
O O9 0.201926 0.574594 0.613495
O O10 0.000000 0.628394 0.554174
O O11 0.198658 0.736223 0.109017
O O12 0.000000 0.780138 0.040520
O O13 0.250000 0.750000 0.000000
O O14 0.000000 0.669371 0.153045
O O15 0.500000 0.995088 0.149634
O O16 0.763304 0.990922 0.195356
O O17 0.500000 0.519271 0.250000
#
# Coordination Sequence:
#
# PCOD8259306 Si02
#       7
#    16   8  16  16  16  16   8
#     4   9  16  31  56  85 114 143 179 228 276 327
#     4  11  23  37  56  85 116 145 182 236 291 330
#     4  10  20  36  57  86 117 147 186 230 278 333
#     4  11  22  37  58  84 114 150 189 229 277 333
#     4  10  20  36  59  83 110 148 190 227 273 336
#     4  10  20  35  59  84 110 147 192 232 273 333
#     4  11  23  37  54  79 116 149 182 230 283 340
#
# _framework density 18.238002999999999
#
# number of rings (size 3 to 8) (size 9 to 14) (size 15 to 20)
#    0.000    1.833    3.333    1.500    0.000    4.667 
#    0.000    1.667    0.000    2.000    0.000    0.000 
#    0.000    0.000    0.000    0.000    0.000    0.000 
#
# Total GULP energy -595325.568388 kJ/mol
# GULP energy per Si atom -12402.616008 kJ/mol
# Density = 1.819649 g / cm^3
# Si number density = 18.238003 Si / 1000 Ang^3
#
#
#
# Elastic Constant Matrix: (Units=GPa)
#
#
# Indices 1 2 3 4 5 6 
#
# 1 72.6235 53.9330 55.4982 0.0000 0.0000 0.0000
# 2 53.9330 130.0974 58.2036 0.0000 0.0000 0.0000
# 3 55.4982 58.2036 129.6006 0.0000 0.0000 0.0000
# 4 0.0000 0.0000 0.0000 23.9452 0.0000 0.0000
# 5 0.0000 0.0000 0.0000 0.0000 22.4395 0.0000
# 6 0.0000 0.0000 0.0000 0.0000 0.0000 30.7722
#
#
#
# Elastic Compliance Matrix: (Units=1/GPa)
#
#
# Indices 1 2 3 4 5 6 
#
# 1 0.024532 -0.006845 -0.007431 0.000000 0.000000 0.000000
# 2 -0.006845 0.011529 -0.002246 0.000000 0.000000 0.000000
# 3 -0.007431 -0.002246 0.011907 0.000000 0.000000 0.000000
# 4 0.000000 0.000000 0.000000 0.041762 0.000000 0.000000
# 5 0.000000 0.000000 0.000000 0.000000 0.044564 0.000000
# 6 0.000000 0.000000 0.000000 0.000000 0.000000 0.032497
#
#
# Mechanical properties :
#
#
# Convention : Reuss Voigt Hill
#
# Bulk Modulus (GPa) = 67.01188 74.17679 70.59433
# Shear Modulus (GPa) = 24.41271 26.41051 25.41161
#
# Velocity S-wave (km/s) = 3.66261 3.80952 3.73679
# Velocity P-wave (km/s) = 7.39655 7.75305 7.57690
#
# Compressibility (1/GPa) = 0.01492273
#
# Stress axis : x y z
#
# Youngs Moduli (GPa) = 40.76313 86.73455 83.98417
#
# Poissons Ratio (x) = 0.59374 0.62408
# Poissons Ratio (y) = 0.27904 0.18867
# Poissons Ratio (z) = 0.30291 0.19485
#
# Static dielectric constant tensor:
#      x y z
#    x 3.177930 0.000000 0.000000 
#    y 0.000000 3.439020 0.000000 
#    z 0.000000 0.000000 3.363870 
# 
# 
# High freq. dielectric constant tensor:
#      x y z
#    x 1.687240 0.000000 0.000000 
#    y 0.000000 1.708490 0.000000 
#    z 0.000000 0.000000 1.709460 
# 
# From -- ./inp_files/60057.got.cif
#   From: 2010.03.12/outbox.cif.g09.slc.cpg/sg63_31_cif.got.tgz:60057.got - 2010.04.10 19:34:48.
