data_PCOD8259560
_publ_section_title
;
Structure prediction by ZEFSAII (Michael W. Deem and Ramdas Pophale) SiO2 
 PCOD8259560
Probable space group: C M C M
;
_chemical_formula_sum "Si O2"
_cell_formula_units_Z 80
_cell_length_a 10.228036
_cell_length_b 20.107182
_cell_length_c 20.904115
_cell_angle_alpha 90.000000
_cell_angle_beta 90.000000
_cell_angle_gamma 90.000000
_cell_volume 4299.077189
_symmetry_space_group_name_H-M "C M C M"
_symmetry_group_IT_number 63
_symmetry_cell_setting 'orthorhombic'
loop_
_space_group_symop_operation_xyz
x,y,z
-x,-y,1/2+z
x,-y,-z
-x,y,1/2-z
-x,-y,-z
x,y,1/2-z
-x,y,z
x,-y,1/2+z
1/2+x,1/2+y,z
1/2-x,1/2-y,1/2+z
1/2+x,1/2-y,-z
1/2-x,1/2+y,1/2-z
1/2-x,1/2-y,-z
1/2+x,1/2+y,1/2-z
1/2-x,1/2+y,z
1/2+x,1/2-y,1/2+z
loop_
_atom_site_type_symbol
_atom_site_label
_atom_site_fract_x
_atom_site_fract_y
_atom_site_fract_z
Si Si1 0.268680 0.605341 0.462277
Si Si2 0.000000 0.297635 0.174856
Si Si3 0.000000 0.207703 0.054208
Si Si4 0.653511 0.528240 0.913800
Si Si5 0.228598 0.136852 0.823714
Si Si6 0.000000 0.233552 0.826249
Si Si7 0.000000 0.678928 0.445982
O O1 0.370499 0.664551 0.453251
O O2 0.292245 0.546882 0.410475
O O3 0.281606 0.572670 0.531453
O O4 0.124516 0.632980 0.455716
O O5 0.125030 0.342422 0.158319
O O6 0.000000 0.274355 0.250000
O O7 0.000000 0.235618 0.126766
O O8 0.000000 0.262979 0.998811
O O9 0.500000 0.525519 0.926232
O O10 0.692653 0.564007 0.848703
O O11 0.207470 0.129410 0.750000
O O12 0.127713 0.192569 0.848056
O O13 0.000000 0.252363 0.750000
O O14 0.000000 0.297504 0.871939
#
# Coordination Sequence:
#
# PCOD8259560 Si02
#       7
#    16   8   8  16  16   8   8
#     4  11  23  37  58  85 112 148 185 229 289 328
#     4  10  22  37  55  87 121 146 182 235 285 327
#     4  12  20  38  59  82 115 154 190 223 276 341
#     4  11  20  39  60  79 112 146 188 238 279 331
#     4  10  20  36  61  85 108 148 193 231 275 328
#     4  10  20  37  59  83 115 152 186 227 275 331
#     4  12  24  36  57  90 115 144 192 233 274 343
#
# _framework density 18.608646
#
# number of rings (size 3 to 8) (size 9 to 14) (size 15 to 20)
#    0.000    1.200    3.000    4.800    0.000    2.400 
#    0.000    2.000    0.000    0.000    0.000    0.000 
#    0.000    0.000    0.000    0.000    0.000    0.000 
#
# Total GULP energy -495996.948231 kJ/mol
# GULP energy per Si atom -12399.923706 kJ/mol
# Density = 1.856629 g / cm^3
# Si number density = 18.608646 Si / 1000 Ang^3
#
#
#
# Elastic Constant Matrix: (Units=GPa)
#
#
# Indices 1 2 3 4 5 6 
#
# 1 175.9107 75.0220 38.9612 0.0000 0.0000 0.0000
# 2 75.0220 125.2462 51.6821 0.0000 0.0000 0.0000
# 3 38.9612 51.6821 48.6494 0.0000 0.0000 0.0000
# 4 0.0000 0.0000 0.0000 35.1527 0.0000 0.0000
# 5 0.0000 0.0000 0.0000 0.0000 23.2849 0.0000
# 6 0.0000 0.0000 0.0000 0.0000 0.0000 27.3173
#
#
#
# Elastic Compliance Matrix: (Units=1/GPa)
#
#
# Indices 1 2 3 4 5 6 
#
# 1 0.007774 -0.003717 -0.002277 0.000000 0.000000 0.000000
# 2 -0.003717 0.015993 -0.014014 0.000000 0.000000 0.000000
# 3 -0.002277 -0.014014 0.037266 0.000000 0.000000 0.000000
# 4 0.000000 0.000000 0.000000 0.028447 0.000000 0.000000
# 5 0.000000 0.000000 0.000000 0.000000 0.042946 0.000000
# 6 0.000000 0.000000 0.000000 0.000000 0.000000 0.036607
#
#
# Mechanical properties :
#
#
# Convention : Reuss Voigt Hill
#
# Bulk Modulus (GPa) = 47.57826 75.68186 61.63006
# Shear Modulus (GPa) = 23.14211 29.42704 26.28458
#
# Velocity S-wave (km/s) = 3.53033 3.98095 3.76239
# Velocity P-wave (km/s) = 6.49930 7.86697 7.21561
#
# Compressibility (1/GPa) = 0.02101800
#
# Stress axis : x y z
#
# Youngs Moduli (GPa) = 128.62818 62.52585 26.83397
#
# Poissons Ratio (x) = 0.23241 0.06111
# Poissons Ratio (y) = 0.47812 0.37604
# Poissons Ratio (z) = 0.29293 0.87621
#
# Static dielectric constant tensor:
#      x y z
#    x 2.729870 0.000000 0.000000 
#    y 0.000000 3.739560 0.000000 
#    z 0.000000 0.000000 3.469700 
# 
# 
# High freq. dielectric constant tensor:
#      x y z
#    x 1.741470 0.000000 0.000000 
#    y 0.000000 1.719300 0.000000 
#    z 0.000000 0.000000 1.720730 
# 
# From -- ./inp_files/59590.got.cif
#   From: 2010.03.12/outbox.cif.g09.slc.cpg/sg63_30_cif.got.tgz:59590.got - 2010.04.10 19:34:48.
