data_PCOD8259915
_publ_section_title
;
Structure prediction by ZEFSAII (Michael W. Deem and Ramdas Pophale) SiO2 
 PCOD8259915
Probable space group: C M C M
;
_chemical_formula_sum "Si O2"
_cell_formula_units_Z 80
_cell_length_a 27.459212
_cell_length_b 8.992395
_cell_length_c 16.998183
_cell_angle_alpha 90.000000
_cell_angle_beta 90.000000
_cell_angle_gamma 90.000000
_cell_volume 4197.260711
_symmetry_space_group_name_H-M "C M C M"
_symmetry_group_IT_number 63
_symmetry_cell_setting 'orthorhombic'
loop_
_space_group_symop_operation_xyz
x,y,z
-x,-y,1/2+z
x,-y,-z
-x,y,1/2-z
-x,-y,-z
x,y,1/2-z
-x,y,z
x,-y,1/2+z
1/2+x,1/2+y,z
1/2-x,1/2-y,1/2+z
1/2+x,1/2-y,-z
1/2-x,1/2+y,1/2-z
1/2-x,1/2-y,-z
1/2+x,1/2+y,1/2-z
1/2-x,1/2+y,z
1/2+x,1/2-y,1/2+z
loop_
_atom_site_type_symbol
_atom_site_label
_atom_site_fract_x
_atom_site_fract_y
_atom_site_fract_z
Si Si1 0.281410 0.302538 0.075099
Si Si2 0.443271 0.836093 0.026883
Si Si3 0.612882 0.617744 0.566860
Si Si4 0.719687 0.596308 0.162495
Si Si5 0.889143 0.840376 0.838852
O O1 0.339562 0.275579 0.071129
O O2 0.274019 0.476137 0.093394
O O3 0.262847 0.213413 0.151137
O O4 0.250000 0.250000 0.000000
O O5 0.500000 0.834311 0.046702
O O6 0.415227 0.778609 0.104432
O O7 0.432550 0.723118 0.954789
O O8 0.426130 0.000000 0.000000
O O9 0.625216 0.500000 0.500000
O O10 0.599803 0.516341 0.642784
O O11 0.722951 0.526636 0.250000
O O12 0.668637 0.682900 0.151837
O O13 0.906906 0.809042 0.750000
#
# Coordination Sequence:
#
# PCOD8259915 Si02
#       5
#    16  16  16  16  16
#     4  11  19  31  51  76 103 137 181 217 250 304
#     4  10  21  37  56  80 109 138 170 216 275 329
#     4   9  19  35  54  77 104 139 180 222 261 305
#     4  10  21  35  50  75 111 142 171 216 268 308
#     4   9  19  37  58  79 105 139 181 223 263 315
#
# _framework density 19.06005
#
# number of rings (size 3 to 8) (size 9 to 14) (size 15 to 20)
#    0.000    2.200    0.000    4.800    0.000    8.000 
#    0.000    2.000    0.000    1.200    0.000    0.000 
#    0.000    0.000    0.000    0.000    0.000    0.000 
#
# Total GULP energy -495693.629221 kJ/mol
# GULP energy per Si atom -12392.340731 kJ/mol
# Density = 1.901667 g / cm^3
# Si number density = 19.060050 Si / 1000 Ang^3
#
#
#
# Elastic Constant Matrix: (Units=GPa)
#
#
# Indices 1 2 3 4 5 6 
#
# 1 71.8581 53.4013 51.5191 0.0000 0.0000 0.0000
# 2 53.4013 93.0887 57.9787 0.0000 0.0000 0.0000
# 3 51.5191 57.9787 106.9721 0.0000 0.0000 0.0000
# 4 0.0000 0.0000 0.0000 30.8279 0.0000 0.0000
# 5 0.0000 0.0000 0.0000 0.0000 23.5194 0.0000
# 6 0.0000 0.0000 0.0000 0.0000 0.0000 35.0632
#
#
#
# Elastic Compliance Matrix: (Units=1/GPa)
#
#
# Indices 1 2 3 4 5 6 
#
# 1 0.027383 -0.011314 -0.007056 0.000000 0.000000 0.000000
# 2 -0.011314 0.020891 -0.005874 0.000000 0.000000 0.000000
# 3 -0.007056 -0.005874 0.015930 0.000000 0.000000 0.000000
# 4 0.000000 0.000000 0.000000 0.032438 0.000000 0.000000
# 5 0.000000 0.000000 0.000000 0.000000 0.042518 0.000000
# 6 0.000000 0.000000 0.000000 0.000000 0.000000 0.028520
#
#
# Mechanical properties :
#
#
# Convention : Reuss Voigt Hill
#
# Bulk Modulus (GPa) = 63.62659 66.41300 65.01979
# Shear Modulus (GPa) = 22.58277 25.15007 23.86642
#
# Velocity S-wave (km/s) = 3.44586 3.63646 3.54244
# Velocity P-wave (km/s) = 7.02044 7.24924 7.13576
#
# Compressibility (1/GPa) = 0.01571670
#
# Stress axis : x y z
#
# Youngs Moduli (GPa) = 36.51904 47.86654 62.77365
#
# Poissons Ratio (x) = 0.54156 0.44292
# Poissons Ratio (y) = 0.41317 0.36875
# Poissons Ratio (z) = 0.25767 0.28118
#
# Static dielectric constant tensor:
#      x y z
#    x 3.380300 0.000000 0.000000 
#    y 0.000000 3.567640 0.000000 
#    z 0.000000 0.000000 3.686740 
# 
# 
# High freq. dielectric constant tensor:
#      x y z
#    x 1.729890 0.000000 0.000000 
#    y 0.000000 1.732150 0.000000 
#    z 0.000000 0.000000 1.741780 
# 
# From -- ./inp_files/48809.got.cif
#   From: 2010.03.12/outbox.cif.g09.slc.cpg/sg63_25_cif.got.tgz:48809.got - 2010.04.10 19:34:48.
