data_PCOD8259975
_publ_section_title
;
Structure prediction by ZEFSAII (Michael W. Deem and Ramdas Pophale) SiO2 
 PCOD8259975
Probable space group: C M C M
;
_chemical_formula_sum "Si O2"
_cell_formula_units_Z 80
_cell_length_a 19.038802
_cell_length_b 25.723110
_cell_length_c 9.191972
_cell_angle_alpha 90.000000
_cell_angle_beta 90.000000
_cell_angle_gamma 90.000000
_cell_volume 4501.650612
_symmetry_space_group_name_H-M "C M C M"
_symmetry_group_IT_number 63
_symmetry_cell_setting 'orthorhombic'
loop_
_space_group_symop_operation_xyz
x,y,z
-x,-y,1/2+z
x,-y,-z
-x,y,1/2-z
-x,-y,-z
x,y,1/2-z
-x,y,z
x,-y,1/2+z
1/2+x,1/2+y,z
1/2-x,1/2-y,1/2+z
1/2+x,1/2-y,-z
1/2-x,1/2+y,1/2-z
1/2-x,1/2-y,-z
1/2+x,1/2+y,1/2-z
1/2-x,1/2+y,z
1/2+x,1/2-y,1/2+z
loop_
_atom_site_type_symbol
_atom_site_label
_atom_site_fract_x
_atom_site_fract_y
_atom_site_fract_z
Si Si1 0.418602 0.052420 0.420284
Si Si2 0.919522 0.050914 0.919821
Si Si3 0.333195 0.138783 0.916025
Si Si4 0.322966 0.253392 0.581240
Si Si5 0.669227 0.351467 0.080476
O O1 0.404912 0.045313 0.250000
O O2 0.500000 0.063411 0.454982
O O3 0.374161 0.101055 0.476522
O O4 0.393265 0.000000 0.500000
O O5 0.909575 0.041552 0.750000
O O6 0.874017 0.099165 0.974824
O O7 0.000000 0.061932 0.961700
O O8 0.890760 0.000000 0.000000
O O9 0.345511 0.120530 0.750000
O O10 0.362481 0.197888 0.937447
O O11 0.250718 0.137857 0.954044
O O12 0.309559 0.265085 0.750000
O O13 0.250000 0.250000 0.500000
O O14 0.362836 0.302025 0.507405
O O15 0.657309 0.340260 0.250000
#
# Coordination Sequence:
#
# PCOD8259975 Si02
#       5
#    16  16  16  16  16
#     4  10  21  36  53  72  95 126 162 199 242 291
#     4   9  18  33  51  70  96 131 166 201 243 287
#     4   9  18  32  50  73 100 128 159 197 239 285
#     4   9  17  30  49  73 100 130 161 195 240 287
#     4   9  18  32  50  74 102 129 161 201 242 285
#
# _framework density 17.771259000000001
#
# number of rings (size 3 to 8) (size 9 to 14) (size 15 to 20)
#    0.000    2.800    0.000    2.400    0.000    6.800 
#    0.000    3.000    0.000    3.600    0.000    0.000 
#    0.000    0.000    0.000    0.000    0.000    0.000 
#
# Total GULP energy -495874.127234 kJ/mol
# GULP energy per Si atom -12396.853181 kJ/mol
# Density = 1.773081 g / cm^3
# Si number density = 17.771259 Si / 1000 Ang^3
#
#
#
# Elastic Constant Matrix: (Units=GPa)
#
#
# Indices 1 2 3 4 5 6 
#
# 1 46.8976 59.2267 33.3200 0.0000 0.0000 0.0000
# 2 59.2267 176.3830 77.4793 0.0000 0.0000 0.0000
# 3 33.3200 77.4793 90.5808 0.0000 0.0000 0.0000
# 4 0.0000 0.0000 0.0000 41.9624 0.0000 0.0000
# 5 0.0000 0.0000 0.0000 0.0000 22.7046 0.0000
# 6 0.0000 0.0000 0.0000 0.0000 0.0000 -1.1472
#
#
#
# Elastic Compliance Matrix: (Units=1/GPa)
#
#
# Indices 1 2 3 4 5 6 
#
# 1 0.038363 -0.010705 -0.004955 0.000000 0.000000 0.000000
# 2 -0.010705 0.012069 -0.006386 0.000000 0.000000 0.000000
# 3 -0.004955 -0.006386 0.018325 0.000000 0.000000 0.000000
# 4 0.000000 0.000000 0.000000 0.023831 0.000000 0.000000
# 5 0.000000 0.000000 0.000000 0.000000 0.044044 0.000000
# 6 0.000000 0.000000 0.000000 0.000000 0.000000 -0.871679
#
#
# Mechanical properties :
#
#
# Convention : Reuss Voigt Hill
#
# Bulk Modulus (GPa) = 40.54303 72.65704 56.60003
# Shear Modulus (GPa) = -7.32349 22.29299 7.48475
#
# Velocity S-wave (km/s) = -2.03222 3.54565 2.05447
# Velocity P-wave (km/s) = 4.16615 7.59839 6.12749
#
# Compressibility (1/GPa) = 0.02466515
#
# Stress axis : x y z
#
# Youngs Moduli (GPa) = 26.06682 82.85671 54.57173
#
# Poissons Ratio (x) = 0.88699 0.27041
# Poissons Ratio (y) = 0.27905 0.34847
# Poissons Ratio (z) = 0.12916 0.52908
#
# Static dielectric constant tensor:
#      x y z
#    x 3.064400 0.000000 0.000000 
#    y 0.000000 5.310380 0.000000 
#    z 0.000000 0.000000 3.473210 
# 
# 
# High freq. dielectric constant tensor:
#      x y z
#    x 1.652770 0.000000 0.000000 
#    y 0.000000 1.704170 0.000000 
#    z 0.000000 0.000000 1.691760 
# 
# From -- ./inp_files/6455.got.cif
#   From: 2010.03.12/outbox.cif.g09.slc.cpg/sg63_4_cif.got.tgz:6455.got - 2010.04.10 19:34:48.
