data_PCOD8259148
_publ_section_title
;
Structure prediction by ZEFSAII (Michael W. Deem and Ramdas Pophale) SiO2 
 PCOD8259148
Probable space group: C M C M
;
_chemical_formula_sum "Si O2"
_cell_formula_units_Z 112
_cell_length_a 13.373253
_cell_length_b 14.696800
_cell_length_c 31.335661
_cell_angle_alpha 90.000000
_cell_angle_beta 90.000000
_cell_angle_gamma 90.000000
_cell_volume 6158.836929
_symmetry_space_group_name_H-M "C M C M"
_symmetry_group_IT_number 63
_symmetry_cell_setting 'orthorhombic'
loop_
_space_group_symop_operation_xyz
x,y,z
-x,-y,1/2+z
x,-y,-z
-x,y,1/2-z
-x,-y,-z
x,y,1/2-z
-x,y,z
x,-y,1/2+z
1/2+x,1/2+y,z
1/2-x,1/2-y,1/2+z
1/2+x,1/2-y,-z
1/2-x,1/2+y,1/2-z
1/2-x,1/2-y,-z
1/2+x,1/2+y,1/2-z
1/2-x,1/2+y,z
1/2+x,1/2-y,1/2+z
loop_
_atom_site_type_symbol
_atom_site_label
_atom_site_fract_x
_atom_site_fract_y
_atom_site_fract_z
Si Si1 0.884838 0.207138 0.833459
Si Si2 0.885178 0.599607 0.298203
Si Si3 0.269279 0.544276 0.367485
Si Si4 0.116049 0.024786 0.704749
Si Si5 0.261190 0.349158 0.089848
Si Si6 0.115506 0.806656 0.579952
Si Si7 0.613344 0.601732 0.989865
O O1 0.869390 0.293207 0.803465
O O2 0.840078 0.124100 0.806132
O O3 0.825046 0.212671 0.877700
O O4 0.000000 0.191837 0.845904
O O5 0.849424 0.572881 0.250000
O O6 0.827756 0.553001 0.337371
O O7 0.000000 0.571424 0.303905
O O8 0.360811 0.541341 0.334188
O O9 0.250152 0.453397 0.394786
O O10 0.303494 0.627572 0.396959
O O11 0.163221 0.991765 0.750000
O O12 0.000000 0.032293 0.710507
O O13 0.154470 0.297582 0.084652
O O14 0.317099 0.350434 0.044817
O O15 0.116968 0.834164 0.530814
O O16 0.000000 0.813387 0.597066
O O17 0.500000 0.594391 0.971962
O O18 0.652636 0.500000 0.000000
#
# Coordination Sequence:
#
# PCOD8259148 Si02
#       7
#    16  16  16  16  16  16  16
#     4   9  17  30  52  81 106 134 180 236 289 334
#     4  10  20  35  55  79 110 147 189 237 286 337
#     4  11  21  35  56  81 109 151 194 232 277 345
#     4   9  17  29  48  76 106 135 175 231 285 332
#     4  11  21  36  59  85 114 151 190 234 287 346
#     4  11  23  39  58  85 119 155 190 235 292 344
#     4  10  20  36  61  89 116 147 191 242 291 346
#
# _framework density 18.185251999999998
#
# number of rings (size 3 to 8) (size 9 to 14) (size 15 to 20)
#    0.000    1.857    2.857    2.143    0.000    3.429 
#    0.000    0.000    0.000    0.429    0.000    0.000 
#    0.000    0.000    0.000    0.000    0.000    0.000 
#
# Total GULP energy -693826.793058 kJ/mol
# GULP energy per Si atom -12389.764162 kJ/mol
# Density = 1.814386 g / cm^3
# Si number density = 18.185252 Si / 1000 Ang^3
#
#
#
# Elastic Constant Matrix: (Units=GPa)
#
#
# Indices 1 2 3 4 5 6 
#
# 1 78.1382 37.5918 44.5759 0.0000 0.0000 0.0000
# 2 37.5918 66.6608 27.7667 0.0000 0.0000 0.0000
# 3 44.5759 27.7667 103.0605 0.0000 0.0000 0.0000
# 4 0.0000 0.0000 0.0000 -2.3150 0.0000 0.0000
# 5 0.0000 0.0000 0.0000 0.0000 15.2958 0.0000
# 6 0.0000 0.0000 0.0000 0.0000 0.0000 28.9472
#
#
#
# Elastic Compliance Matrix: (Units=1/GPa)
#
#
# Indices 1 2 3 4 5 6 
#
# 1 0.020921 -0.009044 -0.006612 0.000000 0.000000 0.000000
# 2 -0.009044 0.020807 -0.001694 0.000000 0.000000 0.000000
# 3 -0.006612 -0.001694 0.013019 0.000000 0.000000 0.000000
# 4 0.000000 0.000000 0.000000 -0.431968 0.000000 0.000000
# 5 0.000000 0.000000 0.000000 0.000000 0.065377 0.000000
# 6 0.000000 0.000000 0.000000 0.000000 0.000000 0.034546
#
#
# Mechanical properties :
#
#
# Convention : Reuss Voigt Hill
#
# Bulk Modulus (GPa) = 49.88253 51.96981 50.92617
# Shear Modulus (GPa) = -21.19403 17.58062 -1.80671
#
# Velocity S-wave (km/s) = -3.41757 3.11264 -0.99783
# Velocity P-wave (km/s) = 3.45205 6.44655 5.17082
#
# Compressibility (1/GPa) = 0.02004710
#
# Stress axis : x y z
#
# Youngs Moduli (GPa) = 47.79966 48.06092 76.80840
#
# Poissons Ratio (x) = 0.43464 0.50787
# Poissons Ratio (y) = 0.43228 0.13014
# Poissons Ratio (z) = 0.31606 0.08143
#
# Static dielectric constant tensor:
#      x y z
#    x 3.315710 0.000000 0.000000 
#    y 0.000000 3.273190 0.000000 
#    z 0.000000 0.000000 3.800170 
# 
# 
# High freq. dielectric constant tensor:
#      x y z
#    x 1.690840 0.000000 0.000000 
#    y 0.000000 1.693870 0.000000 
#    z 0.000000 0.000000 1.719020 
# 
# From -- ./inp_files/69405.got.cif
#   From: 2010.03.12/outbox.cif.g09.slc.cpg/sg63_35_cif.got.tgz:69405.got - 2010.04.10 19:34:48.
