data_PCOD8259720
_publ_section_title
;
Structure prediction by ZEFSAII (Michael W. Deem and Ramdas Pophale) SiO2 
 PCOD8259720
Probable space group: C M C M
;
_chemical_formula_sum "Si O2"
_cell_formula_units_Z 80
_cell_length_a 11.483764
_cell_length_b 23.613098
_cell_length_c 14.801623
_cell_angle_alpha 90.000000
_cell_angle_beta 90.000000
_cell_angle_gamma 90.000000
_cell_volume 4013.715327
_symmetry_space_group_name_H-M "C M C M"
_symmetry_group_IT_number 63
_symmetry_cell_setting 'orthorhombic'
loop_
_space_group_symop_operation_xyz
x,y,z
-x,-y,1/2+z
x,-y,-z
-x,y,1/2-z
-x,-y,-z
x,y,1/2-z
-x,y,z
x,-y,1/2+z
1/2+x,1/2+y,z
1/2-x,1/2-y,1/2+z
1/2+x,1/2-y,-z
1/2-x,1/2+y,1/2-z
1/2-x,1/2-y,-z
1/2+x,1/2+y,1/2-z
1/2-x,1/2+y,z
1/2+x,1/2-y,1/2+z
loop_
_atom_site_type_symbol
_atom_site_label
_atom_site_fract_x
_atom_site_fract_y
_atom_site_fract_z
Si Si1 0.745954 0.842539 0.094953
Si Si2 0.500000 0.359930 0.355841
Si Si3 0.137472 0.583227 0.750000
Si Si4 0.000000 0.063769 0.475420
Si Si5 0.870086 0.767738 0.851796
Si Si6 0.862728 0.549516 0.250000
Si Si7 0.726173 0.614968 0.401552
O O1 0.692917 0.887293 0.163651
O O2 0.682261 0.782366 0.088353
O O3 0.880597 0.826619 0.119675
O O4 0.722851 0.873155 0.000220
O O5 0.500000 0.377622 0.250000
O O6 0.500000 0.412375 0.423165
O O7 0.169828 0.516844 0.750000
O O8 0.000000 0.593018 0.750000
O O9 0.891565 0.079830 0.413072
O O10 0.000000 0.000000 0.500000
O O11 0.872138 0.744506 0.750000
O O12 0.795922 0.824736 0.854801
O O13 0.000000 0.781208 0.887550
O O14 0.813166 0.578540 0.340413
O O15 0.000000 0.558653 0.250000
#
# Coordination Sequence:
#
# PCOD8259720 Si02
#       7
#    16   8   8   8  16   8  16
#     4  11  23  40  67  98 127 171 209 270 328 384
#     4  10  20  38  59  95 134 156 209 262 323 392
#     4  11  24  44  67  95 120 163 226 267 315 387
#     4  10  24  39  66 100 127 170 218 262 325 389
#     4  11  21  40  66  95 128 168 219 266 319 389
#     4  11  28  46  63  93 132 175 222 269 325 391
#     4  11  24  44  65  95 136 170 216 270 325 391
#
# _framework density 19.931657999999999
#
# number of rings (size 3 to 8) (size 9 to 14) (size 15 to 20)
#    0.000    1.200    4.000    1.200    5.600    2.000 
#    1.800    2.000    0.000    0.000    0.000    0.000 
#    0.000    0.000    0.000    0.000    0.000    0.000 
#
# Total GULP energy -495887.304228 kJ/mol
# GULP energy per Si atom -12397.182606 kJ/mol
# Density = 1.988629 g / cm^3
# Si number density = 19.931658 Si / 1000 Ang^3
#
#
#
# Elastic Constant Matrix: (Units=GPa)
#
#
# Indices 1 2 3 4 5 6 
#
# 1 110.2254 60.8704 49.6287 0.0000 0.0000 0.0000
# 2 60.8704 138.4949 35.2578 0.0000 0.0000 0.0000
# 3 49.6287 35.2578 115.8419 0.0000 0.0000 0.0000
# 4 0.0000 0.0000 0.0000 28.7728 0.0000 0.0000
# 5 0.0000 0.0000 0.0000 0.0000 23.6169 0.0000
# 6 0.0000 0.0000 0.0000 0.0000 0.0000 -15.1067
#
#
#
# Elastic Compliance Matrix: (Units=1/GPa)
#
#
# Indices 1 2 3 4 5 6 
#
# 1 0.013780 -0.004936 -0.004401 0.000000 0.000000 0.000000
# 2 -0.004936 0.009595 -0.000806 0.000000 0.000000 0.000000
# 3 -0.004401 -0.000806 0.010763 0.000000 0.000000 0.000000
# 4 0.000000 0.000000 0.000000 0.034755 0.000000 0.000000
# 5 0.000000 0.000000 0.000000 0.000000 0.042343 0.000000
# 6 0.000000 0.000000 0.000000 0.000000 0.000000 -0.066196
#
#
# Mechanical properties :
#
#
# Convention : Reuss Voigt Hill
#
# Bulk Modulus (GPa) = 72.19002 72.89734 72.54368
# Shear Modulus (GPa) = 71.48711 22.04363 46.76537
#
# Velocity S-wave (km/s) = 5.99533 3.32921 4.84910
# Velocity P-wave (km/s) = 9.17729 7.17155 8.23571
#
# Compressibility (1/GPa) = 0.01385233
#
# Stress axis : x y z
#
# Youngs Moduli (GPa) = 72.57034 104.22087 92.90893
#
# Poissons Ratio (x) = 0.51443 0.40891
# Poissons Ratio (y) = 0.35820 0.07486
# Poissons Ratio (z) = 0.31939 0.08397
#
# Static dielectric constant tensor:
#      x y z
#    x 3.854650 0.000000 0.000000 
#    y 0.000000 3.567460 0.000000 
#    z 0.000000 0.000000 4.817960 
# 
# 
# High freq. dielectric constant tensor:
#      x y z
#    x 1.781890 0.000000 0.000000 
#    y 0.000000 1.779930 0.000000 
#    z 0.000000 0.000000 1.790020 
# 
# From -- ./inp_files/29805.got.cif
#   From: 2010.03.12/outbox.cif.g09.slc.cpg/sg63_15_cif.got.tgz:29805.got - 2010.04.10 19:34:48.
