data_PCOD8259449
_publ_section_title
;
Structure prediction by ZEFSAII (Michael W. Deem and Ramdas Pophale) SiO2 
 PCOD8259449
Probable space group: C M C M
;
_chemical_formula_sum "Si O2"
_cell_formula_units_Z 96
_cell_length_a 8.905504
_cell_length_b 19.821623
_cell_length_c 28.886675
_cell_angle_alpha 90.000000
_cell_angle_beta 90.000000
_cell_angle_gamma 90.000000
_cell_volume 5099.120441
_symmetry_space_group_name_H-M "C M C M"
_symmetry_group_IT_number 63
_symmetry_cell_setting 'orthorhombic'
loop_
_space_group_symop_operation_xyz
x,y,z
-x,-y,1/2+z
x,-y,-z
-x,y,1/2-z
-x,-y,-z
x,y,1/2-z
-x,y,z
x,-y,1/2+z
1/2+x,1/2+y,z
1/2-x,1/2-y,1/2+z
1/2+x,1/2-y,-z
1/2-x,1/2+y,1/2-z
1/2-x,1/2-y,-z
1/2+x,1/2+y,1/2-z
1/2-x,1/2+y,z
1/2+x,1/2-y,1/2+z
loop_
_atom_site_type_symbol
_atom_site_label
_atom_site_fract_x
_atom_site_fract_y
_atom_site_fract_z
Si Si1 0.327937 0.435628 0.968116
Si Si2 0.672974 0.117611 0.302322
Si Si3 0.324470 0.010816 0.121467
Si Si4 0.322050 0.245524 0.697580
Si Si5 0.678113 0.857652 0.121362
Si Si6 0.677432 0.183637 0.520241
O O1 0.500000 0.410852 0.966447
O O2 0.273357 0.453039 0.917165
O O3 0.308065 0.500000 0.000000
O O4 0.222495 0.377728 0.987661
O O5 0.718990 0.099693 0.250000
O O6 0.500000 0.138219 0.306378
O O7 0.766384 0.181817 0.320423
O O8 0.708255 0.050888 0.331478
O O9 0.500000 0.012201 0.107565
O O10 0.266933 0.934371 0.128445
O O11 0.263720 0.231559 0.750000
O O12 0.500000 0.245643 0.696317
O O13 0.257278 0.188067 0.663228
O O14 0.500000 0.855235 0.121991
O O15 0.737907 0.829385 0.072312
O O16 0.500000 0.191572 0.519882
O O17 0.750000 0.250000 0.500000
#
# Coordination Sequence:
#
# PCOD8259449 Si02
#       6
#    16  16  16  16  16  16
#     4  11  23  39  58  82 113 148 188 233 279 331
#     4   9  19  35  55  82 112 141 178 225 275 330
#     4  10  20  36  58  82 109 147 186 226 279 333
#     4   9  18  34  56  80 108 144 182 222 272 329
#     4   9  19  35  55  80 109 141 182 228 272 323
#     4  11  23  39  58  82 115 150 188 233 280 334
#
# _framework density 18.826777
#
# number of rings (size 3 to 8) (size 9 to 14) (size 15 to 20)
#    0.000    2.167    1.667    1.000    2.333    2.000 
#    0.000    5.000    0.000    0.000    0.000    4.667 
#    0.000    0.000    0.000    0.000    0.000    0.000 
#
# Total GULP energy -595272.568728 kJ/mol
# GULP energy per Si atom -12401.511848 kJ/mol
# Density = 1.878393 g / cm^3
# Si number density = 18.826777 Si / 1000 Ang^3
#
#
#
# Elastic Constant Matrix: (Units=GPa)
#
#
# Indices 1 2 3 4 5 6 
#
# 1 38.5726 34.6704 27.1945 0.0000 0.0000 0.0000
# 2 34.6704 144.8353 88.0370 0.0000 0.0000 0.0000
# 3 27.1945 88.0370 124.4374 0.0000 0.0000 0.0000
# 4 0.0000 0.0000 0.0000 40.8653 0.0000 0.0000
# 5 0.0000 0.0000 0.0000 0.0000 23.2368 0.0000
# 6 0.0000 0.0000 0.0000 0.0000 0.0000 20.2553
#
#
#
# Elastic Compliance Matrix: (Units=1/GPa)
#
#
# Indices 1 2 3 4 5 6 
#
# 1 0.033619 -0.006284 -0.002901 0.000000 0.000000 0.000000
# 2 -0.006284 0.013288 -0.008028 0.000000 0.000000 0.000000
# 3 -0.002901 -0.008028 0.014350 0.000000 0.000000 0.000000
# 4 0.000000 0.000000 0.000000 0.024471 0.000000 0.000000
# 5 0.000000 0.000000 0.000000 0.000000 0.043035 0.000000
# 6 0.000000 0.000000 0.000000 0.000000 0.000000 0.049370
#
#
# Mechanical properties :
#
#
# Convention : Reuss Voigt Hill
#
# Bulk Modulus (GPa) = 37.27089 67.51659 52.39374
# Shear Modulus (GPa) = 22.57307 27.40103 24.98705
#
# Velocity S-wave (km/s) = 3.46640 3.81915 3.64704
# Velocity P-wave (km/s) = 5.98840 7.44229 6.75458
#
# Compressibility (1/GPa) = 0.02683059
#
# Stress axis : x y z
#
# Youngs Moduli (GPa) = 29.74515 75.25351 69.68742
#
# Poissons Ratio (x) = 0.47291 0.20217
# Poissons Ratio (y) = 0.18692 0.55945
# Poissons Ratio (z) = 0.08629 0.60413
#
# Static dielectric constant tensor:
#      x y z
#    x 3.304150 0.000000 0.000000 
#    y 0.000000 3.586700 0.000000 
#    z 0.000000 0.000000 3.703120 
# 
# 
# High freq. dielectric constant tensor:
#      x y z
#    x 1.711520 0.000000 0.000000 
#    y 0.000000 1.739950 0.000000 
#    z 0.000000 0.000000 1.739710 
# 
# From -- ./inp_files/66991.got.cif
#   From: 2010.03.12/outbox.cif.g09.slc.cpg/sg63_34_cif.got.tgz:66991.got - 2010.04.10 19:34:48.
