data_PCOD8259520
_publ_section_title
;
Structure prediction by ZEFSAII (Michael W. Deem and Ramdas Pophale) SiO2 
 PCOD8259520
Probable space group: C M C M
;
_chemical_formula_sum "Si O2"
_cell_formula_units_Z 96
_cell_length_a 12.531231
_cell_length_b 17.760064
_cell_length_c 23.643374
_cell_angle_alpha 90.000000
_cell_angle_beta 90.000000
_cell_angle_gamma 90.000000
_cell_volume 5261.962084
_symmetry_space_group_name_H-M "C M C M"
_symmetry_group_IT_number 63
_symmetry_cell_setting 'orthorhombic'
loop_
_space_group_symop_operation_xyz
x,y,z
-x,-y,1/2+z
x,-y,-z
-x,y,1/2-z
-x,-y,-z
x,y,1/2-z
-x,y,z
x,-y,1/2+z
1/2+x,1/2+y,z
1/2-x,1/2-y,1/2+z
1/2+x,1/2-y,-z
1/2-x,1/2+y,1/2-z
1/2-x,1/2-y,-z
1/2+x,1/2+y,1/2-z
1/2-x,1/2+y,z
1/2+x,1/2-y,1/2+z
loop_
_atom_site_type_symbol
_atom_site_label
_atom_site_fract_x
_atom_site_fract_y
_atom_site_fract_z
Si Si1 0.290093 0.671478 0.979273
Si Si2 0.613100 0.074229 0.467951
Si Si3 0.500000 0.477537 0.097253
Si Si4 0.625716 0.121580 0.250000
Si Si5 0.127369 0.794334 0.250000
Si Si6 0.500000 0.391266 0.519953
Si Si7 0.873371 0.487810 0.849470
Si Si8 0.695403 0.609133 0.857408
O O1 0.304106 0.664650 0.911734
O O2 0.250000 0.750000 0.000000
O O3 0.202343 0.611477 0.995027
O O4 0.396128 0.660092 0.015779
O O5 0.500000 0.120688 0.463319
O O6 0.657409 0.055232 0.406409
O O7 0.582222 0.000000 0.500000
O O8 0.500000 0.566296 0.081137
O O9 0.603832 0.453891 0.133211
O O10 0.500000 0.443333 0.035029
O O11 0.500000 0.128954 0.250000
O O12 0.670830 0.207525 0.250000
O O13 0.664370 0.072512 0.303109
O O14 0.170881 0.837059 0.195062
O O15 0.000000 0.796394 0.250000
O O16 0.806817 0.565796 0.845603
O O17 0.000000 0.507711 0.845258
#
# Coordination Sequence:
#
# PCOD8259520 Si02
#       8
#    16  16   8   8   8   8  16  16
#     4  11  24  36  56  87 124 159 194 237 304 361
#     4  10  20  36  59  87 120 153 193 241 286 347
#     4   9  18  35  60  82 112 146 196 243 281 339
#     4   9  21  38  58  84 112 145 193 247 297 344
#     4  11  23  40  59  87 119 150 193 250 306 345
#     4   9  20  36  54  82 117 155 190 238 291 349
#     4  10  20  37  61  89 113 153 199 241 289 342
#     4  11  21  38  61  86 115 153 199 245 287 352
#
# _framework density 18.244146000000001
#
# number of rings (size 3 to 8) (size 9 to 14) (size 15 to 20)
#    0.000    1.833    2.500    1.500    5.833    0.000 
#    0.000    0.000    0.000    0.000    2.167    0.000 
#    0.000    0.000    0.000    0.000    0.000    0.000 
#
# Total GULP energy -594805.330563 kJ/mol
# GULP energy per Si atom -12391.777720 kJ/mol
# Density = 1.820262 g / cm^3
# Si number density = 18.244146 Si / 1000 Ang^3
#
#
#
# Elastic Constant Matrix: (Units=GPa)
#
#
# Indices 1 2 3 4 5 6 
#
# 1 97.3030 49.7848 27.3444 0.0000 0.0000 0.0000
# 2 49.7848 97.5916 52.5049 0.0000 0.0000 0.0000
# 3 27.3444 52.5049 130.9844 0.0000 0.0000 0.0000
# 4 0.0000 0.0000 0.0000 30.2370 0.0000 0.0000
# 5 0.0000 0.0000 0.0000 0.0000 29.3630 0.0000
# 6 0.0000 0.0000 0.0000 0.0000 0.0000 -32.1480
#
#
#
# Elastic Compliance Matrix: (Units=1/GPa)
#
#
# Indices 1 2 3 4 5 6 
#
# 1 0.013908 -0.007054 -0.000076 0.000000 0.000000 0.000000
# 2 -0.007054 0.016642 -0.005198 0.000000 0.000000 0.000000
# 3 -0.000076 -0.005198 0.009734 0.000000 0.000000 0.000000
# 4 0.000000 0.000000 0.000000 0.033072 0.000000 0.000000
# 5 0.000000 0.000000 0.000000 0.000000 0.034056 0.000000
# 6 0.000000 0.000000 0.000000 0.000000 0.000000 -0.031106
#
#
# Mechanical properties :
#
#
# Convention : Reuss Voigt Hill
#
# Bulk Modulus (GPa) = 63.98981 65.01636 64.50308
# Shear Modulus (GPa) = 47.09367 18.57339 32.83353
#
# Velocity S-wave (km/s) = 5.08616 3.19415 4.24686
# Velocity P-wave (km/s) = 8.34520 7.02265 7.71233
#
# Compressibility (1/GPa) = 0.01562749
#
# Stress axis : x y z
#
# Youngs Moduli (GPa) = 71.90311 60.08903 102.73208
#
# Poissons Ratio (x) = 0.42387 0.00779
# Poissons Ratio (y) = 0.50720 0.53403
# Poissons Ratio (z) = 0.00545 0.31236
#
# Static dielectric constant tensor:
#      x y z
#    x 3.595920 0.000000 0.000000 
#    y 0.000000 3.304830 0.000000 
#    z 0.000000 0.000000 3.424850 
# 
# 
# High freq. dielectric constant tensor:
#      x y z
#    x 1.712010 0.000000 0.000000 
#    y 0.000000 1.691390 0.000000 
#    z 0.000000 0.000000 1.710800 
# 
# From -- ./inp_files/61559.got.cif
#   From: 2010.03.12/outbox.cif.g09.slc.cpg/sg63_31_cif.got.tgz:61559.got - 2010.04.10 19:34:48.
