data_PCOD8259227
_publ_section_title
;
Structure prediction by ZEFSAII (Michael W. Deem and Ramdas Pophale) SiO2 
 PCOD8259227
Probable space group: C M C M
;
_chemical_formula_sum "Si O2"
_cell_formula_units_Z 104
_cell_length_a 21.084929
_cell_length_b 27.956418
_cell_length_c 9.028584
_cell_angle_alpha 90.000000
_cell_angle_beta 90.000000
_cell_angle_gamma 90.000000
_cell_volume 5321.980896
_symmetry_space_group_name_H-M "C M C M"
_symmetry_group_IT_number 63
_symmetry_cell_setting 'orthorhombic'
loop_
_space_group_symop_operation_xyz
x,y,z
-x,-y,1/2+z
x,-y,-z
-x,y,1/2-z
-x,-y,-z
x,y,1/2-z
-x,y,z
x,-y,1/2+z
1/2+x,1/2+y,z
1/2-x,1/2-y,1/2+z
1/2+x,1/2-y,-z
1/2-x,1/2+y,1/2-z
1/2-x,1/2-y,-z
1/2+x,1/2+y,1/2-z
1/2-x,1/2+y,z
1/2+x,1/2-y,1/2+z
loop_
_atom_site_type_symbol
_atom_site_label
_atom_site_fract_x
_atom_site_fract_y
_atom_site_fract_z
Si Si1 0.180330 0.547782 0.582527
Si Si2 0.395808 0.628973 0.075586
Si Si3 0.071999 0.614093 0.920049
Si Si4 0.000000 0.948128 0.576024
Si Si5 0.760990 0.862471 0.425557
Si Si6 0.844815 0.309149 0.576005
Si Si7 0.930261 0.221489 0.581256
O O1 0.197684 0.500000 0.500000
O O2 0.198056 0.537410 0.750000
O O3 0.107015 0.562993 0.561532
O O4 0.223282 0.590742 0.522250
O O5 0.382979 0.629377 0.250000
O O6 0.437421 0.582383 0.030663
O O7 0.330651 0.630447 0.986909
O O8 0.432623 0.676687 0.029035
O O9 0.079031 0.631858 0.750000
O O10 0.000000 0.606009 0.967474
O O11 0.102864 0.652743 0.026581
O O12 0.000000 0.957146 0.750000
O O13 0.000000 0.000000 0.500000
O O14 0.762733 0.855435 0.250000
O O15 0.722809 0.817038 0.493957
O O16 0.833632 0.314050 0.750000
O O17 0.873969 0.257469 0.534318
O O18 0.918243 0.204140 0.750000
O O19 0.000000 0.246310 0.569718
#
# Coordination Sequence:
#
# PCOD8259227 Si02
#       7
#    16  16  16   8  16  16  16
#     4   9  19  34  52  75 105 141 185 234 284 340
#     4  11  23  41  63  90 119 148 189 238 285 340
#     4   9  18  33  51  74 109 151 193 236 284 340
#     4  10  24  44  66  94 124 154 194 242 295 358
#     4  10  22  40  59  82 114 153 194 236 290 354
#     4  10  20  35  56  85 117 152 196 242 286 337
#     4  10  21  37  59  87 120 157 194 234 286 346
#
# _framework density 19.541595000000001
#
# number of rings (size 3 to 8) (size 9 to 14) (size 15 to 20)
#    0.000    2.154    0.769    2.769    0.000    8.000 
#    0.000    3.077    0.000    0.000    0.000    0.000 
#    0.000    0.000    0.000    0.000    0.000    0.000 
#
# Total GULP energy -644632.487162 kJ/mol
# GULP energy per Si atom -12396.778599 kJ/mol
# Density = 1.949712 g / cm^3
# Si number density = 19.541595 Si / 1000 Ang^3
#
#
#
# Elastic Constant Matrix: (Units=GPa)
#
#
# Indices 1 2 3 4 5 6 
#
# 1 146.4440 48.3918 43.3298 0.0000 0.0000 0.0000
# 2 48.3918 113.0602 48.1108 0.0000 0.0000 0.0000
# 3 43.3298 48.1108 71.6315 0.0000 0.0000 0.0000
# 4 0.0000 0.0000 0.0000 35.8475 0.0000 0.0000
# 5 0.0000 0.0000 0.0000 0.0000 32.5655 0.0000
# 6 0.0000 0.0000 0.0000 0.0000 0.0000 15.1122
#
#
#
# Elastic Compliance Matrix: (Units=1/GPa)
#
#
# Indices 1 2 3 4 5 6 
#
# 1 0.008649 -0.002066 -0.003844 0.000000 0.000000 0.000000
# 2 -0.002066 0.012878 -0.007400 0.000000 0.000000 0.000000
# 3 -0.003844 -0.007400 0.021255 0.000000 0.000000 0.000000
# 4 0.000000 0.000000 0.000000 0.027896 0.000000 0.000000
# 5 0.000000 0.000000 0.000000 0.000000 0.030707 0.000000
# 6 0.000000 0.000000 0.000000 0.000000 0.000000 0.066172
#
#
# Mechanical properties :
#
#
# Convention : Reuss Voigt Hill
#
# Bulk Modulus (GPa) = 61.87035 67.86671 64.86853
# Shear Modulus (GPa) = 25.05467 29.45861 27.25664
#
# Velocity S-wave (km/s) = 3.58455 3.88684 3.73876
# Velocity P-wave (km/s) = 6.99011 7.41270 7.20450
#
# Compressibility (1/GPa) = 0.01616283
#
# Stress axis : x y z
#
# Youngs Moduli (GPa) = 115.62579 77.65218 47.04689
#
# Poissons Ratio (x) = 0.16043 0.18084
# Poissons Ratio (y) = 0.23889 0.34813
# Poissons Ratio (z) = 0.44445 0.57460
#
# Static dielectric constant tensor:
#      x y z
#    x 3.756810 0.000000 0.000000 
#    y 0.000000 3.599510 0.000000 
#    z 0.000000 0.000000 3.585650 
# 
# 
# High freq. dielectric constant tensor:
#      x y z
#    x 1.773780 0.000000 0.000000 
#    y 0.000000 1.750070 0.000000 
#    z 0.000000 0.000000 1.761430 
# 
# From -- ./inp_files/8824.got.cif
#   From: 2010.03.12/outbox.cif.g09.slc.cpg/sg63_5_cif.got.tgz:8824.got - 2010.04.10 19:34:48.
