data_PCOD8259652
_publ_section_title
;
Structure prediction by ZEFSAII (Michael W. Deem and Ramdas Pophale) SiO2 
 PCOD8259652
Probable space group: C M C M
;
_chemical_formula_sum "Si O2"
_cell_formula_units_Z 96
_cell_length_a 17.900622
_cell_length_b 14.451565
_cell_length_c 18.488637
_cell_angle_alpha 90.000000
_cell_angle_beta 90.000000
_cell_angle_gamma 90.000000
_cell_volume 4782.862527
_symmetry_space_group_name_H-M "C M C M"
_symmetry_group_IT_number 63
_symmetry_cell_setting 'orthorhombic'
loop_
_space_group_symop_operation_xyz
x,y,z
-x,-y,1/2+z
x,-y,-z
-x,y,1/2-z
-x,-y,-z
x,y,1/2-z
-x,y,z
x,-y,1/2+z
1/2+x,1/2+y,z
1/2-x,1/2-y,1/2+z
1/2+x,1/2-y,-z
1/2-x,1/2+y,1/2-z
1/2-x,1/2-y,-z
1/2+x,1/2+y,1/2-z
1/2-x,1/2+y,z
1/2+x,1/2-y,1/2+z
loop_
_atom_site_type_symbol
_atom_site_label
_atom_site_fract_x
_atom_site_fract_y
_atom_site_fract_z
Si Si1 0.717588 0.637852 0.935160
Si Si2 0.715717 0.151280 0.085313
Si Si3 0.080595 0.014706 0.583926
Si Si4 0.361938 0.344256 0.667206
Si Si5 0.584286 0.946566 0.832806
Si Si6 0.353514 0.139750 0.668169
O O1 0.693866 0.744950 0.937364
O O2 0.647703 0.584508 0.900043
O O3 0.784711 0.614641 0.882334
O O4 0.742942 0.604284 0.015716
O O5 0.773346 0.149097 0.151660
O O6 0.640626 0.099439 0.109874
O O7 0.000000 0.054168 0.611140
O O8 0.076423 0.000000 0.500000
O O9 0.091412 0.914908 0.619860
O O10 0.376280 0.369390 0.750000
O O11 0.389218 0.239579 0.647753
O O12 0.604420 0.918135 0.750000
O O13 0.500000 0.914992 0.851720
O O14 0.586406 0.058130 0.840470
O O15 0.322853 0.145899 0.750000
#
# Coordination Sequence:
#
# PCOD8259652 Si02
#       6
#    16  16  16  16  16  16
#     4  10  21  37  60  84 115 153 197 243 292 343
#     4  10  20  37  60  86 115 152 196 242 288 350
#     4  11  23  38  57  84 119 158 193 238 302 358
#     4  10  20  37  61  87 114 152 201 247 288 341
#     4  10  21  37  58  86 121 156 188 236 300 354
#     4   9  20  37  60  88 117 152 200 250 289 338
#
# _framework density 20.071662
#
# number of rings (size 3 to 8) (size 9 to 14) (size 15 to 20)
#    0.000    2.000    1.667    1.500    0.000    4.333 
#    0.000    3.333    0.000    0.000    0.000    0.000 
#    0.000    0.000    0.000    0.000    0.000    0.000 
#
# Total GULP energy -595041.159492 kJ/mol
# GULP energy per Si atom -12396.690823 kJ/mol
# Density = 2.002598 g / cm^3
# Si number density = 20.071662 Si / 1000 Ang^3
#
#
#
# Elastic Constant Matrix: (Units=GPa)
#
#
# Indices 1 2 3 4 5 6 
#
# 1 101.1438 47.8114 43.0527 0.0000 0.0000 0.0000
# 2 47.8114 82.0724 40.3636 0.0000 0.0000 0.0000
# 3 43.0527 40.3636 90.2024 0.0000 0.0000 0.0000
# 4 0.0000 0.0000 0.0000 32.5344 0.0000 0.0000
# 5 0.0000 0.0000 0.0000 0.0000 89.3454 0.0000
# 6 0.0000 0.0000 0.0000 0.0000 0.0000 17.8323
#
#
#
# Elastic Compliance Matrix: (Units=1/GPa)
#
#
# Indices 1 2 3 4 5 6 
#
# 1 0.014735 -0.006571 -0.004092 0.000000 0.000000 0.000000
# 2 -0.006571 0.018553 -0.005166 0.000000 0.000000 0.000000
# 3 -0.004092 -0.005166 0.015351 0.000000 0.000000 0.000000
# 4 0.000000 0.000000 0.000000 0.030737 0.000000 0.000000
# 5 0.000000 0.000000 0.000000 0.000000 0.011193 0.000000
# 6 0.000000 0.000000 0.000000 0.000000 0.000000 0.056078
#
#
# Mechanical properties :
#
#
# Convention : Reuss Voigt Hill
#
# Bulk Modulus (GPa) = 58.89154 59.54154 59.21654
# Shear Modulus (GPa) = 27.17906 37.42183 32.30045
#
# Velocity S-wave (km/s) = 3.68380 4.32257 4.01591
# Velocity P-wave (km/s) = 6.89189 7.39200 7.14632
#
# Compressibility (1/GPa) = 0.01698037
#
# Stress axis : x y z
#
# Youngs Moduli (GPa) = 67.86469 53.89966 65.14250
#
# Poissons Ratio (x) = 0.35419 0.26659
# Poissons Ratio (y) = 0.44596 0.33650
# Poissons Ratio (z) = 0.27773 0.27843
#
# Static dielectric constant tensor:
#      x y z
#    x 3.767290 0.000000 0.000000 
#    y 0.000000 3.761710 0.000000 
#    z 0.000000 0.000000 3.574590 
# 
# 
# High freq. dielectric constant tensor:
#      x y z
#    x 1.771550 0.000000 0.000000 
#    y 0.000000 1.785800 0.000000 
#    z 0.000000 0.000000 1.782190 
# 
# From -- ./inp_files/54140.got.cif
#   From: 2010.03.12/outbox.cif.g09.slc.cpg/sg63_28_cif.got.tgz:54140.got - 2010.04.10 19:34:48.
