data_PCOD8259472
_publ_section_title
;
Structure prediction by ZEFSAII (Michael W. Deem and Ramdas Pophale) SiO2 
 PCOD8259472
Probable space group: C M C M
;
_chemical_formula_sum "Si O2"
_cell_formula_units_Z 72
_cell_length_a 26.807263
_cell_length_b 9.545495
_cell_length_c 13.911904
_cell_angle_alpha 90.000000
_cell_angle_beta 90.000000
_cell_angle_gamma 90.000000
_cell_volume 3559.897567
_symmetry_space_group_name_H-M "C M C M"
_symmetry_group_IT_number 63
_symmetry_cell_setting 'orthorhombic'
loop_
_space_group_symop_operation_xyz
x,y,z
-x,-y,1/2+z
x,-y,-z
-x,y,1/2-z
-x,-y,-z
x,y,1/2-z
-x,y,z
x,-y,1/2+z
1/2+x,1/2+y,z
1/2-x,1/2-y,1/2+z
1/2+x,1/2-y,-z
1/2-x,1/2+y,1/2-z
1/2-x,1/2-y,-z
1/2+x,1/2+y,1/2-z
1/2-x,1/2+y,z
1/2+x,1/2-y,1/2+z
loop_
_atom_site_type_symbol
_atom_site_label
_atom_site_fract_x
_atom_site_fract_y
_atom_site_fract_z
Si Si1 0.378707 0.500000 0.500000
Si Si2 0.706112 0.479333 0.358308
Si Si3 0.057243 0.541198 0.359510
Si Si4 0.099114 0.299715 0.032367
Si Si5 0.700876 0.803016 0.139471
O O1 0.343545 0.561425 0.583844
O O2 0.412150 0.368025 0.534860
O O3 0.695745 0.431552 0.250000
O O4 0.717892 0.642833 0.366916
O O5 0.753542 0.396257 0.399636
O O6 0.075722 0.552852 0.250000
O O7 0.061409 0.380108 0.396014
O O8 0.092005 0.641234 0.424439
O O9 0.000000 0.588873 0.369085
O O10 0.154743 0.331552 0.069212
O O11 0.686779 0.842070 0.250000
#
# Coordination Sequence:
#
# PCOD8259472 Si02
#       5
#     8  16  16  16  16
#     4  10  22  34  53  84 116 148 179 220 272 322
#     4   9  19  34  49  72 111 152 188 224 260 302
#     4  10  22  41  62  82 105 136 176 223 275 332
#     4  10  20  36  58  84 111 140 179 225 271 323
#     4   9  18  32  51  76 108 148 188 223 261 307
#
# _framework density 20.225301000000002
#
# number of rings (size 3 to 8) (size 9 to 14) (size 15 to 20)
#    0.000    2.444    0.000    2.000    0.000   10.667 
#    0.000    4.444    0.000    2.667    0.000    0.000 
#    0.000    0.000    0.000    0.000    0.000    0.000 
#
# Total GULP energy -446331.843281 kJ/mol
# GULP energy per Si atom -12398.106758 kJ/mol
# Density = 2.017927 g / cm^3
# Si number density = 20.225301 Si / 1000 Ang^3
#
#
#
# Elastic Constant Matrix: (Units=GPa)
#
#
# Indices 1 2 3 4 5 6 
#
# 1 37.5490 29.6518 18.9675 0.0000 0.0000 0.0000
# 2 29.6518 88.2685 26.7187 0.0000 0.0000 0.0000
# 3 18.9675 26.7187 111.6750 0.0000 0.0000 0.0000
# 4 0.0000 0.0000 0.0000 23.0018 0.0000 0.0000
# 5 0.0000 0.0000 0.0000 0.0000 36.0786 0.0000
# 6 0.0000 0.0000 0.0000 0.0000 0.0000 25.2466
#
#
#
# Elastic Compliance Matrix: (Units=1/GPa)
#
#
# Indices 1 2 3 4 5 6 
#
# 1 0.037560 -0.011521 -0.003623 0.000000 0.000000 0.000000
# 2 -0.011521 0.015747 -0.001811 0.000000 0.000000 0.000000
# 3 -0.003623 -0.001811 0.010003 0.000000 0.000000 0.000000
# 4 0.000000 0.000000 0.000000 0.043475 0.000000 0.000000
# 5 0.000000 0.000000 0.000000 0.000000 0.027717 0.000000
# 6 0.000000 0.000000 0.000000 0.000000 0.000000 0.039609
#
#
# Mechanical properties :
#
#
# Convention : Reuss Voigt Hill
#
# Bulk Modulus (GPa) = 34.01229 43.12983 38.57106
# Shear Modulus (GPa) = 22.95464 27.67570 25.31517
#
# Velocity S-wave (km/s) = 3.37255 3.70316 3.54172
# Velocity P-wave (km/s) = 5.65851 6.29726 5.98641
#
# Compressibility (1/GPa) = 0.02940113
#
# Stress axis : x y z
#
# Youngs Moduli (GPa) = 26.62432 63.50290 99.96835
#
# Poissons Ratio (x) = 0.73159 0.36218
# Poissons Ratio (y) = 0.30673 0.18103
# Poissons Ratio (z) = 0.09646 0.11500
#
# Static dielectric constant tensor:
#      x y z
#    x 3.406410 0.000000 0.000000 
#    y 0.000000 3.704650 0.000000 
#    z 0.000000 0.000000 3.925870 
# 
# 
# High freq. dielectric constant tensor:
#      x y z
#    x 1.762550 0.000000 0.000000 
#    y 0.000000 1.787220 0.000000 
#    z 0.000000 0.000000 1.802630 
# 
# From -- ./inp_files/38325.got.cif
#   From: 2010.03.12/outbox.cif.g09.slc.cpg/sg63_20_cif.got.tgz:38325.got - 2010.04.10 19:34:48.
