data_PCOD8259317
_publ_section_title
;
Structure prediction by ZEFSAII (Michael W. Deem and Ramdas Pophale) SiO2 
 PCOD8259317
Probable space group: C M C M
;
_chemical_formula_sum "Si O2"
_cell_formula_units_Z 48
_cell_length_a 9.065822
_cell_length_b 37.778626
_cell_length_c 7.506070
_cell_angle_alpha 90.000000
_cell_angle_beta 90.000000
_cell_angle_gamma 90.000000
_cell_volume 2570.786181
_symmetry_space_group_name_H-M "C M C M"
_symmetry_group_IT_number 63
_symmetry_cell_setting 'orthorhombic'
loop_
_space_group_symop_operation_xyz
x,y,z
-x,-y,1/2+z
x,-y,-z
-x,y,1/2-z
-x,-y,-z
x,y,1/2-z
-x,y,z
x,-y,1/2+z
1/2+x,1/2+y,z
1/2-x,1/2-y,1/2+z
1/2+x,1/2-y,-z
1/2-x,1/2+y,1/2-z
1/2-x,1/2-y,-z
1/2+x,1/2+y,1/2-z
1/2-x,1/2+y,z
1/2+x,1/2-y,1/2+z
loop_
_atom_site_type_symbol
_atom_site_label
_atom_site_fract_x
_atom_site_fract_y
_atom_site_fract_z
Si Si1 0.829185 0.039814 0.043641
Si Si2 0.173582 0.159802 0.750000
Si Si3 0.670930 0.714051 0.049180
Si Si4 0.174869 0.585019 0.750000
O O1 0.800938 0.048402 0.250000
O O2 0.000000 0.045082 0.991971
O O3 0.731992 0.066180 0.927970
O O4 0.779657 0.000000 0.000000
O O5 0.221081 0.182042 0.576576
O O6 0.268967 0.124803 0.750000
O O7 0.000000 0.150527 0.750000
O O8 0.708658 0.702538 0.250000
O O9 0.500000 0.721803 0.021000
O O10 0.750000 0.750000 0.000000
O O11 0.000000 0.584326 0.750000
#
# Coordination Sequence:
#
# PCOD8259317 Si02
#       4
#    16   8  16   8
#     4  10  20  39  67  92 116 155 207 250 291 357
#     4  10  22  40  58  82 119 160 203 244 288 351
#     4  10  20  35  59  88 115 148 194 243 292 347
#     4  12  26  40  58  90 131 162 193 250 312 357
#
# _framework density 18.671330000000001
#
# number of rings (size 3 to 8) (size 9 to 14) (size 15 to 20)
#    0.000    1.667    3.333    1.500    0.000    4.000 
#    0.000    3.333    0.000    0.000    0.000    0.000 
#    0.000    0.000    0.000    0.000    0.000    0.000 
#
# Total GULP energy -297689.940098 kJ/mol
# GULP energy per Si atom -12403.747504 kJ/mol
# Density = 1.862883 g / cm^3
# Si number density = 18.671330 Si / 1000 Ang^3
#
#
#
# Elastic Constant Matrix: (Units=GPa)
#
#
# Indices 1 2 3 4 5 6 
#
# 1 89.4489 80.1075 63.2400 0.0000 0.0000 0.0000
# 2 80.1075 165.0903 89.9853 0.0000 0.0000 0.0000
# 3 63.2400 89.9853 161.4383 0.0000 0.0000 0.0000
# 4 0.0000 0.0000 0.0000 30.2701 0.0000 0.0000
# 5 0.0000 0.0000 0.0000 0.0000 25.3572 0.0000
# 6 0.0000 0.0000 0.0000 0.0000 0.0000 31.1624
#
#
#
# Elastic Compliance Matrix: (Units=1/GPa)
#
#
# Indices 1 2 3 4 5 6 
#
# 1 0.021201 -0.008275 -0.003693 0.000000 0.000000 0.000000
# 2 -0.008275 0.011930 -0.003409 0.000000 0.000000 0.000000
# 3 -0.003693 -0.003409 0.009541 0.000000 0.000000 0.000000
# 4 0.000000 0.000000 0.000000 0.033036 0.000000 0.000000
# 5 0.000000 0.000000 0.000000 0.000000 0.039437 0.000000
# 6 0.000000 0.000000 0.000000 0.000000 0.000000 0.032090
#
#
# Mechanical properties :
#
#
# Convention : Reuss Voigt Hill
#
# Bulk Modulus (GPa) = 83.89141 98.07145 90.98143
# Shear Modulus (GPa) = 27.47872 29.53427 28.50649
#
# Velocity S-wave (km/s) = 3.84044 3.98150 3.91161
# Velocity P-wave (km/s) = 8.04323 8.58927 8.32073
#
# Compressibility (1/GPa) = 0.01192017
#
# Stress axis : x y z
#
# Youngs Moduli (GPa) = 47.16828 83.82062 104.81343
#
# Poissons Ratio (x) = 0.69357 0.38705
# Poissons Ratio (y) = 0.39029 0.35726
# Poissons Ratio (z) = 0.17418 0.28570
#
# Static dielectric constant tensor:
#      x y z
#    x 3.341180 0.000000 0.000000 
#    y 0.000000 3.338560 0.000000 
#    z 0.000000 0.000000 2.810380 
# 
# 
# High freq. dielectric constant tensor:
#      x y z
#    x 1.711830 0.000000 0.000000 
#    y 0.000000 1.724650 0.000000 
#    z 0.000000 0.000000 1.746670 
# 
# From -- ./inp_files/1966.got.cif
#   From: 2010.03.12/outbox.cif.g09.slc.cpg/sg63_1_cif.got.tgz:1966.got - 2010.04.10 19:34:48.
