data_PCOD8259935
_publ_section_title
;
Structure prediction by ZEFSAII (Michael W. Deem and Ramdas Pophale) SiO2 
 PCOD8259935
Probable space group: C M C M
;
_chemical_formula_sum "Si O2"
_cell_formula_units_Z 80
_cell_length_a 26.245166
_cell_length_b 11.626137
_cell_length_c 13.479178
_cell_angle_alpha 90.000000
_cell_angle_beta 90.000000
_cell_angle_gamma 90.000000
_cell_volume 4112.900175
_symmetry_space_group_name_H-M "C M C M"
_symmetry_group_IT_number 63
_symmetry_cell_setting 'orthorhombic'
loop_
_space_group_symop_operation_xyz
x,y,z
-x,-y,1/2+z
x,-y,-z
-x,y,1/2-z
-x,-y,-z
x,y,1/2-z
-x,y,z
x,-y,1/2+z
1/2+x,1/2+y,z
1/2-x,1/2-y,1/2+z
1/2+x,1/2-y,-z
1/2-x,1/2+y,1/2-z
1/2-x,1/2-y,-z
1/2+x,1/2+y,1/2-z
1/2-x,1/2+y,z
1/2+x,1/2-y,1/2+z
loop_
_atom_site_type_symbol
_atom_site_label
_atom_site_fract_x
_atom_site_fract_y
_atom_site_fract_z
Si Si1 0.442480 0.292139 0.134416
Si Si2 0.286361 0.238256 0.132794
Si Si3 0.851770 0.049240 0.865790
Si Si4 0.329560 0.297191 0.632167
Si Si5 0.627705 0.131305 0.480853
O O1 0.439717 0.261433 0.250000
O O2 0.500000 0.318208 0.099922
O O3 0.408498 0.404902 0.111576
O O4 0.420707 0.182534 0.076684
O O5 0.291248 0.224221 0.250000
O O6 0.309780 0.359610 0.094583
O O7 0.228240 0.228262 0.098499
O O8 0.320598 0.138189 0.084281
O O9 0.841700 0.033750 0.750000
O O10 0.844935 0.922627 0.913371
O O11 0.336642 0.290487 0.750000
O O12 0.365431 0.200764 0.583997
O O13 0.614593 0.000000 0.500000
#
# Coordination Sequence:
#
# PCOD8259935 Si02
#       5
#    16  16  16  16  16
#     4   9  19  39  64  83 103 139 185 235 286 330
#     4   9  19  35  54  76 107 150 189 222 267 324
#     4   8  16  33  55  80 105 136 184 230 266 324
#     4  10  21  35  53  78 114 152 181 222 277 326
#     4  11  23  35  52  83 115 145 187 231 270 330
#
# _framework density 19.450996
#
# number of rings (size 3 to 8) (size 9 to 14) (size 15 to 20)
#    0.000    2.600    0.000    2.400    2.800    5.200 
#    0.000    2.000    0.000    1.800    0.000    0.000 
#    0.000    0.000    0.000    0.000    0.000    0.000 
#
# Total GULP energy -496018.341881 kJ/mol
# GULP energy per Si atom -12400.458547 kJ/mol
# Density = 1.940672 g / cm^3
# Si number density = 19.450996 Si / 1000 Ang^3
#
#
#
# Elastic Constant Matrix: (Units=GPa)
#
#
# Indices 1 2 3 4 5 6 
#
# 1 147.3550 76.1856 46.3323 0.0000 0.0000 0.0000
# 2 76.1856 158.5846 44.3989 0.0000 0.0000 0.0000
# 3 46.3323 44.3989 38.2685 0.0000 0.0000 0.0000
# 4 0.0000 0.0000 0.0000 31.9524 0.0000 0.0000
# 5 0.0000 0.0000 0.0000 0.0000 25.3835 0.0000
# 6 0.0000 0.0000 0.0000 0.0000 0.0000 15.8183
#
#
#
# Elastic Compliance Matrix: (Units=1/GPa)
#
#
# Indices 1 2 3 4 5 6 
#
# 1 0.011553 -0.002420 -0.011179 0.000000 0.000000 0.000000
# 2 -0.002420 0.009846 -0.008494 0.000000 0.000000 0.000000
# 3 -0.011179 -0.008494 0.049520 0.000000 0.000000 0.000000
# 4 0.000000 0.000000 0.000000 0.031297 0.000000 0.000000
# 5 0.000000 0.000000 0.000000 0.000000 0.039396 0.000000
# 6 0.000000 0.000000 0.000000 0.000000 0.000000 0.063218
#
#
# Mechanical properties :
#
#
# Convention : Reuss Voigt Hill
#
# Bulk Modulus (GPa) = 37.40641 75.33797 56.37219
# Shear Modulus (GPa) = 19.38541 26.45026 22.91784
#
# Velocity S-wave (km/s) = 3.16037 3.69160 3.43627
# Velocity P-wave (km/s) = 5.70877 7.54896 6.69242
#
# Compressibility (1/GPa) = 0.02673339
#
# Stress axis : x y z
#
# Youngs Moduli (GPa) = 86.56059 101.55979 20.19387
#
# Poissons Ratio (x) = 0.24579 0.22575
# Poissons Ratio (y) = 0.20949 0.17152
# Poissons Ratio (z) = 0.96766 0.86261
#
# Static dielectric constant tensor:
#      x y z
#    x 3.611580 0.000000 0.000000 
#    y 0.000000 3.550310 0.000000 
#    z 0.000000 0.000000 3.587960 
# 
# 
# High freq. dielectric constant tensor:
#      x y z
#    x 1.739460 0.000000 0.000000 
#    y 0.000000 1.746330 0.000000 
#    z 0.000000 0.000000 1.776500 
# 
# From -- ./inp_files/36469.got.cif
#   From: 2010.03.12/outbox.cif.g09.slc.cpg/sg63_19_cif.got.tgz:36469.got - 2010.04.10 19:34:48.
