data_PCOD8259372
_publ_section_title
;
Structure prediction by ZEFSAII (Michael W. Deem and Ramdas Pophale) SiO2 
 PCOD8259372
Probable space group: C M C M
;
_chemical_formula_sum "Si O2"
_cell_formula_units_Z 112
_cell_length_a 14.799960
_cell_length_b 24.028028
_cell_length_c 15.171141
_cell_angle_alpha 90.000000
_cell_angle_beta 90.000000
_cell_angle_gamma 90.000000
_cell_volume 5395.067910
_symmetry_space_group_name_H-M "C M C M"
_symmetry_group_IT_number 63
_symmetry_cell_setting 'orthorhombic'
loop_
_space_group_symop_operation_xyz
x,y,z
-x,-y,1/2+z
x,-y,-z
-x,y,1/2-z
-x,-y,-z
x,y,1/2-z
-x,y,z
x,-y,1/2+z
1/2+x,1/2+y,z
1/2-x,1/2-y,1/2+z
1/2+x,1/2-y,-z
1/2-x,1/2+y,1/2-z
1/2-x,1/2-y,-z
1/2+x,1/2+y,1/2-z
1/2-x,1/2+y,z
1/2+x,1/2-y,1/2+z
loop_
_atom_site_type_symbol
_atom_site_label
_atom_site_fract_x
_atom_site_fract_y
_atom_site_fract_z
Si Si1 0.893920 0.685396 0.849839
Si Si2 0.717230 0.963666 0.850313
Si Si3 0.901365 0.047523 0.428528
Si Si4 0.606012 0.139954 0.353089
Si Si5 0.101938 0.137457 0.932442
Si Si6 0.772156 0.584047 0.852281
Si Si7 0.893509 0.740884 0.025424
O O1 0.864675 0.703554 0.750000
O O2 0.845971 0.628843 0.881026
O O3 0.000000 0.673616 0.853149
O O4 0.865105 0.730921 0.922990
O O5 0.685675 0.965532 0.750000
O O6 0.824225 0.950777 0.854906
O O7 0.658028 0.914072 0.893253
O O8 0.702424 0.024277 0.896912
O O9 0.902224 0.108180 0.472988
O O10 0.000000 0.036119 0.385170
O O11 0.880024 0.000000 0.500000
O O12 0.628257 0.150707 0.250000
O O13 0.500000 0.130090 0.367701
O O14 0.641981 0.192858 0.408854
O O15 0.169926 0.103084 0.871428
O O16 0.143969 0.199352 0.944000
O O17 0.000000 0.138534 0.891042
O O18 0.776390 0.572825 0.750000
O O19 0.000000 0.743485 0.031937
#
# Coordination Sequence:
#
# PCOD8259372 Si02
#       7
#    16  16  16  16  16  16  16
#     4   9  19  37  57  80 114 150 186 233 282 334
#     4  10  21  36  55  81 112 147 187 233 281 332
#     4  10  20  36  56  77 104 142 184 229 285 334
#     4   9  19  36  57  84 119 153 187 230 282 343
#     4  10  21  37  57  82 109 142 185 234 285 338
#     4  10  21  35  54  82 111 144 187 232 282 333
#     4   9  19  36  59  84 111 148 191 230 283 342
#
# _framework density 20.759702000000001
#
# number of rings (size 3 to 8) (size 9 to 14) (size 15 to 20)
#    0.000    2.429    1.429    0.000    2.000    2.286 
#    0.000    6.429    0.000    5.571    0.000    0.000 
#    0.000    0.000    0.000    0.000    0.000    0.000 
#
# Total GULP energy -693940.185482 kJ/mol
# GULP energy per Si atom -12391.789026 kJ/mol
# Density = 2.071245 g / cm^3
# Si number density = 20.759702 Si / 1000 Ang^3
#
#
#
# Elastic Constant Matrix: (Units=GPa)
#
#
# Indices 1 2 3 4 5 6 
#
# 1 46.9373 27.7609 11.8134 0.0000 0.0000 0.0000
# 2 27.7609 154.3948 21.9547 0.0000 0.0000 0.0000
# 3 11.8134 21.9547 29.4930 0.0000 0.0000 0.0000
# 4 0.0000 0.0000 0.0000 23.5045 0.0000 0.0000
# 5 0.0000 0.0000 0.0000 0.0000 26.7377 0.0000
# 6 0.0000 0.0000 0.0000 0.0000 0.0000 25.7270
#
#
#
# Elastic Compliance Matrix: (Units=1/GPa)
#
#
# Indices 1 2 3 4 5 6 
#
# 1 0.025253 -0.003469 -0.007532 0.000000 0.000000 0.000000
# 2 -0.003469 0.007720 -0.004357 0.000000 0.000000 0.000000
# 3 -0.007532 -0.004357 0.040167 0.000000 0.000000 0.000000
# 4 0.000000 0.000000 0.000000 0.042545 0.000000 0.000000
# 5 0.000000 0.000000 0.000000 0.000000 0.037400 0.000000
# 6 0.000000 0.000000 0.000000 0.000000 0.000000 0.038870
#
#
# Mechanical properties :
#
#
# Convention : Reuss Voigt Hill
#
# Bulk Modulus (GPa) = 23.57272 39.32035 31.44653
# Shear Modulus (GPa) = 21.11359 26.48024 23.79692
#
# Velocity S-wave (km/s) = 3.19258 3.57537 3.38938
# Velocity P-wave (km/s) = 4.99697 6.00218 5.52250
#
# Compressibility (1/GPa) = 0.04242192
#
# Stress axis : x y z
#
# Youngs Moduli (GPa) = 39.59961 129.52804 24.89601
#
# Poissons Ratio (x) = 0.44939 0.18752
# Poissons Ratio (y) = 0.13739 0.10848
# Poissons Ratio (z) = 0.29828 0.56440
#
# Static dielectric constant tensor:
#      x y z
#    x 3.733930 0.000000 0.000000 
#    y 0.000000 4.273260 0.000000 
#    z 0.000000 0.000000 3.564670 
# 
# 
# High freq. dielectric constant tensor:
#      x y z
#    x 1.808130 0.000000 0.000000 
#    y 0.000000 1.821590 0.000000 
#    z 0.000000 0.000000 1.788110 
# 
# From -- ./inp_files/32337.got.cif
#   From: 2010.03.12/outbox.cif.g09.slc.cpg/sg63_17_cif.got.tgz:32337.got - 2010.04.10 19:34:48.
