data_PCOD8259207
_publ_section_title
;
Structure prediction by ZEFSAII (Michael W. Deem and Ramdas Pophale) SiO2 
 PCOD8259207
Probable space group: C M C M
;
_chemical_formula_sum "Si O2"
_cell_formula_units_Z 64
_cell_length_a 8.782730
_cell_length_b 22.508598
_cell_length_c 16.004098
_cell_angle_alpha 90.000000
_cell_angle_beta 90.000000
_cell_angle_gamma 90.000000
_cell_volume 3163.801144
_symmetry_space_group_name_H-M "C M C M"
_symmetry_group_IT_number 63
_symmetry_cell_setting 'orthorhombic'
loop_
_space_group_symop_operation_xyz
x,y,z
-x,-y,1/2+z
x,-y,-z
-x,y,1/2-z
-x,-y,-z
x,y,1/2-z
-x,y,z
x,-y,1/2+z
1/2+x,1/2+y,z
1/2-x,1/2-y,1/2+z
1/2+x,1/2-y,-z
1/2-x,1/2+y,1/2-z
1/2-x,1/2-y,-z
1/2+x,1/2+y,1/2-z
1/2-x,1/2+y,z
1/2+x,1/2-y,1/2+z
loop_
_atom_site_type_symbol
_atom_site_label
_atom_site_fract_x
_atom_site_fract_y
_atom_site_fract_z
Si Si1 0.670416 0.165515 0.436397
Si Si2 0.818944 0.363457 0.250000
Si Si3 0.681576 0.996067 0.250000
Si Si4 0.679500 0.458756 0.577773
Si Si5 0.829409 0.275127 0.114823
O O1 0.500000 0.145976 0.410047
O O2 0.778005 0.108645 0.444130
O O3 0.736102 0.213969 0.371331
O O4 0.669825 0.200688 0.522141
O O5 0.750953 0.429419 0.250000
O O6 0.757390 0.327694 0.170027
O O7 0.000000 0.369529 0.250000
O O8 0.500000 0.999110 0.250000
O O9 0.740271 0.026328 0.165315
O O10 0.735530 0.500000 0.500000
O O11 0.500000 0.465121 0.589658
O O12 0.000000 0.260874 0.145352
#
# Coordination Sequence:
#
# PCOD8259207 Si02
#       5
#    16   8   8  16  16
#     4  10  20  35  56  82 112 148 192 238 287 343
#     4   9  18  34  57  82 107 140 182 231 288 343
#     4  11  23  40  63  90 119 152 198 249 294 351
#     4  11  24  41  61  86 120 161 200 242 296 354
#     4   9  18  34  56  81 110 144 184 234 291 349
#
# _framework density 20.228832000000001
#
# number of rings (size 3 to 8) (size 9 to 14) (size 15 to 20)
#    0.000    2.000    0.000    3.375    0.000    6.000 
#    0.000    6.875    0.000    0.000    0.000    0.000 
#    0.000    0.000    0.000    0.000    0.000    0.000 
#
# Total GULP energy -396667.520235 kJ/mol
# GULP energy per Si atom -12395.860007 kJ/mol
# Density = 2.018279 g / cm^3
# Si number density = 20.228832 Si / 1000 Ang^3
#
#
#
# Elastic Constant Matrix: (Units=GPa)
#
#
# Indices 1 2 3 4 5 6 
#
# 1 75.0214 32.6387 34.0905 0.0000 0.0000 0.0000
# 2 32.6387 120.0952 14.9372 0.0000 0.0000 0.0000
# 3 34.0905 14.9372 67.7678 0.0000 0.0000 0.0000
# 4 0.0000 0.0000 0.0000 11.9237 0.0000 0.0000
# 5 0.0000 0.0000 0.0000 0.0000 16.2646 0.0000
# 6 0.0000 0.0000 0.0000 0.0000 0.0000 30.8196
#
#
#
# Elastic Compliance Matrix: (Units=1/GPa)
#
#
# Indices 1 2 3 4 5 6 
#
# 1 0.019059 -0.004100 -0.008684 0.000000 0.000000 0.000000
# 2 -0.004100 0.009443 -0.000019 0.000000 0.000000 0.000000
# 3 -0.008684 -0.000019 0.019129 0.000000 0.000000 0.000000
# 4 0.000000 0.000000 0.000000 0.083867 0.000000 0.000000
# 5 0.000000 0.000000 0.000000 0.000000 0.061483 0.000000
# 6 0.000000 0.000000 0.000000 0.000000 0.000000 0.032447
#
#
# Mechanical properties :
#
#
# Convention : Reuss Voigt Hill
#
# Bulk Modulus (GPa) = 45.40140 47.35747 46.37943
# Shear Modulus (GPa) = 19.35162 23.88277 21.61719
#
# Velocity S-wave (km/s) = 3.09631 3.43976 3.27254
# Velocity P-wave (km/s) = 5.93931 6.26399 6.10381
#
# Compressibility (1/GPa) = 0.02202575
#
# Stress axis : x y z
#
# Youngs Moduli (GPa) = 52.46783 105.89524 52.27654
#
# Poissons Ratio (x) = 0.43414 0.45398
# Poissons Ratio (y) = 0.21510 0.00100
# Poissons Ratio (z) = 0.45564 0.00202
#
# Static dielectric constant tensor:
#      x y z
#    x 3.764570 0.000000 0.000000 
#    y 0.000000 3.847910 0.000000 
#    z 0.000000 0.000000 3.652510 
# 
# 
# High freq. dielectric constant tensor:
#      x y z
#    x 1.779420 0.000000 0.000000 
#    y 0.000000 1.805100 0.000000 
#    z 0.000000 0.000000 1.787010 
# 
# From -- ./inp_files/27536.got.cif
#   From: 2010.03.12/outbox.cif.g09.slc.cpg/sg63_14_cif.got.tgz:27536.got - 2010.04.10 19:34:48.
