data_PCOD8259599
_publ_section_title
;
Structure prediction by ZEFSAII (Michael W. Deem and Ramdas Pophale) SiO2 
 PCOD8259599
Probable space group: C M C M
;
_chemical_formula_sum "Si O2"
_cell_formula_units_Z 72
_cell_length_a 17.651450
_cell_length_b 23.592656
_cell_length_c 9.184762
_cell_angle_alpha 90.000000
_cell_angle_beta 90.000000
_cell_angle_gamma 90.000000
_cell_volume 3824.944425
_symmetry_space_group_name_H-M "C M C M"
_symmetry_group_IT_number 63
_symmetry_cell_setting 'orthorhombic'
loop_
_space_group_symop_operation_xyz
x,y,z
-x,-y,1/2+z
x,-y,-z
-x,y,1/2-z
-x,-y,-z
x,y,1/2-z
-x,y,z
x,-y,1/2+z
1/2+x,1/2+y,z
1/2-x,1/2-y,1/2+z
1/2+x,1/2-y,-z
1/2-x,1/2+y,1/2-z
1/2-x,1/2-y,-z
1/2+x,1/2+y,1/2-z
1/2-x,1/2+y,z
1/2+x,1/2-y,1/2+z
loop_
_atom_site_type_symbol
_atom_site_label
_atom_site_fract_x
_atom_site_fract_y
_atom_site_fract_z
Si Si1 0.000000 0.939796 0.076342
Si Si2 0.788232 0.558924 0.419278
Si Si3 0.866584 0.878342 0.918229
Si Si4 0.586089 0.144578 0.421534
Si Si5 0.413116 0.744432 0.083862
O O1 0.000000 0.946754 0.250000
O O2 0.925447 0.906781 0.027146
O O3 0.000000 0.000000 0.000000
O O4 0.781442 0.500000 0.500000
O O5 0.795535 0.545355 0.250000
O O6 0.715398 0.596933 0.453171
O O7 0.861793 0.592932 0.476545
O O8 0.890838 0.889364 0.750000
O O9 0.863350 0.811144 0.949812
O O10 0.592435 0.151025 0.250000
O O11 0.500000 0.132224 0.472396
O O12 0.616320 0.203506 0.487269
O O13 0.404625 0.763569 0.250000
O O14 0.500000 0.729268 0.046309
#
# Coordination Sequence:
#
# PCOD8259599 Si02
#       5
#     8  16  16  16  16
#     4  12  24  36  54  80 110 148 191 226 269 322
#     4  10  22  38  56  78 108 146 186 230 279 326
#     4  10  20  37  57  79 111 147 183 226 274 323
#     4   9  19  36  56  80 111 144 179 226 281 330
#     4   9  17  32  55  81 109 142 179 220 270 327
#
# _framework density 18.823802000000001
#
# number of rings (size 3 to 8) (size 9 to 14) (size 15 to 20)
#    0.000    2.222    1.111    1.667    0.000    5.778 
#    0.000    0.000    0.000    0.000    0.000    0.000 
#    0.000    0.000    0.000    0.000    0.000    0.000 
#
# Total GULP energy -446467.792857 kJ/mol
# GULP energy per Si atom -12401.883135 kJ/mol
# Density = 1.878096 g / cm^3
# Si number density = 18.823802 Si / 1000 Ang^3
#
#
#
# Elastic Constant Matrix: (Units=GPa)
#
#
# Indices 1 2 3 4 5 6 
#
# 1 101.2612 63.1017 41.4835 0.0000 0.0000 0.0000
# 2 63.1017 119.8049 40.1067 0.0000 0.0000 0.0000
# 3 41.4835 40.1067 60.9221 0.0000 0.0000 0.0000
# 4 0.0000 0.0000 0.0000 35.4177 0.0000 0.0000
# 5 0.0000 0.0000 0.0000 0.0000 14.1798 0.0000
# 6 0.0000 0.0000 0.0000 0.0000 0.0000 68.4337
#
#
#
# Elastic Compliance Matrix: (Units=1/GPa)
#
#
# Indices 1 2 3 4 5 6 
#
# 1 0.016864 -0.006462 -0.007229 0.000000 0.000000 0.000000
# 2 -0.006462 0.013183 -0.004278 0.000000 0.000000 0.000000
# 3 -0.007229 -0.004278 0.024153 0.000000 0.000000 0.000000
# 4 0.000000 0.000000 0.000000 0.028234 0.000000 0.000000
# 5 0.000000 0.000000 0.000000 0.000000 0.070523 0.000000
# 6 0.000000 0.000000 0.000000 0.000000 0.000000 0.014613
#
#
# Mechanical properties :
#
#
# Convention : Reuss Voigt Hill
#
# Bulk Modulus (GPa) = 54.76085 63.48576 59.12330
# Shear Modulus (GPa) = 23.85547 32.75934 28.30740
#
# Velocity S-wave (km/s) = 3.56378 4.17623 3.88210
# Velocity P-wave (km/s) = 6.78885 7.55342 7.18132
#
# Compressibility (1/GPa) = 0.01826122
#
# Stress axis : x y z
#
# Youngs Moduli (GPa) = 59.29834 75.85618 41.40251
#
# Poissons Ratio (x) = 0.49021 0.29929
# Poissons Ratio (y) = 0.38321 0.17713
# Poissons Ratio (z) = 0.42865 0.32453
#
# Static dielectric constant tensor:
#      x y z
#    x 3.531790 0.000000 0.000000 
#    y 0.000000 3.543330 0.000000 
#    z 0.000000 0.000000 3.292410 
# 
# 
# High freq. dielectric constant tensor:
#      x y z
#    x 1.727280 0.000000 0.000000 
#    y 0.000000 1.739880 0.000000 
#    z 0.000000 0.000000 1.721630 
# 
# From -- ./inp_files/4661.got.cif
#   From: 2010.03.12/outbox.cif.g09.slc.cpg/sg63_3_cif.got.tgz:4661.got - 2010.04.10 19:34:48.
