data_PCOD8259688
_publ_section_title
;
Structure prediction by ZEFSAII (Michael W. Deem and Ramdas Pophale) SiO2 
 PCOD8259688
Probable space group: C M C M
;
_chemical_formula_sum "Si O2"
_cell_formula_units_Z 112
_cell_length_a 13.956729
_cell_length_b 12.571806
_cell_length_c 27.448871
_cell_angle_alpha 90.000000
_cell_angle_beta 90.000000
_cell_angle_gamma 90.000000
_cell_volume 4816.214298
_symmetry_space_group_name_H-M "C M C M"
_symmetry_group_IT_number 63
_symmetry_cell_setting 'orthorhombic'
loop_
_space_group_symop_operation_xyz
x,y,z
-x,-y,1/2+z
x,-y,-z
-x,y,1/2-z
-x,-y,-z
x,y,1/2-z
-x,y,z
x,-y,1/2+z
1/2+x,1/2+y,z
1/2-x,1/2-y,1/2+z
1/2+x,1/2-y,-z
1/2-x,1/2+y,1/2-z
1/2-x,1/2-y,-z
1/2+x,1/2+y,1/2-z
1/2-x,1/2+y,z
1/2+x,1/2-y,1/2+z
loop_
_atom_site_type_symbol
_atom_site_label
_atom_site_fract_x
_atom_site_fract_y
_atom_site_fract_z
Si Si1 0.602570 0.779006 0.630982
Si Si2 0.857341 0.099463 0.804285
Si Si3 0.350697 0.187901 0.804753
Si Si4 0.387590 0.206522 0.475553
Si Si5 0.107775 0.456863 0.696597
Si Si6 0.696073 0.399287 0.969959
Si Si7 0.111997 0.102776 0.135514
O O1 0.500000 0.832789 0.619146
O O2 0.578921 0.671258 0.660407
O O3 0.645235 0.750775 0.578205
O O4 0.661264 0.871183 0.661079
O O5 0.900878 0.091984 0.750000
O O6 0.761434 0.168453 0.804126
O O7 0.846781 0.980763 0.824960
O O8 0.388555 0.214842 0.750000
O O9 0.378236 0.279084 0.842593
O O10 0.395397 0.076661 0.824210
O O11 0.500000 0.171101 0.480485
O O12 0.367280 0.298622 0.514028
O O13 0.309906 0.112097 0.483145
O O14 0.160414 0.457922 0.750000
O O15 0.000000 0.415056 0.704208
O O16 0.675425 0.412965 0.912696
O O17 0.657727 0.500000 0.000000
O O18 0.000000 0.079816 0.124947
#
# Coordination Sequence:
#
# PCOD8259688 Si02
#       7
#    16  16  16  16  16  16  16
#     4  10  20  37  62  91 124 163 210 265 322 386
#     4  11  24  38  60  94 134 176 220 272 328 388
#     4  10  23  40  62  91 131 176 220 269 319 382
#     4  10  23  45  69  98 131 168 217 273 337 401
#     4   9  18  34  58  88 122 163 208 255 313 380
#     4  11  25  45  70  98 131 170 218 277 336 401
#     4  12  26  44  68  97 133 180 229 277 335 402
#
# _framework density 23.254778000000002
#
# number of rings (size 3 to 8) (size 9 to 14) (size 15 to 20)
#    0.000    1.571    0.000    3.857    4.000    6.857 
#    0.000    0.000    0.000    0.000    0.000    0.000 
#    0.000    0.000    0.000    0.000    0.000    0.000 
#
# Total GULP energy -693806.448176 kJ/mol
# GULP energy per Si atom -12389.400860 kJ/mol
# Density = 2.320185 g / cm^3
# Si number density = 23.254778 Si / 1000 Ang^3
#
#
#
# Elastic Constant Matrix: (Units=GPa)
#
#
# Indices 1 2 3 4 5 6 
#
# 1 79.4160 -0.0882 0.5041 0.0000 0.0000 0.0000
# 2 -0.0882 111.9701 48.5712 0.0000 0.0000 0.0000
# 3 0.5041 48.5712 121.3239 0.0000 0.0000 0.0000
# 4 0.0000 0.0000 0.0000 36.0518 0.0000 0.0000
# 5 0.0000 0.0000 0.0000 0.0000 10.7475 0.0000
# 6 0.0000 0.0000 0.0000 0.0000 0.0000 31.9568
#
#
#
# Elastic Compliance Matrix: (Units=1/GPa)
#
#
# Indices 1 2 3 4 5 6 
#
# 1 0.012592 0.000039 -0.000068 0.000000 0.000000 0.000000
# 2 0.000039 0.010808 -0.004327 0.000000 0.000000 0.000000
# 3 -0.000068 -0.004327 0.009975 0.000000 0.000000 0.000000
# 4 0.000000 0.000000 0.000000 0.027738 0.000000 0.000000
# 5 0.000000 0.000000 0.000000 0.000000 0.093045 0.000000
# 6 0.000000 0.000000 0.000000 0.000000 0.000000 0.031292
#
#
# Mechanical properties :
#
#
# Convention : Reuss Voigt Hill
#
# Bulk Modulus (GPa) = 40.54499 45.63157 43.08828
# Shear Modulus (GPa) = 24.70556 33.33275 29.01915
#
# Velocity S-wave (km/s) = 3.26296 3.79010 3.53637
# Velocity P-wave (km/s) = 5.62751 6.23042 5.93663
#
# Compressibility (1/GPa) = 0.02466396
#
# Stress axis : x y z
#
# Youngs Moduli (GPa) = 79.41298 92.52391 100.25065
#
# Poissons Ratio (x) = -0.00365 0.00683
# Poissons Ratio (y) = -0.00313 0.43379
# Poissons Ratio (z) = 0.00541 0.40036
#
# Static dielectric constant tensor:
#      x y z
#    x 3.991870 0.000000 0.000000 
#    y 0.000000 4.032330 0.000000 
#    z 0.000000 0.000000 4.353220 
# 
# 
# High freq. dielectric constant tensor:
#      x y z
#    x 1.922790 0.000000 0.000000 
#    y 0.000000 1.913140 0.000000 
#    z 0.000000 0.000000 1.917530 
# 
# From -- ./inp_files/73430.got.cif
#   From: 2010.03.12/outbox.cif.g09.slc.cpg/sg63_37_cif.got.tgz:73430.got - 2010.04.10 19:34:48.
