data_PCOD8259819
_publ_section_title
;
Structure prediction by ZEFSAII (Michael W. Deem and Ramdas Pophale) SiO2 
 PCOD8259819
Probable space group: C M C M
;
_chemical_formula_sum "Si O2"
_cell_formula_units_Z 112
_cell_length_a 13.890730
_cell_length_b 14.548875
_cell_length_c 25.377259
_cell_angle_alpha 90.000000
_cell_angle_beta 90.000000
_cell_angle_gamma 90.000000
_cell_volume 5128.604328
_symmetry_space_group_name_H-M "C M C M"
_symmetry_group_IT_number 63
_symmetry_cell_setting 'orthorhombic'
loop_
_space_group_symop_operation_xyz
x,y,z
-x,-y,1/2+z
x,-y,-z
-x,y,1/2-z
-x,-y,-z
x,y,1/2-z
-x,y,z
x,-y,1/2+z
1/2+x,1/2+y,z
1/2-x,1/2-y,1/2+z
1/2+x,1/2-y,-z
1/2-x,1/2+y,1/2-z
1/2-x,1/2-y,-z
1/2+x,1/2+y,1/2-z
1/2-x,1/2+y,z
1/2+x,1/2-y,1/2+z
loop_
_atom_site_type_symbol
_atom_site_label
_atom_site_fract_x
_atom_site_fract_y
_atom_site_fract_z
Si Si1 0.385833 0.555660 0.344189
Si Si2 0.727437 0.180805 0.190801
Si Si3 0.885937 0.918099 0.535364
Si Si4 0.608426 0.913895 0.400291
Si Si5 0.884908 0.716888 0.508415
Si Si6 0.391937 0.119833 0.094479
Si Si7 0.256508 0.607084 0.689676
O O1 0.500000 0.561078 0.335325
O O2 0.336939 0.642374 0.314547
O O3 0.354880 0.563146 0.405055
O O4 0.347751 0.458013 0.322756
O O5 0.691380 0.159672 0.250000
O O6 0.663596 0.125835 0.149421
O O7 0.715777 0.287917 0.178538
O O8 0.845238 0.820308 0.515299
O O9 0.000000 0.915870 0.530197
O O10 0.842178 0.000000 0.500000
O O11 0.500000 0.883138 0.386070
O O12 0.654069 0.843846 0.442793
O O13 0.666294 0.916979 0.346123
O O14 0.609461 0.015115 0.425586
O O15 0.844468 0.679594 0.452585
O O16 0.000000 0.710659 0.508045
O O17 0.500000 0.154296 0.105359
O O18 0.224913 0.592969 0.750000
#
# Coordination Sequence:
#
# PCOD8259819 Si02
#       7
#    16  16  16  16  16  16  16
#     4  11  24  45  70  94 130 178 224 270 331 395
#     4  11  25  44  64  94 130 166 222 282 327 389
#     4   9  19  36  59  90 127 168 211 262 315 377
#     4  10  20  39  66  95 128 166 209 261 325 392
#     4   9  18  35  62  95 130 164 212 266 318 391
#     4  10  21  38  65  95 127 170 208 257 333 400
#     4  11  25  43  64  95 132 168 218 279 329 386
#
# _framework density 21.8383
#
# number of rings (size 3 to 8) (size 9 to 14) (size 15 to 20)
#    0.000    1.857    1.429    1.714    2.000    5.714 
#    2.571    5.714    0.000    0.000    0.000    0.000 
#    0.000    0.000    0.000    0.000    0.000    0.000 
#
# Total GULP energy -694457.409365 kJ/mol
# GULP energy per Si atom -12401.025167 kJ/mol
# Density = 2.178860 g / cm^3
# Si number density = 21.838300 Si / 1000 Ang^3
#
#
#
# Elastic Constant Matrix: (Units=GPa)
#
#
# Indices 1 2 3 4 5 6 
#
# 1 60.3479 25.2983 43.2555 0.0000 0.0000 0.0000
# 2 25.2983 160.2693 64.1358 0.0000 0.0000 0.0000
# 3 43.2555 64.1358 142.2103 0.0000 0.0000 0.0000
# 4 0.0000 0.0000 0.0000 38.9469 0.0000 0.0000
# 5 0.0000 0.0000 0.0000 0.0000 30.2121 0.0000
# 6 0.0000 0.0000 0.0000 0.0000 0.0000 17.6902
#
#
#
# Elastic Compliance Matrix: (Units=1/GPa)
#
#
# Indices 1 2 3 4 5 6 
#
# 1 0.021306 -0.000939 -0.006057 0.000000 0.000000 0.000000
# 2 -0.000939 0.007655 -0.003167 0.000000 0.000000 0.000000
# 3 -0.006057 -0.003167 0.010302 0.000000 0.000000 0.000000
# 4 0.000000 0.000000 0.000000 0.025676 0.000000 0.000000
# 5 0.000000 0.000000 0.000000 0.000000 0.033099 0.000000
# 6 0.000000 0.000000 0.000000 0.000000 0.000000 0.056529
#
#
# Mechanical properties :
#
#
# Convention : Reuss Voigt Hill
#
# Bulk Modulus (GPa) = 52.80561 69.80076 61.30318
# Shear Modulus (GPa) = 27.59308 32.71235 30.15271
#
# Velocity S-wave (km/s) = 3.55846 3.87452 3.71984
# Velocity P-wave (km/s) = 6.41219 7.21441 6.82510
#
# Compressibility (1/GPa) = 0.01893738
#
# Stress axis : x y z
#
# Youngs Moduli (GPa) = 46.93582 130.63397 97.06609
#
# Poissons Ratio (x) = 0.12270 0.58791
# Poissons Ratio (y) = 0.04409 0.30737
# Poissons Ratio (z) = 0.28428 0.41367
#
# Static dielectric constant tensor:
#      x y z
#    x 3.701940 0.000000 0.000000 
#    y 0.000000 4.214700 0.000000 
#    z 0.000000 0.000000 4.001040 
# 
# 
# High freq. dielectric constant tensor:
#      x y z
#    x 1.846870 0.000000 0.000000 
#    y 0.000000 1.871610 0.000000 
#    z 0.000000 0.000000 1.864570 
# 
# From -- ./inp_files/62971.got.cif
#   From: 2010.03.12/outbox.cif.g09.slc.cpg/sg63_32_cif.got.tgz:62971.got - 2010.04.10 19:34:48.
