data_PCOD8259197
_publ_section_title
;
Structure prediction by ZEFSAII (Michael W. Deem and Ramdas Pophale) SiO2 
 PCOD8259197
Probable space group: C M C M
;
_chemical_formula_sum "Si O2"
_cell_formula_units_Z 96
_cell_length_a 22.520267
_cell_length_b 14.205257
_cell_length_c 15.693895
_cell_angle_alpha 90.000000
_cell_angle_beta 90.000000
_cell_angle_gamma 90.000000
_cell_volume 5020.574006
_symmetry_space_group_name_H-M "C M C M"
_symmetry_group_IT_number 63
_symmetry_cell_setting 'orthorhombic'
loop_
_space_group_symop_operation_xyz
x,y,z
-x,-y,1/2+z
x,-y,-z
-x,y,1/2-z
-x,-y,-z
x,y,1/2-z
-x,y,z
x,-y,1/2+z
1/2+x,1/2+y,z
1/2-x,1/2-y,1/2+z
1/2+x,1/2-y,-z
1/2-x,1/2+y,1/2-z
1/2-x,1/2-y,-z
1/2+x,1/2+y,1/2-z
1/2-x,1/2+y,z
1/2+x,1/2-y,1/2+z
loop_
_atom_site_type_symbol
_atom_site_label
_atom_site_fract_x
_atom_site_fract_y
_atom_site_fract_z
Si Si1 0.279060 0.190957 0.111907
Si Si2 0.068311 0.894473 0.002619
Si Si3 0.931683 0.240027 0.349405
Si Si4 0.646170 0.357227 0.157270
Si Si5 0.253938 0.018508 0.655757
Si Si6 0.175927 0.670630 0.567019
O O1 0.314603 0.263054 0.171504
O O2 0.216814 0.239996 0.089519
O O3 0.260394 0.093643 0.155310
O O4 0.324343 0.168811 0.034746
O O5 0.100945 0.840211 0.079612
O O6 0.000000 0.891298 0.028083
O O7 0.079252 0.851180 0.908858
O O8 0.092606 0.000000 0.000000
O O9 0.916667 0.217233 0.250000
O O10 0.888498 0.319738 0.388177
O O11 0.000000 0.274617 0.357246
O O12 0.615139 0.375474 0.250000
O O13 0.687460 0.446788 0.132150
O O14 0.268612 0.055360 0.750000
O O15 0.299729 0.068903 0.593329
#
# Coordination Sequence:
#
# PCOD8259197 Si02
#       6
#    16  16  16  16  16  16
#     4  10  20  35  56  81 115 150 182 230 283 339
#     4  10  22  38  56  79 113 151 190 235 279 332
#     4  10  21  38  60  83 109 146 192 240 287 332
#     4  10  21  36  56  84 115 150 190 229 279 338
#     4  10  21  34  53  83 115 146 186 231 278 336
#     4  10  20  35  57  82 109 148 188 227 283 340
#
# _framework density 19.121320000000001
#
# number of rings (size 3 to 8) (size 9 to 14) (size 15 to 20)
#    0.000    2.000    1.667    1.500    2.333    3.000 
#    0.000    1.667    0.000    3.000    0.000    0.000 
#    0.000    0.000    0.000    0.000    0.000    0.000 
#
# Total GULP energy -594777.434984 kJ/mol
# GULP energy per Si atom -12391.196562 kJ/mol
# Density = 1.907780 g / cm^3
# Si number density = 19.121320 Si / 1000 Ang^3
#
#
#
# Elastic Constant Matrix: (Units=GPa)
#
#
# Indices 1 2 3 4 5 6 
#
# 1 66.5157 18.3074 43.2856 0.0000 0.0000 0.0000
# 2 18.3074 89.0830 10.8008 0.0000 0.0000 0.0000
# 3 43.2856 10.8008 116.6578 0.0000 0.0000 0.0000
# 4 0.0000 0.0000 0.0000 18.8538 0.0000 0.0000
# 5 0.0000 0.0000 0.0000 0.0000 30.3918 0.0000
# 6 0.0000 0.0000 0.0000 0.0000 0.0000 18.1389
#
#
#
# Elastic Compliance Matrix: (Units=1/GPa)
#
#
# Indices 1 2 3 4 5 6 
#
# 1 0.020776 -0.003373 -0.007397 0.000000 0.000000 0.000000
# 2 -0.003373 0.011900 0.000150 0.000000 0.000000 0.000000
# 3 -0.007397 0.000150 0.011303 0.000000 0.000000 0.000000
# 4 0.000000 0.000000 0.000000 0.053040 0.000000 0.000000
# 5 0.000000 0.000000 0.000000 0.000000 0.032904 0.000000
# 6 0.000000 0.000000 0.000000 0.000000 0.000000 0.055130
#
#
# Mechanical properties :
#
#
# Convention : Reuss Voigt Hill
#
# Bulk Modulus (GPa) = 43.97623 46.33823 45.15723
# Shear Modulus (GPa) = 23.37853 26.80108 25.08981
#
# Velocity S-wave (km/s) = 3.50042 3.74790 3.62627
# Velocity P-wave (km/s) = 6.27581 6.55861 6.41877
#
# Compressibility (1/GPa) = 0.02273955
#
# Stress axis : x y z
#
# Youngs Moduli (GPa) = 48.13316 84.03014 88.47456
#
# Poissons Ratio (x) = 0.28342 0.65440
# Poissons Ratio (y) = 0.16234 -0.01324
# Poissons Ratio (z) = 0.35602 -0.01258
#
# Static dielectric constant tensor:
#      x y z
#    x 3.350940 0.000000 0.000000 
#    y 0.000000 3.335680 0.000000 
#    z 0.000000 0.000000 3.620900 
# 
# 
# High freq. dielectric constant tensor:
#      x y z
#    x 1.721800 0.000000 0.000000 
#    y 0.000000 1.729330 0.000000 
#    z 0.000000 0.000000 1.760730 
# 
# From -- ./inp_files/35349.got.cif
#   From: 2010.03.12/outbox.cif.g09.slc.cpg/sg63_18_cif.got.tgz:35349.got - 2010.04.10 19:34:48.
