data_PCOD8259822
_publ_section_title
;
Structure prediction by ZEFSAII (Michael W. Deem and Ramdas Pophale) SiO2 
 PCOD8259822
Probable space group: C M C M
;
_chemical_formula_sum "Si O2"
_cell_formula_units_Z 88
_cell_length_a 20.658067
_cell_length_b 22.328540
_cell_length_c 9.753644
_cell_angle_alpha 90.000000
_cell_angle_beta 90.000000
_cell_angle_gamma 90.000000
_cell_volume 4499.009482
_symmetry_space_group_name_H-M "C M C M"
_symmetry_group_IT_number 63
_symmetry_cell_setting 'orthorhombic'
loop_
_space_group_symop_operation_xyz
x,y,z
-x,-y,1/2+z
x,-y,-z
-x,y,1/2-z
-x,-y,-z
x,y,1/2-z
-x,y,z
x,-y,1/2+z
1/2+x,1/2+y,z
1/2-x,1/2-y,1/2+z
1/2+x,1/2-y,-z
1/2-x,1/2+y,1/2-z
1/2-x,1/2-y,-z
1/2+x,1/2+y,1/2-z
1/2-x,1/2+y,z
1/2+x,1/2-y,1/2+z
loop_
_atom_site_type_symbol
_atom_site_label
_atom_site_fract_x
_atom_site_fract_y
_atom_site_fract_z
Si Si1 0.000000 0.561158 0.582635
Si Si2 0.922488 0.937869 0.250000
Si Si3 0.867954 0.129751 0.004973
Si Si4 0.572079 0.568754 0.250000
Si Si5 0.392905 0.118673 0.094029
Si Si6 0.254390 0.059893 0.090375
Si Si7 0.074468 0.753304 0.407241
O O1 0.000000 0.500000 0.500000
O O2 0.062805 0.595750 0.529719
O O3 0.000000 0.554527 0.750000
O O4 0.891977 0.905804 0.123266
O O5 0.000000 0.932336 0.250000
O O6 0.891473 0.004871 0.250000
O O7 0.878988 0.200807 0.988196
O O8 0.915697 0.109652 0.122003
O O9 0.794513 0.111989 0.041425
O O10 0.500000 0.545879 0.250000
O O11 0.418133 0.103513 0.250000
O O12 0.324313 0.088398 0.069259
O O13 0.390120 0.189859 0.076840
O O14 0.241603 0.044416 0.250000
O O15 0.246897 0.000000 0.000000
O O16 0.072263 0.773723 0.250000
O O17 0.000000 0.751387 0.463220
#
# Coordination Sequence:
#
# PCOD8259822 Si02
#       7
#     8   8  16   8  16  16  16
#     4  12  24  42  68 106 138 166 215 276 335 389
#     4  11  22  38  60  87 120 163 229 276 323 393
#     4  12  23  38  60  92 126 169 219 266 326 390
#     4  11  22  36  56  85 124 167 207 282 337 371
#     4  10  22  44  70  97 128 176 221 269 329 391
#     4  11  25  43  66  94 130 172 219 269 331 397
#     4  10  20  39  67  93 127 171 222 266 322 398
#
# _framework density 19.559861000000001
#
# number of rings (size 3 to 8) (size 9 to 14) (size 15 to 20)
#    0.000    1.091    2.727    4.636    1.273    4.364 
#    1.636    0.000    0.000    0.000    0.000    0.000 
#    0.000    0.000    0.000    0.000    0.000    0.000 
#
# Total GULP energy -545322.132545 kJ/mol
# GULP energy per Si atom -12393.684831 kJ/mol
# Density = 1.951534 g / cm^3
# Si number density = 19.559861 Si / 1000 Ang^3
#
#
#
# Elastic Constant Matrix: (Units=GPa)
#
#
# Indices 1 2 3 4 5 6 
#
# 1 108.0639 38.1615 46.0111 0.0000 0.0000 0.0000
# 2 38.1615 118.9757 53.8910 0.0000 0.0000 0.0000
# 3 46.0111 53.8910 147.4338 0.0000 0.0000 0.0000
# 4 0.0000 0.0000 0.0000 -8.4256 0.0000 0.0000
# 5 0.0000 0.0000 0.0000 0.0000 32.0059 0.0000
# 6 0.0000 0.0000 0.0000 0.0000 0.0000 53.3187
#
#
#
# Elastic Compliance Matrix: (Units=1/GPa)
#
#
# Indices 1 2 3 4 5 6 
#
# 1 0.011221 -0.002412 -0.002620 0.000000 0.000000 0.000000
# 2 -0.002412 0.010591 -0.003119 0.000000 0.000000 0.000000
# 3 -0.002620 -0.003119 0.008740 0.000000 0.000000 0.000000
# 4 0.000000 0.000000 0.000000 -0.118686 0.000000 0.000000
# 5 0.000000 0.000000 0.000000 0.000000 0.031244 0.000000
# 6 0.000000 0.000000 0.000000 0.000000 0.000000 0.018755
#
#
# Mechanical properties :
#
#
# Convention : Reuss Voigt Hill
#
# Bulk Modulus (GPa) = 70.17162 72.28897 71.23030
# Shear Modulus (GPa) = -292.71746 31.14047 -130.78850
#
# Velocity S-wave (km/s) = -12.24651 3.99439 -8.18602
# Velocity P-wave (km/s) = 12.80688 7.63620 7.26996
#
# Compressibility (1/GPa) = 0.01425077
#
# Stress axis : x y z
#
# Youngs Moduli (GPa) = 89.11629 94.41576 114.41223
#
# Poissons Ratio (x) = 0.22777 0.29978
# Poissons Ratio (y) = 0.21499 0.35681
# Poissons Ratio (z) = 0.23350 0.29444
#
# Static dielectric constant tensor:
#      x y z
#    x 3.812960 0.000000 0.000000 
#    y 0.000000 3.706060 0.000000 
#    z 0.000000 0.000000 3.618220 
# 
# 
# High freq. dielectric constant tensor:
#      x y z
#    x 1.763910 0.000000 0.000000 
#    y 0.000000 1.772300 0.000000 
#    z 0.000000 0.000000 1.764460 
# 
# From -- ./inp_files/8282.got.cif
#   From: 2010.03.12/outbox.cif.g09.slc.cpg/sg63_5_cif.got.tgz:8282.got - 2010.04.10 19:34:48.
