data_PCOD8259125
_publ_section_title
;
Structure prediction by ZEFSAII (Michael W. Deem and Ramdas Pophale) SiO2 
 PCOD8259125
Probable space group: C M C M
;
_chemical_formula_sum "Si O2"
_cell_formula_units_Z 80
_cell_length_a 8.525107
_cell_length_b 27.715929
_cell_length_c 18.066494
_cell_angle_alpha 90.000000
_cell_angle_beta 90.000000
_cell_angle_gamma 90.000000
_cell_volume 4268.773972
_symmetry_space_group_name_H-M "C M C M"
_symmetry_group_IT_number 63
_symmetry_cell_setting 'orthorhombic'
loop_
_space_group_symop_operation_xyz
x,y,z
-x,-y,1/2+z
x,-y,-z
-x,y,1/2-z
-x,-y,-z
x,y,1/2-z
-x,y,z
x,-y,1/2+z
1/2+x,1/2+y,z
1/2-x,1/2-y,1/2+z
1/2+x,1/2-y,-z
1/2-x,1/2+y,1/2-z
1/2-x,1/2-y,-z
1/2+x,1/2+y,1/2-z
1/2-x,1/2+y,z
1/2+x,1/2-y,1/2+z
loop_
_atom_site_type_symbol
_atom_site_label
_atom_site_fract_x
_atom_site_fract_y
_atom_site_fract_z
Si Si1 0.816264 0.148286 0.049330
Si Si2 0.681249 0.192418 0.593010
Si Si3 0.314657 0.550921 0.524240
Si Si4 0.182551 0.896568 0.167463
Si Si5 0.317778 0.214089 0.335161
O O1 0.722596 0.164499 0.122331
O O2 0.000000 0.148941 0.066302
O O3 0.782358 0.184268 0.981033
O O4 0.756090 0.094499 0.028255
O O5 0.500000 0.189631 0.571086
O O6 0.721190 0.152251 0.654367
O O7 0.716732 0.244101 0.627516
O O8 0.236975 0.500000 0.500000
O O9 0.500000 0.547186 0.517376
O O10 0.265791 0.562237 0.609134
O O11 0.216951 0.915918 0.250000
O O12 0.000000 0.883689 0.156249
O O13 0.268550 0.207770 0.250000
O O14 0.500000 0.226744 0.342673
#
# Coordination Sequence:
#
# PCOD8259125 Si02
#       5
#    16  16  16  16  16
#     4  10  20  35  55  77 102 132 169 211 251 297
#     4  11  21  33  52  76 103 134 169 208 251 301
#     4   8  15  30  52  76 100 128 165 210 257 301
#     4   9  17  30  49  74 103 133 167 210 259 305
#     4  11  23  37  52  72 103 140 173 206 247 296
#
# _framework density 18.740743999999999
#
# number of rings (size 3 to 8) (size 9 to 14) (size 15 to 20)
#    0.000    2.200    0.000    5.400    0.000    4.400 
#    0.000    1.000    0.000   18.600    0.000    0.000 
#    0.000    0.000    0.000    0.000    0.000    0.000 
#
# Total GULP energy -496016.965376 kJ/mol
# GULP energy per Si atom -12400.424134 kJ/mol
# Density = 1.869809 g / cm^3
# Si number density = 18.740744 Si / 1000 Ang^3
#
#
#
# Elastic Constant Matrix: (Units=GPa)
#
#
# Indices 1 2 3 4 5 6 
#
# 1 43.3596 13.2984 10.5527 0.0000 0.0000 0.0000
# 2 13.2984 123.6042 68.5515 0.0000 0.0000 0.0000
# 3 10.5527 68.5515 112.9089 0.0000 0.0000 0.0000
# 4 0.0000 0.0000 0.0000 20.5085 0.0000 0.0000
# 5 0.0000 0.0000 0.0000 0.0000 25.4905 0.0000
# 6 0.0000 0.0000 0.0000 0.0000 0.0000 17.6614
#
#
#
# Elastic Compliance Matrix: (Units=1/GPa)
#
#
# Indices 1 2 3 4 5 6 
#
# 1 0.023927 -0.002011 -0.001015 0.000000 0.000000 0.000000
# 2 -0.002011 0.012367 -0.007320 0.000000 0.000000 0.000000
# 3 -0.001015 -0.007320 0.013396 0.000000 0.000000 0.000000
# 4 0.000000 0.000000 0.000000 0.048760 0.000000 0.000000
# 5 0.000000 0.000000 0.000000 0.000000 0.039230 0.000000
# 6 0.000000 0.000000 0.000000 0.000000 0.000000 0.056621
#
#
# Mechanical properties :
#
#
# Convention : Reuss Voigt Hill
#
# Bulk Modulus (GPa) = 34.48736 51.63087 43.05911
# Shear Modulus (GPa) = 22.25593 25.23010 23.74301
#
# Velocity S-wave (km/s) = 3.44985 3.67314 3.56324
# Velocity P-wave (km/s) = 5.85755 6.75271 6.32100
#
# Compressibility (1/GPa) = 0.02899613
#
# Stress axis : x y z
#
# Youngs Moduli (GPa) = 41.79402 80.86302 74.64908
#
# Poissons Ratio (x) = 0.16264 0.07578
# Poissons Ratio (y) = 0.08406 0.54645
# Poissons Ratio (z) = 0.04243 0.59194
#
# Static dielectric constant tensor:
#      x y z
#    x 3.235760 0.000000 0.000000 
#    y 0.000000 3.595030 0.000000 
#    z 0.000000 0.000000 3.570050 
# 
# 
# High freq. dielectric constant tensor:
#      x y z
#    x 1.712110 0.000000 0.000000 
#    y 0.000000 1.712580 0.000000 
#    z 0.000000 0.000000 1.729810 
# 
# From -- ./inp_files/40422.got.cif
#   From: 2010.03.12/outbox.cif.g09.slc.cpg/sg63_21_cif.got.tgz:40422.got - 2010.04.10 19:34:48.
