data_PCOD8259607
_publ_section_title
;
Structure prediction by ZEFSAII (Michael W. Deem and Ramdas Pophale) SiO2 
 PCOD8259607
Probable space group: C M C M
;
_chemical_formula_sum "Si O2"
_cell_formula_units_Z 72
_cell_length_a 29.014814
_cell_length_b 14.023242
_cell_length_c 9.033618
_cell_angle_alpha 90.000000
_cell_angle_beta 90.000000
_cell_angle_gamma 90.000000
_cell_volume 3675.614376
_symmetry_space_group_name_H-M "C M C M"
_symmetry_group_IT_number 63
_symmetry_cell_setting 'orthorhombic'
loop_
_space_group_symop_operation_xyz
x,y,z
-x,-y,1/2+z
x,-y,-z
-x,y,1/2-z
-x,-y,-z
x,y,1/2-z
-x,y,z
x,-y,1/2+z
1/2+x,1/2+y,z
1/2-x,1/2-y,1/2+z
1/2+x,1/2-y,-z
1/2-x,1/2+y,1/2-z
1/2-x,1/2-y,-z
1/2+x,1/2+y,1/2-z
1/2-x,1/2+y,z
1/2+x,1/2-y,1/2+z
loop_
_atom_site_type_symbol
_atom_site_label
_atom_site_fract_x
_atom_site_fract_y
_atom_site_fract_z
Si Si1 0.817473 0.223292 0.422547
Si Si2 0.091358 0.208778 0.577412
Si Si3 0.000000 0.899327 0.425282
Si Si4 0.051784 0.408264 0.921554
Si Si5 0.228035 0.397449 0.576360
O O1 0.821383 0.247050 0.250000
O O2 0.864549 0.176008 0.483121
O O3 0.807982 0.322034 0.508459
O O4 0.778903 0.143746 0.453744
O O5 0.100331 0.188506 0.750000
O O6 0.045815 0.154810 0.521235
O O7 0.084409 0.319982 0.543916
O O8 0.000000 0.908139 0.250000
O O9 0.000000 0.000000 0.500000
O O10 0.049691 0.430165 0.750000
O O11 0.000000 0.387925 0.981198
O O12 0.073884 0.500000 0.000000
O O13 0.222892 0.500000 0.500000
O O14 0.217618 0.408210 0.750000
#
# Coordination Sequence:
#
# PCOD8259607 Si02
#       5
#    16  16   8  16  16
#     4  10  22  38  58  87 118 148 189 236 285 343
#     4  10  20  37  58  79 112 154 192 233 284 338
#     4  10  22  40  59  80 110 152 199 244 286 332
#     4   9  17  31  51  75 103 138 180 222 269 324
#     4  10  21  39  62  86 115 150 187 233 287 344
#
# _framework density 19.588562
#
# number of rings (size 3 to 8) (size 9 to 14) (size 15 to 20)
#    0.000    2.222    1.111    1.333    0.000    6.222 
#    0.000    6.667    0.000    0.000    0.000    0.000 
#    0.000    0.000    0.000    0.000    0.000    0.000 
#
# Total GULP energy -446431.837750 kJ/mol
# GULP energy per Si atom -12400.884382 kJ/mol
# Density = 1.954398 g / cm^3
# Si number density = 19.588562 Si / 1000 Ang^3
#
#
#
# Elastic Constant Matrix: (Units=GPa)
#
#
# Indices 1 2 3 4 5 6 
#
# 1 122.3856 33.0172 45.6975 0.0000 0.0000 0.0000
# 2 33.0172 96.7099 46.1179 0.0000 0.0000 0.0000
# 3 45.6975 46.1179 72.6789 0.0000 0.0000 0.0000
# 4 0.0000 0.0000 0.0000 36.4907 0.0000 0.0000
# 5 0.0000 0.0000 0.0000 0.0000 34.0959 0.0000
# 6 0.0000 0.0000 0.0000 0.0000 0.0000 12.4287
#
#
#
# Elastic Compliance Matrix: (Units=1/GPa)
#
#
# Indices 1 2 3 4 5 6 
#
# 1 0.010705 -0.000638 -0.006326 0.000000 0.000000 0.000000
# 2 -0.000638 0.014865 -0.009031 0.000000 0.000000 0.000000
# 3 -0.006326 -0.009031 0.023467 0.000000 0.000000 0.000000
# 4 0.000000 0.000000 0.000000 0.027404 0.000000 0.000000
# 5 0.000000 0.000000 0.000000 0.000000 0.029329 0.000000
# 6 0.000000 0.000000 0.000000 0.000000 0.000000 0.080459
#
#
# Mechanical properties :
#
#
# Convention : Reuss Voigt Hill
#
# Bulk Modulus (GPa) = 58.66240 60.15996 59.41118
# Shear Modulus (GPa) = 22.33116 27.73250 25.03183
#
# Velocity S-wave (km/s) = 3.38007 3.76673 3.57862
# Velocity P-wave (km/s) = 6.72647 7.04955 6.88990
#
# Compressibility (1/GPa) = 0.01704670
#
# Stress axis : x y z
#
# Youngs Moduli (GPa) = 93.41328 67.27345 42.61239
#
# Poissons Ratio (x) = 0.04293 0.26957
# Poissons Ratio (y) = 0.05960 0.38484
# Poissons Ratio (z) = 0.59094 0.60755
#
# Static dielectric constant tensor:
#      x y z
#    x 3.652850 0.000000 0.000000 
#    y 0.000000 3.494550 0.000000 
#    z 0.000000 0.000000 3.485230 
# 
# 
# High freq. dielectric constant tensor:
#      x y z
#    x 1.767560 0.000000 0.000000 
#    y 0.000000 1.758720 0.000000 
#    z 0.000000 0.000000 1.759210 
# 
# From -- ./inp_files/11724.got.cif
#   From: 2010.03.12/outbox.cif.g09.slc.cpg/sg63_6_cif.got.tgz:11724.got - 2010.04.10 19:34:48.
