data_PCOD8259159
_publ_section_title
;
Structure prediction by ZEFSAII (Michael W. Deem and Ramdas Pophale) SiO2 
 PCOD8259159
Probable space group: C M C M
;
_chemical_formula_sum "Si O2"
_cell_formula_units_Z 80
_cell_length_a 14.827897
_cell_length_b 17.833214
_cell_length_c 14.159230
_cell_angle_alpha 90.000000
_cell_angle_beta 90.000000
_cell_angle_gamma 90.000000
_cell_volume 3744.111884
_symmetry_space_group_name_H-M "C M C M"
_symmetry_group_IT_number 63
_symmetry_cell_setting 'orthorhombic'
loop_
_space_group_symop_operation_xyz
x,y,z
-x,-y,1/2+z
x,-y,-z
-x,y,1/2-z
-x,-y,-z
x,y,1/2-z
-x,y,z
x,-y,1/2+z
1/2+x,1/2+y,z
1/2-x,1/2-y,1/2+z
1/2+x,1/2-y,-z
1/2-x,1/2+y,1/2-z
1/2-x,1/2-y,-z
1/2+x,1/2+y,1/2-z
1/2-x,1/2+y,z
1/2+x,1/2-y,1/2+z
loop_
_atom_site_type_symbol
_atom_site_label
_atom_site_fract_x
_atom_site_fract_y
_atom_site_fract_z
Si Si1 0.898985 0.397139 0.858890
Si Si2 0.397369 0.395962 0.139084
Si Si3 0.146715 0.749234 0.025503
Si Si4 0.900588 0.169172 0.354557
Si Si5 0.283287 0.533090 0.139283
O O1 0.885628 0.371384 0.750000
O O2 0.885802 0.326879 0.926932
O O3 0.823927 0.460816 0.883470
O O4 0.000000 0.430275 0.873782
O O5 0.381939 0.387703 0.250000
O O6 0.500000 0.420831 0.116193
O O7 0.377646 0.315795 0.095714
O O8 0.327349 0.457807 0.095386
O O9 0.250000 0.750000 0.000000
O O10 0.096615 0.759881 0.924911
O O11 0.868778 0.195644 0.250000
O O12 0.833460 0.107374 0.399509
O O13 0.000000 0.133228 0.348285
O O14 0.303352 0.531281 0.250000
#
# Coordination Sequence:
#
# PCOD8259159 Si02
#       5
#    16  16  16  16  16
#     4  10  20  37  62  88 117 156 202 249 295 351
#     4  10  21  38  63  94 124 152 191 249 304 351
#     4  12  23  36  56  86 124 158 196 242 294 352
#     4  10  20  35  55  80 115 156 195 238 292 354
#     4   9  18  35  58  88 120 152 192 238 296 355
#
# _framework density 21.366883000000001
#
# number of rings (size 3 to 8) (size 9 to 14) (size 15 to 20)
#    0.000    1.800    2.000    3.000    0.000    5.600 
#    0.000    2.000    0.000    4.800    0.000    2.800 
#    0.000    0.000    0.000    0.000    0.000    0.000 
#
# Total GULP energy -495807.210090 kJ/mol
# GULP energy per Si atom -12395.180252 kJ/mol
# Density = 2.131825 g / cm^3
# Si number density = 21.366883 Si / 1000 Ang^3
#
#
#
# Elastic Constant Matrix: (Units=GPa)
#
#
# Indices 1 2 3 4 5 6 
#
# 1 165.5122 40.4029 35.3756 0.0000 0.0000 0.0000
# 2 40.4029 75.3114 38.3085 0.0000 0.0000 0.0000
# 3 35.3756 38.3085 62.1436 0.0000 0.0000 0.0000
# 4 0.0000 0.0000 0.0000 18.4139 0.0000 0.0000
# 5 0.0000 0.0000 0.0000 0.0000 26.3785 0.0000
# 6 0.0000 0.0000 0.0000 0.0000 0.0000 31.9487
#
#
#
# Elastic Compliance Matrix: (Units=1/GPa)
#
#
# Indices 1 2 3 4 5 6 
#
# 1 0.007211 -0.002594 -0.002506 0.000000 0.000000 0.000000
# 2 -0.002594 0.020277 -0.011023 0.000000 0.000000 0.000000
# 3 -0.002506 -0.011023 0.024313 0.000000 0.000000 0.000000
# 4 0.000000 0.000000 0.000000 0.054307 0.000000 0.000000
# 5 0.000000 0.000000 0.000000 0.000000 0.037910 0.000000
# 6 0.000000 0.000000 0.000000 0.000000 0.000000 0.031300
#
#
# Mechanical properties :
#
#
# Convention : Reuss Voigt Hill
#
# Bulk Modulus (GPa) = 51.13649 59.01568 55.07609
# Shear Modulus (GPa) = 23.35561 27.94024 25.64793
#
# Velocity S-wave (km/s) = 3.30976 3.62006 3.46838
# Velocity P-wave (km/s) = 6.21213 6.71961 6.47085
#
# Compressibility (1/GPa) = 0.01955551
#
# Stress axis : x y z
#
# Youngs Moduli (GPa) = 138.68544 49.31738 41.12957
#
# Poissons Ratio (x) = 0.12792 0.10306
# Poissons Ratio (y) = 0.35971 0.45338
# Poissons Ratio (z) = 0.34751 0.54363
#
# Static dielectric constant tensor:
#      x y z
#    x 4.210980 0.000000 0.000000 
#    y 0.000000 3.639640 0.000000 
#    z 0.000000 0.000000 3.936400 
# 
# 
# High freq. dielectric constant tensor:
#      x y z
#    x 1.853720 0.000000 0.000000 
#    y 0.000000 1.800290 0.000000 
#    z 0.000000 0.000000 1.846900 
# 
# From -- ./inp_files/31677.got.cif
#   From: 2010.03.12/outbox.cif.g09.slc.cpg/sg63_16_cif.got.tgz:31677.got - 2010.04.10 19:34:48.
