data_PCOD8259893
_publ_section_title
;
Structure prediction by ZEFSAII (Michael W. Deem and Ramdas Pophale) SiO2 
 PCOD8259893
Probable space group: C M C M
;
_chemical_formula_sum "Si O2"
_cell_formula_units_Z 64
_cell_length_a 7.593962
_cell_length_b 21.089777
_cell_length_c 21.841282
_cell_angle_alpha 90.000000
_cell_angle_beta 90.000000
_cell_angle_gamma 90.000000
_cell_volume 3497.989757
_symmetry_space_group_name_H-M "C M C M"
_symmetry_group_IT_number 63
_symmetry_cell_setting 'orthorhombic'
loop_
_space_group_symop_operation_xyz
x,y,z
-x,-y,1/2+z
x,-y,-z
-x,y,1/2-z
-x,-y,-z
x,y,1/2-z
-x,y,z
x,-y,1/2+z
1/2+x,1/2+y,z
1/2-x,1/2-y,1/2+z
1/2+x,1/2-y,-z
1/2-x,1/2+y,1/2-z
1/2-x,1/2-y,-z
1/2+x,1/2+y,1/2-z
1/2-x,1/2+y,z
1/2+x,1/2-y,1/2+z
loop_
_atom_site_type_symbol
_atom_site_label
_atom_site_fract_x
_atom_site_fract_y
_atom_site_fract_z
Si Si1 0.000000 0.474172 0.678843
Si Si2 0.293840 0.725148 0.415649
Si Si3 0.000000 0.449059 0.444551
Si Si4 0.301391 0.624903 0.319768
Si Si5 0.801381 0.850096 0.034479
O O1 0.175154 0.433724 0.667028
O O2 0.000000 0.500364 0.750000
O O3 0.000000 0.525960 0.625405
O O4 0.500000 0.737537 0.420149
O O5 0.237668 0.687374 0.355224
O O6 0.201592 0.794014 0.414649
O O7 0.230331 0.681796 0.472208
O O8 0.000000 0.500000 0.500000
O O9 0.823399 0.408206 0.449299
O O10 0.293298 0.645577 0.250000
O O11 0.500000 0.605133 0.339689
O O12 0.000000 0.876624 0.028304
#
# Coordination Sequence:
#
# PCOD8259893 Si02
#       5
#     8  16   8  16  16
#     4  10  22  38  56  78 110 148 184 221 263 317
#     4   9  17  33  55  80 111 135 166 223 279 323
#     4  12  24  38  56  80 110 148 190 221 258 321
#     4   9  18  33  55  82 105 135 178 222 268 316
#     4  10  21  34  53  81 108 140 177 219 273 321
#
# _framework density 18.296223999999999
#
# number of rings (size 3 to 8) (size 9 to 14) (size 15 to 20)
#    0.000    2.250    1.250    1.500    3.500    1.500 
#    0.000    1.250    0.000    1.500    0.000    0.000 
#    0.000    0.000    0.000    0.000    0.000    0.000 
#
# Total GULP energy -396662.661247 kJ/mol
# GULP energy per Si atom -12395.708164 kJ/mol
# Density = 1.825458 g / cm^3
# Si number density = 18.296224 Si / 1000 Ang^3
#
#
#
# Elastic Constant Matrix: (Units=GPa)
#
#
# Indices 1 2 3 4 5 6 
#
# 1 95.5409 60.0346 41.0825 0.0000 0.0000 0.0000
# 2 60.0346 118.9289 67.7192 0.0000 0.0000 0.0000
# 3 41.0825 67.7192 92.1513 0.0000 0.0000 0.0000
# 4 0.0000 0.0000 0.0000 36.3211 0.0000 0.0000
# 5 0.0000 0.0000 0.0000 0.0000 20.6657 0.0000
# 6 0.0000 0.0000 0.0000 0.0000 0.0000 31.2031
#
#
#
# Elastic Compliance Matrix: (Units=1/GPa)
#
#
# Indices 1 2 3 4 5 6 
#
# 1 0.015541 -0.006706 -0.002000 0.000000 0.000000 0.000000
# 2 -0.006706 0.017352 -0.009762 0.000000 0.000000 0.000000
# 3 -0.002000 -0.009762 0.018917 0.000000 0.000000 0.000000
# 4 0.000000 0.000000 0.000000 0.027532 0.000000 0.000000
# 5 0.000000 0.000000 0.000000 0.000000 0.048389 0.000000
# 6 0.000000 0.000000 0.000000 0.000000 0.000000 0.032048
#
#
# Mechanical properties :
#
#
# Convention : Reuss Voigt Hill
#
# Bulk Modulus (GPa) = 67.23276 71.58820 69.41048
# Shear Modulus (GPa) = 24.79260 26.82364 25.80812
#
# Velocity S-wave (km/s) = 3.68512 3.83309 3.75983
# Velocity P-wave (km/s) = 7.41170 7.66827 7.54108
#
# Compressibility (1/GPa) = 0.01487370
#
# Stress axis : x y z
#
# Youngs Moduli (GPa) = 64.34785 57.63066 52.86195
#
# Poissons Ratio (x) = 0.38646 0.10574
# Poissons Ratio (y) = 0.43150 0.51603
# Poissons Ratio (z) = 0.12872 0.56258
#
# Static dielectric constant tensor:
#      x y z
#    x 3.554380 0.000000 0.000000 
#    y 0.000000 3.222770 0.000000 
#    z 0.000000 0.000000 3.474950 
# 
# 
# High freq. dielectric constant tensor:
#      x y z
#    x 1.725010 0.000000 0.000000 
#    y 0.000000 1.689550 0.000000 
#    z 0.000000 0.000000 1.702360 
# 
# From -- ./inp_files/50342.got.cif
#   From: 2010.03.12/outbox.cif.g09.slc.cpg/sg63_26_cif.got.tgz:50342.got - 2010.04.10 19:34:48.
