data_PCOD8259571
_publ_section_title
;
Structure prediction by ZEFSAII (Michael W. Deem and Ramdas Pophale) SiO2 
 PCOD8259571
Probable space group: C M C M
;
_chemical_formula_sum "Si O2"
_cell_formula_units_Z 96
_cell_length_a 20.369728
_cell_length_b 16.561879
_cell_length_c 13.356927
_cell_angle_alpha 90.000000
_cell_angle_beta 90.000000
_cell_angle_gamma 90.000000
_cell_volume 4506.105854
_symmetry_space_group_name_H-M "C M C M"
_symmetry_group_IT_number 63
_symmetry_cell_setting 'orthorhombic'
loop_
_space_group_symop_operation_xyz
x,y,z
-x,-y,1/2+z
x,-y,-z
-x,y,1/2-z
-x,-y,-z
x,y,1/2-z
-x,y,z
x,-y,1/2+z
1/2+x,1/2+y,z
1/2-x,1/2-y,1/2+z
1/2+x,1/2-y,-z
1/2-x,1/2+y,1/2-z
1/2-x,1/2-y,-z
1/2+x,1/2+y,1/2-z
1/2-x,1/2+y,z
1/2+x,1/2-y,1/2+z
loop_
_atom_site_type_symbol
_atom_site_label
_atom_site_fract_x
_atom_site_fract_y
_atom_site_fract_z
Si Si1 0.187941 0.058984 0.863356
Si Si2 0.500000 0.225242 0.860380
Si Si3 0.500000 0.907983 0.972618
Si Si4 0.369497 0.835744 0.557554
Si Si5 0.073600 0.172656 0.634568
Si Si6 0.230428 0.888342 0.569147
Si Si7 0.358842 0.243821 0.863697
O O1 0.210218 0.082997 0.750000
O O2 0.112296 0.087851 0.880733
O O3 0.194504 0.962883 0.876799
O O4 0.232024 0.101920 0.948257
O O5 0.500000 0.186790 0.750000
O O6 0.500000 0.148011 0.930944
O O7 0.433913 0.278722 0.874476
O O8 0.566624 0.888197 0.911048
O O9 0.500000 0.000000 0.000000
O O10 0.381414 0.742933 0.588232
O O11 0.305474 0.876720 0.607700
O O12 0.355177 0.833732 0.437413
O O13 0.065223 0.193035 0.750000
O O14 0.000000 0.168874 0.585705
O O15 0.192160 0.809566 0.600818
O O16 0.343381 0.216791 0.750000
#
# Coordination Sequence:
#
# PCOD8259571 Si02
#       7
#    16   8   8  16  16  16  16
#     4  10  23  41  60  87 130 167 202 254 309 373
#     4   8  18  38  60  86 122 157 203 250 292 364
#     4  10  22  38  64  85 115 160 196 251 320 365
#     4  11  22  40  64  89 122 159 210 260 312 368
#     4  10  21  41  67  93 121 162 213 259 309 369
#     4  11  23  39  60  93 126 164 207 249 313 378
#     4  10  20  36  61  92 123 162 209 253 304 363
#
# _framework density 21.304425999999999
#
# number of rings (size 3 to 8) (size 9 to 14) (size 15 to 20)
#    0.000    1.833    2.500    1.000    2.333    2.000 
#    1.500    1.667    0.000    0.000    0.000    0.000 
#    0.000    0.000    0.000    0.000    0.000    0.000 
#
# Total GULP energy -594684.297856 kJ/mol
# GULP energy per Si atom -12389.256205 kJ/mol
# Density = 2.125594 g / cm^3
# Si number density = 21.304426 Si / 1000 Ang^3
#
#
#
# Elastic Constant Matrix: (Units=GPa)
#
#
# Indices 1 2 3 4 5 6 
#
# 1 163.8034 62.8168 22.3109 0.0000 0.0000 0.0000
# 2 62.8168 82.9075 10.2831 0.0000 0.0000 0.0000
# 3 22.3109 10.2831 64.5198 0.0000 0.0000 0.0000
# 4 0.0000 0.0000 0.0000 11.2313 0.0000 0.0000
# 5 0.0000 0.0000 0.0000 0.0000 20.7280 0.0000
# 6 0.0000 0.0000 0.0000 0.0000 0.0000 33.1066
#
#
#
# Elastic Compliance Matrix: (Units=1/GPa)
#
#
# Indices 1 2 3 4 5 6 
#
# 1 0.008859 -0.006460 -0.002034 0.000000 0.000000 0.000000
# 2 -0.006460 0.017016 -0.000478 0.000000 0.000000 0.000000
# 3 -0.002034 -0.000478 0.016279 0.000000 0.000000 0.000000
# 4 0.000000 0.000000 0.000000 0.089037 0.000000 0.000000
# 5 0.000000 0.000000 0.000000 0.000000 0.048244 0.000000
# 6 0.000000 0.000000 0.000000 0.000000 0.000000 0.030205
#
#
# Mechanical properties :
#
#
# Convention : Reuss Voigt Hill
#
# Bulk Modulus (GPa) = 41.30640 55.78360 48.54500
# Shear Modulus (GPa) = 21.21757 27.40117 24.30937
#
# Velocity S-wave (km/s) = 3.15925 3.59022 3.38160
# Velocity P-wave (km/s) = 5.72176 6.58992 6.17113
#
# Compressibility (1/GPa) = 0.02420932
#
# Stress axis : x y z
#
# Youngs Moduli (GPa) = 112.87539 58.76949 61.43019
#
# Poissons Ratio (x) = 0.37966 0.12494
# Poissons Ratio (y) = 0.72920 0.02936
# Poissons Ratio (z) = 0.22958 0.02809
#
# Static dielectric constant tensor:
#      x y z
#    x 4.328810 0.000000 0.000000 
#    y 0.000000 3.508760 0.000000 
#    z 0.000000 0.000000 4.190800 
# 
# 
# High freq. dielectric constant tensor:
#      x y z
#    x 1.853040 0.000000 0.000000 
#    y 0.000000 1.799140 0.000000 
#    z 0.000000 0.000000 1.836370 
# 
# From -- ./inp_files/35414.got.cif
#   From: 2010.03.12/outbox.cif.g09.slc.cpg/sg63_18_cif.got.tgz:35414.got - 2010.04.10 19:34:48.
