data_PCOD8259194
_publ_section_title
;
Structure prediction by ZEFSAII (Michael W. Deem and Ramdas Pophale) SiO2 
 PCOD8259194
Probable space group: C M C M
;
_chemical_formula_sum "Si O2"
_cell_formula_units_Z 112
_cell_length_a 14.062607
_cell_length_b 27.703089
_cell_length_c 14.074749
_cell_angle_alpha 90.000000
_cell_angle_beta 90.000000
_cell_angle_gamma 90.000000
_cell_volume 5483.207686
_symmetry_space_group_name_H-M "C M C M"
_symmetry_group_IT_number 63
_symmetry_cell_setting 'orthorhombic'
loop_
_space_group_symop_operation_xyz
x,y,z
-x,-y,1/2+z
x,-y,-z
-x,y,1/2-z
-x,-y,-z
x,y,1/2-z
-x,y,z
x,-y,1/2+z
1/2+x,1/2+y,z
1/2-x,1/2-y,1/2+z
1/2+x,1/2-y,-z
1/2-x,1/2+y,1/2-z
1/2-x,1/2-y,-z
1/2+x,1/2+y,1/2-z
1/2-x,1/2+y,z
1/2+x,1/2-y,1/2+z
loop_
_atom_site_type_symbol
_atom_site_label
_atom_site_fract_x
_atom_site_fract_y
_atom_site_fract_z
Si Si1 0.889429 0.028444 0.859178
Si Si2 0.893690 0.113553 0.506813
Si Si3 0.279235 0.566868 0.360152
Si Si4 0.204788 0.732174 0.639226
Si Si5 0.892475 0.776858 0.465742
Si Si6 0.609950 0.869260 0.142144
Si Si7 0.393623 0.943771 0.980676
O O1 0.867902 0.039586 0.750000
O O2 0.000000 0.016696 0.876219
O O3 0.829090 0.982648 0.894594
O O4 0.854603 0.075529 0.915704
O O5 0.830508 0.111256 0.412226
O O6 0.889741 0.166195 0.551139
O O7 0.000000 0.099521 0.477456
O O8 0.290156 0.575732 0.250000
O O9 0.169323 0.568022 0.389102
O O10 0.191445 0.745911 0.750000
O O11 0.134308 0.764245 0.574690
O O12 0.313735 0.743986 0.607448
O O13 0.177584 0.676318 0.620522
O O14 0.000000 0.757615 0.443616
O O15 0.625030 0.887516 0.250000
O O16 0.500000 0.853874 0.126489
O O17 0.639487 0.913175 0.072957
O O18 0.500000 0.928981 0.952679
O O19 0.385447 0.000000 0.000000
#
# Coordination Sequence:
#
# PCOD8259194 Si02
#       7
#    16  16  16  16  16  16  16
#     4   9  18  33  54  80 108 139 178 222 267 319
#     4  10  20  35  56  81 111 144 176 216 269 326
#     4  11  22  34  50  73 106 149 191 226 262 312
#     4  10  21  38  61  86 112 144 182 225 273 327
#     4  10  22  38  57  85 117 146 180 225 275 327
#     4   9  18  35  61  87 107 134 177 228 279 329
#     4  10  21  36  53  75 105 139 177 225 277 323
#
# _framework density 20.425999000000001
#
# number of rings (size 3 to 8) (size 9 to 14) (size 15 to 20)
#    0.000    2.143    0.000    3.000    0.000    5.143 
#    0.000    7.857    0.000    0.000    0.000    4.000 
#    0.000    0.000    0.000    0.000    0.000    0.000 
#
# Total GULP energy -694382.317623 kJ/mol
# GULP energy per Si atom -12399.684243 kJ/mol
# Density = 2.037951 g / cm^3
# Si number density = 20.425999 Si / 1000 Ang^3
#
#
#
# Elastic Constant Matrix: (Units=GPa)
#
#
# Indices 1 2 3 4 5 6 
#
# 1 101.1677 8.6132 27.0859 0.0000 0.0000 0.0000
# 2 8.6132 41.9649 14.7895 0.0000 0.0000 0.0000
# 3 27.0859 14.7895 74.0288 0.0000 0.0000 0.0000
# 4 0.0000 0.0000 0.0000 28.6929 0.0000 0.0000
# 5 0.0000 0.0000 0.0000 0.0000 31.4416 0.0000
# 6 0.0000 0.0000 0.0000 0.0000 0.0000 21.7495
#
#
#
# Elastic Compliance Matrix: (Units=1/GPa)
#
#
# Indices 1 2 3 4 5 6 
#
# 1 0.010990 -0.000902 -0.003841 0.000000 0.000000 0.000000
# 2 -0.000902 0.025708 -0.004806 0.000000 0.000000 0.000000
# 3 -0.003841 -0.004806 0.015874 0.000000 0.000000 0.000000
# 4 0.000000 0.000000 0.000000 0.034852 0.000000 0.000000
# 5 0.000000 0.000000 0.000000 0.000000 0.031805 0.000000
# 6 0.000000 0.000000 0.000000 0.000000 0.000000 0.045978
#
#
# Mechanical properties :
#
#
# Convention : Reuss Voigt Hill
#
# Bulk Modulus (GPa) = 29.87380 35.34874 32.61127
# Shear Modulus (GPa) = 25.58043 27.48833 26.53438
#
# Velocity S-wave (km/s) = 3.54269 3.67243 3.60814
# Velocity P-wave (km/s) = 5.60280 5.94354 5.77568
#
# Compressibility (1/GPa) = 0.03347415
#
# Stress axis : x y z
#
# Youngs Moduli (GPa) = 90.99459 38.89792 62.99745
#
# Poissons Ratio (x) = 0.03509 0.24196
# Poissons Ratio (y) = 0.08208 0.30277
# Poissons Ratio (z) = 0.34949 0.18694
#
# Static dielectric constant tensor:
#      x y z
#    x 3.958440 0.000000 0.000000 
#    y 0.000000 3.529160 0.000000 
#    z 0.000000 0.000000 3.604220 
# 
# 
# High freq. dielectric constant tensor:
#      x y z
#    x 1.812760 0.000000 0.000000 
#    y 0.000000 1.781660 0.000000 
#    z 0.000000 0.000000 1.789770 
# 
# From -- ./inp_files/32546.got.cif
#   From: 2010.03.12/outbox.cif.g09.slc.cpg/sg63_17_cif.got.tgz:32546.got - 2010.04.10 19:34:48.
