data_PCOD8259736
_publ_section_title
;
Structure prediction by ZEFSAII (Michael W. Deem and Ramdas Pophale) SiO2 
 PCOD8259736
Probable space group: C M C M
;
_chemical_formula_sum "Si O2"
_cell_formula_units_Z 96
_cell_length_a 30.290030
_cell_length_b 8.898754
_cell_length_c 18.491943
_cell_angle_alpha 90.000000
_cell_angle_beta 90.000000
_cell_angle_gamma 90.000000
_cell_volume 4984.383512
_symmetry_space_group_name_H-M "C M C M"
_symmetry_group_IT_number 63
_symmetry_cell_setting 'orthorhombic'
loop_
_space_group_symop_operation_xyz
x,y,z
-x,-y,1/2+z
x,-y,-z
-x,y,1/2-z
-x,-y,-z
x,y,1/2-z
-x,y,z
x,-y,1/2+z
1/2+x,1/2+y,z
1/2-x,1/2-y,1/2+z
1/2+x,1/2-y,-z
1/2-x,1/2+y,1/2-z
1/2-x,1/2-y,-z
1/2+x,1/2+y,1/2-z
1/2-x,1/2+y,z
1/2+x,1/2-y,1/2+z
loop_
_atom_site_type_symbol
_atom_site_label
_atom_site_fract_x
_atom_site_fract_y
_atom_site_fract_z
Si Si1 0.550067 0.771170 0.453537
Si Si2 0.201085 0.773814 0.663915
Si Si3 0.708985 0.932163 0.664585
Si Si4 0.127722 0.949810 0.577631
Si Si5 0.372918 0.255475 0.168017
Si Si6 0.450040 0.087849 0.391606
O O1 0.500000 0.711223 0.448962
O O2 0.581556 0.635004 0.432738
O O3 0.560884 0.829952 0.533331
O O4 0.556686 0.909181 0.398326
O O5 0.192805 0.786857 0.750000
O O6 0.244906 0.861676 0.639680
O O7 0.205962 0.602749 0.637147
O O8 0.160998 0.843262 0.619976
O O9 0.705301 0.931022 0.750000
O O10 0.668697 0.833235 0.632926
O O11 0.147339 0.000000 0.500000
O O12 0.117315 0.095260 0.624301
O O13 0.362027 0.301189 0.250000
O O14 0.415914 0.148937 0.167556
O O15 0.500000 0.123128 0.366831
#
# Coordination Sequence:
#
# PCOD8259736 Si02
#       6
#    16  16  16  16  16  16
#     4   9  19  37  60  82 110 150 192 230 279 345
#     4  10  20  38  61  83 110 148 192 235 282 340
#     4   9  19  37  62  85 109 149 192 227 278 351
#     4  12  23  36  55  86 117 150 193 235 286 335
#     4  11  22  37  57  84 118 152 188 234 286 343
#     4   9  18  36  61  85 109 145 192 238 282 336
#
# _framework density 19.260155000000001
#
# number of rings (size 3 to 8) (size 9 to 14) (size 15 to 20)
#    0.000    2.000    1.667    3.500    0.000    4.000 
#    0.000    4.167    0.000    3.500    0.000    0.000 
#    0.000    0.000    0.000    0.000    0.000    0.000 
#
# Total GULP energy -595253.978221 kJ/mol
# GULP energy per Si atom -12401.124546 kJ/mol
# Density = 1.921632 g / cm^3
# Si number density = 19.260155 Si / 1000 Ang^3
#
#
#
# Elastic Constant Matrix: (Units=GPa)
#
#
# Indices 1 2 3 4 5 6 
#
# 1 123.7430 64.0880 31.6684 0.0000 0.0000 0.0000
# 2 64.0880 128.9542 36.8058 0.0000 0.0000 0.0000
# 3 31.6684 36.8058 58.0857 0.0000 0.0000 0.0000
# 4 0.0000 0.0000 0.0000 29.5646 0.0000 0.0000
# 5 0.0000 0.0000 0.0000 0.0000 29.3550 0.0000
# 6 0.0000 0.0000 0.0000 0.0000 0.0000 44.1232
#
#
#
# Elastic Compliance Matrix: (Units=1/GPa)
#
#
# Indices 1 2 3 4 5 6 
#
# 1 0.011347 -0.004729 -0.003190 0.000000 0.000000 0.000000
# 2 -0.004729 0.011437 -0.004669 0.000000 0.000000 0.000000
# 3 -0.003190 -0.004669 0.021914 0.000000 0.000000 0.000000
# 4 0.000000 0.000000 0.000000 0.033824 0.000000 0.000000
# 5 0.000000 0.000000 0.000000 0.000000 0.034066 0.000000
# 6 0.000000 0.000000 0.000000 0.000000 0.000000 0.022664
#
#
# Mechanical properties :
#
#
# Convention : Reuss Voigt Hill
#
# Bulk Modulus (GPa) = 51.22365 63.98971 57.60668
# Shear Modulus (GPa) = 29.95186 32.48995 31.22091
#
# Velocity S-wave (km/s) = 3.94778 4.11164 4.03054
# Velocity P-wave (km/s) = 6.88719 7.47240 7.18576
#
# Compressibility (1/GPa) = 0.01952223
#
# Stress axis : x y z
#
# Youngs Moduli (GPa) = 88.13171 87.43232 45.63349
#
# Poissons Ratio (x) = 0.41344 0.14557
# Poissons Ratio (y) = 0.41674 0.21307
# Poissons Ratio (z) = 0.28113 0.40824
#
# Static dielectric constant tensor:
#      x y z
#    x 3.634730 0.000000 0.000000 
#    y 0.000000 3.701200 0.000000 
#    z 0.000000 0.000000 3.261820 
# 
# 
# High freq. dielectric constant tensor:
#      x y z
#    x 1.759150 0.000000 0.000000 
#    y 0.000000 1.763710 0.000000 
#    z 0.000000 0.000000 1.719290 
# 
# From -- ./inp_files/58066.got.cif
#   From: 2010.03.12/outbox.cif.g09.slc.cpg/sg63_30_cif.got.tgz:58066.got - 2010.04.10 19:34:48.
