data_PCOD8259090
_publ_section_title
;
Structure prediction by ZEFSAII (Michael W. Deem and Ramdas Pophale) SiO2 
 PCOD8259090
Probable space group: C M C M
;
_chemical_formula_sum "Si O2"
_cell_formula_units_Z 104
_cell_length_a 21.283903
_cell_length_b 28.694496
_cell_length_c 8.576415
_cell_angle_alpha 90.000000
_cell_angle_beta 90.000000
_cell_angle_gamma 90.000000
_cell_volume 5237.881390
_symmetry_space_group_name_H-M "C M C M"
_symmetry_group_IT_number 63
_symmetry_cell_setting 'orthorhombic'
loop_
_space_group_symop_operation_xyz
x,y,z
-x,-y,1/2+z
x,-y,-z
-x,y,1/2-z
-x,-y,-z
x,y,1/2-z
-x,y,z
x,-y,1/2+z
1/2+x,1/2+y,z
1/2-x,1/2-y,1/2+z
1/2+x,1/2-y,-z
1/2-x,1/2+y,1/2-z
1/2-x,1/2-y,-z
1/2+x,1/2+y,1/2-z
1/2-x,1/2+y,z
1/2+x,1/2-y,1/2+z
loop_
_atom_site_type_symbol
_atom_site_label
_atom_site_fract_x
_atom_site_fract_y
_atom_site_fract_z
Si Si1 0.000000 0.447501 0.935147
Si Si2 0.738058 0.129517 0.931944
Si Si3 0.317397 0.549953 0.070950
Si Si4 0.849405 0.809661 0.432319
Si Si5 0.397826 0.125620 0.433134
Si Si6 0.569428 0.226604 0.435636
Si Si7 0.570328 0.611841 0.427082
O O1 0.938625 0.418455 0.995989
O O2 0.000000 0.451664 0.750000
O O3 0.000000 0.500000 0.000000
O O4 0.722484 0.134963 0.750000
O O5 0.780454 0.173678 0.995501
O O6 0.777826 0.083531 0.960725
O O7 0.674983 0.122210 0.027666
O O8 0.293774 0.552215 0.250000
O O9 0.390444 0.564108 0.058962
O O10 0.307304 0.500000 0.000000
O O11 0.842040 0.803913 0.250000
O O12 0.875969 0.760958 0.504120
O O13 0.901418 0.848624 0.463332
O O14 0.407524 0.126725 0.250000
O O15 0.422008 0.174632 0.504363
O O16 0.574995 0.225723 0.250000
O O17 0.500000 0.244632 0.485270
O O18 0.572598 0.630609 0.250000
O O19 0.500000 0.600518 0.482196
#
# Coordination Sequence:
#
# PCOD8259090 Si02
#       7
#     8  16  16  16  16  16  16
#     4  10  22  40  62  86 110 138 178 226 277 336
#     4  10  21  36  53  78 112 144 178 223 271 323
#     4  10  20  35  54  75 101 137 179 223 271 321
#     4   9  18  32  52  79 108 143 186 225 262 312
#     4  10  20  37  59  82 107 139 179 221 271 330
#     4   9  16  30  55  82 108 141 183 227 268 318
#     4   9  18  32  49  72 106 143 178 219 268 320
#
# _framework density 19.855356
#
# number of rings (size 3 to 8) (size 9 to 14) (size 15 to 20)
#    0.000    2.462    0.769    1.385    0.000    4.308 
#    0.000    2.308    0.000    0.923    0.000    0.000 
#    0.000    0.000    0.000    0.000    0.000    0.000 
#
# Total GULP energy -644357.969630 kJ/mol
# GULP energy per Si atom -12391.499416 kJ/mol
# Density = 1.981016 g / cm^3
# Si number density = 19.855356 Si / 1000 Ang^3
#
#
#
# Elastic Constant Matrix: (Units=GPa)
#
#
# Indices 1 2 3 4 5 6 
#
# 1 140.2384 60.1697 5.8153 0.0000 0.0000 0.0000
# 2 60.1697 144.2292 12.0078 0.0000 0.0000 0.0000
# 3 5.8153 12.0078 15.4514 0.0000 0.0000 0.0000
# 4 0.0000 0.0000 0.0000 22.1890 0.0000 0.0000
# 5 0.0000 0.0000 0.0000 0.0000 23.8048 0.0000
# 6 0.0000 0.0000 0.0000 0.0000 0.0000 21.7970
#
#
#
# Elastic Compliance Matrix: (Units=1/GPa)
#
#
# Indices 1 2 3 4 5 6 
#
# 1 0.008689 -0.003584 -0.000484 0.000000 0.000000 0.000000
# 2 -0.003584 0.008892 -0.005561 0.000000 0.000000 0.000000
# 3 -0.000484 -0.005561 0.069223 0.000000 0.000000 0.000000
# 4 0.000000 0.000000 0.000000 0.045067 0.000000 0.000000
# 5 0.000000 0.000000 0.000000 0.000000 0.042008 0.000000
# 6 0.000000 0.000000 0.000000 0.000000 0.000000 0.045878
#
#
# Mechanical properties :
#
#
# Convention : Reuss Voigt Hill
#
# Bulk Modulus (GPa) = 14.80522 50.65607 32.73064
# Shear Modulus (GPa) = 19.11813 28.35325 23.73569
#
# Velocity S-wave (km/s) = 3.10638 3.78298 3.46125
# Velocity P-wave (km/s) = 4.50986 6.68200 5.70035
#
# Compressibility (1/GPa) = 0.06754375
#
# Stress axis : x y z
#
# Youngs Moduli (GPa) = 115.09181 112.46377 14.44601
#
# Poissons Ratio (x) = 0.40312 0.00700
# Poissons Ratio (y) = 0.41254 0.08034
# Poissons Ratio (z) = 0.05576 0.62542
#
# Static dielectric constant tensor:
#      x y z
#    x 3.797970 0.000000 0.000000 
#    y 0.000000 3.804820 0.000000 
#    z 0.000000 0.000000 3.353960 
# 
# 
# High freq. dielectric constant tensor:
#      x y z
#    x 1.781230 0.000000 0.000000 
#    y 0.000000 1.773120 0.000000 
#    z 0.000000 0.000000 1.744890 
# 
# From -- ./inp_files/8817.got.cif
#   From: 2010.03.12/outbox.cif.g09.slc.cpg/sg63_5_cif.got.tgz:8817.got - 2010.04.10 19:34:48.
