data_PCOD8259226
_publ_section_title
;
Structure prediction by ZEFSAII (Michael W. Deem and Ramdas Pophale) SiO2 
 PCOD8259226
Probable space group: C M C M
;
_chemical_formula_sum "Si O2"
_cell_formula_units_Z 104
_cell_length_a 25.764109
_cell_length_b 9.727378
_cell_length_c 21.014026
_cell_angle_alpha 90.000000
_cell_angle_beta 90.000000
_cell_angle_gamma 90.000000
_cell_volume 5266.476926
_symmetry_space_group_name_H-M "C M C M"
_symmetry_group_IT_number 63
_symmetry_cell_setting 'orthorhombic'
loop_
_space_group_symop_operation_xyz
x,y,z
-x,-y,1/2+z
x,-y,-z
-x,y,1/2-z
-x,-y,-z
x,y,1/2-z
-x,y,z
x,-y,1/2+z
1/2+x,1/2+y,z
1/2-x,1/2-y,1/2+z
1/2+x,1/2-y,-z
1/2-x,1/2+y,1/2-z
1/2-x,1/2-y,-z
1/2+x,1/2+y,1/2-z
1/2-x,1/2+y,z
1/2+x,1/2-y,1/2+z
loop_
_atom_site_type_symbol
_atom_site_label
_atom_site_fract_x
_atom_site_fract_y
_atom_site_fract_z
Si Si1 0.211211 0.085553 0.822813
Si Si2 0.000000 0.451986 0.601703
Si Si3 0.500000 0.692903 0.675570
Si Si4 0.500000 0.234019 0.675507
Si Si5 0.404442 0.684995 0.395740
Si Si6 0.094806 0.359359 0.983607
Si Si7 0.301389 0.273181 0.824601
Si Si8 0.107258 0.121512 0.608959
O O1 0.215480 0.123963 0.750000
O O2 0.258277 0.170969 0.854676
O O3 0.153987 0.134197 0.841680
O O4 0.220200 0.925858 0.836612
O O5 0.000000 0.355450 0.663957
O O6 0.000000 0.600776 0.631657
O O7 0.048230 0.423943 0.556421
O O8 0.500000 0.656494 0.750000
O O9 0.551662 0.634827 0.642511
O O10 0.500000 0.199284 0.750000
O O11 0.449230 0.323023 0.657894
O O12 0.423723 0.782190 0.452686
O O13 0.353802 0.752240 0.363778
O O14 0.392560 0.531250 0.421845
O O15 0.121594 0.240348 0.941914
O O16 0.128340 0.500000 0.000000
O O17 0.313433 0.248499 0.750000
#
# Coordination Sequence:
#
# PCOD8259226 Si02
#       8
#    16   8   8   8  16  16  16  16
#     4   9  18  36  59  83 117 154 194 241 293 349
#     4  10  21  39  54  81 118 158 193 236 280 343
#     4  10  20  35  56  84 120 152 187 233 290 350
#     4  12  23  37  60  89 123 154 187 236 298 354
#     4  11  22  37  58  87 118 149 192 241 292 350
#     4  11  21  38  60  78 114 158 199 236 281 337
#     4   9  19  36  57  84 115 150 191 242 294 348
#     4  10  22  36  58  88 118 153 196 241 291 343
#
# _framework density 19.747547999999998
#
# number of rings (size 3 to 8) (size 9 to 14) (size 15 to 20)
#    0.000    1.846    1.538    2.769    0.000    3.692 
#    0.000    3.846    0.000    0.000    0.000    0.000 
#    0.000    0.000    0.000    0.000    0.000    0.000 
#
# Total GULP energy -644324.541236 kJ/mol
# GULP energy per Si atom -12390.856562 kJ/mol
# Density = 1.970260 g / cm^3
# Si number density = 19.747548 Si / 1000 Ang^3
#
#
#
# Elastic Constant Matrix: (Units=GPa)
#
#
# Indices 1 2 3 4 5 6 
#
# 1 107.8163 32.0843 26.4134 0.0000 0.0000 0.0000
# 2 32.0843 113.3605 43.5665 0.0000 0.0000 0.0000
# 3 26.4134 43.5665 78.9671 0.0000 0.0000 0.0000
# 4 0.0000 0.0000 0.0000 30.8970 0.0000 0.0000
# 5 0.0000 0.0000 0.0000 0.0000 8.8150 0.0000
# 6 0.0000 0.0000 0.0000 0.0000 0.0000 13.9693
#
#
#
# Elastic Compliance Matrix: (Units=1/GPa)
#
#
# Indices 1 2 3 4 5 6 
#
# 1 0.010466 -0.002052 -0.002369 0.000000 0.000000 0.000000
# 2 -0.002052 0.011597 -0.005712 0.000000 0.000000 0.000000
# 3 -0.002369 -0.005712 0.016607 0.000000 0.000000 0.000000
# 4 0.000000 0.000000 0.000000 0.032366 0.000000 0.000000
# 5 0.000000 0.000000 0.000000 0.000000 0.113443 0.000000
# 6 0.000000 0.000000 0.000000 0.000000 0.000000 0.071586
#
#
# Mechanical properties :
#
#
# Convention : Reuss Voigt Hill
#
# Bulk Modulus (GPa) = 54.33201 56.03024 55.18113
# Shear Modulus (GPa) = 17.70130 23.94156 20.82143
#
# Velocity S-wave (km/s) = 2.99721 3.48570 3.25065
# Velocity P-wave (km/s) = 6.28893 6.68095 6.48790
#
# Compressibility (1/GPa) = 0.01840536
#
# Stress axis : x y z
#
# Youngs Moduli (GPa) = 95.54825 86.22642 60.21504
#
# Poissons Ratio (x) = 0.17692 0.14263
# Poissons Ratio (y) = 0.19605 0.34395
# Poissons Ratio (z) = 0.22633 0.49253
#
# Static dielectric constant tensor:
#      x y z
#    x 3.484680 0.000000 0.000000 
#    y 0.000000 3.941920 0.000000 
#    z 0.000000 0.000000 3.523200 
# 
# 
# High freq. dielectric constant tensor:
#      x y z
#    x 1.753930 0.000000 0.000000 
#    y 0.000000 1.789950 0.000000 
#    z 0.000000 0.000000 1.759440 
# 
# From -- ./inp_files/58226.got.cif
#   From: 2010.03.12/outbox.cif.g09.slc.cpg/sg63_30_cif.got.tgz:58226.got - 2010.04.10 19:34:48.
