data_PCOD8259791
_publ_section_title
;
Structure prediction by ZEFSAII (Michael W. Deem and Ramdas Pophale) SiO2 
 PCOD8259791
Probable space group: C M C M
;
_chemical_formula_sum "Si O2"
_cell_formula_units_Z 96
_cell_length_a 26.478057
_cell_length_b 7.788079
_cell_length_c 21.928579
_cell_angle_alpha 90.000000
_cell_angle_beta 90.000000
_cell_angle_gamma 90.000000
_cell_volume 4521.962440
_symmetry_space_group_name_H-M "C M C M"
_symmetry_group_IT_number 63
_symmetry_cell_setting 'orthorhombic'
loop_
_space_group_symop_operation_xyz
x,y,z
-x,-y,1/2+z
x,-y,-z
-x,y,1/2-z
-x,-y,-z
x,y,1/2-z
-x,y,z
x,-y,1/2+z
1/2+x,1/2+y,z
1/2-x,1/2-y,1/2+z
1/2+x,1/2-y,-z
1/2-x,1/2+y,1/2-z
1/2-x,1/2-y,-z
1/2+x,1/2+y,1/2-z
1/2-x,1/2+y,z
1/2+x,1/2-y,1/2+z
loop_
_atom_site_type_symbol
_atom_site_label
_atom_site_fract_x
_atom_site_fract_y
_atom_site_fract_z
Si Si1 0.713496 0.978229 0.820443
Si Si2 0.557078 0.494390 0.822101
Si Si3 0.120684 0.304708 0.629922
Si Si4 0.780612 0.216572 0.098867
Si Si5 0.059609 0.608285 0.681237
Si Si6 0.684913 0.803645 0.980486
O O1 0.724595 0.017307 0.750000
O O2 0.693811 0.143434 0.856596
O O3 0.671314 0.830582 0.828785
O O4 0.766678 0.936021 0.854528
O O5 0.559154 0.517367 0.750000
O O6 0.500000 0.530695 0.844906
O O7 0.595250 0.626395 0.852559
O O8 0.573796 0.301046 0.840276
O O9 0.083801 0.466393 0.637834
O O10 0.133439 0.294961 0.558034
O O11 0.729353 0.272099 0.062667
O O12 0.819965 0.186897 0.042667
O O13 0.079991 0.577408 0.750000
O O14 0.000000 0.584290 0.680054
O O15 0.697211 0.000000 0.000000
#
# Coordination Sequence:
#
# PCOD8259791 Si02
#       6
#    16  16  16  16  16  16
#     4  11  22  37  58  88 120 149 192 251 317 370
#     4   9  18  34  57  88 127 164 198 244 310 379
#     4  11  20  34  58  88 121 156 200 255 298 355
#     4  10  20  39  59  78 110 153 199 245 293 360
#     4   9  18  34  57  87 123 160 198 245 310 377
#     4  10  20  39  58  78 109 156 209 247 281 349
#
# _framework density 21.22972
#
# number of rings (size 3 to 8) (size 9 to 14) (size 15 to 20)
#    0.000    2.000    3.333    3.500    0.000    1.333 
#    6.000    1.667    0.000    2.000    0.000    2.333 
#    0.000    0.000    0.000    0.000    0.000    0.000 
#
# Total GULP energy -594659.193786 kJ/mol
# GULP energy per Si atom -12388.733204 kJ/mol
# Density = 2.118140 g / cm^3
# Si number density = 21.229720 Si / 1000 Ang^3
#
#
#
# Elastic Constant Matrix: (Units=GPa)
#
#
# Indices 1 2 3 4 5 6 
#
# 1 47.6409 48.2088 41.5705 0.0000 0.0000 0.0000
# 2 48.2088 88.5903 48.2340 0.0000 0.0000 0.0000
# 3 41.5705 48.2340 157.4215 0.0000 0.0000 0.0000
# 4 0.0000 0.0000 0.0000 35.0243 0.0000 0.0000
# 5 0.0000 0.0000 0.0000 0.0000 39.5972 0.0000
# 6 0.0000 0.0000 0.0000 0.0000 0.0000 35.1378
#
#
#
# Elastic Compliance Matrix: (Units=1/GPa)
#
#
# Indices 1 2 3 4 5 6 
#
# 1 0.050977 -0.024498 -0.005955 0.000000 0.000000 0.000000
# 2 -0.024498 0.025321 -0.001289 0.000000 0.000000 0.000000
# 3 -0.005955 -0.001289 0.008320 0.000000 0.000000 0.000000
# 4 0.000000 0.000000 0.000000 0.028552 0.000000 0.000000
# 5 0.000000 0.000000 0.000000 0.000000 0.025254 0.000000
# 6 0.000000 0.000000 0.000000 0.000000 0.000000 0.028459
#
#
# Mechanical properties :
#
#
# Convention : Reuss Voigt Hill
#
# Bulk Modulus (GPa) = 47.31942 63.29771 55.30856
# Shear Modulus (GPa) = 21.06035 32.32782 26.69409
#
# Velocity S-wave (km/s) = 3.15306 3.90649 3.54982
# Velocity P-wave (km/s) = 5.96601 7.08717 6.55062
#
# Compressibility (1/GPa) = 0.02113297
#
# Stress axis : x y z
#
# Youngs Moduli (GPa) = 19.61668 39.49273 120.19220
#
# Poissons Ratio (x) = 0.96750 0.71578
# Poissons Ratio (y) = 0.48057 0.15495
# Poissons Ratio (z) = 0.11682 0.05091
#
# Static dielectric constant tensor:
#      x y z
#    x 3.672220 0.000000 0.000000 
#    y 0.000000 3.890210 0.000000 
#    z 0.000000 0.000000 4.029090 
# 
# 
# High freq. dielectric constant tensor:
#      x y z
#    x 1.805860 0.000000 0.000000 
#    y 0.000000 1.831290 0.000000 
#    z 0.000000 0.000000 1.827250 
# 
# From -- ./inp_files/58110.got.cif
#   From: 2010.03.12/outbox.cif.g09.slc.cpg/sg63_30_cif.got.tgz:58110.got - 2010.04.10 19:34:48.
