data_PCOD8259462
_publ_section_title
;
Structure prediction by ZEFSAII (Michael W. Deem and Ramdas Pophale) SiO2 
 PCOD8259462
Probable space group: C M C M
;
_chemical_formula_sum "Si O2"
_cell_formula_units_Z 72
_cell_length_a 15.427402
_cell_length_b 26.631843
_cell_length_c 8.835198
_cell_angle_alpha 90.000000
_cell_angle_beta 90.000000
_cell_angle_gamma 90.000000
_cell_volume 3630.030758
_symmetry_space_group_name_H-M "C M C M"
_symmetry_group_IT_number 63
_symmetry_cell_setting 'orthorhombic'
loop_
_space_group_symop_operation_xyz
x,y,z
-x,-y,1/2+z
x,-y,-z
-x,y,1/2-z
-x,-y,-z
x,y,1/2-z
-x,y,z
x,-y,1/2+z
1/2+x,1/2+y,z
1/2-x,1/2-y,1/2+z
1/2+x,1/2-y,-z
1/2-x,1/2+y,1/2-z
1/2-x,1/2-y,-z
1/2+x,1/2+y,1/2-z
1/2-x,1/2+y,z
1/2+x,1/2-y,1/2+z
loop_
_atom_site_type_symbol
_atom_site_label
_atom_site_fract_x
_atom_site_fract_y
_atom_site_fract_z
Si Si1 0.844936 0.387356 0.925097
Si Si2 0.000000 0.216259 0.430127
Si Si3 0.500000 0.397987 0.930108
Si Si4 0.500000 0.054447 0.927574
Si Si5 0.337015 0.770485 0.928077
Si Si6 0.824831 0.052701 0.427242
O O1 0.867551 0.397158 0.750000
O O2 0.846579 0.328993 0.964518
O O3 0.749951 0.407681 0.966514
O O4 0.914975 0.415302 0.025970
O O5 0.084192 0.242457 0.494813
O O6 0.000000 0.220128 0.250000
O O7 0.000000 0.159030 0.487486
O O8 0.500000 0.398280 0.750000
O O9 0.584934 0.426125 0.994342
O O10 0.500000 0.047166 0.750000
O O11 0.500000 0.000000 0.000000
O O12 0.336566 0.760153 0.750000
O O13 0.250000 0.750000 0.000000
O O14 0.833609 0.044378 0.250000
O O15 0.800287 0.000000 0.500000
#
# Coordination Sequence:
#
# PCOD8259462 Si02
#       6
#    16   8   8   8  16  16
#     4  10  22  40  60  83 116 156 195 237 291 351
#     4  11  22  39  62  87 117 156 199 244 295 353
#     4   9  19  37  59  82 114 154 189 222 278 348
#     4  12  25  40  61  87 116 152 195 244 298 355
#     4  11  23  40  62  89 121 158 199 246 299 357
#     4  10  20  36  58  83 111 147 188 230 278 335
#
# _framework density 19.834543
#
# number of rings (size 3 to 8) (size 9 to 14) (size 15 to 20)
#    0.000    1.556    0.000    5.000    0.000   10.667 
#    0.000    4.444    0.000    0.000    0.000    0.000 
#    0.000    0.000    0.000    0.000    0.000    0.000 
#
# Total GULP energy -446579.796645 kJ/mol
# GULP energy per Si atom -12404.994351 kJ/mol
# Density = 1.978940 g / cm^3
# Si number density = 19.834543 Si / 1000 Ang^3
#
#
#
# Elastic Constant Matrix: (Units=GPa)
#
#
# Indices 1 2 3 4 5 6 
#
# 1 126.4582 35.5915 48.5961 0.0000 0.0000 0.0000
# 2 35.5915 120.6250 51.9533 0.0000 0.0000 0.0000
# 3 48.5961 51.9533 87.5447 0.0000 0.0000 0.0000
# 4 0.0000 0.0000 0.0000 34.3780 0.0000 0.0000
# 5 0.0000 0.0000 0.0000 0.0000 35.8703 0.0000
# 6 0.0000 0.0000 0.0000 0.0000 0.0000 47.9029
#
#
#
# Elastic Compliance Matrix: (Units=1/GPa)
#
#
# Indices 1 2 3 4 5 6 
#
# 1 0.010104 -0.000760 -0.005158 0.000000 0.000000 0.000000
# 2 -0.000760 0.011194 -0.006221 0.000000 0.000000 0.000000
# 3 -0.005158 -0.006221 0.017978 0.000000 0.000000 0.000000
# 4 0.000000 0.000000 0.000000 0.029088 0.000000 0.000000
# 5 0.000000 0.000000 0.000000 0.000000 0.027878 0.000000
# 6 0.000000 0.000000 0.000000 0.000000 0.000000 0.020876
#
#
# Mechanical properties :
#
#
# Convention : Reuss Voigt Hill
#
# Bulk Modulus (GPa) = 66.67597 67.43443 67.05520
# Shear Modulus (GPa) = 34.15444 36.86268 35.50856
#
# Velocity S-wave (km/s) = 4.15416 4.31572 4.23571
# Velocity P-wave (km/s) = 7.52984 7.67504 7.60279
#
# Compressibility (1/GPa) = 0.01499791
#
# Stress axis : x y z
#
# Youngs Moduli (GPa) = 98.97471 89.33509 55.62441
#
# Poissons Ratio (x) = 0.06787 0.28689
# Poissons Ratio (y) = 0.07520 0.34605
# Poissons Ratio (z) = 0.51048 0.55577
#
# Static dielectric constant tensor:
#      x y z
#    x 3.828220 0.000000 0.000000 
#    y 0.000000 3.803410 0.000000 
#    z 0.000000 0.000000 3.516160 
# 
# 
# High freq. dielectric constant tensor:
#      x y z
#    x 1.795650 0.000000 0.000000 
#    y 0.000000 1.792280 0.000000 
#    z 0.000000 0.000000 1.762550 
# 
# From -- ./inp_files/4720.got.cif
#   From: 2010.03.12/outbox.cif.g09.slc.cpg/sg63_3_cif.got.tgz:4720.got - 2010.04.10 19:34:48.
