data_PCOD8259687
_publ_section_title
;
Structure prediction by ZEFSAII (Michael W. Deem and Ramdas Pophale) SiO2 
 PCOD8259687
Probable space group: C M C M
;
_chemical_formula_sum "Si O2"
_cell_formula_units_Z 80
_cell_length_a 19.901394
_cell_length_b 22.750637
_cell_length_c 9.129256
_cell_angle_alpha 90.000000
_cell_angle_beta 90.000000
_cell_angle_gamma 90.000000
_cell_volume 4133.447677
_symmetry_space_group_name_H-M "C M C M"
_symmetry_group_IT_number 63
_symmetry_cell_setting 'orthorhombic'
loop_
_space_group_symop_operation_xyz
x,y,z
-x,-y,1/2+z
x,-y,-z
-x,y,1/2-z
-x,-y,-z
x,y,1/2-z
-x,y,z
x,-y,1/2+z
1/2+x,1/2+y,z
1/2-x,1/2-y,1/2+z
1/2+x,1/2-y,-z
1/2-x,1/2+y,1/2-z
1/2-x,1/2-y,-z
1/2+x,1/2+y,1/2-z
1/2-x,1/2+y,z
1/2+x,1/2-y,1/2+z
loop_
_atom_site_type_symbol
_atom_site_label
_atom_site_fract_x
_atom_site_fract_y
_atom_site_fract_z
Si Si1 0.500000 0.437383 0.423584
Si Si2 0.000000 0.436900 0.077085
Si Si3 0.621327 0.620267 0.081694
Si Si4 0.819675 0.757442 0.581632
Si Si5 0.367022 0.131742 0.918673
Si Si6 0.239368 0.440553 0.917327
O O1 0.500000 0.500000 0.500000
O O2 0.500000 0.446287 0.250000
O O3 0.435168 0.401279 0.471732
O O4 0.064458 0.398922 0.027261
O O5 0.000000 0.447456 0.250000
O O6 0.000000 0.500000 0.000000
O O7 0.595442 0.621617 0.250000
O O8 0.641661 0.684918 0.025544
O O9 0.682962 0.575476 0.066774
O O10 0.800208 0.766709 0.750000
O O11 0.750000 0.750000 0.500000
O O12 0.869925 0.702192 0.559799
O O13 0.353169 0.115648 0.750000
O O14 0.304766 0.111036 0.015043
O O15 0.218224 0.448974 0.750000
O O16 0.222271 0.500000 0.000000
#
# Coordination Sequence:
#
# PCOD8259687 Si02
#       6
#     8   8  16  16  16  16
#     4  12  26  43  64  90 122 161 203 254 307 364
#     4  10  22  39  56  82 116 155 199 240 291 348
#     4  10  22  40  62  89 121 159 199 244 302 363
#     4  10  20  37  62  91 122 157 195 245 298 353
#     4  10  21  37  60  87 117 155 198 245 296 352
#     4  11  22  36  57  86 117 153 200 248 297 354
#
# _framework density 19.354303000000002
#
# number of rings (size 3 to 8) (size 9 to 14) (size 15 to 20)
#    0.000    1.600    2.000    2.700    0.000    7.200 
#    0.000    3.000    0.000    1.200    0.000    0.000 
#    0.000    0.000    0.000    0.000    0.000    0.000 
#
# Total GULP energy -496142.878745 kJ/mol
# GULP energy per Si atom -12403.571969 kJ/mol
# Density = 1.931025 g / cm^3
# Si number density = 19.354303 Si / 1000 Ang^3
#
#
#
# Elastic Constant Matrix: (Units=GPa)
#
#
# Indices 1 2 3 4 5 6 
#
# 1 102.8658 44.8692 52.0109 0.0000 0.0000 0.0000
# 2 44.8692 135.9827 50.5336 0.0000 0.0000 0.0000
# 3 52.0109 50.5336 98.1792 0.0000 0.0000 0.0000
# 4 0.0000 0.0000 0.0000 29.0739 0.0000 0.0000
# 5 0.0000 0.0000 0.0000 0.0000 30.7669 0.0000
# 6 0.0000 0.0000 0.0000 0.0000 0.0000 36.9752
#
#
#
# Elastic Compliance Matrix: (Units=1/GPa)
#
#
# Indices 1 2 3 4 5 6 
#
# 1 0.013825 -0.002275 -0.006153 0.000000 0.000000 0.000000
# 2 -0.002275 0.009468 -0.003668 0.000000 0.000000 0.000000
# 3 -0.006153 -0.003668 0.015333 0.000000 0.000000 0.000000
# 4 0.000000 0.000000 0.000000 0.034395 0.000000 0.000000
# 5 0.000000 0.000000 0.000000 0.000000 0.032503 0.000000
# 6 0.000000 0.000000 0.000000 0.000000 0.000000 0.027045
#
#
# Mechanical properties :
#
#
# Convention : Reuss Voigt Hill
#
# Bulk Modulus (GPa) = 69.28186 70.20614 69.74400
# Shear Modulus (GPa) = 30.94629 32.00413 31.47521
#
# Velocity S-wave (km/s) = 4.00301 4.07085 4.03707
# Velocity P-wave (km/s) = 7.56570 7.64517 7.60554
#
# Compressibility (1/GPa) = 0.01443379
#
# Stress axis : x y z
#
# Youngs Moduli (GPa) = 72.33418 105.62328 65.22015
#
# Poissons Ratio (x) = 0.24031 0.40128
# Poissons Ratio (y) = 0.16457 0.23921
# Poissons Ratio (z) = 0.44505 0.38740
#
# Static dielectric constant tensor:
#      x y z
#    x 3.492590 0.000000 0.000000 
#    y 0.000000 3.796350 0.000000 
#    z 0.000000 0.000000 3.574340 
# 
# 
# High freq. dielectric constant tensor:
#      x y z
#    x 1.750390 0.000000 0.000000 
#    y 0.000000 1.772220 0.000000 
#    z 0.000000 0.000000 1.749380 
# 
# From -- ./inp_files/6545.got.cif
#   From: 2010.03.12/outbox.cif.g09.slc.cpg/sg63_4_cif.got.tgz:6545.got - 2010.04.10 19:34:48.
