data_PCOD8259464
_publ_section_title
;
Structure prediction by ZEFSAII (Michael W. Deem and Ramdas Pophale) SiO2 
 PCOD8259464
Probable space group: C M C M
;
_chemical_formula_sum "Si O2"
_cell_formula_units_Z 96
_cell_length_a 18.370470
_cell_length_b 23.944007
_cell_length_c 12.169984
_cell_angle_alpha 90.000000
_cell_angle_beta 90.000000
_cell_angle_gamma 90.000000
_cell_volume 5353.121562
_symmetry_space_group_name_H-M "C M C M"
_symmetry_group_IT_number 63
_symmetry_cell_setting 'orthorhombic'
loop_
_space_group_symop_operation_xyz
x,y,z
-x,-y,1/2+z
x,-y,-z
-x,y,1/2-z
-x,-y,-z
x,y,1/2-z
-x,y,z
x,-y,1/2+z
1/2+x,1/2+y,z
1/2-x,1/2-y,1/2+z
1/2+x,1/2-y,-z
1/2-x,1/2+y,1/2-z
1/2-x,1/2-y,-z
1/2+x,1/2+y,1/2-z
1/2-x,1/2+y,z
1/2+x,1/2-y,1/2+z
loop_
_atom_site_type_symbol
_atom_site_label
_atom_site_fract_x
_atom_site_fract_y
_atom_site_fract_z
Si Si1 0.846314 0.205998 0.566667
Si Si2 0.343911 0.581804 0.870764
Si Si3 0.000000 0.376058 0.619647
Si Si4 0.746224 0.807522 0.871978
Si Si5 0.654729 0.088360 0.379612
Si Si6 0.242189 0.500000 0.000000
Si Si7 0.000000 0.752432 0.380926
Si Si8 0.000000 0.965628 0.118136
O O1 0.827524 0.147132 0.621400
O O2 0.817780 0.206205 0.441748
O O3 0.806974 0.254430 0.635229
O O4 0.931779 0.216621 0.565688
O O5 0.322978 0.560692 0.750000
O O6 0.293572 0.547505 0.952260
O O7 0.429003 0.572267 0.893823
O O8 0.927513 0.406270 0.572377
O O9 0.000000 0.379203 0.750000
O O10 0.000000 0.311803 0.582482
O O11 0.773464 0.822288 0.750000
O O12 0.702701 0.859843 0.924579
O O13 0.651391 0.093023 0.250000
O O14 0.689612 0.029255 0.411835
O O15 0.000000 0.759686 0.250000
O O16 0.000000 0.991531 0.250000
O O17 0.000000 0.000000 0.000000
#
# Coordination Sequence:
#
# PCOD8259464 Si02
#       8
#    16  16   8  16  16   8   8   8
#     4  11  21  35  57  87 113 142 183 235 289 339
#     4  11  22  36  55  81 113 148 190 236 284 338
#     4   9  18  34  57  84 108 137 181 234 281 325
#     4  10  20  36  58  83 113 147 183 232 288 342
#     4  10  20  37  58  81 111 146 186 232 279 334
#     4  12  22  36  54  80 112 154 192 224 276 338
#     4  11  19  32  58  87 113 142 184 232 283 334
#     4  10  21  39  58  80 115 156 200 244 288 338
#
# _framework density 17.933461000000001
#
# number of rings (size 3 to 8) (size 9 to 14) (size 15 to 20)
#    0.000    1.500    4.167    2.500    0.000    1.000 
#    0.000    1.250    0.000    0.000    0.000    0.000 
#    0.000    0.000    0.000    0.000    0.000    0.000 
#
# Total GULP energy -594859.172816 kJ/mol
# GULP energy per Si atom -12392.899434 kJ/mol
# Density = 1.789264 g / cm^3
# Si number density = 17.933461 Si / 1000 Ang^3
#
#
#
# Elastic Constant Matrix: (Units=GPa)
#
#
# Indices 1 2 3 4 5 6 
#
# 1 129.4050 42.6587 34.5002 0.0000 0.0000 0.0000
# 2 42.6587 96.4831 10.0985 0.0000 0.0000 0.0000
# 3 34.5002 10.0985 60.0741 0.0000 0.0000 0.0000
# 4 0.0000 0.0000 0.0000 24.5058 0.0000 0.0000
# 5 0.0000 0.0000 0.0000 0.0000 17.8176 0.0000
# 6 0.0000 0.0000 0.0000 0.0000 0.0000 29.4674
#
#
#
# Elastic Compliance Matrix: (Units=1/GPa)
#
#
# Indices 1 2 3 4 5 6 
#
# 1 0.010498 -0.004082 -0.005343 0.000000 0.000000 0.000000
# 2 -0.004082 0.012138 0.000304 0.000000 0.000000 0.000000
# 3 -0.005343 0.000304 0.019663 0.000000 0.000000 0.000000
# 4 0.000000 0.000000 0.000000 0.040807 0.000000 0.000000
# 5 0.000000 0.000000 0.000000 0.000000 0.056124 0.000000
# 6 0.000000 0.000000 0.000000 0.000000 0.000000 0.033936
#
#
# Mechanical properties :
#
#
# Convention : Reuss Voigt Hill
#
# Bulk Modulus (GPa) = 41.56784 51.16410 46.36597
# Shear Modulus (GPa) = 25.07195 27.60513 26.33854
#
# Velocity S-wave (km/s) = 3.74311 3.92766 3.83650
# Velocity P-wave (km/s) = 6.47383 7.01146 6.74800
#
# Compressibility (1/GPa) = 0.02405706
#
# Stress axis : x y z
#
# Youngs Moduli (GPa) = 95.25828 82.38861 50.85638
#
# Poissons Ratio (x) = 0.33633 0.27170
# Poissons Ratio (y) = 0.38887 -0.01546
# Poissons Ratio (z) = 0.50893 -0.02505
#
# Static dielectric constant tensor:
#      x y z
#    x 3.507670 0.000000 0.000000 
#    y 0.000000 3.348550 0.000000 
#    z 0.000000 0.000000 3.356080 
# 
# 
# High freq. dielectric constant tensor:
#      x y z
#    x 1.702050 0.000000 0.000000 
#    y 0.000000 1.696280 0.000000 
#    z 0.000000 0.000000 1.676010 
# 
# From -- ./inp_files/21397.got.cif
#   From: 2010.03.12/outbox.cif.g09.slc.cpg/sg63_11_cif.got.tgz:21397.got - 2010.04.10 19:34:48.
