data_PCOD8259697
_publ_section_title
;
Structure prediction by ZEFSAII (Michael W. Deem and Ramdas Pophale) SiO2 
 PCOD8259697
Probable space group: C M C M
;
_chemical_formula_sum "Si O2"
_cell_formula_units_Z 96
_cell_length_a 12.052227
_cell_length_b 17.849383
_cell_length_c 22.186820
_cell_angle_alpha 90.000000
_cell_angle_beta 90.000000
_cell_angle_gamma 90.000000
_cell_volume 4772.935564
_symmetry_space_group_name_H-M "C M C M"
_symmetry_group_IT_number 63
_symmetry_cell_setting 'orthorhombic'
loop_
_space_group_symop_operation_xyz
x,y,z
-x,-y,1/2+z
x,-y,-z
-x,y,1/2-z
-x,-y,-z
x,y,1/2-z
-x,y,z
x,-y,1/2+z
1/2+x,1/2+y,z
1/2-x,1/2-y,1/2+z
1/2+x,1/2-y,-z
1/2-x,1/2+y,1/2-z
1/2-x,1/2-y,-z
1/2+x,1/2+y,1/2-z
1/2-x,1/2+y,z
1/2+x,1/2-y,1/2+z
loop_
_atom_site_type_symbol
_atom_site_label
_atom_site_fract_x
_atom_site_fract_y
_atom_site_fract_z
Si Si1 0.378087 0.182819 0.682552
Si Si2 0.500000 0.590328 0.546407
Si Si3 0.875387 0.676694 0.116888
Si Si4 0.335212 0.646277 0.181980
Si Si5 0.624049 0.084346 0.003820
Si Si6 0.000000 0.921418 0.911255
Si Si7 0.716580 0.332042 0.418856
O O1 0.343284 0.161567 0.750000
O O2 0.500000 0.150131 0.666866
O O3 0.387495 0.272069 0.674654
O O4 0.284648 0.146267 0.641082
O O5 0.500000 0.621621 0.476372
O O6 0.500000 0.503028 0.559871
O O7 0.606605 0.619913 0.580948
O O8 0.797818 0.651886 0.172595
O O9 0.817029 0.744876 0.080711
O O10 0.000000 0.698524 0.139410
O O11 0.883130 0.605547 0.073552
O O12 0.357288 0.615276 0.250000
O O13 0.391853 0.594766 0.130155
O O14 0.500000 0.087361 0.974954
O O15 0.704115 0.145637 0.973965
O O16 0.673177 0.000000 0.000000
#
# Coordination Sequence:
#
# PCOD8259697 Si02
#       7
#    16   8  16  16  16   8  16
#     4   9  18  36  62  89 113 147 199 254 298 339
#     4  11  26  38  58  88 127 164 195 230 315 365
#     4  10  21  38  57  87 122 152 197 249 301 366
#     4  10  20  37  64  89 113 152 200 249 296 347
#     4  10  22  37  58  84 116 161 205 255 310 356
#     4  11  23  40  60  88 121 157 197 252 289 361
#     4  11  21  38  57  85 122 159 201 241 296 375
#
# _framework density 20.113408
#
# number of rings (size 3 to 8) (size 9 to 14) (size 15 to 20)
#    0.000    1.833    1.667    2.250    4.667    1.667 
#    0.000    2.083    0.000    0.000    0.000    0.000 
#    0.000    0.000    0.000    0.000    0.000    0.000 
#
# Total GULP energy -594829.311794 kJ/mol
# GULP energy per Si atom -12392.277329 kJ/mol
# Density = 2.006763 g / cm^3
# Si number density = 20.113408 Si / 1000 Ang^3
#
#
#
# Elastic Constant Matrix: (Units=GPa)
#
#
# Indices 1 2 3 4 5 6 
#
# 1 152.9702 26.8447 68.5623 0.0000 0.0000 0.0000
# 2 26.8447 48.9437 28.9271 0.0000 0.0000 0.0000
# 3 68.5623 28.9271 121.9721 0.0000 0.0000 0.0000
# 4 0.0000 0.0000 0.0000 22.8967 0.0000 0.0000
# 5 0.0000 0.0000 0.0000 0.0000 35.4616 0.0000
# 6 0.0000 0.0000 0.0000 0.0000 0.0000 25.7702
#
#
#
# Elastic Compliance Matrix: (Units=1/GPa)
#
#
# Indices 1 2 3 4 5 6 
#
# 1 0.008947 -0.002250 -0.004496 0.000000 0.000000 0.000000
# 2 -0.002250 0.024328 -0.004505 0.000000 0.000000 0.000000
# 3 -0.004496 -0.004505 0.011794 0.000000 0.000000 0.000000
# 4 0.000000 0.000000 0.000000 0.043674 0.000000 0.000000
# 5 0.000000 0.000000 0.000000 0.000000 0.028199 0.000000
# 6 0.000000 0.000000 0.000000 0.000000 0.000000 0.038805
#
#
# Mechanical properties :
#
#
# Convention : Reuss Voigt Hill
#
# Bulk Modulus (GPa) = 44.31049 63.61713 53.96381
# Shear Modulus (GPa) = 26.91470 30.12916 28.52193
#
# Velocity S-wave (km/s) = 3.66204 3.87455 3.76979
# Velocity P-wave (km/s) = 6.32130 7.19125 6.77026
#
# Compressibility (1/GPa) = 0.02256802
#
# Stress axis : x y z
#
# Youngs Moduli (GPa) = 111.76827 41.10424 84.78872
#
# Poissons Ratio (x) = 0.09250 0.38118
# Poissons Ratio (y) = 0.25151 0.38196
# Poissons Ratio (z) = 0.50247 0.18517
#
# Static dielectric constant tensor:
#      x y z
#    x 3.818830 0.000000 0.000000 
#    y 0.000000 3.336630 0.000000 
#    z 0.000000 0.000000 3.595010 
# 
# 
# High freq. dielectric constant tensor:
#      x y z
#    x 1.805510 0.000000 0.000000 
#    y 0.000000 1.753860 0.000000 
#    z 0.000000 0.000000 1.774450 
# 
# From -- ./inp_files/52908.got.cif
#   From: 2010.03.12/outbox.cif.g09.slc.cpg/sg63_27_cif.got.tgz:52908.got - 2010.04.10 19:34:48.
