data_PCOD8259346
_publ_section_title
;
Structure prediction by ZEFSAII (Michael W. Deem and Ramdas Pophale) SiO2 
 PCOD8259346
Probable space group: C M C M
;
_chemical_formula_sum "Si O2"
_cell_formula_units_Z 112
_cell_length_a 13.746379
_cell_length_b 12.751845
_cell_length_c 30.011709
_cell_angle_alpha 90.000000
_cell_angle_beta 90.000000
_cell_angle_gamma 90.000000
_cell_volume 5260.803320
_symmetry_space_group_name_H-M "C M C M"
_symmetry_group_IT_number 63
_symmetry_cell_setting 'orthorhombic'
loop_
_space_group_symop_operation_xyz
x,y,z
-x,-y,1/2+z
x,-y,-z
-x,y,1/2-z
-x,-y,-z
x,y,1/2-z
-x,y,z
x,-y,1/2+z
1/2+x,1/2+y,z
1/2-x,1/2-y,1/2+z
1/2+x,1/2-y,-z
1/2-x,1/2+y,1/2-z
1/2-x,1/2-y,-z
1/2+x,1/2+y,1/2-z
1/2-x,1/2+y,z
1/2+x,1/2-y,1/2+z
loop_
_atom_site_type_symbol
_atom_site_label
_atom_site_fract_x
_atom_site_fract_y
_atom_site_fract_z
Si Si1 0.613225 0.819443 0.474984
Si Si2 0.608813 0.584178 0.109092
Si Si3 0.892262 0.906622 0.321858
Si Si4 0.390083 0.189528 0.870568
Si Si5 0.304115 0.035826 0.701196
Si Si6 0.797061 0.102462 0.020919
Si Si7 0.389465 0.820864 0.699042
O O1 0.500000 0.845813 0.485030
O O2 0.637971 0.831468 0.422368
O O3 0.684862 0.892992 0.503854
O O4 0.638248 0.702655 0.492276
O O5 0.500000 0.598430 0.087402
O O6 0.613243 0.472046 0.132666
O O7 0.624061 0.686583 0.140777
O O8 0.696648 0.586550 0.073952
O O9 0.811348 0.955617 0.289641
O O10 0.870428 0.782734 0.330898
O O11 0.000000 0.916945 0.300043
O O12 0.500000 0.153417 0.862436
O O13 0.327650 0.122630 0.835766
O O14 0.355343 0.052314 0.750000
O O15 0.326558 0.919848 0.682168
O O16 0.847130 0.000000 0.000000
O O17 0.362768 0.791091 0.750000
O O18 0.500000 0.858483 0.695023
#
# Coordination Sequence:
#
# PCOD8259346 Si02
#       7
#    16  16  16  16  16  16  16
#     4   9  20  39  60  90 127 162 200 244 305 365
#     4   9  20  39  62  90 122 160 204 254 308 363
#     4  10  22  40  60  82 118 162 200 245 304 365
#     4   9  19  38  63  89 126 164 197 249 309 363
#     4  11  23  36  62  92 119 158 208 256 302 360
#     4  10  20  35  64  91 117 160 204 250 298 356
#     4   9  19  38  60  85 118 153 196 253 309 356
#
# _framework density 21.289524
#
# number of rings (size 3 to 8) (size 9 to 14) (size 15 to 20)
#    0.000    2.429    0.000    2.143    4.000    3.143 
#    0.000    0.714    0.000    5.143    0.000    0.000 
#    0.000    0.000    0.000    0.000    0.000    0.000 
#
# Total GULP energy -693743.405531 kJ/mol
# GULP energy per Si atom -12388.275099 kJ/mol
# Density = 2.124107 g / cm^3
# Si number density = 21.289524 Si / 1000 Ang^3
#
#
#
# Elastic Constant Matrix: (Units=GPa)
#
#
# Indices 1 2 3 4 5 6 
#
# 1 103.9860 61.2166 49.8380 0.0000 0.0000 0.0000
# 2 61.2166 163.3359 61.7173 0.0000 0.0000 0.0000
# 3 49.8380 61.7173 86.5669 0.0000 0.0000 0.0000
# 4 0.0000 0.0000 0.0000 34.5554 0.0000 0.0000
# 5 0.0000 0.0000 0.0000 0.0000 22.8485 0.0000
# 6 0.0000 0.0000 0.0000 0.0000 0.0000 27.9982
#
#
#
# Elastic Compliance Matrix: (Units=1/GPa)
#
#
# Indices 1 2 3 4 5 6 
#
# 1 0.014334 -0.003085 -0.006053 0.000000 0.000000 0.000000
# 2 -0.003085 0.009044 -0.004672 0.000000 0.000000 0.000000
# 3 -0.006053 -0.004672 0.018367 0.000000 0.000000 0.000000
# 4 0.000000 0.000000 0.000000 0.028939 0.000000 0.000000
# 5 0.000000 0.000000 0.000000 0.000000 0.043767 0.000000
# 6 0.000000 0.000000 0.000000 0.000000 0.000000 0.035717
#
#
# Mechanical properties :
#
#
# Convention : Reuss Voigt Hill
#
# Bulk Modulus (GPa) = 70.79240 77.71474 74.25357
# Shear Modulus (GPa) = 27.39815 29.15488 28.27652
#
# Velocity S-wave (km/s) = 3.59127 3.70462 3.64839
# Velocity P-wave (km/s) = 7.10779 7.40823 7.25957
#
# Compressibility (1/GPa) = 0.01412581
#
# Stress axis : x y z
#
# Youngs Moduli (GPa) = 69.76514 110.57293 54.44558
#
# Poissons Ratio (x) = 0.34113 0.32954
# Poissons Ratio (y) = 0.21523 0.25435
# Poissons Ratio (z) = 0.42227 0.51655
#
# Static dielectric constant tensor:
#      x y z
#    x 4.010230 0.000000 0.000000 
#    y 0.000000 3.957340 0.000000 
#    z 0.000000 0.000000 3.486180 
# 
# 
# High freq. dielectric constant tensor:
#      x y z
#    x 1.836690 0.000000 0.000000 
#    y 0.000000 1.846960 0.000000 
#    z 0.000000 0.000000 1.800410 
# 
# From -- ./inp_files/73408.got.cif
#   From: 2010.03.12/outbox.cif.g09.slc.cpg/sg63_37_cif.got.tgz:73408.got - 2010.04.10 19:34:48.
