data_PCOD8259911
_publ_section_title
;
Structure prediction by ZEFSAII (Michael W. Deem and Ramdas Pophale) SiO2 
 PCOD8259911
Probable space group: C M C M
;
_chemical_formula_sum "Si O2"
_cell_formula_units_Z 96
_cell_length_a 31.519335
_cell_length_b 13.045509
_cell_length_c 14.209758
_cell_angle_alpha 90.000000
_cell_angle_beta 90.000000
_cell_angle_gamma 90.000000
_cell_volume 5842.850262
_symmetry_space_group_name_H-M "C M C M"
_symmetry_group_IT_number 63
_symmetry_cell_setting 'orthorhombic'
loop_
_space_group_symop_operation_xyz
x,y,z
-x,-y,1/2+z
x,-y,-z
-x,y,1/2-z
-x,-y,-z
x,y,1/2-z
-x,y,z
x,-y,1/2+z
1/2+x,1/2+y,z
1/2-x,1/2-y,1/2+z
1/2+x,1/2-y,-z
1/2-x,1/2+y,1/2-z
1/2-x,1/2-y,-z
1/2+x,1/2+y,1/2-z
1/2-x,1/2+y,z
1/2+x,1/2-y,1/2+z
loop_
_atom_site_type_symbol
_atom_site_label
_atom_site_fract_x
_atom_site_fract_y
_atom_site_fract_z
Si Si1 0.877074 0.767095 0.527765
Si Si2 0.382961 0.918772 0.143887
Si Si3 0.136206 0.355704 0.856575
Si Si4 0.793674 0.119361 0.487430
Si Si5 0.547764 0.768284 0.356402
Si Si6 0.271455 0.222450 0.357402
O O1 0.857587 0.665707 0.581350
O O2 0.885698 0.732190 0.420076
O O3 0.843303 0.858363 0.532592
O O4 0.921453 0.801920 0.577287
O O5 0.364525 0.915558 0.250000
O O6 0.432842 0.884125 0.142425
O O7 0.378007 0.033182 0.103880
O O8 0.120165 0.339079 0.750000
O O9 0.186927 0.348288 0.863747
O O10 0.767394 0.156836 0.397380
O O11 0.777968 0.174403 0.582464
O O12 0.786931 0.000000 0.500000
O O13 0.548637 0.724383 0.250000
O O14 0.500000 0.769184 0.396458
O O15 0.261733 0.254208 0.250000
#
# Coordination Sequence:
#
# PCOD8259911 Si02
#       6
#    16  16  16  16  16  16
#     4   9  17  29  46  66  91 125 159 191 242 291
#     4   8  15  26  44  69  90 118 153 193 236 284
#     4   9  16  28  44  64  94 128 162 193 231 281
#     4  10  21  35  50  72  99 126 163 209 248 289
#     4   8  15  28  46  71  99 123 154 200 247 291
#     4   9  20  35  50  69  96 131 165 202 245 292
#
# _framework density 16.430337999999999
#
# number of rings (size 3 to 8) (size 9 to 14) (size 15 to 20)
#    1.000    2.167    0.000    0.500    0.000    6.000 
#    0.000    3.333    0.000    2.000    0.000    0.000 
#    0.000    0.000    0.000    0.000    0.000    0.000 
#
# Total GULP energy -594688.749243 kJ/mol
# GULP energy per Si atom -12389.348943 kJ/mol
# Density = 1.639294 g / cm^3
# Si number density = 16.430338 Si / 1000 Ang^3
#
#
#
# Elastic Constant Matrix: (Units=GPa)
#
#
# Indices 1 2 3 4 5 6 
#
# 1 79.5782 38.9884 43.3299 0.0000 0.0000 0.0000
# 2 38.9884 69.0555 26.3578 0.0000 0.0000 0.0000
# 3 43.3299 26.3578 88.8486 0.0000 0.0000 0.0000
# 4 0.0000 0.0000 0.0000 13.0616 0.0000 0.0000
# 5 0.0000 0.0000 0.0000 0.0000 24.1572 0.0000
# 6 0.0000 0.0000 0.0000 0.0000 0.0000 13.8467
#
#
#
# Elastic Compliance Matrix: (Units=1/GPa)
#
#
# Indices 1 2 3 4 5 6 
#
# 1 0.021145 -0.009024 -0.007635 0.000000 0.000000 0.000000
# 2 -0.009024 0.020181 -0.001586 0.000000 0.000000 0.000000
# 3 -0.007635 -0.001586 0.015449 0.000000 0.000000 0.000000
# 4 0.000000 0.000000 0.000000 0.076560 0.000000 0.000000
# 5 0.000000 0.000000 0.000000 0.000000 0.041396 0.000000
# 6 0.000000 0.000000 0.000000 0.000000 0.000000 0.072219
#
#
# Mechanical properties :
#
#
# Convention : Reuss Voigt Hill
#
# Bulk Modulus (GPa) = 49.29727 50.53718 49.91722
# Shear Modulus (GPa) = 17.22939 18.80017 18.01478
#
# Velocity S-wave (km/s) = 3.24177 3.38632 3.31484
# Velocity P-wave (km/s) = 6.63936 6.79079 6.71550
#
# Compressibility (1/GPa) = 0.02028510
#
# Stress axis : x y z
#
# Youngs Moduli (GPa) = 47.29349 49.55047 64.72908
#
# Poissons Ratio (x) = 0.44714 0.49419
# Poissons Ratio (y) = 0.42678 0.10267
# Poissons Ratio (z) = 0.36108 0.07860
#
# Static dielectric constant tensor:
#      x y z
#    x 2.914250 0.000000 0.000000 
#    y 0.000000 2.724800 0.000000 
#    z 0.000000 0.000000 3.273890 
# 
# 
# High freq. dielectric constant tensor:
#      x y z
#    x 1.609820 0.000000 0.000000 
#    y 0.000000 1.593830 0.000000 
#    z 0.000000 0.000000 1.645390 
# 
# From -- ./inp_files/38645.got.cif
#   From: 2010.03.12/outbox.cif.g09.slc.cpg/sg63_20_cif.got.tgz:38645.got - 2010.04.10 19:34:48.
