data_PCOD8259974
_publ_section_title
;
Structure prediction by ZEFSAII (Michael W. Deem and Ramdas Pophale) SiO2 
 PCOD8259974
Probable space group: C M C M
;
_chemical_formula_sum "Si O2"
_cell_formula_units_Z 112
_cell_length_a 27.659755
_cell_length_b 15.023785
_cell_length_c 13.729761
_cell_angle_alpha 90.000000
_cell_angle_beta 90.000000
_cell_angle_gamma 90.000000
_cell_volume 5705.460017
_symmetry_space_group_name_H-M "C M C M"
_symmetry_group_IT_number 63
_symmetry_cell_setting 'orthorhombic'
loop_
_space_group_symop_operation_xyz
x,y,z
-x,-y,1/2+z
x,-y,-z
-x,y,1/2-z
-x,-y,-z
x,y,1/2-z
-x,y,z
x,-y,1/2+z
1/2+x,1/2+y,z
1/2-x,1/2-y,1/2+z
1/2+x,1/2-y,-z
1/2-x,1/2+y,1/2-z
1/2-x,1/2-y,-z
1/2+x,1/2+y,1/2-z
1/2-x,1/2+y,z
1/2+x,1/2-y,1/2+z
loop_
_atom_site_type_symbol
_atom_site_label
_atom_site_fract_x
_atom_site_fract_y
_atom_site_fract_z
Si Si1 0.944730 0.231259 0.139403
Si Si2 0.636523 0.752694 0.504671
Si Si3 0.281860 0.230238 0.862058
Si Si4 0.357017 0.563146 0.907334
Si Si5 0.947777 0.976304 0.612570
Si Si6 0.303139 0.865578 0.863292
Si Si7 0.747853 0.958339 0.359811
O O1 0.930866 0.260843 0.250000
O O2 0.911528 0.278258 0.056931
O O3 0.000000 0.257947 0.117121
O O4 0.936694 0.126577 0.129228
O O5 0.676692 0.724979 0.425246
O O6 0.631795 0.666343 0.572283
O O7 0.650250 0.838753 0.571464
O O8 0.298332 0.229372 0.750000
O O9 0.232332 0.282451 0.874413
O O10 0.273387 0.131482 0.907134
O O11 0.402739 0.531114 0.840725
O O12 0.305887 0.545524 0.856792
O O13 0.357043 0.500000 0.000000
O O14 0.000000 0.000014 0.661094
O O15 0.951066 0.000000 0.500000
O O16 0.318217 0.878470 0.750000
O O17 0.275356 0.952760 0.907802
O O18 0.729808 0.960510 0.250000
#
# Coordination Sequence:
#
# PCOD8259974 Si02
#       7
#    16  16  16  16  16  16  16
#     4  10  21  37  57  82 112 148 191 238 292 347
#     4  12  21  34  56  81 113 148 185 241 284 338
#     4  10  21  36  52  78 113 150 195 239 282 333
#     4  11  20  30  49  77 101 145 191 222 269 330
#     4   9  17  32  50  72 104 142 185 228 267 324
#     4  10  22  37  54  79 111 151 195 241 284 336
#     4  10  22  37  52  74 111 152 191 235 282 337
#
# _framework density 19.630320000000001
#
# number of rings (size 3 to 8) (size 9 to 14) (size 15 to 20)
#    0.000    1.714    4.286    1.714    2.000    0.571 
#    0.000    0.000    0.000    0.429    0.000    2.000 
#    0.000    3.429    0.000    0.000    0.000    0.000 
#
# Total GULP energy -693850.360185 kJ/mol
# GULP energy per Si atom -12390.185003 kJ/mol
# Density = 1.958564 g / cm^3
# Si number density = 19.630320 Si / 1000 Ang^3
#
#
#
# Elastic Constant Matrix: (Units=GPa)
#
#
# Indices 1 2 3 4 5 6 
#
# 1 118.5992 30.1906 34.7942 0.0000 0.0000 0.0000
# 2 30.1906 82.2897 20.6315 0.0000 0.0000 0.0000
# 3 34.7942 20.6315 63.7944 0.0000 0.0000 0.0000
# 4 0.0000 0.0000 0.0000 13.6963 0.0000 0.0000
# 5 0.0000 0.0000 0.0000 0.0000 9.8118 0.0000
# 6 0.0000 0.0000 0.0000 0.0000 0.0000 27.9813
#
#
#
# Elastic Compliance Matrix: (Units=1/GPa)
#
#
# Indices 1 2 3 4 5 6 
#
# 1 0.010540 -0.002640 -0.004895 0.000000 0.000000 0.000000
# 2 -0.002640 0.013886 -0.003051 0.000000 0.000000 0.000000
# 3 -0.004895 -0.003051 0.019332 0.000000 0.000000 0.000000
# 4 0.000000 0.000000 0.000000 0.073013 0.000000 0.000000
# 5 0.000000 0.000000 0.000000 0.000000 0.101918 0.000000
# 6 0.000000 0.000000 0.000000 0.000000 0.000000 0.035738
#
#
# Mechanical properties :
#
#
# Convention : Reuss Voigt Hill
#
# Bulk Modulus (GPa) = 44.27485 48.43508 46.35496
# Shear Modulus (GPa) = 17.66000 22.23566 19.94783
#
# Velocity S-wave (km/s) = 3.00264 3.36924 3.19121
# Velocity P-wave (km/s) = 5.88425 6.31371 6.10276
#
# Compressibility (1/GPa) = 0.02258619
#
# Stress axis : x y z
#
# Youngs Moduli (GPa) = 94.87914 72.01728 51.72835
#
# Poissons Ratio (x) = 0.19010 0.25320
# Poissons Ratio (y) = 0.25044 0.15782
# Poissons Ratio (z) = 0.46442 0.21972
#
# Static dielectric constant tensor:
#      x y z
#    x 4.828570 0.000000 0.000000 
#    y 0.000000 3.513420 0.000000 
#    z 0.000000 0.000000 2.943070 
# 
# 
# High freq. dielectric constant tensor:
#      x y z
#    x 1.753730 0.000000 0.000000 
#    y 0.000000 1.736910 0.000000 
#    z 0.000000 0.000000 1.773380 
# 
# From -- ./inp_files/37948.got.cif
#   From: 2010.03.12/outbox.cif.g09.slc.cpg/sg63_19_cif.got.tgz:37948.got - 2010.04.10 19:34:48.
