data_PCOD8259952
_publ_section_title
;
Structure prediction by ZEFSAII (Michael W. Deem and Ramdas Pophale) SiO2 
 PCOD8259952
Probable space group: C M C M
;
_chemical_formula_sum "Si O2"
_cell_formula_units_Z 88
_cell_length_a 28.122324
_cell_length_b 5.570453
_cell_length_c 27.832435
_cell_angle_alpha 90.000000
_cell_angle_beta 90.000000
_cell_angle_gamma 90.000000
_cell_volume 4360.064613
_symmetry_space_group_name_H-M "C M C M"
_symmetry_group_IT_number 63
_symmetry_cell_setting 'orthorhombic'
loop_
_space_group_symop_operation_xyz
x,y,z
-x,-y,1/2+z
x,-y,-z
-x,y,1/2-z
-x,-y,-z
x,y,1/2-z
-x,y,z
x,-y,1/2+z
1/2+x,1/2+y,z
1/2-x,1/2-y,1/2+z
1/2+x,1/2-y,-z
1/2-x,1/2+y,1/2-z
1/2-x,1/2-y,-z
1/2+x,1/2+y,1/2-z
1/2-x,1/2+y,z
1/2+x,1/2-y,1/2+z
loop_
_atom_site_type_symbol
_atom_site_label
_atom_site_fract_x
_atom_site_fract_y
_atom_site_fract_z
Si Si1 0.948224 0.950342 0.196381
Si Si2 0.910646 0.984887 0.553514
Si Si3 0.626564 0.270420 0.860224
Si Si4 0.722536 0.216005 0.805382
Si Si5 0.447037 0.902936 0.890313
Si Si6 0.500000 0.245774 0.528709
O O1 0.937223 0.853701 0.250000
O O2 0.950672 0.730811 0.160375
O O3 0.000000 0.082591 0.195208
O O4 0.906590 0.133232 0.182483
O O5 0.869936 0.956901 0.594534
O O6 0.949387 0.763308 0.558171
O O7 0.888216 0.000000 0.500000
O O8 0.939963 0.226617 0.564419
O O9 0.677601 0.203271 0.840128
O O10 0.601303 0.048020 0.884863
O O11 0.706364 0.213646 0.750000
O O12 0.748613 0.470058 0.816379
O O13 0.500000 0.028379 0.899566
O O14 0.500000 0.500000 0.500000
O O15 0.500000 0.000000 0.500000
#
# Coordination Sequence:
#
# PCOD8259952 Si02
#       6
#    16  16  16  16  16   8
#     4   9  19  35  51  80 125 164 200 243 300 377
#     4  10  23  36  55  86 126 172 212 259 309 364
#     4  11  23  35  62  88 118 159 208 261 316 378
#     4  10  24  46  71  97 123 155 204 267 331 389
#     4  10  21  35  54  87 124 169 213 254 302 363
#     4  10  22  36  56  84 125 176 221 258 300 354
#
# _framework density 20.183187
#
# number of rings (size 3 to 8) (size 9 to 14) (size 15 to 20)
#    0.000    2.000    0.909    1.091   12.727    1.455 
#    0.000    1.818    0.000    1.091    0.000    0.000 
#    0.000    0.000    0.000    0.000    0.000    0.000 
#
# Total GULP energy -545081.192607 kJ/mol
# GULP energy per Si atom -12388.208923 kJ/mol
# Density = 2.013725 g / cm^3
# Si number density = 20.183187 Si / 1000 Ang^3
#
#
#
# Elastic Constant Matrix: (Units=GPa)
#
#
# Indices 1 2 3 4 5 6 
#
# 1 122.5012 54.3003 56.5781 0.0000 0.0000 0.0000
# 2 54.3003 96.9263 29.2018 0.0000 0.0000 0.0000
# 3 56.5781 29.2018 134.2669 0.0000 0.0000 0.0000
# 4 0.0000 0.0000 0.0000 24.1118 0.0000 0.0000
# 5 0.0000 0.0000 0.0000 0.0000 29.9760 0.0000
# 6 0.0000 0.0000 0.0000 0.0000 0.0000 24.4781
#
#
#
# Elastic Compliance Matrix: (Units=1/GPa)
#
#
# Indices 1 2 3 4 5 6 
#
# 1 0.012628 -0.005855 -0.004048 0.000000 0.000000 0.000000
# 2 -0.005855 0.013755 -0.000524 0.000000 0.000000 0.000000
# 3 -0.004048 -0.000524 0.009268 0.000000 0.000000 0.000000
# 4 0.000000 0.000000 0.000000 0.041473 0.000000 0.000000
# 5 0.000000 0.000000 0.000000 0.000000 0.033360 0.000000
# 6 0.000000 0.000000 0.000000 0.000000 0.000000 0.040853
#
#
# Mechanical properties :
#
#
# Convention : Reuss Voigt Hill
#
# Bulk Modulus (GPa) = 67.58434 70.42830 69.00632
# Shear Modulus (GPa) = 28.22885 29.95414 29.09150
#
# Velocity S-wave (km/s) = 3.74389 3.85660 3.80066
# Velocity P-wave (km/s) = 7.22821 7.40280 7.31603
#
# Compressibility (1/GPa) = 0.01479633
#
# Stress axis : x y z
#
# Youngs Moduli (GPa) = 79.18904 72.69974 107.90265
#
# Poissons Ratio (x) = 0.42565 0.43677
# Poissons Ratio (y) = 0.46365 0.05659
# Poissons Ratio (z) = 0.32055 0.03813
#
# Static dielectric constant tensor:
#      x y z
#    x 3.407740 0.000000 0.000000 
#    y 0.000000 3.858530 0.000000 
#    z 0.000000 0.000000 3.970220 
# 
# 
# High freq. dielectric constant tensor:
#      x y z
#    x 1.744090 0.000000 0.000000 
#    y 0.000000 1.800300 0.000000 
#    z 0.000000 0.000000 1.812990 
# 
# From -- ./inp_files/74245.got.cif
#   From: 2010.03.12/outbox.cif.g09.slc.cpg/sg63_38_cif.got.tgz:74245.got - 2010.04.10 19:34:48.
