data_PCOD8259217
_publ_section_title
;
Structure prediction by ZEFSAII (Michael W. Deem and Ramdas Pophale) SiO2 
 PCOD8259217
Probable space group: C M C M
;
_chemical_formula_sum "Si O2"
_cell_formula_units_Z 104
_cell_length_a 20.223300
_cell_length_b 29.099894
_cell_length_c 8.572580
_cell_angle_alpha 90.000000
_cell_angle_beta 90.000000
_cell_angle_gamma 90.000000
_cell_volume 5044.928065
_symmetry_space_group_name_H-M "C M C M"
_symmetry_group_IT_number 63
_symmetry_cell_setting 'orthorhombic'
loop_
_space_group_symop_operation_xyz
x,y,z
-x,-y,1/2+z
x,-y,-z
-x,y,1/2-z
-x,-y,-z
x,y,1/2-z
-x,y,z
x,-y,1/2+z
1/2+x,1/2+y,z
1/2-x,1/2-y,1/2+z
1/2+x,1/2-y,-z
1/2-x,1/2+y,1/2-z
1/2-x,1/2-y,-z
1/2+x,1/2+y,1/2-z
1/2-x,1/2+y,z
1/2+x,1/2-y,1/2+z
loop_
_atom_site_type_symbol
_atom_site_label
_atom_site_fract_x
_atom_site_fract_y
_atom_site_fract_z
Si Si1 0.323047 0.707539 0.069559
Si Si2 0.126948 0.954229 0.070086
Si Si3 0.730986 0.951666 0.566380
Si Si4 0.074109 0.857158 0.427771
Si Si5 0.620936 0.108184 0.931855
Si Si6 0.326291 0.803313 0.568234
Si Si7 0.500000 0.948548 0.932929
O O1 0.320797 0.721372 0.250000
O O2 0.250373 0.690714 0.015192
O O3 0.374672 0.666776 0.042995
O O4 0.347871 0.751461 0.972038
O O5 0.146757 0.962414 0.250000
O O6 0.077177 0.912047 0.049951
O O7 0.192521 0.944197 0.970999
O O8 0.092472 0.000000 0.000000
O O9 0.718126 0.948793 0.750000
O O10 0.691730 0.911734 0.479673
O O11 0.704792 0.000000 0.500000
O O12 0.092135 0.844132 0.250000
O O13 0.000000 0.841317 0.469485
O O14 0.607187 0.103682 0.750000
O O15 0.624720 0.161896 0.978452
O O16 0.564029 0.080318 0.018934
O O17 0.335133 0.812923 0.750000
O O18 0.500000 0.954415 0.750000
O O19 0.500000 0.000000 0.000000
#
# Coordination Sequence:
#
# PCOD8259217 Si02
#       7
#    16  16  16  16  16  16   8
#     4  10  21  38  62  92 121 152 194 246 300 356
#     4  10  20  35  56  83 115 151 194 245 295 346
#     4  11  21  35  56  84 116 151 193 241 295 350
#     4  10  22  39  57  80 114 157 199 237 287 349
#     4  12  24  40  61  89 121 156 199 247 298 355
#     4  10  21  39  64  92 121 153 192 242 301 359
#     4  12  26  46  66  88 122 164 208 252 305 366
#
# _framework density 20.614764000000001
#
# number of rings (size 3 to 8) (size 9 to 14) (size 15 to 20)
#    0.000    1.385    0.000    7.154    0.000    6.154 
#    1.385    0.000    0.000    0.000    0.000    0.000 
#    0.000    0.000    0.000    0.000    0.000    0.000 
#
# Total GULP energy -644992.963697 kJ/mol
# GULP energy per Si atom -12403.710840 kJ/mol
# Density = 2.056784 g / cm^3
# Si number density = 20.614764 Si / 1000 Ang^3
#
#
#
# Elastic Constant Matrix: (Units=GPa)
#
#
# Indices 1 2 3 4 5 6 
#
# 1 65.6022 43.0031 27.8909 0.0000 0.0000 0.0000
# 2 43.0031 112.1355 40.4167 0.0000 0.0000 0.0000
# 3 27.8909 40.4167 113.3095 0.0000 0.0000 0.0000
# 4 0.0000 0.0000 0.0000 40.0249 0.0000 0.0000
# 5 0.0000 0.0000 0.0000 0.0000 24.4210 0.0000
# 6 0.0000 0.0000 0.0000 0.0000 0.0000 32.3218
#
#
#
# Elastic Compliance Matrix: (Units=1/GPa)
#
#
# Indices 1 2 3 4 5 6 
#
# 1 0.021028 -0.007113 -0.002639 0.000000 0.000000 0.000000
# 2 -0.007113 0.012639 -0.002758 0.000000 0.000000 0.000000
# 3 -0.002639 -0.002758 0.010459 0.000000 0.000000 0.000000
# 4 0.000000 0.000000 0.000000 0.024984 0.000000 0.000000
# 5 0.000000 0.000000 0.000000 0.000000 0.040948 0.000000
# 6 0.000000 0.000000 0.000000 0.000000 0.000000 0.030939
#
#
# Mechanical properties :
#
#
# Convention : Reuss Voigt Hill
#
# Bulk Modulus (GPa) = 52.33627 57.07429 54.70528
# Shear Modulus (GPa) = 29.00478 31.33598 30.17038
#
# Velocity S-wave (km/s) = 3.75506 3.90304 3.82976
# Velocity P-wave (km/s) = 6.65158 6.93238 6.79343
#
# Compressibility (1/GPa) = 0.01910721
#
# Stress axis : x y z
#
# Youngs Moduli (GPa) = 47.55581 79.11740 95.61570
#
# Poissons Ratio (x) = 0.56276 0.25231
# Poissons Ratio (y) = 0.33826 0.26367
# Poissons Ratio (z) = 0.12549 0.21817
#
# Static dielectric constant tensor:
#      x y z
#    x 3.521100 0.000000 0.000000 
#    y 0.000000 3.943470 0.000000 
#    z 0.000000 0.000000 3.761490 
# 
# 
# High freq. dielectric constant tensor:
#      x y z
#    x 1.789630 0.000000 0.000000 
#    y 0.000000 1.816090 0.000000 
#    z 0.000000 0.000000 1.815520 
# 
# From -- ./inp_files/8724.got.cif
#   From: 2010.03.12/outbox.cif.g09.slc.cpg/sg63_5_cif.got.tgz:8724.got - 2010.04.10 19:34:48.
