data_PCOD8259794
_publ_section_title
;
Structure prediction by ZEFSAII (Michael W. Deem and Ramdas Pophale) SiO2 
 PCOD8259794
Probable space group: C M C M
;
_chemical_formula_sum "Si O2"
_cell_formula_units_Z 96
_cell_length_a 9.049089
_cell_length_b 23.446601
_cell_length_c 24.933839
_cell_angle_alpha 90.000000
_cell_angle_beta 90.000000
_cell_angle_gamma 90.000000
_cell_volume 5290.222075
_symmetry_space_group_name_H-M "C M C M"
_symmetry_group_IT_number 63
_symmetry_cell_setting 'orthorhombic'
loop_
_space_group_symop_operation_xyz
x,y,z
-x,-y,1/2+z
x,-y,-z
-x,y,1/2-z
-x,-y,-z
x,y,1/2-z
-x,y,z
x,-y,1/2+z
1/2+x,1/2+y,z
1/2-x,1/2-y,1/2+z
1/2+x,1/2-y,-z
1/2-x,1/2+y,1/2-z
1/2-x,1/2-y,-z
1/2+x,1/2+y,1/2-z
1/2-x,1/2+y,z
1/2+x,1/2-y,1/2+z
loop_
_atom_site_type_symbol
_atom_site_label
_atom_site_fract_x
_atom_site_fract_y
_atom_site_fract_z
Si Si1 0.827474 0.383461 0.592497
Si Si2 0.170445 0.694917 0.310512
Si Si3 0.329467 0.619398 0.603160
Si Si4 0.171701 0.994858 0.561742
Si Si5 0.326897 0.809357 0.188449
Si Si6 0.325242 0.689199 0.498247
O O1 0.797500 0.359256 0.652007
O O2 0.770182 0.447983 0.591534
O O3 0.735527 0.345890 0.551424
O O4 0.000000 0.381133 0.577554
O O5 0.218493 0.678364 0.250000
O O6 0.260175 0.749509 0.331873
O O7 0.000000 0.712740 0.313035
O O8 0.500000 0.629627 0.616430
O O9 0.296318 0.553482 0.592117
O O10 0.235200 0.638243 0.654254
O O11 0.281334 0.655856 0.551844
O O12 0.000000 0.977151 0.564579
O O13 0.221043 0.000000 0.500000
O O14 0.282370 0.820273 0.250000
O O15 0.500000 0.806006 0.180213
O O16 0.500000 0.696019 0.492216
O O17 0.250000 0.750000 0.500000
#
# Coordination Sequence:
#
# PCOD8259794 Si02
#       6
#    16  16  16  16  16  16
#     4  11  22  35  55  84 111 142 184 228 276 330
#     4   9  19  37  58  79 109 148 184 219 268 330
#     4  10  21  37  57  78 106 146 187 221 268 330
#     4  10  20  39  59  77 106 148 187 226 273 322
#     4  10  21  36  56  84 114 142 178 228 279 320
#     4  11  22  36  53  79 113 145 178 225 278 330
#
# _framework density 18.146685999999999
#
# number of rings (size 3 to 8) (size 9 to 14) (size 15 to 20)
#    0.000    1.833    1.667    2.500    0.000    8.667 
#    0.000    0.833    0.000    3.000    0.000    0.000 
#    0.000    0.000    0.000    0.000    0.000    0.000 
#
# Total GULP energy -595415.800824 kJ/mol
# GULP energy per Si atom -12404.495850 kJ/mol
# Density = 1.810538 g / cm^3
# Si number density = 18.146686 Si / 1000 Ang^3
#
#
#
# Elastic Constant Matrix: (Units=GPa)
#
#
# Indices 1 2 3 4 5 6 
#
# 1 68.2710 45.3775 48.6250 0.0000 0.0000 0.0000
# 2 45.3775 115.8377 59.4453 0.0000 0.0000 0.0000
# 3 48.6250 59.4453 99.0639 0.0000 0.0000 0.0000
# 4 0.0000 0.0000 0.0000 22.2884 0.0000 0.0000
# 5 0.0000 0.0000 0.0000 0.0000 30.7785 0.0000
# 6 0.0000 0.0000 0.0000 0.0000 0.0000 37.1417
#
#
#
# Elastic Compliance Matrix: (Units=1/GPa)
#
#
# Indices 1 2 3 4 5 6 
#
# 1 0.024313 -0.004913 -0.008986 0.000000 0.000000 0.000000
# 2 -0.004913 0.013467 -0.005670 0.000000 0.000000 0.000000
# 3 -0.008986 -0.005670 0.017907 0.000000 0.000000 0.000000
# 4 0.000000 0.000000 0.000000 0.044866 0.000000 0.000000
# 5 0.000000 0.000000 0.000000 0.000000 0.032490 0.000000
# 6 0.000000 0.000000 0.000000 0.000000 0.000000 0.026924
#
#
# Mechanical properties :
#
#
# Convention : Reuss Voigt Hill
#
# Bulk Modulus (GPa) = 60.42112 65.56314 62.99213
# Shear Modulus (GPa) = 24.43543 26.69003 25.56273
#
# Velocity S-wave (km/s) = 3.67352 3.83925 3.75730
# Velocity P-wave (km/s) = 7.16667 7.47403 7.32197
#
# Compressibility (1/GPa) = 0.01655050
#
# Stress axis : x y z
#
# Youngs Moduli (GPa) = 41.13035 74.25658 55.84321
#
# Poissons Ratio (x) = 0.36481 0.50180
# Poissons Ratio (y) = 0.20207 0.31661
# Poissons Ratio (z) = 0.36959 0.42100
#
# Static dielectric constant tensor:
#      x y z
#    x 3.356730 0.000000 0.000000 
#    y 0.000000 3.208680 0.000000 
#    z 0.000000 0.000000 3.455240 
# 
# 
# High freq. dielectric constant tensor:
#      x y z
#    x 1.708320 0.000000 0.000000 
#    y 0.000000 1.704760 0.000000 
#    z 0.000000 0.000000 1.703170 
# 
# From -- ./inp_files/59853.got.cif
#   From: 2010.03.12/outbox.cif.g09.slc.cpg/sg63_30_cif.got.tgz:59853.got - 2010.04.10 19:34:48.
