data_PCOD8259170
_publ_section_title
;
Structure prediction by ZEFSAII (Michael W. Deem and Ramdas Pophale) SiO2 
 PCOD8259170
Probable space group: C M C M
;
_chemical_formula_sum "Si O2"
_cell_formula_units_Z 96
_cell_length_a 21.581324
_cell_length_b 9.743188
_cell_length_c 25.132921
_cell_angle_alpha 90.000000
_cell_angle_beta 90.000000
_cell_angle_gamma 90.000000
_cell_volume 5284.721843
_symmetry_space_group_name_H-M "C M C M"
_symmetry_group_IT_number 63
_symmetry_cell_setting 'orthorhombic'
loop_
_space_group_symop_operation_xyz
x,y,z
-x,-y,1/2+z
x,-y,-z
-x,y,1/2-z
-x,-y,-z
x,y,1/2-z
-x,y,z
x,-y,1/2+z
1/2+x,1/2+y,z
1/2-x,1/2-y,1/2+z
1/2+x,1/2-y,-z
1/2-x,1/2+y,1/2-z
1/2-x,1/2-y,-z
1/2+x,1/2+y,1/2-z
1/2-x,1/2+y,z
1/2+x,1/2-y,1/2+z
loop_
_atom_site_type_symbol
_atom_site_label
_atom_site_fract_x
_atom_site_fract_y
_atom_site_fract_z
Si Si1 0.626490 0.227128 0.422897
Si Si2 0.310043 0.089138 0.811756
Si Si3 0.429658 0.984671 0.131418
Si Si4 0.751623 0.153180 0.371164
Si Si5 0.141156 0.972444 0.559773
Si Si6 0.929148 0.287716 0.465955
O O1 0.698635 0.200498 0.411829
O O2 0.611581 0.388536 0.416014
O O3 0.613127 0.179397 0.483189
O O4 0.584120 0.144569 0.380803
O O5 0.301318 0.118491 0.750000
O O6 0.383287 0.074349 0.824220
O O7 0.281572 0.215436 0.843684
O O8 0.275224 0.948741 0.826620
O O9 0.500000 0.966283 0.151936
O O10 0.417306 0.906284 0.076413
O O11 0.801689 0.072758 0.405015
O O12 0.087652 0.858115 0.560423
O O13 0.165417 0.000000 0.500000
O O14 0.000000 0.283621 0.484859
#
# Coordination Sequence:
#
# PCOD8259170 Si02
#       6
#    16  16  16  16  16  16
#     4  10  21  33  55  81 117 151 182 227 274 335
#     4  11  23  39  62  83 107 146 191 245 293 331
#     4  10  21  37  58  84 113 147 189 232 281 336
#     4  11  21  39  56  84 115 144 190 234 289 340
#     4  10  21  34  53  83 116 153 185 222 274 339
#     4  10  20  35  55  82 116 154 191 221 268 341
#
# _framework density 18.165572999999998
#
# number of rings (size 3 to 8) (size 9 to 14) (size 15 to 20)
#    0.000    1.667    3.333    1.500    0.000   10.667 
#    0.000    0.000    0.000    0.000    0.000    0.000 
#    0.000    0.000    0.000    0.000    0.000    0.000 
#
# Total GULP energy -595265.787795 kJ/mol
# GULP energy per Si atom -12401.370579 kJ/mol
# Density = 1.812423 g / cm^3
# Si number density = 18.165573 Si / 1000 Ang^3
#
#
#
# Elastic Constant Matrix: (Units=GPa)
#
#
# Indices 1 2 3 4 5 6 
#
# 1 89.0651 39.4804 49.8559 0.0000 0.0000 0.0000
# 2 39.4804 99.5417 27.3404 0.0000 0.0000 0.0000
# 3 49.8559 27.3404 70.1373 0.0000 0.0000 0.0000
# 4 0.0000 0.0000 0.0000 19.3802 0.0000 0.0000
# 5 0.0000 0.0000 0.0000 0.0000 18.6984 0.0000
# 6 0.0000 0.0000 0.0000 0.0000 0.0000 22.5597
#
#
#
# Elastic Compliance Matrix: (Units=1/GPa)
#
#
# Indices 1 2 3 4 5 6 
#
# 1 0.020365 -0.004593 -0.012685 0.000000 0.000000 0.000000
# 2 -0.004593 0.012286 -0.001525 0.000000 0.000000 0.000000
# 3 -0.012685 -0.001525 0.023869 0.000000 0.000000 0.000000
# 4 0.000000 0.000000 0.000000 0.051599 0.000000 0.000000
# 5 0.000000 0.000000 0.000000 0.000000 0.053481 0.000000
# 6 0.000000 0.000000 0.000000 0.000000 0.000000 0.044327
#
#
# Mechanical properties :
#
#
# Convention : Reuss Voigt Hill
#
# Bulk Modulus (GPa) = 52.86975 54.67750 53.77363
# Shear Modulus (GPa) = 20.01299 21.59880 20.80590
#
# Velocity S-wave (km/s) = 3.32279 3.45192 3.38797
# Velocity P-wave (km/s) = 6.62486 6.78620 6.70602
#
# Compressibility (1/GPa) = 0.01891441
#
# Stress axis : x y z
#
# Youngs Moduli (GPa) = 49.10482 81.39064 41.89473
#
# Poissons Ratio (x) = 0.37381 0.53146
# Poissons Ratio (y) = 0.22553 0.06388
# Poissons Ratio (z) = 0.62292 0.12409
#
# Static dielectric constant tensor:
#      x y z
#    x 3.378400 0.000000 0.000000 
#    y 0.000000 3.643510 0.000000 
#    z 0.000000 0.000000 3.102490 
# 
# 
# High freq. dielectric constant tensor:
#      x y z
#    x 1.705040 0.000000 0.000000 
#    y 0.000000 1.723880 0.000000 
#    z 0.000000 0.000000 1.678670 
# 
# From -- ./inp_files/64972.got.cif
#   From: 2010.03.12/outbox.cif.g09.slc.cpg/sg63_33_cif.got.tgz:64972.got - 2010.04.10 19:34:48.
