data_PCOD8259605
_publ_section_title
;
Structure prediction by ZEFSAII (Michael W. Deem and Ramdas Pophale) SiO2 
 PCOD8259605
Probable space group: C M C M
;
_chemical_formula_sum "Si O2"
_cell_formula_units_Z 96
_cell_length_a 24.939301
_cell_length_b 12.825329
_cell_length_c 16.143238
_cell_angle_alpha 90.000000
_cell_angle_beta 90.000000
_cell_angle_gamma 90.000000
_cell_volume 5163.491199
_symmetry_space_group_name_H-M "C M C M"
_symmetry_group_IT_number 63
_symmetry_cell_setting 'orthorhombic'
loop_
_space_group_symop_operation_xyz
x,y,z
-x,-y,1/2+z
x,-y,-z
-x,y,1/2-z
-x,-y,-z
x,y,1/2-z
-x,y,z
x,-y,1/2+z
1/2+x,1/2+y,z
1/2-x,1/2-y,1/2+z
1/2+x,1/2-y,-z
1/2-x,1/2+y,1/2-z
1/2-x,1/2-y,-z
1/2+x,1/2+y,1/2-z
1/2-x,1/2+y,z
1/2+x,1/2-y,1/2+z
loop_
_atom_site_type_symbol
_atom_site_label
_atom_site_fract_x
_atom_site_fract_y
_atom_site_fract_z
Si Si1 0.135796 0.409806 0.442655
Si Si2 0.198827 0.268794 0.943716
Si Si3 0.941251 0.959427 0.906862
Si Si4 0.561156 0.766548 0.155594
Si Si5 0.668063 0.542359 0.906470
Si Si6 0.723225 0.965574 0.655961
O O1 0.109092 0.500000 0.500000
O O2 0.151471 0.313149 0.499889
O O3 0.094518 0.366466 0.375367
O O4 0.189610 0.455026 0.400629
O O5 0.177108 0.164969 0.901687
O O6 0.212843 0.346872 0.869563
O O7 0.250000 0.250000 0.000000
O O8 0.929445 0.835586 0.901202
O O9 0.000000 0.982185 0.864385
O O10 0.890335 0.017728 0.865363
O O11 0.944538 0.000000 0.000000
O O12 0.577934 0.740149 0.250000
O O13 0.500000 0.802737 0.150894
O O14 0.713671 0.486529 0.853095
O O15 0.670896 0.500000 0.000000
O O16 0.705093 0.981177 0.750000
#
# Coordination Sequence:
#
# PCOD8259605 Si02
#       6
#    16  16  16  16  16  16
#     4  10  20  37  58  79 110 151 186 225 279 333
#     4  11  20  37  55  77 110 148 182 225 270 332
#     4   9  19  34  54  80 109 141 180 222 269 331
#     4  10  21  37  58  87 117 144 184 239 286 323
#     4  11  19  34  56  76 104 143 179 217 273 330
#     4  11  23  35  51  81 113 140 182 230 276 329
#
# _framework density 18.592072999999999
#
# number of rings (size 3 to 8) (size 9 to 14) (size 15 to 20)
#    0.000    1.667    3.333    3.000    0.000    1.667 
#    0.000    0.000    0.000    1.000    0.000    0.000 
#    0.000    0.000    0.000    0.000    0.000    0.000 
#
# Total GULP energy -595055.488159 kJ/mol
# GULP energy per Si atom -12396.989337 kJ/mol
# Density = 1.854976 g / cm^3
# Si number density = 18.592073 Si / 1000 Ang^3
#
#
#
# Elastic Constant Matrix: (Units=GPa)
#
#
# Indices 1 2 3 4 5 6 
#
# 1 124.3842 65.3097 23.7854 0.0000 0.0000 0.0000
# 2 65.3097 116.4538 31.1812 0.0000 0.0000 0.0000
# 3 23.7854 31.1812 73.7717 0.0000 0.0000 0.0000
# 4 0.0000 0.0000 0.0000 23.2941 0.0000 0.0000
# 5 0.0000 0.0000 0.0000 0.0000 1033.9633 0.0000
# 6 0.0000 0.0000 0.0000 0.0000 0.0000 30.3816
#
#
#
# Elastic Compliance Matrix: (Units=1/GPa)
#
#
# Indices 1 2 3 4 5 6 
#
# 1 0.011474 -0.006139 -0.001105 0.000000 0.000000 0.000000
# 2 -0.006139 0.012968 -0.003502 0.000000 0.000000 0.000000
# 3 -0.001105 -0.003502 0.015392 0.000000 0.000000 0.000000
# 4 0.000000 0.000000 0.000000 0.042929 0.000000 0.000000
# 5 0.000000 0.000000 0.000000 0.000000 0.000967 0.000000
# 6 0.000000 0.000000 0.000000 0.000000 0.000000 0.032915
#
#
# Mechanical properties :
#
#
# Convention : Reuss Voigt Hill
#
# Bulk Modulus (GPa) = 54.51840 61.68472 58.10156
# Shear Modulus (GPa) = 34.66199 230.48335 132.57267
#
# Velocity S-wave (km/s) = 4.32249 11.14620 8.45345
# Velocity P-wave (km/s) = 7.36878 14.10320 11.25165
#
# Compressibility (1/GPa) = 0.01834243
#
# Stress axis : x y z
#
# Youngs Moduli (GPa) = 87.15078 77.11449 64.97068
#
# Poissons Ratio (x) = 0.47343 0.07177
# Poissons Ratio (y) = 0.53504 0.22751
# Poissons Ratio (z) = 0.09627 0.27003
#
# Static dielectric constant tensor:
#      x y z
#    x 3.777510 0.000000 0.000000 
#    y 0.000000 3.640690 0.000000 
#    z 0.000000 0.000000 3.243510 
# 
# 
# High freq. dielectric constant tensor:
#      x y z
#    x 1.725780 0.000000 0.000000 
#    y 0.000000 1.725160 0.000000 
#    z 0.000000 0.000000 1.701570 
# 
# From -- ./inp_files/48956.got.cif
#   From: 2010.03.12/outbox.cif.g09.slc.cpg/sg63_25_cif.got.tgz:48956.got - 2010.04.10 19:34:48.
