data_PCOD8259800
_publ_section_title
;
Structure prediction by ZEFSAII (Michael W. Deem and Ramdas Pophale) SiO2 
 PCOD8259800
Probable space group: C M C M
;
_chemical_formula_sum "Si O2"
_cell_formula_units_Z 80
_cell_length_a 9.230117
_cell_length_b 24.931939
_cell_length_c 18.427725
_cell_angle_alpha 90.000000
_cell_angle_beta 90.000000
_cell_angle_gamma 90.000000
_cell_volume 4240.674945
_symmetry_space_group_name_H-M "C M C M"
_symmetry_group_IT_number 63
_symmetry_cell_setting 'orthorhombic'
loop_
_space_group_symop_operation_xyz
x,y,z
-x,-y,1/2+z
x,-y,-z
-x,y,1/2-z
-x,-y,-z
x,y,1/2-z
-x,y,z
x,-y,1/2+z
1/2+x,1/2+y,z
1/2-x,1/2-y,1/2+z
1/2+x,1/2-y,-z
1/2-x,1/2+y,1/2-z
1/2-x,1/2-y,-z
1/2+x,1/2+y,1/2-z
1/2-x,1/2+y,z
1/2+x,1/2-y,1/2+z
loop_
_atom_site_type_symbol
_atom_site_label
_atom_site_fract_x
_atom_site_fract_y
_atom_site_fract_z
Si Si1 0.829992 0.837931 0.088010
Si Si2 0.169008 0.020652 0.079244
Si Si3 0.332349 0.355220 0.923268
Si Si4 0.829955 0.269754 0.667010
Si Si5 0.830868 0.434378 0.165327
O O1 0.777601 0.782566 0.123549
O O2 0.742756 0.885809 0.123612
O O3 0.000000 0.848914 0.100632
O O4 0.791696 0.834905 0.003374
O O5 0.208814 0.082819 0.085238
O O6 0.000000 0.009661 0.093369
O O7 0.261514 0.990195 0.139751
O O8 0.213896 0.000000 0.000000
O O9 0.500000 0.345538 0.907315
O O10 0.243175 0.322625 0.864305
O O11 0.782230 0.262442 0.750000
O O12 0.000000 0.277413 0.659137
O O13 0.800771 0.427303 0.250000
O O14 0.000000 0.434919 0.147097
#
# Coordination Sequence:
#
# PCOD8259800 Si02
#       5
#    16  16  16  16  16
#     4  10  20  39  63  85 113 152 198 241 285 344
#     4  10  20  39  62  84 113 150 195 240 283 341
#     4  10  21  37  61  88 113 147 194 243 289 340
#     4  10  22  38  57  84 118 156 194 234 288 348
#     4  11  24  38  56  88 123 153 190 238 293 345
#
# _framework density 18.864922
#
# number of rings (size 3 to 8) (size 9 to 14) (size 15 to 20)
#    0.000    1.800    2.000    1.800    0.000    6.400 
#    0.000    4.000    0.000    0.000    0.000    0.000 
#    0.000    0.000    0.000    0.000    0.000    0.000 
#
# Total GULP energy -496222.517641 kJ/mol
# GULP energy per Si atom -12405.562941 kJ/mol
# Density = 1.882198 g / cm^3
# Si number density = 18.864922 Si / 1000 Ang^3
#
#
#
# Elastic Constant Matrix: (Units=GPa)
#
#
# Indices 1 2 3 4 5 6 
#
# 1 50.6428 41.8543 37.6714 0.0000 0.0000 0.0000
# 2 41.8543 127.8361 52.5477 0.0000 0.0000 0.0000
# 3 37.6714 52.5477 66.6509 0.0000 0.0000 0.0000
# 4 0.0000 0.0000 0.0000 -111.7745 0.0000 0.0000
# 5 0.0000 0.0000 0.0000 0.0000 34.7434 0.0000
# 6 0.0000 0.0000 0.0000 0.0000 0.0000 30.5061
#
#
#
# Elastic Compliance Matrix: (Units=1/GPa)
#
#
# Indices 1 2 3 4 5 6 
#
# 1 0.036178 -0.005089 -0.016436 0.000000 0.000000 0.000000
# 2 -0.005089 0.012289 -0.006812 0.000000 0.000000 0.000000
# 3 -0.016436 -0.006812 0.029664 0.000000 0.000000 0.000000
# 4 0.000000 0.000000 0.000000 -0.008947 0.000000 0.000000
# 5 0.000000 0.000000 0.000000 0.000000 0.028782 0.000000
# 6 0.000000 0.000000 0.000000 0.000000 0.000000 0.032780
#
#
# Mechanical properties :
#
#
# Convention : Reuss Voigt Hill
#
# Bulk Modulus (GPa) = 46.60540 56.58629 51.59584
# Shear Modulus (GPa) = 25.69720 -1.76791 11.96464
#
# Velocity S-wave (km/s) = 3.69476 -0.96911 2.52112
# Velocity P-wave (km/s) = 6.55440 5.36734 5.99035
#
# Compressibility (1/GPa) = 0.02145674
#
# Stress axis : x y z
#
# Youngs Moduli (GPa) = 27.64109 81.37442 33.71076
#
# Poissons Ratio (x) = 0.41410 0.55407
# Poissons Ratio (y) = 0.14066 0.22965
# Poissons Ratio (z) = 0.45431 0.55435
#
# Static dielectric constant tensor:
#      x y z
#    x 3.377830 0.000000 0.000000 
#    y 0.000000 3.607740 0.000000 
#    z 0.000000 0.000000 3.838340 
# 
# 
# High freq. dielectric constant tensor:
#      x y z
#    x 1.725980 0.000000 0.000000 
#    y 0.000000 1.746740 0.000000 
#    z 0.000000 0.000000 1.740400 
# 
# From -- ./inp_files/40457.got.cif
#   From: 2010.03.12/outbox.cif.g09.slc.cpg/sg63_21_cif.got.tgz:40457.got - 2010.04.10 19:34:48.
