data_PCOD8259284
_publ_section_title
;
Structure prediction by ZEFSAII (Michael W. Deem and Ramdas Pophale) SiO2 
 PCOD8259284
Probable space group: C M C M
;
_chemical_formula_sum "Si O2"
_cell_formula_units_Z 96
_cell_length_a 12.314086
_cell_length_b 22.151718
_cell_length_c 17.864598
_cell_angle_alpha 90.000000
_cell_angle_beta 90.000000
_cell_angle_gamma 90.000000
_cell_volume 4873.072181
_symmetry_space_group_name_H-M "C M C M"
_symmetry_group_IT_number 63
_symmetry_cell_setting 'orthorhombic'
loop_
_space_group_symop_operation_xyz
x,y,z
-x,-y,1/2+z
x,-y,-z
-x,y,1/2-z
-x,-y,-z
x,y,1/2-z
-x,y,z
x,-y,1/2+z
1/2+x,1/2+y,z
1/2-x,1/2-y,1/2+z
1/2+x,1/2-y,-z
1/2-x,1/2+y,1/2-z
1/2-x,1/2-y,-z
1/2+x,1/2+y,1/2-z
1/2-x,1/2+y,z
1/2+x,1/2-y,1/2+z
loop_
_atom_site_type_symbol
_atom_site_label
_atom_site_fract_x
_atom_site_fract_y
_atom_site_fract_z
Si Si1 0.620406 0.560675 0.596103
Si Si2 0.121161 0.080242 0.071984
Si Si3 0.834634 0.409179 0.336185
Si Si4 0.000000 0.503690 0.911367
Si Si5 0.120318 0.276506 0.161883
Si Si6 0.500000 0.873889 0.836753
Si Si7 0.266096 0.168856 0.162024
O O1 0.500000 0.581478 0.620965
O O2 0.649405 0.588903 0.515321
O O3 0.625721 0.489192 0.593121
O O4 0.705158 0.584414 0.657156
O O5 0.209730 0.112999 0.121929
O O6 0.000000 0.105381 0.088556
O O7 0.870598 0.415400 0.250000
O O8 0.893035 0.461279 0.383672
O O9 0.866206 0.343969 0.370505
O O10 0.000000 0.435634 0.882236
O O11 0.000000 0.500000 0.000000
O O12 0.135504 0.281463 0.250000
O O13 0.212327 0.230832 0.130544
O O14 0.000000 0.252229 0.140727
O O15 0.500000 0.892157 0.750000
O O16 0.394478 0.833181 0.856315
O O17 0.243765 0.162197 0.250000
#
# Coordination Sequence:
#
# PCOD8259284 Si02
#       7
#    16  16  16   8  16   8  16
#     4   9  20  36  55  83 119 154 188 236 303 361
#     4   9  18  34  56  80 115 152 189 242 296 349
#     4  11  22  39  62  88 119 154 200 251 296 351
#     4  12  26  38  64  92 122 162 201 249 305 366
#     4   9  18  36  59  84 114 151 201 252 294 344
#     4  10  22  38  56  88 128 158 192 246 311 366
#     4  10  20  35  58  85 116 156 200 247 302 365
#
# _framework density 19.700099000000002
#
# number of rings (size 3 to 8) (size 9 to 14) (size 15 to 20)
#    0.000    2.167    0.833    3.250    4.667    3.333 
#    1.500    2.500    0.000    0.000    0.000    0.000 
#    0.000    0.000    0.000    0.000    0.000    0.000 
#
# Total GULP energy -595118.120191 kJ/mol
# GULP energy per Si atom -12398.294171 kJ/mol
# Density = 1.965526 g / cm^3
# Si number density = 19.700099 Si / 1000 Ang^3
#
#
#
# Elastic Constant Matrix: (Units=GPa)
#
#
# Indices 1 2 3 4 5 6 
#
# 1 147.6339 55.7433 38.9214 0.0000 0.0000 0.0000
# 2 55.7433 89.5282 32.4285 0.0000 0.0000 0.0000
# 3 38.9214 32.4285 58.2932 0.0000 0.0000 0.0000
# 4 0.0000 0.0000 0.0000 8.0920 0.0000 0.0000
# 5 0.0000 0.0000 0.0000 0.0000 28.5017 0.0000
# 6 0.0000 0.0000 0.0000 0.0000 0.0000 33.3331
#
#
#
# Elastic Compliance Matrix: (Units=1/GPa)
#
#
# Indices 1 2 3 4 5 6 
#
# 1 0.009489 -0.004525 -0.003818 0.000000 0.000000 0.000000
# 2 -0.004525 0.016146 -0.005961 0.000000 0.000000 0.000000
# 3 -0.003818 -0.005961 0.023020 0.000000 0.000000 0.000000
# 4 0.000000 0.000000 0.000000 0.123578 0.000000 0.000000
# 5 0.000000 0.000000 0.000000 0.000000 0.035086 0.000000
# 6 0.000000 0.000000 0.000000 0.000000 0.000000 0.030000
#
#
# Mechanical properties :
#
#
# Convention : Reuss Voigt Hill
#
# Bulk Modulus (GPa) = 49.88318 61.07130 55.47724
# Shear Modulus (GPa) = 18.34125 25.20949 21.77537
#
# Velocity S-wave (km/s) = 3.05458 3.58112 3.32828
# Velocity P-wave (km/s) = 6.14954 6.94025 6.55682
#
# Compressibility (1/GPa) = 0.02004684
#
# Stress axis : x y z
#
# Youngs Moduli (GPa) = 105.38920 61.93417 43.44041
#
# Poissons Ratio (x) = 0.28025 0.16586
# Poissons Ratio (y) = 0.47688 0.25894
# Poissons Ratio (z) = 0.40240 0.36918
#
# Static dielectric constant tensor:
#      x y z
#    x 4.170300 0.000000 0.000000 
#    y 0.000000 3.580300 0.000000 
#    z 0.000000 0.000000 3.342410 
# 
# 
# High freq. dielectric constant tensor:
#      x y z
#    x 1.784730 0.000000 0.000000 
#    y 0.000000 1.759030 0.000000 
#    z 0.000000 0.000000 1.740770 
# 
# From -- ./inp_files/52931.got.cif
#   From: 2010.03.12/outbox.cif.g09.slc.cpg/sg63_27_cif.got.tgz:52931.got - 2010.04.10 19:34:48.
