data_PCOD8259759
_publ_section_title
;
Structure prediction by ZEFSAII (Michael W. Deem and Ramdas Pophale) SiO2 
 PCOD8259759
Probable space group: C M C M
;
_chemical_formula_sum "Si O2"
_cell_formula_units_Z 64
_cell_length_a 8.255633
_cell_length_b 30.722373
_cell_length_c 12.172183
_cell_angle_alpha 90.000000
_cell_angle_beta 90.000000
_cell_angle_gamma 90.000000
_cell_volume 3087.262865
_symmetry_space_group_name_H-M "C M C M"
_symmetry_group_IT_number 63
_symmetry_cell_setting 'orthorhombic'
loop_
_space_group_symop_operation_xyz
x,y,z
-x,-y,1/2+z
x,-y,-z
-x,y,1/2-z
-x,-y,-z
x,y,1/2-z
-x,y,z
x,-y,1/2+z
1/2+x,1/2+y,z
1/2-x,1/2-y,1/2+z
1/2+x,1/2-y,-z
1/2-x,1/2+y,1/2-z
1/2-x,1/2-y,-z
1/2+x,1/2+y,1/2-z
1/2-x,1/2+y,z
1/2+x,1/2-y,1/2+z
loop_
_atom_site_type_symbol
_atom_site_label
_atom_site_fract_x
_atom_site_fract_y
_atom_site_fract_z
Si Si1 0.311145 0.703171 0.966835
Si Si2 0.317470 0.166799 0.750000
Si Si3 0.192164 0.950391 0.481821
Si Si4 0.817053 0.076732 0.750000
Si Si5 0.310488 0.871778 0.876866
O O1 0.500000 0.704072 0.939012
O O2 0.208689 0.694823 0.857985
O O3 0.250000 0.750000 0.000000
O O4 0.281173 0.666709 0.059562
O O5 0.500000 0.148077 0.750000
O O6 0.186619 0.128568 0.750000
O O7 0.266716 0.939785 0.361699
O O8 0.271076 0.919011 0.572202
O O9 0.000000 0.942924 0.486136
O O10 0.241888 0.000000 0.500000
O O11 0.000000 0.059460 0.750000
O O12 0.253603 0.871771 0.750000
O O13 0.500000 0.862756 0.886471
#
# Coordination Sequence:
#
# PCOD8259759 Si02
#       5
#    16   8  16   8  16
#     4  12  26  45  69  97 130 169 216 267 321 384
#     4  12  24  42  68  97 130 169 214 264 323 383
#     4  10  22  39  64  95 128 168 215 267 322 385
#     4  10  20  38  62  93 128 165 214 268 319 375
#     4  11  25  44  64  92 131 170 213 267 324 386
#
# _framework density 20.730336999999999
#
# number of rings (size 3 to 8) (size 9 to 14) (size 15 to 20)
#    0.000    1.000    2.500    4.125    3.500    2.500 
#    0.000    0.000    0.000    0.000    0.000    0.000 
#    0.000    0.000    0.000    0.000    0.000    0.000 
#
# Total GULP energy -396838.621037 kJ/mol
# GULP energy per Si atom -12401.206907 kJ/mol
# Density = 2.068315 g / cm^3
# Si number density = 20.730337 Si / 1000 Ang^3
#
#
#
# Elastic Constant Matrix: (Units=GPa)
#
#
# Indices 1 2 3 4 5 6 
#
# 1 69.4625 10.6587 21.1329 0.0000 0.0000 0.0000
# 2 10.6587 150.4791 67.2774 0.0000 0.0000 0.0000
# 3 21.1329 67.2774 181.9214 0.0000 0.0000 0.0000
# 4 0.0000 0.0000 0.0000 37.4593 0.0000 0.0000
# 5 0.0000 0.0000 0.0000 0.0000 31.8707 0.0000
# 6 0.0000 0.0000 0.0000 0.0000 0.0000 31.3317
#
#
#
# Elastic Compliance Matrix: (Units=1/GPa)
#
#
# Indices 1 2 3 4 5 6 
#
# 1 0.014938 -0.000338 -0.001610 0.000000 0.000000 0.000000
# 2 -0.000338 0.007970 -0.002908 0.000000 0.000000 0.000000
# 3 -0.001610 -0.002908 0.006759 0.000000 0.000000 0.000000
# 4 0.000000 0.000000 0.000000 0.026696 0.000000 0.000000
# 5 0.000000 0.000000 0.000000 0.000000 0.031377 0.000000
# 6 0.000000 0.000000 0.000000 0.000000 0.000000 0.031917
#
#
# Mechanical properties :
#
#
# Convention : Reuss Voigt Hill
#
# Bulk Modulus (GPa) = 50.11482 66.66677 58.39079
# Shear Modulus (GPa) = 36.75930 40.31861 38.53895
#
# Velocity S-wave (km/s) = 4.21552 4.41490 4.31636
# Velocity P-wave (km/s) = 6.92252 7.63002 7.28487
#
# Compressibility (1/GPa) = 0.01995418
#
# Stress axis : x y z
#
# Youngs Moduli (GPa) = 66.94319 125.47820 147.94344
#
# Poissons Ratio (x) = 0.04243 0.23822
# Poissons Ratio (y) = 0.02264 0.43021
# Poissons Ratio (z) = 0.10779 0.36489
#
# Static dielectric constant tensor:
#      x y z
#    x 3.695920 0.000000 0.000000 
#    y 0.000000 3.748990 0.000000 
#    z 0.000000 0.000000 3.647840 
# 
# 
# High freq. dielectric constant tensor:
#      x y z
#    x 1.807390 0.000000 0.000000 
#    y 0.000000 1.818470 0.000000 
#    z 0.000000 0.000000 1.830820 
# 
# From -- ./inp_files/16246.got.cif
#   From: 2010.03.12/outbox.cif.g09.slc.cpg/sg63_9_cif.got.tgz:16246.got - 2010.04.10 19:34:48.
