data_PCOD8259934
_publ_section_title
;
Structure prediction by ZEFSAII (Michael W. Deem and Ramdas Pophale) SiO2 
 PCOD8259934
Probable space group: C M C M
;
_chemical_formula_sum "Si O2"
_cell_formula_units_Z 96
_cell_length_a 20.063274
_cell_length_b 27.907957
_cell_length_c 8.830055
_cell_angle_alpha 90.000000
_cell_angle_beta 90.000000
_cell_angle_gamma 90.000000
_cell_volume 4944.168441
_symmetry_space_group_name_H-M "C M C M"
_symmetry_group_IT_number 63
_symmetry_cell_setting 'orthorhombic'
loop_
_space_group_symop_operation_xyz
x,y,z
-x,-y,1/2+z
x,-y,-z
-x,y,1/2-z
-x,-y,-z
x,y,1/2-z
-x,y,z
x,-y,1/2+z
1/2+x,1/2+y,z
1/2-x,1/2-y,1/2+z
1/2+x,1/2-y,-z
1/2-x,1/2+y,1/2-z
1/2-x,1/2-y,-z
1/2+x,1/2+y,1/2-z
1/2-x,1/2+y,z
1/2+x,1/2-y,1/2+z
loop_
_atom_site_type_symbol
_atom_site_label
_atom_site_fract_x
_atom_site_fract_y
_atom_site_fract_z
Si Si1 0.693848 0.550836 0.429430
Si Si2 0.806040 0.615192 0.570968
Si Si3 0.424048 0.704062 0.074095
Si Si4 0.074483 0.450879 0.072264
Si Si5 0.188329 0.723864 0.927953
Si Si6 0.922874 0.895409 0.427035
O O1 0.714423 0.500000 0.500000
O O2 0.695571 0.546556 0.250000
O O3 0.744975 0.591218 0.484098
O O4 0.619908 0.565294 0.483437
O O5 0.792761 0.611299 0.750000
O O6 0.875377 0.590723 0.523041
O O7 0.813498 0.669496 0.513965
O O8 0.413849 0.691183 0.250000
O O9 0.500000 0.718532 0.039093
O O10 0.379407 0.749103 0.023600
O O11 0.402081 0.657857 0.978250
O O12 0.074727 0.458324 0.250000
O O13 0.000000 0.437783 0.014425
O O14 0.100234 0.500000 0.000000
O O15 0.197204 0.725027 0.750000
O O16 0.250000 0.750000 0.000000
O O17 0.908084 0.900472 0.250000
O O18 0.000000 0.905149 0.466194
#
# Coordination Sequence:
#
# PCOD8259934 Si02
#       6
#    16  16  16  16  16  16
#     4  12  25  40  59  82 110 144 183 227 276 330
#     4  10  21  37  56  80 111 146 186 230 274 323
#     4   9  18  34  56  82 112 147 187 227 269 321
#     4   9  18  33  54  79 107 140 177 218 266 319
#     4  10  21  35  53  78 108 143 181 224 271 318
#     4  10  21  38  60  85 113 145 181 223 273 327
#
# _framework density 19.416815
#
# number of rings (size 3 to 8) (size 9 to 14) (size 15 to 20)
#    0.000    2.000    0.000    3.500    0.000    8.000 
#    0.000    3.333    0.000    0.000    0.000    7.000 
#    0.000    0.000    0.000    0.000    0.000    0.000 
#
# Total GULP energy -595376.865067 kJ/mol
# GULP energy per Si atom -12403.684689 kJ/mol
# Density = 1.937262 g / cm^3
# Si number density = 19.416815 Si / 1000 Ang^3
#
#
#
# Elastic Constant Matrix: (Units=GPa)
#
#
# Indices 1 2 3 4 5 6 
#
# 1 102.7380 60.1569 34.3160 0.0000 0.0000 0.0000
# 2 60.1569 126.0553 34.8288 0.0000 0.0000 0.0000
# 3 34.3160 34.8288 62.0088 0.0000 0.0000 0.0000
# 4 0.0000 0.0000 0.0000 27.9316 0.0000 0.0000
# 5 0.0000 0.0000 0.0000 0.0000 27.2620 0.0000
# 6 0.0000 0.0000 0.0000 0.0000 0.0000 102.9366
#
#
#
# Elastic Compliance Matrix: (Units=1/GPa)
#
#
# Indices 1 2 3 4 5 6 
#
# 1 0.014695 -0.005641 -0.004963 0.000000 0.000000 0.000000
# 2 -0.005641 0.011556 -0.003369 0.000000 0.000000 0.000000
# 3 -0.004963 -0.003369 0.020766 0.000000 0.000000 0.000000
# 4 0.000000 0.000000 0.000000 0.035802 0.000000 0.000000
# 5 0.000000 0.000000 0.000000 0.000000 0.036681 0.000000
# 6 0.000000 0.000000 0.000000 0.000000 0.000000 0.009715
#
#
# Mechanical properties :
#
#
# Convention : Reuss Voigt Hill
#
# Bulk Modulus (GPa) = 52.44064 61.04505 56.74284
# Shear Modulus (GPa) = 30.57781 42.39272 36.48527
#
# Velocity S-wave (km/s) = 3.97269 4.67765 4.33951
# Velocity P-wave (km/s) = 6.93610 7.78982 7.37533
#
# Compressibility (1/GPa) = 0.01906918
#
# Stress axis : x y z
#
# Youngs Moduli (GPa) = 68.05260 86.53541 48.15623
#
# Poissons Ratio (x) = 0.48816 0.23902
# Poissons Ratio (y) = 0.38390 0.16223
# Poissons Ratio (z) = 0.33778 0.29152
#
# Static dielectric constant tensor:
#      x y z
#    x 7.481800 0.000000 0.000000 
#    y 0.000000 3.647410 0.000000 
#    z 0.000000 0.000000 3.451110 
# 
# 
# High freq. dielectric constant tensor:
#      x y z
#    x 1.768880 0.000000 0.000000 
#    y 0.000000 1.758340 0.000000 
#    z 0.000000 0.000000 1.748910 
# 
# From -- ./inp_files/8544.got.cif
#   From: 2010.03.12/outbox.cif.g09.slc.cpg/sg63_5_cif.got.tgz:8544.got - 2010.04.10 19:34:48.
