data_PCOD8259195
_publ_section_title
;
Structure prediction by ZEFSAII (Michael W. Deem and Ramdas Pophale) SiO2 
 PCOD8259195
Probable space group: C M C M
;
_chemical_formula_sum "Si O2"
_cell_formula_units_Z 96
_cell_length_a 8.765477
_cell_length_b 25.006572
_cell_length_c 23.503553
_cell_angle_alpha 90.000000
_cell_angle_beta 90.000000
_cell_angle_gamma 90.000000
_cell_volume 5151.850293
_symmetry_space_group_name_H-M "C M C M"
_symmetry_group_IT_number 63
_symmetry_cell_setting 'orthorhombic'
loop_
_space_group_symop_operation_xyz
x,y,z
-x,-y,1/2+z
x,-y,-z
-x,y,1/2-z
-x,-y,-z
x,y,1/2-z
-x,y,z
x,-y,1/2+z
1/2+x,1/2+y,z
1/2-x,1/2-y,1/2+z
1/2+x,1/2-y,-z
1/2-x,1/2+y,1/2-z
1/2-x,1/2-y,-z
1/2+x,1/2+y,1/2-z
1/2-x,1/2+y,z
1/2+x,1/2-y,1/2+z
loop_
_atom_site_type_symbol
_atom_site_label
_atom_site_fract_x
_atom_site_fract_y
_atom_site_fract_z
Si Si1 0.179263 0.938842 0.750000
Si Si2 0.821040 0.399375 0.865075
Si Si3 0.177502 0.007419 0.065153
Si Si4 0.174019 0.447198 0.250000
Si Si5 0.322553 0.309509 0.565209
Si Si6 0.675233 0.911001 0.127513
Si Si7 0.676289 0.811905 0.447412
O O1 0.242912 0.909558 0.805079
O O2 0.000000 0.933023 0.750000
O O3 0.219443 0.001247 0.750000
O O4 0.774211 0.443706 0.910858
O O5 0.771703 0.341427 0.887604
O O6 0.000000 0.401378 0.855993
O O7 0.000000 0.021014 0.072383
O O8 0.214343 0.953551 0.098674
O O9 0.224309 0.000000 0.000000
O O10 0.206748 0.410591 0.195032
O O11 0.000000 0.468160 0.250000
O O12 0.500000 0.321712 0.573682
O O13 0.281773 0.247274 0.574180
O O14 0.276034 0.328147 0.501930
O O15 0.500000 0.926572 0.114251
O O16 0.714067 0.852320 0.103775
O O17 0.500000 0.814561 0.465996
#
# Coordination Sequence:
#
# PCOD8259195 Si02
#       7
#     8  16  16   8  16  16  16
#     4  12  24  40  61  84 113 149 192 238 288 343
#     4  12  24  39  59  83 114 152 195 237 286 346
#     4  11  23  36  53  82 116 147 184 235 290 340
#     4  10  20  36  57  82 111 149 188 226 278 339
#     4  10  20  36  58  85 117 152 194 241 287 338
#     4  10  20  35  56  81 112 147 188 231 279 344
#     4   9  19  36  58  85 116 154 194 235 289 347
#
# _framework density 18.634080999999998
#
# number of rings (size 3 to 8) (size 9 to 14) (size 15 to 20)
#    0.000    1.500    1.667    4.250    0.000    5.333 
#    0.000    0.833    0.000    3.000    0.000    0.000 
#    0.000    0.000    0.000    0.000    0.000    0.000 
#
# Total GULP energy -595453.832550 kJ/mol
# GULP energy per Si atom -12405.288178 kJ/mol
# Density = 1.859167 g / cm^3
# Si number density = 18.634081 Si / 1000 Ang^3
#
#
#
# Elastic Constant Matrix: (Units=GPa)
#
#
# Indices 1 2 3 4 5 6 
#
# 1 101.6002 33.6738 49.0654 0.0000 0.0000 0.0000
# 2 33.6738 96.3422 53.6075 0.0000 0.0000 0.0000
# 3 49.0654 53.6075 131.0956 0.0000 0.0000 0.0000
# 4 0.0000 0.0000 0.0000 21.8163 0.0000 0.0000
# 5 0.0000 0.0000 0.0000 0.0000 24.1651 0.0000
# 6 0.0000 0.0000 0.0000 0.0000 0.0000 30.7458
#
#
#
# Elastic Compliance Matrix: (Units=1/GPa)
#
#
# Indices 1 2 3 4 5 6 
#
# 1 0.012384 -0.002265 -0.003709 0.000000 0.000000 0.000000
# 2 -0.002265 0.013851 -0.004816 0.000000 0.000000 0.000000
# 3 -0.003709 -0.004816 0.010986 0.000000 0.000000 0.000000
# 4 0.000000 0.000000 0.000000 0.045837 0.000000 0.000000
# 5 0.000000 0.000000 0.000000 0.000000 0.041382 0.000000
# 6 0.000000 0.000000 0.000000 0.000000 0.000000 0.032525
#
#
# Mechanical properties :
#
#
# Convention : Reuss Voigt Hill
#
# Bulk Modulus (GPa) = 63.93494 66.85904 65.39699
# Shear Modulus (GPa) = 27.20953 28.19154 27.70054
#
# Velocity S-wave (km/s) = 3.82541 3.89382 3.85977
# Velocity P-wave (km/s) = 7.34145 7.49491 7.41858
#
# Compressibility (1/GPa) = 0.01564090
#
# Stress axis : x y z
#
# Youngs Moduli (GPa) = 80.74747 72.19574 91.02760
#
# Poissons Ratio (x) = 0.16351 0.33762
# Poissons Ratio (y) = 0.18288 0.43842
# Poissons Ratio (z) = 0.29949 0.34772
#
# Static dielectric constant tensor:
#      x y z
#    x 3.498820 0.000000 0.000000 
#    y 0.000000 3.461710 0.000000 
#    z 0.000000 0.000000 3.532070 
# 
# 
# High freq. dielectric constant tensor:
#      x y z
#    x 1.730470 0.000000 0.000000 
#    y 0.000000 1.721140 0.000000 
#    z 0.000000 0.000000 1.726060 
# 
# From -- ./inp_files/60072.got.cif
#   From: 2010.03.12/outbox.cif.g09.slc.cpg/sg63_31_cif.got.tgz:60072.got - 2010.04.10 19:34:48.
