data_PCOD8259601
_publ_section_title
;
Structure prediction by ZEFSAII (Michael W. Deem and Ramdas Pophale) SiO2 
 PCOD8259601
Probable space group: C M C M
;
_chemical_formula_sum "Si O2"
_cell_formula_units_Z 112
_cell_length_a 13.852927
_cell_length_b 13.017209
_cell_length_c 30.533245
_cell_angle_alpha 90.000000
_cell_angle_beta 90.000000
_cell_angle_gamma 90.000000
_cell_volume 5505.951556
_symmetry_space_group_name_H-M "C M C M"
_symmetry_group_IT_number 63
_symmetry_cell_setting 'orthorhombic'
loop_
_space_group_symop_operation_xyz
x,y,z
-x,-y,1/2+z
x,-y,-z
-x,y,1/2-z
-x,-y,-z
x,y,1/2-z
-x,y,z
x,-y,1/2+z
1/2+x,1/2+y,z
1/2-x,1/2-y,1/2+z
1/2+x,1/2-y,-z
1/2-x,1/2+y,1/2-z
1/2-x,1/2-y,-z
1/2+x,1/2+y,1/2-z
1/2-x,1/2+y,z
1/2+x,1/2-y,1/2+z
loop_
_atom_site_type_symbol
_atom_site_label
_atom_site_fract_x
_atom_site_fract_y
_atom_site_fract_z
Si Si1 0.109830 0.402550 0.952214
Si Si2 0.234189 0.058234 0.564530
Si Si3 0.610508 0.373539 0.593550
Si Si4 0.609346 0.158276 0.148315
Si Si5 0.610894 0.302918 0.003462
Si Si6 0.388304 0.955061 0.198991
Si Si7 0.718501 0.205631 0.642367
O O1 0.174387 0.503691 0.958855
O O2 0.119413 0.364667 0.902743
O O3 0.149500 0.309998 0.982867
O O4 0.000000 0.432332 0.963858
O O5 0.169796 0.106722 0.526405
O O6 0.272941 0.142234 0.597850
O O7 0.170720 0.978057 0.592183
O O8 0.500000 0.401252 0.603232
O O9 0.622387 0.312144 0.548222
O O10 0.650363 0.303199 0.632642
O O11 0.500000 0.188464 0.160986
O O12 0.677531 0.254733 0.159411
O O13 0.644289 0.059271 0.175247
O O14 0.500000 0.313995 0.018876
O O15 0.367614 0.967789 0.250000
O O16 0.500000 0.932634 0.188757
O O17 0.326973 0.860254 0.181165
#
# Coordination Sequence:
#
# PCOD8259601 Si02
#       7
#    16  16  16  16  16  16  16
#     4  10  20  37  57  81 112 151 197 247 288 335
#     4  12  21  35  57  83 111 152 198 243 291 340
#     4  11  24  38  54  82 118 158 201 248 293 345
#     4  10  20  39  62  86 119 153 193 236 284 347
#     4  10  22  39  56  77 114 161 206 247 291 339
#     4  10  22  41  66  92 117 147 183 229 290 359
#     4  12  22  38  61  91 117 151 192 243 295 344
#
# _framework density 20.341625000000001
#
# number of rings (size 3 to 8) (size 9 to 14) (size 15 to 20)
#    0.000    1.286    4.286    1.286    0.000    6.286 
#    0.000    0.000    0.000    5.143    0.000    0.000 
#    0.000    0.000    0.000    0.000    0.000    0.000 
#
# Total GULP energy -694786.707849 kJ/mol
# GULP energy per Si atom -12406.905497 kJ/mol
# Density = 2.029533 g / cm^3
# Si number density = 20.341625 Si / 1000 Ang^3
#
#
#
# Elastic Constant Matrix: (Units=GPa)
#
#
# Indices 1 2 3 4 5 6 
#
# 1 82.1999 45.5114 -2.4839 0.0000 0.0000 0.0000
# 2 45.5114 101.9677 7.6620 0.0000 0.0000 0.0000
# 3 -2.4839 7.6620 39.6912 0.0000 0.0000 0.0000
# 4 0.0000 0.0000 0.0000 17.1224 0.0000 0.0000
# 5 0.0000 0.0000 0.0000 0.0000 14.6244 0.0000
# 6 0.0000 0.0000 0.0000 0.0000 0.0000 32.4382
#
#
#
# Elastic Compliance Matrix: (Units=1/GPa)
#
#
# Indices 1 2 3 4 5 6 
#
# 1 0.016395 -0.007503 0.002474 0.000000 0.000000 0.000000
# 2 -0.007503 0.013385 -0.003053 0.000000 0.000000 0.000000
# 3 0.002474 -0.003053 0.025939 0.000000 0.000000 0.000000
# 4 0.000000 0.000000 0.000000 0.058403 0.000000 0.000000
# 5 0.000000 0.000000 0.000000 0.000000 0.068379 0.000000
# 6 0.000000 0.000000 0.000000 0.000000 0.000000 0.030828
#
#
# Mechanical properties :
#
#
# Convention : Reuss Voigt Hill
#
# Bulk Modulus (GPa) = 25.28188 36.13752 30.70970
# Shear Modulus (GPa) = 20.60341 24.38162 22.49251
#
# Velocity S-wave (km/s) = 3.18601 3.46585 3.32887
# Velocity P-wave (km/s) = 5.09803 5.81550 5.46854
#
# Compressibility (1/GPa) = 0.03955401
#
# Stress axis : x y z
#
# Youngs Moduli (GPa) = 60.99564 74.70796 38.55233
#
# Poissons Ratio (x) = 0.56056 -0.09540
# Poissons Ratio (y) = 0.45767 0.11772
# Poissons Ratio (z) = -0.15093 0.22812
#
# Static dielectric constant tensor:
#      x y z
#    x 4.025710 0.000000 0.000000 
#    y 0.000000 3.773580 0.000000 
#    z 0.000000 0.000000 3.404280 
# 
# 
# High freq. dielectric constant tensor:
#      x y z
#    x 1.810900 0.000000 0.000000 
#    y 0.000000 1.801630 0.000000 
#    z 0.000000 0.000000 1.765700 
# 
# From -- ./inp_files/73398.got.cif
#   From: 2010.03.12/outbox.cif.g09.slc.cpg/sg63_37_cif.got.tgz:73398.got - 2010.04.10 19:34:48.
