data_PCOD8259828
_publ_section_title
;
Structure prediction by ZEFSAII (Michael W. Deem and Ramdas Pophale) SiO2 
 PCOD8259828
Probable space group: C M C M
;
_chemical_formula_sum "Si O2"
_cell_formula_units_Z 112
_cell_length_a 30.419429
_cell_length_b 11.559071
_cell_length_c 15.415050
_cell_angle_alpha 90.000000
_cell_angle_beta 90.000000
_cell_angle_gamma 90.000000
_cell_volume 5420.245116
_symmetry_space_group_name_H-M "C M C M"
_symmetry_group_IT_number 63
_symmetry_cell_setting 'orthorhombic'
loop_
_space_group_symop_operation_xyz
x,y,z
-x,-y,1/2+z
x,-y,-z
-x,y,1/2-z
-x,-y,-z
x,y,1/2-z
-x,y,z
x,-y,1/2+z
1/2+x,1/2+y,z
1/2-x,1/2-y,1/2+z
1/2+x,1/2-y,-z
1/2-x,1/2+y,1/2-z
1/2-x,1/2-y,-z
1/2+x,1/2+y,1/2-z
1/2-x,1/2+y,z
1/2+x,1/2-y,1/2+z
loop_
_atom_site_type_symbol
_atom_site_label
_atom_site_fract_x
_atom_site_fract_y
_atom_site_fract_z
Si Si1 0.418461 0.624703 0.988924
Si Si2 0.450678 0.201238 0.153276
Si Si3 0.676063 0.386100 0.087118
Si Si4 0.879958 0.251180 0.152257
Si Si5 0.305048 0.851274 0.845946
Si Si6 0.794049 0.869643 0.900563
Si Si7 0.616273 0.011044 0.402433
O O1 0.445031 0.704386 0.922447
O O2 0.372604 0.591822 0.945735
O O3 0.442991 0.500000 0.000000
O O4 0.411219 0.688146 0.081730
O O5 0.444509 0.256272 0.250000
O O6 0.500000 0.151327 0.143757
O O7 0.416430 0.096673 0.146840
O O8 0.676568 0.279306 0.152444
O O9 0.692597 0.502596 0.133418
O O10 0.706902 0.359504 0.004493
O O11 0.894359 0.215192 0.250000
O O12 0.828591 0.221571 0.138485
O O13 0.884450 0.388640 0.144578
O O14 0.310836 0.901144 0.750000
O O15 0.254462 0.843266 0.869777
O O16 0.334446 0.934184 0.906522
O O17 0.599271 0.000000 0.500000
#
# Coordination Sequence:
#
# PCOD8259828 Si02
#       7
#    16  16  16  16  16  16  16
#     4  11  21  44  68  98 130 170 215 259 326 390
#     4  11  25  47  75 103 130 164 212 270 330 399
#     4  10  20  40  61  83 121 171 219 264 321 378
#     4  11  22  39  62  94 132 174 219 265 315 379
#     4  12  25  36  57  91 127 169 222 275 316 374
#     4  10  22  39  58  87 124 173 220 269 323 371
#     4  12  24  43  67  93 129 173 215 268 331 392
#
# _framework density 20.663271999999999
#
# number of rings (size 3 to 8) (size 9 to 14) (size 15 to 20)
#    0.000    1.000    5.714    3.000    4.000    2.286 
#    0.000    0.000    0.000    0.429    0.000    0.000 
#    0.000    0.000    0.000    0.000    0.000    0.000 
#
# Total GULP energy -694338.338808 kJ/mol
# GULP energy per Si atom -12398.898907 kJ/mol
# Density = 2.061624 g / cm^3
# Si number density = 20.663272 Si / 1000 Ang^3
#
#
#
# Elastic Constant Matrix: (Units=GPa)
#
#
# Indices 1 2 3 4 5 6 
#
# 1 67.1362 34.3547 44.6979 0.0000 0.0000 0.0000
# 2 34.3547 132.4674 33.9850 0.0000 0.0000 0.0000
# 3 44.6979 33.9850 114.6167 0.0000 0.0000 0.0000
# 4 0.0000 0.0000 0.0000 18.6198 0.0000 0.0000
# 5 0.0000 0.0000 0.0000 0.0000 20.5401 0.0000
# 6 0.0000 0.0000 0.0000 0.0000 0.0000 14.6882
#
#
#
# Elastic Compliance Matrix: (Units=1/GPa)
#
#
# Indices 1 2 3 4 5 6 
#
# 1 0.021708 -0.003743 -0.007356 0.000000 0.000000 0.000000
# 2 -0.003743 0.008816 -0.001154 0.000000 0.000000 0.000000
# 3 -0.007356 -0.001154 0.011936 0.000000 0.000000 0.000000
# 4 0.000000 0.000000 0.000000 0.053706 0.000000 0.000000
# 5 0.000000 0.000000 0.000000 0.000000 0.048685 0.000000
# 6 0.000000 0.000000 0.000000 0.000000 0.000000 0.068082
#
#
# Mechanical properties :
#
#
# Convention : Reuss Voigt Hill
#
# Bulk Modulus (GPa) = 55.69971 60.03284 57.86627
# Shear Modulus (GPa) = 20.54042 24.18180 22.36111
#
# Velocity S-wave (km/s) = 3.15628 3.42465 3.29320
# Velocity P-wave (km/s) = 6.34801 6.68981 6.52115
#
# Compressibility (1/GPa) = 0.01795342
#
# Stress axis : x y z
#
# Youngs Moduli (GPa) = 46.06695 113.43243 83.78282
#
# Poissons Ratio (x) = 0.42453 0.61628
# Poissons Ratio (y) = 0.17241 0.09672
# Poissons Ratio (z) = 0.33886 0.13095
#
# Static dielectric constant tensor:
#      x y z
#    x 3.544200 0.000000 0.000000 
#    y 0.000000 3.864780 0.000000 
#    z 0.000000 0.000000 4.744780 
# 
# 
# High freq. dielectric constant tensor:
#      x y z
#    x 1.788770 0.000000 0.000000 
#    y 0.000000 1.815440 0.000000 
#    z 0.000000 0.000000 1.812660 
# 
# From -- ./inp_files/38591.got.cif
#   From: 2010.03.12/outbox.cif.g09.slc.cpg/sg63_20_cif.got.tgz:38591.got - 2010.04.10 19:34:48.
