data_PCOD8259321
_publ_section_title
;
Structure prediction by ZEFSAII (Michael W. Deem and Ramdas Pophale) SiO2 
 PCOD8259321
Probable space group: C M C M
;
_chemical_formula_sum "Si O2"
_cell_formula_units_Z 48
_cell_length_a 7.942248
_cell_length_b 22.735189
_cell_length_c 14.050141
_cell_angle_alpha 90.000000
_cell_angle_beta 90.000000
_cell_angle_gamma 90.000000
_cell_volume 2537.013017
_symmetry_space_group_name_H-M "C M C M"
_symmetry_group_IT_number 63
_symmetry_cell_setting 'orthorhombic'
loop_
_space_group_symop_operation_xyz
x,y,z
-x,-y,1/2+z
x,-y,-z
-x,y,1/2-z
-x,-y,-z
x,y,1/2-z
-x,y,z
x,-y,1/2+z
1/2+x,1/2+y,z
1/2-x,1/2-y,1/2+z
1/2+x,1/2-y,-z
1/2-x,1/2+y,1/2-z
1/2-x,1/2-y,-z
1/2+x,1/2+y,1/2-z
1/2-x,1/2+y,z
1/2+x,1/2-y,1/2+z
loop_
_atom_site_type_symbol
_atom_site_label
_atom_site_fract_x
_atom_site_fract_y
_atom_site_fract_z
Si Si1 0.687167 0.911689 0.639994
Si Si2 0.815159 0.815135 0.987659
Si Si3 0.500000 0.511810 0.137835
Si Si4 0.000000 0.121905 0.636843
O O1 0.721185 0.896426 0.750000
O O2 0.500000 0.939541 0.627370
O O3 0.691489 0.851265 0.580627
O O4 0.830711 0.955915 0.600786
O O5 0.000000 0.813379 0.938633
O O6 0.833798 0.846622 0.091878
O O7 0.750000 0.750000 0.000000
O O8 0.500000 0.509934 0.250000
O O9 0.500000 0.445421 0.099964
O O10 0.000000 0.128406 0.750000
#
# Coordination Sequence:
#
# PCOD8259321 Si02
#       4
#    16  16   8   8
#     4  10  20  35  59  89 120 154 193 244 297 344
#     4  10  21  36  56  82 120 152 198 243 282 348
#     4   9  17  37  61  86 117 153 198 239 290 359
#     4   9  21  39  62  82 117 164 189 238 307 343
#
# _framework density 18.919886999999999
#
# number of rings (size 3 to 8) (size 9 to 14) (size 15 to 20)
#    1.000    1.333    1.667    1.000    0.000    4.000 
#    0.000    5.000    0.000    7.000    0.000    0.000 
#    0.000    0.000    0.000    0.000    0.000    0.000 
#
# Total GULP energy -297397.893239 kJ/mol
# GULP energy per Si atom -12391.578885 kJ/mol
# Density = 1.887682 g / cm^3
# Si number density = 18.919887 Si / 1000 Ang^3
#
#
#
# Elastic Constant Matrix: (Units=GPa)
#
#
# Indices 1 2 3 4 5 6 
#
# 1 125.5578 55.7536 36.7693 0.0000 0.0000 0.0000
# 2 55.7536 164.0030 51.7769 0.0000 0.0000 0.0000
# 3 36.7693 51.7769 86.1033 0.0000 0.0000 0.0000
# 4 0.0000 0.0000 0.0000 27.8239 0.0000 0.0000
# 5 0.0000 0.0000 0.0000 0.0000 22.4593 0.0000
# 6 0.0000 0.0000 0.0000 0.0000 0.0000 34.1680
#
#
#
# Elastic Compliance Matrix: (Units=1/GPa)
#
#
# Indices 1 2 3 4 5 6 
#
# 1 0.009868 -0.002499 -0.002711 0.000000 0.000000 0.000000
# 2 -0.002499 0.008159 -0.003839 0.000000 0.000000 0.000000
# 3 -0.002711 -0.003839 0.015081 0.000000 0.000000 0.000000
# 4 0.000000 0.000000 0.000000 0.035940 0.000000 0.000000
# 5 0.000000 0.000000 0.000000 0.000000 0.044525 0.000000
# 6 0.000000 0.000000 0.000000 0.000000 0.000000 0.029267
#
#
# Mechanical properties :
#
#
# Convention : Reuss Voigt Hill
#
# Bulk Modulus (GPa) = 66.62780 73.80708 70.21744
# Shear Modulus (GPa) = 30.13105 32.31452 31.22278
#
# Velocity S-wave (km/s) = 3.99502 4.13724 4.06675
# Velocity P-wave (km/s) = 7.52146 7.86876 7.69707
#
# Compressibility (1/GPa) = 0.01500875
#
# Stress axis : x y z
#
# Youngs Moduli (GPa) = 101.33739 122.56472 66.31056
#
# Poissons Ratio (x) = 0.30625 0.17980
# Poissons Ratio (y) = 0.25321 0.25458
# Poissons Ratio (z) = 0.27478 0.47056
#
# Static dielectric constant tensor:
#      x y z
#    x 3.534760 0.000000 0.000000 
#    y 0.000000 3.461410 0.000000 
#    z 0.000000 0.000000 3.238230 
# 
# 
# High freq. dielectric constant tensor:
#      x y z
#    x 1.730260 0.000000 0.000000 
#    y 0.000000 1.733110 0.000000 
#    z 0.000000 0.000000 1.726300 
# 
# From -- ./inp_files/39331.got.cif
#   From: 2010.03.12/outbox.cif.g09.slc.cpg/sg63_20_cif.got.tgz:39331.got - 2010.04.10 19:34:48.
