data_PCOD8259946
_publ_section_title
;
Structure prediction by ZEFSAII (Michael W. Deem and Ramdas Pophale) SiO2 
 PCOD8259946
Probable space group: C M C M
;
_chemical_formula_sum "Si O2"
_cell_formula_units_Z 96
_cell_length_a 26.784159
_cell_length_b 7.884308
_cell_length_c 25.787025
_cell_angle_alpha 90.000000
_cell_angle_beta 90.000000
_cell_angle_gamma 90.000000
_cell_volume 5445.563634
_symmetry_space_group_name_H-M "C M C M"
_symmetry_group_IT_number 63
_symmetry_cell_setting 'orthorhombic'
loop_
_space_group_symop_operation_xyz
x,y,z
-x,-y,1/2+z
x,-y,-z
-x,y,1/2-z
-x,-y,-z
x,y,1/2-z
-x,y,z
x,-y,1/2+z
1/2+x,1/2+y,z
1/2-x,1/2-y,1/2+z
1/2+x,1/2-y,-z
1/2-x,1/2+y,1/2-z
1/2-x,1/2-y,-z
1/2+x,1/2+y,1/2-z
1/2-x,1/2+y,z
1/2+x,1/2-y,1/2+z
loop_
_atom_site_type_symbol
_atom_site_label
_atom_site_fract_x
_atom_site_fract_y
_atom_site_fract_z
Si Si1 0.556559 0.871907 0.106833
Si Si2 0.131559 0.319830 0.309273
Si Si3 0.795195 0.990378 0.810523
Si Si4 0.132063 0.393281 0.550075
Si Si5 0.693120 0.134899 0.351507
Si Si6 0.947009 0.807742 0.995753
O O1 0.500000 0.931431 0.117672
O O2 0.580013 0.803057 0.159940
O O3 0.560847 0.724283 0.064927
O O4 0.589346 0.024015 0.084820
O O5 0.116579 0.328796 0.250000
O O6 0.159614 0.494071 0.323470
O O7 0.162906 0.150077 0.321116
O O8 0.778995 0.991639 0.750000
O O9 0.813681 0.179025 0.825903
O O10 0.749418 0.931729 0.846476
O O11 0.150755 0.500000 0.500000
O O12 0.178947 0.349853 0.587145
O O13 0.102767 0.231737 0.528048
O O14 0.000000 0.714918 0.013184
O O15 0.957541 0.000000 0.000000
#
# Coordination Sequence:
#
# PCOD8259946 Si02
#       6
#    16  16  16  16  16  16
#     4   9  18  33  54  77 105 140 180 218 264 319
#     4  10  21  35  54  80 110 141 179 223 271 322
#     4  11  21  35  56  79 104 139 184 228 269 317
#     4   9  19  35  53  77 110 139 178 218 271 324
#     4  11  21  35  58  79 107 141 180 225 272 318
#     4   9  17  30  52  78 104 137 177 220 263 313
#
# _framework density 17.629028999999999
#
# number of rings (size 3 to 8) (size 9 to 14) (size 15 to 20)
#    0.000    2.167    1.667    2.000    2.333    2.333 
#    0.000    0.833    0.000    0.000    0.000    2.333 
#    0.000    0.000    0.000    0.000    0.000    0.000 
#
# Total GULP energy -594644.052292 kJ/mol
# GULP energy per Si atom -12388.417756 kJ/mol
# Density = 1.758890 g / cm^3
# Si number density = 17.629029 Si / 1000 Ang^3
#
#
#
# Elastic Constant Matrix: (Units=GPa)
#
#
# Indices 1 2 3 4 5 6 
#
# 1 83.5606 30.6944 65.8013 0.0000 0.0000 0.0000
# 2 30.6944 103.3531 36.7859 0.0000 0.0000 0.0000
# 3 65.8013 36.7859 115.1222 0.0000 0.0000 0.0000
# 4 0.0000 0.0000 0.0000 15.7586 0.0000 0.0000
# 5 0.0000 0.0000 0.0000 0.0000 34.8645 0.0000
# 6 0.0000 0.0000 0.0000 0.0000 0.0000 20.9910
#
#
#
# Elastic Compliance Matrix: (Units=1/GPa)
#
#
# Indices 1 2 3 4 5 6 
#
# 1 0.022257 -0.002349 -0.011971 0.000000 0.000000 0.000000
# 2 -0.002349 0.011165 -0.002225 0.000000 0.000000 0.000000
# 3 -0.011971 -0.002225 0.016240 0.000000 0.000000 0.000000
# 4 0.000000 0.000000 0.000000 0.063457 0.000000 0.000000
# 5 0.000000 0.000000 0.000000 0.000000 0.028682 0.000000
# 6 0.000000 0.000000 0.000000 0.000000 0.000000 0.047639
#
#
# Mechanical properties :
#
#
# Convention : Reuss Voigt Hill
#
# Bulk Modulus (GPa) = 60.34399 63.17768 61.76083
# Shear Modulus (GPa) = 21.92450 25.57311 23.74880
#
# Velocity S-wave (km/s) = 3.53038 3.81284 3.67433
# Velocity P-wave (km/s) = 7.13599 7.43631 7.28770
#
# Compressibility (1/GPa) = 0.01657166
#
# Stress axis : x y z
#
# Youngs Moduli (GPa) = 44.92957 89.56423 61.57749
#
# Poissons Ratio (x) = 0.21041 0.73714
# Poissons Ratio (y) = 0.10555 0.13700
# Poissons Ratio (z) = 0.53785 0.19927
#
# Static dielectric constant tensor:
#      x y z
#    x 3.418190 0.000000 0.000000 
#    y 0.000000 3.268300 0.000000 
#    z 0.000000 0.000000 3.342820 
# 
# 
# High freq. dielectric constant tensor:
#      x y z
#    x 1.675390 0.000000 0.000000 
#    y 0.000000 1.681510 0.000000 
#    z 0.000000 0.000000 1.681540 
# 
# From -- ./inp_files/64979.got.cif
#   From: 2010.03.12/outbox.cif.g09.slc.cpg/sg63_33_cif.got.tgz:64979.got - 2010.04.10 19:34:48.
