data_PCOD8259146
_publ_section_title
;
Structure prediction by ZEFSAII (Michael W. Deem and Ramdas Pophale) SiO2 
 PCOD8259146
Probable space group: C M C M
;
_chemical_formula_sum "Si O2"
_cell_formula_units_Z 80
_cell_length_a 29.117239
_cell_length_b 11.261997
_cell_length_c 13.510382
_cell_angle_alpha 90.000000
_cell_angle_beta 90.000000
_cell_angle_gamma 90.000000
_cell_volume 4430.300934
_symmetry_space_group_name_H-M "C M C M"
_symmetry_group_IT_number 63
_symmetry_cell_setting 'orthorhombic'
loop_
_space_group_symop_operation_xyz
x,y,z
-x,-y,1/2+z
x,-y,-z
-x,y,1/2-z
-x,-y,-z
x,y,1/2-z
-x,y,z
x,-y,1/2+z
1/2+x,1/2+y,z
1/2-x,1/2-y,1/2+z
1/2+x,1/2-y,-z
1/2-x,1/2+y,1/2-z
1/2-x,1/2-y,-z
1/2+x,1/2+y,1/2-z
1/2-x,1/2+y,z
1/2+x,1/2-y,1/2+z
loop_
_atom_site_type_symbol
_atom_site_label
_atom_site_fract_x
_atom_site_fract_y
_atom_site_fract_z
Si Si1 0.308921 0.868688 0.969367
Si Si2 0.115214 0.207983 0.868209
Si Si3 0.129429 0.942277 0.862159
Si Si4 0.779530 0.197737 0.362498
Si Si5 0.049889 0.138946 0.483782
O O1 0.351729 0.803893 0.918043
O O2 0.267482 0.868439 0.890921
O O3 0.290458 0.809811 0.069648
O O4 0.324660 0.000000 0.000000
O O5 0.113705 0.225547 0.750000
O O6 0.131139 0.076283 0.905585
O O7 0.064179 0.213945 0.917001
O O8 0.114029 0.954590 0.750000
O O9 0.180535 0.897103 0.875677
O O10 0.091974 0.849769 0.906371
O O11 0.775847 0.243943 0.250000
O O12 0.000000 0.189359 0.447785
O O13 0.043221 0.000000 0.500000
#
# Coordination Sequence:
#
# PCOD8259146 Si02
#       5
#    16  16  16  16  16
#     4  11  24  36  55  79 109 145 184 222 261 318
#     4  10  20  35  55  79 110 143 180 221 272 321
#     4   9  18  33  55  80 109 142 177 219 269 323
#     4  10  22  37  55  79 108 141 178 221 268 318
#     4   9  17  30  52  82 112 137 171 219 273 323
#
# _framework density 18.057464
#
# number of rings (size 3 to 8) (size 9 to 14) (size 15 to 20)
#    0.000    2.200    2.000    0.600    5.600    2.400 
#    0.000    4.000    0.000    0.600    0.000    0.000 
#    0.000    0.000    0.000    0.000    0.000    0.000 
#
# Total GULP energy -495623.817427 kJ/mol
# GULP energy per Si atom -12390.595436 kJ/mol
# Density = 1.801636 g / cm^3
# Si number density = 18.057464 Si / 1000 Ang^3
#
#
#
# Elastic Constant Matrix: (Units=GPa)
#
#
# Indices 1 2 3 4 5 6 
#
# 1 132.0745 42.3014 55.0652 0.0000 0.0000 0.0000
# 2 42.3014 77.8485 38.2890 0.0000 0.0000 0.0000
# 3 55.0652 38.2890 77.5540 0.0000 0.0000 0.0000
# 4 0.0000 0.0000 0.0000 20.5980 0.0000 0.0000
# 5 0.0000 0.0000 0.0000 0.0000 18.5863 0.0000
# 6 0.0000 0.0000 0.0000 0.0000 0.0000 -9.0910
#
#
#
# Elastic Compliance Matrix: (Units=1/GPa)
#
#
# Indices 1 2 3 4 5 6 
#
# 1 0.011223 -0.002878 -0.006548 0.000000 0.000000 0.000000
# 2 -0.002878 0.017703 -0.006697 0.000000 0.000000 0.000000
# 3 -0.006548 -0.006697 0.020850 0.000000 0.000000 0.000000
# 4 0.000000 0.000000 0.000000 0.048549 0.000000 0.000000
# 5 0.000000 0.000000 0.000000 0.000000 0.053803 0.000000
# 6 0.000000 0.000000 0.000000 0.000000 0.000000 -0.109999
#
#
# Mechanical properties :
#
#
# Convention : Reuss Voigt Hill
#
# Bulk Modulus (GPa) = 57.04261 62.08758 59.56510
# Shear Modulus (GPa) = 62.33106 16.14009 39.23557
#
# Velocity S-wave (km/s) = 5.88159 2.99292 4.66641
# Velocity P-wave (km/s) = 8.81942 6.81186 7.87984
#
# Compressibility (1/GPa) = 0.01753075
#
# Stress axis : x y z
#
# Youngs Moduli (GPa) = 89.10093 56.48760 47.96261
#
# Poissons Ratio (x) = 0.16257 0.31405
# Poissons Ratio (y) = 0.25643 0.32119
# Poissons Ratio (z) = 0.58342 0.37828
#
# Static dielectric constant tensor:
#      x y z
#    x 3.633990 0.000000 0.000000 
#    y 0.000000 2.993610 0.000000 
#    z 0.000000 0.000000 3.565460 
# 
# 
# High freq. dielectric constant tensor:
#      x y z
#    x 1.702170 0.000000 0.000000 
#    y 0.000000 1.655880 0.000000 
#    z 0.000000 0.000000 1.713780 
# 
# From -- ./inp_files/37694.got.cif
#   From: 2010.03.12/outbox.cif.g09.slc.cpg/sg63_19_cif.got.tgz:37694.got - 2010.04.10 19:34:48.
