data_PCOD8259884
_publ_section_title
;
Structure prediction by ZEFSAII (Michael W. Deem and Ramdas Pophale) SiO2 
 PCOD8259884
Probable space group: C M C M
;
_chemical_formula_sum "Si O2"
_cell_formula_units_Z 96
_cell_length_a 22.739786
_cell_length_b 8.965240
_cell_length_c 24.806842
_cell_angle_alpha 90.000000
_cell_angle_beta 90.000000
_cell_angle_gamma 90.000000
_cell_volume 5057.312311
_symmetry_space_group_name_H-M "C M C M"
_symmetry_group_IT_number 63
_symmetry_cell_setting 'orthorhombic'
loop_
_space_group_symop_operation_xyz
x,y,z
-x,-y,1/2+z
x,-y,-z
-x,y,1/2-z
-x,-y,-z
x,y,1/2-z
-x,y,z
x,-y,1/2+z
1/2+x,1/2+y,z
1/2-x,1/2-y,1/2+z
1/2+x,1/2-y,-z
1/2-x,1/2+y,1/2-z
1/2-x,1/2-y,-z
1/2+x,1/2+y,1/2-z
1/2-x,1/2+y,z
1/2+x,1/2-y,1/2+z
loop_
_atom_site_type_symbol
_atom_site_label
_atom_site_fract_x
_atom_site_fract_y
_atom_site_fract_z
Si Si1 0.846589 0.100890 0.096657
Si Si2 0.270624 0.123744 0.038154
Si Si3 0.434731 0.675210 0.490002
Si Si4 0.206540 0.710711 0.688655
Si Si5 0.874637 0.231506 0.903649
Si Si6 0.326639 0.123205 0.188823
O O1 0.786298 0.055133 0.067361
O O2 0.836267 0.192341 0.151054
O O3 0.877029 0.943618 0.110190
O O4 0.887804 0.204375 0.057716
O O5 0.311756 0.197450 0.082082
O O6 0.250000 0.250000 0.000000
O O7 0.301531 0.000000 0.000000
O O8 0.433419 0.500000 0.500000
O O9 0.500000 0.728620 0.472846
O O10 0.418016 0.761890 0.545760
O O11 0.185980 0.738880 0.750000
O O12 0.274681 0.754669 0.682148
O O13 0.199264 0.537937 0.671819
O O14 0.883447 0.324024 0.847640
O O15 0.349562 0.118186 0.250000
#
# Coordination Sequence:
#
# PCOD8259884 Si02
#       6
#    16  16  16  16  16  16
#     4  11  20  33  52  78 105 137 173 212 263 313
#     4  12  21  31  45  75 110 137 169 206 255 315
#     4   9  19  36  55  77 104 134 172 218 263 305
#     4  10  21  34  50  74 107 143 175 211 257 310
#     4  11  21  32  53  78 104 139 173 213 261 312
#     4  10  21  34  49  74 107 142 176 211 255 309
#
# _framework density 18.982416000000001
#
# number of rings (size 3 to 8) (size 9 to 14) (size 15 to 20)
#    0.000    1.500    5.000    1.500    2.333    2.000 
#    0.000    0.000    0.000    5.500    0.000    7.000 
#    0.000    0.000    0.000    0.000    0.000    0.000 
#
# Total GULP energy -594751.182891 kJ/mol
# GULP energy per Si atom -12390.649644 kJ/mol
# Density = 1.893921 g / cm^3
# Si number density = 18.982416 Si / 1000 Ang^3
#
#
#
# Elastic Constant Matrix: (Units=GPa)
#
#
# Indices 1 2 3 4 5 6 
#
# 1 64.9578 1.7407 29.9358 0.0000 0.0000 0.0000
# 2 1.7407 80.0032 38.4177 0.0000 0.0000 0.0000
# 3 29.9358 38.4177 117.4643 0.0000 0.0000 0.0000
# 4 0.0000 0.0000 0.0000 37.8661 0.0000 0.0000
# 5 0.0000 0.0000 0.0000 0.0000 15.2623 0.0000
# 6 0.0000 0.0000 0.0000 0.0000 0.0000 11.6016
#
#
#
# Elastic Compliance Matrix: (Units=1/GPa)
#
#
# Indices 1 2 3 4 5 6 
#
# 1 0.017741 0.002118 -0.005214 0.000000 0.000000 0.000000
# 2 0.002118 0.015081 -0.005472 0.000000 0.000000 0.000000
# 3 -0.005214 -0.005472 0.011632 0.000000 0.000000 0.000000
# 4 0.000000 0.000000 0.000000 0.026409 0.000000 0.000000
# 5 0.000000 0.000000 0.000000 0.000000 0.065521 0.000000
# 6 0.000000 0.000000 0.000000 0.000000 0.000000 0.086195
#
#
# Mechanical properties :
#
#
# Convention : Reuss Voigt Hill
#
# Bulk Modulus (GPa) = 36.60728 44.73486 40.67107
# Shear Modulus (GPa) = 20.09481 25.76808 22.93145
#
# Velocity S-wave (km/s) = 3.25715 3.68838 3.47945
# Velocity P-wave (km/s) = 5.78550 6.46193 6.13305
#
# Compressibility (1/GPa) = 0.02731697
#
# Stress axis : x y z
#
# Youngs Moduli (GPa) = 56.36778 66.30799 85.97231
#
# Poissons Ratio (x) = -0.14042 0.44824
# Poissons Ratio (y) = -0.11937 0.47045
# Poissons Ratio (z) = 0.29389 0.36284
#
# Static dielectric constant tensor:
#      x y z
#    x 3.116230 0.000000 0.000000 
#    y 0.000000 3.405460 0.000000 
#    z 0.000000 0.000000 3.715960 
# 
# 
# High freq. dielectric constant tensor:
#      x y z
#    x 1.674900 0.000000 0.000000 
#    y 0.000000 1.735900 0.000000 
#    z 0.000000 0.000000 1.756230 
# 
# From -- ./inp_files/64956.got.cif
#   From: 2010.03.12/outbox.cif.g09.slc.cpg/sg63_33_cif.got.tgz:64956.got - 2010.04.10 19:34:48.
