data_PCOD8259238
_publ_section_title
;
Structure prediction by ZEFSAII (Michael W. Deem and Ramdas Pophale) SiO2 
 PCOD8259238
Probable space group: C M C M
;
_chemical_formula_sum "Si O2"
_cell_formula_units_Z 112
_cell_length_a 14.331941
_cell_length_b 11.928870
_cell_length_c 31.009667
_cell_angle_alpha 90.000000
_cell_angle_beta 90.000000
_cell_angle_gamma 90.000000
_cell_volume 5301.532400
_symmetry_space_group_name_H-M "C M C M"
_symmetry_group_IT_number 63
_symmetry_cell_setting 'orthorhombic'
loop_
_space_group_symop_operation_xyz
x,y,z
-x,-y,1/2+z
x,-y,-z
-x,y,1/2-z
-x,-y,-z
x,y,1/2-z
-x,y,z
x,-y,1/2+z
1/2+x,1/2+y,z
1/2-x,1/2-y,1/2+z
1/2+x,1/2-y,-z
1/2-x,1/2+y,1/2-z
1/2-x,1/2-y,-z
1/2+x,1/2+y,1/2-z
1/2-x,1/2+y,z
1/2+x,1/2-y,1/2+z
loop_
_atom_site_type_symbol
_atom_site_label
_atom_site_fract_x
_atom_site_fract_y
_atom_site_fract_z
Si Si1 0.895909 0.827854 0.202632
Si Si2 0.887783 0.134157 0.997607
Si Si3 0.311137 0.444564 0.700373
Si Si4 0.606725 0.789036 0.296959
Si Si5 0.734905 0.230939 0.934826
Si Si6 0.836887 0.356733 0.860477
Si Si7 0.605263 0.087616 0.619456
O O1 0.853394 0.790634 0.250000
O O2 0.894775 0.735384 0.165369
O O3 0.000000 0.863064 0.211761
O O4 0.849568 0.938270 0.182729
O O5 0.835210 0.190765 0.037848
O O6 0.000000 0.164646 0.995084
O O7 0.829475 0.183899 0.957126
O O8 0.876696 0.000000 0.000000
O O9 0.287267 0.457144 0.750000
O O10 0.382299 0.342073 0.691839
O O11 0.217092 0.423898 0.675706
O O12 0.654577 0.815779 0.250000
O O13 0.500000 0.820587 0.292970
O O14 0.649178 0.863929 0.335514
O O15 0.767162 0.305233 0.895006
O O16 0.672301 0.126540 0.919234
O O17 0.901374 0.452201 0.881991
O O18 0.500000 0.134373 0.612673
#
# Coordination Sequence:
#
# PCOD8259238 Si02
#       7
#    16  16  16  16  16  16  16
#     4  10  22  39  57  81 119 169 220 265 308 354
#     4  10  23  45  72  98 123 156 198 249 309 378
#     4  10  20  35  57  82 117 163 214 264 310 357
#     4   9  18  34  56  83 117 162 215 262 303 353
#     4  11  23  43  67  95 129 159 200 249 309 385
#     4  12  23  38  57  91 126 163 203 256 312 368
#     4  11  23  39  60  90 128 168 209 255 307 366
#
# _framework density 21.125968
#
# number of rings (size 3 to 8) (size 9 to 14) (size 15 to 20)
#    0.000    1.571    1.429    3.429    0.000    4.000 
#    0.000    2.857    0.000    4.714    0.000    0.000 
#    0.000    0.000    0.000    0.000    0.000    0.000 
#
# Total GULP energy -693796.334436 kJ/mol
# GULP energy per Si atom -12389.220258 kJ/mol
# Density = 2.107788 g / cm^3
# Si number density = 21.125968 Si / 1000 Ang^3
#
#
#
# Elastic Constant Matrix: (Units=GPa)
#
#
# Indices 1 2 3 4 5 6 
#
# 1 108.0371 31.9014 24.8455 0.0000 0.0000 0.0000
# 2 31.9014 107.2837 16.8168 0.0000 0.0000 0.0000
# 3 24.8455 16.8168 36.6216 0.0000 0.0000 0.0000
# 4 0.0000 0.0000 0.0000 14.9555 0.0000 0.0000
# 5 0.0000 0.0000 0.0000 0.0000 11.0144 0.0000
# 6 0.0000 0.0000 0.0000 0.0000 0.0000 10.2631
#
#
#
# Elastic Compliance Matrix: (Units=1/GPa)
#
#
# Indices 1 2 3 4 5 6 
#
# 1 0.011499 -0.002367 -0.006715 0.000000 0.000000 0.000000
# 2 -0.002367 0.010531 -0.003230 0.000000 0.000000 0.000000
# 3 -0.006715 -0.003230 0.033345 0.000000 0.000000 0.000000
# 4 0.000000 0.000000 0.000000 0.066865 0.000000 0.000000
# 5 0.000000 0.000000 0.000000 0.000000 0.090790 0.000000
# 6 0.000000 0.000000 0.000000 0.000000 0.000000 0.097437
#
#
# Mechanical properties :
#
#
# Convention : Reuss Voigt Hill
#
# Bulk Modulus (GPa) = 32.51809 44.34109 38.42959
# Shear Modulus (GPa) = 14.47845 19.13852 16.80849
#
# Velocity S-wave (km/s) = 2.62074 3.01312 2.82375
# Velocity P-wave (km/s) = 4.95818 5.75671 5.37230
#
# Compressibility (1/GPa) = 0.03075211
#
# Stress axis : x y z
#
# Youngs Moduli (GPa) = 86.96322 94.95588 29.98943
#
# Poissons Ratio (x) = 0.22474 0.20137
# Poissons Ratio (y) = 0.20583 0.09687
# Poissons Ratio (z) = 0.58392 0.30673
#
# Static dielectric constant tensor:
#      x y z
#    x 4.293080 0.000000 0.000000 
#    y 0.000000 3.925780 0.000000 
#    z 0.000000 0.000000 3.949530 
# 
# 
# High freq. dielectric constant tensor:
#      x y z
#    x 1.832160 0.000000 0.000000 
#    y 0.000000 1.836040 0.000000 
#    z 0.000000 0.000000 1.820090 
# 
# From -- ./inp_files/73429.got.cif
#   From: 2010.03.12/outbox.cif.g09.slc.cpg/sg63_37_cif.got.tgz:73429.got - 2010.04.10 19:34:48.
