data_PCOD8259976
_publ_section_title
;
Structure prediction by ZEFSAII (Michael W. Deem and Ramdas Pophale) SiO2 
 PCOD8259976
Probable space group: C M C M
;
_chemical_formula_sum "Si O2"
_cell_formula_units_Z 64
_cell_length_a 8.910423
_cell_length_b 40.899956
_cell_length_c 9.948786
_cell_angle_alpha 90.000000
_cell_angle_beta 90.000000
_cell_angle_gamma 90.000000
_cell_volume 3625.694866
_symmetry_space_group_name_H-M "C M C M"
_symmetry_group_IT_number 63
_symmetry_cell_setting 'orthorhombic'
loop_
_space_group_symop_operation_xyz
x,y,z
-x,-y,1/2+z
x,-y,-z
-x,y,1/2-z
-x,-y,-z
x,y,1/2-z
-x,y,z
x,-y,1/2+z
1/2+x,1/2+y,z
1/2-x,1/2-y,1/2+z
1/2+x,1/2-y,-z
1/2-x,1/2+y,1/2-z
1/2-x,1/2-y,-z
1/2+x,1/2+y,1/2-z
1/2-x,1/2+y,z
1/2+x,1/2-y,1/2+z
loop_
_atom_site_type_symbol
_atom_site_label
_atom_site_fract_x
_atom_site_fract_y
_atom_site_fract_z
Si Si1 0.678344 0.099691 0.900602
Si Si2 0.323553 0.723574 0.404332
Si Si3 0.824605 0.655693 0.404218
Si Si4 0.178642 0.472903 0.400617
O O1 0.733946 0.108398 0.750000
O O2 0.500000 0.099919 0.904739
O O3 0.735561 0.063409 0.941619
O O4 0.741273 0.126291 0.005188
O O5 0.280139 0.731387 0.250000
O O6 0.500000 0.724079 0.426082
O O7 0.250000 0.750000 0.500000
O O8 0.262426 0.688226 0.446432
O O9 0.793705 0.646270 0.250000
O O10 0.000000 0.661711 0.430955
O O11 0.249129 0.500000 0.500000
O O12 0.232522 0.481224 0.250000
O O13 0.000000 0.473764 0.407918
#
# Coordination Sequence:
#
# PCOD8259976 Si02
#       4
#    16  16  16  16
#     4   8  14  24  37  55  81 113 148 184 222 265
#     4  10  21  36  53  73  97 124 154 190 232 277
#     4   9  17  29  45  65  89 117 150 187 225 268
#     4   8  13  20  30  47  74 108 144 180 217 259
#
# _framework density 17.651789999999998
#
# number of rings (size 3 to 8) (size 9 to 14) (size 15 to 20)
#    0.000    3.250    0.000    2.250    0.000    3.500 
#    0.000    7.500    0.000    0.000    0.000    0.000 
#    0.000    1.000    0.000    2.250    0.000    4.500 
#
# Total GULP energy -396652.143672 kJ/mol
# GULP energy per Si atom -12395.379490 kJ/mol
# Density = 1.761161 g / cm^3
# Si number density = 17.651790 Si / 1000 Ang^3
#
#
#
# Elastic Constant Matrix: (Units=GPa)
#
#
# Indices 1 2 3 4 5 6 
#
# 1 27.2725 36.6611 28.1844 0.0000 0.0000 0.0000
# 2 36.6611 184.3412 121.5251 0.0000 0.0000 0.0000
# 3 28.1844 121.5251 123.8911 0.0000 0.0000 0.0000
# 4 0.0000 0.0000 0.0000 45.8457 0.0000 0.0000
# 5 0.0000 0.0000 0.0000 0.0000 12.8304 0.0000
# 6 0.0000 0.0000 0.0000 0.0000 0.0000 14.6841
#
#
#
# Elastic Compliance Matrix: (Units=1/GPa)
#
#
# Indices 1 2 3 4 5 6 
#
# 1 0.050986 -0.007057 -0.004677 0.000000 0.000000 0.000000
# 2 -0.007057 0.016329 -0.014412 0.000000 0.000000 0.000000
# 3 -0.004677 -0.014412 0.023272 0.000000 0.000000 0.000000
# 4 0.000000 0.000000 0.000000 0.021812 0.000000 0.000000
# 5 0.000000 0.000000 0.000000 0.000000 0.077940 0.000000
# 6 0.000000 0.000000 0.000000 0.000000 0.000000 0.068101
#
#
# Mechanical properties :
#
#
# Convention : Reuss Voigt Hill
#
# Bulk Modulus (GPa) = 26.11217 78.69401 52.40309
# Shear Modulus (GPa) = 15.45609 24.61433 20.03521
#
# Velocity S-wave (km/s) = 2.96228 3.73827 3.37267
# Velocity P-wave (km/s) = 5.15026 7.95682 6.70210
#
# Compressibility (1/GPa) = 0.03829632
#
# Stress axis : x y z
#
# Youngs Moduli (GPa) = 19.61307 61.24096 42.96965
#
# Poissons Ratio (x) = 0.43215 0.20098
# Poissons Ratio (y) = 0.13840 0.61927
# Poissons Ratio (z) = 0.09174 0.88259
#
# Static dielectric constant tensor:
#      x y z
#    x 2.780420 0.000000 0.000000 
#    y 0.000000 3.752550 0.000000 
#    z 0.000000 0.000000 3.500800 
# 
# 
# High freq. dielectric constant tensor:
#      x y z
#    x 1.628040 0.000000 0.000000 
#    y 0.000000 1.693280 0.000000 
#    z 0.000000 0.000000 1.685290 
# 
# From -- ./inp_files/16169.got.cif
#   From: 2010.03.12/outbox.cif.g09.slc.cpg/sg63_9_cif.got.tgz:16169.got - 2010.04.10 19:34:48.
