data_PCOD8259102
_publ_section_title
;
Structure prediction by ZEFSAII (Michael W. Deem and Ramdas Pophale) SiO2 
 PCOD8259102
Probable space group: C M C M
;
_chemical_formula_sum "Si O2"
_cell_formula_units_Z 80
_cell_length_a 26.487564
_cell_length_b 18.635474
_cell_length_c 9.002020
_cell_angle_alpha 90.000000
_cell_angle_beta 90.000000
_cell_angle_gamma 90.000000
_cell_volume 4443.471881
_symmetry_space_group_name_H-M "C M C M"
_symmetry_group_IT_number 63
_symmetry_cell_setting 'orthorhombic'
loop_
_space_group_symop_operation_xyz
x,y,z
-x,-y,1/2+z
x,-y,-z
-x,y,1/2-z
-x,-y,-z
x,y,1/2-z
-x,y,z
x,-y,1/2+z
1/2+x,1/2+y,z
1/2-x,1/2-y,1/2+z
1/2+x,1/2-y,-z
1/2-x,1/2+y,1/2-z
1/2-x,1/2-y,-z
1/2+x,1/2+y,1/2-z
1/2-x,1/2+y,z
1/2+x,1/2-y,1/2+z
loop_
_atom_site_type_symbol
_atom_site_label
_atom_site_fract_x
_atom_site_fract_y
_atom_site_fract_z
Si Si1 0.941823 0.929128 0.576247
Si Si2 0.704064 0.209862 0.923958
Si Si3 0.342520 0.075069 0.073097
Si Si4 0.444245 0.147721 0.077105
Si Si5 0.098384 0.780046 0.921392
O O1 0.934678 0.939145 0.750000
O O2 0.911328 0.859974 0.516734
O O3 0.000000 0.918701 0.531312
O O4 0.918974 0.000000 0.500000
O O5 0.714473 0.196049 0.750000
O O6 0.656402 0.261218 0.949043
O O7 0.750000 0.250000 0.000000
O O8 0.695109 0.134337 0.006158
O O9 0.335834 0.071465 0.250000
O O10 0.400397 0.093061 0.024990
O O11 0.327540 0.000000 0.000000
O O12 0.438312 0.161767 0.250000
O O13 0.500000 0.116304 0.037968
O O14 0.438459 0.224558 0.001260
O O15 0.083301 0.776506 0.750000
#
# Coordination Sequence:
#
# PCOD8259102 Si02
#       5
#    16  16  16  16  16
#     4   9  17  29  45  67  96 128 160 195 237 285
#     4  10  20  36  57  78 100 129 167 210 258 307
#     4  10  20  35  54  77 106 137 170 208 251 300
#     4   9  18  31  48  73 104 136 169 205 246 295
#     4   9  18  32  50  71  96 128 167 209 249 296
#
# _framework density 18.00394
#
# number of rings (size 3 to 8) (size 9 to 14) (size 15 to 20)
#    0.000    2.600    0.000    1.800    0.000    4.000 
#    0.000    3.000    0.000    2.400    0.000    0.000 
#    0.000    0.000    0.000    0.000    0.000    0.000 
#
# Total GULP energy -495973.937315 kJ/mol
# GULP energy per Si atom -12399.348433 kJ/mol
# Density = 1.796296 g / cm^3
# Si number density = 18.003940 Si / 1000 Ang^3
#
#
#
# Elastic Constant Matrix: (Units=GPa)
#
#
# Indices 1 2 3 4 5 6 
#
# 1 81.2440 51.0900 39.8860 0.0000 0.0000 0.0000
# 2 51.0900 155.0751 51.7366 0.0000 0.0000 0.0000
# 3 39.8860 51.7366 65.6824 0.0000 0.0000 0.0000
# 4 0.0000 0.0000 0.0000 34.0575 0.0000 0.0000
# 5 0.0000 0.0000 0.0000 0.0000 24.0940 0.0000
# 6 0.0000 0.0000 0.0000 0.0000 0.0000 20.1966
#
#
#
# Elastic Compliance Matrix: (Units=1/GPa)
#
#
# Indices 1 2 3 4 5 6 
#
# 1 0.018644 -0.003208 -0.008794 0.000000 0.000000 0.000000
# 2 -0.003208 0.009299 -0.005377 0.000000 0.000000 0.000000
# 3 -0.008794 -0.005377 0.024800 0.000000 0.000000 0.000000
# 4 0.000000 0.000000 0.000000 0.029362 0.000000 0.000000
# 5 0.000000 0.000000 0.000000 0.000000 0.041504 0.000000
# 6 0.000000 0.000000 0.000000 0.000000 0.000000 0.049513
#
#
# Mechanical properties :
#
#
# Convention : Reuss Voigt Hill
#
# Bulk Modulus (GPa) = 55.60286 65.26964 60.43625
# Shear Modulus (GPa) = 23.37807 26.28888 24.83348
#
# Velocity S-wave (km/s) = 3.60738 3.82537 3.71797
# Velocity P-wave (km/s) = 6.94994 7.47281 7.21611
#
# Compressibility (1/GPa) = 0.01798469
#
# Stress axis : x y z
#
# Youngs Moduli (GPa) = 53.63781 107.53624 40.32220
#
# Poissons Ratio (x) = 0.34500 0.35461
# Poissons Ratio (y) = 0.17208 0.21680
# Poissons Ratio (z) = 0.47171 0.57818
#
# Static dielectric constant tensor:
#      x y z
#    x 3.321940 0.000000 0.000000 
#    y 0.000000 3.434580 0.000000 
#    z 0.000000 0.000000 3.341230 
# 
# 
# High freq. dielectric constant tensor:
#      x y z
#    x 1.682920 0.000000 0.000000 
#    y 0.000000 1.698890 0.000000 
#    z 0.000000 0.000000 1.699560 
# 
# From -- ./inp_files/11982.got.cif
#   From: 2010.03.12/outbox.cif.g09.slc.cpg/sg63_6_cif.got.tgz:11982.got - 2010.04.10 19:34:48.
