data_PCOD8259347
_publ_section_title
;
Structure prediction by ZEFSAII (Michael W. Deem and Ramdas Pophale) SiO2 
 PCOD8259347
Probable space group: C M C M
;
_chemical_formula_sum "Si O2"
_cell_formula_units_Z 72
_cell_length_a 14.859778
_cell_length_b 17.904691
_cell_length_c 13.848062
_cell_angle_alpha 90.000000
_cell_angle_beta 90.000000
_cell_angle_gamma 90.000000
_cell_volume 3684.411684
_symmetry_space_group_name_H-M "C M C M"
_symmetry_group_IT_number 63
_symmetry_cell_setting 'orthorhombic'
loop_
_space_group_symop_operation_xyz
x,y,z
-x,-y,1/2+z
x,-y,-z
-x,y,1/2-z
-x,-y,-z
x,y,1/2-z
-x,y,z
x,-y,1/2+z
1/2+x,1/2+y,z
1/2-x,1/2-y,1/2+z
1/2+x,1/2-y,-z
1/2-x,1/2+y,1/2-z
1/2-x,1/2-y,-z
1/2+x,1/2+y,1/2-z
1/2-x,1/2+y,z
1/2+x,1/2-y,1/2+z
loop_
_atom_site_type_symbol
_atom_site_label
_atom_site_fract_x
_atom_site_fract_y
_atom_site_fract_z
Si Si1 0.399624 0.814015 0.046536
Si Si2 0.251426 0.365671 0.750000
Si Si3 0.603910 0.763391 0.250000
Si Si4 0.243550 0.578761 0.040487
Si Si5 0.605919 0.259287 0.250000
Si Si6 0.398984 0.339336 0.445129
O O1 0.500000 0.844633 0.025130
O O2 0.375367 0.817391 0.159537
O O3 0.330574 0.859456 0.982800
O O4 0.393334 0.727012 0.021681
O O5 0.335766 0.310263 0.750000
O O6 0.256837 0.419577 0.843804
O O7 0.158918 0.318737 0.750000
O O8 0.500000 0.736582 0.250000
O O9 0.208078 0.500000 0.000000
O O10 0.335614 0.594835 0.982917
O O11 0.500000 0.239154 0.250000
O O12 0.633850 0.308377 0.157973
O O13 0.500000 0.371521 0.437074
#
# Coordination Sequence:
#
# PCOD8259347 Si02
#       6
#    16   8   8  16   8  16
#     4  10  20  38  63  89 115 149 200 250 288 337
#     4  12  22  38  60  84 118 156 198 242 292 356
#     4  10  20  35  65  95 113 145 200 254 294 336
#     4  12  26  39  57  88 126 163 192 234 297 361
#     4  10  20  35  65  95 113 145 200 254 294 336
#     4  10  20  38  63  89 115 149 200 250 288 337
#
# _framework density 19.541789999999999
#
# number of rings (size 3 to 8) (size 9 to 14) (size 15 to 20)
#    0.000    1.333    4.444    2.000    0.000    2.667 
#    0.000    0.000    0.000    0.000    0.000    0.000 
#    0.000    0.000    0.000    0.000    0.000    0.000 
#
# Total GULP energy -446474.749436 kJ/mol
# GULP energy per Si atom -12402.076373 kJ/mol
# Density = 1.949731 g / cm^3
# Si number density = 19.541790 Si / 1000 Ang^3
#
#
#
# Elastic Constant Matrix: (Units=GPa)
#
#
# Indices 1 2 3 4 5 6 
#
# 1 77.3967 13.9817 24.7887 0.0000 0.0000 0.0000
# 2 13.9817 41.4422 17.9111 0.0000 0.0000 0.0000
# 3 24.7887 17.9111 139.5672 0.0000 0.0000 0.0000
# 4 0.0000 0.0000 0.0000 24.5539 0.0000 0.0000
# 5 0.0000 0.0000 0.0000 0.0000 25.3418 0.0000
# 6 0.0000 0.0000 0.0000 0.0000 0.0000 7.8497
#
#
#
# Elastic Compliance Matrix: (Units=1/GPa)
#
#
# Indices 1 2 3 4 5 6 
#
# 1 0.014283 -0.003941 -0.002031 0.000000 0.000000 0.000000
# 2 -0.003941 0.026634 -0.002718 0.000000 0.000000 0.000000
# 3 -0.002031 -0.002718 0.007875 0.000000 0.000000 0.000000
# 4 0.000000 0.000000 0.000000 0.040727 0.000000 0.000000
# 5 0.000000 0.000000 0.000000 0.000000 0.039460 0.000000
# 6 0.000000 0.000000 0.000000 0.000000 0.000000 0.127394
#
#
# Mechanical properties :
#
#
# Convention : Reuss Voigt Hill
#
# Bulk Modulus (GPa) = 31.83536 41.30766 36.57151
# Shear Modulus (GPa) = 17.59180 24.99739 21.29459
#
# Velocity S-wave (km/s) = 3.00361 3.58044 3.30463
# Velocity P-wave (km/s) = 5.32496 6.18682 5.77200
#
# Compressibility (1/GPa) = 0.03141161
#
# Stress axis : x y z
#
# Youngs Moduli (GPa) = 70.01391 37.54554 126.99115
#
# Poissons Ratio (x) = 0.14796 0.25792
# Poissons Ratio (y) = 0.27592 0.34518
# Poissons Ratio (z) = 0.14220 0.10205
#
# Static dielectric constant tensor:
#      x y z
#    x 3.724240 0.000000 0.000000 
#    y 0.000000 3.031200 0.000000 
#    z 0.000000 0.000000 3.882260 
# 
# 
# High freq. dielectric constant tensor:
#      x y z
#    x 1.774680 0.000000 0.000000 
#    y 0.000000 1.710860 0.000000 
#    z 0.000000 0.000000 1.787130 
# 
# From -- ./inp_files/31488.got.cif
#   From: 2010.03.12/outbox.cif.g09.slc.cpg/sg63_16_cif.got.tgz:31488.got - 2010.04.10 19:34:48.
