data_PCOD8259768
_publ_section_title
;
Structure prediction by ZEFSAII (Michael W. Deem and Ramdas Pophale) SiO2 
 PCOD8259768
Probable space group: C M C M
;
_chemical_formula_sum "Si O2"
_cell_formula_units_Z 96
_cell_length_a 19.611680
_cell_length_b 15.202779
_cell_length_c 15.230022
_cell_angle_alpha 90.000000
_cell_angle_beta 90.000000
_cell_angle_gamma 90.000000
_cell_volume 4540.862081
_symmetry_space_group_name_H-M "C M C M"
_symmetry_group_IT_number 63
_symmetry_cell_setting 'orthorhombic'
loop_
_space_group_symop_operation_xyz
x,y,z
-x,-y,1/2+z
x,-y,-z
-x,y,1/2-z
-x,-y,-z
x,y,1/2-z
-x,y,z
x,-y,1/2+z
1/2+x,1/2+y,z
1/2-x,1/2-y,1/2+z
1/2+x,1/2-y,-z
1/2-x,1/2+y,1/2-z
1/2-x,1/2-y,-z
1/2+x,1/2+y,1/2-z
1/2-x,1/2+y,z
1/2+x,1/2-y,1/2+z
loop_
_atom_site_type_symbol
_atom_site_label
_atom_site_fract_x
_atom_site_fract_y
_atom_site_fract_z
Si Si1 0.727853 0.160304 0.650602
Si Si2 0.074413 0.929578 0.250000
Si Si3 0.124739 0.812143 0.398810
Si Si4 0.667376 0.330873 0.588936
Si Si5 0.076079 0.629880 0.352248
Si Si6 0.418722 0.618208 0.250000
Si Si7 0.785763 0.539170 0.353353
O O1 0.698797 0.163226 0.750000
O O2 0.804382 0.196791 0.652749
O O3 0.687708 0.227467 0.587853
O O4 0.725527 0.060823 0.612860
O O5 0.080647 0.877147 0.340032
O O6 0.000000 0.970054 0.250000
O O7 0.116602 0.020321 0.250000
O O8 0.134617 0.853558 0.495140
O O9 0.086993 0.719099 0.406594
O O10 0.610002 0.337606 0.662594
O O11 0.733027 0.393803 0.601380
O O12 0.081300 0.654383 0.250000
O O13 0.135621 0.561443 0.377886
O O14 0.000000 0.591845 0.373942
O O15 0.500000 0.629125 0.250000
O O16 0.772920 0.545637 0.250000
#
# Coordination Sequence:
#
# PCOD8259768 Si02
#       7
#    16   8  16  16  16   8  16
#     4  11  21  39  66  94 129 168 215 272 322 387
#     4  11  24  43  66  95 127 165 217 272 331 394
#     4  12  23  38  65 101 125 164 218 275 334 380
#     4  12  24  43  64  95 134 169 219 271 324 392
#     4  10  20  38  63  93 130 166 213 276 331 381
#     4  11  26  45  64  89 132 181 215 260 330 400
#     4  10  21  38  65  97 126 170 218 269 326 383
#
# _framework density 21.141359000000001
#
# number of rings (size 3 to 8) (size 9 to 14) (size 15 to 20)
#    0.000    1.000    5.000    2.000    0.000    4.000 
#    0.000    2.500    0.000    1.000    0.000    0.000 
#    0.000    0.000    0.000    0.000    0.000    0.000 
#
# Total GULP energy -595054.998246 kJ/mol
# GULP energy per Si atom -12396.979130 kJ/mol
# Density = 2.109324 g / cm^3
# Si number density = 21.141359 Si / 1000 Ang^3
#
#
#
# Elastic Constant Matrix: (Units=GPa)
#
#
# Indices 1 2 3 4 5 6 
#
# 1 123.7456 35.7750 33.6110 0.0000 0.0000 0.0000
# 2 35.7750 118.5903 36.2659 0.0000 0.0000 0.0000
# 3 33.6110 36.2659 106.6350 0.0000 0.0000 0.0000
# 4 0.0000 0.0000 0.0000 8.4249 0.0000 0.0000
# 5 0.0000 0.0000 0.0000 0.0000 9.0565 0.0000
# 6 0.0000 0.0000 0.0000 0.0000 0.0000 19.0593
#
#
#
# Elastic Compliance Matrix: (Units=1/GPa)
#
#
# Indices 1 2 3 4 5 6 
#
# 1 0.009296 -0.002130 -0.002206 0.000000 0.000000 0.000000
# 2 -0.002130 0.009899 -0.002695 0.000000 0.000000 0.000000
# 3 -0.002206 -0.002695 0.010990 0.000000 0.000000 0.000000
# 4 0.000000 0.000000 0.000000 0.118695 0.000000 0.000000
# 5 0.000000 0.000000 0.000000 0.000000 0.110418 0.000000
# 6 0.000000 0.000000 0.000000 0.000000 0.000000 0.052468
#
#
# Mechanical properties :
#
#
# Convention : Reuss Voigt Hill
#
# Bulk Modulus (GPa) = 62.02282 62.25272 62.13777
# Shear Modulus (GPa) = 15.09654 23.52942 19.31298
#
# Velocity S-wave (km/s) = 2.67512 3.33972 3.02572
# Velocity P-wave (km/s) = 6.24040 6.66194 6.45461
#
# Compressibility (1/GPa) = 0.01612310
#
# Stress axis : x y z
#
# Youngs Moduli (GPa) = 107.57416 101.01897 90.99444
#
# Poissons Ratio (x) = 0.21515 0.20071
# Poissons Ratio (y) = 0.22911 0.24526
# Poissons Ratio (z) = 0.23728 0.27228
#
# Static dielectric constant tensor:
#      x y z
#    x 3.951000 0.000000 0.000000 
#    y 0.000000 3.868890 0.000000 
#    z 0.000000 0.000000 3.515210 
# 
# 
# High freq. dielectric constant tensor:
#      x y z
#    x 1.825920 0.000000 0.000000 
#    y 0.000000 1.828350 0.000000 
#    z 0.000000 0.000000 1.817940 
# 
# From -- ./inp_files/35433.got.cif
#   From: 2010.03.12/outbox.cif.g09.slc.cpg/sg63_18_cif.got.tgz:35433.got - 2010.04.10 19:34:48.
