data_PCOD8259635
_publ_section_title
;
Structure prediction by ZEFSAII (Michael W. Deem and Ramdas Pophale) SiO2 
 PCOD8259635
Probable space group: C M C M
;
_chemical_formula_sum "Si O2"
_cell_formula_units_Z 72
_cell_length_a 15.902979
_cell_length_b 8.665191
_cell_length_c 24.730420
_cell_angle_alpha 90.000000
_cell_angle_beta 90.000000
_cell_angle_gamma 90.000000
_cell_volume 3407.910005
_symmetry_space_group_name_H-M "C M C M"
_symmetry_group_IT_number 63
_symmetry_cell_setting 'orthorhombic'
loop_
_space_group_symop_operation_xyz
x,y,z
-x,-y,1/2+z
x,-y,-z
-x,y,1/2-z
-x,-y,-z
x,y,1/2-z
-x,y,z
x,-y,1/2+z
1/2+x,1/2+y,z
1/2-x,1/2-y,1/2+z
1/2+x,1/2-y,-z
1/2-x,1/2+y,1/2-z
1/2-x,1/2-y,-z
1/2+x,1/2+y,1/2-z
1/2-x,1/2+y,z
1/2+x,1/2-y,1/2+z
loop_
_atom_site_type_symbol
_atom_site_label
_atom_site_fract_x
_atom_site_fract_y
_atom_site_fract_z
Si Si1 0.500000 0.209195 0.651717
Si Si2 0.500000 0.553655 0.686221
Si Si3 0.500000 0.835988 0.028409
Si Si4 0.836501 0.245456 0.688496
Si Si5 0.325758 0.917730 0.151724
Si Si6 0.176491 0.337948 0.027850
O O1 0.500000 0.394328 0.653147
O O2 0.500000 0.135017 0.592485
O O3 0.586937 0.146106 0.678343
O O4 0.500000 0.516165 0.750000
O O5 0.417180 0.648036 0.668622
O O6 0.587608 0.748232 0.015044
O O7 0.500000 0.000000 0.000000
O O8 0.850806 0.299424 0.750000
O O9 0.753057 0.140955 0.686496
O O10 0.827293 0.396617 0.651350
O O11 0.309899 0.854116 0.091566
O O12 0.170506 0.500000 0.000000
O O13 0.250000 0.250000 0.000000
#
# Coordination Sequence:
#
# PCOD8259635 Si02
#       6
#     8   8   8  16  16  16
#     4  10  21  37  61  90 120 158 200 248 304 360
#     4  10  23  40  59  86 123 160 203 253 302 357
#     4   8  18  37  59  82 114 152 191 233 290 357
#     4  11  23  40  60  87 122 162 204 251 301 358
#     4  11  22  38  61  89 119 159 203 246 300 363
#     4  10  20  37  59  84 114 149 190 241 294 350
#
# _framework density 21.127317999999999
#
# number of rings (size 3 to 8) (size 9 to 14) (size 15 to 20)
#    0.000    1.778    0.000    4.000    0.000    5.333 
#    0.000    3.889    0.000    0.000    0.000    0.000 
#    0.000    0.000    0.000    0.000    0.000    0.000 
#
# Total GULP energy -446142.692524 kJ/mol
# GULP energy per Si atom -12392.852570 kJ/mol
# Density = 2.107923 g / cm^3
# Si number density = 21.127318 Si / 1000 Ang^3
#
#
#
# Elastic Constant Matrix: (Units=GPa)
#
#
# Indices 1 2 3 4 5 6 
#
# 1 215.1351 60.8167 24.3782 0.0000 0.0000 0.0000
# 2 60.8167 114.7342 22.3520 0.0000 0.0000 0.0000
# 3 24.3782 22.3520 64.6498 0.0000 0.0000 0.0000
# 4 0.0000 0.0000 0.0000 34.0679 0.0000 0.0000
# 5 0.0000 0.0000 0.0000 0.0000 31.6767 0.0000
# 6 0.0000 0.0000 0.0000 0.0000 0.0000 33.0341
#
#
#
# Elastic Compliance Matrix: (Units=1/GPa)
#
#
# Indices 1 2 3 4 5 6 
#
# 1 0.005546 -0.002715 -0.001153 0.000000 0.000000 0.000000
# 2 -0.002715 0.010675 -0.002667 0.000000 0.000000 0.000000
# 3 -0.001153 -0.002667 0.016825 0.000000 0.000000 0.000000
# 4 0.000000 0.000000 0.000000 0.029353 0.000000 0.000000
# 5 0.000000 0.000000 0.000000 0.000000 0.031569 0.000000
# 6 0.000000 0.000000 0.000000 0.000000 0.000000 0.030272
#
#
# Mechanical properties :
#
#
# Convention : Reuss Voigt Hill
#
# Bulk Modulus (GPa) = 50.05972 67.73478 58.89725
# Shear Modulus (GPa) = 34.72997 38.88722 36.80859
#
# Velocity S-wave (km/s) = 4.05883 4.29489 4.17853
# Velocity P-wave (km/s) = 6.76101 7.53158 7.15667
#
# Compressibility (1/GPa) = 0.01997614
#
# Stress axis : x y z
#
# Youngs Moduli (GPa) = 180.29424 93.67953 59.43687
#
# Poissons Ratio (x) = 0.25438 0.06851
# Poissons Ratio (y) = 0.48958 0.15850
# Poissons Ratio (z) = 0.20781 0.24982
#
# Static dielectric constant tensor:
#      x y z
#    x 3.925090 0.000000 0.000000 
#    y 0.000000 3.535390 0.000000 
#    z 0.000000 0.000000 3.684530 
# 
# 
# High freq. dielectric constant tensor:
#      x y z
#    x 1.865880 0.000000 0.000000 
#    y 0.000000 1.807200 0.000000 
#    z 0.000000 0.000000 1.816360 
# 
# From -- ./inp_files/69078.got.cif
#   From: 2010.03.12/outbox.cif.g09.slc.cpg/sg63_35_cif.got.tgz:69078.got - 2010.04.10 19:34:48.
