data_PCOD8259788
_publ_section_title
;
Structure prediction by ZEFSAII (Michael W. Deem and Ramdas Pophale) SiO2 
 PCOD8259788
Probable space group: C M C M
;
_chemical_formula_sum "Si O2"
_cell_formula_units_Z 88
_cell_length_a 21.886280
_cell_length_b 9.108495
_cell_length_c 22.213884
_cell_angle_alpha 90.000000
_cell_angle_beta 90.000000
_cell_angle_gamma 90.000000
_cell_volume 4428.361588
_symmetry_space_group_name_H-M "C M C M"
_symmetry_group_IT_number 63
_symmetry_cell_setting 'orthorhombic'
loop_
_space_group_symop_operation_xyz
x,y,z
-x,-y,1/2+z
x,-y,-z
-x,y,1/2-z
-x,-y,-z
x,y,1/2-z
-x,y,z
x,-y,1/2+z
1/2+x,1/2+y,z
1/2-x,1/2-y,1/2+z
1/2+x,1/2-y,-z
1/2-x,1/2+y,1/2-z
1/2-x,1/2-y,-z
1/2+x,1/2+y,1/2-z
1/2-x,1/2+y,z
1/2+x,1/2-y,1/2+z
loop_
_atom_site_type_symbol
_atom_site_label
_atom_site_fract_x
_atom_site_fract_y
_atom_site_fract_z
Si Si1 0.000000 0.617185 0.750000
Si Si2 0.354186 0.055747 0.124332
Si Si3 0.735377 0.621285 0.046011
Si Si4 0.566731 0.162342 0.025993
Si Si5 0.500000 0.371169 0.655746
Si Si6 0.117261 0.767796 0.908579
Si Si7 0.102448 0.374624 0.750000
Si Si8 0.500000 0.371505 0.250000
O O1 0.000000 0.720921 0.692559
O O2 0.059690 0.516832 0.750000
O O3 0.291498 0.068214 0.087482
O O4 0.403448 0.159832 0.091597
O O5 0.352209 0.117595 0.192359
O O6 0.377953 0.888271 0.125019
O O7 0.682799 0.653041 0.095489
O O8 0.712676 0.500000 0.000000
O O9 0.750000 0.750000 0.000000
O O10 0.500000 0.234193 0.032306
O O11 0.607237 0.254771 0.980149
O O12 0.561574 0.000000 0.000000
O O13 0.437644 0.366733 0.617199
O O14 0.500000 0.522411 0.692221
O O15 0.061219 0.227422 0.750000
#
# Coordination Sequence:
#
# PCOD8259788 Si02
#       8
#     4  16  16  16   8  16   8   4
#     4  10  20  38  72  94 122 172 226 264 318 398
#     4  11  22  39  66  99 130 177 234 272 326 403
#     4  12  23  42  66  98 139 182 219 272 346 406
#     4   9  17  29  56  98 128 151 206 280 328 378
#     4  11  22  44  68  98 135 174 221 278 341 399
#     4  11  21  39  69 101 130 171 225 279 336 407
#     4  11  24  42  68  98 127 178 229 279 324 396
#     4  10  28  46  60  98 144 180 212 282 364 396
#
# _framework density 19.871908999999999
#
# number of rings (size 3 to 8) (size 9 to 14) (size 15 to 20)
#    0.000    1.273    6.364    0.545    3.818    1.455 
#    0.000    3.182    0.000    0.000    0.000    0.000 
#    0.000    0.000    0.000    0.000    0.000    0.000 
#
# Total GULP energy -545326.951036 kJ/mol
# GULP energy per Si atom -12393.794342 kJ/mol
# Density = 1.982668 g / cm^3
# Si number density = 19.871909 Si / 1000 Ang^3
#
#
#
# Elastic Constant Matrix: (Units=GPa)
#
#
# Indices 1 2 3 4 5 6 
#
# 1 111.3583 23.8013 35.5705 0.0000 0.0000 0.0000
# 2 23.8013 83.9440 33.3048 0.0000 0.0000 0.0000
# 3 35.5705 33.3048 126.0663 0.0000 0.0000 0.0000
# 4 0.0000 0.0000 0.0000 21.1219 0.0000 0.0000
# 5 0.0000 0.0000 0.0000 0.0000 22.1707 0.0000
# 6 0.0000 0.0000 0.0000 0.0000 0.0000 28.1967
#
#
#
# Elastic Compliance Matrix: (Units=1/GPa)
#
#
# Indices 1 2 3 4 5 6 
#
# 1 0.010146 -0.001945 -0.002349 0.000000 0.000000 0.000000
# 2 -0.001945 0.013680 -0.003065 0.000000 0.000000 0.000000
# 3 -0.002349 -0.003065 0.009405 0.000000 0.000000 0.000000
# 4 0.000000 0.000000 0.000000 0.047344 0.000000 0.000000
# 5 0.000000 0.000000 0.000000 0.000000 0.045104 0.000000
# 6 0.000000 0.000000 0.000000 0.000000 0.000000 0.035465
#
#
# Mechanical properties :
#
#
# Convention : Reuss Voigt Hill
#
# Bulk Modulus (GPa) = 54.01636 56.30242 55.15939
# Shear Modulus (GPa) = 27.46731 29.54399 28.50565
#
# Velocity S-wave (km/s) = 3.72185 3.85999 3.79155
# Velocity P-wave (km/s) = 6.76098 6.94695 6.85460
#
# Compressibility (1/GPa) = 0.01851291
#
# Stress axis : x y z
#
# Youngs Moduli (GPa) = 98.56078 73.09760 106.32703
#
# Poissons Ratio (x) = 0.14216 0.24976
# Poissons Ratio (y) = 0.19168 0.32593
# Poissons Ratio (z) = 0.23152 0.22407
#
# Static dielectric constant tensor:
#      x y z
#    x 3.744120 0.000000 0.000000 
#    y 0.000000 3.385920 0.000000 
#    z 0.000000 0.000000 3.590130 
# 
# 
# High freq. dielectric constant tensor:
#      x y z
#    x 1.779710 0.000000 0.000000 
#    y 0.000000 1.761340 0.000000 
#    z 0.000000 0.000000 1.768440 
# 
# From -- ./inp_files/57433.got.cif
#   From: 2010.03.12/outbox.cif.g09.slc.cpg/sg63_29_cif.got.tgz:57433.got - 2010.04.10 19:34:48.
