data_PCOD8259515
_publ_section_title
;
Structure prediction by ZEFSAII (Michael W. Deem and Ramdas Pophale) SiO2 
 PCOD8259515
Probable space group: C M C M
;
_chemical_formula_sum "Si O2"
_cell_formula_units_Z 80
_cell_length_a 28.581496
_cell_length_b 8.645322
_cell_length_c 16.656953
_cell_angle_alpha 90.000000
_cell_angle_beta 90.000000
_cell_angle_gamma 90.000000
_cell_volume 4115.870392
_symmetry_space_group_name_H-M "C M C M"
_symmetry_group_IT_number 63
_symmetry_cell_setting 'orthorhombic'
loop_
_space_group_symop_operation_xyz
x,y,z
-x,-y,1/2+z
x,-y,-z
-x,y,1/2-z
-x,-y,-z
x,y,1/2-z
-x,y,z
x,-y,1/2+z
1/2+x,1/2+y,z
1/2-x,1/2-y,1/2+z
1/2+x,1/2-y,-z
1/2-x,1/2+y,1/2-z
1/2-x,1/2-y,-z
1/2+x,1/2+y,1/2-z
1/2-x,1/2+y,z
1/2+x,1/2-y,1/2+z
loop_
_atom_site_type_symbol
_atom_site_label
_atom_site_fract_x
_atom_site_fract_y
_atom_site_fract_z
Si Si1 0.628420 0.607757 0.425316
Si Si2 0.946028 0.306444 0.341066
Si Si3 0.051130 0.652650 0.154907
Si Si4 0.854498 0.811963 0.157177
Si Si5 0.300821 0.818126 0.513268
O O1 0.615793 0.500000 0.500000
O O2 0.581276 0.686874 0.396062
O O3 0.650249 0.496298 0.356495
O O4 0.665677 0.738828 0.447898
O O5 0.927066 0.295222 0.250000
O O6 0.938485 0.478982 0.376083
O O7 0.000000 0.258883 0.344194
O O8 0.047959 0.645220 0.250000
O O9 0.092982 0.764690 0.127886
O O10 0.000000 0.708981 0.121786
O O11 0.845393 0.770383 0.250000
O O12 0.817082 0.718570 0.104129
O O13 0.250000 0.750000 0.500000
O O14 0.300661 0.000000 0.500000
#
# Coordination Sequence:
#
# PCOD8259515 Si02
#       5
#    16  16  16  16  16
#     4  10  21  35  54  80 111 146 181 227 283 336
#     4   9  17  31  51  76 109 149 191 231 272 323
#     4   8  15  29  51  79 110 144 182 225 271 318
#     4  10  20  36  59  87 116 147 189 232 274 331
#     4  11  23  43  64  82 111 147 182 229 289 341
#
# _framework density 19.436959000000002
#
# number of rings (size 3 to 8) (size 9 to 14) (size 15 to 20)
#    0.000    2.400    0.000    4.800    0.000    1.200 
#    0.000   11.000    0.000   10.800    0.000    0.000 
#    0.000    0.000    0.000    0.000    0.000    0.000 
#
# Total GULP energy -495910.930351 kJ/mol
# GULP energy per Si atom -12397.773259 kJ/mol
# Density = 1.939272 g / cm^3
# Si number density = 19.436959 Si / 1000 Ang^3
#
#
#
# Elastic Constant Matrix: (Units=GPa)
#
#
# Indices 1 2 3 4 5 6 
#
# 1 118.9558 67.6446 61.0826 0.0000 0.0000 0.0000
# 2 67.6446 143.4073 44.9945 0.0000 0.0000 0.0000
# 3 61.0826 44.9945 74.5851 0.0000 0.0000 0.0000
# 4 0.0000 0.0000 0.0000 26.1944 0.0000 0.0000
# 5 0.0000 0.0000 0.0000 0.0000 29.9484 0.0000
# 6 0.0000 0.0000 0.0000 0.0000 0.0000 36.2705
#
#
#
# Elastic Compliance Matrix: (Units=1/GPa)
#
#
# Indices 1 2 3 4 5 6 
#
# 1 0.016454 -0.004358 -0.010846 0.000000 0.000000 0.000000
# 2 -0.004358 0.009756 -0.002316 0.000000 0.000000 0.000000
# 3 -0.010846 -0.002316 0.023687 0.000000 0.000000 0.000000
# 4 0.000000 0.000000 0.000000 0.038176 0.000000 0.000000
# 5 0.000000 0.000000 0.000000 0.000000 0.033391 0.000000
# 6 0.000000 0.000000 0.000000 0.000000 0.000000 0.027571
#
#
# Mechanical properties :
#
#
# Convention : Reuss Voigt Hill
#
# Bulk Modulus (GPa) = 67.31182 76.04350 71.67766
# Shear Modulus (GPa) = 26.45116 29.36444 27.90780
#
# Velocity S-wave (km/s) = 3.69300 3.89106 3.79332
# Velocity P-wave (km/s) = 7.27257 7.70683 7.49285
#
# Compressibility (1/GPa) = 0.01485623
#
# Stress axis : x y z
#
# Youngs Moduli (GPa) = 60.77427 102.50550 42.21678
#
# Poissons Ratio (x) = 0.44676 0.45789
# Poissons Ratio (y) = 0.26488 0.09777
# Poissons Ratio (z) = 0.65917 0.23738
#
# Static dielectric constant tensor:
#      x y z
#    x 3.760260 0.000000 0.000000 
#    y 0.000000 3.757020 0.000000 
#    z 0.000000 0.000000 3.475570 
# 
# 
# High freq. dielectric constant tensor:
#      x y z
#    x 1.751280 0.000000 0.000000 
#    y 0.000000 1.765070 0.000000 
#    z 0.000000 0.000000 1.743190 
# 
# From -- ./inp_files/48770.got.cif
#   From: 2010.03.12/outbox.cif.g09.slc.cpg/sg63_25_cif.got.tgz:48770.got - 2010.04.10 19:34:48.
