data_PCOD8259370
_publ_section_title
;
Structure prediction by ZEFSAII (Michael W. Deem and Ramdas Pophale) SiO2 
 PCOD8259370
Probable space group: C M C M
;
_chemical_formula_sum "Si O2"
_cell_formula_units_Z 72
_cell_length_a 10.340166
_cell_length_b 13.201067
_cell_length_c 27.491046
_cell_angle_alpha 90.000000
_cell_angle_beta 90.000000
_cell_angle_gamma 90.000000
_cell_volume 3752.561432
_symmetry_space_group_name_H-M "C M C M"
_symmetry_group_IT_number 63
_symmetry_cell_setting 'orthorhombic'
loop_
_space_group_symop_operation_xyz
x,y,z
-x,-y,1/2+z
x,-y,-z
-x,y,1/2-z
-x,-y,-z
x,y,1/2-z
-x,y,z
x,-y,1/2+z
1/2+x,1/2+y,z
1/2-x,1/2-y,1/2+z
1/2+x,1/2-y,-z
1/2-x,1/2+y,1/2-z
1/2-x,1/2-y,-z
1/2+x,1/2+y,1/2-z
1/2-x,1/2+y,z
1/2+x,1/2-y,1/2+z
loop_
_atom_site_type_symbol
_atom_site_label
_atom_site_fract_x
_atom_site_fract_y
_atom_site_fract_z
Si Si1 0.144842 0.078656 0.750000
Si Si2 0.262981 0.000000 0.500000
Si Si3 0.644552 0.695857 0.531843
Si Si4 0.146548 0.751568 0.750000
Si Si5 0.642145 0.880071 0.909714
Si Si6 0.854352 0.914500 0.669144
O O1 0.164620 0.013208 0.798262
O O2 0.000000 0.125408 0.750000
O O3 0.251948 0.163044 0.750000
O O4 0.176175 0.076085 0.533465
O O5 0.348083 0.064553 0.462186
O O6 0.500000 0.708769 0.510017
O O7 0.750000 0.750000 0.500000
O O8 0.651961 0.757139 0.583216
O O9 0.171007 0.816365 0.798242
O O10 0.000000 0.709167 0.750000
O O11 0.500000 0.906108 0.888093
O O12 0.753232 0.919274 0.874475
O O13 0.000000 0.911549 0.647627
#
# Coordination Sequence:
#
# PCOD8259370 Si02
#       6
#     8   8  16   8  16  16
#     4   9  19  37  60  84 110 141 177 217 264 322
#     4  10  20  36  56  76 106 146 186 228 274 322
#     4   9  19  34  52  74 101 135 176 219 263 312
#     4   9  19  37  58  80 108 141 175 215 268 324
#     4  10  21  36  54  79 109 141 181 228 272 316
#     4   9  20  38  56  78 111 145 176 215 267 328
#
# _framework density 19.186895
#
# number of rings (size 3 to 8) (size 9 to 14) (size 15 to 20)
#    0.000    2.667    0.000    2.000    0.000    8.889 
#    0.000    8.889    0.000    0.000    0.000    0.000 
#    0.000    0.000    0.000    0.000    0.000    0.000 
#
# Total GULP energy -446023.046811 kJ/mol
# GULP energy per Si atom -12389.529078 kJ/mol
# Density = 1.914322 g / cm^3
# Si number density = 19.186895 Si / 1000 Ang^3
#
#
#
# Elastic Constant Matrix: (Units=GPa)
#
#
# Indices 1 2 3 4 5 6 
#
# 1 159.0889 57.7708 53.7524 0.0000 0.0000 0.0000
# 2 57.7708 104.8763 22.8090 0.0000 0.0000 0.0000
# 3 53.7524 22.8090 79.6653 0.0000 0.0000 0.0000
# 4 0.0000 0.0000 0.0000 9.4421 0.0000 0.0000
# 5 0.0000 0.0000 0.0000 0.0000 35.2222 0.0000
# 6 0.0000 0.0000 0.0000 0.0000 0.0000 31.3665
#
#
#
# Elastic Compliance Matrix: (Units=1/GPa)
#
#
# Indices 1 2 3 4 5 6 
#
# 1 0.009564 -0.004122 -0.005273 0.000000 0.000000 0.000000
# 2 -0.004122 0.011944 -0.000639 0.000000 0.000000 0.000000
# 3 -0.005273 -0.000639 0.016293 0.000000 0.000000 0.000000
# 4 0.000000 0.000000 0.000000 0.105908 0.000000 0.000000
# 5 0.000000 0.000000 0.000000 0.000000 0.028391 0.000000
# 6 0.000000 0.000000 0.000000 0.000000 0.000000 0.031881
#
#
# Mechanical properties :
#
#
# Convention : Reuss Voigt Hill
#
# Bulk Modulus (GPa) = 56.38656 68.03277 62.20967
# Shear Modulus (GPa) = 21.74279 29.15938 25.45109
#
# Velocity S-wave (km/s) = 3.36997 3.90263 3.64604
# Velocity P-wave (km/s) = 6.67788 7.47277 7.08648
#
# Compressibility (1/GPa) = 0.01773472
#
# Stress axis : x y z
#
# Youngs Moduli (GPa) = 104.55704 83.72172 61.37466
#
# Poissons Ratio (x) = 0.34506 0.32364
# Poissons Ratio (y) = 0.43094 0.03921
# Poissons Ratio (z) = 0.55135 0.05349
#
# Static dielectric constant tensor:
#      x y z
#    x 3.614290 0.000000 0.000000 
#    y 0.000000 3.878630 0.000000 
#    z 0.000000 0.000000 3.247180 
# 
# 
# High freq. dielectric constant tensor:
#      x y z
#    x 1.760880 0.000000 0.000000 
#    y 0.000000 1.750990 0.000000 
#    z 0.000000 0.000000 1.718300 
# 
# From -- ./inp_files/68033.got.cif
#   From: 2010.03.12/outbox.cif.g09.slc.cpg/sg63_35_cif.got.tgz:68033.got - 2010.04.10 19:34:48.
