data_PCOD8259858
_publ_section_title
;
Structure prediction by ZEFSAII (Michael W. Deem and Ramdas Pophale) SiO2 
 PCOD8259858
Probable space group: C M C M
;
_chemical_formula_sum "Si O2"
_cell_formula_units_Z 96
_cell_length_a 7.747175
_cell_length_b 28.580460
_cell_length_c 23.282680
_cell_angle_alpha 90.000000
_cell_angle_beta 90.000000
_cell_angle_gamma 90.000000
_cell_volume 5155.200370
_symmetry_space_group_name_H-M "C M C M"
_symmetry_group_IT_number 63
_symmetry_cell_setting 'orthorhombic'
loop_
_space_group_symop_operation_xyz
x,y,z
-x,-y,1/2+z
x,-y,-z
-x,y,1/2-z
-x,-y,-z
x,y,1/2-z
-x,y,z
x,-y,1/2+z
1/2+x,1/2+y,z
1/2-x,1/2-y,1/2+z
1/2+x,1/2-y,-z
1/2-x,1/2+y,1/2-z
1/2-x,1/2-y,-z
1/2+x,1/2+y,1/2-z
1/2-x,1/2+y,z
1/2+x,1/2-y,1/2+z
loop_
_atom_site_type_symbol
_atom_site_label
_atom_site_fract_x
_atom_site_fract_y
_atom_site_fract_z
Si Si1 0.190041 0.301694 0.012259
Si Si2 0.000000 0.748471 0.182607
Si Si3 0.203358 0.052046 0.992295
Si Si4 0.802754 0.181414 0.184819
Si Si5 0.802866 0.129650 0.076619
Si Si6 0.500000 0.355156 0.181255
Si Si7 0.799397 0.375852 0.399248
O O1 0.193192 0.329443 0.952586
O O2 0.000000 0.297134 0.035907
O O3 0.250000 0.250000 0.000000
O O4 0.279757 0.332750 0.062319
O O5 0.174746 0.722106 0.162381
O O6 0.000000 0.801264 0.160360
O O7 0.000000 0.749717 0.250000
O O8 0.290247 0.077143 0.937723
O O9 0.000000 0.050452 0.981306
O O10 0.251500 0.079102 0.051867
O O11 0.279160 0.000000 0.000000
O O12 0.760169 0.166339 0.250000
O O13 0.775470 0.134976 0.145368
O O14 0.000000 0.200052 0.179411
O O15 0.000000 0.139436 0.059471
O O16 0.500000 0.361225 0.250000
O O17 0.325937 0.379450 0.156144
O O18 0.000000 0.369339 0.380025
#
# Coordination Sequence:
#
# PCOD8259858 Si02
#       7
#    16   8  16  16  16   8  16
#     4  10  21  31  47  74 106 144 175 217 275 321
#     4   9  20  34  50  73 100 144 188 218 259 308
#     4   9  17  34  60  85 111 141 178 225 280 341
#     4   9  18  32  49  71 103 140 179 222 263 312
#     4   9  18  30  47  74 103 135 176 214 264 324
#     4  11  24  40  59  79 109 152 194 234 274 318
#     4  10  22  38  56  83 113 143 186 232 280 337
#
# _framework density 18.621973000000001
#
# number of rings (size 3 to 8) (size 9 to 14) (size 15 to 20)
#    0.000    2.500    0.833    0.500    5.833    1.333 
#    0.000    1.667    0.000    1.000    0.000    0.000 
#    0.000    0.000    0.000    0.000    0.000    0.000 
#
# Total GULP energy -594671.651526 kJ/mol
# GULP energy per Si atom -12388.992740 kJ/mol
# Density = 1.857959 g / cm^3
# Si number density = 18.621973 Si / 1000 Ang^3
#
#
#
# Elastic Constant Matrix: (Units=GPa)
#
#
# Indices 1 2 3 4 5 6 
#
# 1 88.4097 32.3800 41.4292 0.0000 0.0000 0.0000
# 2 32.3800 124.6443 46.4566 0.0000 0.0000 0.0000
# 3 41.4292 46.4566 105.2920 0.0000 0.0000 0.0000
# 4 0.0000 0.0000 0.0000 19.0014 0.0000 0.0000
# 5 0.0000 0.0000 0.0000 0.0000 17.9390 0.0000
# 6 0.0000 0.0000 0.0000 0.0000 0.0000 18.9074
#
#
#
# Elastic Compliance Matrix: (Units=1/GPa)
#
#
# Indices 1 2 3 4 5 6 
#
# 1 0.014245 -0.001929 -0.004754 0.000000 0.000000 0.000000
# 2 -0.001929 0.009863 -0.003593 0.000000 0.000000 0.000000
# 3 -0.004754 -0.003593 0.012953 0.000000 0.000000 0.000000
# 4 0.000000 0.000000 0.000000 0.052628 0.000000 0.000000
# 5 0.000000 0.000000 0.000000 0.000000 0.055745 0.000000
# 6 0.000000 0.000000 0.000000 0.000000 0.000000 0.052889
#
#
# Mechanical properties :
#
#
# Convention : Reuss Voigt Hill
#
# Bulk Modulus (GPa) = 60.56883 62.09752 61.33317
# Shear Modulus (GPa) = 22.28387 24.37489 23.32938
#
# Velocity S-wave (km/s) = 3.46301 3.62184 3.54331
# Velocity P-wave (km/s) = 6.97036 7.13506 7.05319
#
# Compressibility (1/GPa) = 0.01651014
#
# Stress axis : x y z
#
# Youngs Moduli (GPa) = 70.19941 101.38951 77.20106
#
# Poissons Ratio (x) = 0.19555 0.36702
# Poissons Ratio (y) = 0.13539 0.27737
# Poissons Ratio (z) = 0.33373 0.36427
#
# Static dielectric constant tensor:
#      x y z
#    x 3.409800 0.000000 0.000000 
#    y 0.000000 3.385970 0.000000 
#    z 0.000000 0.000000 3.306550 
# 
# 
# High freq. dielectric constant tensor:
#      x y z
#    x 1.729750 0.000000 0.000000 
#    y 0.000000 1.694180 0.000000 
#    z 0.000000 0.000000 1.711010 
# 
# From -- ./inp_files/60342.got.cif
#   From: 2010.03.12/outbox.cif.g09.slc.cpg/sg63_31_cif.got.tgz:60342.got - 2010.04.10 19:34:48.
