data_PCOD8259403
_publ_section_title
;
Structure prediction by ZEFSAII (Michael W. Deem and Ramdas Pophale) SiO2 
 PCOD8259403
Probable space group: C M C M
;
_chemical_formula_sum "Si O2"
_cell_formula_units_Z 88
_cell_length_a 16.467616
_cell_length_b 30.425668
_cell_length_c 8.768386
_cell_angle_alpha 90.000000
_cell_angle_beta 90.000000
_cell_angle_gamma 90.000000
_cell_volume 4393.296489
_symmetry_space_group_name_H-M "C M C M"
_symmetry_group_IT_number 63
_symmetry_cell_setting 'orthorhombic'
loop_
_space_group_symop_operation_xyz
x,y,z
-x,-y,1/2+z
x,-y,-z
-x,y,1/2-z
-x,-y,-z
x,y,1/2-z
-x,y,z
x,-y,1/2+z
1/2+x,1/2+y,z
1/2-x,1/2-y,1/2+z
1/2+x,1/2-y,-z
1/2-x,1/2+y,1/2-z
1/2-x,1/2-y,-z
1/2+x,1/2+y,1/2-z
1/2-x,1/2+y,z
1/2+x,1/2-y,1/2+z
loop_
_atom_site_type_symbol
_atom_site_label
_atom_site_fract_x
_atom_site_fract_y
_atom_site_fract_z
Si Si1 0.000000 0.451355 0.431197
Si Si2 0.814142 0.882941 0.929161
Si Si3 0.645048 0.888722 0.068588
Si Si4 0.904544 0.042923 0.920008
Si Si5 0.404243 0.796262 0.419130
Si Si6 0.408834 0.701180 0.067711
O O1 0.000000 0.500000 0.500000
O O2 0.920414 0.424610 0.489397
O O3 0.000000 0.455614 0.250000
O O4 0.798969 0.882932 0.750000
O O5 0.843225 0.834788 0.987381
O O6 0.734511 0.901253 0.013528
O O7 0.885988 0.915685 0.973448
O O8 0.639273 0.886704 0.250000
O O9 0.628124 0.840061 0.995721
O O10 0.867210 0.048291 0.750000
O O11 0.000000 0.037727 0.907806
O O12 0.866125 0.000000 0.000000
O O13 0.366474 0.796218 0.250000
O O14 0.500000 0.800202 0.409600
O O15 0.381591 0.749330 0.498032
O O16 0.411705 0.703367 0.250000
O O17 0.500000 0.689447 0.008622
#
# Coordination Sequence:
#
# PCOD8259403 Si02
#       6
#     8  16  16  16  16  16
#     4  10  22  40  62  84 104 134 180 234 291 346
#     4  11  22  34  51  81 119 152 182 220 271 330
#     4  10  20  36  57  80 105 138 184 235 284 334
#     4  10  21  38  60  83 107 141 183 225 270 320
#     4   8  13  27  53  78 101 137 187 234 276 328
#     4   8  15  28  49  78 110 146 186 226 268 320
#
# _framework density 20.030515000000001
#
# number of rings (size 3 to 8) (size 9 to 14) (size 15 to 20)
#    0.000    2.545    0.909    2.727    0.000    4.000 
#    0.000    1.818    0.000    1.091    0.000    5.091 
#    0.000    0.000    0.000    0.000    0.000    0.000 
#
# Total GULP energy -545236.272351 kJ/mol
# GULP energy per Si atom -12391.733463 kJ/mol
# Density = 1.998492 g / cm^3
# Si number density = 20.030515 Si / 1000 Ang^3
#
#
#
# Elastic Constant Matrix: (Units=GPa)
#
#
# Indices 1 2 3 4 5 6 
#
# 1 70.3451 46.2880 22.6641 0.0000 0.0000 0.0000
# 2 46.2880 155.2630 32.6673 0.0000 0.0000 0.0000
# 3 22.6641 32.6673 25.5551 0.0000 0.0000 0.0000
# 4 0.0000 0.0000 0.0000 22.5025 0.0000 0.0000
# 5 0.0000 0.0000 0.0000 0.0000 21.5357 0.0000
# 6 0.0000 0.0000 0.0000 0.0000 0.0000 18.2251
#
#
#
# Elastic Compliance Matrix: (Units=1/GPa)
#
#
# Indices 1 2 3 4 5 6 
#
# 1 0.021007 -0.003205 -0.014534 0.000000 0.000000 0.000000
# 2 -0.003205 0.009299 -0.009045 0.000000 0.000000 0.000000
# 3 -0.014534 -0.009045 0.063583 0.000000 0.000000 0.000000
# 4 0.000000 0.000000 0.000000 0.044440 0.000000 0.000000
# 5 0.000000 0.000000 0.000000 0.000000 0.046435 0.000000
# 6 0.000000 0.000000 0.000000 0.000000 0.000000 0.054869
#
#
# Mechanical properties :
#
#
# Convention : Reuss Voigt Hill
#
# Bulk Modulus (GPa) = 24.80030 50.48912 37.64471
# Shear Modulus (GPa) = 16.30574 22.42224 19.36399
#
# Velocity S-wave (km/s) = 2.85624 3.34938 3.11259
# Velocity P-wave (km/s) = 4.82552 6.34181 5.63490
#
# Compressibility (1/GPa) = 0.04032210
#
# Stress axis : x y z
#
# Youngs Moduli (GPa) = 47.60316 107.53622 15.72747
#
# Poissons Ratio (x) = 0.34464 0.22858
# Poissons Ratio (y) = 0.15256 0.14225
# Poissons Ratio (z) = 0.69185 0.97266
#
# Static dielectric constant tensor:
#      x y z
#    x 3.444750 0.000000 0.000000 
#    y 0.000000 4.088760 0.000000 
#    z 0.000000 0.000000 3.251420 
# 
# 
# High freq. dielectric constant tensor:
#      x y z
#    x 1.767680 0.000000 0.000000 
#    y 0.000000 1.801090 0.000000 
#    z 0.000000 0.000000 1.735320 
# 
# From -- ./inp_files/6900.got.cif
#   From: 2010.03.12/outbox.cif.g09.slc.cpg/sg63_4_cif.got.tgz:6900.got - 2010.04.10 19:34:48.
