data_PCOD8259960
_publ_section_title
;
Structure prediction by ZEFSAII (Michael W. Deem and Ramdas Pophale) SiO2 
 PCOD8259960
Probable space group: C M C M
;
_chemical_formula_sum "Si O2"
_cell_formula_units_Z 96
_cell_length_a 9.267550
_cell_length_b 19.590749
_cell_length_c 28.691183
_cell_angle_alpha 90.000000
_cell_angle_beta 90.000000
_cell_angle_gamma 90.000000
_cell_volume 5209.120858
_symmetry_space_group_name_H-M "C M C M"
_symmetry_group_IT_number 63
_symmetry_cell_setting 'orthorhombic'
loop_
_space_group_symop_operation_xyz
x,y,z
-x,-y,1/2+z
x,-y,-z
-x,y,1/2-z
-x,-y,-z
x,y,1/2-z
-x,y,z
x,-y,1/2+z
1/2+x,1/2+y,z
1/2-x,1/2-y,1/2+z
1/2+x,1/2-y,-z
1/2-x,1/2+y,1/2-z
1/2-x,1/2-y,-z
1/2+x,1/2+y,1/2-z
1/2-x,1/2+y,z
1/2+x,1/2-y,1/2+z
loop_
_atom_site_type_symbol
_atom_site_label
_atom_site_fract_x
_atom_site_fract_y
_atom_site_fract_z
Si Si1 0.831958 0.255801 0.303081
Si Si2 0.663983 0.443144 0.965862
Si Si3 0.667685 0.877984 0.802869
Si Si4 0.669803 0.140896 0.616414
Si Si5 0.333851 0.690837 0.525796
Si Si6 0.668481 0.984628 0.878735
O O1 0.784988 0.273920 0.250000
O O2 0.751574 0.188331 0.321656
O O3 0.791930 0.319320 0.336052
O O4 0.000000 0.239357 0.305673
O O5 0.500000 0.462383 0.953057
O O6 0.755233 0.442000 0.919089
O O7 0.730604 0.500000 0.000000
O O8 0.675578 0.371394 0.990601
O O9 0.712676 0.893612 0.750000
O O10 0.500000 0.860862 0.807849
O O11 0.709320 0.946047 0.831094
O O12 0.500000 0.145556 0.604895
O O13 0.758379 0.173988 0.574511
O O14 0.721021 0.062905 0.623847
O O15 0.500000 0.711274 0.535392
O O16 0.250000 0.750000 0.500000
O O17 0.500000 0.982027 0.888796
#
# Coordination Sequence:
#
# PCOD8259960 Si02
#       6
#    16  16  16  16  16  16
#     4   9  19  36  57  80 108 144 183 224 271 324
#     4  10  21  39  58  78 108 146 182 220 271 323
#     4   9  19  36  56  81 112 143 179 224 274 326
#     4  10  21  37  56  82 113 144 184 228 273 324
#     4  11  24  40  58  81 111 146 184 227 275 327
#     4  10  21  35  56  84 110 143 183 225 271 320
#
# _framework density 18.429213000000001
#
# number of rings (size 3 to 8) (size 9 to 14) (size 15 to 20)
#    0.000    2.167    1.667    0.500    2.333    3.667 
#    0.000    3.333    0.000    0.000    0.000    7.000 
#    0.000    0.000    0.000    0.000    0.000    0.000 
#
# Total GULP energy -595284.479007 kJ/mol
# GULP energy per Si atom -12401.759979 kJ/mol
# Density = 1.838727 g / cm^3
# Si number density = 18.429213 Si / 1000 Ang^3
#
#
#
# Elastic Constant Matrix: (Units=GPa)
#
#
# Indices 1 2 3 4 5 6 
#
# 1 57.1334 46.6093 50.8724 0.0000 0.0000 0.0000
# 2 46.6093 106.5713 62.3805 0.0000 0.0000 0.0000
# 3 50.8724 62.3805 115.1909 0.0000 0.0000 0.0000
# 4 0.0000 0.0000 0.0000 36.4605 0.0000 0.0000
# 5 0.0000 0.0000 0.0000 0.0000 27.4469 0.0000
# 6 0.0000 0.0000 0.0000 0.0000 0.0000 30.4392
#
#
#
# Elastic Compliance Matrix: (Units=1/GPa)
#
#
# Indices 1 2 3 4 5 6 
#
# 1 0.033698 -0.008824 -0.010104 0.000000 0.000000 0.000000
# 2 -0.008824 0.016049 -0.004794 0.000000 0.000000 0.000000
# 3 -0.010104 -0.004794 0.015740 0.000000 0.000000 0.000000
# 4 0.000000 0.000000 0.000000 0.027427 0.000000 0.000000
# 5 0.000000 0.000000 0.000000 0.000000 0.036434 0.000000
# 6 0.000000 0.000000 0.000000 0.000000 0.000000 0.032852
#
#
# Mechanical properties :
#
#
# Convention : Reuss Voigt Hill
#
# Bulk Modulus (GPa) = 55.42345 66.51334 60.96839
# Shear Modulus (GPa) = 23.18500 26.80489 24.99494
#
# Velocity S-wave (km/s) = 3.55076 3.81790 3.68675
# Velocity P-wave (km/s) = 6.85197 7.45686 7.16080
#
# Compressibility (1/GPa) = 0.01804290
#
# Stress axis : x y z
#
# Youngs Moduli (GPa) = 29.67560 62.31051 63.53384
#
# Poissons Ratio (x) = 0.54981 0.64193
# Poissons Ratio (y) = 0.26185 0.30459
# Poissons Ratio (z) = 0.29983 0.29873
#
# Static dielectric constant tensor:
#      x y z
#    x 3.442640 0.000000 0.000000 
#    y 0.000000 3.553480 0.000000 
#    z 0.000000 0.000000 3.496730 
# 
# 
# High freq. dielectric constant tensor:
#      x y z
#    x 1.710880 0.000000 0.000000 
#    y 0.000000 1.721580 0.000000 
#    z 0.000000 0.000000 1.719980 
# 
# From -- ./inp_files/66938.got.cif
#   From: 2010.03.12/outbox.cif.g09.slc.cpg/sg63_34_cif.got.tgz:66938.got - 2010.04.10 19:34:48.
