data_PCOD8259010
_publ_section_title
;
Structure prediction by ZEFSAII (Michael W. Deem and Ramdas Pophale) SiO2 
 PCOD8259010
Probable space group: C M C M
;
_chemical_formula_sum "Si O2"
_cell_formula_units_Z 96
_cell_length_a 24.379748
_cell_length_b 13.145117
_cell_length_c 16.557109
_cell_angle_alpha 90.000000
_cell_angle_beta 90.000000
_cell_angle_gamma 90.000000
_cell_volume 5306.133544
_symmetry_space_group_name_H-M "C M C M"
_symmetry_group_IT_number 63
_symmetry_cell_setting 'orthorhombic'
loop_
_space_group_symop_operation_xyz
x,y,z
-x,-y,1/2+z
x,-y,-z
-x,y,1/2-z
-x,-y,-z
x,y,1/2-z
-x,y,z
x,-y,1/2+z
1/2+x,1/2+y,z
1/2-x,1/2-y,1/2+z
1/2+x,1/2-y,-z
1/2-x,1/2+y,1/2-z
1/2-x,1/2-y,-z
1/2+x,1/2+y,1/2-z
1/2-x,1/2+y,z
1/2+x,1/2-y,1/2+z
loop_
_atom_site_type_symbol
_atom_site_label
_atom_site_fract_x
_atom_site_fract_y
_atom_site_fract_z
Si Si1 0.200935 0.775959 0.559193
Si Si2 0.775175 0.029249 0.157274
Si Si3 0.836739 0.417852 0.343027
Si Si4 0.563911 0.726094 0.659991
Si Si5 0.863805 0.089126 0.945520
Si Si6 0.938868 0.451540 0.846222
O O1 0.250000 0.750000 0.500000
O O2 0.220560 0.855462 0.626934
O O3 0.176274 0.678792 0.603161
O O4 0.152989 0.821061 0.505052
O O5 0.794773 0.023067 0.250000
O O6 0.711830 0.999097 0.148323
O O7 0.811562 0.952688 0.104071
O O8 0.843800 0.383914 0.250000
O O9 0.892881 0.469193 0.376454
O O10 0.588605 0.722833 0.750000
O O11 0.500000 0.703958 0.661371
O O12 0.590544 0.633367 0.612477
O O13 0.575362 0.837816 0.621511
O O14 0.890053 0.000000 0.000000
O O15 0.938896 0.445676 0.750000
O O16 0.000000 0.484978 0.876228
#
# Coordination Sequence:
#
# PCOD8259010 Si02
#       6
#    16  16  16  16  16  16
#     4  11  22  36  50  76 114 146 174 220 273 331
#     4  10  21  36  54  78 106 139 186 227 264 324
#     4  10  20  34  56  81 106 145 186 218 267 327
#     4   9  18  35  59  84 107 138 184 230 269 315
#     4  10  21  36  53  77 111 146 176 221 279 323
#     4   8  16  32  54  81 108 132 172 226 267 306
#
# _framework density 18.092269999999999
#
# number of rings (size 3 to 8) (size 9 to 14) (size 15 to 20)
#    0.000    2.333    1.667    2.000    2.333    0.333 
#    0.000    0.833    0.000    3.000    0.000    9.333 
#    0.000    0.000    0.000    0.000    0.000    0.000 
#
# Total GULP energy -595089.404915 kJ/mol
# GULP energy per Si atom -12397.695936 kJ/mol
# Density = 1.805109 g / cm^3
# Si number density = 18.092270 Si / 1000 Ang^3
#
#
#
# Elastic Constant Matrix: (Units=GPa)
#
#
# Indices 1 2 3 4 5 6 
#
# 1 93.2717 74.2582 45.6327 0.0000 0.0000 0.0000
# 2 74.2582 124.3540 57.6372 0.0000 0.0000 0.0000
# 3 45.6327 57.6372 82.1429 0.0000 0.0000 0.0000
# 4 0.0000 0.0000 0.0000 36.3544 0.0000 0.0000
# 5 0.0000 0.0000 0.0000 0.0000 23.1121 0.0000
# 6 0.0000 0.0000 0.0000 0.0000 0.0000 28.7686
#
#
#
# Elastic Compliance Matrix: (Units=1/GPa)
#
#
# Indices 1 2 3 4 5 6 
#
# 1 0.021432 -0.010788 -0.004336 0.000000 0.000000 0.000000
# 2 -0.010788 0.017348 -0.006179 0.000000 0.000000 0.000000
# 3 -0.004336 -0.006179 0.018919 0.000000 0.000000 0.000000
# 4 0.000000 0.000000 0.000000 0.027507 0.000000 0.000000
# 5 0.000000 0.000000 0.000000 0.000000 0.043267 0.000000
# 6 0.000000 0.000000 0.000000 0.000000 0.000000 0.034760
#
#
# Mechanical properties :
#
#
# Convention : Reuss Voigt Hill
#
# Bulk Modulus (GPa) = 66.26539 72.75829 69.51184
# Shear Modulus (GPa) = 23.71120 25.79639 24.75380
#
# Velocity S-wave (km/s) = 3.62411 3.78011 3.70293
# Velocity P-wave (km/s) = 7.36329 7.70420 7.53567
#
# Compressibility (1/GPa) = 0.01509083
#
# Stress axis : x y z
#
# Youngs Moduli (GPa) = 46.65928 57.64396 52.85806
#
# Poissons Ratio (x) = 0.62188 0.22920
# Poissons Ratio (y) = 0.50338 0.32662
# Poissons Ratio (z) = 0.20232 0.35620
#
# Static dielectric constant tensor:
#      x y z
#    x 3.347450 0.000000 0.000000 
#    y 0.000000 3.365270 0.000000 
#    z 0.000000 0.000000 3.334860 
# 
# 
# High freq. dielectric constant tensor:
#      x y z
#    x 1.692000 0.000000 0.000000 
#    y 0.000000 1.704650 0.000000 
#    z 0.000000 0.000000 1.697350 
# 
# From -- ./inp_files/47980.got.cif
#   From: 2010.03.12/outbox.cif.g09.slc.cpg/sg63_24_cif.got.tgz:47980.got - 2010.04.10 19:34:48.
