data_PCOD8259388
_publ_section_title
;
Structure prediction by ZEFSAII (Michael W. Deem and Ramdas Pophale) SiO2 
 PCOD8259388
Probable space group: C M C M
;
_chemical_formula_sum "Si O2"
_cell_formula_units_Z 72
_cell_length_a 10.674299
_cell_length_b 32.047509
_cell_length_c 10.760566
_cell_angle_alpha 90.000000
_cell_angle_beta 90.000000
_cell_angle_gamma 90.000000
_cell_volume 3681.024920
_symmetry_space_group_name_H-M "C M C M"
_symmetry_group_IT_number 63
_symmetry_cell_setting 'orthorhombic'
loop_
_space_group_symop_operation_xyz
x,y,z
-x,-y,1/2+z
x,-y,-z
-x,y,1/2-z
-x,-y,-z
x,y,1/2-z
-x,y,z
x,-y,1/2+z
1/2+x,1/2+y,z
1/2-x,1/2-y,1/2+z
1/2+x,1/2-y,-z
1/2-x,1/2+y,1/2-z
1/2-x,1/2-y,-z
1/2+x,1/2+y,1/2-z
1/2-x,1/2+y,z
1/2+x,1/2-y,1/2+z
loop_
_atom_site_type_symbol
_atom_site_label
_atom_site_fract_x
_atom_site_fract_y
_atom_site_fract_z
Si Si1 0.643050 0.049393 0.000472
Si Si2 0.143893 0.591979 0.250000
Si Si3 0.138748 0.904459 0.110388
Si Si4 0.138848 0.775623 0.250000
Si Si5 0.778428 0.312505 0.750000
Si Si6 0.356518 0.683508 0.505149
O O1 0.500000 0.065341 0.971202
O O2 0.697895 0.069121 0.128139
O O3 0.746371 0.063020 0.899634
O O4 0.641659 0.000000 0.000000
O O5 0.161340 0.641738 0.250000
O O6 0.000000 0.580852 0.250000
O O7 0.139224 0.886885 0.250000
O O8 0.162486 0.865969 0.018874
O O9 0.000000 0.924393 0.082052
O O10 0.123309 0.725419 0.250000
O O11 0.206887 0.792366 0.123364
O O12 0.000000 0.795562 0.250000
O O13 0.699863 0.304167 0.626351
O O14 0.500000 0.696881 0.498766
#
# Coordination Sequence:
#
# PCOD8259388 Si02
#       6
#    16   8  16   8   8  16
#     4  10  22  39  60  84 116 155 193 239 296 354
#     4  10  21  37  54  83 116 147 188 238 291 352
#     4  10  20  37  61  85 114 153 194 238 289 346
#     4  10  21  37  56  79 112 155 191 230 292 357
#     4  12  20  34  58  84 110 148 188 246 285 347
#     4  10  20  36  56  81 113 148 190 236 288 351
#
# _framework density 19.559771000000001
#
# number of rings (size 3 to 8) (size 9 to 14) (size 15 to 20)
#    0.000    1.778    3.333    1.333    1.556    0.889 
#    0.000    0.556    0.000    1.333    0.000    0.000 
#    0.000    0.000    0.000    0.000    0.000    0.000 
#
# Total GULP energy -446043.834850 kJ/mol
# GULP energy per Si atom -12390.106524 kJ/mol
# Density = 1.951525 g / cm^3
# Si number density = 19.559771 Si / 1000 Ang^3
#
#
#
# Elastic Constant Matrix: (Units=GPa)
#
#
# Indices 1 2 3 4 5 6 
#
# 1 86.7350 28.8234 34.6551 0.0000 0.0000 0.0000
# 2 28.8234 84.3907 28.6100 0.0000 0.0000 0.0000
# 3 34.6551 28.6100 126.8965 0.0000 0.0000 0.0000
# 4 0.0000 0.0000 0.0000 26.0941 0.0000 0.0000
# 5 0.0000 0.0000 0.0000 0.0000 22.8706 0.0000
# 6 0.0000 0.0000 0.0000 0.0000 0.0000 27.3755
#
#
#
# Elastic Compliance Matrix: (Units=1/GPa)
#
#
# Indices 1 2 3 4 5 6 
#
# 1 0.013965 -0.003765 -0.002965 0.000000 0.000000 0.000000
# 2 -0.003765 0.013845 -0.002093 0.000000 0.000000 0.000000
# 3 -0.002965 -0.002093 0.009162 0.000000 0.000000 0.000000
# 4 0.000000 0.000000 0.000000 0.038323 0.000000 0.000000
# 5 0.000000 0.000000 0.000000 0.000000 0.043724 0.000000
# 6 0.000000 0.000000 0.000000 0.000000 0.000000 0.036529
#
#
# Mechanical properties :
#
#
# Convention : Reuss Voigt Hill
#
# Bulk Modulus (GPa) = 51.74291 53.57769 52.66030
# Shear Modulus (GPa) = 27.83398 28.99697 28.41548
#
# Velocity S-wave (km/s) = 3.77639 3.85448 3.81563
# Velocity P-wave (km/s) = 6.74729 6.87463 6.81126
#
# Compressibility (1/GPa) = 0.01932632
#
# Stress axis : x y z
#
# Youngs Moduli (GPa) = 71.60718 72.22759 109.14435
#
# Poissons Ratio (x) = 0.27190 0.32362
# Poissons Ratio (y) = 0.26957 0.22849
# Poissons Ratio (z) = 0.21232 0.15120
#
# Static dielectric constant tensor:
#      x y z
#    x 3.437380 0.000000 0.000000 
#    y 0.000000 3.333510 0.000000 
#    z 0.000000 0.000000 3.821030 
# 
# 
# High freq. dielectric constant tensor:
#      x y z
#    x 1.741590 0.000000 0.000000 
#    y 0.000000 1.755540 0.000000 
#    z 0.000000 0.000000 1.774130 
# 
# From -- ./inp_files/17656.got.cif
#   From: 2010.03.12/outbox.cif.g09.slc.cpg/sg63_9_cif.got.tgz:17656.got - 2010.04.10 19:34:48.
