data_PCOD8259852
_publ_section_title
;
Structure prediction by ZEFSAII (Michael W. Deem and Ramdas Pophale) SiO2 
 PCOD8259852
Probable space group: C M C M
;
_chemical_formula_sum "Si O2"
_cell_formula_units_Z 104
_cell_length_a 21.791940
_cell_length_b 9.455701
_cell_length_c 25.765036
_cell_angle_alpha 90.000000
_cell_angle_beta 90.000000
_cell_angle_gamma 90.000000
_cell_volume 5309.093562
_symmetry_space_group_name_H-M "C M C M"
_symmetry_group_IT_number 63
_symmetry_cell_setting 'orthorhombic'
loop_
_space_group_symop_operation_xyz
x,y,z
-x,-y,1/2+z
x,-y,-z
-x,y,1/2-z
-x,-y,-z
x,y,1/2-z
-x,y,z
x,-y,1/2+z
1/2+x,1/2+y,z
1/2-x,1/2-y,1/2+z
1/2+x,1/2-y,-z
1/2-x,1/2+y,1/2-z
1/2-x,1/2-y,-z
1/2+x,1/2+y,1/2-z
1/2-x,1/2+y,z
1/2+x,1/2-y,1/2+z
loop_
_atom_site_type_symbol
_atom_site_label
_atom_site_fract_x
_atom_site_fract_y
_atom_site_fract_z
Si Si1 0.666140 0.530232 0.388641
Si Si2 0.692348 0.970773 0.385643
Si Si3 0.873566 0.735169 0.084670
Si Si4 0.000000 0.364128 0.462557
Si Si5 0.500000 0.899003 0.609648
Si Si6 0.370403 0.764864 0.311173
Si Si7 0.633802 0.765962 0.467146
Si Si8 0.000000 0.394003 0.189630
O O1 0.735044 0.473523 0.388368
O O2 0.624495 0.390796 0.391001
O O3 0.647391 0.615273 0.337083
O O4 0.656098 0.623147 0.439989
O O5 0.673850 0.885695 0.334109
O O6 0.662524 0.900397 0.437253
O O7 0.667994 0.130842 0.380779
O O8 0.943038 0.682608 0.085908
O O9 0.844641 0.735150 0.026793
O O10 0.000000 0.500000 0.500000
O O11 0.059910 0.268186 0.468431
O O12 0.000000 0.433875 0.405990
O O13 0.500000 0.938870 0.670562
O O14 0.359411 0.752690 0.250000
O O15 0.439925 0.803970 0.326540
O O16 0.000000 0.416710 0.250000
#
# Coordination Sequence:
#
# PCOD8259852 Si02
#       8
#    16  16  16   8   8  16  16   8
#     4  11  26  39  54  91 132 163 202 247 311 376
#     4  11  22  40  62  86 120 164 215 256 292 360
#     4  12  22  36  60  91 123 163 203 256 310 351
#     4  12  18  37  61  89 112 160 225 258 290 359
#     4  12  20  36  61  91 125 151 199 271 307 352
#     4  10  22  44  70  90 116 159 205 257 319 380
#     4  11  22  38  61  85 124 171 209 250 298 367
#     4  10  20  41  72  95 110 149 209 258 312 377
#
# _framework density 19.589030000000001
#
# number of rings (size 3 to 8) (size 9 to 14) (size 15 to 20)
#    0.000    0.923    4.615    3.692    0.000    5.538 
#    0.000    3.077    0.000    0.000    0.000    0.000 
#    0.000    0.000    0.000    0.000    0.000    0.000 
#
# Total GULP energy -644793.938976 kJ/mol
# GULP energy per Si atom -12399.883442 kJ/mol
# Density = 1.954444 g / cm^3
# Si number density = 19.589030 Si / 1000 Ang^3
#
#
#
# Elastic Constant Matrix: (Units=GPa)
#
#
# Indices 1 2 3 4 5 6 
#
# 1 110.5206 27.0845 41.5416 0.0000 0.0000 0.0000
# 2 27.0845 127.0027 56.8740 0.0000 0.0000 0.0000
# 3 41.5416 56.8740 109.3297 0.0000 0.0000 0.0000
# 4 0.0000 0.0000 0.0000 26.9457 0.0000 0.0000
# 5 0.0000 0.0000 0.0000 0.0000 20.9442 0.0000
# 6 0.0000 0.0000 0.0000 0.0000 0.0000 -8.4772
#
#
#
# Elastic Compliance Matrix: (Units=1/GPa)
#
#
# Indices 1 2 3 4 5 6 
#
# 1 0.010590 -0.000595 -0.003714 0.000000 0.000000 0.000000
# 2 -0.000595 0.010299 -0.005131 0.000000 0.000000 0.000000
# 3 -0.003714 -0.005131 0.013227 0.000000 0.000000 0.000000
# 4 0.000000 0.000000 0.000000 0.037112 0.000000 0.000000
# 5 0.000000 0.000000 0.000000 0.000000 0.047746 0.000000
# 6 0.000000 0.000000 0.000000 0.000000 0.000000 -0.117964
#
#
# Mechanical properties :
#
#
# Convention : Reuss Voigt Hill
#
# Bulk Modulus (GPa) = 65.64015 66.42816 66.03416
# Shear Modulus (GPa) = 200.24638 22.63941 111.44290
#
# Velocity S-wave (km/s) = 10.12154 3.40327 7.55076
# Velocity P-wave (km/s) = 13.04514 7.03047 10.47862
#
# Compressibility (1/GPa) = 0.01523458
#
# Stress axis : x y z
#
# Youngs Moduli (GPa) = 94.42855 97.10018 75.60133
#
# Poissons Ratio (x) = 0.05778 0.28080
# Poissons Ratio (y) = 0.05619 0.38793
# Poissons Ratio (z) = 0.35073 0.49825
#
# Static dielectric constant tensor:
#      x y z
#    x 3.735330 0.000000 0.000000 
#    y 0.000000 3.586880 0.000000 
#    z 0.000000 0.000000 3.704150 
# 
# 
# High freq. dielectric constant tensor:
#      x y z
#    x 1.772410 0.000000 0.000000 
#    y 0.000000 1.759770 0.000000 
#    z 0.000000 0.000000 1.759920 
# 
# From -- ./inp_files/70421.got.cif
#   From: 2010.03.12/outbox.cif.g09.slc.cpg/sg63_36_cif.got.tgz:70421.got - 2010.04.10 19:34:48.
