data_PCOD8259761
_publ_section_title
;
Structure prediction by ZEFSAII (Michael W. Deem and Ramdas Pophale) SiO2 
 PCOD8259761
Probable space group: C M C M
;
_chemical_formula_sum "Si O2"
_cell_formula_units_Z 80
_cell_length_a 25.299107
_cell_length_b 9.809352
_cell_length_c 17.384310
_cell_angle_alpha 90.000000
_cell_angle_beta 90.000000
_cell_angle_gamma 90.000000
_cell_volume 4314.226764
_symmetry_space_group_name_H-M "C M C M"
_symmetry_group_IT_number 63
_symmetry_cell_setting 'orthorhombic'
loop_
_space_group_symop_operation_xyz
x,y,z
-x,-y,1/2+z
x,-y,-z
-x,y,1/2-z
-x,-y,-z
x,y,1/2-z
-x,y,z
x,-y,1/2+z
1/2+x,1/2+y,z
1/2-x,1/2-y,1/2+z
1/2+x,1/2-y,-z
1/2-x,1/2+y,1/2-z
1/2-x,1/2-y,-z
1/2+x,1/2+y,1/2-z
1/2-x,1/2+y,z
1/2+x,1/2-y,1/2+z
loop_
_atom_site_type_symbol
_atom_site_label
_atom_site_fract_x
_atom_site_fract_y
_atom_site_fract_z
Si Si1 0.701369 0.083664 0.340748
Si Si2 0.315934 0.404017 0.601240
Si Si3 0.060577 0.343014 0.018252
Si Si4 0.626052 0.835295 0.335741
Si Si5 0.151636 0.813182 0.441403
O O1 0.704720 0.108005 0.250000
O O2 0.758271 0.044619 0.374645
O O3 0.681501 0.221174 0.379823
O O4 0.662475 0.960829 0.362348
O O5 0.338932 0.301923 0.664991
O O6 0.354201 0.535975 0.594836
O O7 0.314048 0.323824 0.519721
O O8 0.077112 0.318411 0.106593
O O9 0.000000 0.300493 0.007529
O O10 0.070483 0.500000 0.000000
O O11 0.094060 0.248729 0.960302
O O12 0.603802 0.859661 0.250000
#
# Coordination Sequence:
#
# PCOD8259761 Si02
#       5
#    16  16  16  16  16
#     4  11  21  34  54  81 115 153 189 223 268 329
#     4  10  21  34  54  82 116 150 181 222 274 336
#     4  10  20  38  63  83 104 139 187 239 282 322
#     4  10  21  36  55  84 115 145 184 228 275 329
#     4  10  21  37  55  83 111 144 189 231 274 328
#
# _framework density 18.543299000000001
#
# number of rings (size 3 to 8) (size 9 to 14) (size 15 to 20)
#    0.000    1.800    2.000    2.400    0.000    8.400 
#    0.000    8.000    0.000    0.600    0.000    0.000 
#    0.000    0.000    0.000    0.000    0.000    0.000 
#
# Total GULP energy -496062.328263 kJ/mol
# GULP energy per Si atom -12401.558207 kJ/mol
# Density = 1.850109 g / cm^3
# Si number density = 18.543299 Si / 1000 Ang^3
#
#
#
# Elastic Constant Matrix: (Units=GPa)
#
#
# Indices 1 2 3 4 5 6 
#
# 1 100.6561 40.5732 41.3070 0.0000 0.0000 0.0000
# 2 40.5732 109.5492 34.5893 0.0000 0.0000 0.0000
# 3 41.3070 34.5893 70.2774 0.0000 0.0000 0.0000
# 4 0.0000 0.0000 0.0000 20.3831 0.0000 0.0000
# 5 0.0000 0.0000 0.0000 0.0000 16.8577 0.0000
# 6 0.0000 0.0000 0.0000 0.0000 0.0000 19.0069
#
#
#
# Elastic Compliance Matrix: (Units=1/GPa)
#
#
# Indices 1 2 3 4 5 6 
#
# 1 0.013899 -0.003041 -0.006673 0.000000 0.000000 0.000000
# 2 -0.003041 0.011473 -0.003860 0.000000 0.000000 0.000000
# 3 -0.006673 -0.003860 0.020051 0.000000 0.000000 0.000000
# 4 0.000000 0.000000 0.000000 0.049060 0.000000 0.000000
# 5 0.000000 0.000000 0.000000 0.000000 0.059320 0.000000
# 6 0.000000 0.000000 0.000000 0.000000 0.000000 0.052613
#
#
# Mechanical properties :
#
#
# Convention : Reuss Voigt Hill
#
# Bulk Modulus (GPa) = 54.71424 57.04686 55.88055
# Shear Modulus (GPa) = 20.86338 22.18375 21.52356
#
# Velocity S-wave (km/s) = 3.35792 3.46254 3.41063
# Velocity P-wave (km/s) = 6.67865 6.84226 6.76095
#
# Compressibility (1/GPa) = 0.01827678
#
# Stress axis : x y z
#
# Youngs Moduli (GPa) = 71.94836 87.15994 49.87291
#
# Poissons Ratio (x) = 0.26504 0.33279
# Poissons Ratio (y) = 0.21878 0.19249
# Poissons Ratio (z) = 0.48009 0.33640
#
# Static dielectric constant tensor:
#      x y z
#    x 3.200220 0.000000 0.000000 
#    y 0.000000 3.533710 0.000000 
#    z 0.000000 0.000000 3.407700 
# 
# 
# High freq. dielectric constant tensor:
#      x y z
#    x 1.695000 0.000000 0.000000 
#    y 0.000000 1.732500 0.000000 
#    z 0.000000 0.000000 1.723200 
# 
# From -- ./inp_files/48804.got.cif
#   From: 2010.03.12/outbox.cif.g09.slc.cpg/sg63_25_cif.got.tgz:48804.got - 2010.04.10 19:34:48.
