data_PCOD8259286
_publ_section_title
;
Structure prediction by ZEFSAII (Michael W. Deem and Ramdas Pophale) SiO2 
 PCOD8259286
Probable space group: C M C M
;
_chemical_formula_sum "Si O2"
_cell_formula_units_Z 96
_cell_length_a 8.840078
_cell_length_b 30.262981
_cell_length_c 19.053315
_cell_angle_alpha 90.000000
_cell_angle_beta 90.000000
_cell_angle_gamma 90.000000
_cell_volume 5097.278347
_symmetry_space_group_name_H-M "C M C M"
_symmetry_group_IT_number 63
_symmetry_cell_setting 'orthorhombic'
loop_
_space_group_symop_operation_xyz
x,y,z
-x,-y,1/2+z
x,-y,-z
-x,y,1/2-z
-x,-y,-z
x,y,1/2-z
-x,y,z
x,-y,1/2+z
1/2+x,1/2+y,z
1/2-x,1/2-y,1/2+z
1/2+x,1/2-y,-z
1/2-x,1/2+y,1/2-z
1/2-x,1/2-y,-z
1/2+x,1/2+y,1/2-z
1/2-x,1/2+y,z
1/2+x,1/2-y,1/2+z
loop_
_atom_site_type_symbol
_atom_site_label
_atom_site_fract_x
_atom_site_fract_y
_atom_site_fract_z
Si Si1 0.677915 0.613948 0.931514
Si Si2 0.820175 0.781163 0.828015
Si Si3 0.326723 0.182419 0.667410
Si Si4 0.678901 0.019765 0.573641
Si Si5 0.822807 0.051526 0.168440
Si Si6 0.820447 0.862853 0.914510
O O1 0.500000 0.605626 0.933593
O O2 0.716959 0.648978 0.871835
O O3 0.758051 0.568315 0.913827
O O4 0.737968 0.632357 0.006062
O O5 0.755748 0.790730 0.750000
O O6 0.773665 0.732047 0.852851
O O7 0.753139 0.817621 0.881518
O O8 0.000000 0.783931 0.824777
O O9 0.309002 0.174827 0.750000
O O10 0.500000 0.174308 0.644316
O O11 0.500000 0.021772 0.574152
O O12 0.739845 0.000000 0.500000
O O13 0.735019 0.990159 0.637791
O O14 0.784716 0.055753 0.250000
O O15 0.762269 0.095665 0.130656
O O16 0.000000 0.044690 0.154817
O O17 0.000000 0.860925 0.911803
#
# Coordination Sequence:
#
# PCOD8259286 Si02
#       6
#    16  16  16  16  16  16
#     4  11  22  35  56  82 110 143 178 224 277 324
#     4   8  14  28  52  79 108 144 182 219 263 316
#     4   9  19  36  56  78 107 144 186 229 267 313
#     4  11  23  39  58  78 106 146 185 222 271 326
#     4  10  20  35  58  86 113 142 178 224 274 324
#     4   9  17  30  51  82 114 141 175 219 266 321
#
# _framework density 18.833580999999999
#
# number of rings (size 3 to 8) (size 9 to 14) (size 15 to 20)
#    0.000    2.333    1.667    2.500    0.000    4.667 
#    0.000    0.000    0.000    2.000    0.000    2.333 
#    0.000    0.000    0.000    0.000    0.000    0.000 
#
# Total GULP energy -595244.255049 kJ/mol
# GULP energy per Si atom -12400.921980 kJ/mol
# Density = 1.879071 g / cm^3
# Si number density = 18.833581 Si / 1000 Ang^3
#
#
#
# Elastic Constant Matrix: (Units=GPa)
#
#
# Indices 1 2 3 4 5 6 
#
# 1 33.8729 24.9994 28.4255 0.0000 0.0000 0.0000
# 2 24.9994 154.8282 68.5489 0.0000 0.0000 0.0000
# 3 28.4255 68.5489 96.4799 0.0000 0.0000 0.0000
# 4 0.0000 0.0000 0.0000 39.1962 0.0000 0.0000
# 5 0.0000 0.0000 0.0000 0.0000 21.4964 0.0000
# 6 0.0000 0.0000 0.0000 0.0000 0.0000 12.5985
#
#
#
# Elastic Compliance Matrix: (Units=1/GPa)
#
#
# Indices 1 2 3 4 5 6 
#
# 1 0.039556 -0.001790 -0.010382 0.000000 0.000000 0.000000
# 2 -0.001790 0.009504 -0.006225 0.000000 0.000000 0.000000
# 3 -0.010382 -0.006225 0.017847 0.000000 0.000000 0.000000
# 4 0.000000 0.000000 0.000000 0.025513 0.000000 0.000000
# 5 0.000000 0.000000 0.000000 0.000000 0.046519 0.000000
# 6 0.000000 0.000000 0.000000 0.000000 0.000000 0.079374
#
#
# Mechanical properties :
#
#
# Convention : Reuss Voigt Hill
#
# Bulk Modulus (GPa) = 33.21003 58.79207 46.00105
# Shear Modulus (GPa) = 18.85758 25.53870 22.19814
#
# Velocity S-wave (km/s) = 3.16772 3.68641 3.43687
# Velocity P-wave (km/s) = 5.57234 7.02879 6.34251
#
# Compressibility (1/GPa) = 0.03011138
#
# Stress axis : x y z
#
# Youngs Moduli (GPa) = 25.28062 105.21958 56.03295
#
# Poissons Ratio (x) = 0.18837 0.58175
# Poissons Ratio (y) = 0.04526 0.34881
# Poissons Ratio (z) = 0.26247 0.65500
#
# Static dielectric constant tensor:
#      x y z
#    x 3.062870 0.000000 0.000000 
#    y 0.000000 3.663970 0.000000 
#    z 0.000000 0.000000 3.556810 
# 
# 
# High freq. dielectric constant tensor:
#      x y z
#    x 1.695040 0.000000 0.000000 
#    y 0.000000 1.745790 0.000000 
#    z 0.000000 0.000000 1.735070 
# 
# From -- ./inp_files/51399.got.cif
#   From: 2010.03.12/outbox.cif.g09.slc.cpg/sg63_26_cif.got.tgz:51399.got - 2010.04.10 19:34:48.
