data_PCOD8259127
_publ_section_title
;
Structure prediction by ZEFSAII (Michael W. Deem and Ramdas Pophale) SiO2 
 PCOD8259127
Probable space group: C M C M
;
_chemical_formula_sum "Si O2"
_cell_formula_units_Z 96
_cell_length_a 27.467019
_cell_length_b 20.648552
_cell_length_c 9.045182
_cell_angle_alpha 90.000000
_cell_angle_beta 90.000000
_cell_angle_gamma 90.000000
_cell_volume 5130.012691
_symmetry_space_group_name_H-M "C M C M"
_symmetry_group_IT_number 63
_symmetry_cell_setting 'orthorhombic'
loop_
_space_group_symop_operation_xyz
x,y,z
-x,-y,1/2+z
x,-y,-z
-x,y,1/2-z
-x,-y,-z
x,y,1/2-z
-x,y,z
x,-y,1/2+z
1/2+x,1/2+y,z
1/2-x,1/2-y,1/2+z
1/2+x,1/2-y,-z
1/2-x,1/2+y,1/2-z
1/2-x,1/2-y,-z
1/2+x,1/2+y,1/2-z
1/2-x,1/2+y,z
1/2+x,1/2-y,1/2+z
loop_
_atom_site_type_symbol
_atom_site_label
_atom_site_fract_x
_atom_site_fract_y
_atom_site_fract_z
Si Si1 0.945571 0.813779 0.925429
Si Si2 0.272803 0.435312 0.922836
Si Si3 0.115567 0.690213 0.575261
Si Si4 0.218839 0.305844 0.574374
Si Si5 0.944656 0.435068 0.076632
Si Si6 0.115750 0.065133 0.424344
O O1 0.947583 0.816691 0.750000
O O2 0.919556 0.748072 0.975462
O O3 0.915791 0.875263 0.986581
O O4 0.000000 0.815028 0.991985
O O5 0.268375 0.446812 0.750000
O O6 0.240917 0.374673 0.975023
O O7 0.328452 0.421753 0.969890
O O8 0.252502 0.500000 0.000000
O O9 0.126762 0.693003 0.750000
O O10 0.164383 0.697881 0.483553
O O11 0.089519 0.623866 0.528080
O O12 0.220580 0.297045 0.750000
O O13 0.250000 0.250000 0.500000
O O14 0.942231 0.446105 0.250000
O O15 0.000000 0.420011 0.026206
O O16 0.924825 0.500000 0.000000
O O17 0.109987 0.057471 0.250000
O O18 0.095995 0.000000 0.500000
#
# Coordination Sequence:
#
# PCOD8259127 Si02
#       6
#    16  16  16  16  16  16
#     4   9  17  31  53  77 101 134 175 214 251 298
#     4   9  19  35  54  76 103 136 173 213 257 309
#     4  10  20  35  55  78 104 135 176 222 264 309
#     4  11  23  38  56  79 107 139 177 219 266 318
#     4   9  18  33  54  79 107 141 179 219 265 317
#     4   9  17  31  51  74 100 130 165 205 250 298
#
# _framework density 18.713403
#
# number of rings (size 3 to 8) (size 9 to 14) (size 15 to 20)
#    0.000    2.500    0.000    2.000    0.000    7.667 
#    0.000    7.500    0.000    2.500    0.000    0.000 
#    0.000    0.000    0.000    0.000    0.000    0.000 
#
# Total GULP energy -595286.113886 kJ/mol
# GULP energy per Si atom -12401.794039 kJ/mol
# Density = 1.867081 g / cm^3
# Si number density = 18.713403 Si / 1000 Ang^3
#
#
#
# Elastic Constant Matrix: (Units=GPa)
#
#
# Indices 1 2 3 4 5 6 
#
# 1 102.7305 60.9702 26.6587 0.0000 0.0000 0.0000
# 2 60.9702 146.2326 35.8115 0.0000 0.0000 0.0000
# 3 26.6587 35.8115 32.7508 0.0000 0.0000 0.0000
# 4 0.0000 0.0000 0.0000 33.3981 0.0000 0.0000
# 5 0.0000 0.0000 0.0000 0.0000 26.9243 0.0000
# 6 0.0000 0.0000 0.0000 0.0000 0.0000 38.9431
#
#
#
# Elastic Compliance Matrix: (Units=1/GPa)
#
#
# Indices 1 2 3 4 5 6 
#
# 1 0.013971 -0.004152 -0.006833 0.000000 0.000000 0.000000
# 2 -0.004152 0.010573 -0.008182 0.000000 0.000000 0.000000
# 3 -0.006833 -0.008182 0.045041 0.000000 0.000000 0.000000
# 4 0.000000 0.000000 0.000000 0.029942 0.000000 0.000000
# 5 0.000000 0.000000 0.000000 0.000000 0.037141 0.000000
# 6 0.000000 0.000000 0.000000 0.000000 0.000000 0.025679
#
#
# Mechanical properties :
#
#
# Convention : Reuss Voigt Hill
#
# Bulk Modulus (GPa) = 31.99618 58.73273 45.36446
# Shear Modulus (GPa) = 23.68571 30.40466 27.04519
#
# Velocity S-wave (km/s) = 3.56154 4.03520 3.80574
# Velocity P-wave (km/s) = 5.83505 7.29136 6.60348
#
# Compressibility (1/GPa) = 0.03125373
#
# Stress axis : x y z
#
# Youngs Moduli (GPa) = 71.57450 94.57888 22.20181
#
# Poissons Ratio (x) = 0.39269 0.15169
# Poissons Ratio (y) = 0.29718 0.18165
# Poissons Ratio (z) = 0.48903 0.77381
#
# Static dielectric constant tensor:
#      x y z
#    x 3.499770 0.000000 0.000000 
#    y 0.000000 3.687740 0.000000 
#    z 0.000000 0.000000 3.191220 
# 
# 
# High freq. dielectric constant tensor:
#      x y z
#    x 1.729110 0.000000 0.000000 
#    y 0.000000 1.743560 0.000000 
#    z 0.000000 0.000000 1.700480 
# 
# From -- ./inp_files/10469.got.cif
#   From: 2010.03.12/outbox.cif.g09.slc.cpg/sg63_6_cif.got.tgz:10469.got - 2010.04.10 19:34:48.
