data_PCOD8259113
_publ_section_title
;
Structure prediction by ZEFSAII (Michael W. Deem and Ramdas Pophale) SiO2 
 PCOD8259113
Probable space group: C M C M
;
_chemical_formula_sum "Si O2"
_cell_formula_units_Z 112
_cell_length_a 13.559969
_cell_length_b 31.069428
_cell_length_c 14.172682
_cell_angle_alpha 90.000000
_cell_angle_beta 90.000000
_cell_angle_gamma 90.000000
_cell_volume 5970.957737
_symmetry_space_group_name_H-M "C M C M"
_symmetry_group_IT_number 63
_symmetry_cell_setting 'orthorhombic'
loop_
_space_group_symop_operation_xyz
x,y,z
-x,-y,1/2+z
x,-y,-z
-x,y,1/2-z
-x,-y,-z
x,y,1/2-z
-x,y,z
x,-y,1/2+z
1/2+x,1/2+y,z
1/2-x,1/2-y,1/2+z
1/2+x,1/2-y,-z
1/2-x,1/2+y,1/2-z
1/2-x,1/2-y,-z
1/2+x,1/2+y,1/2-z
1/2-x,1/2+y,z
1/2+x,1/2-y,1/2+z
loop_
_atom_site_type_symbol
_atom_site_label
_atom_site_fract_x
_atom_site_fract_y
_atom_site_fract_z
Si Si1 0.887897 0.343341 0.484724
Si Si2 0.886829 0.198106 0.854966
Si Si3 0.887656 0.104594 0.147425
Si Si4 0.110773 0.246198 0.458133
Si Si5 0.616947 0.548449 0.523482
Si Si6 0.265460 0.386464 0.139258
Si Si7 0.749776 0.683784 0.144782
O O1 0.883123 0.296687 0.435077
O O2 0.835112 0.379441 0.419933
O O3 0.839308 0.337238 0.587214
O O4 0.000000 0.358763 0.499065
O O5 0.853230 0.213546 0.750000
O O6 0.831075 0.155008 0.887161
O O7 0.000000 0.184402 0.852966
O O8 0.868888 0.236501 0.930140
O O9 0.873975 0.082357 0.250000
O O10 0.838021 0.150300 0.145083
O O11 0.000000 0.114068 0.124074
O O12 0.845274 0.073243 0.068833
O O13 0.199658 0.226058 0.399146
O O14 0.000000 0.229597 0.431731
O O15 0.648504 0.500000 0.500000
O O16 0.500000 0.551580 0.544470
O O17 0.677485 0.569604 0.610153
O O18 0.241490 0.389425 0.250000
O O19 0.788277 0.693961 0.250000
#
# Coordination Sequence:
#
# PCOD8259113 Si02
#       7
#    16  16  16  16  16  16  16
#     4  11  24  40  55  76 110 153 201 249 289 322
#     4   9  17  30  53  83 114 149 189 235 285 340
#     4   9  17  31  53  82 114 145 176 213 265 335
#     4  10  20  35  54  79 113 147 188 241 293 345
#     4  10  20  35  59  91 124 148 169 210 274 346
#     4  11  22  37  58  82 112 152 194 232 277 337
#     4  11  21  34  56  81 108 146 190 235 285 339
#
# _framework density 18.757459999999998
#
# number of rings (size 3 to 8) (size 9 to 14) (size 15 to 20)
#    0.000    1.857    2.857    1.286    0.000    6.286 
#    0.000    4.286    0.000    0.429    0.000    0.000 
#    0.000    0.000    0.000    0.000    0.000    0.000 
#
# Total GULP energy -694197.935161 kJ/mol
# GULP energy per Si atom -12396.391699 kJ/mol
# Density = 1.871477 g / cm^3
# Si number density = 18.757460 Si / 1000 Ang^3
#
#
#
# Elastic Constant Matrix: (Units=GPa)
#
#
# Indices 1 2 3 4 5 6 
#
# 1 79.4212 15.4824 47.3830 0.0000 0.0000 0.0000
# 2 15.4824 58.5517 21.3029 0.0000 0.0000 0.0000
# 3 47.3830 21.3029 110.8086 0.0000 0.0000 0.0000
# 4 0.0000 0.0000 0.0000 10.3932 0.0000 0.0000
# 5 0.0000 0.0000 0.0000 0.0000 46.6572 0.0000
# 6 0.0000 0.0000 0.0000 0.0000 0.0000 24.3905
#
#
#
# Elastic Compliance Matrix: (Units=1/GPa)
#
#
# Indices 1 2 3 4 5 6 
#
# 1 0.017119 -0.002003 -0.006935 0.000000 0.000000 0.000000
# 2 -0.002003 0.018598 -0.002719 0.000000 0.000000 0.000000
# 3 -0.006935 -0.002719 0.012513 0.000000 0.000000 0.000000
# 4 0.000000 0.000000 0.000000 0.096216 0.000000 0.000000
# 5 0.000000 0.000000 0.000000 0.000000 0.021433 0.000000
# 6 0.000000 0.000000 0.000000 0.000000 0.000000 0.041000
#
#
# Mechanical properties :
#
#
# Convention : Reuss Voigt Hill
#
# Bulk Modulus (GPa) = 40.13633 46.34646 43.24139
# Shear Modulus (GPa) = 20.96448 27.26239 24.11344
#
# Velocity S-wave (km/s) = 3.34677 3.81650 3.58933
# Velocity P-wave (km/s) = 6.03146 6.64702 6.34671
#
# Compressibility (1/GPa) = 0.02491509
#
# Stress axis : x y z
#
# Youngs Moduli (GPa) = 58.41382 53.76964 79.91801
#
# Poissons Ratio (x) = 0.10773 0.55425
# Poissons Ratio (y) = 0.11703 0.21727
# Poissons Ratio (z) = 0.40511 0.14618
#
# Static dielectric constant tensor:
#      x y z
#    x 3.473850 0.000000 0.000000 
#    y 0.000000 3.232410 0.000000 
#    z 0.000000 0.000000 3.705930 
# 
# 
# High freq. dielectric constant tensor:
#      x y z
#    x 1.722570 0.000000 0.000000 
#    y 0.000000 1.697030 0.000000 
#    z 0.000000 0.000000 1.734520 
# 
# From -- ./inp_files/32574.got.cif
#   From: 2010.03.12/outbox.cif.g09.slc.cpg/sg63_17_cif.got.tgz:32574.got - 2010.04.10 19:34:48.
