data_PCOD8259443
_publ_section_title
;
Structure prediction by ZEFSAII (Michael W. Deem and Ramdas Pophale) SiO2 
 PCOD8259443
Probable space group: C M C M
;
_chemical_formula_sum "Si O2"
_cell_formula_units_Z 80
_cell_length_a 13.501985
_cell_length_b 16.558285
_cell_length_c 19.008284
_cell_angle_alpha 90.000000
_cell_angle_beta 90.000000
_cell_angle_gamma 90.000000
_cell_volume 4249.676650
_symmetry_space_group_name_H-M "C M C M"
_symmetry_group_IT_number 63
_symmetry_cell_setting 'orthorhombic'
loop_
_space_group_symop_operation_xyz
x,y,z
-x,-y,1/2+z
x,-y,-z
-x,y,1/2-z
-x,-y,-z
x,y,1/2-z
-x,y,z
x,-y,1/2+z
1/2+x,1/2+y,z
1/2-x,1/2-y,1/2+z
1/2+x,1/2-y,-z
1/2-x,1/2+y,1/2-z
1/2-x,1/2-y,-z
1/2+x,1/2+y,1/2-z
1/2-x,1/2+y,z
1/2+x,1/2-y,1/2+z
loop_
_atom_site_type_symbol
_atom_site_label
_atom_site_fract_x
_atom_site_fract_y
_atom_site_fract_z
Si Si1 0.612394 0.445089 0.167610
Si Si2 0.217173 0.779335 0.167111
Si Si3 0.886343 0.235200 0.435162
Si Si4 0.201383 0.061730 0.061901
Si Si5 0.613099 0.841094 0.572447
O O1 0.614456 0.459900 0.250000
O O2 0.500000 0.435007 0.140357
O O3 0.672860 0.365696 0.146254
O O4 0.663297 0.523342 0.134191
O O5 0.232388 0.769804 0.250000
O O6 0.322835 0.769915 0.129364
O O7 0.141154 0.710502 0.141375
O O8 0.857738 0.143686 0.453190
O O9 0.864920 0.286843 0.504471
O O10 0.000000 0.240628 0.412017
O O11 0.318805 0.079184 0.068379
O O12 0.178151 0.000000 0.000000
O O13 0.500000 0.869808 0.577333
#
# Coordination Sequence:
#
# PCOD8259443 Si02
#       5
#    16  16  16  16  16
#     4  10  21  36  54  78 108 140 173 214 268 323
#     4  10  20  36  58  81 107 140 180 223 264 314
#     4  10  21  37  57  80 108 143 181 222 266 315
#     4  11  21  34  54  81 109 137 174 219 267 317
#     4  10  21  37  56  78 106 142 183 222 262 314
#
# _framework density 18.824963
#
# number of rings (size 3 to 8) (size 9 to 14) (size 15 to 20)
#    0.000    1.800    0.000    6.000    0.000    8.400 
#    0.000    1.000    0.000    1.200    0.000    0.000 
#    0.000    0.000    0.000    0.000    0.000    0.000 
#
# Total GULP energy -496170.184035 kJ/mol
# GULP energy per Si atom -12404.254601 kJ/mol
# Density = 1.878212 g / cm^3
# Si number density = 18.824963 Si / 1000 Ang^3
#
#
#
# Elastic Constant Matrix: (Units=GPa)
#
#
# Indices 1 2 3 4 5 6 
#
# 1 154.8923 70.4483 62.2350 0.0000 0.0000 0.0000
# 2 70.4483 97.4580 46.6764 0.0000 0.0000 0.0000
# 3 62.2350 46.6764 79.7574 0.0000 0.0000 0.0000
# 4 0.0000 0.0000 0.0000 30.2568 0.0000 0.0000
# 5 0.0000 0.0000 0.0000 0.0000 29.1569 0.0000
# 6 0.0000 0.0000 0.0000 0.0000 0.0000 22.5150
#
#
#
# Elastic Compliance Matrix: (Units=1/GPa)
#
#
# Indices 1 2 3 4 5 6 
#
# 1 0.011133 -0.005401 -0.005526 0.000000 0.000000 0.000000
# 2 -0.005401 0.016877 -0.005663 0.000000 0.000000 0.000000
# 3 -0.005526 -0.005663 0.020164 0.000000 0.000000 0.000000
# 4 0.000000 0.000000 0.000000 0.033050 0.000000 0.000000
# 5 0.000000 0.000000 0.000000 0.000000 0.034297 0.000000
# 6 0.000000 0.000000 0.000000 0.000000 0.000000 0.044415
#
#
# Mechanical properties :
#
#
# Convention : Reuss Voigt Hill
#
# Bulk Modulus (GPa) = 66.69108 76.75853 71.72481
# Shear Modulus (GPa) = 25.23797 26.56894 25.90345
#
# Velocity S-wave (km/s) = 3.66548 3.76089 3.71349
# Velocity P-wave (km/s) = 7.30877 7.72803 7.52132
#
# Compressibility (1/GPa) = 0.01499451
#
# Stress axis : x y z
#
# Youngs Moduli (GPa) = 89.82341 59.25282 49.59275
#
# Poissons Ratio (x) = 0.32001 0.27407
# Poissons Ratio (y) = 0.48511 0.28082
# Poissons Ratio (z) = 0.49640 0.33553
#
# Static dielectric constant tensor:
#      x y z
#    x 3.634040 0.000000 0.000000 
#    y 0.000000 3.449430 0.000000 
#    z 0.000000 0.000000 3.380450 
# 
# 
# High freq. dielectric constant tensor:
#      x y z
#    x 1.742140 0.000000 0.000000 
#    y 0.000000 1.728610 0.000000 
#    z 0.000000 0.000000 1.733800 
# 
# From -- ./inp_files/43974.got.cif
#   From: 2010.03.12/outbox.cif.g09.slc.cpg/sg63_22_cif.got.tgz:43974.got - 2010.04.10 19:34:48.
