data_PCOD8259162
_publ_section_title
;
Structure prediction by ZEFSAII (Michael W. Deem and Ramdas Pophale) SiO2 
 PCOD8259162
Probable space group: C M C M
;
_chemical_formula_sum "Si O2"
_cell_formula_units_Z 104
_cell_length_a 26.361007
_cell_length_b 23.859577
_cell_length_c 8.866540
_cell_angle_alpha 90.000000
_cell_angle_beta 90.000000
_cell_angle_gamma 90.000000
_cell_volume 5576.720955
_symmetry_space_group_name_H-M "C M C M"
_symmetry_group_IT_number 63
_symmetry_cell_setting 'orthorhombic'
loop_
_space_group_symop_operation_xyz
x,y,z
-x,-y,1/2+z
x,-y,-z
-x,y,1/2-z
-x,-y,-z
x,y,1/2-z
-x,y,z
x,-y,1/2+z
1/2+x,1/2+y,z
1/2-x,1/2-y,1/2+z
1/2+x,1/2-y,-z
1/2-x,1/2+y,1/2-z
1/2-x,1/2-y,-z
1/2+x,1/2+y,1/2-z
1/2-x,1/2+y,z
1/2+x,1/2-y,1/2+z
loop_
_atom_site_type_symbol
_atom_site_label
_atom_site_fract_x
_atom_site_fract_y
_atom_site_fract_z
Si Si1 0.609411 0.938800 0.571854
Si Si2 0.442998 0.345915 0.427822
Si Si3 0.287008 0.637973 0.425307
Si Si4 0.820930 0.348170 0.070979
Si Si5 0.868581 0.767209 0.576328
Si Si6 0.500000 0.058633 0.077319
Si Si7 0.135734 0.059895 0.928963
O O1 0.621067 0.941587 0.750000
O O2 0.651120 0.902840 0.487816
O O3 0.553423 0.910524 0.539099
O O4 0.611980 0.000000 0.500000
O O5 0.443971 0.341812 0.250000
O O6 0.500000 0.351939 0.492654
O O7 0.418017 0.288606 0.487849
O O8 0.410391 0.399687 0.480067
O O9 0.279786 0.623786 0.250000
O O10 0.234199 0.653456 0.499593
O O11 0.321791 0.691690 0.452477
O O12 0.311512 0.583857 0.506041
O O13 0.815580 0.349431 0.250000
O O14 0.852278 0.293774 0.016470
O O15 0.883860 0.764855 0.750000
O O16 0.500000 0.042711 0.250000
O O17 0.500000 0.000000 0.000000
O O18 0.140075 0.054928 0.750000
O O19 0.123980 0.000000 0.000000
#
# Coordination Sequence:
#
# PCOD8259162 Si02
#       7
#    16  16  16  16  16   8  16
#     4  10  20  36  56  79 106 138 174 216 263 314
#     4   9  19  36  57  81 111 147 185 228 276 323
#     4  10  20  36  57  79 105 141 181 223 271 321
#     4  11  22  36  54  81 111 140 177 221 269 323
#     4   9  20  37  56  79 108 141 180 223 270 323
#     4   8  16  32  54  74  96 128 166 204 247 298
#     4  10  20  35  55  81 113 147 185 227 273 326
#
# _framework density 18.648951
#
# number of rings (size 3 to 8) (size 9 to 14) (size 15 to 20)
#    0.000    2.308    0.000    2.308    0.000    4.308 
#    1.385    3.077    0.000    0.000    0.000    0.000 
#    0.000    0.000    0.000    0.000    0.000    0.000 
#
# Total GULP energy -644682.281039 kJ/mol
# GULP energy per Si atom -12397.736174 kJ/mol
# Density = 1.860651 g / cm^3
# Si number density = 18.648951 Si / 1000 Ang^3
#
#
#
# Elastic Constant Matrix: (Units=GPa)
#
#
# Indices 1 2 3 4 5 6 
#
# 1 85.8940 56.4116 42.2099 0.0000 0.0000 0.0000
# 2 56.4116 104.7472 37.5595 0.0000 0.0000 0.0000
# 3 42.2099 37.5595 70.0010 0.0000 0.0000 0.0000
# 4 0.0000 0.0000 0.0000 29.9145 0.0000 0.0000
# 5 0.0000 0.0000 0.0000 0.0000 28.4731 0.0000
# 6 0.0000 0.0000 0.0000 0.0000 0.0000 17.4509
#
#
#
# Elastic Compliance Matrix: (Units=1/GPa)
#
#
# Indices 1 2 3 4 5 6 
#
# 1 0.021292 -0.008498 -0.008279 0.000000 0.000000 0.000000
# 2 -0.008498 0.015213 -0.003038 0.000000 0.000000 0.000000
# 3 -0.008279 -0.003038 0.020908 0.000000 0.000000 0.000000
# 4 0.000000 0.000000 0.000000 0.033429 0.000000 0.000000
# 5 0.000000 0.000000 0.000000 0.000000 0.035121 0.000000
# 6 0.000000 0.000000 0.000000 0.000000 0.000000 0.057304
#
#
# Mechanical properties :
#
#
# Convention : Reuss Voigt Hill
#
# Bulk Modulus (GPa) = 56.23742 59.22266 57.73004
# Shear Modulus (GPa) = 21.85082 23.46511 22.65797
#
# Velocity S-wave (km/s) = 3.42671 3.55104 3.48943
# Velocity P-wave (km/s) = 6.77331 6.97414 6.87446
#
# Compressibility (1/GPa) = 0.01778176
#
# Stress axis : x y z
#
# Youngs Moduli (GPa) = 46.96606 65.73362 47.82867
#
# Poissons Ratio (x) = 0.55861 0.39598
# Poissons Ratio (y) = 0.39912 0.14532
# Poissons Ratio (z) = 0.38884 0.19972
#
# Static dielectric constant tensor:
#      x y z
#    x 3.775460 0.000000 0.000000 
#    y 0.000000 3.368080 0.000000 
#    z 0.000000 0.000000 3.460480 
# 
# 
# High freq. dielectric constant tensor:
#      x y z
#    x 1.733220 0.000000 0.000000 
#    y 0.000000 1.713660 0.000000 
#    z 0.000000 0.000000 1.731200 
# 
# From -- ./inp_files/12544.got.cif
#   From: 2010.03.12/outbox.cif.g09.slc.cpg/sg63_7_cif.got.tgz:12544.got - 2010.04.10 19:34:48.
