data_PCOD8259649
_publ_section_title
;
Structure prediction by ZEFSAII (Michael W. Deem and Ramdas Pophale) SiO2 
 PCOD8259649
Probable space group: C M C M
;
_chemical_formula_sum "Si O2"
_cell_formula_units_Z 96
_cell_length_a 8.974778
_cell_length_b 19.535659
_cell_length_c 28.745536
_cell_angle_alpha 90.000000
_cell_angle_beta 90.000000
_cell_angle_gamma 90.000000
_cell_volume 5039.903160
_symmetry_space_group_name_H-M "C M C M"
_symmetry_group_IT_number 63
_symmetry_cell_setting 'orthorhombic'
loop_
_space_group_symop_operation_xyz
x,y,z
-x,-y,1/2+z
x,-y,-z
-x,y,1/2-z
-x,-y,-z
x,y,1/2-z
-x,y,z
x,-y,1/2+z
1/2+x,1/2+y,z
1/2-x,1/2-y,1/2+z
1/2+x,1/2-y,-z
1/2-x,1/2+y,1/2-z
1/2-x,1/2-y,-z
1/2+x,1/2+y,1/2-z
1/2-x,1/2+y,z
1/2+x,1/2-y,1/2+z
loop_
_atom_site_type_symbol
_atom_site_label
_atom_site_fract_x
_atom_site_fract_y
_atom_site_fract_z
Si Si1 0.825225 0.258686 0.304025
Si Si2 0.833389 0.432226 0.970244
Si Si3 0.671344 0.879609 0.803563
Si Si4 0.176474 0.141060 0.624151
Si Si5 0.325355 0.684615 0.522065
Si Si6 0.673588 0.995725 0.873495
O O1 0.783316 0.270339 0.250000
O O2 0.768916 0.184430 0.320923
O O3 0.746928 0.317204 0.333668
O O4 0.000000 0.263083 0.312462
O O5 0.786057 0.450295 0.918124
O O6 0.000000 0.400090 0.971552
O O7 0.828867 0.500000 0.000000
O O8 0.714703 0.379917 0.990469
O O9 0.702208 0.895141 0.750000
O O10 0.500000 0.860565 0.813545
O O11 0.716722 0.948895 0.829704
O O12 0.230526 0.172559 0.574913
O O13 0.227468 0.063042 0.628084
O O14 0.000000 0.143892 0.628448
O O15 0.500000 0.695665 0.521144
O O16 0.250000 0.750000 0.500000
O O17 0.500000 0.017093 0.873707
#
# Coordination Sequence:
#
# PCOD8259649 Si02
#       6
#    16  16  16  16  16  16
#     4  10  22  40  62  87 116 152 194 240 290 345
#     4  10  20  37  60  84 115 155 194 236 288 342
#     4   9  19  37  60  86 117 151 188 234 288 345
#     4  11  24  40  59  86 119 154 195 241 290 345
#     4  11  25  41  59  85 118 155 197 243 290 346
#     4  10  21  37  59  86 117 154 195 238 287 348
#
# _framework density 19.047985000000001
#
# number of rings (size 3 to 8) (size 9 to 14) (size 15 to 20)
#    0.000    1.833    1.667    1.500    2.333    5.333 
#    0.000    1.667    0.000    0.000    0.000    0.000 
#    0.000    0.000    0.000    0.000    0.000    0.000 
#
# Total GULP energy -595376.186508 kJ/mol
# GULP energy per Si atom -12403.670552 kJ/mol
# Density = 1.900463 g / cm^3
# Si number density = 19.047985 Si / 1000 Ang^3
#
#
#
# Elastic Constant Matrix: (Units=GPa)
#
#
# Indices 1 2 3 4 5 6 
#
# 1 73.1706 58.4900 49.3718 0.0000 0.0000 0.0000
# 2 58.4900 113.5350 66.9651 0.0000 0.0000 0.0000
# 3 49.3718 66.9651 104.5285 0.0000 0.0000 0.0000
# 4 0.0000 0.0000 0.0000 31.3059 0.0000 0.0000
# 5 0.0000 0.0000 0.0000 0.0000 29.0930 0.0000
# 6 0.0000 0.0000 0.0000 0.0000 0.0000 41.4297
#
#
#
# Elastic Compliance Matrix: (Units=1/GPa)
#
#
# Indices 1 2 3 4 5 6 
#
# 1 0.025229 -0.009594 -0.005770 0.000000 0.000000 0.000000
# 2 -0.009594 0.017806 -0.006876 0.000000 0.000000 0.000000
# 3 -0.005770 -0.006876 0.016697 0.000000 0.000000 0.000000
# 4 0.000000 0.000000 0.000000 0.031943 0.000000 0.000000
# 5 0.000000 0.000000 0.000000 0.000000 0.034373 0.000000
# 6 0.000000 0.000000 0.000000 0.000000 0.000000 0.024137
#
#
# Mechanical properties :
#
#
# Convention : Reuss Voigt Hill
#
# Bulk Modulus (GPa) = 65.56329 71.20976 68.38653
# Shear Modulus (GPa) = 25.03151 28.12620 26.57886
#
# Velocity S-wave (km/s) = 3.62902 3.84682 3.73951
# Velocity P-wave (km/s) = 7.21488 7.56282 7.39090
#
# Compressibility (1/GPa) = 0.01525244
#
# Stress axis : x y z
#
# Youngs Moduli (GPa) = 39.63655 56.16161 59.89127
#
# Poissons Ratio (x) = 0.53882 0.34558
# Poissons Ratio (y) = 0.38027 0.41178
# Poissons Ratio (z) = 0.22871 0.38614
#
# Static dielectric constant tensor:
#      x y z
#    x 3.535590 0.000000 0.000000 
#    y 0.000000 3.456140 0.000000 
#    z 0.000000 0.000000 3.682200 
# 
# 
# High freq. dielectric constant tensor:
#      x y z
#    x 1.739670 0.000000 0.000000 
#    y 0.000000 1.745480 0.000000 
#    z 0.000000 0.000000 1.752170 
# 
# From -- ./inp_files/66876.got.cif
#   From: 2010.03.12/outbox.cif.g09.slc.cpg/sg63_34_cif.got.tgz:66876.got - 2010.04.10 19:34:48.
