data_PCOD8259908
_publ_section_title
;
Structure prediction by ZEFSAII (Michael W. Deem and Ramdas Pophale) SiO2 
 PCOD8259908
Probable space group: C M C M
;
_chemical_formula_sum "Si O2"
_cell_formula_units_Z 80
_cell_length_a 9.466390
_cell_length_b 25.629739
_cell_length_c 18.469646
_cell_angle_alpha 90.000000
_cell_angle_beta 90.000000
_cell_angle_gamma 90.000000
_cell_volume 4481.125921
_symmetry_space_group_name_H-M "C M C M"
_symmetry_group_IT_number 63
_symmetry_cell_setting 'orthorhombic'
loop_
_space_group_symop_operation_xyz
x,y,z
-x,-y,1/2+z
x,-y,-z
-x,y,1/2-z
-x,-y,-z
x,y,1/2-z
-x,y,z
x,-y,1/2+z
1/2+x,1/2+y,z
1/2-x,1/2-y,1/2+z
1/2+x,1/2-y,-z
1/2-x,1/2+y,1/2-z
1/2-x,1/2-y,-z
1/2+x,1/2+y,1/2-z
1/2-x,1/2+y,z
1/2+x,1/2-y,1/2+z
loop_
_atom_site_type_symbol
_atom_site_label
_atom_site_fract_x
_atom_site_fract_y
_atom_site_fract_z
Si Si1 0.343391 0.207575 0.335945
Si Si2 0.336733 0.599299 0.665739
Si Si3 0.341064 0.802010 0.336268
Si Si4 0.336104 0.495395 0.915795
Si Si5 0.166222 0.590604 0.332726
O O1 0.350765 0.211818 0.250000
O O2 0.500000 0.218988 0.367377
O O3 0.234257 0.250070 0.367582
O O4 0.293915 0.149402 0.357236
O O5 0.309248 0.588502 0.750000
O O6 0.500000 0.612795 0.650802
O O7 0.244015 0.647407 0.636728
O O8 0.286765 0.548454 0.622637
O O9 0.341638 0.800359 0.250000
O O10 0.500000 0.804294 0.367067
O O11 0.500000 0.484574 0.900112
O O12 0.248351 0.447554 0.885229
O O13 0.303323 0.500000 0.000000
O O14 0.213781 0.580712 0.250000
O O15 0.000000 0.581196 0.340627
#
# Coordination Sequence:
#
# PCOD8259908 Si02
#       5
#    16  16  16  16  16
#     4   8  14  26  44  67  96 126 153 185 231 286
#     4   9  17  30  48  68  92 125 160 192 233 285
#     4   9  16  25  41  69  99 122 149 190 236 278
#     4  10  21  35  50  70  97 129 165 204 245 289
#     4   9  18  32  51  75 100 127 161 199 239 286
#
# _framework density 17.852656
#
# number of rings (size 3 to 8) (size 9 to 14) (size 15 to 20)
#    0.000    3.000    0.000    2.400    0.000    5.600 
#    0.000    4.000    0.000    1.200    0.000    0.000 
#    0.000    0.000    0.000    0.000    0.000    0.000 
#
# Total GULP energy -495945.687413 kJ/mol
# GULP energy per Si atom -12398.642185 kJ/mol
# Density = 1.781202 g / cm^3
# Si number density = 17.852656 Si / 1000 Ang^3
#
#
#
# Elastic Constant Matrix: (Units=GPa)
#
#
# Indices 1 2 3 4 5 6 
#
# 1 97.6498 89.8043 31.3787 0.0000 0.0000 0.0000
# 2 89.8043 175.2725 49.1839 0.0000 0.0000 0.0000
# 3 31.3787 49.1839 43.1912 0.0000 0.0000 0.0000
# 4 0.0000 0.0000 0.0000 -0.2024 0.0000 0.0000
# 5 0.0000 0.0000 0.0000 0.0000 16.0123 0.0000
# 6 0.0000 0.0000 0.0000 0.0000 0.0000 32.7769
#
#
#
# Elastic Compliance Matrix: (Units=1/GPa)
#
#
# Indices 1 2 3 4 5 6 
#
# 1 0.019866 -0.009007 -0.004176 0.000000 0.000000 0.000000
# 2 -0.009007 0.012468 -0.007655 0.000000 0.000000 0.000000
# 3 -0.004176 -0.007655 0.034904 0.000000 0.000000 0.000000
# 4 0.000000 0.000000 0.000000 -4.941129 0.000000 0.000000
# 5 0.000000 0.000000 0.000000 0.000000 0.062452 0.000000
# 6 0.000000 0.000000 0.000000 0.000000 0.000000 0.030509
#
#
# Mechanical properties :
#
#
# Convention : Reuss Voigt Hill
#
# Bulk Modulus (GPa) = 39.12004 72.98302 56.05153
# Shear Modulus (GPa) = -1.05692 19.43382 9.18845
#
# Velocity S-wave (km/s) = -0.77027 3.30292 2.27112
# Velocity P-wave (km/s) = 4.60100 7.45086 6.19211
#
# Compressibility (1/GPa) = 0.02556235
#
# Stress axis : x y z
#
# Youngs Moduli (GPa) = 50.33806 80.20439 28.65033
#
# Poissons Ratio (x) = 0.72237 0.11965
# Poissons Ratio (y) = 0.45338 0.21931
# Poissons Ratio (z) = 0.21022 0.61394
#
# Static dielectric constant tensor:
#      x y z
#    x 3.412330 0.000000 0.000000 
#    y 0.000000 3.501260 0.000000 
#    z 0.000000 0.000000 2.826710 
# 
# 
# High freq. dielectric constant tensor:
#      x y z
#    x 1.690360 0.000000 0.000000 
#    y 0.000000 1.705590 0.000000 
#    z 0.000000 0.000000 1.640060 
# 
# From -- ./inp_files/40409.got.cif
#   From: 2010.03.12/outbox.cif.g09.slc.cpg/sg63_21_cif.got.tgz:40409.got - 2010.04.10 19:34:48.
