data_PCOD8259338
_publ_section_title
;
Structure prediction by ZEFSAII (Michael W. Deem and Ramdas Pophale) SiO2 
 PCOD8259338
Probable space group: C M C M
;
_chemical_formula_sum "Si O2"
_cell_formula_units_Z 72
_cell_length_a 14.346125
_cell_length_b 17.949084
_cell_length_c 13.626862
_cell_angle_alpha 90.000000
_cell_angle_beta 90.000000
_cell_angle_gamma 90.000000
_cell_volume 3508.914276
_symmetry_space_group_name_H-M "C M C M"
_symmetry_group_IT_number 63
_symmetry_cell_setting 'orthorhombic'
loop_
_space_group_symop_operation_xyz
x,y,z
-x,-y,1/2+z
x,-y,-z
-x,y,1/2-z
-x,-y,-z
x,y,1/2-z
-x,y,z
x,-y,1/2+z
1/2+x,1/2+y,z
1/2-x,1/2-y,1/2+z
1/2+x,1/2-y,-z
1/2-x,1/2+y,1/2-z
1/2-x,1/2-y,-z
1/2+x,1/2+y,1/2-z
1/2-x,1/2+y,z
1/2+x,1/2-y,1/2+z
loop_
_atom_site_type_symbol
_atom_site_label
_atom_site_fract_x
_atom_site_fract_y
_atom_site_fract_z
Si Si1 0.280862 0.497227 0.750000
Si Si2 0.611750 0.345777 0.250000
Si Si3 0.788259 0.925313 0.949791
Si Si4 0.346418 0.282991 0.460461
Si Si5 0.894051 0.592482 0.750000
Si Si6 0.899383 0.363565 0.463938
O O1 0.345377 0.571002 0.750000
O O2 0.299560 0.439564 0.836126
O O3 0.172872 0.521021 0.750000
O O4 0.500000 0.352148 0.250000
O O5 0.647661 0.299180 0.155869
O O6 0.860192 0.861158 0.983237
O O7 0.680925 0.907699 0.978794
O O8 0.822518 0.000000 0.000000
O O9 0.250000 0.250000 0.500000
O O10 0.418220 0.219465 0.493023
O O11 0.872846 0.641018 0.652127
O O12 0.000000 0.563144 0.750000
O O13 0.000000 0.404585 0.476484
#
# Coordination Sequence:
#
# PCOD8259338 Si02
#       6
#     8   8  16  16   8  16
#     4  12  22  40  60  92 128 162 214 264 321 384
#     4  12  24  41  65  91 129 177 220 262 325 393
#     4  11  21  37  62  88 118 159 207 256 310 380
#     4  10  22  40  63  89 122 165 210 266 322 381
#     4  10  20  35  61  89 125 169 204 256 334 403
#     4  10  21  37  59  90 124 158 202 259 320 384
#
# _framework density 20.519166999999999
#
# number of rings (size 3 to 8) (size 9 to 14) (size 15 to 20)
#    0.000    1.333    4.444    2.000    0.000    5.778 
#    0.000    4.444    0.000    0.000    0.000    0.000 
#    0.000    0.000    0.000    0.000    0.000    0.000 
#
# Total GULP energy -445973.257646 kJ/mol
# GULP energy per Si atom -12388.146046 kJ/mol
# Density = 2.047246 g / cm^3
# Si number density = 20.519167 Si / 1000 Ang^3
#
#
#
# Elastic Constant Matrix: (Units=GPa)
#
#
# Indices 1 2 3 4 5 6 
#
# 1 67.6029 -5.2697 18.0207 0.0000 0.0000 0.0000
# 2 -5.2697 101.3696 55.4983 0.0000 0.0000 0.0000
# 3 18.0207 55.4983 193.1409 0.0000 0.0000 0.0000
# 4 0.0000 0.0000 0.0000 49.8020 0.0000 0.0000
# 5 0.0000 0.0000 0.0000 0.0000 17.8766 0.0000
# 6 0.0000 0.0000 0.0000 0.0000 0.0000 15.6469
#
#
#
# Elastic Compliance Matrix: (Units=1/GPa)
#
#
# Indices 1 2 3 4 5 6 
#
# 1 0.015469 0.001892 -0.001987 0.000000 0.000000 0.000000
# 2 0.001892 0.011938 -0.003607 0.000000 0.000000 0.000000
# 3 -0.001987 -0.003607 0.006399 0.000000 0.000000 0.000000
# 4 0.000000 0.000000 0.000000 0.020079 0.000000 0.000000
# 5 0.000000 0.000000 0.000000 0.000000 0.055939 0.000000
# 6 0.000000 0.000000 0.000000 0.000000 0.000000 0.063910
#
#
# Mechanical properties :
#
#
# Convention : Reuss Voigt Hill
#
# Bulk Modulus (GPa) = 37.87440 55.40134 46.63787
# Shear Modulus (GPa) = 26.32407 36.25606 31.29007
#
# Velocity S-wave (km/s) = 3.58565 4.20805 3.90926
# Velocity P-wave (km/s) = 5.96998 7.11820 6.56922
#
# Compressibility (1/GPa) = 0.02640306
#
# Stress axis : x y z
#
# Youngs Moduli (GPa) = 64.64370 83.76658 156.26521
#
# Poissons Ratio (x) = -0.15849 0.31050
# Poissons Ratio (y) = -0.12231 0.56363
# Poissons Ratio (z) = 0.12845 0.30213
#
# Static dielectric constant tensor:
#      x y z
#    x 3.871460 0.000000 0.000000 
#    y 0.000000 5.434570 0.000000 
#    z 0.000000 0.000000 3.917380 
# 
# 
# High freq. dielectric constant tensor:
#      x y z
#    x 1.795610 0.000000 0.000000 
#    y 0.000000 1.798480 0.000000 
#    z 0.000000 0.000000 1.814800 
# 
# From -- ./inp_files/20844.got.cif
#   From: 2010.03.12/outbox.cif.g09.slc.cpg/sg63_11_cif.got.tgz:20844.got - 2010.04.10 19:34:48.
