data_PCOD8259538
_publ_section_title
;
Structure prediction by ZEFSAII (Michael W. Deem and Ramdas Pophale) SiO2 
 PCOD8259538
Probable space group: C M C M
;
_chemical_formula_sum "Si O2"
_cell_formula_units_Z 96
_cell_length_a 25.146257
_cell_length_b 23.433764
_cell_length_c 8.762713
_cell_angle_alpha 90.000000
_cell_angle_beta 90.000000
_cell_angle_gamma 90.000000
_cell_volume 5163.616613
_symmetry_space_group_name_H-M "C M C M"
_symmetry_group_IT_number 63
_symmetry_cell_setting 'orthorhombic'
loop_
_space_group_symop_operation_xyz
x,y,z
-x,-y,1/2+z
x,-y,-z
-x,y,1/2-z
-x,-y,-z
x,y,1/2-z
-x,y,z
x,-y,1/2+z
1/2+x,1/2+y,z
1/2-x,1/2-y,1/2+z
1/2+x,1/2-y,-z
1/2-x,1/2+y,1/2-z
1/2-x,1/2-y,-z
1/2+x,1/2+y,1/2-z
1/2-x,1/2+y,z
1/2+x,1/2-y,1/2+z
loop_
_atom_site_type_symbol
_atom_site_label
_atom_site_fract_x
_atom_site_fract_y
_atom_site_fract_z
Si Si1 0.306875 0.060517 0.930705
Si Si2 0.438289 0.756574 0.427151
Si Si3 0.897950 0.368053 0.929476
Si Si4 0.907584 0.130163 0.075025
Si Si5 0.805492 0.058876 0.428139
Si Si6 0.500000 0.938140 0.570075
Si Si7 0.500000 0.561402 0.927021
O O1 0.306657 0.055341 0.750000
O O2 0.346378 0.110094 0.982413
O O3 0.248625 0.077560 0.989648
O O4 0.325468 0.000000 0.000000
O O5 0.432402 0.772766 0.250000
O O6 0.500000 0.753194 0.474724
O O7 0.407730 0.802407 0.529395
O O8 0.410227 0.696747 0.465079
O O9 0.888791 0.374357 0.750000
O O10 0.948357 0.404358 0.987345
O O11 0.924620 0.119837 0.250000
O O12 0.847960 0.108720 0.043820
O O13 0.947580 0.095729 0.970347
O O14 0.794110 0.048873 0.250000
O O15 0.827365 0.000000 0.500000
O O16 0.500000 0.943567 0.750000
O O17 0.500000 0.000000 0.500000
O O18 0.500000 0.551209 0.750000
O O19 0.500000 0.500000 0.000000
#
# Coordination Sequence:
#
# PCOD8259538 Si02
#       7
#    16  16  16  16  16   8   8
#     4  11  22  38  60  86 116 151 191 234 288 344
#     4  10  20  37  60  83 113 154 193 233 285 342
#     4  11  22  38  57  83 116 149 192 237 282 338
#     4  10  21  39  60  84 116 151 193 239 288 343
#     4  10  20  36  60  86 115 151 189 235 289 343
#     4  10  22  35  52  79 111 142 176 226 279 332
#     4  12  24  35  54  83 117 152 190 236 291 346
#
# _framework density 18.591619999999999
#
# number of rings (size 3 to 8) (size 9 to 14) (size 15 to 20)
#    0.000    1.500    1.667    5.250    0.000    6.000 
#    0.000    0.833    0.000    0.000    0.000    0.000 
#    0.000    0.000    0.000    0.000    0.000    0.000 
#
# Total GULP energy -595457.893579 kJ/mol
# GULP energy per Si atom -12405.372783 kJ/mol
# Density = 1.854931 g / cm^3
# Si number density = 18.591620 Si / 1000 Ang^3
#
#
#
# Elastic Constant Matrix: (Units=GPa)
#
#
# Indices 1 2 3 4 5 6 
#
# 1 112.1975 72.6678 54.9467 0.0000 0.0000 0.0000
# 2 72.6678 136.0628 55.5744 0.0000 0.0000 0.0000
# 3 54.9467 55.5744 116.3693 0.0000 0.0000 0.0000
# 4 0.0000 0.0000 0.0000 32.7131 0.0000 0.0000
# 5 0.0000 0.0000 0.0000 0.0000 23.9752 0.0000
# 6 0.0000 0.0000 0.0000 0.0000 0.0000 31.1773
#
#
#
# Elastic Compliance Matrix: (Units=1/GPa)
#
#
# Indices 1 2 3 4 5 6 
#
# 1 0.015021 -0.006368 -0.004052 0.000000 0.000000 0.000000
# 2 -0.006368 0.011830 -0.002643 0.000000 0.000000 0.000000
# 3 -0.004052 -0.002643 0.011769 0.000000 0.000000 0.000000
# 4 0.000000 0.000000 0.000000 0.030569 0.000000 0.000000
# 5 0.000000 0.000000 0.000000 0.000000 0.041710 0.000000
# 6 0.000000 0.000000 0.000000 0.000000 0.000000 0.032075
#
#
# Mechanical properties :
#
#
# Convention : Reuss Voigt Hill
#
# Bulk Modulus (GPa) = 80.03043 81.22306 80.62675
# Shear Modulus (GPa) = 28.85798 29.66917 29.26358
#
# Velocity S-wave (km/s) = 3.94408 3.99913 3.97170
# Velocity P-wave (km/s) = 7.99255 8.06888 8.03081
#
# Compressibility (1/GPa) = 0.01249525
#
# Stress axis : x y z
#
# Youngs Moduli (GPa) = 66.57243 84.53219 84.97165
#
# Poissons Ratio (x) = 0.53826 0.34428
# Poissons Ratio (y) = 0.42390 0.22458
# Poissons Ratio (z) = 0.26973 0.22341
#
# Static dielectric constant tensor:
#      x y z
#    x 3.463180 0.000000 0.000000 
#    y 0.000000 3.505480 0.000000 
#    z 0.000000 0.000000 3.482870 
# 
# 
# High freq. dielectric constant tensor:
#      x y z
#    x 1.723540 0.000000 0.000000 
#    y 0.000000 1.722120 0.000000 
#    z 0.000000 0.000000 1.728770 
# 
# From -- ./inp_files/10516.got.cif
#   From: 2010.03.12/outbox.cif.g09.slc.cpg/sg63_6_cif.got.tgz:10516.got - 2010.04.10 19:34:48.
