data_PCOD8259870
_publ_section_title
;
Structure prediction by ZEFSAII (Michael W. Deem and Ramdas Pophale) SiO2 
 PCOD8259870
Probable space group: C M C M
;
_chemical_formula_sum "Si O2"
_cell_formula_units_Z 64
_cell_length_a 7.577311
_cell_length_b 18.115909
_cell_length_c 24.506484
_cell_angle_alpha 90.000000
_cell_angle_beta 90.000000
_cell_angle_gamma 90.000000
_cell_volume 3364.002033
_symmetry_space_group_name_H-M "C M C M"
_symmetry_group_IT_number 63
_symmetry_cell_setting 'orthorhombic'
loop_
_space_group_symop_operation_xyz
x,y,z
-x,-y,1/2+z
x,-y,-z
-x,y,1/2-z
-x,-y,-z
x,y,1/2-z
-x,y,z
x,-y,1/2+z
1/2+x,1/2+y,z
1/2-x,1/2-y,1/2+z
1/2+x,1/2-y,-z
1/2-x,1/2+y,1/2-z
1/2-x,1/2-y,-z
1/2+x,1/2+y,1/2-z
1/2-x,1/2+y,z
1/2+x,1/2-y,1/2+z
loop_
_atom_site_type_symbol
_atom_site_label
_atom_site_fract_x
_atom_site_fract_y
_atom_site_fract_z
Si Si1 0.000000 0.588278 0.440004
Si Si2 0.793740 0.170919 0.750000
Si Si3 0.302012 0.336516 0.750000
Si Si4 0.296391 0.411161 0.642095
Si Si5 0.500000 0.913454 0.061206
Si Si6 0.298661 0.584300 0.857568
O O1 0.822800 0.614517 0.408953
O O2 0.000000 0.622709 0.500898
O O3 0.000000 0.500780 0.444032
O O4 0.695881 0.248561 0.750000
O O5 0.736377 0.125137 0.802925
O O6 0.000000 0.186775 0.750000
O O7 0.500000 0.367562 0.750000
O O8 0.216063 0.368821 0.694818
O O9 0.500000 0.389877 0.629503
O O10 0.275592 0.497747 0.653337
O O11 0.675461 0.887601 0.093184
O O12 0.500000 0.603632 0.873111
#
# Coordination Sequence:
#
# PCOD8259870 Si02
#       6
#     8   8   8  16   8  16
#     4   9  18  31  51  79 103 130 169 208 250 297
#     4  10  21  33  50  78 102 134 167 207 256 308
#     4  10  21  33  50  78 102 134 167 207 256 308
#     4   9  18  33  52  75 104 134 166 207 252 300
#     4   9  18  31  51  79 103 130 169 208 250 297
#     4   9  18  33  52  75 104 134 166 207 252 300
#
# _framework density 19.024958999999999
#
# number of rings (size 3 to 8) (size 9 to 14) (size 15 to 20)
#    0.000    2.750    0.000    0.750    3.500    4.000 
#    0.000    8.750    0.000    1.500    0.000    0.000 
#    0.000    0.000    0.000    0.000    0.000    0.000 
#
# Total GULP energy -396736.594482 kJ/mol
# GULP energy per Si atom -12398.018578 kJ/mol
# Density = 1.898166 g / cm^3
# Si number density = 19.024959 Si / 1000 Ang^3
#
#
#
# Elastic Constant Matrix: (Units=GPa)
#
#
# Indices 1 2 3 4 5 6 
#
# 1 107.5538 25.8121 87.3328 0.0000 0.0000 0.0000
# 2 25.8121 48.4853 44.9934 0.0000 0.0000 0.0000
# 3 87.3328 44.9934 202.5905 0.0000 0.0000 0.0000
# 4 0.0000 0.0000 0.0000 4.4050 0.0000 0.0000
# 5 0.0000 0.0000 0.0000 0.0000 30.5099 0.0000
# 6 0.0000 0.0000 0.0000 0.0000 0.0000 16.8457
#
#
#
# Elastic Compliance Matrix: (Units=1/GPa)
#
#
# Indices 1 2 3 4 5 6 
#
# 1 0.014527 -0.002422 -0.005725 0.000000 0.000000 0.000000
# 2 -0.002422 0.026383 -0.004815 0.000000 0.000000 0.000000
# 3 -0.005725 -0.004815 0.008473 0.000000 0.000000 0.000000
# 4 0.000000 0.000000 0.000000 0.227013 0.000000 0.000000
# 5 0.000000 0.000000 0.000000 0.000000 0.032776 0.000000
# 6 0.000000 0.000000 0.000000 0.000000 0.000000 0.059362
#
#
# Mechanical properties :
#
#
# Convention : Reuss Voigt Hill
#
# Bulk Modulus (GPa) = 42.62584 74.98955 58.80770
# Shear Modulus (GPa) = 12.42923 23.71823 18.07373
#
# Velocity S-wave (km/s) = 2.55877 3.53468 3.08555
# Velocity P-wave (km/s) = 5.58423 7.49404 6.60849
#
# Compressibility (1/GPa) = 0.02345995
#
# Stress axis : x y z
#
# Youngs Moduli (GPa) = 68.83684 37.90376 118.01814
#
# Poissons Ratio (x) = 0.09178 0.67560
# Poissons Ratio (y) = 0.16669 0.56831
# Poissons Ratio (z) = 0.39406 0.18252
#
# Static dielectric constant tensor:
#      x y z
#    x 3.575360 0.000000 0.000000 
#    y 0.000000 3.065290 0.000000 
#    z 0.000000 0.000000 3.768040 
# 
# 
# High freq. dielectric constant tensor:
#      x y z
#    x 1.746560 0.000000 0.000000 
#    y 0.000000 1.700700 0.000000 
#    z 0.000000 0.000000 1.739940 
# 
# From -- ./inp_files/39875.got.cif
#   From: 2010.03.12/outbox.cif.g09.slc.cpg/sg63_20_cif.got.tgz:39875.got - 2010.04.10 19:34:48.
