data_PCOD8259348
_publ_section_title
;
Structure prediction by ZEFSAII (Michael W. Deem and Ramdas Pophale) SiO2 
 PCOD8259348
Probable space group: C M C M
;
_chemical_formula_sum "Si O2"
_cell_formula_units_Z 72
_cell_length_a 22.708648
_cell_length_b 12.732551
_cell_length_c 14.177150
_cell_angle_alpha 90.000000
_cell_angle_beta 90.000000
_cell_angle_gamma 90.000000
_cell_volume 4099.167240
_symmetry_space_group_name_H-M "C M C M"
_symmetry_group_IT_number 63
_symmetry_cell_setting 'orthorhombic'
loop_
_space_group_symop_operation_xyz
x,y,z
-x,-y,1/2+z
x,-y,-z
-x,y,1/2-z
-x,-y,-z
x,y,1/2-z
-x,y,z
x,-y,1/2+z
1/2+x,1/2+y,z
1/2-x,1/2-y,1/2+z
1/2+x,1/2-y,-z
1/2-x,1/2+y,1/2-z
1/2-x,1/2-y,-z
1/2+x,1/2+y,1/2-z
1/2-x,1/2+y,z
1/2+x,1/2-y,1/2+z
loop_
_atom_site_type_symbol
_atom_site_label
_atom_site_fract_x
_atom_site_fract_y
_atom_site_fract_z
Si Si1 0.337065 0.800293 0.553526
Si Si2 0.700093 0.309825 0.750000
Si Si3 0.167806 0.644815 0.250000
Si Si4 0.065879 0.602979 0.562273
Si Si5 0.366654 0.913920 0.250000
Si Si6 0.286237 0.392007 0.546788
O O1 0.365752 0.810825 0.657787
O O2 0.389383 0.812592 0.479666
O O3 0.307549 0.689993 0.531516
O O4 0.285160 0.888591 0.550540
O O5 0.769709 0.295425 0.750000
O O6 0.670796 0.193874 0.750000
O O7 0.684809 0.371939 0.848339
O O8 0.175243 0.517231 0.250000
O O9 0.067010 0.500000 0.500000
O O10 0.088616 0.575374 0.664634
O O11 0.000000 0.650567 0.567098
O O12 0.307089 0.500000 0.500000
#
# Coordination Sequence:
#
# PCOD8259348 Si02
#       6
#    16   8   8  16   8  16
#     4  10  20  36  52  82 113 146 181 228 282 333
#     4  10  22  33  53  84 107 152 186 220 280 344
#     4  10  22  31  55  82 115 152 173 228 279 337
#     4  11  22  36  57  82 109 149 192 232 277 330
#     4  12  21  38  56  80 120 146 186 228 279 343
#     4  10  21  34  56  79 113 148 184 226 283 338
#
# _framework density 17.564543
#
# number of rings (size 3 to 8) (size 9 to 14) (size 15 to 20)
#    0.000    1.556    4.444    1.000    3.111    0.889 
#    0.000    0.556    0.000    0.667    0.000    0.000 
#    0.000    0.000    0.000    0.000    0.000    0.000 
#
# Total GULP energy -446056.495193 kJ/mol
# GULP energy per Si atom -12390.458200 kJ/mol
# Density = 1.752457 g / cm^3
# Si number density = 17.564543 Si / 1000 Ang^3
#
#
#
# Elastic Constant Matrix: (Units=GPa)
#
#
# Indices 1 2 3 4 5 6 
#
# 1 85.5729 29.2451 34.1310 0.0000 0.0000 0.0000
# 2 29.2451 81.2178 54.8850 0.0000 0.0000 0.0000
# 3 34.1310 54.8850 154.7707 0.0000 0.0000 0.0000
# 4 0.0000 0.0000 0.0000 28.3348 0.0000 0.0000
# 5 0.0000 0.0000 0.0000 0.0000 33.5893 0.0000
# 6 0.0000 0.0000 0.0000 0.0000 0.0000 12.4175
#
#
#
# Elastic Compliance Matrix: (Units=1/GPa)
#
#
# Indices 1 2 3 4 5 6 
#
# 1 0.013645 -0.003787 -0.001666 0.000000 0.000000 0.000000
# 2 -0.003787 0.017244 -0.005280 0.000000 0.000000 0.000000
# 3 -0.001666 -0.005280 0.008701 0.000000 0.000000 0.000000
# 4 0.000000 0.000000 0.000000 0.035292 0.000000 0.000000
# 5 0.000000 0.000000 0.000000 0.000000 0.029771 0.000000
# 6 0.000000 0.000000 0.000000 0.000000 0.000000 0.080531
#
#
# Mechanical properties :
#
#
# Convention : Reuss Voigt Hill
#
# Bulk Modulus (GPa) = 55.17725 62.00929 58.59327
# Shear Modulus (GPa) = 23.50805 28.42168 25.96487
#
# Velocity S-wave (km/s) = 3.66236 4.02696 3.84898
# Velocity P-wave (km/s) = 7.02609 7.54998 7.29274
#
# Compressibility (1/GPa) = 0.01812341
#
# Stress axis : x y z
#
# Youngs Moduli (GPa) = 73.28806 57.98953 114.92988
#
# Poissons Ratio (x) = 0.21963 0.19146
# Poissons Ratio (y) = 0.27758 0.60683
# Poissons Ratio (z) = 0.12209 0.30619
#
# Static dielectric constant tensor:
#      x y z
#    x 3.170240 0.000000 0.000000 
#    y 0.000000 3.019220 0.000000 
#    z 0.000000 0.000000 3.721520 
# 
# 
# High freq. dielectric constant tensor:
#      x y z
#    x 1.642910 0.000000 0.000000 
#    y 0.000000 1.655570 0.000000 
#    z 0.000000 0.000000 1.712760 
# 
# From -- ./inp_files/36399.got.cif
#   From: 2010.03.12/outbox.cif.g09.slc.cpg/sg63_19_cif.got.tgz:36399.got - 2010.04.10 19:34:48.
