data_PCOD8259451
_publ_section_title
;
Structure prediction by ZEFSAII (Michael W. Deem and Ramdas Pophale) SiO2 
 PCOD8259451
Probable space group: C M C M
;
_chemical_formula_sum "Si O2"
_cell_formula_units_Z 96
_cell_length_a 8.720998
_cell_length_b 29.116808
_cell_length_c 20.324123
_cell_angle_alpha 90.000000
_cell_angle_beta 90.000000
_cell_angle_gamma 90.000000
_cell_volume 5160.856270
_symmetry_space_group_name_H-M "C M C M"
_symmetry_group_IT_number 63
_symmetry_cell_setting 'orthorhombic'
loop_
_space_group_symop_operation_xyz
x,y,z
-x,-y,1/2+z
x,-y,-z
-x,y,1/2-z
-x,-y,-z
x,y,1/2-z
-x,y,z
x,-y,1/2+z
1/2+x,1/2+y,z
1/2-x,1/2-y,1/2+z
1/2+x,1/2-y,-z
1/2-x,1/2+y,1/2-z
1/2-x,1/2-y,-z
1/2+x,1/2+y,1/2-z
1/2-x,1/2+y,z
1/2+x,1/2-y,1/2+z
loop_
_atom_site_type_symbol
_atom_site_label
_atom_site_fract_x
_atom_site_fract_y
_atom_site_fract_z
Si Si1 0.324027 0.787776 0.675735
Si Si2 0.819128 0.628645 0.975668
Si Si3 0.318813 0.029441 0.560462
Si Si4 0.322199 0.963706 0.674908
Si Si5 0.321669 0.625509 0.382187
Si Si6 0.820784 0.778217 0.059539
O O1 0.298719 0.770348 0.750000
O O2 0.500000 0.802810 0.663692
O O3 0.215690 0.831220 0.663537
O O4 0.278000 0.746119 0.627976
O O5 0.756291 0.581484 0.943082
O O6 0.743709 0.670471 0.936607
O O7 0.000000 0.633363 0.969258
O O8 0.777021 0.629553 0.052076
O O9 0.500000 0.031019 0.552230
O O10 0.248449 0.000000 0.500000
O O11 0.270594 0.006429 0.629420
O O12 0.293272 0.978473 0.750000
O O13 0.500000 0.951216 0.662216
O O14 0.220338 0.919938 0.657919
O O15 0.500000 0.625061 0.400338
O O16 0.000000 0.780518 0.047060
O O17 0.750000 0.750000 0.000000
#
# Coordination Sequence:
#
# PCOD8259451 Si02
#       6
#    16  16  16  16  16  16
#     4  10  22  40  60  81 110 152 193 226 273 340
#     4  11  21  36  59  84 113 147 189 235 280 332
#     4   9  17  33  57  81 107 142 186 229 268 320
#     4  10  20  36  58  82 110 147 188 228 277 337
#     4  12  23  34  54  85 119 147 180 232 289 338
#     4  11  22  37  59  85 115 148 188 234 280 334
#
# _framework density 18.601564
#
# number of rings (size 3 to 8) (size 9 to 14) (size 15 to 20)
#    0.000    1.500    3.333    3.000    0.000    3.333 
#    0.000    3.333    0.000    1.000    0.000    0.000 
#    0.000    0.000    0.000    0.000    0.000    0.000 
#
# Total GULP energy -595353.735765 kJ/mol
# GULP energy per Si atom -12403.202828 kJ/mol
# Density = 1.855923 g / cm^3
# Si number density = 18.601564 Si / 1000 Ang^3
#
#
#
# Elastic Constant Matrix: (Units=GPa)
#
#
# Indices 1 2 3 4 5 6 
#
# 1 62.0007 43.7584 29.9465 0.0000 0.0000 0.0000
# 2 43.7584 170.3199 76.8300 0.0000 0.0000 0.0000
# 3 29.9465 76.8300 133.9950 0.0000 0.0000 0.0000
# 4 0.0000 0.0000 0.0000 22.8370 0.0000 0.0000
# 5 0.0000 0.0000 0.0000 0.0000 17.6703 0.0000
# 6 0.0000 0.0000 0.0000 0.0000 0.0000 27.2854
#
#
#
# Elastic Compliance Matrix: (Units=1/GPa)
#
#
# Indices 1 2 3 4 5 6 
#
# 1 0.020117 -0.004236 -0.002067 0.000000 0.000000 0.000000
# 2 -0.004236 0.008812 -0.004106 0.000000 0.000000 0.000000
# 3 -0.002067 -0.004106 0.010279 0.000000 0.000000 0.000000
# 4 0.000000 0.000000 0.000000 0.043789 0.000000 0.000000
# 5 0.000000 0.000000 0.000000 0.000000 0.056592 0.000000
# 6 0.000000 0.000000 0.000000 0.000000 0.000000 0.036650
#
#
# Mechanical properties :
#
#
# Convention : Reuss Voigt Hill
#
# Bulk Modulus (GPa) = 54.37726 74.15394 64.26560
# Shear Modulus (GPa) = 24.60803 27.94391 26.27597
#
# Velocity S-wave (km/s) = 3.64112 3.88007 3.76249
# Velocity P-wave (km/s) = 6.85369 7.74753 7.31427
#
# Compressibility (1/GPa) = 0.01839004
#
# Stress axis : x y z
#
# Youngs Moduli (GPa) = 49.70948 113.48588 97.28482
#
# Poissons Ratio (x) = 0.48072 0.20110
# Poissons Ratio (y) = 0.21057 0.39943
# Poissons Ratio (z) = 0.10276 0.46594
#
# Static dielectric constant tensor:
#      x y z
#    x 3.277750 0.000000 0.000000 
#    y 0.000000 3.670280 0.000000 
#    z 0.000000 0.000000 4.095550 
# 
# 
# High freq. dielectric constant tensor:
#      x y z
#    x 1.708040 0.000000 0.000000 
#    y 0.000000 1.726150 0.000000 
#    z 0.000000 0.000000 1.719430 
# 
# From -- ./inp_files/51317.got.cif
#   From: 2010.03.12/outbox.cif.g09.slc.cpg/sg63_26_cif.got.tgz:51317.got - 2010.04.10 19:34:48.
