data_PCOD8259175
_publ_section_title
;
Structure prediction by ZEFSAII (Michael W. Deem and Ramdas Pophale) SiO2 
 PCOD8259175
Probable space group: C M C M
;
_chemical_formula_sum "Si O2"
_cell_formula_units_Z 80
_cell_length_a 15.127181
_cell_length_b 17.435433
_cell_length_c 15.515087
_cell_angle_alpha 90.000000
_cell_angle_beta 90.000000
_cell_angle_gamma 90.000000
_cell_volume 4092.087918
_symmetry_space_group_name_H-M "C M C M"
_symmetry_group_IT_number 63
_symmetry_cell_setting 'orthorhombic'
loop_
_space_group_symop_operation_xyz
x,y,z
-x,-y,1/2+z
x,-y,-z
-x,y,1/2-z
-x,-y,-z
x,y,1/2-z
-x,y,z
x,-y,1/2+z
1/2+x,1/2+y,z
1/2-x,1/2-y,1/2+z
1/2+x,1/2-y,-z
1/2-x,1/2+y,1/2-z
1/2-x,1/2-y,-z
1/2+x,1/2+y,1/2-z
1/2-x,1/2+y,z
1/2+x,1/2-y,1/2+z
loop_
_atom_site_type_symbol
_atom_site_label
_atom_site_fract_x
_atom_site_fract_y
_atom_site_fract_z
Si Si1 0.099538 0.945707 0.581561
Si Si2 0.192104 0.176629 0.526219
Si Si3 0.246592 0.952591 0.151262
Si Si4 0.901999 0.440396 0.852393
Si Si5 0.602151 0.775052 0.656176
O O1 0.145856 0.864837 0.555338
O O2 0.000000 0.930643 0.618707
O O3 0.091650 0.000000 0.500000
O O4 0.160778 0.991345 0.649289
O O5 0.250000 0.250000 0.500000
O O6 0.246426 0.117606 0.584983
O O7 0.115554 0.207051 0.589133
O O8 0.257140 0.924354 0.250000
O O9 0.332678 0.996819 0.116032
O O10 0.906841 0.439794 0.750000
O O11 0.863527 0.356925 0.881463
O O12 0.000000 0.457991 0.890744
O O13 0.645875 0.755590 0.750000
O O14 0.500000 0.787417 0.671883
#
# Coordination Sequence:
#
# PCOD8259175 Si02
#       5
#    16  16  16  16  16
#     4   9  19  35  53  75 106 140 174 219 271 316
#     4  11  21  33  50  76 112 144 170 211 272 333
#     4  10  20  35  56  77  98 134 183 223 258 315
#     4   8  15  30  52  76 100 126 163 214 260 296
#     4   9  17  31  53  78 102 134 179 224 260 299
#
# _framework density 19.549921999999999
#
# number of rings (size 3 to 8) (size 9 to 14) (size 15 to 20)
#    0.000    2.600    0.000    3.600    0.000    1.200 
#    0.000    3.000    0.000    7.800    0.000    0.000 
#    0.000    0.000    0.000    0.000    0.000    0.000 
#
# Total GULP energy -495619.965345 kJ/mol
# GULP energy per Si atom -12390.499134 kJ/mol
# Density = 1.950543 g / cm^3
# Si number density = 19.549922 Si / 1000 Ang^3
#
#
#
# Elastic Constant Matrix: (Units=GPa)
#
#
# Indices 1 2 3 4 5 6 
#
# 1 80.6122 41.7259 5.0345 0.0000 0.0000 0.0000
# 2 41.7259 120.9210 27.4555 0.0000 0.0000 0.0000
# 3 5.0345 27.4555 42.2804 0.0000 0.0000 0.0000
# 4 0.0000 0.0000 0.0000 30.1022 0.0000 0.0000
# 5 0.0000 0.0000 0.0000 0.0000 17.7582 0.0000
# 6 0.0000 0.0000 0.0000 0.0000 0.0000 32.4763
#
#
#
# Elastic Compliance Matrix: (Units=1/GPa)
#
#
# Indices 1 2 3 4 5 6 
#
# 1 0.015228 -0.005681 0.001876 0.000000 0.000000 0.000000
# 2 -0.005681 0.011819 -0.006999 0.000000 0.000000 0.000000
# 3 0.001876 -0.006999 0.027973 0.000000 0.000000 0.000000
# 4 0.000000 0.000000 0.000000 0.033220 0.000000 0.000000
# 5 0.000000 0.000000 0.000000 0.000000 0.056312 0.000000
# 6 0.000000 0.000000 0.000000 0.000000 0.000000 0.030792
#
#
# Mechanical properties :
#
#
# Convention : Reuss Voigt Hill
#
# Bulk Modulus (GPa) = 29.92840 43.58283 36.75561
# Shear Modulus (GPa) = 24.02815 27.37386 25.70100
#
# Velocity S-wave (km/s) = 3.50961 3.74599 3.62972
# Velocity P-wave (km/s) = 5.63605 6.40714 6.03392
#
# Compressibility (1/GPa) = 0.03341308
#
# Stress axis : x y z
#
# Youngs Moduli (GPa) = 65.66716 84.60874 35.74882
#
# Poissons Ratio (x) = 0.48063 -0.06705
# Poissons Ratio (y) = 0.37303 0.25019
# Poissons Ratio (z) = -0.12316 0.59214
#
# Static dielectric constant tensor:
#      x y z
#    x 3.798940 0.000000 0.000000 
#    y 0.000000 3.856040 0.000000 
#    z 0.000000 0.000000 3.330130 
# 
# 
# High freq. dielectric constant tensor:
#      x y z
#    x 1.757650 0.000000 0.000000 
#    y 0.000000 1.764110 0.000000 
#    z 0.000000 0.000000 1.736830 
# 
# From -- ./inp_files/43991.got.cif
#   From: 2010.03.12/outbox.cif.g09.slc.cpg/sg63_22_cif.got.tgz:43991.got - 2010.04.10 19:34:48.
