data_PCOD8259069
_publ_section_title
;
Structure prediction by ZEFSAII (Michael W. Deem and Ramdas Pophale) SiO2 
 PCOD8259069
Probable space group: C M C M
;
_chemical_formula_sum "Si O2"
_cell_formula_units_Z 80
_cell_length_a 9.162049
_cell_length_b 22.712503
_cell_length_c 22.652037
_cell_angle_alpha 90.000000
_cell_angle_beta 90.000000
_cell_angle_gamma 90.000000
_cell_volume 4713.731817
_symmetry_space_group_name_H-M "C M C M"
_symmetry_group_IT_number 63
_symmetry_cell_setting 'orthorhombic'
loop_
_space_group_symop_operation_xyz
x,y,z
-x,-y,1/2+z
x,-y,-z
-x,y,1/2-z
-x,-y,-z
x,y,1/2-z
-x,y,z
x,-y,1/2+z
1/2+x,1/2+y,z
1/2-x,1/2-y,1/2+z
1/2+x,1/2-y,-z
1/2-x,1/2+y,1/2-z
1/2-x,1/2-y,-z
1/2+x,1/2+y,1/2-z
1/2-x,1/2+y,z
1/2+x,1/2-y,1/2+z
loop_
_atom_site_type_symbol
_atom_site_label
_atom_site_fract_x
_atom_site_fract_y
_atom_site_fract_z
Si Si1 0.833607 0.844348 0.105576
Si Si2 0.334795 0.066569 0.814734
Si Si3 0.831192 0.289385 0.871080
Si Si4 0.832392 0.807745 0.519841
Si Si5 0.326410 0.526027 0.250000
Si Si6 0.331393 0.147780 0.250000
O O1 0.730045 0.891249 0.136059
O O2 0.783967 0.778955 0.124997
O O3 0.000000 0.855205 0.125969
O O4 0.818625 0.853681 0.034574
O O5 0.332851 0.098250 0.750000
O O6 0.500000 0.049864 0.832908
O O7 0.239006 0.006488 0.808584
O O8 0.741800 0.328928 0.918920
O O9 0.795179 0.312366 0.806285
O O10 0.000000 0.295883 0.887495
O O11 0.750000 0.750000 0.500000
O O12 0.000000 0.792759 0.532384
O O13 0.500000 0.522189 0.250000
O O14 0.276052 0.592961 0.250000
O O15 0.500000 0.126777 0.250000
#
# Coordination Sequence:
#
# PCOD8259069 Si02
#       6
#    16  16  16  16   8   8
#     4   9  17  29  49  75 101 132 163 194 240 290
#     4   9  19  32  48  73  98 124 159 201 246 289
#     4   9  19  32  49  74 103 136 166 195 240 290
#     4   9  17  30  47  69 100 135 167 198 236 288
#     4  10  20  35  52  69  93 128 166 204 249 294
#     4  10  20  35  52  71  99 132 166 204 241 290
#
# _framework density 16.971692000000001
#
# number of rings (size 3 to 8) (size 9 to 14) (size 15 to 20)
#    0.600    2.200    0.000    3.000    1.400    4.800 
#    0.000    0.000    0.000    1.200    0.000    8.400 
#    0.000    0.000    0.000    0.000    0.000    0.000 
#
# Total GULP energy -495657.172912 kJ/mol
# GULP energy per Si atom -12391.429323 kJ/mol
# Density = 1.693306 g / cm^3
# Si number density = 16.971692 Si / 1000 Ang^3
#
#
#
# Elastic Constant Matrix: (Units=GPa)
#
#
# Indices 1 2 3 4 5 6 
#
# 1 111.0008 39.8488 56.1243 0.0000 0.0000 0.0000
# 2 39.8488 60.8955 38.0095 0.0000 0.0000 0.0000
# 3 56.1243 38.0095 114.9234 0.0000 0.0000 0.0000
# 4 0.0000 0.0000 0.0000 0.3870 0.0000 0.0000
# 5 0.0000 0.0000 0.0000 0.0000 32.2029 0.0000
# 6 0.0000 0.0000 0.0000 0.0000 0.0000 26.9418
#
#
#
# Elastic Compliance Matrix: (Units=1/GPa)
#
#
# Indices 1 2 3 4 5 6 
#
# 1 0.013474 -0.005935 -0.004617 0.000000 0.000000 0.000000
# 2 -0.005935 0.023308 -0.004810 0.000000 0.000000 0.000000
# 3 -0.004617 -0.004810 0.012547 0.000000 0.000000 0.000000
# 4 0.000000 0.000000 0.000000 2.584157 0.000000 0.000000
# 5 0.000000 0.000000 0.000000 0.000000 0.031053 0.000000
# 6 0.000000 0.000000 0.000000 0.000000 0.000000 0.037117
#
#
# Mechanical properties :
#
#
# Convention : Reuss Voigt Hill
#
# Bulk Modulus (GPa) = 53.75231 61.64276 57.69754
# Shear Modulus (GPa) = 1.82576 22.09548 11.96062
#
# Velocity S-wave (km/s) = 1.03832 3.61210 2.65757
# Velocity P-wave (km/s) = 5.76003 7.33459 6.59447
#
# Compressibility (1/GPa) = 0.01860385
#
# Stress axis : x y z
#
# Youngs Moduli (GPa) = 74.21534 42.90379 79.69841
#
# Poissons Ratio (x) = 0.25465 0.36799
# Poissons Ratio (y) = 0.44049 0.38337
# Poissons Ratio (z) = 0.34268 0.20638
#
# Static dielectric constant tensor:
#      x y z
#    x 3.321350 0.000000 0.000000 
#    y 0.000000 2.804120 0.000000 
#    z 0.000000 0.000000 3.845250 
# 
# 
# High freq. dielectric constant tensor:
#      x y z
#    x 1.665070 0.000000 0.000000 
#    y 0.000000 1.610560 0.000000 
#    z 0.000000 0.000000 1.654490 
# 
# From -- ./inp_files/59774.got.cif
#   From: 2010.03.12/outbox.cif.g09.slc.cpg/sg63_30_cif.got.tgz:59774.got - 2010.04.10 19:34:48.
