data_PCOD8259426
_publ_section_title
;
Structure prediction by ZEFSAII (Michael W. Deem and Ramdas Pophale) SiO2 
 PCOD8259426
Probable space group: C M C M
;
_chemical_formula_sum "Si O2"
_cell_formula_units_Z 64
_cell_length_a 8.711363
_cell_length_b 15.356579
_cell_length_c 26.402505
_cell_angle_alpha 90.000000
_cell_angle_beta 90.000000
_cell_angle_gamma 90.000000
_cell_volume 3532.040891
_symmetry_space_group_name_H-M "C M C M"
_symmetry_group_IT_number 63
_symmetry_cell_setting 'orthorhombic'
loop_
_space_group_symop_operation_xyz
x,y,z
-x,-y,1/2+z
x,-y,-z
-x,y,1/2-z
-x,-y,-z
x,y,1/2-z
-x,y,z
x,-y,1/2+z
1/2+x,1/2+y,z
1/2-x,1/2-y,1/2+z
1/2+x,1/2-y,-z
1/2-x,1/2+y,1/2-z
1/2-x,1/2-y,-z
1/2+x,1/2+y,1/2-z
1/2-x,1/2+y,z
1/2+x,1/2-y,1/2+z
loop_
_atom_site_type_symbol
_atom_site_label
_atom_site_fract_x
_atom_site_fract_y
_atom_site_fract_z
Si Si1 0.680513 0.448007 0.098068
Si Si2 0.681108 0.778057 0.053094
Si Si3 0.825191 0.377388 0.606572
Si Si4 0.175085 0.504326 0.306673
O O1 0.500000 0.441510 0.090742
O O2 0.761121 0.373852 0.065764
O O3 0.743463 0.541281 0.077433
O O4 0.725534 0.438655 0.158012
O O5 0.500000 0.777842 0.049859
O O6 0.735362 0.711502 0.096625
O O7 0.750000 0.750000 0.000000
O O8 0.819664 0.399432 0.667023
O O9 0.000000 0.368428 0.587146
O O10 0.244028 0.509130 0.250000
O O11 0.000000 0.470370 0.305506
#
# Coordination Sequence:
#
# PCOD8259426 Si02
#       4
#    16  16  16  16
#     4  10  20  36  57  84 115 148 185 228 274 331
#     4  12  24  39  58  82 111 148 188 233 279 332
#     4   9  19  37  58  83 114 147 184 230 275 328
#     4   8  16  34  59  83 112 148 183 225 276 326
#
# _framework density 18.119835999999999
#
# number of rings (size 3 to 8) (size 9 to 14) (size 15 to 20)
#    1.500    0.750    0.000    4.500    0.000    1.500 
#    0.000    6.250    0.000    4.500    0.000    0.000 
#    0.000    0.000    0.000    0.000    0.000    0.000 
#
# Total GULP energy -396471.928986 kJ/mol
# GULP energy per Si atom -12389.747781 kJ/mol
# Density = 1.807859 g / cm^3
# Si number density = 18.119836 Si / 1000 Ang^3
#
#
#
# Elastic Constant Matrix: (Units=GPa)
#
#
# Indices 1 2 3 4 5 6 
#
# 1 144.3500 21.7055 16.5573 0.0000 0.0000 0.0000
# 2 21.7055 57.0969 -6.0784 0.0000 0.0000 0.0000
# 3 16.5573 -6.0784 51.1979 0.0000 0.0000 0.0000
# 4 0.0000 0.0000 0.0000 23.6377 0.0000 0.0000
# 5 0.0000 0.0000 0.0000 0.0000 28.1413 0.0000
# 6 0.0000 0.0000 0.0000 0.0000 0.0000 35.3532
#
#
#
# Elastic Compliance Matrix: (Units=1/GPa)
#
#
# Indices 1 2 3 4 5 6 
#
# 1 0.007749 -0.003254 -0.002892 0.000000 0.000000 0.000000
# 2 -0.003254 0.019104 0.003320 0.000000 0.000000 0.000000
# 3 -0.002892 0.003320 0.020862 0.000000 0.000000 0.000000
# 4 0.000000 0.000000 0.000000 0.042305 0.000000 0.000000
# 5 0.000000 0.000000 0.000000 0.000000 0.035535 0.000000
# 6 0.000000 0.000000 0.000000 0.000000 0.000000 0.028286
#
#
# Mechanical properties :
#
#
# Convention : Reuss Voigt Hill
#
# Bulk Modulus (GPa) = 23.77339 35.22374 29.49857
# Shear Modulus (GPa) = 28.81634 32.12381 30.47008
#
# Velocity S-wave (km/s) = 3.99221 4.21509 4.10516
# Velocity P-wave (km/s) = 5.86506 6.57046 6.22775
#
# Compressibility (1/GPa) = 0.04206384
#
# Stress axis : x y z
#
# Youngs Moduli (GPa) = 129.05613 52.34403 47.93501
#
# Poissons Ratio (x) = 0.17030 0.13864
# Poissons Ratio (y) = 0.41989 -0.15916
# Poissons Ratio (z) = 0.37325 -0.17380
#
# Static dielectric constant tensor:
#      x y z
#    x 3.393800 0.000000 0.000000 
#    y 0.000000 3.235830 0.000000 
#    z 0.000000 0.000000 3.244580 
# 
# 
# High freq. dielectric constant tensor:
#      x y z
#    x 1.714870 0.000000 0.000000 
#    y 0.000000 1.684400 0.000000 
#    z 0.000000 0.000000 1.686900 
# 
# From -- ./inp_files/59066.got.cif
#   From: 2010.03.12/outbox.cif.g09.slc.cpg/sg63_30_cif.got.tgz:59066.got - 2010.04.10 19:34:48.
