data_PCOD8259158
_publ_section_title
;
Structure prediction by ZEFSAII (Michael W. Deem and Ramdas Pophale) SiO2 
 PCOD8259158
Probable space group: C M C M
;
_chemical_formula_sum "Si O2"
_cell_formula_units_Z 104
_cell_length_a 28.834323
_cell_length_b 12.623049
_cell_length_c 15.564991
_cell_angle_alpha 90.000000
_cell_angle_beta 90.000000
_cell_angle_gamma 90.000000
_cell_volume 5665.299852
_symmetry_space_group_name_H-M "C M C M"
_symmetry_group_IT_number 63
_symmetry_cell_setting 'orthorhombic'
loop_
_space_group_symop_operation_xyz
x,y,z
-x,-y,1/2+z
x,-y,-z
-x,y,1/2-z
-x,-y,-z
x,y,1/2-z
-x,y,z
x,-y,1/2+z
1/2+x,1/2+y,z
1/2-x,1/2-y,1/2+z
1/2+x,1/2-y,-z
1/2-x,1/2+y,1/2-z
1/2-x,1/2-y,-z
1/2+x,1/2+y,1/2-z
1/2-x,1/2+y,z
1/2+x,1/2-y,1/2+z
loop_
_atom_site_type_symbol
_atom_site_label
_atom_site_fract_x
_atom_site_fract_y
_atom_site_fract_z
Si Si1 0.901293 0.807997 0.532797
Si Si2 0.160076 0.000000 0.500000
Si Si3 0.724270 0.574593 0.149868
Si Si4 0.586612 0.904785 0.935728
Si Si5 0.168754 0.726734 0.846972
Si Si6 0.500000 0.200646 0.148557
Si Si7 0.676228 0.003861 0.148833
Si Si8 0.500000 0.626449 0.502807
O O1 0.873443 0.899716 0.482539
O O2 0.896201 0.698340 0.484228
O O3 0.876846 0.790423 0.623848
O O4 0.954737 0.836988 0.548976
O O5 0.190905 0.008563 0.413711
O O6 0.716611 0.538200 0.250000
O O7 0.713781 0.699630 0.140256
O O8 0.777000 0.561832 0.117915
O O9 0.543960 0.872311 0.874783
O O10 0.630066 0.937405 0.878822
O O11 0.571579 0.000000 0.000000
O O12 0.158722 0.698998 0.750000
O O13 0.176856 0.613971 0.893630
O O14 0.500000 0.227538 0.250000
O O15 0.500000 0.313885 0.096465
O O16 0.677125 0.999612 0.250000
O O17 0.500000 0.500000 0.500000
#
# Coordination Sequence:
#
# PCOD8259158 Si02
#       8
#    16   8  16  16  16   8  16   8
#     4  10  20  36  58  84 109 148 189 232 292 345
#     4  10  20  35  58  80 112 151 190 238 292 346
#     4   9  20  35  53  80 112 150 195 240 291 349
#     4  11  21  36  59  85 114 150 195 237 290 353
#     4   9  18  35  54  76 112 149 188 237 284 338
#     4  10  23  41  60  87 122 156 191 243 303 355
#     4  10  20  35  55  80 115 152 188 238 290 340
#     4  10  20  39  64  83 116 147 187 238 288 353
#
# _framework density 18.35737
#
# number of rings (size 3 to 8) (size 9 to 14) (size 15 to 20)
#    0.000    2.154    2.308    0.692    1.077    1.231 
#    0.000    9.615    0.000    0.000    0.000    0.000 
#    0.000    0.000    0.000    0.000    0.000    0.000 
#
# Total GULP energy -644379.459573 kJ/mol
# GULP energy per Si atom -12391.912684 kJ/mol
# Density = 1.831559 g / cm^3
# Si number density = 18.357370 Si / 1000 Ang^3
#
#
#
# Elastic Constant Matrix: (Units=GPa)
#
#
# Indices 1 2 3 4 5 6 
#
# 1 160.3314 70.5213 45.9020 0.0000 0.0000 0.0000
# 2 70.5213 140.3724 35.6323 0.0000 0.0000 0.0000
# 3 45.9020 35.6323 47.2219 0.0000 0.0000 0.0000
# 4 0.0000 0.0000 0.0000 22.6680 0.0000 0.0000
# 5 0.0000 0.0000 0.0000 0.0000 23.7411 0.0000
# 6 0.0000 0.0000 0.0000 0.0000 0.0000 29.1476
#
#
#
# Elastic Compliance Matrix: (Units=1/GPa)
#
#
# Indices 1 2 3 4 5 6 
#
# 1 0.009582 -0.003030 -0.007028 0.000000 0.000000 0.000000
# 2 -0.003030 0.009770 -0.004427 0.000000 0.000000 0.000000
# 3 -0.007028 -0.004427 0.031348 0.000000 0.000000 0.000000
# 4 0.000000 0.000000 0.000000 0.044115 0.000000 0.000000
# 5 0.000000 0.000000 0.000000 0.000000 0.042121 0.000000
# 6 0.000000 0.000000 0.000000 0.000000 0.000000 0.034308
#
#
# Mechanical properties :
#
#
# Convention : Reuss Voigt Hill
#
# Bulk Modulus (GPa) = 46.01717 72.44856 59.23287
# Shear Modulus (GPa) = 24.10144 28.16934 26.13539
#
# Velocity S-wave (km/s) = 3.62733 3.92152 3.77729
# Velocity P-wave (km/s) = 6.53186 7.74956 7.16662
#
# Compressibility (1/GPa) = 0.02173102
#
# Stress axis : x y z
#
# Youngs Moduli (GPa) = 104.36525 102.35660 31.89968
#
# Poissons Ratio (x) = 0.31012 0.22418
# Poissons Ratio (y) = 0.31621 0.14122
# Poissons Ratio (z) = 0.73345 0.45312
#
# Static dielectric constant tensor:
#      x y z
#    x 3.666950 0.000000 0.000000 
#    y 0.000000 3.688360 0.000000 
#    z 0.000000 0.000000 3.342490 
# 
# 
# High freq. dielectric constant tensor:
#      x y z
#    x 1.722480 0.000000 0.000000 
#    y 0.000000 1.724530 0.000000 
#    z 0.000000 0.000000 1.695200 
# 
# From -- ./inp_files/49057.got.cif
#   From: 2010.03.12/outbox.cif.g09.slc.cpg/sg63_25_cif.got.tgz:49057.got - 2010.04.10 19:34:48.
