data_PCOD8259334
_publ_section_title
;
Structure prediction by ZEFSAII (Michael W. Deem and Ramdas Pophale) SiO2 
 PCOD8259334
Probable space group: C M C M
;
_chemical_formula_sum "Si O2"
_cell_formula_units_Z 60
_cell_length_a 7.505663
_cell_length_b 17.653671
_cell_length_c 24.866828
_cell_angle_alpha 90.000000
_cell_angle_beta 90.000000
_cell_angle_gamma 90.000000
_cell_volume 3294.917007
_symmetry_space_group_name_H-M "C M C M"
_symmetry_group_IT_number 63
_symmetry_cell_setting 'orthorhombic'
loop_
_space_group_symop_operation_xyz
x,y,z
-x,-y,1/2+z
x,-y,-z
-x,y,1/2-z
-x,-y,-z
x,y,1/2-z
-x,y,z
x,-y,1/2+z
1/2+x,1/2+y,z
1/2-x,1/2-y,1/2+z
1/2+x,1/2-y,-z
1/2-x,1/2+y,1/2-z
1/2-x,1/2-y,-z
1/2+x,1/2+y,1/2-z
1/2-x,1/2+y,z
1/2+x,1/2-y,1/2+z
loop_
_atom_site_type_symbol
_atom_site_label
_atom_site_fract_x
_atom_site_fract_y
_atom_site_fract_z
Si Si1 0.500000 0.432504 0.040609
Si Si2 0.298090 0.815456 0.459403
Si Si3 0.500000 0.438116 0.750000
Si Si4 0.295799 0.189201 0.836870
Si Si5 0.295291 0.188432 0.250000
Si Si6 0.000000 0.067650 0.835722
O O1 0.323258 0.386359 0.027057
O O2 0.500000 0.458649 0.102455
O O3 0.500000 0.500000 0.000000
O O4 0.500000 0.842014 0.467217
O O5 0.250000 0.750000 0.500000
O O6 0.262778 0.787077 0.398649
O O7 0.324220 0.386540 0.750000
O O8 0.500000 0.490667 0.802426
O O9 0.500000 0.165474 0.826091
O O10 0.245259 0.262431 0.802682
O O11 0.173821 0.117573 0.821134
O O12 0.500000 0.162295 0.250000
#
# Coordination Sequence:
#
# PCOD8259334 Si02
#       6
#     8  16   4  16   8   8
#     4  10  22  38  56  86 121 155 187 232 290 341
#     4  10  20  35  60  89 114 148 195 238 281 336
#     4  12  26  38  54  90 122 146 188 242 296 336
#     4  10  20  38  63  84 110 154 197 232 280 348
#     4  12  23  37  59  89 116 145 190 246 293 330
#     4  10  22  40  60  82 117 158 192 227 285 355
#
# _framework density 18.209866999999999
#
# number of rings (size 3 to 8) (size 9 to 14) (size 15 to 20)
#    0.000    1.600    4.000    0.800    0.000    3.733 
#    0.000    0.000    0.000    0.000    0.000    0.000 
#    0.000    0.000    0.000    0.000    0.000    0.000 
#
# Total GULP energy -372066.756314 kJ/mol
# GULP energy per Si atom -12402.225210 kJ/mol
# Density = 1.816842 g / cm^3
# Si number density = 18.209867 Si / 1000 Ang^3
#
#
#
# Elastic Constant Matrix: (Units=GPa)
#
#
# Indices 1 2 3 4 5 6 
#
# 1 178.1364 83.1504 61.2968 0.0000 0.0000 0.0000
# 2 83.1504 147.9116 92.4446 0.0000 0.0000 0.0000
# 3 61.2968 92.4446 118.5475 0.0000 0.0000 0.0000
# 4 0.0000 0.0000 0.0000 42.6998 0.0000 0.0000
# 5 0.0000 0.0000 0.0000 0.0000 25.2378 0.0000
# 6 0.0000 0.0000 0.0000 0.0000 0.0000 32.4315
#
#
#
# Elastic Compliance Matrix: (Units=1/GPa)
#
#
# Indices 1 2 3 4 5 6 
#
# 1 0.007695 -0.003587 -0.001181 0.000000 0.000000 0.000000
# 2 -0.003587 0.014861 -0.009734 0.000000 0.000000 0.000000
# 3 -0.001181 -0.009734 0.016637 0.000000 0.000000 0.000000
# 4 0.000000 0.000000 0.000000 0.023419 0.000000 0.000000
# 5 0.000000 0.000000 0.000000 0.000000 0.039623 0.000000
# 6 0.000000 0.000000 0.000000 0.000000 0.000000 0.030834
#
#
# Mechanical properties :
#
#
# Convention : Reuss Voigt Hill
#
# Bulk Modulus (GPa) = 98.15863 102.04214 100.10039
# Shear Modulus (GPa) = 30.21685 33.92071 32.06878
#
# Velocity S-wave (km/s) = 4.07795 4.32066 4.20106
# Velocity P-wave (km/s) = 8.72892 9.00273 8.86688
#
# Compressibility (1/GPa) = 0.01018759
#
# Stress axis : x y z
#
# Youngs Moduli (GPa) = 129.96052 67.28882 60.10751
#
# Poissons Ratio (x) = 0.24140 0.07099
# Poissons Ratio (y) = 0.46623 0.58509
# Poissons Ratio (z) = 0.15350 0.65499
#
# Static dielectric constant tensor:
#      x y z
#    x 3.930730 0.000000 0.000000 
#    y 0.000000 3.088560 0.000000 
#    z 0.000000 0.000000 3.490780 
# 
# 
# High freq. dielectric constant tensor:
#      x y z
#    x 1.730230 0.000000 0.000000 
#    y 0.000000 1.682720 0.000000 
#    z 0.000000 0.000000 1.721400 
# 
# From -- ./inp_files/66233.got.cif
#   From: 2010.03.12/outbox.cif.g09.slc.cpg/sg63_34_cif.got.tgz:66233.got - 2010.04.10 19:34:48.
