data_PCOD8259078
_publ_section_title
;
Structure prediction by ZEFSAII (Michael W. Deem and Ramdas Pophale) SiO2 
 PCOD8259078
Probable space group: C M C M
;
_chemical_formula_sum "Si O2"
_cell_formula_units_Z 112
_cell_length_a 27.697476
_cell_length_b 15.384559
_cell_length_c 15.532087
_cell_angle_alpha 90.000000
_cell_angle_beta 90.000000
_cell_angle_gamma 90.000000
_cell_volume 6618.431234
_symmetry_space_group_name_H-M "C M C M"
_symmetry_group_IT_number 63
_symmetry_cell_setting 'orthorhombic'
loop_
_space_group_symop_operation_xyz
x,y,z
-x,-y,1/2+z
x,-y,-z
-x,y,1/2-z
-x,-y,-z
x,y,1/2-z
-x,y,z
x,-y,1/2+z
1/2+x,1/2+y,z
1/2-x,1/2-y,1/2+z
1/2+x,1/2-y,-z
1/2-x,1/2+y,1/2-z
1/2-x,1/2-y,-z
1/2+x,1/2+y,1/2-z
1/2-x,1/2+y,z
1/2+x,1/2-y,1/2+z
loop_
_atom_site_type_symbol
_atom_site_label
_atom_site_fract_x
_atom_site_fract_y
_atom_site_fract_z
Si Si1 0.771385 0.128721 0.345035
Si Si2 0.352891 0.741592 0.557903
Si Si3 0.297339 0.904079 0.499731
Si Si4 0.554098 0.703786 0.649830
Si Si5 0.054560 0.002878 0.651008
Si Si6 0.258091 0.681822 0.847933
Si Si7 0.859278 0.922294 0.560067
O O1 0.752503 0.102475 0.250000
O O2 0.736445 0.093248 0.417415
O O3 0.775375 0.232980 0.352656
O O4 0.823706 0.085635 0.358577
O O5 0.338146 0.831097 0.511053
O O6 0.404173 0.760070 0.604279
O O7 0.312446 0.708832 0.625250
O O8 0.360175 0.669440 0.486350
O O9 0.264940 0.887473 0.414087
O O10 0.321434 0.000000 0.500000
O O11 0.554806 0.725822 0.750000
O O12 0.500000 0.724541 0.613929
O O13 0.567342 0.603181 0.633841
O O14 0.063205 0.979614 0.750000
O O15 0.000000 0.983178 0.623908
O O16 0.087077 0.942247 0.591987
O O17 0.259337 0.644159 0.750000
O O18 0.839930 0.000000 0.500000
#
# Coordination Sequence:
#
# PCOD8259078 Si02
#       7
#    16  16  16  16  16  16  16
#     4  10  20  35  53  74 102 138 176 215 259 309
#     4  11  20  35  52  76 107 135 176 217 257 311
#     4  11  22  38  53  74 106 139 180 224 262 304
#     4   9  18  33  52  75 104 136 170 210 260 317
#     4   9  19  33  47  71 106 139 171 206 250 311
#     4  10  20  36  55  74 103 139 175 220 263 306
#     4  12  20  30  49  74 107 138 173 212 251 307
#
# _framework density 16.922439000000001
#
# number of rings (size 3 to 8) (size 9 to 14) (size 15 to 20)
#    0.000    1.714    4.286    3.000    0.000    2.000 
#    0.000    0.000    0.000    0.429    0.000    0.000 
#    0.000    2.286    0.000    0.000    0.000    0.000 
#
# Total GULP energy -694241.082689 kJ/mol
# GULP energy per Si atom -12397.162191 kJ/mol
# Density = 1.688392 g / cm^3
# Si number density = 16.922439 Si / 1000 Ang^3
#
#
#
# Elastic Constant Matrix: (Units=GPa)
#
#
# Indices 1 2 3 4 5 6 
#
# 1 101.8637 37.1336 43.5456 0.0000 0.0000 0.0000
# 2 37.1336 85.2051 39.6242 0.0000 0.0000 0.0000
# 3 43.5456 39.6242 102.7174 0.0000 0.0000 0.0000
# 4 0.0000 0.0000 0.0000 12.9186 0.0000 0.0000
# 5 0.0000 0.0000 0.0000 0.0000 29.7758 0.0000
# 6 0.0000 0.0000 0.0000 0.0000 0.0000 25.9182
#
#
#
# Elastic Compliance Matrix: (Units=1/GPa)
#
#
# Indices 1 2 3 4 5 6 
#
# 1 0.012905 -0.003753 -0.004023 0.000000 0.000000 0.000000
# 2 -0.003753 0.015394 -0.004347 0.000000 0.000000 0.000000
# 3 -0.004023 -0.004347 0.013118 0.000000 0.000000 0.000000
# 4 0.000000 0.000000 0.000000 0.077408 0.000000 0.000000
# 5 0.000000 0.000000 0.000000 0.000000 0.033584 0.000000
# 6 0.000000 0.000000 0.000000 0.000000 0.000000 0.038583
#
#
# Mechanical properties :
#
#
# Convention : Reuss Voigt Hill
#
# Bulk Modulus (GPa) = 58.24191 58.93255 58.58723
# Shear Modulus (GPa) = 22.62830 25.02136 23.82483
#
# Velocity S-wave (km/s) = 3.66071 3.84942 3.75625
# Velocity P-wave (km/s) = 7.23598 7.39311 7.31497
#
# Compressibility (1/GPa) = 0.01716977
#
# Stress axis : x y z
#
# Youngs Moduli (GPa) = 77.48879 64.96150 76.23169
#
# Poissons Ratio (x) = 0.24382 0.30668
# Poissons Ratio (y) = 0.29084 0.33139
# Poissons Ratio (z) = 0.31174 0.28239
#
# Static dielectric constant tensor:
#      x y z
#    x 3.215520 0.000000 0.000000 
#    y 0.000000 3.063890 0.000000 
#    z 0.000000 0.000000 3.332110 
# 
# 
# High freq. dielectric constant tensor:
#      x y z
#    x 1.640070 0.000000 0.000000 
#    y 0.000000 1.627600 0.000000 
#    z 0.000000 0.000000 1.662780 
# 
# From -- ./inp_files/37945.got.cif
#   From: 2010.03.12/outbox.cif.g09.slc.cpg/sg63_19_cif.got.tgz:37945.got - 2010.04.10 19:34:48.
