data_PCOD8259636
_publ_section_title
;
Structure prediction by ZEFSAII (Michael W. Deem and Ramdas Pophale) SiO2 
 PCOD8259636
Probable space group: C M C M
;
_chemical_formula_sum "Si O2"
_cell_formula_units_Z 96
_cell_length_a 27.451609
_cell_length_b 20.379945
_cell_length_c 8.636752
_cell_angle_alpha 90.000000
_cell_angle_beta 90.000000
_cell_angle_gamma 90.000000
_cell_volume 4831.936979
_symmetry_space_group_name_H-M "C M C M"
_symmetry_group_IT_number 63
_symmetry_cell_setting 'orthorhombic'
loop_
_space_group_symop_operation_xyz
x,y,z
-x,-y,1/2+z
x,-y,-z
-x,y,1/2-z
-x,-y,-z
x,y,1/2-z
-x,y,z
x,-y,1/2+z
1/2+x,1/2+y,z
1/2-x,1/2-y,1/2+z
1/2+x,1/2-y,-z
1/2-x,1/2+y,1/2-z
1/2-x,1/2-y,-z
1/2+x,1/2+y,1/2-z
1/2-x,1/2+y,z
1/2+x,1/2-y,1/2+z
loop_
_atom_site_type_symbol
_atom_site_label
_atom_site_fract_x
_atom_site_fract_y
_atom_site_fract_z
Si Si1 0.394246 0.194950 0.432693
Si Si2 0.274925 0.431032 0.567067
Si Si3 0.379476 0.568774 0.568366
Si Si4 0.716586 0.806069 0.567684
Si Si5 0.943189 0.430068 0.430259
Si Si6 0.442973 0.680185 0.428348
O O1 0.399185 0.206140 0.250000
O O2 0.338621 0.202457 0.489567
O O3 0.412678 0.123098 0.475833
O O4 0.426314 0.247744 0.522568
O O5 0.256569 0.500000 0.500000
O O6 0.278688 0.436440 0.750000
O O7 0.327743 0.411442 0.503052
O O8 0.236490 0.376528 0.511974
O O9 0.398707 0.500000 0.500000
O O10 0.373124 0.560728 0.750000
O O11 0.417766 0.625418 0.532808
O O12 0.719511 0.801041 0.750000
O O13 0.750000 0.750000 0.500000
O O14 0.928416 0.500000 0.500000
O O15 0.929431 0.427878 0.250000
O O16 0.000000 0.415775 0.456463
O O17 0.429292 0.668352 0.250000
O O18 0.500000 0.674647 0.457263
#
# Coordination Sequence:
#
# PCOD8259636 Si02
#       6
#    16  16  16  16  16  16
#     4  11  23  39  59  86 118 151 191 237 287 341
#     4  10  20  37  59  84 115 150 189 231 279 334
#     4  11  22  38  61  88 117 150 189 232 283 339
#     4  10  23  39  57  83 114 149 189 234 282 336
#     4  10  21  38  60  86 116 152 193 236 285 340
#     4  11  24  41  60  84 115 151 192 237 285 338
#
# _framework density 19.867808
#
# number of rings (size 3 to 8) (size 9 to 14) (size 15 to 20)
#    0.000    1.500    0.000    6.000    0.000   10.667 
#    0.000    1.667    0.000    0.000    0.000    0.000 
#    0.000    0.000    0.000    0.000    0.000    0.000 
#
# Total GULP energy -595469.856358 kJ/mol
# GULP energy per Si atom -12405.622007 kJ/mol
# Density = 1.982259 g / cm^3
# Si number density = 19.867808 Si / 1000 Ang^3
#
#
#
# Elastic Constant Matrix: (Units=GPa)
#
#
# Indices 1 2 3 4 5 6 
#
# 1 22.5627 3.7548 29.3108 0.0000 0.0000 0.0000
# 2 3.7548 81.0292 30.4089 0.0000 0.0000 0.0000
# 3 29.3108 30.4089 69.7125 0.0000 0.0000 0.0000
# 4 0.0000 0.0000 0.0000 36.2378 0.0000 0.0000
# 5 0.0000 0.0000 0.0000 0.0000 19.2387 0.0000
# 6 0.0000 0.0000 0.0000 0.0000 0.0000 37.1135
#
#
#
# Elastic Compliance Matrix: (Units=1/GPa)
#
#
# Indices 1 2 3 4 5 6 
#
# 1 0.110676 0.014749 -0.052968 0.000000 0.000000 0.000000
# 2 0.014749 0.016722 -0.013496 0.000000 0.000000 0.000000
# 3 -0.052968 -0.013496 0.042502 0.000000 0.000000 0.000000
# 4 0.000000 0.000000 0.000000 0.027596 0.000000 0.000000
# 5 0.000000 0.000000 0.000000 0.000000 0.051979 0.000000
# 6 0.000000 0.000000 0.000000 0.000000 0.000000 0.026944
#
#
# Mechanical properties :
#
#
# Convention : Reuss Voigt Hill
#
# Bulk Modulus (GPa) = 15.04394 33.36151 24.20273
# Shear Modulus (GPa) = 12.43766 25.83997 19.13882
#
# Velocity S-wave (km/s) = 2.50476 3.61029 3.10709
# Velocity P-wave (km/s) = 3.99419 5.84868 5.00803
#
# Compressibility (1/GPa) = 0.06647193
#
# Stress axis : x y z
#
# Youngs Moduli (GPa) = 9.03538 59.79968 23.52832
#
# Poissons Ratio (x) = -0.88200 1.24624
# Poissons Ratio (y) = -0.13327 0.31753
# Poissons Ratio (z) = 0.47858 0.80704
#
# Static dielectric constant tensor:
#      x y z
#    x 3.671280 0.000000 0.000000 
#    y 0.000000 3.777870 0.000000 
#    z 0.000000 0.000000 3.666810 
# 
# 
# High freq. dielectric constant tensor:
#      x y z
#    x 1.775410 0.000000 0.000000 
#    y 0.000000 1.791070 0.000000 
#    z 0.000000 0.000000 1.786420 
# 
# From -- ./inp_files/12316.got.cif
#   From: 2010.03.12/outbox.cif.g09.slc.cpg/sg63_7_cif.got.tgz:12316.got - 2010.04.10 19:34:48.
