data_PCOD8259980
_publ_section_title
;
Structure prediction by ZEFSAII (Michael W. Deem and Ramdas Pophale) SiO2 
 PCOD8259980
Probable space group: C M C M
;
_chemical_formula_sum "Si O2"
_cell_formula_units_Z 72
_cell_length_a 15.596746
_cell_length_b 24.678637
_cell_length_c 9.465833
_cell_angle_alpha 90.000000
_cell_angle_beta 90.000000
_cell_angle_gamma 90.000000
_cell_volume 3643.460015
_symmetry_space_group_name_H-M "C M C M"
_symmetry_group_IT_number 63
_symmetry_cell_setting 'orthorhombic'
loop_
_space_group_symop_operation_xyz
x,y,z
-x,-y,1/2+z
x,-y,-z
-x,y,1/2-z
-x,-y,-z
x,y,1/2-z
-x,y,z
x,-y,1/2+z
1/2+x,1/2+y,z
1/2-x,1/2-y,1/2+z
1/2+x,1/2-y,-z
1/2-x,1/2+y,1/2-z
1/2-x,1/2-y,-z
1/2+x,1/2+y,1/2-z
1/2-x,1/2+y,z
1/2+x,1/2-y,1/2+z
loop_
_atom_site_type_symbol
_atom_site_label
_atom_site_fract_x
_atom_site_fract_y
_atom_site_fract_z
Si Si1 0.500000 0.944185 0.585419
Si Si2 0.099391 0.953225 0.404868
Si Si3 0.861755 0.644339 0.087168
Si Si4 0.164623 0.258311 0.088048
Si Si5 0.660710 0.361677 0.592945
O O1 0.500000 0.959279 0.750000
O O2 0.584148 0.908920 0.545749
O O3 0.500000 0.000000 0.500000
O O4 0.143138 0.952666 0.250000
O O5 0.109913 0.895442 0.477764
O O6 0.000000 0.966302 0.387359
O O7 0.143657 0.000000 0.500000
O O8 0.879129 0.660180 0.250000
O O9 0.761757 0.634038 0.058717
O O10 0.891764 0.695074 0.988729
O O11 0.183984 0.275662 0.250000
O O12 0.121203 0.199000 0.085894
O O13 0.250000 0.250000 0.000000
O O14 0.644386 0.385316 0.750000
#
# Coordination Sequence:
#
# PCOD8259980 Si02
#       5
#     8  16  16  16  16
#     4  10  22  40  58  78 110 150 189 236 281 324
#     4  10  21  36  53  74 102 137 174 214 262 315
#     4   9  19  36  56  79 109 143 180 223 274 321
#     4   9  17  31  53  80 108 138 172 215 267 320
#     4   9  18  33  54  80 108 139 176 218 265 322
#
# _framework density 19.761434999999999
#
# number of rings (size 3 to 8) (size 9 to 14) (size 15 to 20)
#    0.000    2.667    0.000    2.667    0.000    7.556 
#    2.000    2.222    0.000    0.000    0.000    0.000 
#    0.000    0.000    0.000    0.000    0.000    0.000 
#
# Total GULP energy -446156.528710 kJ/mol
# GULP energy per Si atom -12393.236909 kJ/mol
# Density = 1.971646 g / cm^3
# Si number density = 19.761435 Si / 1000 Ang^3
#
#
#
# Elastic Constant Matrix: (Units=GPa)
#
#
# Indices 1 2 3 4 5 6 
#
# 1 31.3164 28.4069 19.8095 0.0000 0.0000 0.0000
# 2 28.4069 150.5858 93.0298 0.0000 0.0000 0.0000
# 3 19.8095 93.0298 158.7934 0.0000 0.0000 0.0000
# 4 0.0000 0.0000 0.0000 44.0780 0.0000 0.0000
# 5 0.0000 0.0000 0.0000 0.0000 21.3989 0.0000
# 6 0.0000 0.0000 0.0000 0.0000 0.0000 26.5531
#
#
#
# Elastic Compliance Matrix: (Units=1/GPa)
#
#
# Indices 1 2 3 4 5 6 
#
# 1 0.038599 -0.006750 -0.000861 0.000000 0.000000 0.000000
# 2 -0.006750 0.011588 -0.005947 0.000000 0.000000 0.000000
# 3 -0.000861 -0.005947 0.009889 0.000000 0.000000 0.000000
# 4 0.000000 0.000000 0.000000 0.022687 0.000000 0.000000
# 5 0.000000 0.000000 0.000000 0.000000 0.046731 0.000000
# 6 0.000000 0.000000 0.000000 0.000000 0.000000 0.037660
#
#
# Mechanical properties :
#
#
# Convention : Reuss Voigt Hill
#
# Bulk Modulus (GPa) = 30.33867 69.24312 49.79089
# Shear Modulus (GPa) = 24.35978 31.70263 28.03120
#
# Velocity S-wave (km/s) = 3.51478 4.00968 3.77036
# Velocity P-wave (km/s) = 5.64423 7.52012 6.64867
#
# Compressibility (1/GPa) = 0.03296123
#
# Stress axis : x y z
#
# Youngs Moduli (GPa) = 25.90727 86.29760 101.12405
#
# Poissons Ratio (x) = 0.58247 0.08707
# Poissons Ratio (y) = 0.17486 0.60136
# Poissons Ratio (z) = 0.02231 0.51319
#
# Static dielectric constant tensor:
#      x y z
#    x 3.261600 0.000000 0.000000 
#    y 0.000000 3.844040 0.000000 
#    z 0.000000 0.000000 4.061260 
# 
# 
# High freq. dielectric constant tensor:
#      x y z
#    x 1.730110 0.000000 0.000000 
#    y 0.000000 1.775190 0.000000 
#    z 0.000000 0.000000 1.782150 
# 
# From -- ./inp_files/4601.got.cif
#   From: 2010.03.12/outbox.cif.g09.slc.cpg/sg63_3_cif.got.tgz:4601.got - 2010.04.10 19:34:48.
