data_PCOD8259085
_publ_section_title
;
Structure prediction by ZEFSAII (Michael W. Deem and Ramdas Pophale) SiO2 
 PCOD8259085
Probable space group: C M C M
;
_chemical_formula_sum "Si O2"
_cell_formula_units_Z 112
_cell_length_a 14.233361
_cell_length_b 27.193006
_cell_length_c 15.165875
_cell_angle_alpha 90.000000
_cell_angle_beta 90.000000
_cell_angle_gamma 90.000000
_cell_volume 5869.919632
_symmetry_space_group_name_H-M "C M C M"
_symmetry_group_IT_number 63
_symmetry_cell_setting 'orthorhombic'
loop_
_space_group_symop_operation_xyz
x,y,z
-x,-y,1/2+z
x,-y,-z
-x,y,1/2-z
-x,-y,-z
x,y,1/2-z
-x,y,z
x,-y,1/2+z
1/2+x,1/2+y,z
1/2-x,1/2-y,1/2+z
1/2+x,1/2-y,-z
1/2-x,1/2+y,1/2-z
1/2-x,1/2-y,-z
1/2+x,1/2+y,1/2-z
1/2-x,1/2+y,z
1/2+x,1/2-y,1/2+z
loop_
_atom_site_type_symbol
_atom_site_label
_atom_site_fract_x
_atom_site_fract_y
_atom_site_fract_z
Si Si1 0.290063 0.056217 0.351025
Si Si2 0.105598 0.846054 0.015766
Si Si3 0.391432 0.043819 0.849938
Si Si4 0.109999 0.382055 0.503578
Si Si5 0.892971 0.781536 0.652831
Si Si6 0.721458 0.793699 0.062251
Si Si7 0.394553 0.548933 0.445754
O O1 0.311306 0.069632 0.250000
O O2 0.336304 0.097609 0.411494
O O3 0.178168 0.053376 0.365585
O O4 0.333352 0.003900 0.377274
O O5 0.128642 0.823807 0.918778
O O6 0.116790 0.904742 0.011583
O O7 0.000000 0.831681 0.046646
O O8 0.183223 0.824777 0.084579
O O9 0.368181 0.060945 0.750000
O O10 0.500000 0.029470 0.859635
O O11 0.363765 0.087172 0.916174
O O12 0.144931 0.327025 0.487491
O O13 0.000000 0.382271 0.523579
O O14 0.875264 0.804323 0.750000
O O15 0.828002 0.732534 0.645350
O O16 0.000000 0.763527 0.642456
O O17 0.750000 0.750000 0.000000
O O18 0.372693 0.500000 0.500000
O O19 0.500000 0.547987 0.406013
#
# Coordination Sequence:
#
# PCOD8259085 Si02
#       7
#    16  16  16  16  16  16  16
#     4  11  22  35  54  82 118 155 188 224 274 340
#     4   9  18  34  55  79 107 142 182 227 275 331
#     4   9  19  35  56  84 115 145 181 225 277 342
#     4  11  21  35  57  82 112 150 189 233 285 342
#     4   9  18  33  55  83 112 140 175 228 290 342
#     4  10  20  35  53  80 107 139 183 231 280 334
#     4  10  20  35  57  83 110 143 187 234 280 331
#
# _framework density 19.080328999999999
#
# number of rings (size 3 to 8) (size 9 to 14) (size 15 to 20)
#    0.000    2.143    1.429    2.143    0.000    4.000 
#    0.000    2.857    0.000    0.429    0.000    0.000 
#    0.000    0.000    0.000    0.000    0.000    0.000 
#
# Total GULP energy -694221.583676 kJ/mol
# GULP energy per Si atom -12396.813994 kJ/mol
# Density = 1.903690 g / cm^3
# Si number density = 19.080329 Si / 1000 Ang^3
#
#
#
# Elastic Constant Matrix: (Units=GPa)
#
#
# Indices 1 2 3 4 5 6 
#
# 1 91.0955 27.4411 19.8376 0.0000 0.0000 0.0000
# 2 27.4411 94.2965 21.5122 0.0000 0.0000 0.0000
# 3 19.8376 21.5122 53.8602 0.0000 0.0000 0.0000
# 4 0.0000 0.0000 0.0000 17.3918 0.0000 0.0000
# 5 0.0000 0.0000 0.0000 0.0000 26.1525 0.0000
# 6 0.0000 0.0000 0.0000 0.0000 0.0000 37.0521
#
#
#
# Elastic Compliance Matrix: (Units=1/GPa)
#
#
# Indices 1 2 3 4 5 6 
#
# 1 0.012603 -0.002870 -0.003496 0.000000 0.000000 0.000000
# 2 -0.002870 0.012322 -0.003864 0.000000 0.000000 0.000000
# 3 -0.003496 -0.003864 0.021398 0.000000 0.000000 0.000000
# 4 0.000000 0.000000 0.000000 0.057498 0.000000 0.000000
# 5 0.000000 0.000000 0.000000 0.000000 0.038237 0.000000
# 6 0.000000 0.000000 0.000000 0.000000 0.000000 0.026989
#
#
# Mechanical properties :
#
#
# Convention : Reuss Voigt Hill
#
# Bulk Modulus (GPa) = 38.66623 41.87044 40.26834
# Shear Modulus (GPa) = 25.23620 27.48336 26.35978
#
# Velocity S-wave (km/s) = 3.64074 3.79938 3.72091
# Velocity P-wave (km/s) = 6.16298 6.42176 6.29370
#
# Compressibility (1/GPa) = 0.02586236
#
# Stress axis : x y z
#
# Youngs Moduli (GPa) = 79.34405 81.15784 46.73443
#
# Poissons Ratio (x) = 0.23294 0.16337
# Poissons Ratio (y) = 0.22773 0.18059
# Poissons Ratio (z) = 0.27736 0.31361
#
# Static dielectric constant tensor:
#      x y z
#    x 3.941430 0.000000 0.000000 
#    y 0.000000 3.639550 0.000000 
#    z 0.000000 0.000000 3.234450 
# 
# 
# High freq. dielectric constant tensor:
#      x y z
#    x 1.760310 0.000000 0.000000 
#    y 0.000000 1.746370 0.000000 
#    z 0.000000 0.000000 1.704900 
# 
# From -- ./inp_files/32517.got.cif
#   From: 2010.03.12/outbox.cif.g09.slc.cpg/sg63_17_cif.got.tgz:32517.got - 2010.04.10 19:34:48.
