data_PCOD8259283
_publ_section_title
;
Structure prediction by ZEFSAII (Michael W. Deem and Ramdas Pophale) SiO2 
 PCOD8259283
Probable space group: C M C M
;
_chemical_formula_sum "Si O2"
_cell_formula_units_Z 96
_cell_length_a 27.164988
_cell_length_b 20.143262
_cell_length_c 8.744762
_cell_angle_alpha 90.000000
_cell_angle_beta 90.000000
_cell_angle_gamma 90.000000
_cell_volume 4785.059178
_symmetry_space_group_name_H-M "C M C M"
_symmetry_group_IT_number 63
_symmetry_cell_setting 'orthorhombic'
loop_
_space_group_symop_operation_xyz
x,y,z
-x,-y,1/2+z
x,-y,-z
-x,y,1/2-z
-x,-y,-z
x,y,1/2-z
-x,y,z
x,-y,1/2+z
1/2+x,1/2+y,z
1/2-x,1/2-y,1/2+z
1/2+x,1/2-y,-z
1/2-x,1/2+y,1/2-z
1/2-x,1/2-y,-z
1/2+x,1/2+y,1/2-z
1/2-x,1/2+y,z
1/2+x,1/2-y,1/2+z
loop_
_atom_site_type_symbol
_atom_site_label
_atom_site_fract_x
_atom_site_fract_y
_atom_site_fract_z
Si Si1 0.393580 0.194230 0.429696
Si Si2 0.266425 0.568704 0.571644
Si Si3 0.370604 0.569860 0.430874
Si Si4 0.710630 0.798834 0.428564
Si Si5 0.943782 0.430518 0.430066
Si Si6 0.443742 0.684987 0.426635
O O1 0.392108 0.184816 0.250000
O O2 0.340615 0.216443 0.490341
O O3 0.408199 0.125194 0.505491
O O4 0.432975 0.250164 0.473578
O O5 0.246592 0.500000 0.500000
O O6 0.276519 0.557791 0.750000
O O7 0.317382 0.590911 0.493924
O O8 0.225989 0.625023 0.541536
O O9 0.387887 0.500000 0.500000
O O10 0.367781 0.563451 0.250000
O O11 0.409904 0.624593 0.483310
O O12 0.705608 0.783433 0.250000
O O13 0.750000 0.750000 0.500000
O O14 0.926470 0.500000 0.500000
O O15 0.937615 0.434048 0.250000
O O16 0.000000 0.414763 0.477672
O O17 0.433270 0.702483 0.250000
O O18 0.500000 0.663591 0.452220
#
# Coordination Sequence:
#
# PCOD8259283 Si02
#       6
#    16  16  16  16  16  16
#     4  12  25  39  59  87 118 154 195 239 290 347
#     4  10  21  37  59  85 113 147 187 230 279 336
#     4  10  20  35  58  85 115 151 189 232 284 341
#     4  11  24  41  61  86 116 151 193 241 292 346
#     4  10  21  39  63  89 119 155 194 239 291 347
#     4  10  22  40  60  83 114 153 195 240 291 343
#
# _framework density 20.062448
#
# number of rings (size 3 to 8) (size 9 to 14) (size 15 to 20)
#    0.000    1.500    0.000    6.000    0.000   11.000 
#    0.000    1.667    0.000    0.000    0.000    0.000 
#    0.000    0.000    0.000    0.000    0.000    0.000 
#
# Total GULP energy -595508.858229 kJ/mol
# GULP energy per Si atom -12406.434546 kJ/mol
# Density = 2.001679 g / cm^3
# Si number density = 20.062448 Si / 1000 Ang^3
#
#
#
# Elastic Constant Matrix: (Units=GPa)
#
#
# Indices 1 2 3 4 5 6 
#
# 1 59.6169 17.5760 11.9728 0.0000 0.0000 0.0000
# 2 17.5760 81.1586 30.8043 0.0000 0.0000 0.0000
# 3 11.9728 30.8043 83.8710 0.0000 0.0000 0.0000
# 4 0.0000 0.0000 0.0000 37.2773 0.0000 0.0000
# 5 0.0000 0.0000 0.0000 0.0000 28.7754 0.0000
# 6 0.0000 0.0000 0.0000 0.0000 0.0000 41.2739
#
#
#
# Elastic Compliance Matrix: (Units=1/GPa)
#
#
# Indices 1 2 3 4 5 6 
#
# 1 0.018044 -0.003405 -0.001325 0.000000 0.000000 0.000000
# 2 -0.003405 0.014960 -0.005008 0.000000 0.000000 0.000000
# 3 -0.001325 -0.005008 0.013952 0.000000 0.000000 0.000000
# 4 0.000000 0.000000 0.000000 0.026826 0.000000 0.000000
# 5 0.000000 0.000000 0.000000 0.000000 0.034752 0.000000
# 6 0.000000 0.000000 0.000000 0.000000 0.000000 0.024228
#
#
# Mechanical properties :
#
#
# Convention : Reuss Voigt Hill
#
# Bulk Modulus (GPa) = 36.39206 38.37255 37.38230
# Shear Modulus (GPa) = 30.97933 32.41819 31.69876
#
# Velocity S-wave (km/s) = 3.93382 4.02414 3.97924
# Velocity P-wave (km/s) = 6.22993 6.38433 6.30761
#
# Compressibility (1/GPa) = 0.02747852
#
# Stress axis : x y z
#
# Youngs Moduli (GPa) = 55.42118 66.84557 71.67538
#
# Poissons Ratio (x) = 0.22758 0.09500
# Poissons Ratio (y) = 0.18868 0.35898
# Poissons Ratio (z) = 0.07345 0.33479
#
# Static dielectric constant tensor:
#      x y z
#    x 3.670830 0.000000 0.000000 
#    y 0.000000 3.827980 0.000000 
#    z 0.000000 0.000000 3.764560 
# 
# 
# High freq. dielectric constant tensor:
#      x y z
#    x 1.782920 0.000000 0.000000 
#    y 0.000000 1.795270 0.000000 
#    z 0.000000 0.000000 1.793710 
# 
# From -- ./inp_files/12317.got.cif
#   From: 2010.03.12/outbox.cif.g09.slc.cpg/sg63_7_cif.got.tgz:12317.got - 2010.04.10 19:34:48.
