data_PCOD8259043
_publ_section_title
;
Structure prediction by ZEFSAII (Michael W. Deem and Ramdas Pophale) SiO2 
 PCOD8259043
Probable space group: C M C M
;
_chemical_formula_sum "Si O2"
_cell_formula_units_Z 96
_cell_length_a 28.330262
_cell_length_b 20.139363
_cell_length_c 8.739088
_cell_angle_alpha 90.000000
_cell_angle_beta 90.000000
_cell_angle_gamma 90.000000
_cell_volume 4986.116636
_symmetry_space_group_name_H-M "C M C M"
_symmetry_group_IT_number 63
_symmetry_cell_setting 'orthorhombic'
loop_
_space_group_symop_operation_xyz
x,y,z
-x,-y,1/2+z
x,-y,-z
-x,y,1/2-z
-x,-y,-z
x,y,1/2-z
-x,y,z
x,-y,1/2+z
1/2+x,1/2+y,z
1/2-x,1/2-y,1/2+z
1/2+x,1/2-y,-z
1/2-x,1/2+y,1/2-z
1/2-x,1/2-y,-z
1/2+x,1/2+y,1/2-z
1/2-x,1/2+y,z
1/2+x,1/2-y,1/2+z
loop_
_atom_site_type_symbol
_atom_site_label
_atom_site_fract_x
_atom_site_fract_y
_atom_site_fract_z
Si Si1 0.787297 0.843170 0.429442
Si Si2 0.595388 0.814184 0.430039
Si Si3 0.446924 0.675597 0.431755
Si Si4 0.631150 0.572255 0.431353
Si Si5 0.693585 0.192487 0.429266
Si Si6 0.554629 0.936118 0.918842
O O1 0.790501 0.856216 0.250000
O O2 0.819671 0.896725 0.513726
O O3 0.733458 0.850835 0.485396
O O4 0.804144 0.769744 0.476525
O O5 0.604306 0.810382 0.250000
O O6 0.573975 0.745142 0.492838
O O7 0.643446 0.833694 0.515417
O O8 0.559437 0.872168 0.472864
O O9 0.448618 0.677373 0.250000
O O10 0.500000 0.664861 0.497061
O O11 0.412885 0.616755 0.489892
O O12 0.623986 0.500000 0.500000
O O13 0.632022 0.567818 0.250000
O O14 0.700582 0.182611 0.250000
O O15 0.577453 0.925102 0.750000
O O16 0.500000 0.950992 0.897463
O O17 0.578796 0.000000 0.000000
#
# Coordination Sequence:
#
# PCOD8259043 Si02
#       6
#    16  16  16  16  16  16
#     4  10  20  36  58  84 113 146 188 231 281 340
#     4  11  20  34  58  87 118 153 193 237 290 345
#     4   9  19  35  56  83 115 152 197 246 293 344
#     4  11  22  38  59  83 116 156 200 246 299 353
#     4  10  20  34  57  86 117 146 183 231 282 338
#     4  10  21  37  56  80 112 151 193 235 283 341
#
# _framework density 19.25346
#
# number of rings (size 3 to 8) (size 9 to 14) (size 15 to 20)
#    0.000    1.833    1.667    3.000    0.000    3.333 
#    0.000    0.833    0.000    4.500    0.000    0.000 
#    0.000    0.000    0.000    0.000    0.000    0.000 
#
# Total GULP energy -595296.558379 kJ/mol
# GULP energy per Si atom -12402.011633 kJ/mol
# Density = 1.920964 g / cm^3
# Si number density = 19.253460 Si / 1000 Ang^3
#
#
#
# Elastic Constant Matrix: (Units=GPa)
#
#
# Indices 1 2 3 4 5 6 
#
# 1 112.0567 54.7456 26.0045 0.0000 0.0000 0.0000
# 2 54.7456 140.5316 39.9191 0.0000 0.0000 0.0000
# 3 26.0045 39.9191 64.7453 0.0000 0.0000 0.0000
# 4 0.0000 0.0000 0.0000 31.1070 0.0000 0.0000
# 5 0.0000 0.0000 0.0000 0.0000 27.3479 0.0000
# 6 0.0000 0.0000 0.0000 0.0000 0.0000 23.0147
#
#
#
# Elastic Compliance Matrix: (Units=1/GPa)
#
#
# Indices 1 2 3 4 5 6 
#
# 1 0.011276 -0.003766 -0.002207 0.000000 0.000000 0.000000
# 2 -0.003766 0.009884 -0.004582 0.000000 0.000000 0.000000
# 3 -0.002207 -0.004582 0.019157 0.000000 0.000000 0.000000
# 4 0.000000 0.000000 0.000000 0.032147 0.000000 0.000000
# 5 0.000000 0.000000 0.000000 0.000000 0.036566 0.000000
# 6 0.000000 0.000000 0.000000 0.000000 0.000000 0.043450
#
#
# Mechanical properties :
#
#
# Convention : Reuss Voigt Hill
#
# Bulk Modulus (GPa) = 52.06273 62.07465 57.06869
# Shear Modulus (GPa) = 27.77899 29.40488 28.59193
#
# Velocity S-wave (km/s) = 3.80255 3.91225 3.85779
# Velocity P-wave (km/s) = 6.81018 7.26074 7.03907
#
# Compressibility (1/GPa) = 0.01920760
#
# Stress axis : x y z
#
# Youngs Moduli (GPa) = 88.68382 101.17050 52.20148
#
# Poissons Ratio (x) = 0.38098 0.11522
# Poissons Ratio (y) = 0.33396 0.23917
# Poissons Ratio (z) = 0.19574 0.46354
#
# Static dielectric constant tensor:
#      x y z
#    x 3.573860 0.000000 0.000000 
#    y 0.000000 3.424630 0.000000 
#    z 0.000000 0.000000 3.490530 
# 
# 
# High freq. dielectric constant tensor:
#      x y z
#    x 1.749490 0.000000 0.000000 
#    y 0.000000 1.738090 0.000000 
#    z 0.000000 0.000000 1.747730 
# 
# From -- ./inp_files/12357.got.cif
#   From: 2010.03.12/outbox.cif.g09.slc.cpg/sg63_7_cif.got.tgz:12357.got - 2010.04.10 19:34:48.
