data_PCOD8259717
_publ_section_title
;
Structure prediction by ZEFSAII (Michael W. Deem and Ramdas Pophale) SiO2 
 PCOD8259717
Probable space group: C M C M
;
_chemical_formula_sum "Si O2"
_cell_formula_units_Z 88
_cell_length_a 15.598409
_cell_length_b 28.582493
_cell_length_c 10.340751
_cell_angle_alpha 90.000000
_cell_angle_beta 90.000000
_cell_angle_gamma 90.000000
_cell_volume 4610.335069
_symmetry_space_group_name_H-M "C M C M"
_symmetry_group_IT_number 63
_symmetry_cell_setting 'orthorhombic'
loop_
_space_group_symop_operation_xyz
x,y,z
-x,-y,1/2+z
x,-y,-z
-x,y,1/2-z
-x,-y,-z
x,y,1/2-z
-x,y,z
x,-y,1/2+z
1/2+x,1/2+y,z
1/2-x,1/2-y,1/2+z
1/2+x,1/2-y,-z
1/2-x,1/2+y,1/2-z
1/2-x,1/2-y,-z
1/2+x,1/2+y,1/2-z
1/2-x,1/2+y,z
1/2+x,1/2-y,1/2+z
loop_
_atom_site_type_symbol
_atom_site_label
_atom_site_fract_x
_atom_site_fract_y
_atom_site_fract_z
Si Si1 0.000000 0.188711 0.593720
Si Si2 0.809077 0.914099 0.899560
Si Si3 0.347339 0.254698 0.108568
Si Si4 0.215210 0.328539 0.030692
Si Si5 0.903305 0.521039 0.750000
Si Si6 0.597073 0.868741 0.250000
Si Si7 0.000000 0.891744 0.894641
Si Si8 0.794231 0.500000 0.000000
O O1 0.079580 0.217365 0.532417
O O2 0.000000 0.140300 0.519648
O O3 0.000000 0.178598 0.750000
O O4 0.778331 0.915222 0.750000
O O5 0.912040 0.921588 0.906536
O O6 0.766179 0.955018 0.983122
O O7 0.780547 0.864943 0.964566
O O8 0.385609 0.253483 0.250000
O O9 0.261564 0.285947 0.105718
O O10 0.337684 0.200083 0.075701
O O11 0.148186 0.353846 0.122949
O O12 0.907834 0.576205 0.750000
O O13 0.854293 0.503378 0.624116
O O14 0.000000 0.500216 0.750000
O O15 0.500000 0.847920 0.250000
O O16 0.000000 0.867775 0.750000
#
# Coordination Sequence:
#
# PCOD8259717 Si02
#       8
#     8  16  16  16   8   8   8   8
#     4  10  20  38  59  87 122 160 211 256 306 362
#     4  11  23  41  66  92 125 164 209 253 315 374
#     4  10  21  36  57  85 118 162 206 250 305 367
#     4  11  21  38  61  83 122 161 205 251 314 367
#     4  11  24  44  70  97 124 160 210 262 316 377
#     4  11  24  40  60  89 120 158 202 264 314 367
#     4  10  22  41  61  93 130 164 205 261 304 369
#     4  12  23  43  70  94 128 168 208 253 321 376
#
# _framework density 19.087548999999999
#
# number of rings (size 3 to 8) (size 9 to 14) (size 15 to 20)
#    0.000    1.273    5.455    0.818    1.273    0.364 
#    3.273    0.000    0.000    0.000    0.000    0.000 
#    0.000    0.000    0.000    0.000    0.000    0.000 
#
# Total GULP energy -545132.787623 kJ/mol
# GULP energy per Si atom -12389.381537 kJ/mol
# Density = 1.904410 g / cm^3
# Si number density = 19.087549 Si / 1000 Ang^3
#
#
#
# Elastic Constant Matrix: (Units=GPa)
#
#
# Indices 1 2 3 4 5 6 
#
# 1 125.6387 34.9700 46.8412 0.0000 0.0000 0.0000
# 2 34.9700 89.0745 35.2121 0.0000 0.0000 0.0000
# 3 46.8412 35.2121 96.1122 0.0000 0.0000 0.0000
# 4 0.0000 0.0000 0.0000 22.0172 0.0000 0.0000
# 5 0.0000 0.0000 0.0000 0.0000 20.6788 0.0000
# 6 0.0000 0.0000 0.0000 0.0000 0.0000 23.5729
#
#
#
# Elastic Compliance Matrix: (Units=1/GPa)
#
#
# Indices 1 2 3 4 5 6 
#
# 1 0.010137 -0.002370 -0.004072 0.000000 0.000000 0.000000
# 2 -0.002370 0.013682 -0.003858 0.000000 0.000000 0.000000
# 3 -0.004072 -0.003858 0.013802 0.000000 0.000000 0.000000
# 4 0.000000 0.000000 0.000000 0.045419 0.000000 0.000000
# 5 0.000000 0.000000 0.000000 0.000000 0.048359 0.000000
# 6 0.000000 0.000000 0.000000 0.000000 0.000000 0.042422
#
#
# Mechanical properties :
#
#
# Convention : Reuss Voigt Hill
#
# Bulk Modulus (GPa) = 58.74722 60.54133 59.64427
# Shear Modulus (GPa) = 24.98822 26.17392 25.58107
#
# Velocity S-wave (km/s) = 3.62213 3.70706 3.66484
# Velocity P-wave (km/s) = 6.95253 7.07882 7.01596
#
# Compressibility (1/GPa) = 0.01702208
#
# Stress axis : x y z
#
# Youngs Moduli (GPa) = 98.64647 73.08906 72.45124
#
# Poissons Ratio (x) = 0.17322 0.29503
# Poissons Ratio (y) = 0.23379 0.27948
# Poissons Ratio (z) = 0.40171 0.28194
#
# Static dielectric constant tensor:
#      x y z
#    x 3.723160 0.000000 0.000000 
#    y 0.000000 3.376530 0.000000 
#    z 0.000000 0.000000 3.515850 
# 
# 
# High freq. dielectric constant tensor:
#      x y z
#    x 1.756840 0.000000 0.000000 
#    y 0.000000 1.732920 0.000000 
#    z 0.000000 0.000000 1.744580 
# 
# From -- ./inp_files/19840.got.cif
#   From: 2010.03.12/outbox.cif.g09.slc.cpg/sg63_10_cif.got.tgz:19840.got - 2010.04.10 19:34:48.
