data_PCOD8259112
_publ_section_title
;
Structure prediction by ZEFSAII (Michael W. Deem and Ramdas Pophale) SiO2 
 PCOD8259112
Probable space group: C M C M
;
_chemical_formula_sum "Si O2"
_cell_formula_units_Z 104
_cell_length_a 20.036762
_cell_length_b 28.937965
_cell_length_c 9.227968
_cell_angle_alpha 90.000000
_cell_angle_beta 90.000000
_cell_angle_gamma 90.000000
_cell_volume 5350.589174
_symmetry_space_group_name_H-M "C M C M"
_symmetry_group_IT_number 63
_symmetry_cell_setting 'orthorhombic'
loop_
_space_group_symop_operation_xyz
x,y,z
-x,-y,1/2+z
x,-y,-z
-x,y,1/2-z
-x,-y,-z
x,y,1/2-z
-x,y,z
x,-y,1/2+z
1/2+x,1/2+y,z
1/2-x,1/2-y,1/2+z
1/2+x,1/2-y,-z
1/2-x,1/2+y,1/2-z
1/2-x,1/2-y,-z
1/2+x,1/2+y,1/2-z
1/2-x,1/2+y,z
1/2+x,1/2-y,1/2+z
loop_
_atom_site_type_symbol
_atom_site_label
_atom_site_fract_x
_atom_site_fract_y
_atom_site_fract_z
Si Si1 0.326919 0.800333 0.919767
Si Si2 0.123512 0.386291 0.081500
Si Si3 0.500000 0.950535 0.420946
Si Si4 0.326600 0.293398 0.580825
Si Si5 0.074537 0.143929 0.584770
Si Si6 0.386861 0.456330 0.083291
Si Si7 0.264242 0.043660 0.582895
O O1 0.342161 0.797328 0.750000
O O2 0.248846 0.809819 0.951444
O O3 0.374508 0.839491 0.988239
O O4 0.346606 0.752070 0.992361
O O5 0.115569 0.373065 0.250000
O O6 0.064025 0.420223 0.032345
O O7 0.193298 0.411098 0.048180
O O8 0.500000 0.960516 0.250000
O O9 0.500000 0.000000 0.500000
O O10 0.337046 0.283489 0.750000
O O11 0.375715 0.333383 0.528792
O O12 0.100113 0.151851 0.750000
O O13 0.070924 0.089372 0.550956
O O14 0.000000 0.164079 0.565235
O O15 0.388700 0.469926 0.250000
O O16 0.311036 0.446724 0.031011
O O17 0.418236 0.500000 0.000000
O O18 0.268544 0.030823 0.750000
O O19 0.295438 0.000000 0.500000
#
# Coordination Sequence:
#
# PCOD8259112 Si02
#       7
#    16  16   8  16  16  16  16
#     4  10  21  37  60  87 111 139 180 229 283 339
#     4  10  20  35  54  79 110 147 188 231 281 335
#     4  10  22  38  56  80 114 156 198 238 285 344
#     4  10  21  38  60  86 113 142 179 228 283 338
#     4  10  21  37  56  79 110 149 188 223 266 323
#     4   9  18  32  50  75 106 140 179 224 270 315
#     4   9  17  29  48  73 102 137 177 223 273 321
#
# _framework density 19.437111000000002
#
# number of rings (size 3 to 8) (size 9 to 14) (size 15 to 20)
#    0.000    2.308    0.000    2.308    0.000    5.538 
#    1.385    3.077    0.000    0.000    0.000    0.000 
#    0.000    0.000    0.000    0.000    0.000    0.000 
#
# Total GULP energy -644849.955409 kJ/mol
# GULP energy per Si atom -12400.960681 kJ/mol
# Density = 1.939287 g / cm^3
# Si number density = 19.437111 Si / 1000 Ang^3
#
#
#
# Elastic Constant Matrix: (Units=GPa)
#
#
# Indices 1 2 3 4 5 6 
#
# 1 63.7541 36.5961 31.9513 0.0000 0.0000 0.0000
# 2 36.5961 112.0005 58.4624 0.0000 0.0000 0.0000
# 3 31.9513 58.4624 77.0134 0.0000 0.0000 0.0000
# 4 0.0000 0.0000 0.0000 43.1535 0.0000 0.0000
# 5 0.0000 0.0000 0.0000 0.0000 21.6136 0.0000
# 6 0.0000 0.0000 0.0000 0.0000 0.0000 25.2123
#
#
#
# Elastic Compliance Matrix: (Units=1/GPa)
#
#
# Indices 1 2 3 4 5 6 
#
# 1 0.020727 -0.003783 -0.005728 0.000000 0.000000 0.000000
# 2 -0.003783 0.015479 -0.010181 0.000000 0.000000 0.000000
# 3 -0.005728 -0.010181 0.023089 0.000000 0.000000 0.000000
# 4 0.000000 0.000000 0.000000 0.023173 0.000000 0.000000
# 5 0.000000 0.000000 0.000000 0.000000 0.046267 0.000000
# 6 0.000000 0.000000 0.000000 0.000000 0.000000 0.039663
#
#
# Mechanical properties :
#
#
# Convention : Reuss Voigt Hill
#
# Bulk Modulus (GPa) = 50.21892 56.30974 53.26433
# Shear Modulus (GPa) = 23.31880 26.37975 24.84928
#
# Velocity S-wave (km/s) = 3.46743 3.68800 3.57941
# Velocity P-wave (km/s) = 6.47484 6.86791 6.67427
#
# Compressibility (1/GPa) = 0.01991281
#
# Stress axis : x y z
#
# Youngs Moduli (GPa) = 48.24581 64.60446 43.30974
#
# Poissons Ratio (x) = 0.24439 0.24806
# Poissons Ratio (y) = 0.18251 0.44093
# Poissons Ratio (z) = 0.27634 0.65773
#
# Static dielectric constant tensor:
#      x y z
#    x 3.509450 0.000000 0.000000 
#    y 0.000000 3.474650 0.000000 
#    z 0.000000 0.000000 3.461730 
# 
# 
# High freq. dielectric constant tensor:
#      x y z
#    x 1.749080 0.000000 0.000000 
#    y 0.000000 1.758030 0.000000 
#    z 0.000000 0.000000 1.751440 
# 
# From -- ./inp_files/8768.got.cif
#   From: 2010.03.12/outbox.cif.g09.slc.cpg/sg63_5_cif.got.tgz:8768.got - 2010.04.10 19:34:48.
