data_PCOD8259487
_publ_section_title
;
Structure prediction by ZEFSAII (Michael W. Deem and Ramdas Pophale) SiO2 
 PCOD8259487
Probable space group: C M C M
;
_chemical_formula_sum "Si O2"
_cell_formula_units_Z 96
_cell_length_a 23.326506
_cell_length_b 11.902514
_cell_length_c 17.700510
_cell_angle_alpha 90.000000
_cell_angle_beta 90.000000
_cell_angle_gamma 90.000000
_cell_volume 4914.441535
_symmetry_space_group_name_H-M "C M C M"
_symmetry_group_IT_number 63
_symmetry_cell_setting 'orthorhombic'
loop_
_space_group_symop_operation_xyz
x,y,z
-x,-y,1/2+z
x,-y,-z
-x,y,1/2-z
-x,-y,-z
x,y,1/2-z
-x,y,z
x,-y,1/2+z
1/2+x,1/2+y,z
1/2-x,1/2-y,1/2+z
1/2+x,1/2-y,-z
1/2-x,1/2+y,1/2-z
1/2-x,1/2-y,-z
1/2+x,1/2+y,1/2-z
1/2-x,1/2+y,z
1/2+x,1/2-y,1/2+z
loop_
_atom_site_type_symbol
_atom_site_label
_atom_site_fract_x
_atom_site_fract_y
_atom_site_fract_z
Si Si1 0.231864 0.602653 0.056528
Si Si2 0.432992 0.837365 0.599686
Si Si3 0.934471 0.905076 0.161616
Si Si4 0.852942 0.502071 0.664084
Si Si5 0.361693 0.186394 0.961044
Si Si6 0.862005 0.075355 0.427195
O O1 0.197432 0.578362 0.133374
O O2 0.296554 0.616890 0.085739
O O3 0.227004 0.500000 0.000000
O O4 0.199851 0.701540 0.007146
O O5 0.500000 0.849650 0.594415
O O6 0.415027 0.709943 0.621329
O O7 0.404839 0.872920 0.519806
O O8 0.410979 0.927970 0.660909
O O9 0.929667 0.884184 0.250000
O O10 0.000000 0.936744 0.138853
O O11 0.891292 0.006974 0.140842
O O12 0.840257 0.537705 0.750000
O O13 0.856418 0.615332 0.615159
O O14 0.391983 0.304703 0.939605
O O15 0.869303 0.000000 0.500000
#
# Coordination Sequence:
#
# PCOD8259487 Si02
#       6
#    16  16  16  16  16  16
#     4   8  18  35  57  81 111 147 191 233 277 335
#     4  10  20  38  62  83 109 151 200 242 282 338
#     4  10  22  38  56  83 118 152 193 243 287 338
#     4  10  21  37  55  81 117 152 188 239 294 339
#     4  10  20  36  58  86 117 147 188 242 290 338
#     4  11  20  35  60  86 111 151 193 231 285 348
#
# _framework density 19.534265000000001
#
# number of rings (size 3 to 8) (size 9 to 14) (size 15 to 20)
#    0.000    2.167    1.667    2.500    0.000    4.667 
#    0.000    0.000    0.000    0.000    0.000    0.000 
#    0.000    0.000    0.000    0.000    0.000    0.000 
#
# Total GULP energy -594792.656205 kJ/mol
# GULP energy per Si atom -12391.513671 kJ/mol
# Density = 1.948980 g / cm^3
# Si number density = 19.534265 Si / 1000 Ang^3
#
#
#
# Elastic Constant Matrix: (Units=GPa)
#
#
# Indices 1 2 3 4 5 6 
#
# 1 82.3854 21.3814 30.0948 0.0000 0.0000 0.0000
# 2 21.3814 80.9581 35.4060 0.0000 0.0000 0.0000
# 3 30.0948 35.4060 118.6948 0.0000 0.0000 0.0000
# 4 0.0000 0.0000 0.0000 26.5172 0.0000 0.0000
# 5 0.0000 0.0000 0.0000 0.0000 18.9895 0.0000
# 6 0.0000 0.0000 0.0000 0.0000 0.0000 21.2924
#
#
#
# Elastic Compliance Matrix: (Units=1/GPa)
#
#
# Indices 1 2 3 4 5 6 
#
# 1 0.013780 -0.002428 -0.002770 0.000000 0.000000 0.000000
# 2 -0.002428 0.014633 -0.003749 0.000000 0.000000 0.000000
# 3 -0.002770 -0.003749 0.010246 0.000000 0.000000 0.000000
# 4 0.000000 0.000000 0.000000 0.037711 0.000000 0.000000
# 5 0.000000 0.000000 0.000000 0.000000 0.052661 0.000000
# 6 0.000000 0.000000 0.000000 0.000000 0.000000 0.046965
#
#
# Mechanical properties :
#
#
# Convention : Reuss Voigt Hill
#
# Bulk Modulus (GPa) = 48.15892 50.64473 49.40183
# Shear Modulus (GPa) = 24.89898 26.37021 25.63460
#
# Velocity S-wave (km/s) = 3.57407 3.67815 3.62648
# Velocity P-wave (km/s) = 6.46058 6.63481 6.54827
#
# Compressibility (1/GPa) = 0.02076459
#
# Stress axis : x y z
#
# Youngs Moduli (GPa) = 72.56918 68.33847 97.60293
#
# Poissons Ratio (x) = 0.16593 0.27032
# Poissons Ratio (y) = 0.17621 0.36594
# Poissons Ratio (z) = 0.20099 0.25622
#
# Static dielectric constant tensor:
#      x y z
#    x 3.660410 0.000000 0.000000 
#    y 0.000000 3.637890 0.000000 
#    z 0.000000 0.000000 3.349070 
# 
# 
# High freq. dielectric constant tensor:
#      x y z
#    x 1.756430 0.000000 0.000000 
#    y 0.000000 1.762000 0.000000 
#    z 0.000000 0.000000 1.746060 
# 
# From -- ./inp_files/47990.got.cif
#   From: 2010.03.12/outbox.cif.g09.slc.cpg/sg63_24_cif.got.tgz:47990.got - 2010.04.10 19:34:48.
