data_PCOD8259255
_publ_section_title
;
Structure prediction by ZEFSAII (Michael W. Deem and Ramdas Pophale) SiO2 
 PCOD8259255
Probable space group: C M C M
;
_chemical_formula_sum "Si O2"
_cell_formula_units_Z 64
_cell_length_a 10.483356
_cell_length_b 9.937099
_cell_length_c 29.520541
_cell_angle_alpha 90.000000
_cell_angle_beta 90.000000
_cell_angle_gamma 90.000000
_cell_volume 3075.277161
_symmetry_space_group_name_H-M "C M C M"
_symmetry_group_IT_number 63
_symmetry_cell_setting 'orthorhombic'
loop_
_space_group_symop_operation_xyz
x,y,z
-x,-y,1/2+z
x,-y,-z
-x,y,1/2-z
-x,-y,-z
x,y,1/2-z
-x,y,z
x,-y,1/2+z
1/2+x,1/2+y,z
1/2-x,1/2-y,1/2+z
1/2+x,1/2-y,-z
1/2-x,1/2+y,1/2-z
1/2-x,1/2-y,-z
1/2+x,1/2+y,1/2-z
1/2-x,1/2+y,z
1/2+x,1/2-y,1/2+z
loop_
_atom_site_type_symbol
_atom_site_label
_atom_site_fract_x
_atom_site_fract_y
_atom_site_fract_z
Si Si1 0.862314 0.159615 0.036434
Si Si2 0.209976 0.113705 0.938220
Si Si3 0.853485 0.134374 0.196871
Si Si4 0.357075 0.340156 0.161384
O O1 0.841214 0.301082 0.062133
O O2 0.000000 0.104965 0.051435
O O3 0.763537 0.044972 0.053851
O O4 0.862643 0.176767 0.981978
O O5 0.133830 0.139141 0.892425
O O6 0.838172 0.155284 0.250000
O O7 0.750806 0.230806 0.172833
O O8 0.000000 0.167528 0.181772
O O9 0.819071 0.980805 0.184723
O O10 0.500000 0.295131 0.177530
#
# Coordination Sequence:
#
# PCOD8259255 Si02
#       4
#    16  16  16  16
#     4  10  20  37  56  77 116 156 188 231 278 326
#     4  10  20  35  57  85 112 149 193 231 278 332
#     4  10  23  42  62  86 116 149 187 236 293 350
#     4  11  22  38  62  89 117 149 191 239 286 341
#
# _framework density 20.811132000000001
#
# number of rings (size 3 to 8) (size 9 to 14) (size 15 to 20)
#    0.000    1.750    0.000    5.250    0.000    5.500 
#    0.000   15.000    0.000    0.000    0.000    0.000 
#    0.000    0.000    0.000    0.000    0.000    0.000 
#
# Total GULP energy -396461.631428 kJ/mol
# GULP energy per Si atom -12389.425982 kJ/mol
# Density = 2.076376 g / cm^3
# Si number density = 20.811132 Si / 1000 Ang^3
#
#
#
# Elastic Constant Matrix: (Units=GPa)
#
#
# Indices 1 2 3 4 5 6 
#
# 1 94.8235 56.0706 20.2530 0.0000 0.0000 0.0000
# 2 56.0706 109.6383 16.0725 0.0000 0.0000 0.0000
# 3 20.2530 16.0725 68.4068 0.0000 0.0000 0.0000
# 4 0.0000 0.0000 0.0000 30.3882 0.0000 0.0000
# 5 0.0000 0.0000 0.0000 0.0000 14.4228 0.0000
# 6 0.0000 0.0000 0.0000 0.0000 0.0000 29.2435
#
#
#
# Elastic Compliance Matrix: (Units=1/GPa)
#
#
# Indices 1 2 3 4 5 6 
#
# 1 0.015636 -0.007579 -0.002849 0.000000 0.000000 0.000000
# 2 -0.007579 0.013120 -0.000839 0.000000 0.000000 0.000000
# 3 -0.002849 -0.000839 0.015659 0.000000 0.000000 0.000000
# 4 0.000000 0.000000 0.000000 0.032907 0.000000 0.000000
# 5 0.000000 0.000000 0.000000 0.000000 0.069335 0.000000
# 6 0.000000 0.000000 0.000000 0.000000 0.000000 0.034196
#
#
# Mechanical properties :
#
#
# Convention : Reuss Voigt Hill
#
# Bulk Modulus (GPa) = 45.69910 50.85117 48.27514
# Shear Modulus (GPa) = 23.73288 26.84242 25.28765
#
# Velocity S-wave (km/s) = 3.38063 3.59529 3.48961
# Velocity P-wave (km/s) = 6.10286 6.45929 6.28360
#
# Compressibility (1/GPa) = 0.02188227
#
# Stress axis : x y z
#
# Youngs Moduli (GPa) = 63.95593 76.22103 63.86161
#
# Poissons Ratio (x) = 0.57766 0.18191
# Poissons Ratio (y) = 0.48471 0.05356
# Poissons Ratio (z) = 0.18218 0.06393
#
# Static dielectric constant tensor:
#      x y z
#    x 3.834110 0.000000 0.000000 
#    y 0.000000 3.801860 0.000000 
#    z 0.000000 0.000000 3.816140 
# 
# 
# High freq. dielectric constant tensor:
#      x y z
#    x 1.798260 0.000000 0.000000 
#    y 0.000000 1.816090 0.000000 
#    z 0.000000 0.000000 1.822450 
# 
# From -- ./inp_files/72356.got.cif
#   From: 2010.03.12/outbox.cif.g09.slc.cpg/sg63_37_cif.got.tgz:72356.got - 2010.04.10 19:34:48.
