data_PCOD8259077
_publ_section_title
;
Structure prediction by ZEFSAII (Michael W. Deem and Ramdas Pophale) SiO2 
 PCOD8259077
Probable space group: C M C M
;
_chemical_formula_sum "Si O2"
_cell_formula_units_Z 80
_cell_length_a 19.597747
_cell_length_b 25.628476
_cell_length_c 8.768445
_cell_angle_alpha 90.000000
_cell_angle_beta 90.000000
_cell_angle_gamma 90.000000
_cell_volume 4404.042593
_symmetry_space_group_name_H-M "C M C M"
_symmetry_group_IT_number 63
_symmetry_cell_setting 'orthorhombic'
loop_
_space_group_symop_operation_xyz
x,y,z
-x,-y,1/2+z
x,-y,-z
-x,y,1/2-z
-x,-y,-z
x,y,1/2-z
-x,y,z
x,-y,1/2+z
1/2+x,1/2+y,z
1/2-x,1/2-y,1/2+z
1/2+x,1/2-y,-z
1/2-x,1/2+y,1/2-z
1/2-x,1/2-y,-z
1/2+x,1/2+y,1/2-z
1/2-x,1/2+y,z
1/2+x,1/2-y,1/2+z
loop_
_atom_site_type_symbol
_atom_site_label
_atom_site_fract_x
_atom_site_fract_y
_atom_site_fract_z
Si Si1 0.323827 0.945264 0.929970
Si Si2 0.579586 0.862489 0.428310
Si Si3 0.580984 0.252938 0.918547
Si Si4 0.820957 0.055315 0.931971
Si Si5 0.576453 0.643402 0.570613
O O1 0.314200 0.951500 0.750000
O O2 0.380224 0.902368 0.966061
O O3 0.252633 0.928065 0.005221
O O4 0.348647 0.000000 0.000000
O O5 0.594709 0.872450 0.250000
O O6 0.500000 0.870048 0.463174
O O7 0.604875 0.804204 0.475656
O O8 0.610307 0.263515 0.750000
O O9 0.500000 0.251466 0.913539
O O10 0.606891 0.299947 0.025298
O O11 0.818270 0.052059 0.750000
O O12 0.875052 0.097871 0.992257
O O13 0.844107 0.000000 0.000000
O O14 0.573812 0.640732 0.750000
O O15 0.500000 0.635653 0.502740
#
# Coordination Sequence:
#
# PCOD8259077 Si02
#       5
#    16  16  16  16  16
#     4  11  22  36  54  74  99 132 169 207 250 298
#     4   9  18  34  55  78 104 132 164 204 248 294
#     4   8  15  29  50  75 102 132 163 198 244 294
#     4  10  20  35  53  72  99 134 169 206 251 299
#     4   9  18  32  51  76 104 132 164 205 250 295
#
# _framework density 18.165127999999999
#
# number of rings (size 3 to 8) (size 9 to 14) (size 15 to 20)
#    0.000    2.600    0.000    4.800    0.000    3.600 
#    0.000    3.000    0.000    0.000    0.000    0.000 
#    0.000    0.000    0.000    0.000    0.000    0.000 
#
# Total GULP energy -495865.328367 kJ/mol
# GULP energy per Si atom -12396.633209 kJ/mol
# Density = 1.812378 g / cm^3
# Si number density = 18.165128 Si / 1000 Ang^3
#
#
#
# Elastic Constant Matrix: (Units=GPa)
#
#
# Indices 1 2 3 4 5 6 
#
# 1 66.5554 69.2278 30.0725 0.0000 0.0000 0.0000
# 2 69.2278 144.0381 42.6004 0.0000 0.0000 0.0000
# 3 30.0725 42.6004 67.9544 0.0000 0.0000 0.0000
# 4 0.0000 0.0000 0.0000 35.3715 0.0000 0.0000
# 5 0.0000 0.0000 0.0000 0.0000 22.6949 0.0000
# 6 0.0000 0.0000 0.0000 0.0000 0.0000 6.6992
#
#
#
# Elastic Compliance Matrix: (Units=1/GPa)
#
#
# Indices 1 2 3 4 5 6 
#
# 1 0.031627 -0.013579 -0.005484 0.000000 0.000000 0.000000
# 2 -0.013579 0.014353 -0.002989 0.000000 0.000000 0.000000
# 3 -0.005484 -0.002989 0.019016 0.000000 0.000000 0.000000
# 4 0.000000 0.000000 0.000000 0.028271 0.000000 0.000000
# 5 0.000000 0.000000 0.000000 0.000000 0.044063 0.000000
# 6 0.000000 0.000000 0.000000 0.000000 0.000000 0.149270
#
#
# Mechanical properties :
#
#
# Convention : Reuss Voigt Hill
#
# Bulk Modulus (GPa) = 47.86142 62.48325 55.17233
# Shear Modulus (GPa) = 14.80753 22.06295 18.43524
#
# Velocity S-wave (km/s) = 2.85820 3.48886 3.18916
# Velocity P-wave (km/s) = 6.10718 7.12050 6.63322
#
# Compressibility (1/GPa) = 0.02089366
#
# Stress axis : x y z
#
# Youngs Moduli (GPa) = 31.61894 69.67356 52.58722
#
# Poissons Ratio (x) = 0.94607 0.28837
# Poissons Ratio (y) = 0.42934 0.15716
# Poissons Ratio (z) = 0.17339 0.20822
#
# Static dielectric constant tensor:
#      x y z
#    x 3.254010 0.000000 0.000000 
#    y 0.000000 3.651440 0.000000 
#    z 0.000000 0.000000 3.377590 
# 
# 
# High freq. dielectric constant tensor:
#      x y z
#    x 1.678440 0.000000 0.000000 
#    y 0.000000 1.716890 0.000000 
#    z 0.000000 0.000000 1.700520 
# 
# From -- ./inp_files/6452.got.cif
#   From: 2010.03.12/outbox.cif.g09.slc.cpg/sg63_4_cif.got.tgz:6452.got - 2010.04.10 19:34:48.
