data_PCOD8259068
_publ_section_title
;
Structure prediction by ZEFSAII (Michael W. Deem and Ramdas Pophale) SiO2 
 PCOD8259068
Probable space group: C M C M
;
_chemical_formula_sum "Si O2"
_cell_formula_units_Z 104
_cell_length_a 21.981995
_cell_length_b 29.908619
_cell_length_c 9.179740
_cell_angle_alpha 90.000000
_cell_angle_beta 90.000000
_cell_angle_gamma 90.000000
_cell_volume 6035.230283
_symmetry_space_group_name_H-M "C M C M"
_symmetry_group_IT_number 63
_symmetry_cell_setting 'orthorhombic'
loop_
_space_group_symop_operation_xyz
x,y,z
-x,-y,1/2+z
x,-y,-z
-x,y,1/2-z
-x,-y,-z
x,y,1/2-z
-x,y,z
x,-y,1/2+z
1/2+x,1/2+y,z
1/2-x,1/2-y,1/2+z
1/2+x,1/2-y,-z
1/2-x,1/2+y,1/2-z
1/2-x,1/2-y,-z
1/2+x,1/2+y,1/2-z
1/2-x,1/2+y,z
1/2+x,1/2-y,1/2+z
loop_
_atom_site_type_symbol
_atom_site_label
_atom_site_fract_x
_atom_site_fract_y
_atom_site_fract_z
Si Si1 0.352184 0.544492 0.418785
Si Si2 0.929145 0.311895 0.579792
Si Si3 0.617097 0.895535 0.422316
Si Si4 0.569626 0.627179 0.078666
Si Si5 0.500000 0.953114 0.079901
Si Si6 0.789236 0.545258 0.420519
Si Si7 0.427702 0.287293 0.411277
O O1 0.373898 0.500000 0.500000
O O2 0.366223 0.537007 0.250000
O O3 0.390685 0.586012 0.481636
O O4 0.281635 0.554494 0.447003
O O5 0.917247 0.321897 0.750000
O O6 0.891741 0.345233 0.477885
O O7 0.905757 0.261958 0.538654
O O8 0.000000 0.317259 0.543057
O O9 0.628293 0.895441 0.250000
O O10 0.559054 0.925193 0.466930
O O11 0.675781 0.914003 0.505502
O O12 0.575630 0.630851 0.250000
O O13 0.500000 0.619574 0.029307
O O14 0.596475 0.673564 0.015961
O O15 0.500000 0.963015 0.250000
O O16 0.500000 0.000000 0.000000
O O17 0.810242 0.500000 0.500000
O O18 0.805247 0.541414 0.250000
O O19 0.402797 0.297579 0.250000
O O20 0.500000 0.286352 0.409943
#
# Coordination Sequence:
#
# PCOD8259068 Si02
#       7
#    16  16  16  16   8  16  16
#     4   9  19  34  51  72  99 129 163 200 236 282
#     4   9  17  30  48  70  97 129 162 197 242 291
#     4  11  21  33  48  70  97 125 161 203 246 291
#     4   9  17  30  49  75 104 131 158 191 238 289
#     4  10  22  34  44  64  94 124 152 192 243 290
#     4  10  20  35  52  69  91 125 166 204 241 283
#     4   8  15  28  46  70  99 129 161 195 233 284
#
# _framework density 17.232151000000002
#
# number of rings (size 3 to 8) (size 9 to 14) (size 15 to 20)
#    0.000    2.615    0.769    2.308    0.000    4.615 
#    0.000    1.538    0.000    0.923    0.000    0.000 
#    0.000    0.000    0.000    0.000    0.000    0.000 
#
# Total GULP energy -644780.998659 kJ/mol
# GULP energy per Si atom -12399.634590 kJ/mol
# Density = 1.719293 g / cm^3
# Si number density = 17.232151 Si / 1000 Ang^3
#
#
#
# Elastic Constant Matrix: (Units=GPa)
#
#
# Indices 1 2 3 4 5 6 
#
# 1 49.3992 55.3946 36.0602 0.0000 0.0000 0.0000
# 2 55.3946 164.1405 65.6624 0.0000 0.0000 0.0000
# 3 36.0602 65.6624 69.9315 0.0000 0.0000 0.0000
# 4 0.0000 0.0000 0.0000 37.1125 0.0000 0.0000
# 5 0.0000 0.0000 0.0000 0.0000 19.5415 0.0000
# 6 0.0000 0.0000 0.0000 0.0000 0.0000 22.3017
#
#
#
# Elastic Compliance Matrix: (Units=1/GPa)
#
#
# Indices 1 2 3 4 5 6 
#
# 1 0.038053 -0.007996 -0.012114 0.000000 0.000000 0.000000
# 2 -0.007996 0.011438 -0.006616 0.000000 0.000000 0.000000
# 3 -0.012114 -0.006616 0.026758 0.000000 0.000000 0.000000
# 4 0.000000 0.000000 0.000000 0.026945 0.000000 0.000000
# 5 0.000000 0.000000 0.000000 0.000000 0.051173 0.000000
# 6 0.000000 0.000000 0.000000 0.000000 0.000000 0.044840
#
#
# Mechanical properties :
#
#
# Convention : Reuss Voigt Hill
#
# Bulk Modulus (GPa) = 43.86654 66.41173 55.13913
# Shear Modulus (GPa) = 19.21173 24.21475 21.71324
#
# Velocity S-wave (km/s) = 3.34260 3.75268 3.55356
# Velocity P-wave (km/s) = 6.35679 7.57627 6.99316
#
# Compressibility (1/GPa) = 0.02279642
#
# Stress axis : x y z
#
# Youngs Moduli (GPa) = 26.27943 87.43081 37.37132
#
# Poissons Ratio (x) = 0.69910 0.45271
# Poissons Ratio (y) = 0.21013 0.24726
# Poissons Ratio (z) = 0.31834 0.57846
#
# Static dielectric constant tensor:
#      x y z
#    x 3.012070 0.000000 0.000000 
#    y 0.000000 3.425760 0.000000 
#    z 0.000000 0.000000 3.220090 
# 
# 
# High freq. dielectric constant tensor:
#      x y z
#    x 1.633090 0.000000 0.000000 
#    y 0.000000 1.674970 0.000000 
#    z 0.000000 0.000000 1.666090 
# 
# From -- ./inp_files/10828.got.cif
#   From: 2010.03.12/outbox.cif.g09.slc.cpg/sg63_6_cif.got.tgz:10828.got - 2010.04.10 19:34:48.
