data_PCOD8259831
_publ_section_title
;
Structure prediction by ZEFSAII (Michael W. Deem and Ramdas Pophale) SiO2 
 PCOD8259831
Probable space group: C M C M
;
_chemical_formula_sum "Si O2"
_cell_formula_units_Z 96
_cell_length_a 8.985712
_cell_length_b 19.835743
_cell_length_c 28.136893
_cell_angle_alpha 90.000000
_cell_angle_beta 90.000000
_cell_angle_gamma 90.000000
_cell_volume 5015.071241
_symmetry_space_group_name_H-M "C M C M"
_symmetry_group_IT_number 63
_symmetry_cell_setting 'orthorhombic'
loop_
_space_group_symop_operation_xyz
x,y,z
-x,-y,1/2+z
x,-y,-z
-x,y,1/2-z
-x,-y,-z
x,y,1/2-z
-x,y,z
x,-y,1/2+z
1/2+x,1/2+y,z
1/2-x,1/2-y,1/2+z
1/2+x,1/2-y,-z
1/2-x,1/2+y,1/2-z
1/2-x,1/2-y,-z
1/2+x,1/2+y,1/2-z
1/2-x,1/2+y,z
1/2+x,1/2-y,1/2+z
loop_
_atom_site_type_symbol
_atom_site_label
_atom_site_fract_x
_atom_site_fract_y
_atom_site_fract_z
Si Si1 0.827003 0.752108 0.804628
Si Si2 0.824315 0.363890 0.122263
Si Si3 0.328959 0.053601 0.461096
Si Si4 0.175918 0.992999 0.631369
Si Si5 0.329245 0.814581 0.020262
Si Si6 0.331764 0.112196 0.306165
O O1 0.788151 0.734350 0.750000
O O2 0.781031 0.688887 0.836821
O O3 0.736340 0.816708 0.823119
O O4 0.000000 0.769445 0.810576
O O5 0.743386 0.432880 0.134598
O O6 0.764770 0.336900 0.071479
O O7 0.000000 0.377917 0.120098
O O8 0.500000 0.039901 0.446470
O O9 0.305799 0.127464 0.481738
O O10 0.276899 0.000000 0.500000
O O11 0.224168 0.046005 0.415985
O O12 0.000000 0.998177 0.633711
O O13 0.234887 0.949975 0.675531
O O14 0.500000 0.795863 0.027306
O O15 0.250000 0.750000 0.000000
O O16 0.328002 0.107939 0.250000
O O17 0.500000 0.107301 0.325900
#
# Coordination Sequence:
#
# PCOD8259831 Si02
#       6
#    16  16  16  16  16  16
#     4   9  19  37  62  90 119 151 189 239 295 349
#     4  10  21  40  60  83 119 159 199 239 291 354
#     4  10  20  40  63  82 113 159 200 238 289 346
#     4  12  25  38  59  90 121 155 196 248 297 345
#     4  10  22  38  58  84 116 154 195 243 291 345
#     4  10  22  41  64  88 117 155 197 240 290 353
#
# _framework density 19.142299999999999
#
# number of rings (size 3 to 8) (size 9 to 14) (size 15 to 20)
#    0.000    1.833    1.667    2.000    2.333    4.000 
#    0.000    1.667    0.000    0.000    0.000    0.000 
#    0.000    0.000    0.000    0.000    0.000    0.000 
#
# Total GULP energy -595398.537794 kJ/mol
# GULP energy per Si atom -12404.136204 kJ/mol
# Density = 1.909873 g / cm^3
# Si number density = 19.142300 Si / 1000 Ang^3
#
#
#
# Elastic Constant Matrix: (Units=GPa)
#
#
# Indices 1 2 3 4 5 6 
#
# 1 90.7050 65.8286 40.2049 0.0000 0.0000 0.0000
# 2 65.8286 143.0812 59.5807 0.0000 0.0000 0.0000
# 3 40.2049 59.5807 72.8364 0.0000 0.0000 0.0000
# 4 0.0000 0.0000 0.0000 36.7068 0.0000 0.0000
# 5 0.0000 0.0000 0.0000 0.0000 25.5473 0.0000
# 6 0.0000 0.0000 0.0000 0.0000 0.0000 38.5969
#
#
#
# Elastic Compliance Matrix: (Units=1/GPa)
#
#
# Indices 1 2 3 4 5 6 
#
# 1 0.017541 -0.006124 -0.004672 0.000000 0.000000 0.000000
# 2 -0.006124 0.012738 -0.007039 0.000000 0.000000 0.000000
# 3 -0.004672 -0.007039 0.022067 0.000000 0.000000 0.000000
# 4 0.000000 0.000000 0.000000 0.027243 0.000000 0.000000
# 5 0.000000 0.000000 0.000000 0.000000 0.039143 0.000000
# 6 0.000000 0.000000 0.000000 0.000000 0.000000 0.025909
#
#
# Mechanical properties :
#
#
# Convention : Reuss Voigt Hill
#
# Bulk Modulus (GPa) = 59.97643 70.87231 65.42437
# Shear Modulus (GPa) = 26.90063 29.57075 28.23569
#
# Velocity S-wave (km/s) = 3.75280 3.93464 3.84479
# Velocity P-wave (km/s) = 7.08363 7.59909 7.34588
#
# Compressibility (1/GPa) = 0.01667322
#
# Stress axis : x y z
#
# Youngs Moduli (GPa) = 57.01084 78.50592 45.31750
#
# Poissons Ratio (x) = 0.48080 0.21174
# Poissons Ratio (y) = 0.34916 0.31899
# Poissons Ratio (z) = 0.26638 0.55261
#
# Static dielectric constant tensor:
#      x y z
#    x 3.520400 0.000000 0.000000 
#    y 0.000000 3.639940 0.000000 
#    z 0.000000 0.000000 3.689420 
# 
# 
# High freq. dielectric constant tensor:
#      x y z
#    x 1.736920 0.000000 0.000000 
#    y 0.000000 1.755900 0.000000 
#    z 0.000000 0.000000 1.751130 
# 
# From -- ./inp_files/66878.got.cif
#   From: 2010.03.12/outbox.cif.g09.slc.cpg/sg63_34_cif.got.tgz:66878.got - 2010.04.10 19:34:48.
