data_PCOD8259230
_publ_section_title
;
Structure prediction by ZEFSAII (Michael W. Deem and Ramdas Pophale) SiO2 
 PCOD8259230
Probable space group: C M C M
;
_chemical_formula_sum "Si O2"
_cell_formula_units_Z 96
_cell_length_a 9.116865
_cell_length_b 30.258244
_cell_length_c 19.005898
_cell_angle_alpha 90.000000
_cell_angle_beta 90.000000
_cell_angle_gamma 90.000000
_cell_volume 5242.973212
_symmetry_space_group_name_H-M "C M C M"
_symmetry_group_IT_number 63
_symmetry_cell_setting 'orthorhombic'
loop_
_space_group_symop_operation_xyz
x,y,z
-x,-y,1/2+z
x,-y,-z
-x,y,1/2-z
-x,-y,-z
x,y,1/2-z
-x,y,z
x,-y,1/2+z
1/2+x,1/2+y,z
1/2-x,1/2-y,1/2+z
1/2+x,1/2-y,-z
1/2-x,1/2+y,1/2-z
1/2-x,1/2-y,-z
1/2+x,1/2+y,1/2-z
1/2-x,1/2+y,z
1/2+x,1/2-y,1/2+z
loop_
_atom_site_type_symbol
_atom_site_label
_atom_site_fract_x
_atom_site_fract_y
_atom_site_fract_z
Si Si1 0.827815 0.613418 0.934420
Si Si2 0.671762 0.778749 0.831344
Si Si3 0.328939 0.190611 0.830444
Si Si4 0.826360 0.021089 0.573991
Si Si5 0.671067 0.048039 0.167529
Si Si6 0.672509 0.864665 0.908479
O O1 0.779733 0.648924 0.876394
O O2 0.735794 0.569997 0.919386
O O3 0.000000 0.602042 0.930594
O O4 0.784699 0.633264 0.009991
O O5 0.708795 0.787495 0.750000
O O6 0.500000 0.773230 0.844224
O O7 0.747389 0.734096 0.858549
O O8 0.738357 0.819839 0.875257
O O9 0.285429 0.180309 0.750000
O O10 0.500000 0.199710 0.838969
O O11 0.000000 0.022390 0.581202
O O12 0.776299 0.000000 0.500000
O O13 0.760101 0.993260 0.637851
O O14 0.698950 0.051459 0.250000
O O15 0.500000 0.041341 0.149662
O O16 0.734996 0.092412 0.131643
O O17 0.500000 0.863781 0.896073
#
# Coordination Sequence:
#
# PCOD8259230 Si02
#       6
#    16  16  16  16  16  16
#     4  10  20  35  57  78 101 140 183 223 269 317
#     4   9  17  31  52  76 104 138 173 213 265 320
#     4   9  19  35  52  74 105 138 176 220 263 313
#     4  11  23  38  55  78 111 146 178 218 273 328
#     4  10  20  35  58  84 107 138 182 227 269 320
#     4   9  17  31  53  80 106 134 175 222 264 314
#
# _framework density 18.310220999999999
#
# number of rings (size 3 to 8) (size 9 to 14) (size 15 to 20)
#    0.000    2.333    1.667    1.000    0.000    5.000 
#    0.000    3.333    0.000    2.000    0.000    0.000 
#    0.000    0.000    0.000    0.000    0.000    0.000 
#
# Total GULP energy -595333.468700 kJ/mol
# GULP energy per Si atom -12402.780598 kJ/mol
# Density = 1.826855 g / cm^3
# Si number density = 18.310221 Si / 1000 Ang^3
#
#
#
# Elastic Constant Matrix: (Units=GPa)
#
#
# Indices 1 2 3 4 5 6 
#
# 1 42.0466 52.3190 37.1665 0.0000 0.0000 0.0000
# 2 52.3190 173.9476 77.8052 0.0000 0.0000 0.0000
# 3 37.1665 77.8052 103.6377 0.0000 0.0000 0.0000
# 4 0.0000 0.0000 0.0000 41.4557 0.0000 0.0000
# 5 0.0000 0.0000 0.0000 0.0000 19.4758 0.0000
# 6 0.0000 0.0000 0.0000 0.0000 0.0000 19.9218
#
#
#
# Elastic Compliance Matrix: (Units=1/GPa)
#
#
# Indices 1 2 3 4 5 6 
#
# 1 0.042448 -0.008971 -0.008488 0.000000 0.000000 0.000000
# 2 -0.008971 0.010551 -0.004704 0.000000 0.000000 0.000000
# 3 -0.008488 -0.004704 0.016225 0.000000 0.000000 0.000000
# 4 0.000000 0.000000 0.000000 0.024122 0.000000 0.000000
# 5 0.000000 0.000000 0.000000 0.000000 0.051346 0.000000
# 6 0.000000 0.000000 0.000000 0.000000 0.000000 0.050196
#
#
# Mechanical properties :
#
#
# Convention : Reuss Voigt Hill
#
# Bulk Modulus (GPa) = 40.16351 72.69037 56.42694
# Shear Modulus (GPa) = 20.20090 26.32673 23.26381
#
# Velocity S-wave (km/s) = 3.32514 3.79597 3.56833
# Velocity P-wave (km/s) = 6.06009 7.68102 6.91819
#
# Compressibility (1/GPa) = 0.02489822
#
# Stress axis : x y z
#
# Youngs Moduli (GPa) = 23.55799 94.77650 61.63492
#
# Poissons Ratio (x) = 0.85022 0.52316
# Poissons Ratio (y) = 0.21133 0.28994
# Poissons Ratio (z) = 0.19996 0.44584
#
# Static dielectric constant tensor:
#      x y z
#    x 3.124310 0.000000 0.000000 
#    y 0.000000 3.541170 0.000000 
#    z 0.000000 0.000000 3.445810 
# 
# 
# High freq. dielectric constant tensor:
#      x y z
#    x 1.683880 0.000000 0.000000 
#    y 0.000000 1.722300 0.000000 
#    z 0.000000 0.000000 1.713510 
# 
# From -- ./inp_files/51318.got.cif
#   From: 2010.03.12/outbox.cif.g09.slc.cpg/sg63_26_cif.got.tgz:51318.got - 2010.04.10 19:34:48.
