data_PCOD8259573
_publ_section_title
;
Structure prediction by ZEFSAII (Michael W. Deem and Ramdas Pophale) SiO2 
 PCOD8259573
Probable space group: C M C M
;
_chemical_formula_sum "Si O2"
_cell_formula_units_Z 96
_cell_length_a 21.801612
_cell_length_b 13.781141
_cell_length_c 14.723549
_cell_angle_alpha 90.000000
_cell_angle_beta 90.000000
_cell_angle_gamma 90.000000
_cell_volume 4423.706331
_symmetry_space_group_name_H-M "C M C M"
_symmetry_group_IT_number 63
_symmetry_cell_setting 'orthorhombic'
loop_
_space_group_symop_operation_xyz
x,y,z
-x,-y,1/2+z
x,-y,-z
-x,y,1/2-z
-x,-y,-z
x,y,1/2-z
-x,y,z
x,-y,1/2+z
1/2+x,1/2+y,z
1/2-x,1/2-y,1/2+z
1/2+x,1/2-y,-z
1/2-x,1/2+y,1/2-z
1/2-x,1/2-y,-z
1/2+x,1/2+y,1/2-z
1/2-x,1/2+y,z
1/2+x,1/2-y,1/2+z
loop_
_atom_site_type_symbol
_atom_site_label
_atom_site_fract_x
_atom_site_fract_y
_atom_site_fract_z
Si Si1 0.930471 0.772186 0.040681
Si Si2 0.736983 0.031251 0.597786
Si Si3 0.872444 0.944110 0.150111
Si Si4 0.603136 0.659743 0.353443
Si Si5 0.341736 0.851600 0.854382
Si Si6 0.775849 0.734471 0.646813
O O1 0.893416 0.865679 0.076756
O O2 0.898707 0.673433 0.078870
O O3 0.000000 0.772717 0.076400
O O4 0.932093 0.777720 0.930216
O O5 0.799166 0.038445 0.655736
O O6 0.706853 0.138535 0.589666
O O7 0.759256 0.000000 0.500000
O O8 0.684357 0.960516 0.636673
O O9 0.892070 0.906897 0.250000
O O10 0.906838 0.045562 0.129553
O O11 0.582067 0.688342 0.250000
O O12 0.675186 0.680592 0.366934
O O13 0.361924 0.836031 0.750000
O O14 0.289369 0.775840 0.883889
O O15 0.773401 0.699614 0.750000
#
# Coordination Sequence:
#
# PCOD8259573 Si02
#       6
#    16  16  16  16  16  16
#     4  12  26  42  62  91 129 175 218 253 304 380
#     4  12  22  34  61  95 130 165 205 263 324 378
#     4  11  22  37  59  91 128 168 210 257 316 375
#     4  10  22  40  62  90 125 163 209 268 323 373
#     4  11  23  39  63  94 130 169 209 260 318 377
#     4  10  20  36  61  92 125 159 203 261 325 377
#
# _framework density 21.701260000000001
#
# number of rings (size 3 to 8) (size 9 to 14) (size 15 to 20)
#    0.000    1.000    3.333    4.500    0.000    4.333 
#    0.000    1.667    0.000    4.500    0.000    4.667 
#    0.000    0.000    0.000    0.000    0.000    0.000 
#
# Total GULP energy -595078.224200 kJ/mol
# GULP energy per Si atom -12397.463004 kJ/mol
# Density = 2.165187 g / cm^3
# Si number density = 21.701260 Si / 1000 Ang^3
#
#
#
# Elastic Constant Matrix: (Units=GPa)
#
#
# Indices 1 2 3 4 5 6 
#
# 1 97.5290 26.9792 27.8531 0.0000 0.0000 0.0000
# 2 26.9792 90.6609 27.0159 0.0000 0.0000 0.0000
# 3 27.8531 27.0159 96.9682 0.0000 0.0000 0.0000
# 4 0.0000 0.0000 0.0000 30.4510 0.0000 0.0000
# 5 0.0000 0.0000 0.0000 0.0000 7.2170 0.0000
# 6 0.0000 0.0000 0.0000 0.0000 0.0000 16.8265
#
#
#
# Elastic Compliance Matrix: (Units=1/GPa)
#
#
# Indices 1 2 3 4 5 6 
#
# 1 0.011753 -0.002717 -0.002619 0.000000 0.000000 0.000000
# 2 -0.002717 0.012657 -0.002746 0.000000 0.000000 0.000000
# 3 -0.002619 -0.002746 0.011830 0.000000 0.000000 0.000000
# 4 0.000000 0.000000 0.000000 0.032840 0.000000 0.000000
# 5 0.000000 0.000000 0.000000 0.000000 0.138562 0.000000
# 6 0.000000 0.000000 0.000000 0.000000 0.000000 0.059430
#
#
# Mechanical properties :
#
#
# Convention : Reuss Voigt Hill
#
# Bulk Modulus (GPa) = 49.81047 49.87271 49.84159
# Shear Modulus (GPa) = 17.24568 24.45288 20.84928
#
# Velocity S-wave (km/s) = 2.82208 3.36042 3.10294
# Velocity P-wave (km/s) = 5.79840 6.17154 5.98788
#
# Compressibility (1/GPa) = 0.02007610
#
# Stress axis : x y z
#
# Youngs Moduli (GPa) = 85.08537 79.00830 84.53144
#
# Poissons Ratio (x) = 0.21467 0.22138
# Poissons Ratio (y) = 0.23118 0.23211
# Poissons Ratio (z) = 0.22283 0.21694
#
# Static dielectric constant tensor:
#      x y z
#    x 3.525090 0.000000 0.000000 
#    y 0.000000 3.946340 0.000000 
#    z 0.000000 0.000000 4.096870 
# 
# 
# High freq. dielectric constant tensor:
#      x y z
#    x 1.810840 0.000000 0.000000 
#    y 0.000000 1.845150 0.000000 
#    z 0.000000 0.000000 1.868580 
# 
# From -- ./inp_files/35370.got.cif
#   From: 2010.03.12/outbox.cif.g09.slc.cpg/sg63_18_cif.got.tgz:35370.got - 2010.04.10 19:34:48.
