data_PCOD8259140
_publ_section_title
;
Structure prediction by ZEFSAII (Michael W. Deem and Ramdas Pophale) SiO2 
 PCOD8259140
Probable space group: C M C M
;
_chemical_formula_sum "Si O2"
_cell_formula_units_Z 80
_cell_length_a 8.876158
_cell_length_b 18.702712
_cell_length_c 25.825701
_cell_angle_alpha 90.000000
_cell_angle_beta 90.000000
_cell_angle_gamma 90.000000
_cell_volume 4287.278827
_symmetry_space_group_name_H-M "C M C M"
_symmetry_group_IT_number 63
_symmetry_cell_setting 'orthorhombic'
loop_
_space_group_symop_operation_xyz
x,y,z
-x,-y,1/2+z
x,-y,-z
-x,y,1/2-z
-x,-y,-z
x,y,1/2-z
-x,y,z
x,-y,1/2+z
1/2+x,1/2+y,z
1/2-x,1/2-y,1/2+z
1/2+x,1/2-y,-z
1/2-x,1/2+y,1/2-z
1/2-x,1/2-y,-z
1/2+x,1/2+y,1/2-z
1/2-x,1/2+y,z
1/2+x,1/2-y,1/2+z
loop_
_atom_site_type_symbol
_atom_site_label
_atom_site_fract_x
_atom_site_fract_y
_atom_site_fract_z
Si Si1 0.825380 0.543778 0.048354
Si Si2 0.321620 0.290686 0.654944
Si Si3 0.178823 0.955402 0.250000
Si Si4 0.179104 0.791516 0.250000
Si Si5 0.676043 0.790019 0.952439
Si Si6 0.322777 0.455030 0.653750
O O1 0.793973 0.626673 0.038418
O O2 0.745026 0.516680 0.100170
O O3 0.000000 0.526709 0.055254
O O4 0.757850 0.500000 0.000000
O O5 0.500000 0.279379 0.655934
O O6 0.245568 0.244391 0.699192
O O7 0.256610 0.264192 0.600103
O O8 0.276562 0.373098 0.664669
O O9 0.232017 0.873762 0.250000
O O10 0.000000 0.961516 0.250000
O O11 0.243458 0.995738 0.199481
O O12 0.000000 0.783995 0.250000
O O13 0.500000 0.771809 0.948769
O O14 0.750000 0.750000 0.000000
O O15 0.500000 0.462489 0.649562
#
# Coordination Sequence:
#
# PCOD8259140 Si02
#       6
#    16  16   8   8  16  16
#     4   9  19  35  53  76 106 136 168 211 260 305
#     4  10  20  36  57  78 103 138 179 218 257 307
#     4   9  19  35  53  77 106 133 166 212 262 307
#     4  11  22  35  53  79 110 139 170 214 266 315
#     4  10  20  35  55  79 108 140 175 215 259 309
#     4   9  18  35  57  76  98 134 177 214 250 302
#
# _framework density 18.659853999999999
#
# number of rings (size 3 to 8) (size 9 to 14) (size 15 to 20)
#    0.000    2.400    0.000    2.100    0.000    5.200 
#    0.000    6.500    0.000    0.000    0.000    0.000 
#    0.000    0.000    0.000    0.000    0.000    0.000 
#
# Total GULP energy -496097.572796 kJ/mol
# GULP energy per Si atom -12402.439320 kJ/mol
# Density = 1.861738 g / cm^3
# Si number density = 18.659854 Si / 1000 Ang^3
#
#
#
# Elastic Constant Matrix: (Units=GPa)
#
#
# Indices 1 2 3 4 5 6 
#
# 1 61.6639 44.5530 59.5485 0.0000 0.0000 0.0000
# 2 44.5530 96.6503 100.3302 0.0000 0.0000 0.0000
# 3 59.5485 100.3302 209.4492 0.0000 0.0000 0.0000
# 4 0.0000 0.0000 0.0000 41.6584 0.0000 0.0000
# 5 0.0000 0.0000 0.0000 0.0000 38.8625 0.0000
# 6 0.0000 0.0000 0.0000 0.0000 0.0000 22.5494
#
#
#
# Elastic Compliance Matrix: (Units=1/GPa)
#
#
# Indices 1 2 3 4 5 6 
#
# 1 0.025351 -0.008362 -0.003202 0.000000 0.000000 0.000000
# 2 -0.008362 0.023339 -0.008802 0.000000 0.000000 0.000000
# 3 -0.003202 -0.008802 0.009901 0.000000 0.000000 0.000000
# 4 0.000000 0.000000 0.000000 0.024005 0.000000 0.000000
# 5 0.000000 0.000000 0.000000 0.000000 0.025732 0.000000
# 6 0.000000 0.000000 0.000000 0.000000 0.000000 0.044347
#
#
# Mechanical properties :
#
#
# Convention : Reuss Voigt Hill
#
# Bulk Modulus (GPa) = 55.99710 86.29187 71.14448
# Shear Modulus (GPa) = 25.08033 31.50283 28.29158
#
# Velocity S-wave (km/s) = 3.67015 4.11331 3.89803
# Velocity P-wave (km/s) = 6.93069 8.30085 7.64652
#
# Compressibility (1/GPa) = 0.01785807
#
# Stress axis : x y z
#
# Youngs Moduli (GPa) = 39.44650 42.84737 100.99846
#
# Poissons Ratio (x) = 0.35830 0.32338
# Poissons Ratio (y) = 0.32986 0.88901
# Poissons Ratio (z) = 0.12630 0.37715
#
# Static dielectric constant tensor:
#      x y z
#    x 3.370280 0.000000 0.000000 
#    y 0.000000 3.482120 0.000000 
#    z 0.000000 0.000000 3.509480 
# 
# 
# High freq. dielectric constant tensor:
#      x y z
#    x 1.718710 0.000000 0.000000 
#    y 0.000000 1.718100 0.000000 
#    z 0.000000 0.000000 1.741710 
# 
# From -- ./inp_files/66680.got.cif
#   From: 2010.03.12/outbox.cif.g09.slc.cpg/sg63_34_cif.got.tgz:66680.got - 2010.04.10 19:34:48.
