data_PCOD8259229
_publ_section_title
;
Structure prediction by ZEFSAII (Michael W. Deem and Ramdas Pophale) SiO2 
 PCOD8259229
Probable space group: C M C M
;
_chemical_formula_sum "Si O2"
_cell_formula_units_Z 112
_cell_length_a 22.666496
_cell_length_b 12.817338
_cell_length_c 19.491776
_cell_angle_alpha 90.000000
_cell_angle_beta 90.000000
_cell_angle_gamma 90.000000
_cell_volume 5662.831469
_symmetry_space_group_name_H-M "C M C M"
_symmetry_group_IT_number 63
_symmetry_cell_setting 'orthorhombic'
loop_
_space_group_symop_operation_xyz
x,y,z
-x,-y,1/2+z
x,-y,-z
-x,y,1/2-z
-x,-y,-z
x,y,1/2-z
-x,y,z
x,-y,1/2+z
1/2+x,1/2+y,z
1/2-x,1/2-y,1/2+z
1/2+x,1/2-y,-z
1/2-x,1/2+y,1/2-z
1/2-x,1/2-y,-z
1/2+x,1/2+y,1/2-z
1/2-x,1/2+y,z
1/2+x,1/2-y,1/2+z
loop_
_atom_site_type_symbol
_atom_site_label
_atom_site_fract_x
_atom_site_fract_y
_atom_site_fract_z
Si Si1 0.568692 0.233282 0.542137
Si Si2 0.870913 0.472219 0.421296
Si Si3 0.740435 0.313266 0.930302
Si Si4 0.357895 0.608959 0.673805
Si Si5 0.719945 0.136592 0.670278
Si Si6 0.127311 0.689748 0.096578
Si Si7 0.627063 0.439019 0.567176
O O1 0.500000 0.232500 0.525515
O O2 0.585033 0.126419 0.581661
O O3 0.606777 0.243898 0.473216
O O4 0.587210 0.336940 0.583533
O O5 0.850791 0.500000 0.500000
O O6 0.816421 0.450983 0.370459
O O7 0.904876 0.577050 0.392578
O O8 0.710097 0.244539 0.870272
O O9 0.804676 0.348980 0.906282
O O10 0.696299 0.409745 0.941856
O O11 0.750000 0.250000 0.000000
O O12 0.379062 0.586486 0.750000
O O13 0.287870 0.604658 0.665649
O O14 0.382334 0.724493 0.655100
O O15 0.385430 0.517508 0.629116
O O16 0.699738 0.146913 0.750000
O O17 0.605401 0.500000 0.500000
#
# Coordination Sequence:
#
# PCOD8259229 Si02
#       7
#    16  16  16  16  16  16  16
#     4  11  23  40  61  90 117 152 210 263 305 350
#     4  10  20  37  61  87 118 159 200 250 303 361
#     4  11  18  33  58  88 122 155 197 241 304 373
#     4  10  22  37  56  89 127 161 198 241 303 378
#     4  10  20  35  56  90 128 161 195 242 304 373
#     4  10  20  36  58  87 121 156 192 247 303 362
#     4  12  21  37  62  88 119 159 197 255 306 363
#
# _framework density 19.778092000000001
#
# number of rings (size 3 to 8) (size 9 to 14) (size 15 to 20)
#    0.000    1.429    4.286    2.571    0.000    6.286 
#    0.000    2.857    0.000    3.000    0.000    4.000 
#    0.000    0.000    0.000    0.000    0.000    0.000 
#
# Total GULP energy -694034.441776 kJ/mol
# GULP energy per Si atom -12393.472175 kJ/mol
# Density = 1.973308 g / cm^3
# Si number density = 19.778092 Si / 1000 Ang^3
#
#
#
# Elastic Constant Matrix: (Units=GPa)
#
#
# Indices 1 2 3 4 5 6 
#
# 1 48.9029 34.2052 15.3700 0.0000 0.0000 0.0000
# 2 34.2052 162.5569 69.3400 0.0000 0.0000 0.0000
# 3 15.3700 69.3400 125.1099 0.0000 0.0000 0.0000
# 4 0.0000 0.0000 0.0000 29.7654 0.0000 0.0000
# 5 0.0000 0.0000 0.0000 0.0000 5.0900 0.0000
# 6 0.0000 0.0000 0.0000 0.0000 0.0000 11.0859
#
#
#
# Elastic Compliance Matrix: (Units=1/GPa)
#
#
# Indices 1 2 3 4 5 6 
#
# 1 0.023981 -0.004963 -0.000196 0.000000 0.000000 0.000000
# 2 -0.004963 0.009083 -0.004425 0.000000 0.000000 0.000000
# 3 -0.000196 -0.004425 0.010469 0.000000 0.000000 0.000000
# 4 0.000000 0.000000 0.000000 0.033596 0.000000 0.000000
# 5 0.000000 0.000000 0.000000 0.000000 0.196463 0.000000
# 6 0.000000 0.000000 0.000000 0.000000 0.000000 0.090205
#
#
# Mechanical properties :
#
#
# Convention : Reuss Voigt Hill
#
# Bulk Modulus (GPa) = 41.03737 63.82223 52.42980
# Shear Modulus (GPa) = 12.78490 23.69857 18.24173
#
# Velocity S-wave (km/s) = 2.54523 3.46529 3.04027
# Velocity P-wave (km/s) = 5.42509 6.95343 6.23625
#
# Compressibility (1/GPa) = 0.02436803
#
# Stress axis : x y z
#
# Youngs Moduli (GPa) = 41.69905 110.09237 95.51779
#
# Poissons Ratio (x) = 0.54635 0.01869
# Poissons Ratio (y) = 0.20694 0.42263
# Poissons Ratio (z) = 0.00816 0.48711
#
# Static dielectric constant tensor:
#      x y z
#    x 3.240130 0.000000 0.000000 
#    y 0.000000 3.878160 0.000000 
#    z 0.000000 0.000000 3.577460 
# 
# 
# High freq. dielectric constant tensor:
#      x y z
#    x 1.726650 0.000000 0.000000 
#    y 0.000000 1.797270 0.000000 
#    z 0.000000 0.000000 1.747880 
# 
# From -- ./inp_files/57646.got.cif
#   From: 2010.03.12/outbox.cif.g09.slc.cpg/sg63_29_cif.got.tgz:57646.got - 2010.04.10 19:34:48.
