data_PCOD8259603
_publ_section_title
;
Structure prediction by ZEFSAII (Michael W. Deem and Ramdas Pophale) SiO2 
 PCOD8259603
Probable space group: C M C M
;
_chemical_formula_sum "Si O2"
_cell_formula_units_Z 96
_cell_length_a 16.414429
_cell_length_b 11.356775
_cell_length_c 25.514336
_cell_angle_alpha 90.000000
_cell_angle_beta 90.000000
_cell_angle_gamma 90.000000
_cell_volume 4756.254356
_symmetry_space_group_name_H-M "C M C M"
_symmetry_group_IT_number 63
_symmetry_cell_setting 'orthorhombic'
loop_
_space_group_symop_operation_xyz
x,y,z
-x,-y,1/2+z
x,-y,-z
-x,y,1/2-z
-x,-y,-z
x,y,1/2-z
-x,y,z
x,-y,1/2+z
1/2+x,1/2+y,z
1/2-x,1/2-y,1/2+z
1/2+x,1/2-y,-z
1/2-x,1/2+y,1/2-z
1/2-x,1/2-y,-z
1/2+x,1/2+y,1/2-z
1/2-x,1/2+y,z
1/2+x,1/2-y,1/2+z
loop_
_atom_site_type_symbol
_atom_site_label
_atom_site_fract_x
_atom_site_fract_y
_atom_site_fract_z
Si Si1 0.737057 0.171946 0.190602
Si Si2 0.312227 0.004354 0.605523
Si Si3 0.090937 0.900675 0.842088
Si Si4 0.905220 0.314166 0.956896
Si Si5 0.841545 0.871090 0.377786
Si Si6 0.091399 0.716629 0.926285
O O1 0.705081 0.173755 0.250000
O O2 0.691692 0.064843 0.160773
O O3 0.835404 0.154055 0.191996
O O4 0.710986 0.293174 0.162882
O O5 0.349931 0.923978 0.559996
O O6 0.220921 0.044708 0.590287
O O7 0.364472 0.122697 0.611150
O O8 0.099199 0.844888 0.900341
O O9 0.000000 0.871963 0.818890
O O10 0.097991 0.042388 0.846149
O O11 0.893479 0.205159 0.918001
O O12 0.000000 0.350659 0.955804
O O13 0.873594 0.277981 0.014615
O O14 0.000000 0.672054 0.929908
#
# Coordination Sequence:
#
# PCOD8259603 Si02
#       6
#    16  16  16  16  16  16
#     4  10  22  41  62  82 109 149 194 241 297 346
#     4  10  20  37  57  87 115 149 191 240 283 330
#     4  10  21  39  60  85 118 150 188 238 285 338
#     4  10  21  37  59  84 118 163 195 223 274 340
#     4  10  21  38  57  88 116 151 190 241 284 335
#     4  10  20  37  59  86 121 158 191 228 280 340
#
# _framework density 20.183949999999999
#
# number of rings (size 3 to 8) (size 9 to 14) (size 15 to 20)
#    0.000    2.000    1.667    1.500    0.000    5.667 
#    6.000    2.500    0.000   17.500    0.000    0.000 
#    0.000    0.000    0.000    0.000    0.000    0.000 
#
# Total GULP energy -594923.375555 kJ/mol
# GULP energy per Si atom -12394.236991 kJ/mol
# Density = 2.013801 g / cm^3
# Si number density = 20.183950 Si / 1000 Ang^3
#
#
#
# Elastic Constant Matrix: (Units=GPa)
#
#
# Indices 1 2 3 4 5 6 
#
# 1 79.6894 33.0298 37.4041 0.0000 0.0000 0.0000
# 2 33.0298 97.2148 30.1239 0.0000 0.0000 0.0000
# 3 37.4041 30.1239 96.0032 0.0000 0.0000 0.0000
# 4 0.0000 0.0000 0.0000 10.9769 0.0000 0.0000
# 5 0.0000 0.0000 0.0000 0.0000 19.6290 0.0000
# 6 0.0000 0.0000 0.0000 0.0000 0.0000 34.6845
#
#
#
# Elastic Compliance Matrix: (Units=1/GPa)
#
#
# Indices 1 2 3 4 5 6 
#
# 1 0.016681 -0.004047 -0.005229 0.000000 0.000000 0.000000
# 2 -0.004047 0.012376 -0.002307 0.000000 0.000000 0.000000
# 3 -0.005229 -0.002307 0.013177 0.000000 0.000000 0.000000
# 4 0.000000 0.000000 0.000000 0.091101 0.000000 0.000000
# 5 0.000000 0.000000 0.000000 0.000000 0.050945 0.000000
# 6 0.000000 0.000000 0.000000 0.000000 0.000000 0.028831
#
#
# Mechanical properties :
#
#
# Convention : Reuss Voigt Hill
#
# Bulk Modulus (GPa) = 52.44199 52.66922 52.55560
# Shear Modulus (GPa) = 20.60726 24.54805 22.57766
#
# Velocity S-wave (km/s) = 3.19873 3.49121 3.34817
# Velocity P-wave (km/s) = 6.29928 6.51173 6.40639
#
# Compressibility (1/GPa) = 0.01906869
#
# Stress axis : x y z
#
# Youngs Moduli (GPa) = 59.95008 80.79964 75.88746
#
# Poissons Ratio (x) = 0.32700 0.39682
# Poissons Ratio (y) = 0.24262 0.17505
# Poissons Ratio (z) = 0.31348 0.18638
#
# Static dielectric constant tensor:
#      x y z
#    x 3.808580 0.000000 0.000000 
#    y 0.000000 3.801600 0.000000 
#    z 0.000000 0.000000 3.392810 
# 
# 
# High freq. dielectric constant tensor:
#      x y z
#    x 1.793340 0.000000 0.000000 
#    y 0.000000 1.799260 0.000000 
#    z 0.000000 0.000000 1.759170 
# 
# From -- ./inp_files/63662.got.cif
#   From: 2010.03.12/outbox.cif.g09.slc.cpg/sg63_32_cif.got.tgz:63662.got - 2010.04.10 19:34:48.
