data_PCOD8259476
_publ_section_title
;
Structure prediction by ZEFSAII (Michael W. Deem and Ramdas Pophale) SiO2 
 PCOD8259476
Probable space group: C M C M
;
_chemical_formula_sum "Si O2"
_cell_formula_units_Z 112
_cell_length_a 10.969173
_cell_length_b 36.574812
_cell_length_c 13.673187
_cell_angle_alpha 90.000000
_cell_angle_beta 90.000000
_cell_angle_gamma 90.000000
_cell_volume 5485.620278
_symmetry_space_group_name_H-M "C M C M"
_symmetry_group_IT_number 63
_symmetry_cell_setting 'orthorhombic'
loop_
_space_group_symop_operation_xyz
x,y,z
-x,-y,1/2+z
x,-y,-z
-x,y,1/2-z
-x,-y,-z
x,y,1/2-z
-x,y,z
x,-y,1/2+z
1/2+x,1/2+y,z
1/2-x,1/2-y,1/2+z
1/2+x,1/2-y,-z
1/2-x,1/2+y,1/2-z
1/2-x,1/2-y,-z
1/2+x,1/2+y,1/2-z
1/2-x,1/2+y,z
1/2+x,1/2-y,1/2+z
loop_
_atom_site_type_symbol
_atom_site_label
_atom_site_fract_x
_atom_site_fract_y
_atom_site_fract_z
Si Si1 0.633630 0.710560 0.458046
Si Si2 0.640834 0.359313 0.856760
Si Si3 0.291001 0.780052 0.139160
Si Si4 0.636999 0.139182 0.858276
Si Si5 0.237029 0.915517 0.997690
Si Si6 0.361075 0.030640 0.137703
Si Si7 0.861151 0.025040 0.861829
O O1 0.500000 0.696233 0.480570
O O2 0.704322 0.675739 0.410346
O O3 0.626653 0.744657 0.383049
O O4 0.680776 0.722603 0.563640
O O5 0.702718 0.364146 0.750000
O O6 0.500000 0.350709 0.841686
O O7 0.653096 0.396893 0.916234
O O8 0.241881 0.778142 0.250000
O O9 0.363923 0.817491 0.120269
O O10 0.691839 0.131725 0.750000
O O11 0.500000 0.124667 0.862557
O O12 0.711842 0.116998 0.937004
O O13 0.154174 0.941169 0.065362
O O14 0.344760 0.936607 0.939740
O O15 0.348486 0.044100 0.250000
O O16 0.500000 0.014485 0.122463
O O17 0.249723 0.002773 0.114405
O O18 0.847551 0.038407 0.750000
O O19 0.000000 0.008818 0.877534
#
# Coordination Sequence:
#
# PCOD8259476 Si02
#       7
#    16  16  16  16  16  16  16
#     4  10  20  36  58  84 114 153 198 245 293 340
#     4  10  21  36  55  83 117 153 194 239 290 349
#     4  10  20  36  58  84 114 152 198 246 291 339
#     4  10  21  36  55  83 117 153 194 239 290 347
#     4  12  21  36  59  88 118 154 194 237 294 351
#     4  10  23  42  63  88 119 155 197 244 296 356
#     4  10  23  42  63  88 119 154 195 244 299 359
#
# _framework density 20.417017000000001
#
# number of rings (size 3 to 8) (size 9 to 14) (size 15 to 20)
#    0.000    1.714    1.429    3.000    0.000    5.143 
#    0.000    2.857    0.000    0.000    0.000    0.000 
#    0.000    0.000    0.000    0.000    0.000    0.000 
#
# Total GULP energy -693879.628148 kJ/mol
# GULP energy per Si atom -12390.707645 kJ/mol
# Density = 2.037055 g / cm^3
# Si number density = 20.417017 Si / 1000 Ang^3
#
#
#
# Elastic Constant Matrix: (Units=GPa)
#
#
# Indices 1 2 3 4 5 6 
#
# 1 94.0181 38.2425 37.5822 0.0000 0.0000 0.0000
# 2 38.2425 97.0840 56.9923 0.0000 0.0000 0.0000
# 3 37.5822 56.9923 141.4769 0.0000 0.0000 0.0000
# 4 0.0000 0.0000 0.0000 40.5623 0.0000 0.0000
# 5 0.0000 0.0000 0.0000 0.0000 17.3325 0.0000
# 6 0.0000 0.0000 0.0000 0.0000 0.0000 24.5448
#
#
#
# Elastic Compliance Matrix: (Units=1/GPa)
#
#
# Indices 1 2 3 4 5 6 
#
# 1 0.013015 -0.004056 -0.001823 0.000000 0.000000 0.000000
# 2 -0.004056 0.014755 -0.004866 0.000000 0.000000 0.000000
# 3 -0.001823 -0.004866 0.009513 0.000000 0.000000 0.000000
# 4 0.000000 0.000000 0.000000 0.024653 0.000000 0.000000
# 5 0.000000 0.000000 0.000000 0.000000 0.057695 0.000000
# 6 0.000000 0.000000 0.000000 0.000000 0.000000 0.040742
#
#
# Mechanical properties :
#
#
# Convention : Reuss Voigt Hill
#
# Bulk Modulus (GPa) = 63.32735 66.46810 64.89773
# Shear Modulus (GPa) = 26.71958 29.80541 28.26249
#
# Velocity S-wave (km/s) = 3.62151 3.82492 3.72460
# Velocity P-wave (km/s) = 6.96932 7.22029 7.09591
#
# Compressibility (1/GPa) = 0.01579097
#
# Stress axis : x y z
#
# Youngs Moduli (GPa) = 76.83410 67.77390 105.11988
#
# Poissons Ratio (x) = 0.27492 0.19166
# Poissons Ratio (y) = 0.31167 0.51154
# Poissons Ratio (z) = 0.14009 0.32981
#
# Static dielectric constant tensor:
#      x y z
#    x 3.474970 0.000000 0.000000 
#    y 0.000000 3.697080 0.000000 
#    z 0.000000 0.000000 4.009880 
# 
# 
# High freq. dielectric constant tensor:
#      x y z
#    x 1.772900 0.000000 0.000000 
#    y 0.000000 1.795340 0.000000 
#    z 0.000000 0.000000 1.821770 
# 
# From -- ./inp_files/30399.got.cif
#   From: 2010.03.12/outbox.cif.g09.slc.cpg/sg63_16_cif.got.tgz:30399.got - 2010.04.10 19:34:48.
