data_PCOD8259473
_publ_section_title
;
Structure prediction by ZEFSAII (Michael W. Deem and Ramdas Pophale) SiO2 
 PCOD8259473
Probable space group: C M C M
;
_chemical_formula_sum "Si O2"
_cell_formula_units_Z 80
_cell_length_a 9.280689
_cell_length_b 14.495693
_cell_length_c 29.578508
_cell_angle_alpha 90.000000
_cell_angle_beta 90.000000
_cell_angle_gamma 90.000000
_cell_volume 3979.197231
_symmetry_space_group_name_H-M "C M C M"
_symmetry_group_IT_number 63
_symmetry_cell_setting 'orthorhombic'
loop_
_space_group_symop_operation_xyz
x,y,z
-x,-y,1/2+z
x,-y,-z
-x,y,1/2-z
-x,-y,-z
x,y,1/2-z
-x,y,z
x,-y,1/2+z
1/2+x,1/2+y,z
1/2-x,1/2-y,1/2+z
1/2+x,1/2-y,-z
1/2-x,1/2+y,1/2-z
1/2-x,1/2-y,-z
1/2+x,1/2+y,1/2-z
1/2-x,1/2+y,z
1/2+x,1/2-y,1/2+z
loop_
_atom_site_type_symbol
_atom_site_label
_atom_site_fract_x
_atom_site_fract_y
_atom_site_fract_z
Si Si1 0.830162 0.389671 0.113683
Si Si2 0.838382 0.110076 0.200940
Si Si3 0.336140 0.897902 0.882988
Si Si4 0.338022 0.390837 0.199967
Si Si5 0.830599 0.757606 0.452997
O O1 0.790958 0.497157 0.107149
O O2 0.774012 0.353444 0.162553
O O3 0.742678 0.339796 0.074464
O O4 0.000000 0.369852 0.109496
O O5 0.778210 0.143787 0.250000
O O6 0.746718 0.148807 0.159195
O O7 0.000000 0.146407 0.194549
O O8 0.833881 0.000390 0.200075
O O9 0.500000 0.894152 0.867794
O O10 0.305920 0.839332 0.927751
O O11 0.293257 0.354442 0.250000
O O12 0.500000 0.357188 0.187892
O O13 0.750000 0.750000 0.500000
O O14 0.000000 0.778380 0.459778
#
# Coordination Sequence:
#
# PCOD8259473 Si02
#       5
#    16  16  16  16  16
#     4  10  20  36  58  84 112 143 180 223 270 320
#     4   8  14  26  48  79 112 144 179 219 261 308
#     4   9  20  37  57  81 111 145 179 219 269 323
#     4   8  14  27  49  78 112 148 182 217 261 313
#     4  11  24  42  60  80 107 140 180 227 279 331
#
# _framework density 20.104557
#
# number of rings (size 3 to 8) (size 9 to 14) (size 15 to 20)
#    0.000    2.800    0.000    2.400    0.000    4.000 
#    0.000    9.000    0.000    1.200    0.000    0.000 
#    0.000    0.000    0.000    0.000    0.000    0.000 
#
# Total GULP energy -495836.478432 kJ/mol
# GULP energy per Si atom -12395.911961 kJ/mol
# Density = 2.005880 g / cm^3
# Si number density = 20.104557 Si / 1000 Ang^3
#
#
#
# Elastic Constant Matrix: (Units=GPa)
#
#
# Indices 1 2 3 4 5 6 
#
# 1 127.5551 46.7860 98.8654 0.0000 0.0000 0.0000
# 2 46.7860 58.3997 47.1414 0.0000 0.0000 0.0000
# 3 98.8654 47.1414 183.8667 0.0000 0.0000 0.0000
# 4 0.0000 0.0000 0.0000-1253.8477 0.0000 0.0000
# 5 0.0000 0.0000 0.0000 0.0000 44.6086 0.0000
# 6 0.0000 0.0000 0.0000 0.0000 0.0000 24.1527
#
#
#
# Elastic Compliance Matrix: (Units=1/GPa)
#
#
# Indices 1 2 3 4 5 6 
#
# 1 0.015511 -0.007180 -0.006499 0.000000 0.000000 0.000000
# 2 -0.007180 0.024916 -0.002527 0.000000 0.000000 0.000000
# 3 -0.006499 -0.002527 0.009581 0.000000 0.000000 0.000000
# 4 0.000000 0.000000 0.000000 -0.000798 0.000000 0.000000
# 5 0.000000 0.000000 0.000000 0.000000 0.022417 0.000000
# 6 0.000000 0.000000 0.000000 0.000000 0.000000 0.041403
#
#
# Mechanical properties :
#
#
# Convention : Reuss Voigt Hill
#
# Bulk Modulus (GPa) = 56.83579 83.93411 70.38495
# Shear Modulus (GPa) = 33.04500 -225.21536 -96.08518
#
# Velocity S-wave (km/s) = 4.05860 -10.59553 -6.92073
# Velocity P-wave (km/s) = 7.09186 10.38497 5.36438
#
# Compressibility (1/GPa) = 0.01759455
#
# Stress axis : x y z
#
# Youngs Moduli (GPa) = 64.47145 40.13547 104.36845
#
# Poissons Ratio (x) = 0.28817 0.67832
# Poissons Ratio (y) = 0.46289 0.26379
# Poissons Ratio (z) = 0.41902 0.10144
#
# Static dielectric constant tensor:
#      x y z
#    x 3.776050 0.000000 0.000000 
#    y 0.000000 3.560470 0.000000 
#    z 0.000000 0.000000 3.913010 
# 
# 
# High freq. dielectric constant tensor:
#      x y z
#    x 1.784840 0.000000 0.000000 
#    y 0.000000 1.770230 0.000000 
#    z 0.000000 0.000000 1.788510 
# 
# From -- ./inp_files/66559.got.cif
#   From: 2010.03.12/outbox.cif.g09.slc.cpg/sg63_34_cif.got.tgz:66559.got - 2010.04.10 19:34:48.
