data_PCOD8259421
_publ_section_title
;
Structure prediction by ZEFSAII (Michael W. Deem and Ramdas Pophale) SiO2 
 PCOD8259421
Probable space group: C M C M
;
_chemical_formula_sum "Si O2"
_cell_formula_units_Z 112
_cell_length_a 15.230519
_cell_length_b 23.650789
_cell_length_c 14.792990
_cell_angle_alpha 90.000000
_cell_angle_beta 90.000000
_cell_angle_gamma 90.000000
_cell_volume 5328.639012
_symmetry_space_group_name_H-M "C M C M"
_symmetry_group_IT_number 63
_symmetry_cell_setting 'orthorhombic'
loop_
_space_group_symop_operation_xyz
x,y,z
-x,-y,1/2+z
x,-y,-z
-x,y,1/2-z
-x,-y,-z
x,y,1/2-z
-x,y,z
x,-y,1/2+z
1/2+x,1/2+y,z
1/2-x,1/2-y,1/2+z
1/2+x,1/2-y,-z
1/2-x,1/2+y,1/2-z
1/2-x,1/2-y,-z
1/2+x,1/2+y,1/2-z
1/2-x,1/2+y,z
1/2+x,1/2-y,1/2+z
loop_
_atom_site_type_symbol
_atom_site_label
_atom_site_fract_x
_atom_site_fract_y
_atom_site_fract_z
Si Si1 0.902024 0.682069 0.852276
Si Si2 0.722937 0.965225 0.853289
Si Si3 0.903816 0.050656 0.429855
Si Si4 0.602349 0.135528 0.356364
Si Si5 0.096654 0.137801 0.920843
Si Si6 0.771349 0.588654 0.853586
Si Si7 0.850916 0.741504 0.020618
O O1 0.874055 0.701053 0.750000
O O2 0.837252 0.634875 0.895281
O O3 0.000000 0.657025 0.849705
O O4 0.898113 0.733691 0.923061
O O5 0.695904 0.971191 0.750000
O O6 0.825536 0.948112 0.857771
O O7 0.658751 0.917766 0.895325
O O8 0.712926 0.027333 0.900851
O O9 0.898841 0.110566 0.480201
O O10 0.000000 0.043964 0.382889
O O11 0.889215 0.000000 0.500000
O O12 0.621316 0.145967 0.250000
O O13 0.500000 0.122838 0.373581
O O14 0.632811 0.189898 0.411643
O O15 0.170705 0.108841 0.859449
O O16 0.110016 0.204493 0.929157
O O17 0.000000 0.126713 0.877464
O O18 0.797024 0.582634 0.750000
O O19 0.750000 0.750000 0.000000
#
# Coordination Sequence:
#
# PCOD8259421 Si02
#       7
#    16  16  16  16  16  16  16
#     4  10  22  41  62  87 122 160 202 255 310 366
#     4  10  21  37  60  87 118 159 205 253 308 368
#     4  10  20  36  57  82 115 154 197 250 311 365
#     4  10  23  42  63  93 132 169 210 260 314 377
#     4  11  22  37  58  87 119 156 201 251 308 370
#     4  10  21  37  58  87 118 155 203 253 308 362
#     4  12  23  40  66  90 124 168 205 256 310 375
#
# _framework density 21.018498999999998
#
# number of rings (size 3 to 8) (size 9 to 14) (size 15 to 20)
#    0.000    1.571    2.857    2.143    0.000    2.286 
#    0.000    5.000    0.000    3.000    0.000    0.000 
#    0.000    0.000    0.000    0.000    0.000    0.000 
#
# Total GULP energy -694105.033318 kJ/mol
# GULP energy per Si atom -12394.732738 kJ/mol
# Density = 2.097066 g / cm^3
# Si number density = 21.018499 Si / 1000 Ang^3
#
#
#
# Elastic Constant Matrix: (Units=GPa)
#
#
# Indices 1 2 3 4 5 6 
#
# 1 138.2604 44.5018 17.7769 0.0000 0.0000 0.0000
# 2 44.5018 140.0608 28.7310 0.0000 0.0000 0.0000
# 3 17.7769 28.7310 48.4898 0.0000 0.0000 0.0000
# 4 0.0000 0.0000 0.0000 25.3615 0.0000 0.0000
# 5 0.0000 0.0000 0.0000 0.0000 32.5926 0.0000
# 6 0.0000 0.0000 0.0000 0.0000 0.0000 29.9887
#
#
#
# Elastic Compliance Matrix: (Units=1/GPa)
#
#
# Indices 1 2 3 4 5 6 
#
# 1 0.008172 -0.002256 -0.001659 0.000000 0.000000 0.000000
# 2 -0.002256 0.008751 -0.004358 0.000000 0.000000 0.000000
# 3 -0.001659 -0.004358 0.023813 0.000000 0.000000 0.000000
# 4 0.000000 0.000000 0.000000 0.039430 0.000000 0.000000
# 5 0.000000 0.000000 0.000000 0.000000 0.030682 0.000000
# 6 0.000000 0.000000 0.000000 0.000000 0.000000 0.033346
#
#
# Mechanical properties :
#
#
# Convention : Reuss Voigt Hill
#
# Bulk Modulus (GPa) = 41.33981 56.53673 48.93827
# Shear Modulus (GPa) = 29.62032 33.30863 31.46448
#
# Velocity S-wave (km/s) = 3.75807 3.98518 3.87329
# Velocity P-wave (km/s) = 6.20820 6.93776 6.58310
#
# Compressibility (1/GPa) = 0.02418976
#
# Stress axis : x y z
#
# Youngs Moduli (GPa) = 122.36490 114.27865 41.99359
#
# Poissons Ratio (x) = 0.25784 0.06968
# Poissons Ratio (y) = 0.27608 0.18299
# Poissons Ratio (z) = 0.20303 0.49799
#
# Static dielectric constant tensor:
#      x y z
#    x 4.036700 0.000000 0.000000 
#    y 0.000000 4.169490 0.000000 
#    z 0.000000 0.000000 3.576680 
# 
# 
# High freq. dielectric constant tensor:
#      x y z
#    x 1.838100 0.000000 0.000000 
#    y 0.000000 1.827190 0.000000 
#    z 0.000000 0.000000 1.801260 
# 
# From -- ./inp_files/32336.got.cif
#   From: 2010.03.12/outbox.cif.g09.slc.cpg/sg63_17_cif.got.tgz:32336.got - 2010.04.10 19:34:48.
