data_PCOD8259785
_publ_section_title
;
Structure prediction by ZEFSAII (Michael W. Deem and Ramdas Pophale) SiO2 
 PCOD8259785
Probable space group: C M C M
;
_chemical_formula_sum "Si O2"
_cell_formula_units_Z 64
_cell_length_a 19.108849
_cell_length_b 11.357534
_cell_length_c 13.783025
_cell_angle_alpha 90.000000
_cell_angle_beta 90.000000
_cell_angle_gamma 90.000000
_cell_volume 2991.321677
_symmetry_space_group_name_H-M "C M C M"
_symmetry_group_IT_number 63
_symmetry_cell_setting 'orthorhombic'
loop_
_space_group_symop_operation_xyz
x,y,z
-x,-y,1/2+z
x,-y,-z
-x,y,1/2-z
-x,-y,-z
x,y,1/2-z
-x,y,z
x,-y,1/2+z
1/2+x,1/2+y,z
1/2-x,1/2-y,1/2+z
1/2+x,1/2-y,-z
1/2-x,1/2+y,1/2-z
1/2-x,1/2-y,-z
1/2+x,1/2+y,1/2-z
1/2-x,1/2+y,z
1/2+x,1/2-y,1/2+z
loop_
_atom_site_type_symbol
_atom_site_label
_atom_site_fract_x
_atom_site_fract_y
_atom_site_fract_z
Si Si1 0.000000 0.662374 0.861624
Si Si2 0.624662 0.992282 0.859282
Si Si3 0.641625 0.749231 0.547248
Si Si4 0.217642 0.698101 0.641726
Si Si5 0.000000 0.138797 0.512524
O O1 0.067605 0.588335 0.892703
O O2 0.000000 0.788879 0.912546
O O3 0.000000 0.693367 0.750000
O O4 0.607899 0.946555 0.750000
O O5 0.699150 0.059107 0.862393
O O6 0.624875 0.886651 0.935289
O O7 0.699768 0.708079 0.623786
O O8 0.672225 0.730038 0.438253
O O9 0.571316 0.674929 0.568333
O O10 0.200348 0.747705 0.750000
O O11 0.000000 0.000000 0.500000
#
# Coordination Sequence:
#
# PCOD8259785 Si02
#       5
#     8  16  16  16   8
#     4  10  21  41  67  95 126 164 214 272 329 392
#     4  10  20  38  68 100 127 163 214 268 327 390
#     4  11  23  40  66  94 133 170 217 273 324 384
#     4  10  22  39  62  96 131 169 212 263 328 393
#     4  12  27  43  61  93 129 176 225 264 327 397
#
# _framework density 21.395225
#
# number of rings (size 3 to 8) (size 9 to 14) (size 15 to 20)
#    0.000    1.500    2.500    2.250    0.000    5.000 
#    0.000    4.375    0.000    0.000    0.000    0.000 
#    0.000    0.000    0.000    0.000    0.000    0.000 
#
# Total GULP energy -396737.809155 kJ/mol
# GULP energy per Si atom -12398.056536 kJ/mol
# Density = 2.134653 g / cm^3
# Si number density = 21.395225 Si / 1000 Ang^3
#
#
#
# Elastic Constant Matrix: (Units=GPa)
#
#
# Indices 1 2 3 4 5 6 
#
# 1 146.8978 63.6473 28.3623 0.0000 0.0000 0.0000
# 2 63.6473 136.2241 27.8692 0.0000 0.0000 0.0000
# 3 28.3623 27.8692 108.9654 0.0000 0.0000 0.0000
# 4 0.0000 0.0000 0.0000 28.1113 0.0000 0.0000
# 5 0.0000 0.0000 0.0000 0.0000 31.0482 0.0000
# 6 0.0000 0.0000 0.0000 0.0000 0.0000 26.5312
#
#
#
# Elastic Compliance Matrix: (Units=1/GPa)
#
#
# Indices 1 2 3 4 5 6 
#
# 1 0.008705 -0.003802 -0.001293 0.000000 0.000000 0.000000
# 2 -0.003802 0.009407 -0.001416 0.000000 0.000000 0.000000
# 3 -0.001293 -0.001416 0.009876 0.000000 0.000000 0.000000
# 4 0.000000 0.000000 0.000000 0.035573 0.000000 0.000000
# 5 0.000000 0.000000 0.000000 0.000000 0.032208 0.000000
# 6 0.000000 0.000000 0.000000 0.000000 0.000000 0.037691
#
#
# Mechanical properties :
#
#
# Convention : Reuss Voigt Hill
#
# Bulk Modulus (GPa) = 66.82677 70.20499 68.51588
# Shear Modulus (GPa) = 33.00938 35.28538 34.14738
#
# Velocity S-wave (km/s) = 3.93216 4.06546 3.99937
# Velocity P-wave (km/s) = 7.20542 7.41093 7.30890
#
# Compressibility (1/GPa) = 0.01496406
#
# Stress axis : x y z
#
# Youngs Moduli (GPa) = 114.88101 106.30158 101.25505
#
# Poissons Ratio (x) = 0.40421 0.13094
# Poissons Ratio (y) = 0.43683 0.14340
# Poissons Ratio (z) = 0.14856 0.15055
#
# Static dielectric constant tensor:
#      x y z
#    x 4.283980 0.000000 0.000000 
#    y 0.000000 3.516370 0.000000 
#    z 0.000000 0.000000 3.900480 
# 
# 
# High freq. dielectric constant tensor:
#      x y z
#    x 1.852380 0.000000 0.000000 
#    y 0.000000 1.803950 0.000000 
#    z 0.000000 0.000000 1.849410 
# 
# From -- ./inp_files/33395.got.cif
#   From: 2010.03.12/outbox.cif.g09.slc.cpg/sg63_17_cif.got.tgz:33395.got - 2010.04.10 19:34:48.
