data_PCOD8259513
_publ_section_title
;
Structure prediction by ZEFSAII (Michael W. Deem and Ramdas Pophale) SiO2 
 PCOD8259513
Probable space group: C M C M
;
_chemical_formula_sum "Si O2"
_cell_formula_units_Z 96
_cell_length_a 15.353850
_cell_length_b 14.971058
_cell_length_c 20.621635
_cell_angle_alpha 90.000000
_cell_angle_beta 90.000000
_cell_angle_gamma 90.000000
_cell_volume 4740.158699
_symmetry_space_group_name_H-M "C M C M"
_symmetry_group_IT_number 63
_symmetry_cell_setting 'orthorhombic'
loop_
_space_group_symop_operation_xyz
x,y,z
-x,-y,1/2+z
x,-y,-z
-x,y,1/2-z
-x,-y,-z
x,y,1/2-z
-x,y,z
x,-y,1/2+z
1/2+x,1/2+y,z
1/2-x,1/2-y,1/2+z
1/2+x,1/2-y,-z
1/2-x,1/2+y,1/2-z
1/2-x,1/2-y,-z
1/2+x,1/2+y,1/2-z
1/2-x,1/2+y,z
1/2+x,1/2-y,1/2+z
loop_
_atom_site_type_symbol
_atom_site_label
_atom_site_fract_x
_atom_site_fract_y
_atom_site_fract_z
Si Si1 0.319871 0.435266 0.578950
Si Si2 0.874987 0.466615 0.931885
Si Si3 0.400027 0.119079 0.674816
Si Si4 0.904623 0.284013 0.627554
Si Si5 0.900881 0.109017 0.946216
Si Si6 0.284759 0.286333 0.677165
O O1 0.223034 0.440303 0.552037
O O2 0.349211 0.535901 0.597241
O O3 0.379321 0.397025 0.521877
O O4 0.325728 0.369579 0.639464
O O5 0.884240 0.536473 0.873124
O O6 0.921504 0.376486 0.909373
O O7 0.917152 0.500000 0.000000
O O8 0.382947 0.089803 0.750000
O O9 0.500000 0.152744 0.667429
O O10 0.331255 0.195360 0.652967
O O11 0.878801 0.208665 0.575689
O O12 0.821295 0.285755 0.675217
O O13 0.000000 0.262131 0.660996
O O14 0.000000 0.084810 0.935403
O O15 0.314010 0.302488 0.750000
#
# Coordination Sequence:
#
# PCOD8259513 Si02
#       6
#    16  16  16  16  16  16
#     4  10  20  36  59  86 119 154 195 245 295 355
#     4  11  22  36  60  89 121 157 199 249 301 352
#     4  10  23  42  61  85 121 162 202 246 300 361
#     4  10  23  39  59  88 120 156 201 248 299 358
#     4  10  20  37  60  88 118 157 198 244 309 357
#     4  10  23  40  63  89 118 161 203 243 297 354
#
# _framework density 20.252486000000001
#
# number of rings (size 3 to 8) (size 9 to 14) (size 15 to 20)
#    0.000    1.833    1.667    2.500    2.333    7.000 
#    0.000    0.833    0.000    1.000    0.000    0.000 
#    0.000    0.000    0.000    0.000    0.000    0.000 
#
# Total GULP energy -594813.960589 kJ/mol
# GULP energy per Si atom -12391.957512 kJ/mol
# Density = 2.020639 g / cm^3
# Si number density = 20.252486 Si / 1000 Ang^3
#
#
#
# Elastic Constant Matrix: (Units=GPa)
#
#
# Indices 1 2 3 4 5 6 
#
# 1 64.1693 38.1228 10.4263 0.0000 0.0000 0.0000
# 2 38.1228 159.4863 67.1375 0.0000 0.0000 0.0000
# 3 10.4263 67.1375 86.7643 0.0000 0.0000 0.0000
# 4 0.0000 0.0000 0.0000 35.4640 0.0000 0.0000
# 5 0.0000 0.0000 0.0000 0.0000 18.4448 0.0000
# 6 0.0000 0.0000 0.0000 0.0000 0.0000 41.0507
#
#
#
# Elastic Compliance Matrix: (Units=1/GPa)
#
#
# Indices 1 2 3 4 5 6 
#
# 1 0.018343 -0.005127 0.001763 0.000000 0.000000 0.000000
# 2 -0.005127 0.010732 -0.007688 0.000000 0.000000 0.000000
# 3 0.001763 -0.007688 0.017263 0.000000 0.000000 0.000000
# 4 0.000000 0.000000 0.000000 0.028198 0.000000 0.000000
# 5 0.000000 0.000000 0.000000 0.000000 0.054216 0.000000
# 6 0.000000 0.000000 0.000000 0.000000 0.000000 0.024360
#
#
# Mechanical properties :
#
#
# Convention : Reuss Voigt Hill
#
# Bulk Modulus (GPa) = 41.26530 60.19923 50.73226
# Shear Modulus (GPa) = 27.27857 31.97411 29.62634
#
# Velocity S-wave (km/s) = 3.67403 3.97769 3.82887
# Velocity P-wave (km/s) = 6.19820 7.13337 6.68216
#
# Compressibility (1/GPa) = 0.02423344
#
# Stress axis : x y z
#
# Youngs Moduli (GPa) = 54.51635 93.17867 57.92800
#
# Poissons Ratio (x) = 0.47770 -0.10211
# Poissons Ratio (y) = 0.27949 0.44537
# Poissons Ratio (z) = -0.09610 0.71639
#
# Static dielectric constant tensor:
#      x y z
#    x 3.938810 0.000000 0.000000 
#    y 0.000000 3.876290 0.000000 
#    z 0.000000 0.000000 3.455350 
# 
# 
# High freq. dielectric constant tensor:
#      x y z
#    x 1.812200 0.000000 0.000000 
#    y 0.000000 1.799490 0.000000 
#    z 0.000000 0.000000 1.767040 
# 
# From -- ./inp_files/54169.got.cif
#   From: 2010.03.12/outbox.cif.g09.slc.cpg/sg63_28_cif.got.tgz:54169.got - 2010.04.10 19:34:48.
