data_PCOD8259475
_publ_section_title
;
Structure prediction by ZEFSAII (Michael W. Deem and Ramdas Pophale) SiO2 
 PCOD8259475
Probable space group: C M C M
;
_chemical_formula_sum "Si O2"
_cell_formula_units_Z 80
_cell_length_a 8.410768
_cell_length_b 15.522161
_cell_length_c 29.820142
_cell_angle_alpha 90.000000
_cell_angle_beta 90.000000
_cell_angle_gamma 90.000000
_cell_volume 3893.117796
_symmetry_space_group_name_H-M "C M C M"
_symmetry_group_IT_number 63
_symmetry_cell_setting 'orthorhombic'
loop_
_space_group_symop_operation_xyz
x,y,z
-x,-y,1/2+z
x,-y,-z
-x,y,1/2-z
-x,-y,-z
x,y,1/2-z
-x,y,z
x,-y,1/2+z
1/2+x,1/2+y,z
1/2-x,1/2-y,1/2+z
1/2+x,1/2-y,-z
1/2-x,1/2+y,1/2-z
1/2-x,1/2-y,-z
1/2+x,1/2+y,1/2-z
1/2-x,1/2+y,z
1/2+x,1/2-y,1/2+z
loop_
_atom_site_type_symbol
_atom_site_label
_atom_site_fract_x
_atom_site_fract_y
_atom_site_fract_z
Si Si1 0.811095 0.875728 0.800228
Si Si2 0.182431 0.453234 0.453897
Si Si3 0.812698 0.972449 0.136067
Si Si4 0.813685 0.718657 0.639818
Si Si5 0.679893 0.724410 0.952685
O O1 0.740580 0.876886 0.750000
O O2 0.753897 0.963069 0.824895
O O3 0.749306 0.788919 0.824735
O O4 0.000000 0.873398 0.799394
O O5 0.217680 0.500000 0.500000
O O6 0.221267 0.507075 0.408907
O O7 0.310942 0.378035 0.450741
O O8 0.000000 0.420113 0.452796
O O9 0.000000 0.980726 0.128750
O O10 0.770144 0.873465 0.148366
O O11 0.776428 0.758798 0.590462
O O12 0.000000 0.703437 0.644482
O O13 0.500000 0.757633 0.949349
O O14 0.750000 0.750000 0.000000
#
# Coordination Sequence:
#
# PCOD8259475 Si02
#       5
#    16  16  16  16  16
#     4   9  20  38  60  86 115 151 195 238 290 352
#     4  10  21  36  54  81 114 150 188 234 286 338
#     4  10  20  36  58  84 114 152 192 238 288 343
#     4  10  20  37  59  84 115 153 193 239 291 344
#     4  11  22  36  55  81 114 151 191 234 285 344
#
# _framework density 20.549083
#
# number of rings (size 3 to 8) (size 9 to 14) (size 15 to 20)
#    0.000    2.000    0.000    6.000    2.800    2.400 
#    0.000    3.000    0.000    8.400    0.000    0.000 
#    0.000    0.000    0.000    0.000    0.000    0.000 
#
# Total GULP energy -495716.714041 kJ/mol
# GULP energy per Si atom -12392.917851 kJ/mol
# Density = 2.050231 g / cm^3
# Si number density = 20.549083 Si / 1000 Ang^3
#
#
#
# Elastic Constant Matrix: (Units=GPa)
#
#
# Indices 1 2 3 4 5 6 
#
# 1 57.5237 15.2577 20.8375 0.0000 0.0000 0.0000
# 2 15.2577 101.9137 86.1563 0.0000 0.0000 0.0000
# 3 20.8375 86.1563 204.6229 0.0000 0.0000 0.0000
# 4 0.0000 0.0000 0.0000 39.1991 0.0000 0.0000
# 5 0.0000 0.0000 0.0000 0.0000 19.6918 0.0000
# 6 0.0000 0.0000 0.0000 0.0000 0.0000 25.6810
#
#
#
# Elastic Compliance Matrix: (Units=1/GPa)
#
#
# Indices 1 2 3 4 5 6 
#
# 1 0.018261 -0.001804 -0.001100 0.000000 0.000000 0.000000
# 2 -0.001804 0.015413 -0.006306 0.000000 0.000000 0.000000
# 3 -0.001100 -0.006306 0.007654 0.000000 0.000000 0.000000
# 4 0.000000 0.000000 0.000000 0.025511 0.000000 0.000000
# 5 0.000000 0.000000 0.000000 0.000000 0.050782 0.000000
# 6 0.000000 0.000000 0.000000 0.000000 0.000000 0.038939
#
#
# Mechanical properties :
#
#
# Convention : Reuss Voigt Hill
#
# Bulk Modulus (GPa) = 43.65182 67.61816 55.63499
# Shear Modulus (GPa) = 27.37960 33.03496 30.20728
#
# Velocity S-wave (km/s) = 3.65417 4.01385 3.83823
# Velocity P-wave (km/s) = 6.25242 7.37960 6.83927
#
# Compressibility (1/GPa) = 0.02290855
#
# Stress axis : x y z
#
# Youngs Moduli (GPa) = 54.76115 64.87878 130.64669
#
# Poissons Ratio (x) = 0.11704 0.14372
# Poissons Ratio (y) = 0.09879 0.82387
# Poissons Ratio (z) = 0.06024 0.40913
#
# Static dielectric constant tensor:
#      x y z
#    x 3.761860 0.000000 0.000000 
#    y 0.000000 3.479380 0.000000 
#    z 0.000000 0.000000 3.406070 
# 
# 
# High freq. dielectric constant tensor:
#      x y z
#    x 1.790800 0.000000 0.000000 
#    y 0.000000 1.794400 0.000000 
#    z 0.000000 0.000000 1.814950 
# 
# From -- ./inp_files/66583.got.cif
#   From: 2010.03.12/outbox.cif.g09.slc.cpg/sg63_34_cif.got.tgz:66583.got - 2010.04.10 19:34:48.
