data_PCOD8259777
_publ_section_title
;
Structure prediction by ZEFSAII (Michael W. Deem and Ramdas Pophale) SiO2 
 PCOD8259777
Probable space group: C M C M
;
_chemical_formula_sum "Si O2"
_cell_formula_units_Z 64
_cell_length_a 22.727593
_cell_length_b 9.327772
_cell_length_c 14.140228
_cell_angle_alpha 90.000000
_cell_angle_beta 90.000000
_cell_angle_gamma 90.000000
_cell_volume 2997.697307
_symmetry_space_group_name_H-M "C M C M"
_symmetry_group_IT_number 63
_symmetry_cell_setting 'orthorhombic'
loop_
_space_group_symop_operation_xyz
x,y,z
-x,-y,1/2+z
x,-y,-z
-x,y,1/2-z
-x,-y,-z
x,y,1/2-z
-x,y,z
x,-y,1/2+z
1/2+x,1/2+y,z
1/2-x,1/2-y,1/2+z
1/2+x,1/2-y,-z
1/2-x,1/2+y,1/2-z
1/2-x,1/2-y,-z
1/2+x,1/2+y,1/2-z
1/2-x,1/2+y,z
1/2+x,1/2-y,1/2+z
loop_
_atom_site_type_symbol
_atom_site_label
_atom_site_fract_x
_atom_site_fract_y
_atom_site_fract_z
Si Si1 0.000000 0.227986 0.649117
Si Si2 0.698754 0.307803 0.750000
Si Si3 0.500000 0.424616 0.900911
Si Si4 0.872603 0.138700 0.066155
Si Si5 0.680427 0.968567 0.750000
Si Si6 0.389514 0.126339 0.065471
O O1 0.942850 0.270881 0.591887
O O2 0.000000 0.308643 0.750000
O O3 0.000000 0.057878 0.671579
O O4 0.668725 0.374592 0.657160
O O5 0.765132 0.361746 0.750000
O O6 0.698039 0.135166 0.750000
O O7 0.439481 0.333287 0.893133
O O8 0.500000 0.500000 0.000000
O O9 0.849717 0.272363 0.002271
O O10 0.867626 0.000000 0.000000
O O11 0.643401 0.934814 0.656305
O O12 0.413931 0.000000 0.000000
#
# Coordination Sequence:
#
# PCOD8259777 Si02
#       6
#     8   8   8  16   8  16
#     4  12  23  38  70 107 143 185 224 280 346 418
#     4  12  30  49  68 103 135 180 242 294 353 412
#     4  10  20  38  65 104 137 173 224 264 331 418
#     4  11  24  44  73 103 142 183 225 286 349 419
#     4  12  30  49  70 101 135 182 244 298 349 422
#     4  12  24  46  70 103 145 180 230 287 355 419
#
# _framework density 21.349720000000001
#
# number of rings (size 3 to 8) (size 9 to 14) (size 15 to 20)
#    0.000    0.500    8.750    0.375    5.250    2.000 
#    0.000    1.250    0.000    0.000    0.000    0.000 
#    0.000    0.000    0.000    0.000    0.000    0.000 
#
# Total GULP energy -396595.422764 kJ/mol
# GULP energy per Si atom -12393.606961 kJ/mol
# Density = 2.130113 g / cm^3
# Si number density = 21.349720 Si / 1000 Ang^3
#
#
#
# Elastic Constant Matrix: (Units=GPa)
#
#
# Indices 1 2 3 4 5 6 
#
# 1 84.8578 18.9688 38.1865 0.0000 0.0000 0.0000
# 2 18.9688 117.6883 42.7572 0.0000 0.0000 0.0000
# 3 38.1865 42.7572 147.7680 0.0000 0.0000 0.0000
# 4 0.0000 0.0000 0.0000 36.8515 0.0000 0.0000
# 5 0.0000 0.0000 0.0000 0.0000 37.5605 0.0000
# 6 0.0000 0.0000 0.0000 0.0000 0.0000 31.6746
#
#
#
# Elastic Compliance Matrix: (Units=1/GPa)
#
#
# Indices 1 2 3 4 5 6 
#
# 1 0.013442 -0.001011 -0.003181 0.000000 0.000000 0.000000
# 2 -0.001011 0.009571 -0.002508 0.000000 0.000000 0.000000
# 3 -0.003181 -0.002508 0.008315 0.000000 0.000000 0.000000
# 4 0.000000 0.000000 0.000000 0.027136 0.000000 0.000000
# 5 0.000000 0.000000 0.000000 0.000000 0.026624 0.000000
# 6 0.000000 0.000000 0.000000 0.000000 0.000000 0.031571
#
#
# Mechanical properties :
#
#
# Convention : Reuss Voigt Hill
#
# Bulk Modulus (GPa) = 55.77909 61.12657 58.45283
# Shear Modulus (GPa) = 36.75512 37.91077 37.33295
#
# Velocity S-wave (km/s) = 4.15369 4.21848 4.18621
# Velocity P-wave (km/s) = 7.01336 7.24021 7.12769
#
# Compressibility (1/GPa) = 0.01792787
#
# Stress axis : x y z
#
# Youngs Moduli (GPa) = 74.39410 104.47998 120.26125
#
# Poissons Ratio (x) = 0.10561 0.38258
# Poissons Ratio (y) = 0.07520 0.30165
# Poissons Ratio (z) = 0.23666 0.26206
#
# Static dielectric constant tensor:
#      x y z
#    x 3.992460 0.000000 0.000000 
#    y 0.000000 2.480110 0.000000 
#    z 0.000000 0.000000 4.187250 
# 
# 
# High freq. dielectric constant tensor:
#      x y z
#    x 1.817290 0.000000 0.000000 
#    y 0.000000 1.841620 0.000000 
#    z 0.000000 0.000000 1.865300 
# 
# From -- ./inp_files/36268.got.cif
#   From: 2010.03.12/outbox.cif.g09.slc.cpg/sg63_19_cif.got.tgz:36268.got - 2010.04.10 19:34:48.
