data_PCOD8259799
_publ_section_title
;
Structure prediction by ZEFSAII (Michael W. Deem and Ramdas Pophale) SiO2 
 PCOD8259799
Probable space group: C M C M
;
_chemical_formula_sum "Si O2"
_cell_formula_units_Z 80
_cell_length_a 26.851000
_cell_length_b 9.013592
_cell_length_c 16.505398
_cell_angle_alpha 90.000000
_cell_angle_beta 90.000000
_cell_angle_gamma 90.000000
_cell_volume 3994.701765
_symmetry_space_group_name_H-M "C M C M"
_symmetry_group_IT_number 63
_symmetry_cell_setting 'orthorhombic'
loop_
_space_group_symop_operation_xyz
x,y,z
-x,-y,1/2+z
x,-y,-z
-x,y,1/2-z
-x,-y,-z
x,y,1/2-z
-x,y,z
x,-y,1/2+z
1/2+x,1/2+y,z
1/2-x,1/2-y,1/2+z
1/2+x,1/2-y,-z
1/2-x,1/2+y,1/2-z
1/2-x,1/2-y,-z
1/2+x,1/2+y,1/2-z
1/2-x,1/2+y,z
1/2+x,1/2-y,1/2+z
loop_
_atom_site_type_symbol
_atom_site_label
_atom_site_fract_x
_atom_site_fract_y
_atom_site_fract_z
Si Si1 0.601347 0.161524 0.003873
Si Si2 0.781546 0.704800 0.840077
Si Si3 0.444138 0.423641 0.086566
Si Si4 0.790619 0.411363 0.929114
Si Si5 0.887062 0.823794 0.840332
O O1 0.591985 0.224184 0.913344
O O2 0.573996 0.255389 0.073597
O O3 0.659177 0.150776 0.029355
O O4 0.576488 0.000000 0.000000
O O5 0.759200 0.700778 0.750000
O O6 0.799500 0.536551 0.860080
O O7 0.739179 0.768249 0.899029
O O8 0.827290 0.820057 0.844971
O O9 0.500000 0.425293 0.122536
O O10 0.407036 0.508248 0.147928
O O11 0.442097 0.500000 0.000000
O O12 0.760821 0.500000 0.000000
O O13 0.903778 0.768230 0.750000
#
# Coordination Sequence:
#
# PCOD8259799 Si02
#       5
#    16  16  16  16  16
#     4  10  20  39  61  88 120 159 201 250 306 361
#     4  11  23  38  56  84 118 158 205 249 304 358
#     4   9  20  38  63  89 115 153 201 246 296 363
#     4  11  22  37  57  83 117 161 200 248 295 361
#     4  10  21  38  59  85 121 158 200 251 306 363
#
# _framework density 20.026526
#
# number of rings (size 3 to 8) (size 9 to 14) (size 15 to 20)
#    0.000    1.800    4.000    1.200    2.800    1.600 
#    0.000    2.000    0.000    0.000    0.000    0.000 
#    0.000    0.000    0.000    0.000    0.000    0.000 
#
# Total GULP energy -495650.745405 kJ/mol
# GULP energy per Si atom -12391.268635 kJ/mol
# Density = 1.998094 g / cm^3
# Si number density = 20.026526 Si / 1000 Ang^3
#
#
#
# Elastic Constant Matrix: (Units=GPa)
#
#
# Indices 1 2 3 4 5 6 
#
# 1 57.7121 35.8497 21.5094 0.0000 0.0000 0.0000
# 2 35.8497 119.7860 34.9378 0.0000 0.0000 0.0000
# 3 21.5094 34.9378 106.1547 0.0000 0.0000 0.0000
# 4 0.0000 0.0000 0.0000 29.5760 0.0000 0.0000
# 5 0.0000 0.0000 0.0000 0.0000 11.6385 0.0000
# 6 0.0000 0.0000 0.0000 0.0000 0.0000 26.0097
#
#
#
# Elastic Compliance Matrix: (Units=1/GPa)
#
#
# Indices 1 2 3 4 5 6 
#
# 1 0.021877 -0.005812 -0.002520 0.000000 0.000000 0.000000
# 2 -0.005812 0.010779 -0.002370 0.000000 0.000000 0.000000
# 3 -0.002520 -0.002370 0.010711 0.000000 0.000000 0.000000
# 4 0.000000 0.000000 0.000000 0.033811 0.000000 0.000000
# 5 0.000000 0.000000 0.000000 0.000000 0.085922 0.000000
# 6 0.000000 0.000000 0.000000 0.000000 0.000000 0.038447
#
#
# Mechanical properties :
#
#
# Convention : Reuss Voigt Hill
#
# Bulk Modulus (GPa) = 45.53189 52.02740 48.77965
# Shear Modulus (GPa) = 21.71345 26.20191 23.95768
#
# Velocity S-wave (km/s) = 3.29634 3.62105 3.46251
# Velocity P-wave (km/s) = 6.10516 6.59684 6.35576
#
# Compressibility (1/GPa) = 0.02196263
#
# Stress axis : x y z
#
# Youngs Moduli (GPa) = 45.70982 92.77299 93.36412
#
# Poissons Ratio (x) = 0.53924 0.23526
# Poissons Ratio (y) = 0.26569 0.22126
# Poissons Ratio (z) = 0.11518 0.21986
#
# Static dielectric constant tensor:
#      x y z
#    x 3.433080 0.000000 0.000000 
#    y 0.000000 3.845160 0.000000 
#    z 0.000000 0.000000 3.785270 
# 
# 
# High freq. dielectric constant tensor:
#      x y z
#    x 1.753020 0.000000 0.000000 
#    y 0.000000 1.780870 0.000000 
#    z 0.000000 0.000000 1.783250 
# 
# From -- ./inp_files/48730.got.cif
#   From: 2010.03.12/outbox.cif.g09.slc.cpg/sg63_25_cif.got.tgz:48730.got - 2010.04.10 19:34:48.
