data_PCOD8259521
_publ_section_title
;
Structure prediction by ZEFSAII (Michael W. Deem and Ramdas Pophale) SiO2 
 PCOD8259521
Probable space group: C M C M
;
_chemical_formula_sum "Si O2"
_cell_formula_units_Z 64
_cell_length_a 8.412820
_cell_length_b 17.885958
_cell_length_c 20.783795
_cell_angle_alpha 90.000000
_cell_angle_beta 90.000000
_cell_angle_gamma 90.000000
_cell_volume 3127.365592
_symmetry_space_group_name_H-M "C M C M"
_symmetry_group_IT_number 63
_symmetry_cell_setting 'orthorhombic'
loop_
_space_group_symop_operation_xyz
x,y,z
-x,-y,1/2+z
x,-y,-z
-x,y,1/2-z
-x,-y,-z
x,y,1/2-z
-x,y,z
x,-y,1/2+z
1/2+x,1/2+y,z
1/2-x,1/2-y,1/2+z
1/2+x,1/2-y,-z
1/2-x,1/2+y,1/2-z
1/2-x,1/2-y,-z
1/2+x,1/2+y,1/2-z
1/2-x,1/2+y,z
1/2+x,1/2-y,1/2+z
loop_
_atom_site_type_symbol
_atom_site_label
_atom_site_fract_x
_atom_site_fract_y
_atom_site_fract_z
Si Si1 0.686365 0.835981 0.129577
Si Si2 0.811401 0.583808 0.500680
Si Si3 0.189632 0.670629 0.374646
Si Si4 0.317488 0.578858 0.750000
Si Si5 0.314694 0.915975 0.750000
O O1 0.500000 0.849982 0.139665
O O2 0.722306 0.748965 0.126788
O O3 0.780653 0.872173 0.187893
O O4 0.749258 0.873751 0.064071
O O5 0.740587 0.500000 0.500000
O O6 0.750830 0.627640 0.438069
O O7 0.000000 0.580456 0.499945
O O8 0.253667 0.623089 0.313956
O O9 0.000000 0.681944 0.373929
O O10 0.500000 0.555723 0.750000
O O11 0.216445 0.503674 0.750000
O O12 0.500000 0.902962 0.750000
#
# Coordination Sequence:
#
# PCOD8259521 Si02
#       5
#    16  16  16   8   8
#     4  11  22  37  59  85 115 152 194 237 282 337
#     4   9  18  34  57  84 115 153 194 234 278 332
#     4  10  20  36  59  87 120 155 191 231 279 336
#     4  12  25  40  59  83 113 147 187 240 295 344
#     4  10  21  38  61  85 111 149 191 230 279 340
#
# _framework density 20.464509
#
# number of rings (size 3 to 8) (size 9 to 14) (size 15 to 20)
#    0.000    1.750    0.000    4.875    0.000    6.000 
#    0.000    1.250    0.000    5.250    0.000    0.000 
#    0.000    0.000    0.000    0.000    0.000    0.000 
#
# Total GULP energy -396924.704770 kJ/mol
# GULP energy per Si atom -12403.897024 kJ/mol
# Density = 2.041793 g / cm^3
# Si number density = 20.464509 Si / 1000 Ang^3
#
#
#
# Elastic Constant Matrix: (Units=GPa)
#
#
# Indices 1 2 3 4 5 6 
#
# 1 20.9414 -4.4913 11.7949 0.0000 0.0000 0.0000
# 2 -4.4913 160.2985 79.2372 0.0000 0.0000 0.0000
# 3 11.7949 79.2372 199.4064 0.0000 0.0000 0.0000
# 4 0.0000 0.0000 0.0000 52.9409 0.0000 0.0000
# 5 0.0000 0.0000 0.0000 0.0000 -8.3648 0.0000
# 6 0.0000 0.0000 0.0000 0.0000 0.0000 32.5197
#
#
#
# Elastic Compliance Matrix: (Units=1/GPa)
#
#
# Indices 1 2 3 4 5 6 
#
# 1 0.051047 0.003637 -0.004465 0.000000 0.000000 0.000000
# 2 0.003637 0.008022 -0.003403 0.000000 0.000000 0.000000
# 3 -0.004465 -0.003403 0.006631 0.000000 0.000000 0.000000
# 4 0.000000 0.000000 0.000000 0.018889 0.000000 0.000000
# 5 0.000000 0.000000 0.000000 0.000000 -0.119548 0.000000
# 6 0.000000 0.000000 0.000000 0.000000 0.000000 0.030751
#
#
# Mechanical properties :
#
#
# Convention : Reuss Voigt Hill
#
# Bulk Modulus (GPa) = 17.47039 61.52533 39.49786
# Shear Modulus (GPa) = 214.29050 35.02618 124.65834
#
# Velocity S-wave (km/s) = 10.24405 4.14159 7.81324
# Velocity P-wave (km/s) = 12.18508 7.28011 10.03684
#
# Compressibility (1/GPa) = 0.05723969
#
# Stress axis : x y z
#
# Youngs Moduli (GPa) = 19.58976 124.65108 150.80237
#
# Poissons Ratio (x) = -0.45338 0.67329
# Poissons Ratio (y) = -0.07125 0.51318
# Poissons Ratio (z) = 0.08746 0.42418
#
# Static dielectric constant tensor:
#      x y z
#    x 3.322780 0.000000 0.000000 
#    y 0.000000 3.787960 0.000000 
#    z 0.000000 0.000000 5.232070 
# 
# 
# High freq. dielectric constant tensor:
#      x y z
#    x 1.767600 0.000000 0.000000 
#    y 0.000000 1.817620 0.000000 
#    z 0.000000 0.000000 1.822750 
# 
# From -- ./inp_files/50387.got.cif
#   From: 2010.03.12/outbox.cif.g09.slc.cpg/sg63_26_cif.got.tgz:50387.got - 2010.04.10 19:34:48.
