data_PCOD8259798
_publ_section_title
;
Structure prediction by ZEFSAII (Michael W. Deem and Ramdas Pophale) SiO2 
 PCOD8259798
Probable space group: C M C M
;
_chemical_formula_sum "Si O2"
_cell_formula_units_Z 96
_cell_length_a 18.347251
_cell_length_b 9.499842
_cell_length_c 28.079916
_cell_angle_alpha 90.000000
_cell_angle_beta 90.000000
_cell_angle_gamma 90.000000
_cell_volume 4894.216636
_symmetry_space_group_name_H-M "C M C M"
_symmetry_group_IT_number 63
_symmetry_cell_setting 'orthorhombic'
loop_
_space_group_symop_operation_xyz
x,y,z
-x,-y,1/2+z
x,-y,-z
-x,y,1/2-z
-x,-y,-z
x,y,1/2-z
-x,y,z
x,-y,1/2+z
1/2+x,1/2+y,z
1/2-x,1/2-y,1/2+z
1/2+x,1/2-y,-z
1/2-x,1/2+y,1/2-z
1/2-x,1/2-y,-z
1/2+x,1/2+y,1/2-z
1/2-x,1/2+y,z
1/2+x,1/2-y,1/2+z
loop_
_atom_site_type_symbol
_atom_site_label
_atom_site_fract_x
_atom_site_fract_y
_atom_site_fract_z
Si Si1 0.315753 0.523527 0.194094
Si Si2 0.820106 0.381520 0.538168
Si Si3 0.584755 0.026968 0.126328
Si Si4 0.827543 0.301047 0.805218
Si Si5 0.084291 0.795845 0.626977
Si Si6 0.845747 0.136989 0.471275
O O1 0.334070 0.538668 0.250000
O O2 0.240057 0.599019 0.181622
O O3 0.311994 0.359568 0.178194
O O4 0.377215 0.600391 0.163795
O O5 0.828677 0.500000 0.500000
O O6 0.865410 0.416995 0.584277
O O7 0.854183 0.246473 0.513788
O O8 0.735224 0.362489 0.551585
O O9 0.500000 0.038385 0.112460
O O10 0.601475 0.130377 0.170390
O O11 0.606164 0.865802 0.137994
O O12 0.844820 0.302109 0.750000
O O13 0.100321 0.833358 0.572148
O O14 0.000000 0.819557 0.636159
O O15 0.868204 0.000000 0.500000
#
# Coordination Sequence:
#
# PCOD8259798 Si02
#       6
#    16  16  16  16  16  16
#     4  10  22  41  66  92 119 154 197 249 302 355
#     4  10  20  39  61  84 117 156 201 252 300 351
#     4  11  24  39  60  88 122 166 204 243 297 358
#     4  10  22  41  66  93 119 152 198 250 301 357
#     4  11  24  40  58  87 127 165 201 244 299 359
#     4  10  22  37  60  89 116 155 203 255 304 350
#
# _framework density 19.614986999999999
#
# number of rings (size 3 to 8) (size 9 to 14) (size 15 to 20)
#    0.000    1.667    1.667    2.000    2.333    4.667 
#    0.000    3.333    0.000    0.000    0.000    0.000 
#    0.000    0.000    0.000    0.000    0.000    0.000 
#
# Total GULP energy -595207.379562 kJ/mol
# GULP energy per Si atom -12400.153741 kJ/mol
# Density = 1.957034 g / cm^3
# Si number density = 19.614987 Si / 1000 Ang^3
#
#
#
# Elastic Constant Matrix: (Units=GPa)
#
#
# Indices 1 2 3 4 5 6 
#
# 1 69.9411 46.2070 38.8028 0.0000 0.0000 0.0000
# 2 46.2070 159.5160 44.8302 0.0000 0.0000 0.0000
# 3 38.8028 44.8302 66.6121 0.0000 0.0000 0.0000
# 4 0.0000 0.0000 0.0000 47.7582 0.0000 0.0000
# 5 0.0000 0.0000 0.0000 0.0000 29.8061 0.0000
# 6 0.0000 0.0000 0.0000 0.0000 0.0000 21.0173
#
#
#
# Elastic Compliance Matrix: (Units=1/GPa)
#
#
# Indices 1 2 3 4 5 6 
#
# 1 0.022616 -0.003513 -0.010810 0.000000 0.000000 0.000000
# 2 -0.003513 0.008277 -0.003524 0.000000 0.000000 0.000000
# 3 -0.010810 -0.003524 0.023681 0.000000 0.000000 0.000000
# 4 0.000000 0.000000 0.000000 0.020939 0.000000 0.000000
# 5 0.000000 0.000000 0.000000 0.000000 0.033550 0.000000
# 6 0.000000 0.000000 0.000000 0.000000 0.000000 0.047580
#
#
# Mechanical properties :
#
#
# Convention : Reuss Voigt Hill
#
# Bulk Modulus (GPa) = 52.96648 61.74991 57.35819
# Shear Modulus (GPa) = 25.17244 30.79827 27.98535
#
# Velocity S-wave (km/s) = 3.58624 3.96680 3.78131
# Velocity P-wave (km/s) = 6.64905 7.24776 6.95485
#
# Compressibility (1/GPa) = 0.01887987
#
# Stress axis : x y z
#
# Youngs Moduli (GPa) = 44.21652 120.81683 42.22816
#
# Poissons Ratio (x) = 0.42445 0.45648
# Poissons Ratio (y) = 0.15534 0.14881
# Poissons Ratio (z) = 0.47797 0.42575
#
# Static dielectric constant tensor:
#      x y z
#    x 3.431830 0.000000 0.000000 
#    y 0.000000 4.142750 0.000000 
#    z 0.000000 0.000000 3.707180 
# 
# 
# High freq. dielectric constant tensor:
#      x y z
#    x 1.754420 0.000000 0.000000 
#    y 0.000000 1.786410 0.000000 
#    z 0.000000 0.000000 1.769410 
# 
# From -- ./inp_files/70297.got.cif
#   From: 2010.03.12/outbox.cif.g09.slc.cpg/sg63_36_cif.got.tgz:70297.got - 2010.04.10 19:34:48.
