data_PCOD8259947
_publ_section_title
;
Structure prediction by ZEFSAII (Michael W. Deem and Ramdas Pophale) SiO2 
 PCOD8259947
Probable space group: C M C M
;
_chemical_formula_sum "Si O2"
_cell_formula_units_Z 96
_cell_length_a 8.928650
_cell_length_b 23.460106
_cell_length_c 25.060399
_cell_angle_alpha 90.000000
_cell_angle_beta 90.000000
_cell_angle_gamma 90.000000
_cell_volume 5249.328488
_symmetry_space_group_name_H-M "C M C M"
_symmetry_group_IT_number 63
_symmetry_cell_setting 'orthorhombic'
loop_
_space_group_symop_operation_xyz
x,y,z
-x,-y,1/2+z
x,-y,-z
-x,y,1/2-z
-x,-y,-z
x,y,1/2-z
-x,y,z
x,-y,1/2+z
1/2+x,1/2+y,z
1/2-x,1/2-y,1/2+z
1/2+x,1/2-y,-z
1/2-x,1/2+y,1/2-z
1/2-x,1/2-y,-z
1/2+x,1/2+y,1/2-z
1/2-x,1/2+y,z
1/2+x,1/2-y,1/2+z
loop_
_atom_site_type_symbol
_atom_site_label
_atom_site_fract_x
_atom_site_fract_y
_atom_site_fract_z
Si Si1 0.824407 0.386269 0.596009
Si Si2 0.173669 0.696230 0.310918
Si Si3 0.325368 0.622323 0.598226
Si Si4 0.174058 0.997279 0.560060
Si Si5 0.326385 0.813719 0.188056
Si Si6 0.177245 0.688777 0.503436
O O1 0.778425 0.356055 0.651402
O O2 0.749854 0.447984 0.594554
O O3 0.766706 0.348117 0.546837
O O4 0.000000 0.395453 0.592150
O O5 0.205640 0.677871 0.250000
O O6 0.270641 0.750772 0.327591
O O7 0.000000 0.712230 0.319650
O O8 0.500000 0.636406 0.590847
O O9 0.292678 0.555830 0.590363
O O10 0.269622 0.639019 0.657001
O O11 0.229875 0.658662 0.556952
O O12 0.000000 0.982978 0.556488
O O13 0.241256 0.000000 0.500000
O O14 0.297800 0.825645 0.250000
O O15 0.500000 0.818686 0.172718
O O16 0.250000 0.750000 0.500000
O O17 0.000000 0.695589 0.503711
#
# Coordination Sequence:
#
# PCOD8259947 Si02
#       6
#    16  16  16  16  16  16
#     4  10  21  35  54  81 110 143 184 227 275 329
#     4   9  18  35  58  83 113 148 184 224 274 333
#     4  11  22  37  57  80 109 146 188 229 276 333
#     4  10  21  38  57  78 106 145 188 230 277 327
#     4  10  21  37  58  85 114 145 183 228 279 331
#     4  11  22  34  52  81 114 145 181 228 281 335
#
# _framework density 18.288053999999999
#
# number of rings (size 3 to 8) (size 9 to 14) (size 15 to 20)
#    0.000    1.833    1.667    2.500    0.000    5.333 
#    0.000    0.833    0.000    3.000    0.000    0.000 
#    0.000    0.000    0.000    0.000    0.000    0.000 
#
# Total GULP energy -595427.281246 kJ/mol
# GULP energy per Si atom -12404.735026 kJ/mol
# Density = 1.824643 g / cm^3
# Si number density = 18.288054 Si / 1000 Ang^3
#
#
#
# Elastic Constant Matrix: (Units=GPa)
#
#
# Indices 1 2 3 4 5 6 
#
# 1 56.2864 49.8210 33.3239 0.0000 0.0000 0.0000
# 2 49.8210 131.1194 64.6093 0.0000 0.0000 0.0000
# 3 33.3239 64.6093 99.8464 0.0000 0.0000 0.0000
# 4 0.0000 0.0000 0.0000 29.5796 0.0000 0.0000
# 5 0.0000 0.0000 0.0000 0.0000 26.1664 0.0000
# 6 0.0000 0.0000 0.0000 0.0000 0.0000 36.3489
#
#
#
# Elastic Compliance Matrix: (Units=1/GPa)
#
#
# Indices 1 2 3 4 5 6 
#
# 1 0.027606 -0.008734 -0.003562 0.000000 0.000000 0.000000
# 2 -0.008734 0.013960 -0.006118 0.000000 0.000000 0.000000
# 3 -0.003562 -0.006118 0.015163 0.000000 0.000000 0.000000
# 4 0.000000 0.000000 0.000000 0.033807 0.000000 0.000000
# 5 0.000000 0.000000 0.000000 0.000000 0.038217 0.000000
# 6 0.000000 0.000000 0.000000 0.000000 0.000000 0.027511
#
#
# Mechanical properties :
#
#
# Convention : Reuss Voigt Hill
#
# Bulk Modulus (GPa) = 50.24958 64.75119 57.50038
# Shear Modulus (GPa) = 25.03417 27.71884 26.37651
#
# Velocity S-wave (km/s) = 3.70385 3.89740 3.80186
# Velocity P-wave (km/s) = 6.76962 7.46566 7.12614
#
# Compressibility (1/GPa) = 0.01990066
#
# Stress axis : x y z
#
# Youngs Moduli (GPa) = 36.22405 71.63201 65.94905
#
# Poissons Ratio (x) = 0.62566 0.23489
# Poissons Ratio (y) = 0.31639 0.40350
# Poissons Ratio (z) = 0.12902 0.43827
#
# Static dielectric constant tensor:
#      x y z
#    x 3.364980 0.000000 0.000000 
#    y 0.000000 3.233860 0.000000 
#    z 0.000000 0.000000 3.468780 
# 
# 
# High freq. dielectric constant tensor:
#      x y z
#    x 1.712010 0.000000 0.000000 
#    y 0.000000 1.707720 0.000000 
#    z 0.000000 0.000000 1.712060 
# 
# From -- ./inp_files/59839.got.cif
#   From: 2010.03.12/outbox.cif.g09.slc.cpg/sg63_30_cif.got.tgz:59839.got - 2010.04.10 19:34:48.
