data_PCOD8259074
_publ_section_title
;
Structure prediction by ZEFSAII (Michael W. Deem and Ramdas Pophale) SiO2 
 PCOD8259074
Probable space group: C M C M
;
_chemical_formula_sum "Si O2"
_cell_formula_units_Z 72
_cell_length_a 15.251614
_cell_length_b 28.871069
_cell_length_c 8.928592
_cell_angle_alpha 90.000000
_cell_angle_beta 90.000000
_cell_angle_gamma 90.000000
_cell_volume 3931.530488
_symmetry_space_group_name_H-M "C M C M"
_symmetry_group_IT_number 63
_symmetry_cell_setting 'orthorhombic'
loop_
_space_group_symop_operation_xyz
x,y,z
-x,-y,1/2+z
x,-y,-z
-x,y,1/2-z
-x,-y,-z
x,y,1/2-z
-x,y,z
x,-y,1/2+z
1/2+x,1/2+y,z
1/2-x,1/2-y,1/2+z
1/2+x,1/2-y,-z
1/2-x,1/2+y,1/2-z
1/2-x,1/2-y,-z
1/2+x,1/2+y,1/2-z
1/2-x,1/2+y,z
1/2+x,1/2-y,1/2+z
loop_
_atom_site_type_symbol
_atom_site_label
_atom_site_fract_x
_atom_site_fract_y
_atom_site_fract_z
Si Si1 0.898572 0.696618 0.921425
Si Si2 0.190255 0.949778 0.073534
Si Si3 0.743707 0.136938 0.427134
Si Si4 0.903365 0.198656 0.427963
Si Si5 0.500000 0.548101 0.921930
O O1 0.866612 0.691355 0.750000
O O2 0.883443 0.748919 0.979907
O O3 0.000000 0.682908 0.935123
O O4 0.844927 0.662596 0.027845
O O5 0.207250 0.954298 0.250000
O O6 0.092721 0.927734 0.036892
O O7 0.258248 0.913872 0.001458
O O8 0.203192 0.000000 0.000000
O O9 0.748193 0.131501 0.250000
O O10 0.827447 0.165473 0.490883
O O11 0.905093 0.197702 0.250000
O O12 0.000000 0.183050 0.488212
O O13 0.500000 0.535654 0.750000
O O14 0.500000 0.500000 0.000000
#
# Coordination Sequence:
#
# PCOD8259074 Si02
#       5
#    16  16  16  16   8
#     4   9  18  35  56  74  99 138 179 219 263 308
#     4  10  20  35  52  73 103 137 175 215 257 305
#     4  11  21  31  51  80 107 138 174 215 261 309
#     4   8  16  31  50  75 107 141 175 210 253 307
#     4   8  16  30  48  68  94 130 168 206 246 292
#
# _framework density 18.313479000000001
#
# number of rings (size 3 to 8) (size 9 to 14) (size 15 to 20)
#    0.000    2.667    0.000    3.333    1.556    1.333 
#    0.000    1.111    0.000    3.333    0.000    0.000 
#    0.000    0.000    0.000    0.000    0.000    0.000 
#
# Total GULP energy -446143.241053 kJ/mol
# GULP energy per Si atom -12392.867807 kJ/mol
# Density = 1.827180 g / cm^3
# Si number density = 18.313479 Si / 1000 Ang^3
#
#
#
# Elastic Constant Matrix: (Units=GPa)
#
#
# Indices 1 2 3 4 5 6 
#
# 1 72.5369 51.6771 30.1107 0.0000 0.0000 0.0000
# 2 51.6771 102.4027 38.6560 0.0000 0.0000 0.0000
# 3 30.1107 38.6560 61.0210 0.0000 0.0000 0.0000
# 4 0.0000 0.0000 0.0000 23.9723 0.0000 0.0000
# 5 0.0000 0.0000 0.0000 0.0000 26.3687 0.0000
# 6 0.0000 0.0000 0.0000 0.0000 0.0000 24.7854
#
#
#
# Elastic Compliance Matrix: (Units=1/GPa)
#
#
# Indices 1 2 3 4 5 6 
#
# 1 0.022708 -0.009502 -0.005186 0.000000 0.000000 0.000000
# 2 -0.009502 0.016811 -0.005960 0.000000 0.000000 0.000000
# 3 -0.005186 -0.005960 0.022723 0.000000 0.000000 0.000000
# 4 0.000000 0.000000 0.000000 0.041715 0.000000 0.000000
# 5 0.000000 0.000000 0.000000 0.000000 0.037924 0.000000
# 6 0.000000 0.000000 0.000000 0.000000 0.000000 0.040346
#
#
# Mechanical properties :
#
#
# Convention : Reuss Voigt Hill
#
# Bulk Modulus (GPa) = 47.74505 52.98312 50.36408
# Shear Modulus (GPa) = 21.69150 22.72638 22.20894
#
# Velocity S-wave (km/s) = 3.44533 3.52655 3.48618
# Velocity P-wave (km/s) = 6.47724 6.75101 6.61554
#
# Compressibility (1/GPa) = 0.02094458
#
# Stress axis : x y z
#
# Youngs Moduli (GPa) = 44.03675 59.48654 44.00880
#
# Poissons Ratio (x) = 0.56524 0.22823
# Poissons Ratio (y) = 0.41844 0.26231
# Poissons Ratio (z) = 0.22838 0.35457
#
# Static dielectric constant tensor:
#      x y z
#    x 3.386190 0.000000 0.000000 
#    y 0.000000 3.220490 0.000000 
#    z 0.000000 0.000000 3.083430 
# 
# 
# High freq. dielectric constant tensor:
#      x y z
#    x 1.698790 0.000000 0.000000 
#    y 0.000000 1.700820 0.000000 
#    z 0.000000 0.000000 1.696070 
# 
# From -- ./inp_files/4588.got.cif
#   From: 2010.03.12/outbox.cif.g09.slc.cpg/sg63_3_cif.got.tgz:4588.got - 2010.04.10 19:34:48.
