data_PCOD8259530
_publ_section_title
;
Structure prediction by ZEFSAII (Michael W. Deem and Ramdas Pophale) SiO2 
 PCOD8259530
Probable space group: C M C M
;
_chemical_formula_sum "Si O2"
_cell_formula_units_Z 80
_cell_length_a 24.775718
_cell_length_b 9.583302
_cell_length_c 17.959742
_cell_angle_alpha 90.000000
_cell_angle_beta 90.000000
_cell_angle_gamma 90.000000
_cell_volume 4264.238796
_symmetry_space_group_name_H-M "C M C M"
_symmetry_group_IT_number 63
_symmetry_cell_setting 'orthorhombic'
loop_
_space_group_symop_operation_xyz
x,y,z
-x,-y,1/2+z
x,-y,-z
-x,y,1/2-z
-x,-y,-z
x,y,1/2-z
-x,y,z
x,-y,1/2+z
1/2+x,1/2+y,z
1/2-x,1/2-y,1/2+z
1/2+x,1/2-y,-z
1/2-x,1/2+y,1/2-z
1/2-x,1/2-y,-z
1/2+x,1/2+y,1/2-z
1/2-x,1/2+y,z
1/2+x,1/2-y,1/2+z
loop_
_atom_site_type_symbol
_atom_site_label
_atom_site_fract_x
_atom_site_fract_y
_atom_site_fract_z
Si Si1 0.500000 0.046296 0.838088
Si Si2 0.815131 0.372967 0.044848
Si Si3 0.500000 0.271217 0.161103
Si Si4 0.194052 0.112610 0.942893
Si Si5 0.601175 0.772061 0.337342
Si Si6 0.100882 0.949126 0.163139
O O1 0.500000 0.040106 0.750000
O O2 0.447966 0.131891 0.865339
O O3 0.500000 0.887956 0.869998
O O4 0.756513 0.418975 0.076882
O O5 0.847274 0.320305 0.116255
O O6 0.843001 0.500000 0.000000
O O7 0.810079 0.261591 0.979936
O O8 0.500000 0.272481 0.250000
O O9 0.552564 0.353278 0.130783
O O10 0.157620 0.102738 0.869615
O O11 0.170451 0.000000 0.000000
O O12 0.613570 0.793770 0.250000
O O13 0.587814 0.610772 0.354606
O O14 0.106433 0.924770 0.250000
#
# Coordination Sequence:
#
# PCOD8259530 Si02
#       6
#     8  16   8  16  16  16
#     4   9  19  35  55  81 115 146 176 227 286 329
#     4  10  22  37  58  82 112 151 183 225 280 332
#     4   9  19  35  55  83 113 143 180 228 282 327
#     4  10  20  39  58  79 112 148 184 223 278 332
#     4  10  20  37  59  83 111 146 187 228 274 330
#     4  10  20  36  60  84 109 146 190 229 270 329
#
# _framework density 18.760674999999999
#
# number of rings (size 3 to 8) (size 9 to 14) (size 15 to 20)
#    0.000    2.200    2.000    0.600    2.800    3.200 
#    0.000    2.000    0.000    0.000    0.000    0.000 
#    0.000    0.000    0.000    0.000    0.000    0.000 
#
# Total GULP energy -495913.764380 kJ/mol
# GULP energy per Si atom -12397.844109 kJ/mol
# Density = 1.871798 g / cm^3
# Si number density = 18.760675 Si / 1000 Ang^3
#
#
#
# Elastic Constant Matrix: (Units=GPa)
#
#
# Indices 1 2 3 4 5 6 
#
# 1 114.9280 54.5109 46.3698 0.0000 0.0000 0.0000
# 2 54.5109 131.8723 35.0069 0.0000 0.0000 0.0000
# 3 46.3698 35.0069 48.5655 0.0000 0.0000 0.0000
# 4 0.0000 0.0000 0.0000 25.8777 0.0000 0.0000
# 5 0.0000 0.0000 0.0000 0.0000 25.5022 0.0000
# 6 0.0000 0.0000 0.0000 0.0000 0.0000 56.2214
#
#
#
# Elastic Compliance Matrix: (Units=1/GPa)
#
#
# Indices 1 2 3 4 5 6 
#
# 1 0.015041 -0.002974 -0.012217 0.000000 0.000000 0.000000
# 2 -0.002974 0.009966 -0.004344 0.000000 0.000000 0.000000
# 3 -0.012217 -0.004344 0.035387 0.000000 0.000000 0.000000
# 4 0.000000 0.000000 0.000000 0.038643 0.000000 0.000000
# 5 0.000000 0.000000 0.000000 0.000000 0.039212 0.000000
# 6 0.000000 0.000000 0.000000 0.000000 0.000000 0.017787
#
#
# Mechanical properties :
#
#
# Convention : Reuss Voigt Hill
#
# Bulk Modulus (GPa) = 46.89736 63.01566 54.95651
# Shear Modulus (GPa) = 24.72638 32.15213 28.43926
#
# Velocity S-wave (km/s) = 3.63435 4.14430 3.89768
# Velocity P-wave (km/s) = 6.53172 7.52080 7.04364
#
# Compressibility (1/GPa) = 0.02132316
#
# Stress axis : x y z
#
# Youngs Moduli (GPa) = 66.48484 100.34543 28.25935
#
# Poissons Ratio (x) = 0.29845 0.34525
# Poissons Ratio (y) = 0.19774 0.12275
# Poissons Ratio (z) = 0.81226 0.43586
#
# Static dielectric constant tensor:
#      x y z
#    x 3.537280 0.000000 0.000000 
#    y 0.000000 3.756670 0.000000 
#    z 0.000000 0.000000 3.523310 
# 
# 
# High freq. dielectric constant tensor:
#      x y z
#    x 1.728780 0.000000 0.000000 
#    y 0.000000 1.748930 0.000000 
#    z 0.000000 0.000000 1.698980 
# 
# From -- ./inp_files/48874.got.cif
#   From: 2010.03.12/outbox.cif.g09.slc.cpg/sg63_25_cif.got.tgz:48874.got - 2010.04.10 19:34:48.
