data_PCOD8259511
_publ_section_title
;
Structure prediction by ZEFSAII (Michael W. Deem and Ramdas Pophale) SiO2 
 PCOD8259511
Probable space group: C M C M
;
_chemical_formula_sum "Si O2"
_cell_formula_units_Z 96
_cell_length_a 8.840814
_cell_length_b 19.963812
_cell_length_c 28.085238
_cell_angle_alpha 90.000000
_cell_angle_beta 90.000000
_cell_angle_gamma 90.000000
_cell_volume 4956.941957
_symmetry_space_group_name_H-M "C M C M"
_symmetry_group_IT_number 63
_symmetry_cell_setting 'orthorhombic'
loop_
_space_group_symop_operation_xyz
x,y,z
-x,-y,1/2+z
x,-y,-z
-x,y,1/2-z
-x,-y,-z
x,y,1/2-z
-x,y,z
x,-y,1/2+z
1/2+x,1/2+y,z
1/2-x,1/2-y,1/2+z
1/2+x,1/2-y,-z
1/2-x,1/2+y,1/2-z
1/2-x,1/2-y,-z
1/2+x,1/2+y,1/2-z
1/2-x,1/2+y,z
1/2+x,1/2-y,1/2+z
loop_
_atom_site_type_symbol
_atom_site_label
_atom_site_fract_x
_atom_site_fract_y
_atom_site_fract_z
Si Si1 0.677437 0.015478 0.053813
Si Si2 0.823157 0.328363 0.696559
Si Si3 0.825424 0.106373 0.895684
Si Si4 0.678436 0.361036 0.604407
Si Si5 0.679344 0.676723 0.802008
Si Si6 0.825563 0.242647 0.550698
O O1 0.500000 0.027911 0.057869
O O2 0.762697 0.082203 0.069183
O O3 0.723373 0.954848 0.087923
O O4 0.727370 0.000000 0.000000
O O5 0.792298 0.355438 0.750000
O O6 0.732929 0.374166 0.658719
O O7 0.760944 0.252432 0.692107
O O8 0.000000 0.332058 0.684386
O O9 0.760644 0.129018 0.844035
O O10 0.807757 0.166379 0.932985
O O11 0.000000 0.083341 0.892299
O O12 0.500000 0.359806 0.601717
O O13 0.743945 0.289654 0.588696
O O14 0.729348 0.648496 0.750000
O O15 0.500000 0.680641 0.805619
O O16 0.750000 0.250000 0.500000
O O17 0.000000 0.263897 0.547438
#
# Coordination Sequence:
#
# PCOD8259511 Si02
#       6
#    16  16  16  16  16  16
#     4  11  25  43  61  80 110 155 203 250 299 352
#     4   9  17  34  61  89 119 156 195 238 291 348
#     4  10  20  36  59  86 115 148 189 237 290 352
#     4  12  24  38  59  87 120 157 198 244 295 353
#     4   8  14  29  56  87 116 148 184 225 282 346
#     4  11  22  37  58  86 118 151 194 245 296 350
#
# _framework density 19.366779999999999
#
# number of rings (size 3 to 8) (size 9 to 14) (size 15 to 20)
#    0.000    1.833    1.667    4.500    0.000    5.667 
#    0.000    0.833    0.000    3.500    0.000    0.000 
#    0.000    0.000    0.000    0.000    0.000    0.000 
#
# Total GULP energy -595244.879833 kJ/mol
# GULP energy per Si atom -12400.934997 kJ/mol
# Density = 1.932270 g / cm^3
# Si number density = 19.366780 Si / 1000 Ang^3
#
#
#
# Elastic Constant Matrix: (Units=GPa)
#
#
# Indices 1 2 3 4 5 6 
#
# 1 87.1729 21.9870 32.9010 0.0000 0.0000 0.0000
# 2 21.9870 48.0140 11.1165 0.0000 0.0000 0.0000
# 3 32.9010 11.1165 120.4463 0.0000 0.0000 0.0000
# 4 0.0000 0.0000 0.0000 33.3853 0.0000 0.0000
# 5 0.0000 0.0000 0.0000 0.0000 27.8166 0.0000
# 6 0.0000 0.0000 0.0000 0.0000 0.0000 30.0679
#
#
#
# Elastic Compliance Matrix: (Units=1/GPa)
#
#
# Indices 1 2 3 4 5 6 
#
# 1 0.014176 -0.005717 -0.003345 0.000000 0.000000 0.000000
# 2 -0.005717 0.023588 -0.000615 0.000000 0.000000 0.000000
# 3 -0.003345 -0.000615 0.009273 0.000000 0.000000 0.000000
# 4 0.000000 0.000000 0.000000 0.029953 0.000000 0.000000
# 5 0.000000 0.000000 0.000000 0.000000 0.035950 0.000000
# 6 0.000000 0.000000 0.000000 0.000000 0.000000 0.033258
#
#
# Mechanical properties :
#
#
# Convention : Reuss Voigt Hill
#
# Bulk Modulus (GPa) = 36.12419 43.07137 39.59778
# Shear Modulus (GPa) = 28.60755 30.89587 29.75171
#
# Velocity S-wave (km/s) = 3.84753 3.99846 3.92372
# Velocity P-wave (km/s) = 6.19929 6.60341 6.40454
#
# Compressibility (1/GPa) = 0.02768228
#
# Stress axis : x y z
#
# Youngs Moduli (GPa) = 70.54286 42.39486 107.84167
#
# Poissons Ratio (x) = 0.24238 0.36069
# Poissons Ratio (y) = 0.40330 0.06636
# Poissons Ratio (z) = 0.23594 0.02609
#
# Static dielectric constant tensor:
#      x y z
#    x 3.357050 0.000000 0.000000 
#    y 0.000000 3.348090 0.000000 
#    z 0.000000 0.000000 3.969960 
# 
# 
# High freq. dielectric constant tensor:
#      x y z
#    x 1.736970 0.000000 0.000000 
#    y 0.000000 1.733430 0.000000 
#    z 0.000000 0.000000 1.776010 
# 
# From -- ./inp_files/67008.got.cif
#   From: 2010.03.12/outbox.cif.g09.slc.cpg/sg63_34_cif.got.tgz:67008.got - 2010.04.10 19:34:48.
