data_PCOD8259205
_publ_section_title
;
Structure prediction by ZEFSAII (Michael W. Deem and Ramdas Pophale) SiO2 
 PCOD8259205
Probable space group: C M C M
;
_chemical_formula_sum "Si O2"
_cell_formula_units_Z 88
_cell_length_a 18.634283
_cell_length_b 27.474221
_cell_length_c 9.035183
_cell_angle_alpha 90.000000
_cell_angle_beta 90.000000
_cell_angle_gamma 90.000000
_cell_volume 4625.674057
_symmetry_space_group_name_H-M "C M C M"
_symmetry_group_IT_number 63
_symmetry_cell_setting 'orthorhombic'
loop_
_space_group_symop_operation_xyz
x,y,z
-x,-y,1/2+z
x,-y,-z
-x,y,1/2-z
-x,-y,-z
x,y,1/2-z
-x,y,z
x,-y,1/2+z
1/2+x,1/2+y,z
1/2-x,1/2-y,1/2+z
1/2+x,1/2-y,-z
1/2-x,1/2+y,1/2-z
1/2-x,1/2-y,-z
1/2+x,1/2+y,1/2-z
1/2-x,1/2+y,z
1/2+x,1/2-y,1/2+z
loop_
_atom_site_type_symbol
_atom_site_label
_atom_site_fract_x
_atom_site_fract_y
_atom_site_fract_z
Si Si1 0.870025 0.092430 0.582334
Si Si2 0.324164 0.683872 0.081551
Si Si3 0.169646 0.647171 0.419275
Si Si4 0.581813 0.776806 0.420812
Si Si5 0.000000 0.050391 0.421245
Si Si6 0.717439 0.050231 0.921471
O O1 0.899117 0.089922 0.750000
O O2 0.850666 0.147310 0.543623
O O3 0.802899 0.056516 0.561657
O O4 0.929735 0.079270 0.464718
O O5 0.345691 0.668481 0.250000
O O6 0.237886 0.683667 0.067088
O O7 0.361237 0.734663 0.040403
O O8 0.154195 0.633807 0.250000
O O9 0.101591 0.675509 0.485348
O O10 0.178740 0.596254 0.504406
O O11 0.588529 0.791147 0.250000
O O12 0.500000 0.760648 0.458905
O O13 0.000000 0.040437 0.250000
O O14 0.000000 0.000000 0.500000
O O15 0.694815 0.047929 0.750000
O O16 0.694184 0.000000 0.000000
#
# Coordination Sequence:
#
# PCOD8259205 Si02
#       6
#    16  16  16  16   8  16
#     4  10  21  35  52  77 107 140 182 229 274 324
#     4   9  19  35  55  80 109 146 187 227 274 326
#     4  10  20  35  56  82 112 145 185 229 274 327
#     4  10  21  36  55  80 112 148 187 228 277 332
#     4  12  24  36  50  68 100 144 186 230 279 328
#     4  10  20  35  57  82 109 139 177 225 275 328
#
# _framework density 19.024253999999999
#
# number of rings (size 3 to 8) (size 9 to 14) (size 15 to 20)
#    0.000    2.000    0.000    3.545    1.273    5.455 
#    0.000    0.000    0.000    0.545    0.000    0.000 
#    0.000    0.000    0.000    0.000    0.000    0.000 
#
# Total GULP energy -545546.154160 kJ/mol
# GULP energy per Si atom -12398.776231 kJ/mol
# Density = 1.898095 g / cm^3
# Si number density = 19.024254 Si / 1000 Ang^3
#
#
#
# Elastic Constant Matrix: (Units=GPa)
#
#
# Indices 1 2 3 4 5 6 
#
# 1 50.3202 36.1488 29.6876 0.0000 0.0000 0.0000
# 2 36.1488 106.3709 53.2665 0.0000 0.0000 0.0000
# 3 29.6876 53.2665 119.3217 0.0000 0.0000 0.0000
# 4 0.0000 0.0000 0.0000 36.0431 0.0000 0.0000
# 5 0.0000 0.0000 0.0000 0.0000 26.5184 0.0000
# 6 0.0000 0.0000 0.0000 0.0000 0.0000 16.0351
#
#
#
# Elastic Compliance Matrix: (Units=1/GPa)
#
#
# Indices 1 2 3 4 5 6 
#
# 1 0.027332 -0.007577 -0.003418 0.000000 0.000000 0.000000
# 2 -0.007577 0.014208 -0.004457 0.000000 0.000000 0.000000
# 3 -0.003418 -0.004457 0.011221 0.000000 0.000000 0.000000
# 4 0.000000 0.000000 0.000000 0.027745 0.000000 0.000000
# 5 0.000000 0.000000 0.000000 0.000000 0.037710 0.000000
# 6 0.000000 0.000000 0.000000 0.000000 0.000000 0.062363
#
#
# Mechanical properties :
#
#
# Convention : Reuss Voigt Hill
#
# Bulk Modulus (GPa) = 45.75263 57.13538 51.44400
# Shear Modulus (GPa) = 22.85514 26.17998 24.51756
#
# Velocity S-wave (km/s) = 3.46984 3.71366 3.59381
# Velocity P-wave (km/s) = 6.33679 6.96322 6.65738
#
# Compressibility (1/GPa) = 0.02185667
#
# Stress axis : x y z
#
# Youngs Moduli (GPa) = 36.58667 70.38212 89.11886
#
# Poissons Ratio (x) = 0.53328 0.30460
# Poissons Ratio (y) = 0.27722 0.39725
# Poissons Ratio (z) = 0.12505 0.31373
#
# Static dielectric constant tensor:
#      x y z
#    x 3.285720 0.000000 0.000000 
#    y 0.000000 4.011560 0.000000 
#    z 0.000000 0.000000 3.525960 
# 
# 
# High freq. dielectric constant tensor:
#      x y z
#    x 1.716800 0.000000 0.000000 
#    y 0.000000 1.736180 0.000000 
#    z 0.000000 0.000000 1.751450 
# 
# From -- ./inp_files/8214.got.cif
#   From: 2010.03.12/outbox.cif.g09.slc.cpg/sg63_5_cif.got.tgz:8214.got - 2010.04.10 19:34:48.
