data_PCOD8259695
_publ_section_title
;
Structure prediction by ZEFSAII (Michael W. Deem and Ramdas Pophale) SiO2 
 PCOD8259695
Probable space group: C M C M
;
_chemical_formula_sum "Si O2"
_cell_formula_units_Z 80
_cell_length_a 26.622323
_cell_length_b 16.243529
_cell_length_c 10.087049
_cell_angle_alpha 90.000000
_cell_angle_beta 90.000000
_cell_angle_gamma 90.000000
_cell_volume 4362.048268
_symmetry_space_group_name_H-M "C M C M"
_symmetry_group_IT_number 63
_symmetry_cell_setting 'orthorhombic'
loop_
_space_group_symop_operation_xyz
x,y,z
-x,-y,1/2+z
x,-y,-z
-x,y,1/2-z
-x,-y,-z
x,y,1/2-z
-x,y,z
x,-y,1/2+z
1/2+x,1/2+y,z
1/2-x,1/2-y,1/2+z
1/2+x,1/2-y,-z
1/2-x,1/2+y,1/2-z
1/2-x,1/2-y,-z
1/2+x,1/2+y,1/2-z
1/2-x,1/2+y,z
1/2+x,1/2-y,1/2+z
loop_
_atom_site_type_symbol
_atom_site_label
_atom_site_fract_x
_atom_site_fract_y
_atom_site_fract_z
Si Si1 0.151411 0.890815 0.750000
Si Si2 0.500000 0.320332 0.101818
Si Si3 0.891353 0.633414 0.090753
Si Si4 0.000000 0.372701 0.893623
Si Si5 0.649362 0.426614 0.250000
Si Si6 0.608229 0.678374 0.515175
Si Si7 0.246904 0.990500 0.750000
Si Si8 0.817280 0.500000 0.000000
O O1 0.133368 0.837762 0.625607
O O2 0.212476 0.906271 0.750000
O O3 0.125305 0.981148 0.750000
O O4 0.500000 0.361871 0.250000
O O5 0.500000 0.224267 0.127263
O O6 0.450957 0.344783 0.016806
O O7 0.886542 0.620328 0.250000
O O8 0.946987 0.604465 0.036810
O O9 0.881696 0.728128 0.057071
O O10 0.851928 0.580826 0.006953
O O11 0.000000 0.415827 0.750000
O O12 0.634534 0.380616 0.381580
O O13 0.709822 0.431501 0.250000
O O14 0.282023 0.998654 0.874851
#
# Coordination Sequence:
#
# PCOD8259695 Si02
#       8
#     8   8  16   8   8  16   8   8
#     4  10  24  38  60  87 119 161 201 246 315 360
#     4   9  16  31  59  88 124 157 197 237 300 353
#     4  10  20  37  63  91 124 155 203 237 294 370
#     4   7  14  31  56  87 120 160 178 230 294 354
#     4  10  20  40  66  75 115 169 199 242 301 374
#     4  11  19  39  63  90 119 161 199 244 292 366
#     4  10  24  42  60  80 120 162 184 260 328 338
#     4  12  22  41  62  86 118 153 200 258 300 346
#
# _framework density 18.340008999999998
#
# number of rings (size 3 to 8) (size 9 to 14) (size 15 to 20)
#    0.600    1.400    3.000    3.000    0.000    1.600 
#    0.000    9.000    0.000    1.200    0.000    0.000 
#    0.000    0.000    0.000    0.000    0.000    0.000 
#
# Total GULP energy -495532.623537 kJ/mol
# GULP energy per Si atom -12388.315588 kJ/mol
# Density = 1.829827 g / cm^3
# Si number density = 18.340009 Si / 1000 Ang^3
#
#
#
# Elastic Constant Matrix: (Units=GPa)
#
#
# Indices 1 2 3 4 5 6 
#
# 1 159.6101 43.5077 57.9977 0.0000 0.0000 0.0000
# 2 43.5077 64.9177 18.0641 0.0000 0.0000 0.0000
# 3 57.9977 18.0641 109.7189 0.0000 0.0000 0.0000
# 4 0.0000 0.0000 0.0000 32.2465 0.0000 0.0000
# 5 0.0000 0.0000 0.0000 0.0000 66.5316 0.0000
# 6 0.0000 0.0000 0.0000 0.0000 0.0000 41.9878
#
#
#
# Elastic Compliance Matrix: (Units=1/GPa)
#
#
# Indices 1 2 3 4 5 6 
#
# 1 0.009063 -0.004969 -0.003973 0.000000 0.000000 0.000000
# 2 -0.004969 0.018868 -0.000480 0.000000 0.000000 0.000000
# 3 -0.003973 -0.000480 0.011293 0.000000 0.000000 0.000000
# 4 0.000000 0.000000 0.000000 0.031011 0.000000 0.000000
# 5 0.000000 0.000000 0.000000 0.000000 0.015030 0.000000
# 6 0.000000 0.000000 0.000000 0.000000 0.000000 0.023816
#
#
# Mechanical properties :
#
#
# Convention : Reuss Voigt Hill
#
# Bulk Modulus (GPa) = 49.06451 63.70953 56.38702
# Shear Modulus (GPa) = 37.11432 42.46499 39.78966
#
# Velocity S-wave (km/s) = 4.50341 4.81711 4.66290
# Velocity P-wave (km/s) = 7.33838 8.10881 7.73320
#
# Compressibility (1/GPa) = 0.02038133
#
# Stress axis : x y z
#
# Youngs Moduli (GPa) = 110.33531 53.00073 88.54844
#
# Poissons Ratio (x) = 0.26334 0.35179
# Poissons Ratio (y) = 0.54822 0.04249
# Poissons Ratio (z) = 0.43834 0.02544
#
# Static dielectric constant tensor:
#      x y z
#    x 3.955770 0.000000 0.000000 
#    y 0.000000 3.201610 0.000000 
#    z 0.000000 0.000000 2.974350 
# 
# 
# High freq. dielectric constant tensor:
#      x y z
#    x 1.726400 0.000000 0.000000 
#    y 0.000000 1.693710 0.000000 
#    z 0.000000 0.000000 1.701170 
# 
# From -- ./inp_files/12170.got.cif
#   From: 2010.03.12/outbox.cif.g09.slc.cpg/sg63_7_cif.got.tgz:12170.got - 2010.04.10 19:34:48.
