data_PCOD8259784
_publ_section_title
;
Structure prediction by ZEFSAII (Michael W. Deem and Ramdas Pophale) SiO2 
 PCOD8259784
Probable space group: C M C M
;
_chemical_formula_sum "Si O2"
_cell_formula_units_Z 88
_cell_length_a 12.920253
_cell_length_b 30.370246
_cell_length_c 11.408491
_cell_angle_alpha 90.000000
_cell_angle_beta 90.000000
_cell_angle_gamma 90.000000
_cell_volume 4476.592181
_symmetry_space_group_name_H-M "C M C M"
_symmetry_group_IT_number 63
_symmetry_cell_setting 'orthorhombic'
loop_
_space_group_symop_operation_xyz
x,y,z
-x,-y,1/2+z
x,-y,-z
-x,y,1/2-z
-x,-y,-z
x,y,1/2-z
-x,y,z
x,-y,1/2+z
1/2+x,1/2+y,z
1/2-x,1/2-y,1/2+z
1/2+x,1/2-y,-z
1/2-x,1/2+y,1/2-z
1/2-x,1/2-y,-z
1/2+x,1/2+y,1/2-z
1/2-x,1/2+y,z
1/2+x,1/2-y,1/2+z
loop_
_atom_site_type_symbol
_atom_site_label
_atom_site_fract_x
_atom_site_fract_y
_atom_site_fract_z
Si Si1 0.371632 0.921281 0.250000
Si Si2 0.675687 0.209574 0.997773
Si Si3 0.500000 0.743842 0.616122
Si Si4 0.382905 0.176898 0.750000
Si Si5 0.500000 0.343449 0.960062
Si Si6 0.000000 0.072648 0.618335
Si Si7 0.776226 0.952175 0.045322
Si Si8 0.784541 0.869426 0.617141
O O1 0.500000 0.927596 0.250000
O O2 0.329637 0.870883 0.250000
O O3 0.316147 0.941997 0.363545
O O4 0.592515 0.222927 0.093381
O O5 0.718590 0.162690 0.036019
O O6 0.750000 0.250000 0.000000
O O7 0.640365 0.205913 0.863631
O O8 0.500000 0.726507 0.750000
O O9 0.500000 0.703286 0.525953
O O10 0.500000 0.163284 0.750000
O O11 0.599873 0.349557 0.878887
O O12 0.500000 0.381099 0.055506
O O13 0.894137 0.045559 0.594765
O O14 0.000000 0.087474 0.750000
O O15 0.775809 0.917779 0.938027
O O16 0.747176 0.000000 0.000000
O O17 0.742865 0.871620 0.750000
#
# Coordination Sequence:
#
# PCOD8259784 Si02
#       8
#     8  16   8   8   8   8  16  16
#     4  11  24  45  73  96 125 172 231 277 325 394
#     4  12  25  40  63  92 123 171 216 260 321 381
#     4  12  25  40  59  93 129 168 216 270 318 375
#     4  11  24  46  67  88 127 173 224 271 315 388
#     4  10  22  39  61  95 131 173 210 257 322 384
#     4  10  20  38  67 101 133 170 212 265 323 395
#     4  11  24  43  70 100 132 170 217 270 338 398
#     4  11  24  42  63  95 133 169 210 266 330 387
#
# _framework density 19.657810000000001
#
# number of rings (size 3 to 8) (size 9 to 14) (size 15 to 20)
#    0.000    0.909    5.455    1.364    3.818    0.364 
#    1.636    0.000    0.000    0.000    0.000    0.000 
#    0.000    0.000    0.000    0.000    0.000    0.000 
#
# Total GULP energy -545267.539204 kJ/mol
# GULP energy per Si atom -12392.444073 kJ/mol
# Density = 1.961307 g / cm^3
# Si number density = 19.657810 Si / 1000 Ang^3
#
#
#
# Elastic Constant Matrix: (Units=GPa)
#
#
# Indices 1 2 3 4 5 6 
#
# 1 102.5319 27.7799 24.5625 0.0000 0.0000 0.0000
# 2 27.7799 117.7460 30.5027 0.0000 0.0000 0.0000
# 3 24.5625 30.5027 121.4835 0.0000 0.0000 0.0000
# 4 0.0000 0.0000 0.0000 46.5997 0.0000 0.0000
# 5 0.0000 0.0000 0.0000 0.0000 29.1900 0.0000
# 6 0.0000 0.0000 0.0000 0.0000 0.0000 30.0364
#
#
#
# Elastic Compliance Matrix: (Units=1/GPa)
#
#
# Indices 1 2 3 4 5 6 
#
# 1 0.010716 -0.002104 -0.001638 0.000000 0.000000 0.000000
# 2 -0.002104 0.009497 -0.001959 0.000000 0.000000 0.000000
# 3 -0.001638 -0.001959 0.009055 0.000000 0.000000 0.000000
# 4 0.000000 0.000000 0.000000 0.021459 0.000000 0.000000
# 5 0.000000 0.000000 0.000000 0.000000 0.034258 0.000000
# 6 0.000000 0.000000 0.000000 0.000000 0.000000 0.033293
#
#
# Mechanical properties :
#
#
# Convention : Reuss Voigt Hill
#
# Bulk Modulus (GPa) = 55.97662 56.38351 56.18007
# Shear Modulus (GPa) = 36.86371 38.42632 37.64502
#
# Velocity S-wave (km/s) = 4.33514 4.42606 4.38084
# Velocity P-wave (km/s) = 7.32088 7.40708 7.36410
#
# Compressibility (1/GPa) = 0.01786460
#
# Stress axis : x y z
#
# Youngs Moduli (GPa) = 93.32255 105.29962 110.43952
#
# Poissons Ratio (x) = 0.22152 0.18094
# Poissons Ratio (y) = 0.19632 0.21637
# Poissons Ratio (z) = 0.15289 0.20630
#
# Static dielectric constant tensor:
#      x y z
#    x 3.861530 0.000000 0.000000 
#    y 0.000000 3.413090 0.000000 
#    z 0.000000 0.000000 3.498050 
# 
# 
# High freq. dielectric constant tensor:
#      x y z
#    x 1.770810 0.000000 0.000000 
#    y 0.000000 1.772110 0.000000 
#    z 0.000000 0.000000 1.773460 
# 
# From -- ./inp_files/18061.got.cif
#   From: 2010.03.12/outbox.cif.g09.slc.cpg/sg63_10_cif.got.tgz:18061.got - 2010.04.10 19:34:48.
