data_PCOD8259783
_publ_section_title
;
Structure prediction by ZEFSAII (Michael W. Deem and Ramdas Pophale) SiO2 
 PCOD8259783
Probable space group: C M C M
;
_chemical_formula_sum "Si O2"
_cell_formula_units_Z 72
_cell_length_a 10.584461
_cell_length_b 14.345375
_cell_length_c 22.627462
_cell_angle_alpha 90.000000
_cell_angle_beta 90.000000
_cell_angle_gamma 90.000000
_cell_volume 3435.709983
_symmetry_space_group_name_H-M "C M C M"
_symmetry_group_IT_number 63
_symmetry_cell_setting 'orthorhombic'
loop_
_space_group_symop_operation_xyz
x,y,z
-x,-y,1/2+z
x,-y,-z
-x,y,1/2-z
-x,-y,-z
x,y,1/2-z
-x,y,z
x,-y,1/2+z
1/2+x,1/2+y,z
1/2-x,1/2-y,1/2+z
1/2+x,1/2-y,-z
1/2-x,1/2+y,1/2-z
1/2-x,1/2-y,-z
1/2+x,1/2+y,1/2-z
1/2-x,1/2+y,z
1/2+x,1/2-y,1/2+z
loop_
_atom_site_type_symbol
_atom_site_label
_atom_site_fract_x
_atom_site_fract_y
_atom_site_fract_z
Si Si1 0.750243 0.475881 0.816985
Si Si2 0.749549 0.354642 0.097200
Si Si3 0.641479 0.786290 0.815725
Si Si4 0.500000 0.363022 0.681835
Si Si5 0.500000 0.234912 0.574123
Si Si6 0.500000 0.605777 0.978562
O O1 0.748361 0.515253 0.750000
O O2 0.780049 0.557985 0.861712
O O3 0.857640 0.397528 0.825658
O O4 0.618311 0.427875 0.833063
O O5 0.727847 0.264037 0.137084
O O6 0.876092 0.329037 0.060268
O O7 0.628089 0.375150 0.057386
O O8 0.694245 0.764569 0.750000
O O9 0.500000 0.748271 0.822329
O O10 0.500000 0.330068 0.750000
O O11 0.500000 0.269844 0.642088
O O12 0.500000 0.325872 0.533802
O O13 0.500000 0.500000 0.000000
#
# Coordination Sequence:
#
# PCOD8259783 Si02
#       6
#    16  16  16   8   8   8
#     4  10  21  37  61  99 136 171 209 259 323 395
#     4  12  24  43  70  95 130 174 221 272 333 394
#     4  10  21  38  63  97 137 175 214 260 318 393
#     4  10  20  38  66  95 133 171 212 264 321 393
#     4  12  26  44  66  99 132 158 226 278 342 383
#     4  12  28  50  70  89 122 180 230 286 326 391
#
# _framework density 20.956368000000001
#
# number of rings (size 3 to 8) (size 9 to 14) (size 15 to 20)
#    0.000    1.111    3.333    3.333    1.556    0.889 
#    0.000    0.556    0.000    0.000    0.000    0.000 
#    0.000    0.000    0.000    0.000    0.000    0.000 
#
# Total GULP energy -446379.218850 kJ/mol
# GULP energy per Si atom -12399.422746 kJ/mol
# Density = 2.090867 g / cm^3
# Si number density = 20.956368 Si / 1000 Ang^3
#
#
#
# Elastic Constant Matrix: (Units=GPa)
#
#
# Indices 1 2 3 4 5 6 
#
# 1 135.0253 51.1989 45.3468 0.0000 0.0000 0.0000
# 2 51.1989 102.4861 50.4593 0.0000 0.0000 0.0000
# 3 45.3468 50.4593 85.7879 0.0000 0.0000 0.0000
# 4 0.0000 0.0000 0.0000 58.6891 0.0000 0.0000
# 5 0.0000 0.0000 0.0000 0.0000 22.3536 0.0000
# 6 0.0000 0.0000 0.0000 0.0000 0.0000 26.6761
#
#
#
# Elastic Compliance Matrix: (Units=1/GPa)
#
#
# Indices 1 2 3 4 5 6 
#
# 1 0.009728 -0.003277 -0.003215 0.000000 0.000000 0.000000
# 2 -0.003277 0.014839 -0.006996 0.000000 0.000000 0.000000
# 3 -0.003215 -0.006996 0.017471 0.000000 0.000000 0.000000
# 4 0.000000 0.000000 0.000000 0.017039 0.000000 0.000000
# 5 0.000000 0.000000 0.000000 0.000000 0.044736 0.000000
# 6 0.000000 0.000000 0.000000 0.000000 0.000000 0.037487
#
#
# Mechanical properties :
#
#
# Convention : Reuss Voigt Hill
#
# Bulk Modulus (GPa) = 66.38932 68.58993 67.48963
# Shear Modulus (GPa) = 28.85242 33.29670 31.07456
#
# Velocity S-wave (km/s) = 3.71453 3.99037 3.85492
# Velocity P-wave (km/s) = 7.08135 7.35063 7.21724
#
# Compressibility (1/GPa) = 0.01506266
#
# Stress axis : x y z
#
# Youngs Moduli (GPa) = 102.79299 67.38987 57.23843
#
# Poissons Ratio (x) = 0.22085 0.18400
# Poissons Ratio (y) = 0.33687 0.40043
# Poissons Ratio (z) = 0.33045 0.47145
#
# Static dielectric constant tensor:
#      x y z
#    x 4.038200 0.000000 0.000000 
#    y 0.000000 3.752040 0.000000 
#    z 0.000000 0.000000 3.707020 
# 
# 
# High freq. dielectric constant tensor:
#      x y z
#    x 1.835140 0.000000 0.000000 
#    y 0.000000 1.820600 0.000000 
#    z 0.000000 0.000000 1.808640 
# 
# From -- ./inp_files/68010.got.cif
#   From: 2010.03.12/outbox.cif.g09.slc.cpg/sg63_35_cif.got.tgz:68010.got - 2010.04.10 19:34:48.
