data_PCOD8259585
_publ_section_title
;
Structure prediction by ZEFSAII (Michael W. Deem and Ramdas Pophale) SiO2 
 PCOD8259585
Probable space group: C M C M
;
_chemical_formula_sum "Si O2"
_cell_formula_units_Z 112
_cell_length_a 13.618395
_cell_length_b 14.788074
_cell_length_c 24.965726
_cell_angle_alpha 90.000000
_cell_angle_beta 90.000000
_cell_angle_gamma 90.000000
_cell_volume 5027.843390
_symmetry_space_group_name_H-M "C M C M"
_symmetry_group_IT_number 63
_symmetry_cell_setting 'orthorhombic'
loop_
_space_group_symop_operation_xyz
x,y,z
-x,-y,1/2+z
x,-y,-z
-x,y,1/2-z
-x,-y,-z
x,y,1/2-z
-x,y,z
x,-y,1/2+z
1/2+x,1/2+y,z
1/2-x,1/2-y,1/2+z
1/2+x,1/2-y,-z
1/2-x,1/2+y,1/2-z
1/2-x,1/2-y,-z
1/2+x,1/2+y,1/2-z
1/2-x,1/2+y,z
1/2+x,1/2-y,1/2+z
loop_
_atom_site_type_symbol
_atom_site_label
_atom_site_fract_x
_atom_site_fract_y
_atom_site_fract_z
Si Si1 0.722621 0.399513 0.510568
Si Si2 0.891723 0.162246 0.106847
Si Si3 0.890075 0.822747 0.082973
Si Si4 0.888249 0.614570 0.090970
Si Si5 0.384271 0.196446 0.690751
Si Si6 0.106243 0.977390 0.165368
Si Si7 0.816686 0.500395 0.691088
O O1 0.680044 0.500000 0.500000
O O2 0.666929 0.335504 0.552248
O O3 0.702496 0.345507 0.455693
O O4 0.833162 0.409371 0.534658
O O5 0.839870 0.227858 0.150712
O O6 0.894896 0.058279 0.123185
O O7 0.000000 0.200624 0.095450
O O8 0.881583 0.720353 0.102152
O O9 0.000000 0.839163 0.057264
O O10 0.879106 0.882906 0.135508
O O11 0.838908 0.569524 0.143481
O O12 0.000000 0.580575 0.085015
O O13 0.338739 0.212525 0.750000
O O14 0.500000 0.209809 0.693728
O O15 0.359223 0.095929 0.670701
O O16 0.199932 0.991745 0.202970
O O17 0.000000 0.977444 0.196170
O O18 0.862280 0.474191 0.750000
#
# Coordination Sequence:
#
# PCOD8259585 Si02
#       7
#    16  16  16  16  16  16  16
#     4  12  22  40  66  94 126 169 214 260 317 380
#     4  10  20  36  62  94 125 160 205 265 321 372
#     4  10  22  41  66  93 129 170 212 260 315 384
#     4  11  25  44  63  92 130 168 216 269 315 376
#     4   9  20  39  64  93 121 158 213 269 318 371
#     4  10  21  39  62  94 132 165 204 259 317 374
#     4  11  23  42  69  93 123 171 214 261 320 380
#
# _framework density 22.275953000000001
#
# number of rings (size 3 to 8) (size 9 to 14) (size 15 to 20)
#    0.000    1.571    2.857    1.286    2.000    2.571 
#    2.571    2.143    0.000    2.571    0.000    0.000 
#    0.000    0.000    0.000    0.000    0.000    0.000 
#
# Total GULP energy -693807.697176 kJ/mol
# GULP energy per Si atom -12389.423164 kJ/mol
# Density = 2.222525 g / cm^3
# Si number density = 22.275953 Si / 1000 Ang^3
#
#
#
# Elastic Constant Matrix: (Units=GPa)
#
#
# Indices 1 2 3 4 5 6 
#
# 1 105.4083 18.5956 46.0052 0.0000 0.0000 0.0000
# 2 18.5956 116.3650 46.4244 0.0000 0.0000 0.0000
# 3 46.0052 46.4244 86.6226 0.0000 0.0000 0.0000
# 4 0.0000 0.0000 0.0000 23.3601 0.0000 0.0000
# 5 0.0000 0.0000 0.0000 0.0000 9.4123 0.0000
# 6 0.0000 0.0000 0.0000 0.0000 0.0000 21.2375
#
#
#
# Elastic Compliance Matrix: (Units=1/GPa)
#
#
# Indices 1 2 3 4 5 6 
#
# 1 0.012411 0.000822 -0.007032 0.000000 0.000000 0.000000
# 2 0.000822 0.010985 -0.006324 0.000000 0.000000 0.000000
# 3 -0.007032 -0.006324 0.018668 0.000000 0.000000 0.000000
# 4 0.000000 0.000000 0.000000 0.042808 0.000000 0.000000
# 5 0.000000 0.000000 0.000000 0.000000 0.106243 0.000000
# 6 0.000000 0.000000 0.000000 0.000000 0.000000 0.047086
#
#
# Mechanical properties :
#
#
# Convention : Reuss Voigt Hill
#
# Bulk Modulus (GPa) = 58.83517 58.93848 58.88682
# Shear Modulus (GPa) = 18.59176 23.96004 21.27590
#
# Velocity S-wave (km/s) = 2.89210 3.28319 3.09383
# Velocity P-wave (km/s) = 6.13365 6.39439 6.26538
#
# Compressibility (1/GPa) = 0.01699664
#
# Stress axis : x y z
#
# Youngs Moduli (GPa) = 80.57354 91.03078 53.56643
#
# Poissons Ratio (x) = -0.07484 0.37669
# Poissons Ratio (y) = -0.06624 0.33876
# Poissons Ratio (z) = 0.56660 0.57569
#
# Static dielectric constant tensor:
#      x y z
#    x 4.411810 0.000000 0.000000 
#    y 0.000000 3.964980 0.000000 
#    z 0.000000 0.000000 3.856110 
# 
# 
# High freq. dielectric constant tensor:
#      x y z
#    x 1.878580 0.000000 0.000000 
#    y 0.000000 1.881240 0.000000 
#    z 0.000000 0.000000 1.860560 
# 
# From -- ./inp_files/69430.got.cif
#   From: 2010.03.12/outbox.cif.g09.slc.cpg/sg63_35_cif.got.tgz:69430.got - 2010.04.10 19:34:48.
