data_PCOD8259982
_publ_section_title
;
Structure prediction by ZEFSAII (Michael W. Deem and Ramdas Pophale) SiO2 
 PCOD8259982
Probable space group: C M C M
;
_chemical_formula_sum "Si O2"
_cell_formula_units_Z 80
_cell_length_a 9.813620
_cell_length_b 14.755910
_cell_length_c 28.969549
_cell_angle_alpha 90.000000
_cell_angle_beta 90.000000
_cell_angle_gamma 90.000000
_cell_volume 4195.048336
_symmetry_space_group_name_H-M "C M C M"
_symmetry_group_IT_number 63
_symmetry_cell_setting 'orthorhombic'
loop_
_space_group_symop_operation_xyz
x,y,z
-x,-y,1/2+z
x,-y,-z
-x,y,1/2-z
-x,-y,-z
x,y,1/2-z
-x,y,z
x,-y,1/2+z
1/2+x,1/2+y,z
1/2-x,1/2-y,1/2+z
1/2+x,1/2-y,-z
1/2-x,1/2+y,1/2-z
1/2-x,1/2-y,-z
1/2+x,1/2+y,1/2-z
1/2-x,1/2+y,z
1/2+x,1/2-y,1/2+z
loop_
_atom_site_type_symbol
_atom_site_label
_atom_site_fract_x
_atom_site_fract_y
_atom_site_fract_z
Si Si1 0.839693 0.183504 0.648803
Si Si2 0.151847 0.632807 0.031212
Si Si3 0.338403 0.884604 0.631828
Si Si4 0.349725 0.346682 0.045703
Si Si5 0.842998 0.454445 0.303144
O O1 0.787175 0.287193 0.649959
O O2 0.807328 0.139173 0.598929
O O3 0.751247 0.131862 0.686997
O O4 0.000000 0.176132 0.660620
O O5 0.213849 0.594811 0.079596
O O6 0.147844 0.740695 0.034831
O O7 0.000000 0.595141 0.021931
O O8 0.244994 0.601457 0.988160
O O9 0.500000 0.878779 0.628880
O O10 0.287499 0.961503 0.666695
O O11 0.500000 0.387269 0.037032
O O12 0.828597 0.482255 0.250000
O O13 0.000000 0.431877 0.315520
#
# Coordination Sequence:
#
# PCOD8259982 Si02
#       5
#    16  16  16  16  16
#     4   9  18  34  55  76 100 133 169 202 241 296
#     4   8  13  24  45  70  95 127 165 198 230 280
#     4   8  16  33  54  74  99 133 170 203 241 296
#     4   8  14  25  43  70 101 128 157 196 239 282
#     4  10  21  36  53  74  99 126 162 212 261 298
#
# _framework density 19.070103
#
# number of rings (size 3 to 8) (size 9 to 14) (size 15 to 20)
#    0.000    3.400    0.000    2.400    0.000    2.000 
#    0.000    8.000    0.000    6.000    0.000    0.000 
#    0.000    0.000    0.000    0.000    0.000    0.000 
#
# Total GULP energy -495818.314153 kJ/mol
# GULP energy per Si atom -12395.457854 kJ/mol
# Density = 1.902670 g / cm^3
# Si number density = 19.070103 Si / 1000 Ang^3
#
#
#
# Elastic Constant Matrix: (Units=GPa)
#
#
# Indices 1 2 3 4 5 6 
#
# 1 60.6480 18.3116 35.2234 0.0000 0.0000 0.0000
# 2 18.3116 47.2285 21.7822 0.0000 0.0000 0.0000
# 3 35.2234 21.7822 80.5110 0.0000 0.0000 0.0000
# 4 0.0000 0.0000 0.0000 30.6322 0.0000 0.0000
# 5 0.0000 0.0000 0.0000 0.0000 32.4268 0.0000
# 6 0.0000 0.0000 0.0000 0.0000 0.0000 18.0416
#
#
#
# Elastic Compliance Matrix: (Units=1/GPa)
#
#
# Indices 1 2 3 4 5 6 
#
# 1 0.023056 -0.004898 -0.008762 0.000000 0.000000 0.000000
# 2 -0.004898 0.025233 -0.004684 0.000000 0.000000 0.000000
# 3 -0.008762 -0.004684 0.017521 0.000000 0.000000 0.000000
# 4 0.000000 0.000000 0.000000 0.032645 0.000000 0.000000
# 5 0.000000 0.000000 0.000000 0.000000 0.030839 0.000000
# 6 0.000000 0.000000 0.000000 0.000000 0.000000 0.055427
#
#
# Mechanical properties :
#
#
# Convention : Reuss Voigt Hill
#
# Bulk Modulus (GPa) = 34.33768 37.66910 36.00339
# Shear Modulus (GPa) = 21.63401 23.75815 22.69608
#
# Velocity S-wave (km/s) = 3.37181 3.53346 3.45358
# Velocity P-wave (km/s) = 5.76228 6.03680 5.90114
#
# Compressibility (1/GPa) = 0.02912253
#
# Stress axis : x y z
#
# Youngs Moduli (GPa) = 43.37201 39.63047 57.07392
#
# Poissons Ratio (x) = 0.19413 0.50007
# Poissons Ratio (y) = 0.21246 0.26732
# Poissons Ratio (z) = 0.38002 0.18562
#
# Static dielectric constant tensor:
#      x y z
#    x 3.422710 0.000000 0.000000 
#    y 0.000000 3.245370 0.000000 
#    z 0.000000 0.000000 3.601550 
# 
# 
# High freq. dielectric constant tensor:
#      x y z
#    x 1.715410 0.000000 0.000000 
#    y 0.000000 1.722070 0.000000 
#    z 0.000000 0.000000 1.742620 
# 
# From -- ./inp_files/68086.got.cif
#   From: 2010.03.12/outbox.cif.g09.slc.cpg/sg63_35_cif.got.tgz:68086.got - 2010.04.10 19:34:48.
