data_PCOD8259589
_publ_section_title
;
Structure prediction by ZEFSAII (Michael W. Deem and Ramdas Pophale) SiO2 
 PCOD8259589
Probable space group: C M C M
;
_chemical_formula_sum "Si O2"
_cell_formula_units_Z 72
_cell_length_a 7.474468
_cell_length_b 22.163487
_cell_length_c 24.243412
_cell_angle_alpha 90.000000
_cell_angle_beta 90.000000
_cell_angle_gamma 90.000000
_cell_volume 4016.170283
_symmetry_space_group_name_H-M "C M C M"
_symmetry_group_IT_number 63
_symmetry_cell_setting 'orthorhombic'
loop_
_space_group_symop_operation_xyz
x,y,z
-x,-y,1/2+z
x,-y,-z
-x,y,1/2-z
-x,-y,-z
x,y,1/2-z
-x,y,z
x,-y,1/2+z
1/2+x,1/2+y,z
1/2-x,1/2-y,1/2+z
1/2+x,1/2-y,-z
1/2-x,1/2+y,1/2-z
1/2-x,1/2-y,-z
1/2+x,1/2+y,1/2-z
1/2-x,1/2+y,z
1/2+x,1/2-y,1/2+z
loop_
_atom_site_type_symbol
_atom_site_label
_atom_site_fract_x
_atom_site_fract_y
_atom_site_fract_z
Si Si1 0.500000 0.219082 0.686074
Si Si2 0.704141 0.814588 0.813360
Si Si3 0.206446 0.180762 0.990666
Si Si4 0.000000 0.367862 0.089170
Si Si5 0.795000 0.902550 0.907162
Si Si6 0.000000 0.504505 0.434470
O O1 0.500000 0.200518 0.750000
O O2 0.674219 0.257923 0.669799
O O3 0.500000 0.158112 0.650955
O O4 0.738031 0.832361 0.750000
O O5 0.500000 0.795548 0.824394
O O6 0.757298 0.873272 0.847962
O O7 0.322407 0.154503 0.941263
O O8 0.000000 0.171588 0.975086
O O9 0.250000 0.250000 0.000000
O O10 0.257682 0.146016 0.046494
O O11 0.000000 0.439566 0.093841
O O12 0.677388 0.961972 0.914104
O O13 0.000000 0.922812 0.912137
O O14 0.000000 0.500000 0.500000
#
# Coordination Sequence:
#
# PCOD8259589 Si02
#       6
#     8  16  16   8  16   8
#     4  10  22  40  62  90 121 149 190 245 307 365
#     4  10  20  36  63  94 120 151 191 247 308 354
#     4  11  22  34  56  88 118 150 193 247 301 356
#     4  12  24  40  58  83 118 164 195 234 303 349
#     4  11  22  37  59  86 120 158 203 247 294 349
#     4  12  24  42  58  81 125 168 202 242 282 354
#
# _framework density 17.927526
#
# number of rings (size 3 to 8) (size 9 to 14) (size 15 to 20)
#    0.000    1.111    5.556    1.333    0.000    4.000 
#    0.000    1.111    0.000    0.000    0.000    0.000 
#    0.000    0.000    0.000    0.000    0.000    0.000 
#
# Total GULP energy -446610.051704 kJ/mol
# GULP energy per Si atom -12405.834770 kJ/mol
# Density = 1.788672 g / cm^3
# Si number density = 17.927526 Si / 1000 Ang^3
#
#
#
# Elastic Constant Matrix: (Units=GPa)
#
#
# Indices 1 2 3 4 5 6 
#
# 1 131.6712 65.5010 47.0947 0.0000 0.0000 0.0000
# 2 65.5010 159.7222 66.3155 0.0000 0.0000 0.0000
# 3 47.0947 66.3155 99.8574 0.0000 0.0000 0.0000
# 4 0.0000 0.0000 0.0000 26.4766 0.0000 0.0000
# 5 0.0000 0.0000 0.0000 0.0000 25.3268 0.0000
# 6 0.0000 0.0000 0.0000 0.0000 0.0000 25.0304
#
#
#
# Elastic Compliance Matrix: (Units=1/GPa)
#
#
# Indices 1 2 3 4 5 6 
#
# 1 0.010067 -0.002978 -0.002770 0.000000 0.000000 0.000000
# 2 -0.002978 0.009526 -0.004921 0.000000 0.000000 0.000000
# 3 -0.002770 -0.004921 0.014589 0.000000 0.000000 0.000000
# 4 0.000000 0.000000 0.000000 0.037769 0.000000 0.000000
# 5 0.000000 0.000000 0.000000 0.000000 0.039484 0.000000
# 6 0.000000 0.000000 0.000000 0.000000 0.000000 0.039951
#
#
# Mechanical properties :
#
#
# Convention : Reuss Voigt Hill
#
# Bulk Modulus (GPa) = 77.86725 83.23035 80.54880
# Shear Modulus (GPa) = 28.24767 29.52272 28.88520
#
# Velocity S-wave (km/s) = 3.97376 4.06246 4.01836
# Velocity P-wave (km/s) = 8.03636 8.27838 8.15827
#
# Compressibility (1/GPa) = 0.01284237
#
# Stress axis : x y z
#
# Youngs Moduli (GPa) = 99.33462 104.98060 68.54565
#
# Poissons Ratio (x) = 0.31267 0.18986
# Poissons Ratio (y) = 0.29586 0.33733
# Poissons Ratio (z) = 0.27514 0.51664
#
# Static dielectric constant tensor:
#      x y z
#    x 4.075450 0.000000 0.000000 
#    y 0.000000 3.253000 0.000000 
#    z 0.000000 0.000000 3.348180 
# 
# 
# High freq. dielectric constant tensor:
#      x y z
#    x 1.717360 0.000000 0.000000 
#    y 0.000000 1.677770 0.000000 
#    z 0.000000 0.000000 1.693780 
# 
# From -- ./inp_files/66526.got.cif
#   From: 2010.03.12/outbox.cif.g09.slc.cpg/sg63_34_cif.got.tgz:66526.got - 2010.04.10 19:34:48.
