data_PCOD8259662
_publ_section_title
;
Structure prediction by ZEFSAII (Michael W. Deem and Ramdas Pophale) SiO2 
 PCOD8259662
Probable space group: C M C M
;
_chemical_formula_sum "Si O2"
_cell_formula_units_Z 96
_cell_length_a 17.882555
_cell_length_b 11.080368
_cell_length_c 23.090616
_cell_angle_alpha 90.000000
_cell_angle_beta 90.000000
_cell_angle_gamma 90.000000
_cell_volume 4575.296808
_symmetry_space_group_name_H-M "C M C M"
_symmetry_group_IT_number 63
_symmetry_cell_setting 'orthorhombic'
loop_
_space_group_symop_operation_xyz
x,y,z
-x,-y,1/2+z
x,-y,-z
-x,y,1/2-z
-x,-y,-z
x,y,1/2-z
-x,y,z
x,-y,1/2+z
1/2+x,1/2+y,z
1/2-x,1/2-y,1/2+z
1/2+x,1/2-y,-z
1/2-x,1/2+y,1/2-z
1/2-x,1/2-y,-z
1/2+x,1/2+y,1/2-z
1/2-x,1/2+y,z
1/2+x,1/2-y,1/2+z
loop_
_atom_site_type_symbol
_atom_site_label
_atom_site_fract_x
_atom_site_fract_y
_atom_site_fract_z
Si Si1 0.912182 0.746278 0.529164
Si Si2 0.080748 0.180834 0.595180
Si Si3 0.174676 0.947320 0.906596
Si Si4 0.673244 0.059524 0.606629
Si Si5 0.879171 0.364772 0.685723
Si Si6 0.712590 0.726568 0.186181
O O1 0.902302 0.732762 0.460041
O O2 0.867201 0.869889 0.544075
O O3 0.873868 0.629022 0.557583
O O4 0.000000 0.754693 0.547348
O O5 0.076285 0.260067 0.653051
O O6 0.000000 0.119012 0.586071
O O7 0.140927 0.077952 0.601431
O O8 0.163000 0.873386 0.846921
O O9 0.263143 0.970312 0.920916
O O10 0.715670 0.152047 0.648963
O O11 0.615378 0.985216 0.646635
O O12 0.913614 0.386470 0.750000
O O13 0.794350 0.325679 0.692509
O O14 0.678138 0.750659 0.250000
#
# Coordination Sequence:
#
# PCOD8259662 Si02
#       6
#    16  16  16  16  16  16
#     4  10  23  42  62  85 123 166 197 241 305 366
#     4  11  23  40  59  84 121 161 197 240 304 364
#     4  10  20  37  60  92 116 152 203 252 294 348
#     4  10  20  38  62  92 118 155 203 249 293 353
#     4  10  21  37  57  85 119 154 196 247 299 353
#     4   9  18  35  59  86 118 154 196 247 302 352
#
# _framework density 20.982244999999999
#
# number of rings (size 3 to 8) (size 9 to 14) (size 15 to 20)
#    0.000    2.000    1.667    1.500    0.000    5.000 
#    6.000    1.667    0.000   16.000    0.000    0.000 
#    0.000    0.000    0.000    0.000    0.000    0.000 
#
# Total GULP energy -594971.265087 kJ/mol
# GULP energy per Si atom -12395.234689 kJ/mol
# Density = 2.093449 g / cm^3
# Si number density = 20.982245 Si / 1000 Ang^3
#
#
#
# Elastic Constant Matrix: (Units=GPa)
#
#
# Indices 1 2 3 4 5 6 
#
# 1 74.8943 22.5260 36.3868 0.0000 0.0000 0.0000
# 2 22.5260 73.9371 28.0536 0.0000 0.0000 0.0000
# 3 36.3868 28.0536 108.2882 0.0000 0.0000 0.0000
# 4 0.0000 0.0000 0.0000 22.8850 0.0000 0.0000
# 5 0.0000 0.0000 0.0000 0.0000 -21.7789 0.0000
# 6 0.0000 0.0000 0.0000 0.0000 0.0000 20.6303
#
#
#
# Elastic Compliance Matrix: (Units=1/GPa)
#
#
# Indices 1 2 3 4 5 6 
#
# 1 0.016641 -0.003270 -0.004745 0.000000 0.000000 0.000000
# 2 -0.003270 0.015642 -0.002954 0.000000 0.000000 0.000000
# 3 -0.004745 -0.002954 0.011594 0.000000 0.000000 0.000000
# 4 0.000000 0.000000 0.000000 0.043697 0.000000 0.000000
# 5 0.000000 0.000000 0.000000 0.000000 -0.045916 0.000000
# 6 0.000000 0.000000 0.000000 0.000000 0.000000 0.048472
#
#
# Mechanical properties :
#
#
# Convention : Reuss Voigt Hill
#
# Bulk Modulus (GPa) = 45.57669 47.89471 46.73570
# Shear Modulus (GPa) = 41.88346 15.69082 28.78714
#
# Velocity S-wave (km/s) = 4.47266 2.73759 3.70804
# Velocity P-wave (km/s) = 6.96000 5.73309 6.37613
#
# Compressibility (1/GPa) = 0.02194104
#
# Stress axis : x y z
#
# Youngs Moduli (GPa) = 60.09389 63.93124 86.25140
#
# Poissons Ratio (x) = 0.20903 0.40922
# Poissons Ratio (y) = 0.19648 0.25475
# Poissons Ratio (z) = 0.28512 0.18883
#
# Static dielectric constant tensor:
#      x y z
#    x 3.710060 0.000000 0.000000 
#    y 0.000000 3.747120 0.000000 
#    z 0.000000 0.000000 4.147390 
# 
# 
# High freq. dielectric constant tensor:
#      x y z
#    x 1.806860 0.000000 0.000000 
#    y 0.000000 1.822640 0.000000 
#    z 0.000000 0.000000 1.826170 
# 
# From -- ./inp_files/56538.got.cif
#   From: 2010.03.12/outbox.cif.g09.slc.cpg/sg63_29_cif.got.tgz:56538.got - 2010.04.10 19:34:48.
