data_PCOD8259737
_publ_section_title
;
Structure prediction by ZEFSAII (Michael W. Deem and Ramdas Pophale) SiO2 
 PCOD8259737
Probable space group: C M C M
;
_chemical_formula_sum "Si O2"
_cell_formula_units_Z 96
_cell_length_a 8.653351
_cell_length_b 23.509040
_cell_length_c 23.126359
_cell_angle_alpha 90.000000
_cell_angle_beta 90.000000
_cell_angle_gamma 90.000000
_cell_volume 4704.640881
_symmetry_space_group_name_H-M "C M C M"
_symmetry_group_IT_number 63
_symmetry_cell_setting 'orthorhombic'
loop_
_space_group_symop_operation_xyz
x,y,z
-x,-y,1/2+z
x,-y,-z
-x,y,1/2-z
-x,-y,-z
x,y,1/2-z
-x,y,z
x,-y,1/2+z
1/2+x,1/2+y,z
1/2-x,1/2-y,1/2+z
1/2+x,1/2-y,-z
1/2-x,1/2+y,1/2-z
1/2-x,1/2-y,-z
1/2+x,1/2+y,1/2-z
1/2-x,1/2+y,z
1/2+x,1/2-y,1/2+z
loop_
_atom_site_type_symbol
_atom_site_label
_atom_site_fract_x
_atom_site_fract_y
_atom_site_fract_z
Si Si1 0.316256 0.346519 0.750000
Si Si2 0.317694 0.148630 0.468802
Si Si3 0.822104 0.456657 0.147630
Si Si4 0.169488 0.030676 0.440555
Si Si5 0.681483 0.716210 0.366595
Si Si6 0.180341 0.339660 0.099119
Si Si7 0.320868 0.475095 0.750000
O O1 0.500000 0.345302 0.750000
O O2 0.257288 0.313917 0.807861
O O3 0.247432 0.411048 0.750000
O O4 0.500000 0.137644 0.468436
O O5 0.226990 0.094132 0.447130
O O6 0.275115 0.197209 0.423090
O O7 0.256730 0.165306 0.533137
O O8 0.802037 0.495634 0.091702
O O9 0.751161 0.394143 0.133561
O O10 0.724347 0.487538 0.195914
O O11 0.000000 0.453503 0.166738
O O12 0.000000 0.032148 0.408988
O O13 0.144908 0.000000 0.500000
O O14 0.500000 0.704452 0.375955
O O15 0.715636 0.783768 0.362939
O O16 0.000000 0.351334 0.093503
O O17 0.500000 0.464110 0.750000
#
# Coordination Sequence:
#
# PCOD8259737 Si02
#       7
#     8  16  16  16  16  16   8
#     4   9  20  38  61  81 107 145 194 245 288 338
#     4  11  21  36  57  87 122 156 190 244 303 357
#     4  11  22  39  61  88 120 159 200 248 303 357
#     4  11  22  36  57  86 117 155 198 244 298 361
#     4  10  20  38  61  85 112 154 200 244 293 356
#     4   9  20  36  58  87 120 151 193 244 298 357
#     4  11  23  40  59  87 123 157 200 253 300 356
#
# _framework density 20.405381999999999
#
# number of rings (size 3 to 8) (size 9 to 14) (size 15 to 20)
#    0.000    1.667    1.667    3.250    0.000    2.667 
#    0.000    6.250    0.000    0.000    0.000    0.000 
#    0.000    0.000    0.000    0.000    0.000    0.000 
#
# Total GULP energy -595015.849443 kJ/mol
# GULP energy per Si atom -12396.163530 kJ/mol
# Density = 2.035894 g / cm^3
# Si number density = 20.405382 Si / 1000 Ang^3
#
#
#
# Elastic Constant Matrix: (Units=GPa)
#
#
# Indices 1 2 3 4 5 6 
#
# 1 45.3025 20.9863 16.1439 0.0000 0.0000 0.0000
# 2 20.9863 155.2565 77.8969 0.0000 0.0000 0.0000
# 3 16.1439 77.8969 118.7553 0.0000 0.0000 0.0000
# 4 0.0000 0.0000 0.0000 35.1301 0.0000 0.0000
# 5 0.0000 0.0000 0.0000 0.0000 29.0709 0.0000
# 6 0.0000 0.0000 0.0000 0.0000 0.0000 26.3430
#
#
#
# Elastic Compliance Matrix: (Units=1/GPa)
#
#
# Indices 1 2 3 4 5 6 
#
# 1 0.023770 -0.002373 -0.001675 0.000000 0.000000 0.000000
# 2 -0.002373 0.009837 -0.006130 0.000000 0.000000 0.000000
# 3 -0.001675 -0.006130 0.012669 0.000000 0.000000 0.000000
# 4 0.000000 0.000000 0.000000 0.028466 0.000000 0.000000
# 5 0.000000 0.000000 0.000000 0.000000 0.034399 0.000000
# 6 0.000000 0.000000 0.000000 0.000000 0.000000 0.037961
#
#
# Mechanical properties :
#
#
# Convention : Reuss Voigt Hill
#
# Bulk Modulus (GPa) = 38.57884 61.04094 49.80989
# Shear Modulus (GPa) = 28.39330 31.72794 30.06062
#
# Velocity S-wave (km/s) = 3.73428 3.94748 3.84235
# Velocity P-wave (km/s) = 6.12702 7.12431 6.64440
#
# Compressibility (1/GPa) = 0.02592095
#
# Stress axis : x y z
#
# Youngs Moduli (GPa) = 42.07014 101.65292 78.92979
#
# Poissons Ratio (x) = 0.24118 0.13221
# Poissons Ratio (y) = 0.09982 0.48386
# Poissons Ratio (z) = 0.07047 0.62316
#
# Static dielectric constant tensor:
#      x y z
#    x 3.487420 0.000000 0.000000 
#    y 0.000000 3.743020 0.000000 
#    z 0.000000 0.000000 4.107760 
# 
# 
# High freq. dielectric constant tensor:
#      x y z
#    x 1.771930 0.000000 0.000000 
#    y 0.000000 1.813370 0.000000 
#    z 0.000000 0.000000 1.798310 
# 
# From -- ./inp_files/60005.got.cif
#   From: 2010.03.12/outbox.cif.g09.slc.cpg/sg63_31_cif.got.tgz:60005.got - 2010.04.10 19:34:48.
