data_PCOD8259203
_publ_section_title
;
Structure prediction by ZEFSAII (Michael W. Deem and Ramdas Pophale) SiO2 
 PCOD8259203
Probable space group: C M C M
;
_chemical_formula_sum "Si O2"
_cell_formula_units_Z 96
_cell_length_a 12.675897
_cell_length_b 12.797081
_cell_length_c 31.995893
_cell_angle_alpha 90.000000
_cell_angle_beta 90.000000
_cell_angle_gamma 90.000000
_cell_volume 5190.197166
_symmetry_space_group_name_H-M "C M C M"
_symmetry_group_IT_number 63
_symmetry_cell_setting 'orthorhombic'
loop_
_space_group_symop_operation_xyz
x,y,z
-x,-y,1/2+z
x,-y,-z
-x,y,1/2-z
-x,-y,-z
x,y,1/2-z
-x,y,z
x,-y,1/2+z
1/2+x,1/2+y,z
1/2-x,1/2-y,1/2+z
1/2+x,1/2-y,-z
1/2-x,1/2+y,1/2-z
1/2-x,1/2-y,-z
1/2+x,1/2+y,1/2-z
1/2-x,1/2+y,z
1/2+x,1/2-y,1/2+z
loop_
_atom_site_type_symbol
_atom_site_label
_atom_site_fract_x
_atom_site_fract_y
_atom_site_fract_z
Si Si1 0.624520 0.676080 0.880421
Si Si2 0.120935 0.058873 0.382897
Si Si3 0.618684 0.785700 0.534973
Si Si4 0.823910 0.104525 0.024406
Si Si5 0.253499 0.811128 0.682638
Si Si6 0.624929 0.942831 0.750000
Si Si7 0.375935 0.188688 0.750000
O O1 0.500000 0.675150 0.878343
O O2 0.667835 0.558112 0.881617
O O3 0.661733 0.733826 0.922426
O O4 0.666579 0.732304 0.839375
O O5 0.128946 0.102555 0.429495
O O6 0.187834 0.127862 0.351659
O O7 0.000000 0.061735 0.368083
O O8 0.500000 0.829816 0.539877
O O9 0.696880 0.881246 0.524715
O O10 0.620124 0.701081 0.498203
O O11 0.854077 0.000000 0.000000
O O12 0.322357 0.892279 0.709254
O O13 0.173299 0.742213 0.709427
O O14 0.500000 0.920745 0.750000
O O15 0.649695 0.065786 0.750000
O O16 0.500000 0.209736 0.750000
#
# Coordination Sequence:
#
# PCOD8259203 Si02
#       7
#    16  16  16  16  16   8   8
#     4  10  20  35  56  82 112 143 183 231 276 322
#     4  11  22  35  55  85 114 146 191 232 272 326
#     4  10  21  36  54  79 111 148 189 234 276 319
#     4  11  21  36  57  79 112 154 191 228 276 326
#     4  11  21  38  60  84 113 145 181 227 280 328
#     4  10  22  40  62  86 112 144 184 222 274 348
#     4  10  22  40  60  82 112 146 178 222 278 336
#
# _framework density 18.496407999999999
#
# number of rings (size 3 to 8) (size 9 to 14) (size 15 to 20)
#    0.000    1.500    3.333    2.500    0.000    1.000 
#    0.000    0.000    0.000    9.000    0.000    0.000 
#    0.000    0.000    0.000    0.000    0.000    0.000 
#
# Total GULP energy -595348.926924 kJ/mol
# GULP energy per Si atom -12403.102644 kJ/mol
# Density = 1.845431 g / cm^3
# Si number density = 18.496408 Si / 1000 Ang^3
#
#
#
# Elastic Constant Matrix: (Units=GPa)
#
#
# Indices 1 2 3 4 5 6 
#
# 1 48.6685 33.6564 20.6137 0.0000 0.0000 0.0000
# 2 33.6564 68.8437 40.4751 0.0000 0.0000 0.0000
# 3 20.6137 40.4751 125.8018 0.0000 0.0000 0.0000
# 4 0.0000 0.0000 0.0000 31.2147 0.0000 0.0000
# 5 0.0000 0.0000 0.0000 0.0000 11.1472 0.0000
# 6 0.0000 0.0000 0.0000 0.0000 0.0000 14.2531
#
#
#
# Elastic Compliance Matrix: (Units=1/GPa)
#
#
# Indices 1 2 3 4 5 6 
#
# 1 0.031048 -0.015031 -0.000251 0.000000 0.000000 0.000000
# 2 -0.015031 0.025191 -0.005642 0.000000 0.000000 0.000000
# 3 -0.000251 -0.005642 0.009805 0.000000 0.000000 0.000000
# 4 0.000000 0.000000 0.000000 0.032036 0.000000 0.000000
# 5 0.000000 0.000000 0.000000 0.000000 0.089709 0.000000
# 6 0.000000 0.000000 0.000000 0.000000 0.000000 0.070160
#
#
# Mechanical properties :
#
#
# Convention : Reuss Voigt Hill
#
# Bulk Modulus (GPa) = 41.32936 48.08938 44.70937
# Shear Modulus (GPa) = 16.24091 21.22757 18.73424
#
# Velocity S-wave (km/s) = 2.96642 3.39139 3.18600
# Velocity P-wave (km/s) = 5.84174 6.43359 6.14479
#
# Compressibility (1/GPa) = 0.02419588
#
# Stress axis : x y z
#
# Youngs Moduli (GPa) = 32.20782 39.69644 101.98416
#
# Poissons Ratio (x) = 0.59668 0.02564
# Poissons Ratio (y) = 0.48412 0.57539
# Poissons Ratio (z) = 0.00810 0.22397
#
# Static dielectric constant tensor:
#      x y z
#    x 3.391670 0.000000 0.000000 
#    y 0.000000 3.451340 0.000000 
#    z 0.000000 0.000000 3.619700 
# 
# 
# High freq. dielectric constant tensor:
#      x y z
#    x 1.722520 0.000000 0.000000 
#    y 0.000000 1.718470 0.000000 
#    z 0.000000 0.000000 1.728730 
# 
# From -- ./inp_files/72793.got.cif
#   From: 2010.03.12/outbox.cif.g09.slc.cpg/sg63_37_cif.got.tgz:72793.got - 2010.04.10 19:34:48.
