data_PCOD8259382
_publ_section_title
;
Structure prediction by ZEFSAII (Michael W. Deem and Ramdas Pophale) SiO2 
 PCOD8259382
Probable space group: C M C M
;
_chemical_formula_sum "Si O2"
_cell_formula_units_Z 80
_cell_length_a 25.598243
_cell_length_b 9.589559
_cell_length_c 16.729920
_cell_angle_alpha 90.000000
_cell_angle_beta 90.000000
_cell_angle_gamma 90.000000
_cell_volume 4106.791526
_symmetry_space_group_name_H-M "C M C M"
_symmetry_group_IT_number 63
_symmetry_cell_setting 'orthorhombic'
loop_
_space_group_symop_operation_xyz
x,y,z
-x,-y,1/2+z
x,-y,-z
-x,y,1/2-z
-x,-y,-z
x,y,1/2-z
-x,y,z
x,-y,1/2+z
1/2+x,1/2+y,z
1/2-x,1/2-y,1/2+z
1/2+x,1/2-y,-z
1/2-x,1/2+y,1/2-z
1/2-x,1/2-y,-z
1/2+x,1/2+y,1/2-z
1/2-x,1/2+y,z
1/2+x,1/2-y,1/2+z
loop_
_atom_site_type_symbol
_atom_site_label
_atom_site_fract_x
_atom_site_fract_y
_atom_site_fract_z
Si Si1 0.500000 0.962444 0.845772
Si Si2 0.791855 0.331662 0.157842
Si Si3 0.500000 0.352022 0.345119
Si Si4 0.208772 0.033578 0.091177
Si Si5 0.592327 0.849457 0.343685
Si Si6 0.096237 0.035160 0.155030
O O1 0.500000 0.958332 0.750000
O O2 0.449060 0.041981 0.881198
O O3 0.500000 0.804858 0.879152
O O4 0.793836 0.283835 0.250000
O O5 0.779833 0.195952 0.105274
O O6 0.748381 0.447479 0.146016
O O7 0.848635 0.393608 0.133069
O O8 0.500000 0.354812 0.250000
O O9 0.448417 0.431075 0.376395
O O10 0.150221 0.988937 0.114205
O O11 0.220586 0.000000 0.000000
O O12 0.583527 0.855282 0.250000
O O13 0.581063 0.691436 0.372570
O O14 0.103704 0.027805 0.250000
#
# Coordination Sequence:
#
# PCOD8259382 Si02
#       6
#     8  16   8  16  16  16
#     4   9  15  25  43  75 106 124 154 213 272 309
#     4  10  20  36  56  79 105 141 184 223 266 326
#     4   9  17  27  46  75 103 130 171 223 270 311
#     4  11  22  36  54  80 110 142 179 226 279 329
#     4   8  15  27  46  69  97 130 166 205 253 311
#     4   9  17  32  51  73 101 138 178 216 261 322
#
# _framework density 19.479927
#
# number of rings (size 3 to 8) (size 9 to 14) (size 15 to 20)
#    0.000    2.600    0.000    4.200    0.000    4.000 
#    0.000    4.500    0.000    0.000    0.000    6.300 
#    0.000    0.000    0.000    0.000    0.000    0.000 
#
# Total GULP energy -495948.386331 kJ/mol
# GULP energy per Si atom -12398.709658 kJ/mol
# Density = 1.943559 g / cm^3
# Si number density = 19.479927 Si / 1000 Ang^3
#
#
#
# Elastic Constant Matrix: (Units=GPa)
#
#
# Indices 1 2 3 4 5 6 
#
# 1 154.0969 94.4144 3.3144 0.0000 0.0000 0.0000
# 2 94.4144 120.2172 2.0119 0.0000 0.0000 0.0000
# 3 3.3144 2.0119 26.1462 0.0000 0.0000 0.0000
# 4 0.0000 0.0000 0.0000 16.9882 0.0000 0.0000
# 5 0.0000 0.0000 0.0000 0.0000 5.0091 0.0000
# 6 0.0000 0.0000 0.0000 0.0000 0.0000 41.4934
#
#
#
# Elastic Compliance Matrix: (Units=1/GPa)
#
#
# Indices 1 2 3 4 5 6 
#
# 1 0.012526 -0.009824 -0.000832 0.000000 0.000000 0.000000
# 2 -0.009824 0.016033 0.000012 0.000000 0.000000 0.000000
# 3 -0.000832 0.000012 0.038351 0.000000 0.000000 0.000000
# 4 0.000000 0.000000 0.000000 0.058865 0.000000 0.000000
# 5 0.000000 0.000000 0.000000 0.000000 0.199638 0.000000
# 6 0.000000 0.000000 0.000000 0.000000 0.000000 0.024100
#
#
# Mechanical properties :
#
#
# Convention : Reuss Voigt Hill
#
# Bulk Modulus (GPa) = 21.91911 55.54907 38.73409
# Shear Modulus (GPa) = 12.95305 26.07945 19.51625
#
# Velocity S-wave (km/s) = 2.58145 3.66291 3.16866
# Velocity P-wave (km/s) = 4.49018 6.81668 5.77187
#
# Compressibility (1/GPa) = 0.04562229
#
# Stress axis : x y z
#
# Youngs Moduli (GPa) = 79.83196 62.36999 26.07495
#
# Poissons Ratio (x) = 0.61271 0.02169
# Poissons Ratio (y) = 0.78425 -0.00030
# Poissons Ratio (z) = 0.06642 -0.00072
#
# Static dielectric constant tensor:
#      x y z
#    x 3.766280 0.000000 0.000000 
#    y 0.000000 3.628180 0.000000 
#    z 0.000000 0.000000 3.028750 
# 
# 
# High freq. dielectric constant tensor:
#      x y z
#    x 1.773290 0.000000 0.000000 
#    y 0.000000 1.756960 0.000000 
#    z 0.000000 0.000000 1.713000 
# 
# From -- ./inp_files/48868.got.cif
#   From: 2010.03.12/outbox.cif.g09.slc.cpg/sg63_25_cif.got.tgz:48868.got - 2010.04.10 19:34:48.
