data_PCOD8259248
_publ_section_title
;
Structure prediction by ZEFSAII (Michael W. Deem and Ramdas Pophale) SiO2 
 PCOD8259248
Probable space group: C M C M
;
_chemical_formula_sum "Si O2"
_cell_formula_units_Z 64
_cell_length_a 8.949154
_cell_length_b 20.534928
_cell_length_c 18.155735
_cell_angle_alpha 90.000000
_cell_angle_beta 90.000000
_cell_angle_gamma 90.000000
_cell_volume 3336.483652
_symmetry_space_group_name_H-M "C M C M"
_symmetry_group_IT_number 63
_symmetry_cell_setting 'orthorhombic'
loop_
_space_group_symop_operation_xyz
x,y,z
-x,-y,1/2+z
x,-y,-z
-x,y,1/2-z
-x,-y,-z
x,y,1/2-z
-x,y,z
x,-y,1/2+z
1/2+x,1/2+y,z
1/2-x,1/2-y,1/2+z
1/2+x,1/2-y,-z
1/2-x,1/2+y,1/2-z
1/2-x,1/2-y,-z
1/2+x,1/2+y,1/2-z
1/2-x,1/2+y,z
1/2+x,1/2-y,1/2+z
loop_
_atom_site_type_symbol
_atom_site_label
_atom_site_fract_x
_atom_site_fract_y
_atom_site_fract_z
Si Si1 0.176254 0.744306 0.078899
Si Si2 0.669101 0.858537 0.162573
Si Si3 0.324939 0.630007 0.335313
Si Si4 0.834999 0.015250 0.837396
O O1 0.224138 0.804393 0.129326
O O2 0.225987 0.677327 0.115982
O O3 0.000000 0.744759 0.069898
O O4 0.250000 0.750000 0.000000
O O5 0.681426 0.853823 0.250000
O O6 0.500000 0.847081 0.135736
O O7 0.720760 0.929813 0.134164
O O8 0.283153 0.640338 0.250000
O O9 0.500000 0.644397 0.347508
O O10 0.283933 0.556858 0.362140
O O11 0.843714 0.015539 0.750000
O O12 0.000000 0.030636 0.869373
#
# Coordination Sequence:
#
# PCOD8259248 Si02
#       4
#    16  16  16  16
#     4  12  25  39  55  76 107 145 185 228 271 320
#     4  10  20  35  57  84 113 143 177 220 267 316
#     4   9  18  35  59  85 113 143 176 218 268 321
#     4   8  15  30  54  83 112 141 174 214 262 316
#
# _framework density 19.181871999999998
#
# number of rings (size 3 to 8) (size 9 to 14) (size 15 to 20)
#    0.000    2.250    0.000    5.250    0.000    6.000 
#    0.000    3.750    0.000    7.500    0.000    0.000 
#    0.000    0.000    0.000    0.000    0.000    0.000 
#
# Total GULP energy -396775.999001 kJ/mol
# GULP energy per Si atom -12399.249969 kJ/mol
# Density = 1.913821 g / cm^3
# Si number density = 19.181872 Si / 1000 Ang^3
#
#
#
# Elastic Constant Matrix: (Units=GPa)
#
#
# Indices 1 2 3 4 5 6 
#
# 1 132.1867 69.2952 38.7711 0.0000 0.0000 0.0000
# 2 69.2952 145.5991 33.0510 0.0000 0.0000 0.0000
# 3 38.7711 33.0510 39.2823 0.0000 0.0000 0.0000
# 4 0.0000 0.0000 0.0000 -6.2125 0.0000 0.0000
# 5 0.0000 0.0000 0.0000 0.0000 27.7062 0.0000
# 6 0.0000 0.0000 0.0000 0.0000 0.0000 39.7077
#
#
#
# Elastic Compliance Matrix: (Units=1/GPa)
#
#
# Indices 1 2 3 4 5 6 
#
# 1 0.012121 -0.003774 -0.008788 0.000000 0.000000 0.000000
# 2 -0.003774 0.009665 -0.004407 0.000000 0.000000 0.000000
# 3 -0.008788 -0.004407 0.037838 0.000000 0.000000 0.000000
# 4 0.000000 0.000000 0.000000 -0.160967 0.000000 0.000000
# 5 0.000000 0.000000 0.000000 0.000000 0.036093 0.000000
# 6 0.000000 0.000000 0.000000 0.000000 0.000000 0.025184
#
#
# Mechanical properties :
#
#
# Convention : Reuss Voigt Hill
#
# Bulk Modulus (GPa) = 38.93112 66.58920 52.76016
# Shear Modulus (GPa) = 2054.95813 23.97034 1039.46423
#
# Velocity S-wave (km/s) = 32.76626 3.53885 23.30398
# Velocity P-wave (km/s) = 38.10307 7.17551 27.41652
#
# Compressibility (1/GPa) = 0.02568639
#
# Stress axis : x y z
#
# Youngs Moduli (GPa) = 82.50159 103.47018 26.42840
#
# Poissons Ratio (x) = 0.39048 0.23225
# Poissons Ratio (y) = 0.31135 0.11646
# Poissons Ratio (z) = 0.72502 0.45597
#
# Static dielectric constant tensor:
#      x y z
#    x 3.655150 0.000000 0.000000 
#    y 0.000000 3.861910 0.000000 
#    z 0.000000 0.000000 3.228440 
# 
# 
# High freq. dielectric constant tensor:
#      x y z
#    x 1.746840 0.000000 0.000000 
#    y 0.000000 1.765970 0.000000 
#    z 0.000000 0.000000 1.713200 
# 
# From -- ./inp_files/39825.got.cif
#   From: 2010.03.12/outbox.cif.g09.slc.cpg/sg63_20_cif.got.tgz:39825.got - 2010.04.10 19:34:48.
