data_PCOD8259899
_publ_section_title
;
Structure prediction by ZEFSAII (Michael W. Deem and Ramdas Pophale) SiO2 
 PCOD8259899
Probable space group: C M C M
;
_chemical_formula_sum "Si O2"
_cell_formula_units_Z 72
_cell_length_a 10.414818
_cell_length_b 26.256303
_cell_length_c 13.704392
_cell_angle_alpha 90.000000
_cell_angle_beta 90.000000
_cell_angle_gamma 90.000000
_cell_volume 3747.529267
_symmetry_space_group_name_H-M "C M C M"
_symmetry_group_IT_number 63
_symmetry_cell_setting 'orthorhombic'
loop_
_space_group_symop_operation_xyz
x,y,z
-x,-y,1/2+z
x,-y,-z
-x,y,1/2-z
-x,-y,-z
x,y,1/2-z
-x,y,z
x,-y,1/2+z
1/2+x,1/2+y,z
1/2-x,1/2-y,1/2+z
1/2+x,1/2-y,-z
1/2-x,1/2+y,1/2-z
1/2-x,1/2-y,-z
1/2+x,1/2+y,1/2-z
1/2-x,1/2+y,z
1/2+x,1/2-y,1/2+z
loop_
_atom_site_type_symbol
_atom_site_label
_atom_site_fract_x
_atom_site_fract_y
_atom_site_fract_z
Si Si1 0.650128 0.661176 0.250000
Si Si2 0.849725 0.057147 0.750000
Si Si3 0.220443 0.550955 0.250000
Si Si4 0.645304 0.711657 0.457044
Si Si5 0.360262 0.947114 0.545008
Si Si6 0.856123 0.107970 0.947009
O O1 0.500000 0.652345 0.250000
O O2 0.707750 0.604848 0.250000
O O3 0.689336 0.691809 0.349167
O O4 0.798179 0.088138 0.844337
O O5 0.000000 0.063134 0.750000
O O6 0.816420 0.997598 0.750000
O O7 0.125070 0.546302 0.159857
O O8 0.500000 0.735227 0.448991
O O9 0.750000 0.750000 0.500000
O O10 0.639229 0.668420 0.540735
O O11 0.500000 0.929429 0.503510
O O12 0.244187 0.908590 0.529159
O O13 0.316397 0.000000 0.500000
O O14 0.000000 0.085412 0.965433
#
# Coordination Sequence:
#
# PCOD8259899 Si02
#       6
#     8   8   8  16  16  16
#     4  10  21  38  62  93 123 151 195 251 304 355
#     4  10  21  34  58  93 123 157 201 241 286 349
#     4  12  20  36  60  90 121 162 197 242 295 352
#     4  10  22  41  64  89 119 154 197 252 305 357
#     4  11  23  37  55  85 124 161 198 243 293 352
#     4  10  21  39  60  86 118 155 200 248 293 348
#
# _framework density 19.212658999999999
#
# number of rings (size 3 to 8) (size 9 to 14) (size 15 to 20)
#    0.000    1.556    4.444    0.667    0.000    3.111 
#    0.000    2.222    0.000    0.000    0.000    0.000 
#    0.000    0.000    0.000    0.000    0.000    0.000 
#
# Total GULP energy -445993.313273 kJ/mol
# GULP energy per Si atom -12388.703146 kJ/mol
# Density = 1.916893 g / cm^3
# Si number density = 19.212659 Si / 1000 Ang^3
#
#
#
# Elastic Constant Matrix: (Units=GPa)
#
#
# Indices 1 2 3 4 5 6 
#
# 1 93.0790 50.9943 38.9250 0.0000 0.0000 0.0000
# 2 50.9943 95.9151 52.8406 0.0000 0.0000 0.0000
# 3 38.9250 52.8406 118.8920 0.0000 0.0000 0.0000
# 4 0.0000 0.0000 0.0000 32.3290 0.0000 0.0000
# 5 0.0000 0.0000 0.0000 0.0000 45.0039 0.0000
# 6 0.0000 0.0000 0.0000 0.0000 0.0000 16.3924
#
#
#
# Elastic Compliance Matrix: (Units=1/GPa)
#
#
# Indices 1 2 3 4 5 6 
#
# 1 0.015465 -0.007194 -0.001866 0.000000 0.000000 0.000000
# 2 -0.007194 0.017153 -0.005268 0.000000 0.000000 0.000000
# 3 -0.001866 -0.005268 0.011363 0.000000 0.000000 0.000000
# 4 0.000000 0.000000 0.000000 0.030932 0.000000 0.000000
# 5 0.000000 0.000000 0.000000 0.000000 0.022220 0.000000
# 6 0.000000 0.000000 0.000000 0.000000 0.000000 0.061004
#
#
# Mechanical properties :
#
#
# Convention : Reuss Voigt Hill
#
# Bulk Modulus (GPa) = 65.25293 65.93399 65.59346
# Shear Modulus (GPa) = 26.05479 29.75345 27.90412
#
# Velocity S-wave (km/s) = 3.68656 3.93954 3.81515
# Velocity P-wave (km/s) = 7.22206 7.42198 7.32270
#
# Compressibility (1/GPa) = 0.01532498
#
# Stress axis : x y z
#
# Youngs Moduli (GPa) = 64.66051 58.29828 88.00302
#
# Poissons Ratio (x) = 0.41942 0.16420
# Poissons Ratio (y) = 0.46520 0.46361
# Poissons Ratio (z) = 0.12065 0.30712
#
# Static dielectric constant tensor:
#      x y z
#    x 3.415070 0.000000 0.000000 
#    y 0.000000 3.298370 0.000000 
#    z 0.000000 0.000000 3.982370 
# 
# 
# High freq. dielectric constant tensor:
#      x y z
#    x 1.748010 0.000000 0.000000 
#    y 0.000000 1.725760 0.000000 
#    z 0.000000 0.000000 1.761260 
# 
# From -- ./inp_files/17650.got.cif
#   From: 2010.03.12/outbox.cif.g09.slc.cpg/sg63_9_cif.got.tgz:17650.got - 2010.04.10 19:34:48.
