data_PCOD8259725
_publ_section_title
;
Structure prediction by ZEFSAII (Michael W. Deem and Ramdas Pophale) SiO2 
 PCOD8259725
Probable space group: C M C M
;
_chemical_formula_sum "Si O2"
_cell_formula_units_Z 96
_cell_length_a 9.280808
_cell_length_b 20.082254
_cell_length_c 27.748317
_cell_angle_alpha 90.000000
_cell_angle_beta 90.000000
_cell_angle_gamma 90.000000
_cell_volume 5171.718658
_symmetry_space_group_name_H-M "C M C M"
_symmetry_group_IT_number 63
_symmetry_cell_setting 'orthorhombic'
loop_
_space_group_symop_operation_xyz
x,y,z
-x,-y,1/2+z
x,-y,-z
-x,y,1/2-z
-x,-y,-z
x,y,1/2-z
-x,y,z
x,-y,1/2+z
1/2+x,1/2+y,z
1/2-x,1/2-y,1/2+z
1/2+x,1/2-y,-z
1/2-x,1/2+y,1/2-z
1/2-x,1/2-y,-z
1/2+x,1/2+y,1/2-z
1/2-x,1/2+y,z
1/2+x,1/2-y,1/2+z
loop_
_atom_site_type_symbol
_atom_site_label
_atom_site_fract_x
_atom_site_fract_y
_atom_site_fract_z
Si Si1 0.835427 0.481222 0.694186
Si Si2 0.332370 0.122619 0.849683
Si Si3 0.665400 0.739757 0.805931
Si Si4 0.667434 0.173738 0.952504
Si Si5 0.168255 0.861043 0.648963
Si Si6 0.165189 0.826274 0.543934
O O1 0.806514 0.496793 0.750000
O O2 0.800906 0.546672 0.663590
O O3 0.729175 0.424090 0.676826
O O4 0.000000 0.457761 0.686129
O O5 0.500000 0.141263 0.841932
O O6 0.236614 0.168190 0.815019
O O7 0.285884 0.133138 0.905128
O O8 0.675289 0.757676 0.750000
O O9 0.500000 0.738591 0.823327
O O10 0.751916 0.794608 0.835203
O O11 0.500000 0.166015 0.962330
O O12 0.713257 0.250463 0.944944
O O13 0.746100 0.143274 0.999337
O O14 0.193032 0.870110 0.591664
O O15 0.000000 0.852948 0.661025
O O16 0.000000 0.828088 0.528409
#
# Coordination Sequence:
#
# PCOD8259725 Si02
#       6
#    16  16  16  16  16  16
#     4  10  22  39  58  81 112 150 189 231 281 334
#     4  10  20  38  60  83 112 148 188 230 279 335
#     4  11  23  36  54  83 114 142 183 237 283 330
#     4   9  17  32  55  83 111 141 181 225 274 334
#     4  11  22  38  58  81 111 149 190 231 277 333
#     4   9  18  33  53  81 112 142 181 226 275 331
#
# _framework density 18.562494000000001
#
# number of rings (size 3 to 8) (size 9 to 14) (size 15 to 20)
#    0.000    2.000    1.667    2.000    0.000    7.000 
#    0.000    0.833    0.000    5.000    0.000    0.000 
#    0.000    0.000    0.000    0.000    0.000    0.000 
#
# Total GULP energy -595344.897054 kJ/mol
# GULP energy per Si atom -12403.018689 kJ/mol
# Density = 1.852024 g / cm^3
# Si number density = 18.562494 Si / 1000 Ang^3
#
#
#
# Elastic Constant Matrix: (Units=GPa)
#
#
# Indices 1 2 3 4 5 6 
#
# 1 85.4143 32.6062 37.9078 0.0000 0.0000 0.0000
# 2 32.6062 53.5026 15.1162 0.0000 0.0000 0.0000
# 3 37.9078 15.1162 86.5655 0.0000 0.0000 0.0000
# 4 0.0000 0.0000 0.0000 31.7021 0.0000 0.0000
# 5 0.0000 0.0000 0.0000 0.0000 34.8613 0.0000
# 6 0.0000 0.0000 0.0000 0.0000 0.0000 29.7278
#
#
#
# Elastic Compliance Matrix: (Units=1/GPa)
#
#
# Indices 1 2 3 4 5 6 
#
# 1 0.018006 -0.009200 -0.006279 0.000000 0.000000 0.000000
# 2 -0.009200 0.024361 -0.000225 0.000000 0.000000 0.000000
# 3 -0.006279 -0.000225 0.014341 0.000000 0.000000 0.000000
# 4 0.000000 0.000000 0.000000 0.031544 0.000000 0.000000
# 5 0.000000 0.000000 0.000000 0.000000 0.028685 0.000000
# 6 0.000000 0.000000 0.000000 0.000000 0.000000 0.033639
#
#
# Mechanical properties :
#
#
# Convention : Reuss Voigt Hill
#
# Bulk Modulus (GPa) = 39.52467 44.08253 41.80360
# Shear Modulus (GPa) = 26.25841 28.58173 27.42007
#
# Velocity S-wave (km/s) = 3.76519 3.92823 3.84757
# Velocity P-wave (km/s) = 6.34359 6.66141 6.50444
#
# Compressibility (1/GPa) = 0.02530066
#
# Stress axis : x y z
#
# Youngs Moduli (GPa) = 55.53717 41.04954 69.73147
#
# Poissons Ratio (x) = 0.37764 0.43781
# Poissons Ratio (y) = 0.51091 0.01572
# Poissons Ratio (z) = 0.34869 0.00925
#
# Static dielectric constant tensor:
#      x y z
#    x 3.451680 0.000000 0.000000 
#    y 0.000000 3.212220 0.000000 
#    z 0.000000 0.000000 3.574370 
# 
# 
# High freq. dielectric constant tensor:
#      x y z
#    x 1.722820 0.000000 0.000000 
#    y 0.000000 1.697630 0.000000 
#    z 0.000000 0.000000 1.733390 
# 
# From -- ./inp_files/66872.got.cif
#   From: 2010.03.12/outbox.cif.g09.slc.cpg/sg63_34_cif.got.tgz:66872.got - 2010.04.10 19:34:48.
