data_PCOD8259613
_publ_section_title
;
Structure prediction by ZEFSAII (Michael W. Deem and Ramdas Pophale) SiO2 
 PCOD8259613
Probable space group: C M C M
;
_chemical_formula_sum "Si O2"
_cell_formula_units_Z 80
_cell_length_a 20.386295
_cell_length_b 22.974357
_cell_length_c 8.641272
_cell_angle_alpha 90.000000
_cell_angle_beta 90.000000
_cell_angle_gamma 90.000000
_cell_volume 4047.243603
_symmetry_space_group_name_H-M "C M C M"
_symmetry_group_IT_number 63
_symmetry_cell_setting 'orthorhombic'
loop_
_space_group_symop_operation_xyz
x,y,z
-x,-y,1/2+z
x,-y,-z
-x,y,1/2-z
-x,-y,-z
x,y,1/2-z
-x,y,z
x,-y,1/2+z
1/2+x,1/2+y,z
1/2-x,1/2-y,1/2+z
1/2+x,1/2-y,-z
1/2-x,1/2+y,1/2-z
1/2-x,1/2-y,-z
1/2+x,1/2+y,1/2-z
1/2-x,1/2+y,z
1/2+x,1/2-y,1/2+z
loop_
_atom_site_type_symbol
_atom_site_label
_atom_site_fract_x
_atom_site_fract_y
_atom_site_fract_z
Si Si1 0.875053 0.364367 0.567893
Si Si2 0.748171 0.939297 0.566887
Si Si3 0.500000 0.065215 0.064783
Si Si4 0.500000 0.435853 0.568492
Si Si5 0.872314 0.119767 0.932596
Si Si6 0.677762 0.255583 0.066959
O O1 0.883750 0.366343 0.750000
O O2 0.807093 0.393626 0.517614
O O3 0.937091 0.399252 0.498260
O O4 0.869488 0.297388 0.510325
O O5 0.759313 0.941775 0.750000
O O6 0.815210 0.923768 0.481867
O O7 0.723033 0.000000 0.500000
O O8 0.500000 0.061553 0.250000
O O9 0.500000 0.000000 0.000000
O O10 0.500000 0.500000 0.500000
O O11 0.500000 0.442952 0.750000
O O12 0.562289 0.399348 0.516491
O O13 0.882757 0.116507 0.750000
O O14 0.855407 0.184843 0.989525
O O15 0.685270 0.253953 0.250000
O O16 0.750000 0.250000 0.000000
#
# Coordination Sequence:
#
# PCOD8259613 Si02
#       6
#    16  16   8   8  16  16
#     4   9  19  35  58  85 115 155 197 241 295 349
#     4  11  21  35  56  83 117 154 201 250 297 355
#     4  10  20  37  58  82 116 155 195 240 289 346
#     4  12  26  45  66  88 122 161 199 250 303 364
#     4  11  23  39  62  91 120 155 198 246 300 360
#     4  10  20  37  61  89 120 155 197 247 297 353
#
# _framework density 19.766539999999999
#
# number of rings (size 3 to 8) (size 9 to 14) (size 15 to 20)
#    0.000    1.600    2.000    3.300    0.000    1.600 
#    0.000    5.000    0.000    1.200    0.000    0.000 
#    0.000    0.000    0.000    0.000    0.000    0.000 
#
# Total GULP energy -496032.345581 kJ/mol
# GULP energy per Si atom -12400.808640 kJ/mol
# Density = 1.972155 g / cm^3
# Si number density = 19.766540 Si / 1000 Ang^3
#
#
#
# Elastic Constant Matrix: (Units=GPa)
#
#
# Indices 1 2 3 4 5 6 
#
# 1 141.0399 58.7415 36.1952 0.0000 0.0000 0.0000
# 2 58.7415 152.7028 37.7034 0.0000 0.0000 0.0000
# 3 36.1952 37.7034 64.1164 0.0000 0.0000 0.0000
# 4 0.0000 0.0000 0.0000 26.9623 0.0000 0.0000
# 5 0.0000 0.0000 0.0000 0.0000 16.3944 0.0000
# 6 0.0000 0.0000 0.0000 0.0000 0.0000 24.2808
#
#
#
# Elastic Compliance Matrix: (Units=1/GPa)
#
#
# Indices 1 2 3 4 5 6 
#
# 1 0.009103 -0.002612 -0.003603 0.000000 0.000000 0.000000
# 2 -0.002612 0.008411 -0.003471 0.000000 0.000000 0.000000
# 3 -0.003603 -0.003471 0.019672 0.000000 0.000000 0.000000
# 4 0.000000 0.000000 0.000000 0.037089 0.000000 0.000000
# 5 0.000000 0.000000 0.000000 0.000000 0.060997 0.000000
# 6 0.000000 0.000000 0.000000 0.000000 0.000000 0.041185
#
#
# Mechanical properties :
#
#
# Convention : Reuss Voigt Hill
#
# Bulk Modulus (GPa) = 56.13880 69.23768 62.68824
# Shear Modulus (GPa) = 24.78137 28.54210 26.66173
#
# Velocity S-wave (km/s) = 3.54461 3.80407 3.67663
# Velocity P-wave (km/s) = 6.72420 7.37552 7.05738
#
# Compressibility (1/GPa) = 0.01781299
#
# Stress axis : x y z
#
# Youngs Moduli (GPa) = 109.85834 118.89841 50.83464
#
# Poissons Ratio (x) = 0.31057 0.18314
# Poissons Ratio (y) = 0.28696 0.17646
# Poissons Ratio (z) = 0.39578 0.41272
#
# Static dielectric constant tensor:
#      x y z
#    x 3.811330 0.000000 0.000000 
#    y 0.000000 4.022600 0.000000 
#    z 0.000000 0.000000 3.411580 
# 
# 
# High freq. dielectric constant tensor:
#      x y z
#    x 1.776390 0.000000 0.000000 
#    y 0.000000 1.792430 0.000000 
#    z 0.000000 0.000000 1.752890 
# 
# From -- ./inp_files/8108.got.cif
#   From: 2010.03.12/outbox.cif.g09.slc.cpg/sg63_5_cif.got.tgz:8108.got - 2010.04.10 19:34:48.
