data_PCOD8259967
_publ_section_title
;
Structure prediction by ZEFSAII (Michael W. Deem and Ramdas Pophale) SiO2 
 PCOD8259967
Probable space group: C M C M
;
_chemical_formula_sum "Si O2"
_cell_formula_units_Z 64
_cell_length_a 9.453115
_cell_length_b 10.634338
_cell_length_c 25.413482
_cell_angle_alpha 90.000000
_cell_angle_beta 90.000000
_cell_angle_gamma 90.000000
_cell_volume 2554.756863
_symmetry_space_group_name_H-M "C M C M"
_symmetry_group_IT_number 63
_symmetry_cell_setting 'orthorhombic'
loop_
_space_group_symop_operation_xyz
x,y,z
-x,-y,1/2+z
x,-y,-z
-x,y,1/2-z
-x,-y,-z
x,y,1/2-z
-x,y,z
x,-y,1/2+z
1/2+x,1/2+y,z
1/2-x,1/2-y,1/2+z
1/2+x,1/2-y,-z
1/2-x,1/2+y,1/2-z
1/2-x,1/2-y,-z
1/2+x,1/2+y,1/2-z
1/2-x,1/2+y,z
1/2+x,1/2-y,1/2+z
loop_
_atom_site_type_symbol
_atom_site_label
_atom_site_fract_x
_atom_site_fract_y
_atom_site_fract_z
Si Si1 0.000000 0.631697 0.690653
Si Si2 0.701828 0.356553 0.692239
Si Si3 0.500000 0.925009 0.075146
Si Si4 0.246600 0.500000 0.500000
Si Si5 0.500000 0.518157 0.869933
Si Si6 0.500000 0.642725 0.033848
Si Si7 0.500000 0.763980 0.809126
O O1 0.139946 0.716994 0.685403
O O2 0.000000 0.545213 0.638073
O O3 0.000000 0.565958 0.750000
O O4 0.663041 0.407064 0.750000
O O5 0.641872 0.456738 0.652314
O O6 0.868382 0.355612 0.683407
O O7 0.357749 0.985799 0.050401
O O8 0.500000 0.773974 0.064597
O O9 0.349820 0.375714 0.503274
O O10 0.500000 0.486254 0.931045
O O11 0.500000 0.664380 0.856435
O O12 0.500000 0.702675 0.750000
#
# Coordination Sequence:
#
# PCOD8259967 Si02
#       7
#     8  16   8   8   8   8   8
#     4   9  18  35  64  93 127 170 205 253 321 380
#     4   9  18  36  56  85 124 162 209 255 305 376
#     4  11  21  45  71  88 135 169 206 268 325 364
#     4  10  26  42  66 102 120 166 224 262 310 388
#     4  11  21  35  63  87 119 166 203 258 322 377
#     4  11  23  42  66  93 127 158 215 266 318 367
#     4  10  21  35  57  87 122 166 211 255 308 375
#
# _framework density 25.051307999999999
#
# number of rings (size 3 to 8) (size 9 to 14) (size 15 to 20)
#    0.000    2.000    2.500    2.625    3.500    0.000 
#    0.000    5.000    0.000    9.000    0.000    0.000 
#    0.000    0.000    0.000    0.000    0.000    0.000 
#
# Total GULP energy -396477.462316 kJ/mol
# GULP energy per Si atom -12389.920697 kJ/mol
# Density = 2.499429 g / cm^3
# Si number density = 25.051308 Si / 1000 Ang^3
#
#
#
# Elastic Constant Matrix: (Units=GPa)
#
#
# Indices 1 2 3 4 5 6 
#
# 1 191.1991 14.2315 46.2299 0.0000 0.0000 0.0000
# 2 14.2315 37.8639 14.0047 0.0000 0.0000 0.0000
# 3 46.2299 14.0047 113.6871 0.0000 0.0000 0.0000
# 4 0.0000 0.0000 0.0000 28.6707 0.0000 0.0000
# 5 0.0000 0.0000 0.0000 0.0000 27.0564 0.0000
# 6 0.0000 0.0000 0.0000 0.0000 0.0000 18.0390
#
#
#
# Elastic Compliance Matrix: (Units=1/GPa)
#
#
# Indices 1 2 3 4 5 6 
#
# 1 0.005869 -0.001386 -0.002216 0.000000 0.000000 0.000000
# 2 -0.001386 0.027999 -0.002885 0.000000 0.000000 0.000000
# 3 -0.002216 -0.002885 0.010053 0.000000 0.000000 0.000000
# 4 0.000000 0.000000 0.000000 0.034879 0.000000 0.000000
# 5 0.000000 0.000000 0.000000 0.000000 0.036960 0.000000
# 6 0.000000 0.000000 0.000000 0.000000 0.000000 0.055435
#
#
# Mechanical properties :
#
#
# Convention : Reuss Voigt Hill
#
# Bulk Modulus (GPa) = 32.31511 54.63137 43.47324
# Shear Modulus (GPa) = 25.70899 32.63883 29.17391
#
# Velocity S-wave (km/s) = 3.20699 3.61346 3.41628
# Velocity P-wave (km/s) = 5.16146 6.26614 5.74044
#
# Compressibility (1/GPa) = 0.03094527
#
# Stress axis : x y z
#
# Youngs Moduli (GPa) = 170.38363 35.71600 99.47719
#
# Poissons Ratio (x) = 0.04952 0.22043
# Poissons Ratio (y) = 0.23622 0.28702
# Poissons Ratio (z) = 0.37754 0.10305
#
# Static dielectric constant tensor:
#      x y z
#    x 5.106490 0.000000 0.000000 
#    y 0.000000 3.881140 0.000000 
#    z 0.000000 0.000000 4.633900 
# 
# 
# High freq. dielectric constant tensor:
#      x y z
#    x 2.023780 0.000000 0.000000 
#    y 0.000000 1.963570 0.000000 
#    z 0.000000 0.000000 1.995910 
# 
# From -- ./inp_files/71406.got.cif
#   From: 2010.03.12/outbox.cif.g09.slc.cpg/sg63_36_cif.got.tgz:71406.got - 2010.04.10 19:34:48.
