data_PCOD8259466
_publ_section_title
;
Structure prediction by ZEFSAII (Michael W. Deem and Ramdas Pophale) SiO2 
 PCOD8259466
Probable space group: C M C M
;
_chemical_formula_sum "Si O2"
_cell_formula_units_Z 112
_cell_length_a 13.543805
_cell_length_b 26.818583
_cell_length_c 15.401655
_cell_angle_alpha 90.000000
_cell_angle_beta 90.000000
_cell_angle_gamma 90.000000
_cell_volume 5594.276280
_symmetry_space_group_name_H-M "C M C M"
_symmetry_group_IT_number 63
_symmetry_cell_setting 'orthorhombic'
loop_
_space_group_symop_operation_xyz
x,y,z
-x,-y,1/2+z
x,-y,-z
-x,y,1/2-z
-x,-y,-z
x,y,1/2-z
-x,y,z
x,-y,1/2+z
1/2+x,1/2+y,z
1/2-x,1/2-y,1/2+z
1/2+x,1/2-y,-z
1/2-x,1/2+y,1/2-z
1/2-x,1/2-y,-z
1/2+x,1/2+y,1/2-z
1/2-x,1/2+y,z
1/2+x,1/2-y,1/2+z
loop_
_atom_site_type_symbol
_atom_site_label
_atom_site_fract_x
_atom_site_fract_y
_atom_site_fract_z
Si Si1 0.613178 0.862931 0.349170
Si Si2 0.276673 0.557712 0.651989
Si Si3 0.615203 0.759720 0.847149
Si Si4 0.385903 0.392557 0.997092
Si Si5 0.259906 0.696572 0.543013
Si Si6 0.220776 0.057506 0.149553
Si Si7 0.889875 0.631881 0.353317
O O1 0.621194 0.843445 0.250000
O O2 0.500000 0.872777 0.375045
O O3 0.672728 0.914354 0.360784
O O4 0.657258 0.822330 0.415813
O O5 0.317441 0.565574 0.750000
O O6 0.357908 0.578124 0.585138
O O7 0.254669 0.500012 0.634378
O O8 0.650585 0.766430 0.750000
O O9 0.500000 0.751604 0.856361
O O10 0.665428 0.709221 0.878970
O O11 0.643650 0.813595 0.893414
O O12 0.500000 0.377102 0.001391
O O13 0.316043 0.344231 0.984465
O O14 0.370139 0.427000 0.911992
O O15 0.250000 0.750000 0.500000
O O16 0.194165 0.069013 0.250000
O O17 0.316445 0.088415 0.117177
O O18 0.892792 0.636756 0.250000
O O19 0.000000 0.618786 0.387212
#
# Coordination Sequence:
#
# PCOD8259466 Si02
#       7
#    16  16  16  16  16  16  16
#     4   9  19  37  59  83 112 144 180 227 283 341
#     4   9  20  38  60  85 111 143 183 227 279 335
#     4   9  17  31  52  76 102 135 178 226 271 314
#     4  11  24  40  57  81 113 145 183 232 278 323
#     4  11  22  36  55  78 108 144 183 226 272 327
#     4  10  20  36  58  83 113 149 186 223 271 333
#     4   8  15  29  51  80 111 142 179 226 277 325
#
# _framework density 20.020462999999999
#
# number of rings (size 3 to 8) (size 9 to 14) (size 15 to 20)
#    0.000    2.429    0.000    3.000    0.000    4.000 
#    0.000    9.286    0.000    4.286    0.000    0.000 
#    0.000    0.000    0.000    0.000    0.000    0.000 
#
# Total GULP energy -694098.927243 kJ/mol
# GULP energy per Si atom -12394.623701 kJ/mol
# Density = 1.997490 g / cm^3
# Si number density = 20.020463 Si / 1000 Ang^3
#
#
#
# Elastic Constant Matrix: (Units=GPa)
#
#
# Indices 1 2 3 4 5 6 
#
# 1 122.1579 30.4937 24.6055 0.0000 0.0000 0.0000
# 2 30.4937 109.5760 45.0517 0.0000 0.0000 0.0000
# 3 24.6055 45.0517 81.4739 0.0000 0.0000 0.0000
# 4 0.0000 0.0000 0.0000 35.1114 0.0000 0.0000
# 5 0.0000 0.0000 0.0000 0.0000 22.0719 0.0000
# 6 0.0000 0.0000 0.0000 0.0000 0.0000 25.1540
#
#
#
# Elastic Compliance Matrix: (Units=1/GPa)
#
#
# Indices 1 2 3 4 5 6 
#
# 1 0.008980 -0.001791 -0.001722 0.000000 0.000000 0.000000
# 2 -0.001791 0.012169 -0.006188 0.000000 0.000000 0.000000
# 3 -0.001722 -0.006188 0.016215 0.000000 0.000000 0.000000
# 4 0.000000 0.000000 0.000000 0.028481 0.000000 0.000000
# 5 0.000000 0.000000 0.000000 0.000000 0.045307 0.000000
# 6 0.000000 0.000000 0.000000 0.000000 0.000000 0.039755
#
#
# Mechanical properties :
#
#
# Convention : Reuss Voigt Hill
#
# Bulk Modulus (GPa) = 55.67022 57.05662 56.36342
# Shear Modulus (GPa) = 28.36150 30.67123 29.51637
#
# Velocity S-wave (km/s) = 3.76789 3.91832 3.84384
# Velocity P-wave (km/s) = 6.84079 7.00228 6.92201
#
# Compressibility (1/GPa) = 0.01796293
#
# Stress axis : x y z
#
# Youngs Moduli (GPa) = 111.35829 82.17834 61.66983
#
# Poissons Ratio (x) = 0.14720 0.10617
# Poissons Ratio (y) = 0.19947 0.38160
# Poissons Ratio (z) = 0.19171 0.50850
#
# Static dielectric constant tensor:
#      x y z
#    x 3.629150 0.000000 0.000000 
#    y 0.000000 3.856260 0.000000 
#    z 0.000000 0.000000 3.823390 
# 
# 
# High freq. dielectric constant tensor:
#      x y z
#    x 1.769300 0.000000 0.000000 
#    y 0.000000 1.786910 0.000000 
#    z 0.000000 0.000000 1.785010 
# 
# From -- ./inp_files/32502.got.cif
#   From: 2010.03.12/outbox.cif.g09.slc.cpg/sg63_17_cif.got.tgz:32502.got - 2010.04.10 19:34:48.
