data_PCOD8259518
_publ_section_title
;
Structure prediction by ZEFSAII (Michael W. Deem and Ramdas Pophale) SiO2 
 PCOD8259518
Probable space group: C M C M
;
_chemical_formula_sum "Si O2"
_cell_formula_units_Z 96
_cell_length_a 8.781862
_cell_length_b 24.943992
_cell_length_c 23.338976
_cell_angle_alpha 90.000000
_cell_angle_beta 90.000000
_cell_angle_gamma 90.000000
_cell_volume 5112.512280
_symmetry_space_group_name_H-M "C M C M"
_symmetry_group_IT_number 63
_symmetry_cell_setting 'orthorhombic'
loop_
_space_group_symop_operation_xyz
x,y,z
-x,-y,1/2+z
x,-y,-z
-x,y,1/2-z
-x,-y,-z
x,y,1/2-z
-x,y,z
x,-y,1/2+z
1/2+x,1/2+y,z
1/2-x,1/2-y,1/2+z
1/2+x,1/2-y,-z
1/2-x,1/2+y,1/2-z
1/2-x,1/2-y,-z
1/2+x,1/2+y,1/2-z
1/2-x,1/2+y,z
1/2+x,1/2-y,1/2+z
loop_
_atom_site_type_symbol
_atom_site_label
_atom_site_fract_x
_atom_site_fract_y
_atom_site_fract_z
Si Si1 0.677470 0.601377 0.629204
Si Si2 0.677335 0.315059 0.550847
Si Si3 0.824102 0.052346 0.750000
Si Si4 0.676704 0.193794 0.931261
Si Si5 0.678962 0.063123 0.250000
Si Si6 0.178651 0.090161 0.366068
Si Si7 0.322610 0.005874 0.566337
O O1 0.500000 0.593550 0.616210
O O2 0.716757 0.587821 0.694807
O O3 0.727720 0.662411 0.617061
O O4 0.774702 0.564811 0.586176
O O5 0.500000 0.320740 0.534746
O O6 0.713123 0.256571 0.576570
O O7 0.774678 0.325911 0.494207
O O8 0.729143 0.358314 0.597528
O O9 0.000000 0.034836 0.750000
O O10 0.726140 0.998820 0.750000
O O11 0.500000 0.181171 0.922825
O O12 0.500000 0.066023 0.250000
O O13 0.740499 0.094309 0.194890
O O14 0.000000 0.088727 0.355609
O O15 0.225055 0.036121 0.397945
O O16 0.500000 0.996052 0.578445
O O17 0.282274 0.000000 0.500000
#
# Coordination Sequence:
#
# PCOD8259518 Si02
#       7
#    16  16   8  16   8  16  16
#     4  11  22  37  58  82 112 150 193 233 282 343
#     4   9  20  38  60  85 114 153 192 230 284 344
#     4  10  22  40  59  80 109 151 194 234 282 339
#     4  10  20  36  59  87 118 149 188 237 286 337
#     4  12  24  38  59  84 113 149 192 238 290 339
#     4  11  22  38  59  82 113 151 194 234 279 343
#     4  11  23  36  53  83 118 147 183 235 290 339
#
# _framework density 18.777460999999999
#
# number of rings (size 3 to 8) (size 9 to 14) (size 15 to 20)
#    0.000    1.500    1.667    3.750    0.000    6.667 
#    0.000    0.833    0.000    3.000    0.000    0.000 
#    0.000    0.000    0.000    0.000    0.000    0.000 
#
# Total GULP energy -595499.656477 kJ/mol
# GULP energy per Si atom -12406.242843 kJ/mol
# Density = 1.873472 g / cm^3
# Si number density = 18.777461 Si / 1000 Ang^3
#
#
#
# Elastic Constant Matrix: (Units=GPa)
#
#
# Indices 1 2 3 4 5 6 
#
# 1 60.2128 14.7334 28.5835 0.0000 0.0000 0.0000
# 2 14.7334 78.4054 27.6330 0.0000 0.0000 0.0000
# 3 28.5835 27.6330 86.1658 0.0000 0.0000 0.0000
# 4 0.0000 0.0000 0.0000 22.0633 0.0000 0.0000
# 5 0.0000 0.0000 0.0000 0.0000 30.8849 0.0000
# 6 0.0000 0.0000 0.0000 0.0000 0.0000 31.6505
#
#
#
# Elastic Compliance Matrix: (Units=1/GPa)
#
#
# Indices 1 2 3 4 5 6 
#
# 1 0.019887 -0.001592 -0.006086 0.000000 0.000000 0.000000
# 2 -0.001592 0.014507 -0.004124 0.000000 0.000000 0.000000
# 3 -0.006086 -0.004124 0.014947 0.000000 0.000000 0.000000
# 4 0.000000 0.000000 0.000000 0.045324 0.000000 0.000000
# 5 0.000000 0.000000 0.000000 0.000000 0.032378 0.000000
# 6 0.000000 0.000000 0.000000 0.000000 0.000000 0.031595
#
#
# Mechanical properties :
#
#
# Convention : Reuss Voigt Hill
#
# Bulk Modulus (GPa) = 38.85664 40.74263 39.79963
# Shear Modulus (GPa) = 26.20247 27.17534 26.68891
#
# Velocity S-wave (km/s) = 3.73959 3.80838 3.77414
# Velocity P-wave (km/s) = 6.27568 6.40961 6.34300
#
# Compressibility (1/GPa) = 0.02573563
#
# Stress axis : x y z
#
# Youngs Moduli (GPa) = 50.28531 68.93277 66.90225
#
# Poissons Ratio (x) = 0.10973 0.40719
# Poissons Ratio (y) = 0.08005 0.27592
# Poissons Ratio (z) = 0.30606 0.28429
#
# Static dielectric constant tensor:
#      x y z
#    x 3.484330 0.000000 0.000000 
#    y 0.000000 3.490300 0.000000 
#    z 0.000000 0.000000 3.802490 
# 
# 
# High freq. dielectric constant tensor:
#      x y z
#    x 1.739370 0.000000 0.000000 
#    y 0.000000 1.729340 0.000000 
#    z 0.000000 0.000000 1.729630 
# 
# From -- ./inp_files/59989.got.cif
#   From: 2010.03.12/outbox.cif.g09.slc.cpg/sg63_30_cif.got.tgz:59989.got - 2010.04.10 19:34:48.
