data_PCOD8259143
_publ_section_title
;
Structure prediction by ZEFSAII (Michael W. Deem and Ramdas Pophale) SiO2 
 PCOD8259143
Probable space group: C M C M
;
_chemical_formula_sum "Si O2"
_cell_formula_units_Z 96
_cell_length_a 9.167566
_cell_length_b 22.377112
_cell_length_c 23.212737
_cell_angle_alpha 90.000000
_cell_angle_beta 90.000000
_cell_angle_gamma 90.000000
_cell_volume 4761.945621
_symmetry_space_group_name_H-M "C M C M"
_symmetry_group_IT_number 63
_symmetry_cell_setting 'orthorhombic'
loop_
_space_group_symop_operation_xyz
x,y,z
-x,-y,1/2+z
x,-y,-z
-x,y,1/2-z
-x,-y,-z
x,y,1/2-z
-x,y,z
x,-y,1/2+z
1/2+x,1/2+y,z
1/2-x,1/2-y,1/2+z
1/2+x,1/2-y,-z
1/2-x,1/2+y,1/2-z
1/2-x,1/2-y,-z
1/2+x,1/2+y,1/2-z
1/2-x,1/2+y,z
1/2+x,1/2-y,1/2+z
loop_
_atom_site_type_symbol
_atom_site_label
_atom_site_fract_x
_atom_site_fract_y
_atom_site_fract_z
Si Si1 0.832590 0.393332 0.974042
Si Si2 0.166957 0.838960 0.683387
Si Si3 0.671310 0.774076 0.908854
Si Si4 0.829562 0.345708 0.406027
Si Si5 0.668552 0.459279 0.881911
Si Si6 0.172848 0.922673 0.316806
O O1 0.783507 0.328312 0.950782
O O2 0.745880 0.447111 0.943312
O O3 0.000000 0.403975 0.958489
O O4 0.805401 0.394239 0.042788
O O5 0.201502 0.838295 0.750000
O O6 0.275245 0.791060 0.655177
O O7 0.200992 0.905106 0.661024
O O8 0.000000 0.821149 0.669778
O O9 0.500000 0.760739 0.909297
O O10 0.757931 0.715474 0.928500
O O11 0.752193 0.367167 0.347476
O O12 0.000000 0.335251 0.394288
O O13 0.500000 0.467036 0.895963
O O14 0.728026 0.517856 0.849449
O O15 0.220288 0.925325 0.250000
O O16 0.000000 0.914524 0.322159
#
# Coordination Sequence:
#
# PCOD8259143 Si02
#       6
#    16  16  16  16  16  16
#     4   9  20  37  57  83 112 140 173 220 274 323
#     4   9  17  31  53  80 108 139 177 222 271 321
#     4  10  20  35  55  79 108 142 180 222 271 322
#     4  11  23  38  56  79 109 145 183 221 265 319
#     4   9  18  34  58  84 108 138 178 223 269 318
#     4  10  22  40  59  80 109 145 184 224 265 312
#
# _framework density 20.159827
#
# number of rings (size 3 to 8) (size 9 to 14) (size 15 to 20)
#    0.000    2.333    0.000    2.000    0.000    6.667 
#    0.000    3.333    0.000    3.000    0.000    0.000 
#    0.000    0.000    0.000    0.000    0.000    0.000 
#
# Total GULP energy -595249.313565 kJ/mol
# GULP energy per Si atom -12401.027366 kJ/mol
# Density = 2.011394 g / cm^3
# Si number density = 20.159827 Si / 1000 Ang^3
#
#
#
# Elastic Constant Matrix: (Units=GPa)
#
#
# Indices 1 2 3 4 5 6 
#
# 1 60.6974 26.4708 36.9145 0.0000 0.0000 0.0000
# 2 26.4708 53.7527 22.1754 0.0000 0.0000 0.0000
# 3 36.9145 22.1754 94.5381 0.0000 0.0000 0.0000
# 4 0.0000 0.0000 0.0000 25.7426 0.0000 0.0000
# 5 0.0000 0.0000 0.0000 0.0000 33.3845 0.0000
# 6 0.0000 0.0000 0.0000 0.0000 0.0000 29.0428
#
#
#
# Elastic Compliance Matrix: (Units=1/GPa)
#
#
# Indices 1 2 3 4 5 6 
#
# 1 0.025158 -0.009230 -0.007659 0.000000 0.000000 0.000000
# 2 -0.009230 0.023983 -0.002022 0.000000 0.000000 0.000000
# 3 -0.007659 -0.002022 0.014042 0.000000 0.000000 0.000000
# 4 0.000000 0.000000 0.000000 0.038846 0.000000 0.000000
# 5 0.000000 0.000000 0.000000 0.000000 0.029954 0.000000
# 6 0.000000 0.000000 0.000000 0.000000 0.000000 0.034432
#
#
# Mechanical properties :
#
#
# Convention : Reuss Voigt Hill
#
# Bulk Modulus (GPa) = 39.42654 42.23439 40.83046
# Shear Modulus (GPa) = 23.50841 25.86249 24.68545
#
# Velocity S-wave (km/s) = 3.41853 3.58561 3.50306
# Velocity P-wave (km/s) = 5.93138 6.17555 6.05469
#
# Compressibility (1/GPa) = 0.02536363
#
# Stress axis : x y z
#
# Youngs Moduli (GPa) = 39.74866 41.69624 71.21293
#
# Poissons Ratio (x) = 0.38485 0.54539
# Poissons Ratio (y) = 0.36687 0.14397
# Poissons Ratio (z) = 0.30442 0.08429
#
# Static dielectric constant tensor:
#      x y z
#    x 3.535040 0.000000 0.000000 
#    y 0.000000 3.597540 0.000000 
#    z 0.000000 0.000000 3.699170 
# 
# 
# High freq. dielectric constant tensor:
#      x y z
#    x 1.778870 0.000000 0.000000 
#    y 0.000000 1.782090 0.000000 
#    z 0.000000 0.000000 1.791240 
# 
# From -- ./inp_files/59903.got.cif
#   From: 2010.03.12/outbox.cif.g09.slc.cpg/sg63_30_cif.got.tgz:59903.got - 2010.04.10 19:34:48.
