data_PCOD8259324
_publ_section_title
;
Structure prediction by ZEFSAII (Michael W. Deem and Ramdas Pophale) SiO2 
 PCOD8259324
Probable space group: C M C M
;
_chemical_formula_sum "Si O2"
_cell_formula_units_Z 96
_cell_length_a 8.784989
_cell_length_b 24.501888
_cell_length_c 23.491673
_cell_angle_alpha 90.000000
_cell_angle_beta 90.000000
_cell_angle_gamma 90.000000
_cell_volume 5056.554812
_symmetry_space_group_name_H-M "C M C M"
_symmetry_group_IT_number 63
_symmetry_cell_setting 'orthorhombic'
loop_
_space_group_symop_operation_xyz
x,y,z
-x,-y,1/2+z
x,-y,-z
-x,y,1/2-z
-x,-y,-z
x,y,1/2-z
-x,y,z
x,-y,1/2+z
1/2+x,1/2+y,z
1/2-x,1/2-y,1/2+z
1/2+x,1/2-y,-z
1/2-x,1/2+y,1/2-z
1/2-x,1/2-y,-z
1/2+x,1/2+y,1/2-z
1/2-x,1/2+y,z
1/2+x,1/2-y,1/2+z
loop_
_atom_site_type_symbol
_atom_site_label
_atom_site_fract_x
_atom_site_fract_y
_atom_site_fract_z
Si Si1 0.178826 0.607330 0.750000
Si Si2 0.824516 0.827995 0.065438
Si Si3 0.175079 0.763908 0.637503
Si Si4 0.177145 0.933975 0.137751
Si Si5 0.174844 0.136027 0.058894
Si Si6 0.322127 0.978366 0.938536
Si Si7 0.178470 0.226560 0.750000
O O1 0.229538 0.573588 0.695255
O O2 0.250251 0.667001 0.750000
O O3 0.000000 0.614401 0.750000
O O4 0.719866 0.781547 0.091747
O O5 0.784651 0.885324 0.094528
O O6 0.000000 0.812198 0.075683
O O7 0.784060 0.832287 0.999070
O O8 0.202781 0.823447 0.611300
O O9 0.273842 0.760103 0.694423
O O10 0.000000 0.754854 0.653690
O O11 0.000000 0.936498 0.152823
O O12 0.228076 0.990418 0.109631
O O13 0.285841 0.085301 0.067230
O O14 0.000000 0.115790 0.056150
O O15 0.500000 0.988546 0.928933
O O16 0.269074 0.000000 0.000000
O O17 0.000000 0.218321 0.750000
#
# Coordination Sequence:
#
# PCOD8259324 Si02
#       7
#     8  16  16  16  16  16   8
#     4  12  24  40  63  90 123 154 198 254 300 348
#     4  10  20  35  59  89 123 159 195 239 298 364
#     4  11  23  38  60  89 121 155 200 253 301 352
#     4  11  22  38  63  91 122 158 200 244 298 361
#     4  10  22  40  60  87 122 163 202 243 301 364
#     4  11  23  38  60  90 122 158 202 251 299 350
#     4  12  24  40  61  84 117 160 202 242 298 364
#
# _framework density 18.985257000000001
#
# number of rings (size 3 to 8) (size 9 to 14) (size 15 to 20)
#    0.000    1.167    3.333    3.500    0.000    3.333 
#    0.000    0.833    0.000    3.000    0.000    0.000 
#    0.000    0.000    0.000    0.000    0.000    0.000 
#
# Total GULP energy -595554.294535 kJ/mol
# GULP energy per Si atom -12407.381136 kJ/mol
# Density = 1.894205 g / cm^3
# Si number density = 18.985257 Si / 1000 Ang^3
#
#
#
# Elastic Constant Matrix: (Units=GPa)
#
#
# Indices 1 2 3 4 5 6 
#
# 1 106.8716 43.7229 51.1824 0.0000 0.0000 0.0000
# 2 43.7229 92.7244 42.6204 0.0000 0.0000 0.0000
# 3 51.1824 42.6204 123.6193 0.0000 0.0000 0.0000
# 4 0.0000 0.0000 0.0000 26.8100 0.0000 0.0000
# 5 0.0000 0.0000 0.0000 0.0000 29.2353 0.0000
# 6 0.0000 0.0000 0.0000 0.0000 0.0000 32.1630
#
#
#
# Elastic Compliance Matrix: (Units=1/GPa)
#
#
# Indices 1 2 3 4 5 6 
#
# 1 0.012993 -0.004342 -0.003882 0.000000 0.000000 0.000000
# 2 -0.004342 0.014267 -0.003121 0.000000 0.000000 0.000000
# 3 -0.003882 -0.003121 0.010773 0.000000 0.000000 0.000000
# 4 0.000000 0.000000 0.000000 0.037300 0.000000 0.000000
# 5 0.000000 0.000000 0.000000 0.000000 0.034205 0.000000
# 6 0.000000 0.000000 0.000000 0.000000 0.000000 0.031092
#
#
# Mechanical properties :
#
#
# Convention : Reuss Voigt Hill
#
# Bulk Modulus (GPa) = 65.18328 66.47408 65.82868
# Shear Modulus (GPa) = 29.68537 30.02098 29.85317
#
# Velocity S-wave (km/s) = 3.95853 3.98084 3.96970
# Velocity P-wave (km/s) = 7.43649 7.49793 7.46728
#
# Compressibility (1/GPa) = 0.01534136
#
# Stress axis : x y z
#
# Youngs Moduli (GPa) = 76.96598 70.09377 92.82612
#
# Poissons Ratio (x) = 0.30435 0.36039
# Poissons Ratio (y) = 0.33419 0.28971
# Poissons Ratio (z) = 0.29881 0.21876
#
# Static dielectric constant tensor:
#      x y z
#    x 3.509180 0.000000 0.000000 
#    y 0.000000 3.339000 0.000000 
#    z 0.000000 0.000000 3.604740 
# 
# 
# High freq. dielectric constant tensor:
#      x y z
#    x 1.746550 0.000000 0.000000 
#    y 0.000000 1.732110 0.000000 
#    z 0.000000 0.000000 1.743700 
# 
# From -- ./inp_files/60031.got.cif
#   From: 2010.03.12/outbox.cif.g09.slc.cpg/sg63_31_cif.got.tgz:60031.got - 2010.04.10 19:34:48.
