data_PCOD8259258
_publ_section_title
;
Structure prediction by ZEFSAII (Michael W. Deem and Ramdas Pophale) SiO2 
 PCOD8259258
Probable space group: C M C M
;
_chemical_formula_sum "Si O2"
_cell_formula_units_Z 96
_cell_length_a 8.845388
_cell_length_b 30.185982
_cell_length_c 18.969345
_cell_angle_alpha 90.000000
_cell_angle_beta 90.000000
_cell_angle_gamma 90.000000
_cell_volume 5064.942645
_symmetry_space_group_name_H-M "C M C M"
_symmetry_group_IT_number 63
_symmetry_cell_setting 'orthorhombic'
loop_
_space_group_symop_operation_xyz
x,y,z
-x,-y,1/2+z
x,-y,-z
-x,y,1/2-z
-x,-y,-z
x,y,1/2-z
-x,y,z
x,-y,1/2+z
1/2+x,1/2+y,z
1/2-x,1/2-y,1/2+z
1/2+x,1/2-y,-z
1/2-x,1/2+y,1/2-z
1/2-x,1/2-y,-z
1/2+x,1/2+y,1/2-z
1/2-x,1/2+y,z
1/2+x,1/2-y,1/2+z
loop_
_atom_site_type_symbol
_atom_site_label
_atom_site_fract_x
_atom_site_fract_y
_atom_site_fract_z
Si Si1 0.678122 0.863718 0.564460
Si Si2 0.674230 0.701854 0.668512
Si Si3 0.321295 0.530711 0.670536
Si Si4 0.821985 0.769785 0.929960
Si Si5 0.823356 0.114331 0.918898
Si Si6 0.822888 0.440371 0.830340
O O1 0.500000 0.854832 0.566246
O O2 0.764007 0.818974 0.583768
O O3 0.724283 0.881696 0.488441
O O4 0.729784 0.899283 0.622503
O O5 0.715093 0.696229 0.750000
O O6 0.500000 0.715438 0.657625
O O7 0.778746 0.740155 0.636916
O O8 0.710212 0.655731 0.631100
O O9 0.261015 0.538964 0.750000
O O10 0.500000 0.528142 0.670296
O O11 0.266002 0.570591 0.621197
O O12 0.256627 0.484684 0.640678
O O13 0.000000 0.770682 0.940640
O O14 0.750000 0.750000 0.000000
O O15 0.000000 0.111755 0.938694
O O16 0.773412 0.430508 0.750000
O O17 0.000000 0.448105 0.836652
#
# Coordination Sequence:
#
# PCOD8259258 Si02
#       6
#    16  16  16  16  16  16
#     4  11  23  38  59  85 113 150 194 241 292 348
#     4  10  21  38  61  88 118 154 194 236 286 345
#     4   9  18  34  57  84 114 150 192 236 284 338
#     4  12  24  40  61  85 116 153 194 239 292 348
#     4  10  20  35  57  85 118 154 190 233 285 346
#     4   9  20  39  59  80 110 150 195 239 286 341
#
# _framework density 18.953818999999999
#
# number of rings (size 3 to 8) (size 9 to 14) (size 15 to 20)
#    0.000    1.833    1.667    2.500    0.000    5.667 
#    0.000    5.000    0.000    3.000    0.000    0.000 
#    0.000    0.000    0.000    0.000    0.000    0.000 
#
# Total GULP energy -595410.327073 kJ/mol
# GULP energy per Si atom -12404.381814 kJ/mol
# Density = 1.891068 g / cm^3
# Si number density = 18.953819 Si / 1000 Ang^3
#
#
#
# Elastic Constant Matrix: (Units=GPa)
#
#
# Indices 1 2 3 4 5 6 
#
# 1 74.5781 58.7688 43.7429 0.0000 0.0000 0.0000
# 2 58.7688 170.2689 76.4636 0.0000 0.0000 0.0000
# 3 43.7429 76.4636 116.1329 0.0000 0.0000 0.0000
# 4 0.0000 0.0000 0.0000 56.5533 0.0000 0.0000
# 5 0.0000 0.0000 0.0000 0.0000 30.7005 0.0000
# 6 0.0000 0.0000 0.0000 0.0000 0.0000 34.7356
#
#
#
# Elastic Compliance Matrix: (Units=1/GPa)
#
#
# Indices 1 2 3 4 5 6 
#
# 1 0.019758 -0.004937 -0.004191 0.000000 0.000000 0.000000
# 2 -0.004937 0.009572 -0.004443 0.000000 0.000000 0.000000
# 3 -0.004191 -0.004443 0.013115 0.000000 0.000000 0.000000
# 4 0.000000 0.000000 0.000000 0.017682 0.000000 0.000000
# 5 0.000000 0.000000 0.000000 0.000000 0.032573 0.000000
# 6 0.000000 0.000000 0.000000 0.000000 0.000000 0.028789
#
#
# Mechanical properties :
#
#
# Convention : Reuss Voigt Hill
#
# Bulk Modulus (GPa) = 65.35060 79.88116 72.61588
# Shear Modulus (GPa) = 32.52403 36.53151 34.52777
#
# Velocity S-wave (km/s) = 4.14691 4.39497 4.27274
# Velocity P-wave (km/s) = 7.58175 8.24567 7.92067
#
# Compressibility (1/GPa) = 0.01530208
#
# Stress axis : x y z
#
# Youngs Moduli (GPa) = 50.61320 104.46730 76.24987
#
# Poissons Ratio (x) = 0.51578 0.31958
# Poissons Ratio (y) = 0.24989 0.33877
# Poissons Ratio (z) = 0.21213 0.46414
#
# Static dielectric constant tensor:
#      x y z
#    x 3.414010 0.000000 0.000000 
#    y 0.000000 3.685570 0.000000 
#    z 0.000000 0.000000 3.618260 
# 
# 
# High freq. dielectric constant tensor:
#      x y z
#    x 1.731020 0.000000 0.000000 
#    y 0.000000 1.750030 0.000000 
#    z 0.000000 0.000000 1.739170 
# 
# From -- ./inp_files/51413.got.cif
#   From: 2010.03.12/outbox.cif.g09.slc.cpg/sg63_26_cif.got.tgz:51413.got - 2010.04.10 19:34:48.
