data_PCOD8259035
_publ_section_title
;
Structure prediction by ZEFSAII (Michael W. Deem and Ramdas Pophale) SiO2 
 PCOD8259035
Probable space group: C M C M
;
_chemical_formula_sum "Si O2"
_cell_formula_units_Z 112
_cell_length_a 14.659079
_cell_length_b 12.176277
_cell_length_c 27.256516
_cell_angle_alpha 90.000000
_cell_angle_beta 90.000000
_cell_angle_gamma 90.000000
_cell_volume 4865.097487
_symmetry_space_group_name_H-M "C M C M"
_symmetry_group_IT_number 63
_symmetry_cell_setting 'orthorhombic'
loop_
_space_group_symop_operation_xyz
x,y,z
-x,-y,1/2+z
x,-y,-z
-x,y,1/2-z
-x,-y,-z
x,y,1/2-z
-x,y,z
x,-y,1/2+z
1/2+x,1/2+y,z
1/2-x,1/2-y,1/2+z
1/2+x,1/2-y,-z
1/2-x,1/2+y,1/2-z
1/2-x,1/2-y,-z
1/2+x,1/2+y,1/2-z
1/2-x,1/2+y,z
1/2+x,1/2-y,1/2+z
loop_
_atom_site_type_symbol
_atom_site_label
_atom_site_fract_x
_atom_site_fract_y
_atom_site_fract_z
Si Si1 0.607567 0.663106 0.518811
Si Si2 0.647954 0.382923 0.587137
Si Si3 0.393292 0.186227 0.649722
Si Si4 0.210542 0.755476 0.193442
Si Si5 0.600535 0.404344 0.376207
Si Si6 0.341341 0.061957 0.126671
Si Si7 0.399546 0.102087 0.026180
O O1 0.500000 0.670218 0.526997
O O2 0.627680 0.592221 0.470223
O O3 0.646641 0.618483 0.570410
O O4 0.651688 0.784775 0.512354
O O5 0.619441 0.257028 0.599726
O O6 0.591438 0.462896 0.623964
O O7 0.751370 0.416991 0.594928
O O8 0.500000 0.189498 0.667159
O O9 0.321264 0.243175 0.687626
O O10 0.360157 0.061198 0.644336
O O11 0.184408 0.764002 0.250000
O O12 0.168256 0.860530 0.165547
O O13 0.162619 0.644467 0.172974
O O14 0.500000 0.352684 0.367953
O O15 0.415224 0.091330 0.085217
O O16 0.500000 0.107353 0.002093
O O17 0.346991 0.000000 0.000000
#
# Coordination Sequence:
#
# PCOD8259035 Si02
#       7
#    16  16  16  16  16  16  16
#     4  10  20  35  60  93 136 187 233 276 335 419
#     4  11  23  40  66 102 143 183 229 280 345 420
#     4  11  24  46  74 104 140 183 234 293 360 427
#     4  11  26  48  71 102 137 177 235 300 359 418
#     4  11  22  42  67  97 139 185 235 290 350 418
#     4  11  23  42  67 100 138 183 229 292 347 420
#     4  10  20  34  56  93 141 188 233 285 345 415
#
# _framework density 23.02112
#
# number of rings (size 3 to 8) (size 9 to 14) (size 15 to 20)
#    0.000    1.286    2.857    3.000    0.000    5.714 
#    0.000    0.000    0.000    1.714    0.000    0.000 
#    0.000    0.000    0.000    0.000    0.000    0.000 
#
# Total GULP energy -693746.039157 kJ/mol
# GULP energy per Si atom -12388.322128 kJ/mol
# Density = 2.296872 g / cm^3
# Si number density = 23.021120 Si / 1000 Ang^3
#
#
#
# Elastic Constant Matrix: (Units=GPa)
#
#
# Indices 1 2 3 4 5 6 
#
# 1 86.6519 32.4851 33.6461 0.0000 0.0000 0.0000
# 2 32.4851 123.1461 45.2281 0.0000 0.0000 0.0000
# 3 33.6461 45.2281 161.5833 0.0000 0.0000 0.0000
# 4 0.0000 0.0000 0.0000 26.3285 0.0000 0.0000
# 5 0.0000 0.0000 0.0000 0.0000 20.0434 0.0000
# 6 0.0000 0.0000 0.0000 0.0000 0.0000 24.3040
#
#
#
# Elastic Compliance Matrix: (Units=1/GPa)
#
#
# Indices 1 2 3 4 5 6 
#
# 1 0.013364 -0.002790 -0.002002 0.000000 0.000000 0.000000
# 2 -0.002790 0.009633 -0.002115 0.000000 0.000000 0.000000
# 3 -0.002002 -0.002115 0.007198 0.000000 0.000000 0.000000
# 4 0.000000 0.000000 0.000000 0.037982 0.000000 0.000000
# 5 0.000000 0.000000 0.000000 0.000000 0.049892 0.000000
# 6 0.000000 0.000000 0.000000 0.000000 0.000000 0.041146
#
#
# Mechanical properties :
#
#
# Convention : Reuss Voigt Hill
#
# Bulk Modulus (GPa) = 61.04920 66.01107 63.53013
# Shear Modulus (GPa) = 28.01307 31.46999 29.74153
#
# Velocity S-wave (km/s) = 3.49211 3.70131 3.59823
# Velocity P-wave (km/s) = 6.54493 6.85585 6.70219
#
# Compressibility (1/GPa) = 0.01638023
#
# Stress axis : x y z
#
# Youngs Moduli (GPa) = 74.82983 103.80569 138.93317
#
# Poissons Ratio (x) = 0.28962 0.27811
# Poissons Ratio (y) = 0.20878 0.29391
# Poissons Ratio (z) = 0.14979 0.21960
#
# Static dielectric constant tensor:
#      x y z
#    x 4.192640 0.000000 0.000000 
#    y 0.000000 4.522160 0.000000 
#    z 0.000000 0.000000 3.717930 
# 
# 
# High freq. dielectric constant tensor:
#      x y z
#    x 1.908480 0.000000 0.000000 
#    y 0.000000 1.927960 0.000000 
#    z 0.000000 0.000000 1.869600 
# 
# From -- ./inp_files/73441.got.cif
#   From: 2010.03.12/outbox.cif.g09.slc.cpg/sg63_37_cif.got.tgz:73441.got - 2010.04.10 19:34:48.
