data_PCOD8259738
_publ_section_title
;
Structure prediction by ZEFSAII (Michael W. Deem and Ramdas Pophale) SiO2 
 PCOD8259738
Probable space group: C M C M
;
_chemical_formula_sum "Si O2"
_cell_formula_units_Z 96
_cell_length_a 20.028415
_cell_length_b 14.034154
_cell_length_c 17.741085
_cell_angle_alpha 90.000000
_cell_angle_beta 90.000000
_cell_angle_gamma 90.000000
_cell_volume 4986.697179
_symmetry_space_group_name_H-M "C M C M"
_symmetry_group_IT_number 63
_symmetry_cell_setting 'orthorhombic'
loop_
_space_group_symop_operation_xyz
x,y,z
-x,-y,1/2+z
x,-y,-z
-x,y,1/2-z
-x,-y,-z
x,y,1/2-z
-x,y,z
x,-y,1/2+z
1/2+x,1/2+y,z
1/2-x,1/2-y,1/2+z
1/2+x,1/2-y,-z
1/2-x,1/2+y,1/2-z
1/2-x,1/2-y,-z
1/2+x,1/2+y,1/2-z
1/2-x,1/2+y,z
1/2+x,1/2-y,1/2+z
loop_
_atom_site_type_symbol
_atom_site_label
_atom_site_fract_x
_atom_site_fract_y
_atom_site_fract_z
Si Si1 0.424064 0.575894 0.663316
Si Si2 0.306788 0.559151 0.336767
Si Si3 0.808099 0.761004 0.939463
Si Si4 0.923261 0.245046 0.947758
Si Si5 0.077181 0.539046 0.081360
Si Si6 0.683967 0.077361 0.836405
O O1 0.411893 0.603765 0.750000
O O2 0.500000 0.543558 0.648221
O O3 0.377487 0.487666 0.639967
O O4 0.405336 0.669599 0.616673
O O5 0.307360 0.592401 0.250000
O O6 0.291488 0.648703 0.388502
O O7 0.250481 0.481534 0.352262
O O8 0.813192 0.669580 0.887513
O O9 0.750000 0.750000 0.000000
O O10 0.879031 0.776381 0.979389
O O11 0.907722 0.348805 0.913813
O O12 0.000000 0.238035 0.973891
O O13 0.119693 0.486747 0.145072
O O14 0.000000 0.515820 0.097070
O O15 0.099333 0.500000 0.000000
O O16 0.678816 0.109582 0.750000
#
# Coordination Sequence:
#
# PCOD8259738 Si02
#       6
#    16  16  16  16  16  16
#     4   9  19  38  61  85 116 153 195 242 290 342
#     4  10  23  41  60  84 116 153 193 241 294 348
#     4  12  24  38  60  86 115 154 196 237 294 356
#     4  10  21  36  59  89 117 150 192 242 290 340
#     4  10  20  38  61  85 118 155 193 238 290 349
#     4  11  24  40  59  85 118 153 195 245 294 351
#
# _framework density 19.251218999999999
#
# number of rings (size 3 to 8) (size 9 to 14) (size 15 to 20)
#    0.000    1.667    1.667    2.500    0.000    3.667 
#    0.000    7.500    0.000    3.000    0.000    0.000 
#    0.000    0.000    0.000    0.000    0.000    0.000 
#
# Total GULP energy -595449.776124 kJ/mol
# GULP energy per Si atom -12405.203669 kJ/mol
# Density = 1.920740 g / cm^3
# Si number density = 19.251219 Si / 1000 Ang^3
#
#
#
# Elastic Constant Matrix: (Units=GPa)
#
#
# Indices 1 2 3 4 5 6 
#
# 1 97.6316 37.3303 58.2792 0.0000 0.0000 0.0000
# 2 37.3303 87.3344 57.0660 0.0000 0.0000 0.0000
# 3 58.2792 57.0660 97.0447 0.0000 0.0000 0.0000
# 4 0.0000 0.0000 0.0000 44.8887 0.0000 0.0000
# 5 0.0000 0.0000 0.0000 0.0000 35.2516 0.0000
# 6 0.0000 0.0000 0.0000 0.0000 0.0000 22.6679
#
#
#
# Elastic Compliance Matrix: (Units=1/GPa)
#
#
# Indices 1 2 3 4 5 6 
#
# 1 0.016011 -0.000911 -0.009079 0.000000 0.000000 0.000000
# 2 -0.000911 0.018647 -0.010418 0.000000 0.000000 0.000000
# 3 -0.009079 -0.010418 0.021883 0.000000 0.000000 0.000000
# 4 0.000000 0.000000 0.000000 0.022277 0.000000 0.000000
# 5 0.000000 0.000000 0.000000 0.000000 0.028367 0.000000
# 6 0.000000 0.000000 0.000000 0.000000 0.000000 0.044115
#
#
# Mechanical properties :
#
#
# Convention : Reuss Voigt Hill
#
# Bulk Modulus (GPa) = 63.59657 65.26242 64.42949
# Shear Modulus (GPa) = 25.33453 29.18399 27.25926
#
# Velocity S-wave (km/s) = 3.63160 3.89775 3.76703
# Velocity P-wave (km/s) = 7.11980 7.36414 7.24300
#
# Compressibility (1/GPa) = 0.01572412
#
# Stress axis : x y z
#
# Youngs Moduli (GPa) = 62.45849 53.62792 45.69705
#
# Poissons Ratio (x) = 0.04885 0.41490
# Poissons Ratio (y) = 0.05690 0.47607
# Poissons Ratio (z) = 0.56708 0.55870
#
# Static dielectric constant tensor:
#      x y z
#    x 3.734090 0.000000 0.000000 
#    y 0.000000 3.526940 0.000000 
#    z 0.000000 0.000000 3.488910 
# 
# 
# High freq. dielectric constant tensor:
#      x y z
#    x 1.763720 0.000000 0.000000 
#    y 0.000000 1.754160 0.000000 
#    z 0.000000 0.000000 1.748020 
# 
# From -- ./inp_files/35319.got.cif
#   From: 2010.03.12/outbox.cif.g09.slc.cpg/sg63_18_cif.got.tgz:35319.got - 2010.04.10 19:34:48.
