data_PCOD8259259
_publ_section_title
;
Structure prediction by ZEFSAII (Michael W. Deem and Ramdas Pophale) SiO2 
 PCOD8259259
Probable space group: C M C M
;
_chemical_formula_sum "Si O2"
_cell_formula_units_Z 96
_cell_length_a 8.827322
_cell_length_b 20.175240
_cell_length_c 24.800447
_cell_angle_alpha 90.000000
_cell_angle_beta 90.000000
_cell_angle_gamma 90.000000
_cell_volume 4416.794437
_symmetry_space_group_name_H-M "C M C M"
_symmetry_group_IT_number 63
_symmetry_cell_setting 'orthorhombic'
loop_
_space_group_symop_operation_xyz
x,y,z
-x,-y,1/2+z
x,-y,-z
-x,y,1/2-z
-x,-y,-z
x,y,1/2-z
-x,y,z
x,-y,1/2+z
1/2+x,1/2+y,z
1/2-x,1/2-y,1/2+z
1/2+x,1/2-y,-z
1/2-x,1/2+y,1/2-z
1/2-x,1/2-y,-z
1/2+x,1/2+y,1/2-z
1/2-x,1/2+y,z
1/2+x,1/2-y,1/2+z
loop_
_atom_site_type_symbol
_atom_site_label
_atom_site_fract_x
_atom_site_fract_y
_atom_site_fract_z
Si Si1 0.831976 0.218101 0.549057
Si Si2 0.826412 0.851496 0.309632
Si Si3 0.677677 0.535011 0.610733
Si Si4 0.167243 0.081377 0.002546
Si Si5 0.177335 0.229778 0.349615
Si Si6 0.322248 0.902002 0.886865
O O1 0.750000 0.250000 0.500000
O O2 0.850459 0.140324 0.540701
O O3 0.717433 0.230287 0.596934
O O4 0.000000 0.249505 0.559097
O O5 0.814865 0.884366 0.250000
O O6 0.759190 0.901634 0.355497
O O7 0.738899 0.780843 0.304755
O O8 0.000000 0.835320 0.325116
O O9 0.500000 0.530988 0.620423
O O10 0.716408 0.527063 0.544401
O O11 0.755932 0.470506 0.636529
O O12 0.000000 0.066303 0.027689
O O13 0.280882 0.104238 0.049426
O O14 0.255729 0.157802 0.351011
O O15 0.000000 0.218120 0.342866
O O16 0.500000 0.901757 0.880337
#
# Coordination Sequence:
#
# PCOD8259259 Si02
#       6
#    16  16  16  16  16  16
#     4  11  20  33  55  86 122 162 204 246 298 355
#     4  10  22  44  72  96 118 150 197 254 313 372
#     4  10  21  40  62  88 124 164 202 244 305 371
#     4  10  20  35  57  85 123 166 205 244 296 363
#     4  12  24  39  61  88 123 162 204 253 303 358
#     4  12  25  38  57  88 127 167 209 252 301 357
#
# _framework density 21.735220999999999
#
# number of rings (size 3 to 8) (size 9 to 14) (size 15 to 20)
#    0.000    1.167    3.333    4.000    0.000    4.333 
#    0.000    0.833    0.000    3.000    0.000    0.000 
#    0.000    0.000    0.000    0.000    0.000    0.000 
#
# Total GULP energy -594759.152915 kJ/mol
# GULP energy per Si atom -12390.815686 kJ/mol
# Density = 2.168575 g / cm^3
# Si number density = 21.735221 Si / 1000 Ang^3
#
#
#
# Elastic Constant Matrix: (Units=GPa)
#
#
# Indices 1 2 3 4 5 6 
#
# 1 113.0620 47.9789 23.8027 0.0000 0.0000 0.0000
# 2 47.9789 121.2218 15.8030 0.0000 0.0000 0.0000
# 3 23.8027 15.8030 77.4596 0.0000 0.0000 0.0000
# 4 0.0000 0.0000 0.0000 25.4863 0.0000 0.0000
# 5 0.0000 0.0000 0.0000 0.0000 19.7543 0.0000
# 6 0.0000 0.0000 0.0000 0.0000 0.0000 34.2853
#
#
#
# Elastic Compliance Matrix: (Units=1/GPa)
#
#
# Indices 1 2 3 4 5 6 
#
# 1 0.011113 -0.004061 -0.002586 0.000000 0.000000 0.000000
# 2 -0.004061 0.009959 -0.000784 0.000000 0.000000 0.000000
# 3 -0.002586 -0.000784 0.013865 0.000000 0.000000 0.000000
# 4 0.000000 0.000000 0.000000 0.039237 0.000000 0.000000
# 5 0.000000 0.000000 0.000000 0.000000 0.050622 0.000000
# 6 0.000000 0.000000 0.000000 0.000000 0.000000 0.029167
#
#
# Mechanical properties :
#
#
# Convention : Reuss Voigt Hill
#
# Bulk Modulus (GPa) = 49.81660 54.10139 51.95900
# Shear Modulus (GPa) = 28.48751 30.84909 29.66830
#
# Velocity S-wave (km/s) = 3.62423 3.77146 3.69858
# Velocity P-wave (km/s) = 6.36262 6.62649 6.49590
#
# Compressibility (1/GPa) = 0.02007363
#
# Stress axis : x y z
#
# Youngs Moduli (GPa) = 89.98818 100.41267 72.12614
#
# Poissons Ratio (x) = 0.40779 0.18654
# Poissons Ratio (y) = 0.36545 0.05653
# Poissons Ratio (z) = 0.23273 0.07871
#
# Static dielectric constant tensor:
#      x y z
#    x 3.690090 0.000000 0.000000 
#    y 0.000000 3.269670 0.000000 
#    z 0.000000 0.000000 3.626640 
# 
# 
# High freq. dielectric constant tensor:
#      x y z
#    x 1.834740 0.000000 0.000000 
#    y 0.000000 1.883570 0.000000 
#    z 0.000000 0.000000 1.831920 
# 
# From -- ./inp_files/66952.got.cif
#   From: 2010.03.12/outbox.cif.g09.slc.cpg/sg63_34_cif.got.tgz:66952.got - 2010.04.10 19:34:48.
