data_PCOD8259018
_publ_section_title
;
Structure prediction by ZEFSAII (Michael W. Deem and Ramdas Pophale) SiO2 
 PCOD8259018
Probable space group: C M C M
;
_chemical_formula_sum "Si O2"
_cell_formula_units_Z 112
_cell_length_a 28.314924
_cell_length_b 11.195349
_cell_length_c 18.389148
_cell_angle_alpha 90.000000
_cell_angle_beta 90.000000
_cell_angle_gamma 90.000000
_cell_volume 5829.276357
_symmetry_space_group_name_H-M "C M C M"
_symmetry_group_IT_number 63
_symmetry_cell_setting 'orthorhombic'
loop_
_space_group_symop_operation_xyz
x,y,z
-x,-y,1/2+z
x,-y,-z
-x,y,1/2-z
-x,-y,-z
x,y,1/2-z
-x,y,z
x,-y,1/2+z
1/2+x,1/2+y,z
1/2-x,1/2-y,1/2+z
1/2+x,1/2-y,-z
1/2-x,1/2+y,1/2-z
1/2-x,1/2-y,-z
1/2+x,1/2+y,1/2-z
1/2-x,1/2+y,z
1/2+x,1/2-y,1/2+z
loop_
_atom_site_type_symbol
_atom_site_label
_atom_site_fract_x
_atom_site_fract_y
_atom_site_fract_z
Si Si1 0.110932 0.678162 0.609383
Si Si2 0.553227 0.834455 0.533512
Si Si3 0.947300 0.937424 0.071298
Si Si4 0.445677 0.982030 0.829080
Si Si5 0.726257 0.429027 0.664995
Si Si6 0.619359 0.430629 0.664546
Si Si7 0.785023 0.659832 0.662867
O O1 0.090341 0.639581 0.530635
O O2 0.084218 0.603179 0.670800
O O3 0.098708 0.815694 0.623392
O O4 0.166635 0.655118 0.617462
O O5 0.500000 0.876117 0.510515
O O6 0.551177 0.700097 0.556894
O O7 0.572406 0.900083 0.605310
O O8 0.000000 0.986867 0.087980
O O9 0.913405 0.959840 0.140139
O O10 0.925791 0.000000 0.000000
O O11 0.437692 0.919839 0.750000
O O12 0.500000 0.015149 0.840000
O O13 0.731132 0.441773 0.750000
O O14 0.672923 0.454138 0.639520
O O15 0.756994 0.541398 0.634093
O O16 0.740132 0.289964 0.643832
O O17 0.616670 0.410806 0.750000
O O18 0.794579 0.656914 0.750000
#
# Coordination Sequence:
#
# PCOD8259018 Si02
#       7
#    16  16  16  16  16  16  16
#     4  11  19  33  57  85 114 144 185 232 281 335
#     4  10  21  37  57  79 112 157 193 224 276 341
#     4  10  20  36  55  77 108 150 192 225 270 336
#     4  10  21  36  54  80 113 147 187 233 279 329
#     4   8  16  32  53  79 111 147 185 228 284 343
#     4  10  20  34  56  85 113 143 186 237 285 331
#     4   9  17  32  55  82 114 148 186 233 284 341
#
# _framework density 19.213362
#
# number of rings (size 3 to 8) (size 9 to 14) (size 15 to 20)
#    0.000    2.286    1.429    3.000    0.000    2.571 
#    2.571    1.429    0.000    2.571    0.000    0.000 
#    0.000    0.000    0.000    0.000    0.000    0.000 
#
# Total GULP energy -693813.189856 kJ/mol
# GULP energy per Si atom -12389.521247 kJ/mol
# Density = 1.916963 g / cm^3
# Si number density = 19.213362 Si / 1000 Ang^3
#
#
#
# Elastic Constant Matrix: (Units=GPa)
#
#
# Indices 1 2 3 4 5 6 
#
# 1 81.2161 50.4524 49.0867 0.0000 0.0000 0.0000
# 2 50.4524 108.9405 37.3554 0.0000 0.0000 0.0000
# 3 49.0867 37.3554 86.4771 0.0000 0.0000 0.0000
# 4 0.0000 0.0000 0.0000 23.0525 0.0000 0.0000
# 5 0.0000 0.0000 0.0000 0.0000 15.7457 0.0000
# 6 0.0000 0.0000 0.0000 0.0000 0.0000 34.5371
#
#
#
# Elastic Compliance Matrix: (Units=1/GPa)
#
#
# Indices 1 2 3 4 5 6 
#
# 1 0.022658 -0.007141 -0.009776 0.000000 0.000000 0.000000
# 2 -0.007141 0.013026 -0.001573 0.000000 0.000000 0.000000
# 3 -0.009776 -0.001573 0.017793 0.000000 0.000000 0.000000
# 4 0.000000 0.000000 0.000000 0.043379 0.000000 0.000000
# 5 0.000000 0.000000 0.000000 0.000000 0.063509 0.000000
# 6 0.000000 0.000000 0.000000 0.000000 0.000000 0.028954
#
#
# Mechanical properties :
#
#
# Convention : Reuss Voigt Hill
#
# Bulk Modulus (GPa) = 60.62498 61.15809 60.89153
# Shear Modulus (GPa) = 21.57041 23.98303 22.77672
#
# Velocity S-wave (km/s) = 3.35427 3.53689 3.44679
# Velocity P-wave (km/s) = 6.82815 6.96990 6.89939
#
# Compressibility (1/GPa) = 0.01649485
#
# Stress axis : x y z
#
# Youngs Moduli (GPa) = 44.13517 76.76991 56.20254
#
# Poissons Ratio (x) = 0.54821 0.54946
# Poissons Ratio (y) = 0.31516 0.08843
# Poissons Ratio (z) = 0.43149 0.12079
#
# Static dielectric constant tensor:
#      x y z
#    x 3.543340 0.000000 0.000000 
#    y 0.000000 4.344210 0.000000 
#    z 0.000000 0.000000 2.793760 
# 
# 
# High freq. dielectric constant tensor:
#      x y z
#    x 1.732350 0.000000 0.000000 
#    y 0.000000 1.758760 0.000000 
#    z 0.000000 0.000000 1.729340 
# 
# From -- ./inp_files/58318.got.cif
#   From: 2010.03.12/outbox.cif.g09.slc.cpg/sg63_30_cif.got.tgz:58318.got - 2010.04.10 19:34:48.
