data_PCOD8259522
_publ_section_title
;
Structure prediction by ZEFSAII (Michael W. Deem and Ramdas Pophale) SiO2 
 PCOD8259522
Probable space group: C M C M
;
_chemical_formula_sum "Si O2"
_cell_formula_units_Z 80
_cell_length_a 17.729456
_cell_length_b 9.530750
_cell_length_c 24.392515
_cell_angle_alpha 90.000000
_cell_angle_beta 90.000000
_cell_angle_gamma 90.000000
_cell_volume 4121.725534
_symmetry_space_group_name_H-M "C M C M"
_symmetry_group_IT_number 63
_symmetry_cell_setting 'orthorhombic'
loop_
_space_group_symop_operation_xyz
x,y,z
-x,-y,1/2+z
x,-y,-z
-x,y,1/2-z
-x,-y,-z
x,y,1/2-z
-x,y,z
x,-y,1/2+z
1/2+x,1/2+y,z
1/2-x,1/2-y,1/2+z
1/2+x,1/2-y,-z
1/2-x,1/2+y,1/2-z
1/2-x,1/2-y,-z
1/2+x,1/2+y,1/2-z
1/2-x,1/2+y,z
1/2+x,1/2-y,1/2+z
loop_
_atom_site_type_symbol
_atom_site_label
_atom_site_fract_x
_atom_site_fract_y
_atom_site_fract_z
Si Si1 0.775752 0.629417 0.538978
Si Si2 0.413273 0.144519 0.614264
Si Si3 0.165317 0.839247 0.688884
Si Si4 0.088730 0.622286 0.312723
Si Si5 0.198334 0.149029 0.847959
O O1 0.769898 0.500000 0.500000
O O2 0.750000 0.750000 0.500000
O O3 0.861532 0.646164 0.560262
O O4 0.716940 0.619807 0.588787
O O5 0.500000 0.132883 0.595876
O O6 0.400623 0.289596 0.647575
O O7 0.387563 0.015698 0.653255
O O8 0.133871 0.821689 0.750000
O O9 0.236618 0.738515 0.680721
O O10 0.188559 0.999759 0.680662
O O11 0.117993 0.606546 0.250000
O O12 0.122550 0.759797 0.341914
O O13 0.000000 0.642433 0.313606
#
# Coordination Sequence:
#
# PCOD8259522 Si02
#       5
#    16  16  16  16  16
#     4  11  22  39  60  81 108 146 192 243 291 328
#     4  10  22  39  59  86 115 146 189 235 283 343
#     4  11  21  34  57  85 117 153 186 229 281 341
#     4  10  20  36  59  87 122 157 185 224 281 343
#     4  11  22  37  56  84 116 150 197 238 278 336
#
# _framework density 19.409347
#
# number of rings (size 3 to 8) (size 9 to 14) (size 15 to 20)
#    0.000    1.400    0.000    8.400    0.000    2.400 
#    0.000    1.000    0.000    2.400    0.000    0.000 
#    0.000    0.000    0.000    0.000    0.000    0.000 
#
# Total GULP energy -496013.530245 kJ/mol
# GULP energy per Si atom -12400.338256 kJ/mol
# Density = 1.936517 g / cm^3
# Si number density = 19.409347 Si / 1000 Ang^3
#
#
#
# Elastic Constant Matrix: (Units=GPa)
#
#
# Indices 1 2 3 4 5 6 
#
# 1 74.3101 55.8880 52.0957 0.0000 0.0000 0.0000
# 2 55.8880 139.0921 46.8656 0.0000 0.0000 0.0000
# 3 52.0957 46.8656 134.1072 0.0000 0.0000 0.0000
# 4 0.0000 0.0000 0.0000 42.8550 0.0000 0.0000
# 5 0.0000 0.0000 0.0000 0.0000 28.0014 0.0000
# 6 0.0000 0.0000 0.0000 0.0000 0.0000 29.4783
#
#
#
# Elastic Compliance Matrix: (Units=1/GPa)
#
#
# Indices 1 2 3 4 5 6 
#
# 1 0.023529 -0.007225 -0.006615 0.000000 0.000000 0.000000
# 2 -0.007225 0.010368 -0.000816 0.000000 0.000000 0.000000
# 3 -0.006615 -0.000816 0.010312 0.000000 0.000000 0.000000
# 4 0.000000 0.000000 0.000000 0.023334 0.000000 0.000000
# 5 0.000000 0.000000 0.000000 0.000000 0.035712 0.000000
# 6 0.000000 0.000000 0.000000 0.000000 0.000000 0.033923
#
#
# Mechanical properties :
#
#
# Convention : Reuss Voigt Hill
#
# Bulk Modulus (GPa) = 67.13747 73.02311 70.08029
# Shear Modulus (GPa) = 29.16196 32.91097 31.03647
#
# Velocity S-wave (km/s) = 3.88038 4.12226 4.00315
# Velocity P-wave (km/s) = 7.39877 7.76928 7.58629
#
# Compressibility (1/GPa) = 0.01489481
#
# Stress axis : x y z
#
# Youngs Moduli (GPa) = 42.50150 96.45395 96.97672
#
# Poissons Ratio (x) = 0.69688 0.64151
# Poissons Ratio (y) = 0.30708 0.07918
# Poissons Ratio (z) = 0.28115 0.07875
#
# Static dielectric constant tensor:
#      x y z
#    x 3.586550 0.000000 0.000000 
#    y 0.000000 3.749600 0.000000 
#    z 0.000000 0.000000 4.260570 
# 
# 
# High freq. dielectric constant tensor:
#      x y z
#    x 1.748380 0.000000 0.000000 
#    y 0.000000 1.769630 0.000000 
#    z 0.000000 0.000000 1.760230 
# 
# From -- ./inp_files/69724.got.cif
#   From: 2010.03.12/outbox.cif.g09.slc.cpg/sg63_35_cif.got.tgz:69724.got - 2010.04.10 19:34:48.
