data_PCOD8259414
_publ_section_title
;
Structure prediction by ZEFSAII (Michael W. Deem and Ramdas Pophale) SiO2 
 PCOD8259414
Probable space group: C M C M
;
_chemical_formula_sum "Si O2"
_cell_formula_units_Z 96
_cell_length_a 26.998636
_cell_length_b 10.163812
_cell_length_c 17.896171
_cell_angle_alpha 90.000000
_cell_angle_beta 90.000000
_cell_angle_gamma 90.000000
_cell_volume 4910.871472
_symmetry_space_group_name_H-M "C M C M"
_symmetry_group_IT_number 63
_symmetry_cell_setting 'orthorhombic'
loop_
_space_group_symop_operation_xyz
x,y,z
-x,-y,1/2+z
x,-y,-z
-x,y,1/2-z
-x,-y,-z
x,y,1/2-z
-x,y,z
x,-y,1/2+z
1/2+x,1/2+y,z
1/2-x,1/2-y,1/2+z
1/2+x,1/2-y,-z
1/2-x,1/2+y,1/2-z
1/2-x,1/2-y,-z
1/2+x,1/2+y,1/2-z
1/2-x,1/2+y,z
1/2+x,1/2-y,1/2+z
loop_
_atom_site_type_symbol
_atom_site_label
_atom_site_fract_x
_atom_site_fract_y
_atom_site_fract_z
Si Si1 0.897519 0.103252 0.086256
Si Si2 0.443185 0.344395 0.431974
Si Si3 0.731752 0.204339 0.838958
Si Si4 0.621534 0.142174 0.836960
Si Si5 0.943127 0.594401 0.337493
Si Si6 0.784199 0.028140 0.084705
O O1 0.905698 0.221541 0.143731
O O2 0.842566 0.046257 0.089111
O O3 0.935017 0.985692 0.108127
O O4 0.907976 0.160294 0.003925
O O5 0.500000 0.330582 0.456725
O O6 0.427170 0.229562 0.376332
O O7 0.734326 0.229148 0.750000
O O8 0.678260 0.147008 0.864271
O O9 0.742472 0.341806 0.881652
O O10 0.771959 0.097542 0.863807
O O11 0.618712 0.121914 0.750000
O O12 0.591661 0.019684 0.872551
O O13 0.934571 0.614900 0.250000
O O14 0.000000 0.557399 0.354821
O O15 0.766133 0.000000 0.000000
#
# Coordination Sequence:
#
# PCOD8259414 Si02
#       6
#    16  16  16  16  16  16
#     4  10  20  36  57  82 113 144 187 229 280 336
#     4  10  20  36  57  81 115 149 185 233 281 339
#     4  10  22  39  59  85 116 154 194 237 289 348
#     4   9  20  38  56  80 113 147 185 232 281 337
#     4   9  19  36  57  82 112 147 189 235 283 337
#     4  11  21  39  60  84 116 149 193 241 289 340
#
# _framework density 19.548463999999999
#
# number of rings (size 3 to 8) (size 9 to 14) (size 15 to 20)
#    0.000    2.167    1.667    2.000    0.000    4.667 
#    6.000    3.333    0.000    0.000    0.000    0.000 
#    0.000    0.000    0.000    0.000    0.000    0.000 
#
# Total GULP energy -595147.590737 kJ/mol
# GULP energy per Si atom -12398.908140 kJ/mol
# Density = 1.950397 g / cm^3
# Si number density = 19.548464 Si / 1000 Ang^3
#
#
#
# Elastic Constant Matrix: (Units=GPa)
#
#
# Indices 1 2 3 4 5 6 
#
# 1 64.2851 52.1124 33.9266 0.0000 0.0000 0.0000
# 2 52.1124 146.7945 50.2086 0.0000 0.0000 0.0000
# 3 33.9266 50.2086 49.1116 0.0000 0.0000 0.0000
# 4 0.0000 0.0000 0.0000 40.7945 0.0000 0.0000
# 5 0.0000 0.0000 0.0000 0.0000 25.1076 0.0000
# 6 0.0000 0.0000 0.0000 0.0000 0.0000 39.3060
#
#
#
# Elastic Compliance Matrix: (Units=1/GPa)
#
#
# Indices 1 2 3 4 5 6 
#
# 1 0.026549 -0.004847 -0.013385 0.000000 0.000000 0.000000
# 2 -0.004847 0.011360 -0.008266 0.000000 0.000000 0.000000
# 3 -0.013385 -0.008266 0.038058 0.000000 0.000000 0.000000
# 4 0.000000 0.000000 0.000000 0.024513 0.000000 0.000000
# 5 0.000000 0.000000 0.000000 0.000000 0.039829 0.000000
# 6 0.000000 0.000000 0.000000 0.000000 0.000000 0.025441
#
#
# Mechanical properties :
#
#
# Convention : Reuss Voigt Hill
#
# Bulk Modulus (GPa) = 43.53034 59.18737 51.35886
# Shear Modulus (GPa) = 22.08461 29.30451 25.69456
#
# Velocity S-wave (km/s) = 3.36480 3.87598 3.62940
# Velocity P-wave (km/s) = 6.11654 7.09746 6.62518
#
# Compressibility (1/GPa) = 0.02297248
#
# Stress axis : x y z
#
# Youngs Moduli (GPa) = 37.66675 88.02867 26.27542
#
# Poissons Ratio (x) = 0.42665 0.35170
# Poissons Ratio (y) = 0.18256 0.21718
# Poissons Ratio (z) = 0.50417 0.72761
#
# Static dielectric constant tensor:
#      x y z
#    x 3.582210 0.000000 0.000000 
#    y 0.000000 3.888520 0.000000 
#    z 0.000000 0.000000 3.458970 
# 
# 
# High freq. dielectric constant tensor:
#      x y z
#    x 1.755700 0.000000 0.000000 
#    y 0.000000 1.776260 0.000000 
#    z 0.000000 0.000000 1.749380 
# 
# From -- ./inp_files/58098.got.cif
#   From: 2010.03.12/outbox.cif.g09.slc.cpg/sg63_30_cif.got.tgz:58098.got - 2010.04.10 19:34:48.
