data_PCOD8259055
_publ_section_title
;
Structure prediction by ZEFSAII (Michael W. Deem and Ramdas Pophale) SiO2 
 PCOD8259055
Probable space group: C M C M
;
_chemical_formula_sum "Si O2"
_cell_formula_units_Z 80
_cell_length_a 10.297659
_cell_length_b 14.868969
_cell_length_c 26.350919
_cell_angle_alpha 90.000000
_cell_angle_beta 90.000000
_cell_angle_gamma 90.000000
_cell_volume 4034.736047
_symmetry_space_group_name_H-M "C M C M"
_symmetry_group_IT_number 63
_symmetry_cell_setting 'orthorhombic'
loop_
_space_group_symop_operation_xyz
x,y,z
-x,-y,1/2+z
x,-y,-z
-x,y,1/2-z
-x,-y,-z
x,y,1/2-z
-x,y,z
x,-y,1/2+z
1/2+x,1/2+y,z
1/2-x,1/2-y,1/2+z
1/2+x,1/2-y,-z
1/2-x,1/2+y,1/2-z
1/2-x,1/2-y,-z
1/2+x,1/2+y,1/2-z
1/2-x,1/2+y,z
1/2+x,1/2-y,1/2+z
loop_
_atom_site_type_symbol
_atom_site_label
_atom_site_fract_x
_atom_site_fract_y
_atom_site_fract_z
Si Si1 0.751070 0.479342 0.117718
Si Si2 0.500000 0.985258 0.059769
Si Si3 0.232291 0.266566 0.115282
Si Si4 0.000000 0.757227 0.065956
Si Si5 0.000000 0.966044 0.443938
Si Si6 0.000000 0.283924 0.048044
Si Si7 0.847661 0.119074 0.308344
O O1 0.871496 0.523608 0.087004
O O2 0.764757 0.372868 0.128502
O O3 0.626425 0.502194 0.083975
O O4 0.732797 0.533944 0.169881
O O5 0.500000 0.881158 0.072666
O O6 0.500000 0.000000 0.000000
O O7 0.373284 0.231744 0.098012
O O8 0.131746 0.239238 0.070010
O O9 0.191590 0.212886 0.165339
O O10 0.000000 0.860124 0.051401
O O11 0.000000 0.705167 0.012527
O O12 0.000000 0.000000 0.500000
O O13 0.808277 0.128770 0.250000
O O14 0.000000 0.100617 0.315074
#
# Coordination Sequence:
#
# PCOD8259055 Si02
#       7
#    16   8  16   8   8   8  16
#     4  10  22  40  60  91 129 161 205 263 310 371
#     4  10  22  36  56  87 129 170 198 242 317 376
#     4  10  22  40  60  91 130 160 203 262 312 368
#     4  10  22  34  58  91 127 166 204 250 313 366
#     4  10  20  34  58  91 123 168 210 248 307 366
#     4  10  20  36  56  87 123 174 206 236 303 378
#     4  11  24  43  71  94 115 167 222 263 316 368
#
# _framework density 19.827815999999999
#
# number of rings (size 3 to 8) (size 9 to 14) (size 15 to 20)
#    0.000    1.800    2.000    1.200    5.600    0.800 
#    0.000    2.000    0.000    0.000    0.000    0.000 
#    0.000    0.000    0.000    0.000    0.000    0.000 
#
# Total GULP energy -495933.064113 kJ/mol
# GULP energy per Si atom -12398.326603 kJ/mol
# Density = 1.978269 g / cm^3
# Si number density = 19.827816 Si / 1000 Ang^3
#
#
#
# Elastic Constant Matrix: (Units=GPa)
#
#
# Indices 1 2 3 4 5 6 
#
# 1 159.9917 26.8509 65.4983 0.0000 0.0000 0.0000
# 2 26.8509 68.2755 46.2608 0.0000 0.0000 0.0000
# 3 65.4983 46.2608 153.8753 0.0000 0.0000 0.0000
# 4 0.0000 0.0000 0.0000 33.0473 0.0000 0.0000
# 5 0.0000 0.0000 0.0000 0.0000 32.0147 0.0000
# 6 0.0000 0.0000 0.0000 0.0000 0.0000 10.1904
#
#
#
# Elastic Compliance Matrix: (Units=1/GPa)
#
#
# Indices 1 2 3 4 5 6 
#
# 1 0.007624 -0.001004 -0.002943 0.000000 0.000000 0.000000
# 2 -0.001004 0.018525 -0.005142 0.000000 0.000000 0.000000
# 3 -0.002943 -0.005142 0.009298 0.000000 0.000000 0.000000
# 4 0.000000 0.000000 0.000000 0.030260 0.000000 0.000000
# 5 0.000000 0.000000 0.000000 0.000000 0.031236 0.000000
# 6 0.000000 0.000000 0.000000 0.000000 0.000000 0.098132
#
#
# Mechanical properties :
#
#
# Convention : Reuss Voigt Hill
#
# Bulk Modulus (GPa) = 57.91056 73.26252 65.58654
# Shear Modulus (GPa) = 22.83013 31.28596 27.05805
#
# Velocity S-wave (km/s) = 3.39694 3.97657 3.69813
# Velocity P-wave (km/s) = 6.68249 7.62323 7.16831
#
# Compressibility (1/GPa) = 0.01726801
#
# Stress axis : x y z
#
# Youngs Moduli (GPa) = 131.16891 53.97973 107.55551
#
# Poissons Ratio (x) = 0.05419 0.31657
# Poissons Ratio (y) = 0.13169 0.55306
# Poissons Ratio (z) = 0.38607 0.27757
#
# Static dielectric constant tensor:
#      x y z
#    x 4.028400 0.000000 0.000000 
#    y 0.000000 3.445460 0.000000 
#    z 0.000000 0.000000 3.379100 
# 
# 
# High freq. dielectric constant tensor:
#      x y z
#    x 1.789760 0.000000 0.000000 
#    y 0.000000 1.777580 0.000000 
#    z 0.000000 0.000000 1.754150 
# 
# From -- ./inp_files/61210.got.cif
#   From: 2010.03.12/outbox.cif.g09.slc.cpg/sg63_31_cif.got.tgz:61210.got - 2010.04.10 19:34:48.
