data_PCOD8259236
_publ_section_title
;
Structure prediction by ZEFSAII (Michael W. Deem and Ramdas Pophale) SiO2 
 PCOD8259236
Probable space group: C M C M
;
_chemical_formula_sum "Si O2"
_cell_formula_units_Z 88
_cell_length_a 29.903175
_cell_length_b 17.925164
_cell_length_c 8.848879
_cell_angle_alpha 90.000000
_cell_angle_beta 90.000000
_cell_angle_gamma 90.000000
_cell_volume 4743.170069
_symmetry_space_group_name_H-M "C M C M"
_symmetry_group_IT_number 63
_symmetry_cell_setting 'orthorhombic'
loop_
_space_group_symop_operation_xyz
x,y,z
-x,-y,1/2+z
x,-y,-z
-x,y,1/2-z
-x,-y,-z
x,y,1/2-z
-x,y,z
x,-y,1/2+z
1/2+x,1/2+y,z
1/2-x,1/2-y,1/2+z
1/2+x,1/2-y,-z
1/2-x,1/2+y,1/2-z
1/2-x,1/2-y,-z
1/2+x,1/2+y,1/2-z
1/2-x,1/2+y,z
1/2+x,1/2-y,1/2+z
loop_
_atom_site_type_symbol
_atom_site_label
_atom_site_fract_x
_atom_site_fract_y
_atom_site_fract_z
Si Si1 0.051169 0.918960 0.071553
Si Si2 0.500000 0.077639 0.578419
Si Si3 0.079190 0.647962 0.080768
Si Si4 0.295474 0.226133 0.924621
Si Si5 0.388062 0.294266 0.573044
Si Si6 0.328406 0.922814 0.578628
O O1 0.061213 0.921994 0.250000
O O2 0.000000 0.889938 0.043052
O O3 0.088756 0.869023 0.988898
O O4 0.056590 0.000000 0.000000
O O5 0.500000 0.057406 0.750000
O O6 0.457077 0.125000 0.539434
O O7 0.500000 0.000000 0.500000
O O8 0.059316 0.652816 0.250000
O O9 0.118273 0.586856 0.076033
O O10 0.093754 0.729209 0.031377
O O11 0.286576 0.213709 0.750000
O O12 0.334031 0.289563 0.949126
O O13 0.250000 0.250000 0.000000
O O14 0.307653 0.146181 0.991196
O O15 0.400068 0.283821 0.750000
O O16 0.310266 0.923640 0.750000
O O17 0.314688 0.000000 0.500000
#
# Coordination Sequence:
#
# PCOD8259236 Si02
#       6
#    16   8  16  16  16  16
#     4  10  21  37  58  84 115 152 192 238 289 344
#     4  12  24  36  50  72 105 144 183 226 272 316
#     4  10  21  36  54  77 107 144 185 227 270 321
#     4  10  21  38  60  85 114 147 186 233 285 342
#     4  10  21  37  58  84 113 147 186 229 280 338
#     4  10  20  35  57  82 109 143 182 226 275 329
#
# _framework density 18.552993000000001
#
# number of rings (size 3 to 8) (size 9 to 14) (size 15 to 20)
#    0.000    1.818    0.000    4.091    1.273    6.909 
#    0.000    0.909    0.000    4.364    0.000    0.000 
#    0.000    0.000    0.000    0.000    0.000    0.000 
#
# Total GULP energy -545448.300502 kJ/mol
# GULP energy per Si atom -12396.552284 kJ/mol
# Density = 1.851077 g / cm^3
# Si number density = 18.552993 Si / 1000 Ang^3
#
#
#
# Elastic Constant Matrix: (Units=GPa)
#
#
# Indices 1 2 3 4 5 6 
#
# 1 106.4783 49.7554 60.6869 0.0000 0.0000 0.0000
# 2 49.7554 91.3286 49.3304 0.0000 0.0000 0.0000
# 3 60.6869 49.3304 153.2768 0.0000 0.0000 0.0000
# 4 0.0000 0.0000 0.0000 37.2109 0.0000 0.0000
# 5 0.0000 0.0000 0.0000 0.0000 31.4430 0.0000
# 6 0.0000 0.0000 0.0000 0.0000 0.0000 12.7392
#
#
#
# Elastic Compliance Matrix: (Units=1/GPa)
#
#
# Indices 1 2 3 4 5 6 
#
# 1 0.014216 -0.005694 -0.003796 0.000000 0.000000 0.000000
# 2 -0.005694 0.015534 -0.002745 0.000000 0.000000 0.000000
# 3 -0.003796 -0.002745 0.008910 0.000000 0.000000 0.000000
# 4 0.000000 0.000000 0.000000 0.026874 0.000000 0.000000
# 5 0.000000 0.000000 0.000000 0.000000 0.031804 0.000000
# 6 0.000000 0.000000 0.000000 0.000000 0.000000 0.078498
#
#
# Mechanical properties :
#
#
# Convention : Reuss Voigt Hill
#
# Bulk Modulus (GPa) = 70.47061 74.51435 72.49248
# Shear Modulus (GPa) = 24.38590 29.03270 26.70930
#
# Velocity S-wave (km/s) = 3.62939 3.96011 3.79835
# Velocity P-wave (km/s) = 7.45850 7.82050 7.64164
#
# Compressibility (1/GPa) = 0.01419031
#
# Stress axis : x y z
#
# Youngs Moduli (GPa) = 70.34369 64.37290 112.22768
#
# Poissons Ratio (x) = 0.36657 0.42599
# Poissons Ratio (y) = 0.40057 0.30806
# Poissons Ratio (z) = 0.26701 0.17670
#
# Static dielectric constant tensor:
#      x y z
#    x 3.502600 0.000000 0.000000 
#    y 0.000000 3.643930 0.000000 
#    z 0.000000 0.000000 3.604850 
# 
# 
# High freq. dielectric constant tensor:
#      x y z
#    x 1.710650 0.000000 0.000000 
#    y 0.000000 1.716550 0.000000 
#    z 0.000000 0.000000 1.744160 
# 
# From -- ./inp_files/14141.got.cif
#   From: 2010.03.12/outbox.cif.g09.slc.cpg/sg63_8_cif.got.tgz:14141.got - 2010.04.10 19:34:48.
