data_PCOD8259072
_publ_section_title
;
Structure prediction by ZEFSAII (Michael W. Deem and Ramdas Pophale) SiO2 
 PCOD8259072
Probable space group: C M C M
;
_chemical_formula_sum "Si O2"
_cell_formula_units_Z 72
_cell_length_a 15.273883
_cell_length_b 28.899714
_cell_length_c 8.977393
_cell_angle_alpha 90.000000
_cell_angle_beta 90.000000
_cell_angle_gamma 90.000000
_cell_volume 3962.718678
_symmetry_space_group_name_H-M "C M C M"
_symmetry_group_IT_number 63
_symmetry_cell_setting 'orthorhombic'
loop_
_space_group_symop_operation_xyz
x,y,z
-x,-y,1/2+z
x,-y,-z
-x,y,1/2-z
-x,-y,-z
x,y,1/2-z
-x,y,z
x,-y,1/2+z
1/2+x,1/2+y,z
1/2-x,1/2-y,1/2+z
1/2+x,1/2-y,-z
1/2-x,1/2+y,1/2-z
1/2-x,1/2-y,-z
1/2+x,1/2+y,1/2-z
1/2-x,1/2+y,z
1/2+x,1/2-y,1/2+z
loop_
_atom_site_type_symbol
_atom_site_label
_atom_site_fract_x
_atom_site_fract_y
_atom_site_fract_z
Si Si1 0.601380 0.193699 0.077827
Si Si2 0.500000 0.952609 0.580971
Si Si3 0.903807 0.201355 0.573295
Si Si4 0.748691 0.137081 0.926500
Si Si5 0.309461 0.049994 0.424749
O O1 0.629018 0.186776 0.250000
O O2 0.500000 0.179736 0.057562
O O3 0.617521 0.246303 0.024098
O O4 0.659106 0.161577 0.973091
O O5 0.500000 0.967479 0.750000
O O6 0.407396 0.927637 0.545666
O O7 0.500000 0.000000 0.500000
O O8 0.905094 0.199846 0.750000
O O9 0.830643 0.166603 0.510487
O O10 0.000000 0.186763 0.512300
O O11 0.751662 0.131868 0.750000
O O12 0.756632 0.086229 0.999779
O O13 0.289180 0.045296 0.250000
O O14 0.298393 0.000000 0.500000
#
# Coordination Sequence:
#
# PCOD8259072 Si02
#       5
#    16   8  16  16  16
#     4   9  18  33  52  73 102 140 175 206 246 299
#     4   8  16  30  48  66  88 124 162 194 232 284
#     4   8  16  33  54  74  99 134 174 213 254 301
#     4  11  21  31  50  79 105 132 169 212 257 301
#     4  10  20  35  52  72 100 134 171 207 250 300
#
# _framework density 18.169343999999999
#
# number of rings (size 3 to 8) (size 9 to 14) (size 15 to 20)
#    0.000    2.667    0.000    3.333    1.556    1.333 
#    0.000    1.111    0.000    6.000    0.000    0.000 
#    0.000    0.000    0.000    0.000    0.000    0.000 
#
# Total GULP energy -446115.522128 kJ/mol
# GULP energy per Si atom -12392.097837 kJ/mol
# Density = 1.812799 g / cm^3
# Si number density = 18.169344 Si / 1000 Ang^3
#
#
#
# Elastic Constant Matrix: (Units=GPa)
#
#
# Indices 1 2 3 4 5 6 
#
# 1 73.8215 53.9108 29.7615 0.0000 0.0000 0.0000
# 2 53.9108 101.9777 39.5076 0.0000 0.0000 0.0000
# 3 29.7615 39.5076 62.5961 0.0000 0.0000 0.0000
# 4 0.0000 0.0000 0.0000 30.6663 0.0000 0.0000
# 5 0.0000 0.0000 0.0000 0.0000 18.5666 0.0000
# 6 0.0000 0.0000 0.0000 0.0000 0.0000 26.6280
#
#
#
# Elastic Compliance Matrix: (Units=1/GPa)
#
#
# Indices 1 2 3 4 5 6 
#
# 1 0.022907 -0.010444 -0.004299 0.000000 0.000000 0.000000
# 2 -0.010444 0.017742 -0.006232 0.000000 0.000000 0.000000
# 3 -0.004299 -0.006232 0.021953 0.000000 0.000000 0.000000
# 4 0.000000 0.000000 0.000000 0.032609 0.000000 0.000000
# 5 0.000000 0.000000 0.000000 0.000000 0.053860 0.000000
# 6 0.000000 0.000000 0.000000 0.000000 0.000000 0.037554
#
#
# Mechanical properties :
#
#
# Convention : Reuss Voigt Hill
#
# Bulk Modulus (GPa) = 48.42493 53.86170 51.14331
# Shear Modulus (GPa) = 21.23512 22.85322 22.04417
#
# Velocity S-wave (km/s) = 3.42238 3.55038 3.48697
# Velocity P-wave (km/s) = 6.50590 6.82023 6.66492
#
# Compressibility (1/GPa) = 0.02065052
#
# Stress axis : x y z
#
# Youngs Moduli (GPa) = 43.65558 56.36431 45.55203
#
# Poissons Ratio (x) = 0.58867 0.19584
# Poissons Ratio (y) = 0.45594 0.28388
# Poissons Ratio (z) = 0.18769 0.35127
#
# Static dielectric constant tensor:
#      x y z
#    x 3.685170 0.000000 0.000000 
#    y 0.000000 3.337100 0.000000 
#    z 0.000000 0.000000 3.121460 
# 
# 
# High freq. dielectric constant tensor:
#      x y z
#    x 1.689240 0.000000 0.000000 
#    y 0.000000 1.703230 0.000000 
#    z 0.000000 0.000000 1.687580 
# 
# From -- ./inp_files/4584.got.cif
#   From: 2010.03.12/outbox.cif.g09.slc.cpg/sg63_3_cif.got.tgz:4584.got - 2010.04.10 19:34:48.
