data_PCOD8259265
_publ_section_title
;
Structure prediction by ZEFSAII (Michael W. Deem and Ramdas Pophale) SiO2 
 PCOD8259265
Probable space group: C M C M
;
_chemical_formula_sum "Si O2"
_cell_formula_units_Z 104
_cell_length_a 20.847446
_cell_length_b 27.449864
_cell_length_c 8.936675
_cell_angle_alpha 90.000000
_cell_angle_beta 90.000000
_cell_angle_gamma 90.000000
_cell_volume 5114.097681
_symmetry_space_group_name_H-M "C M C M"
_symmetry_group_IT_number 63
_symmetry_cell_setting 'orthorhombic'
loop_
_space_group_symop_operation_xyz
x,y,z
-x,-y,1/2+z
x,-y,-z
-x,y,1/2-z
-x,-y,-z
x,y,1/2-z
-x,y,z
x,-y,1/2+z
1/2+x,1/2+y,z
1/2-x,1/2-y,1/2+z
1/2+x,1/2-y,-z
1/2-x,1/2+y,1/2-z
1/2-x,1/2-y,-z
1/2+x,1/2+y,1/2-z
1/2-x,1/2+y,z
1/2+x,1/2-y,1/2+z
loop_
_atom_site_type_symbol
_atom_site_label
_atom_site_fract_x
_atom_site_fract_y
_atom_site_fract_z
Si Si1 0.173814 0.547148 0.419657
Si Si2 0.398539 0.622205 0.922912
Si Si3 0.072236 0.605513 0.575456
Si Si4 0.000000 0.946543 0.571032
Si Si5 0.764863 0.861184 0.578151
Si Si6 0.840342 0.303558 0.424473
Si Si7 0.929221 0.231659 0.578961
O O1 0.203536 0.500000 0.500000
O O2 0.161086 0.533418 0.250000
O O3 0.105709 0.560715 0.492299
O O4 0.222818 0.590853 0.438656
O O5 0.397297 0.605608 0.750000
O O6 0.433050 0.673817 0.941312
O O7 0.436409 0.581787 0.017496
O O8 0.327012 0.627944 0.982146
O O9 0.075150 0.594548 0.750000
O O10 0.107491 0.655641 0.535737
O O11 0.000000 0.610003 0.516303
O O12 0.000000 0.950295 0.750000
O O13 0.000000 0.000000 0.500000
O O14 0.782287 0.849722 0.750000
O O15 0.725888 0.814948 0.511427
O O16 0.824178 0.300587 0.250000
O O17 0.872218 0.252949 0.476832
O O18 0.913804 0.245738 0.750000
O O19 0.000000 0.251658 0.532671
#
# Coordination Sequence:
#
# PCOD8259265 Si02
#       7
#    16  16  16   8  16  16  16
#     4  10  21  36  55  78 107 143 188 239 292 352
#     4  11  23  43  67  93 125 160 199 247 302 361
#     4   9  18  33  52  76 110 148 190 241 291 343
#     4  12  26  46  72 100 130 164 204 254 311 374
#     4  10  22  40  60  86 119 157 202 250 303 367
#     4  10  20  35  57  87 119 158 205 250 299 354
#     4  10  21  38  60  87 123 163 201 246 300 359
#
# _framework density 20.335944000000001
#
# number of rings (size 3 to 8) (size 9 to 14) (size 15 to 20)
#    0.000    1.846    0.769    3.000    0.000    6.462 
#    0.000    1.538    0.000    0.000    0.000    0.000 
#    0.000    0.000    0.000    0.000    0.000    0.000 
#
# Total GULP energy -644929.744004 kJ/mol
# GULP energy per Si atom -12402.495077 kJ/mol
# Density = 2.028966 g / cm^3
# Si number density = 20.335944 Si / 1000 Ang^3
#
#
#
# Elastic Constant Matrix: (Units=GPa)
#
#
# Indices 1 2 3 4 5 6 
#
# 1 116.0697 26.0261 51.5190 0.0000 0.0000 0.0000
# 2 26.0261 78.5120 47.7975 0.0000 0.0000 0.0000
# 3 51.5190 47.7975 115.9253 0.0000 0.0000 0.0000
# 4 0.0000 0.0000 0.0000 35.0338 0.0000 0.0000
# 5 0.0000 0.0000 0.0000 0.0000 36.2391 0.0000
# 6 0.0000 0.0000 0.0000 0.0000 0.0000 13.4015
#
#
#
# Elastic Compliance Matrix: (Units=1/GPa)
#
#
# Indices 1 2 3 4 5 6 
#
# 1 0.010778 -0.000877 -0.004428 0.000000 0.000000 0.000000
# 2 -0.000877 0.017077 -0.006651 0.000000 0.000000 0.000000
# 3 -0.004428 -0.006651 0.013337 0.000000 0.000000 0.000000
# 4 0.000000 0.000000 0.000000 0.028544 0.000000 0.000000
# 5 0.000000 0.000000 0.000000 0.000000 0.027594 0.000000
# 6 0.000000 0.000000 0.000000 0.000000 0.000000 0.074619
#
#
# Mechanical properties :
#
#
# Convention : Reuss Voigt Hill
#
# Bulk Modulus (GPa) = 57.87582 62.35470 60.11526
# Shear Modulus (GPa) = 24.79909 29.27917 27.03913
#
# Velocity S-wave (km/s) = 3.49588 3.79855 3.65035
# Velocity P-wave (km/s) = 6.69452 7.06877 6.88419
#
# Compressibility (1/GPa) = 0.01727837
#
# Stress axis : x y z
#
# Youngs Moduli (GPa) = 92.78461 58.55877 74.98135
#
# Poissons Ratio (x) = 0.05135 0.33203
# Poissons Ratio (y) = 0.08136 0.49873
# Poissons Ratio (z) = 0.41087 0.38949
#
# Static dielectric constant tensor:
#      x y z
#    x 3.783140 0.000000 0.000000 
#    y 0.000000 3.670370 0.000000 
#    z 0.000000 0.000000 3.757270 
# 
# 
# High freq. dielectric constant tensor:
#      x y z
#    x 1.800490 0.000000 0.000000 
#    y 0.000000 1.791580 0.000000 
#    z 0.000000 0.000000 1.800460 
# 
# From -- ./inp_files/8818.got.cif
#   From: 2010.03.12/outbox.cif.g09.slc.cpg/sg63_5_cif.got.tgz:8818.got - 2010.04.10 19:34:48.
