data_PCOD8259754
_publ_section_title
;
Structure prediction by ZEFSAII (Michael W. Deem and Ramdas Pophale) SiO2 
 PCOD8259754
Probable space group: C M C M
;
_chemical_formula_sum "Si O2"
_cell_formula_units_Z 96
_cell_length_a 20.026726
_cell_length_b 14.826622
_cell_length_c 14.730132
_cell_angle_alpha 90.000000
_cell_angle_beta 90.000000
_cell_angle_gamma 90.000000
_cell_volume 4373.798891
_symmetry_space_group_name_H-M "C M C M"
_symmetry_group_IT_number 63
_symmetry_cell_setting 'orthorhombic'
loop_
_space_group_symop_operation_xyz
x,y,z
-x,-y,1/2+z
x,-y,-z
-x,y,1/2-z
-x,-y,-z
x,y,1/2-z
-x,y,z
x,-y,1/2+z
1/2+x,1/2+y,z
1/2-x,1/2-y,1/2+z
1/2+x,1/2-y,-z
1/2-x,1/2+y,1/2-z
1/2-x,1/2-y,-z
1/2+x,1/2+y,1/2-z
1/2-x,1/2+y,z
1/2+x,1/2-y,1/2+z
loop_
_atom_site_type_symbol
_atom_site_label
_atom_site_fract_x
_atom_site_fract_y
_atom_site_fract_z
Si Si1 0.809604 0.552627 0.586105
Si Si2 0.361075 0.778530 0.988032
Si Si3 0.075785 0.822615 0.847612
Si Si4 0.575882 0.479817 0.400249
Si Si5 0.311169 0.351851 0.348279
Si Si6 0.923886 0.416358 0.853706
O O1 0.781363 0.500000 0.500000
O O2 0.829140 0.652026 0.556682
O O3 0.746319 0.570514 0.650260
O O4 0.872149 0.498876 0.629447
O O5 0.306677 0.725002 0.926459
O O6 0.410877 0.831726 0.919918
O O7 0.394190 0.708509 0.056950
O O8 0.107001 0.787007 0.750000
O O9 0.000000 0.789682 0.850135
O O10 0.081160 0.930236 0.841008
O O11 0.604442 0.500000 0.500000
O O12 0.500000 0.444213 0.406248
O O13 0.617537 0.400154 0.354792
O O14 0.306515 0.303943 0.250000
O O15 0.915316 0.384028 0.750000
O O16 0.000000 0.450833 0.870924
#
# Coordination Sequence:
#
# PCOD8259754 Si02
#       6
#    16  16  16  16  16  16
#     4  10  24  43  65  89 124 170 216 262 313 375
#     4  11  23  40  63  95 128 164 207 262 321 375
#     4  10  21  37  59  91 128 165 208 257 310 372
#     4  10  20  38  62  88 124 168 210 254 310 373
#     4  12  24  40  64  93 128 167 210 261 317 381
#     4  10  22  43  70  99 131 167 212 263 318 382
#
# _framework density 21.948882999999999
#
# number of rings (size 3 to 8) (size 9 to 14) (size 15 to 20)
#    0.000    1.500    1.667    3.000    0.000    6.667 
#    0.000    1.667    0.000    0.000    0.000    0.000 
#    0.000    0.000    0.000    0.000    0.000    0.000 
#
# Total GULP energy -594747.796404 kJ/mol
# GULP energy per Si atom -12390.579092 kJ/mol
# Density = 2.189893 g / cm^3
# Si number density = 21.948883 Si / 1000 Ang^3
#
#
#
# Elastic Constant Matrix: (Units=GPa)
#
#
# Indices 1 2 3 4 5 6 
#
# 1 81.2577 14.8518 26.3973 0.0000 0.0000 0.0000
# 2 14.8518 56.9903 9.6860 0.0000 0.0000 0.0000
# 3 26.3973 9.6860 144.3028 0.0000 0.0000 0.0000
# 4 0.0000 0.0000 0.0000 24.0908 0.0000 0.0000
# 5 0.0000 0.0000 0.0000 0.0000 11.1509 0.0000
# 6 0.0000 0.0000 0.0000 0.0000 0.0000 81.8161
#
#
#
# Elastic Compliance Matrix: (Units=1/GPa)
#
#
# Indices 1 2 3 4 5 6 
#
# 1 0.013625 -0.003163 -0.002280 0.000000 0.000000 0.000000
# 2 -0.003163 0.018484 -0.000662 0.000000 0.000000 0.000000
# 3 -0.002280 -0.000662 0.007391 0.000000 0.000000 0.000000
# 4 0.000000 0.000000 0.000000 0.041510 0.000000 0.000000
# 5 0.000000 0.000000 0.000000 0.000000 0.089679 0.000000
# 6 0.000000 0.000000 0.000000 0.000000 0.000000 0.012223
#
#
# Mechanical properties :
#
#
# Convention : Reuss Voigt Hill
#
# Bulk Modulus (GPa) = 36.64396 42.71344 39.67870
# Shear Modulus (GPa) = 24.48352 38.85260 31.66806
#
# Velocity S-wave (km/s) = 3.34350 4.21187 3.80255
# Velocity P-wave (km/s) = 5.62465 6.56931 6.11525
#
# Compressibility (1/GPa) = 0.02728963
#
# Stress axis : x y z
#
# Youngs Moduli (GPa) = 73.39215 54.10163 135.29194
#
# Poissons Ratio (x) = 0.17114 0.30849
# Poissons Ratio (y) = 0.23216 0.08957
# Poissons Ratio (z) = 0.16735 0.03582
#
# Static dielectric constant tensor:
#      x y z
#    x 3.901090 0.000000 0.000000 
#    y 0.000000 4.164400 0.000000 
#    z 0.000000 0.000000 4.084040 
# 
# 
# High freq. dielectric constant tensor:
#      x y z
#    x 1.850590 0.000000 0.000000 
#    y 0.000000 1.850890 0.000000 
#    z 0.000000 0.000000 1.884730 
# 
# From -- ./inp_files/35323.got.cif
#   From: 2010.03.12/outbox.cif.g09.slc.cpg/sg63_18_cif.got.tgz:35323.got - 2010.04.10 19:34:48.
