data_PCOD8259446
_publ_section_title
;
Structure prediction by ZEFSAII (Michael W. Deem and Ramdas Pophale) SiO2 
 PCOD8259446
Probable space group: C M C M
;
_chemical_formula_sum "Si O2"
_cell_formula_units_Z 88
_cell_length_a 12.435219
_cell_length_b 17.353574
_cell_length_c 20.951980
_cell_angle_alpha 90.000000
_cell_angle_beta 90.000000
_cell_angle_gamma 90.000000
_cell_volume 4521.342856
_symmetry_space_group_name_H-M "C M C M"
_symmetry_group_IT_number 63
_symmetry_cell_setting 'orthorhombic'
loop_
_space_group_symop_operation_xyz
x,y,z
-x,-y,1/2+z
x,-y,-z
-x,y,1/2-z
-x,-y,-z
x,y,1/2-z
-x,y,z
x,-y,1/2+z
1/2+x,1/2+y,z
1/2-x,1/2-y,1/2+z
1/2+x,1/2-y,-z
1/2-x,1/2+y,1/2-z
1/2-x,1/2-y,-z
1/2+x,1/2+y,1/2-z
1/2-x,1/2+y,z
1/2+x,1/2-y,1/2+z
loop_
_atom_site_type_symbol
_atom_site_label
_atom_site_fract_x
_atom_site_fract_y
_atom_site_fract_z
Si Si1 0.378813 0.405518 0.571016
Si Si2 0.751714 0.031712 0.320525
Si Si3 0.780061 0.747937 0.574589
Si Si4 0.623422 0.913857 0.386641
Si Si5 0.626368 0.186641 0.177053
Si Si6 0.283505 0.000000 0.500000
O O1 0.500000 0.421915 0.548495
O O2 0.352784 0.458976 0.632221
O O3 0.365293 0.315858 0.588140
O O4 0.294356 0.427684 0.515662
O O5 0.799860 0.035946 0.250000
O O6 0.665376 0.099290 0.333510
O O7 0.693425 0.948779 0.328671
O O8 0.750000 0.750000 0.500000
O O9 0.837562 0.669249 0.592108
O O10 0.679578 0.758658 0.623104
O O11 0.500000 0.909224 0.366021
O O12 0.638577 0.975786 0.443185
O O13 0.654063 0.213630 0.250000
O O14 0.500000 0.189426 0.164930
#
# Coordination Sequence:
#
# PCOD8259446 Si02
#       6
#    16  16  16  16  16   8
#     4  10  20  36  58  81 113 155 192 231 285 343
#     4   9  20  38  59  85 114 144 192 245 286 341
#     4  11  22  38  53  87 125 154 194 240 292 355
#     4  11  22  36  57  83 113 148 186 235 293 344
#     4   9  19  38  62  84 112 155 199 240 290 347
#     4  10  20  38  54  80 112 144 192 236 274 334
#
# _framework density 19.463245000000001
#
# number of rings (size 3 to 8) (size 9 to 14) (size 15 to 20)
#    0.000    2.000    1.818    1.636    0.000    3.636 
#    0.000    0.909    0.000    3.273    0.000    0.000 
#    0.000    0.000    0.000    0.000    0.000    0.000 
#
# Total GULP energy -545476.115932 kJ/mol
# GULP energy per Si atom -12397.184453 kJ/mol
# Density = 1.941895 g / cm^3
# Si number density = 19.463245 Si / 1000 Ang^3
#
#
#
# Elastic Constant Matrix: (Units=GPa)
#
#
# Indices 1 2 3 4 5 6 
#
# 1 66.3943 16.2838 11.8456 0.0000 0.0000 0.0000
# 2 16.2838 83.3621 2.8258 0.0000 0.0000 0.0000
# 3 11.8456 2.8258 86.4300 0.0000 0.0000 0.0000
# 4 0.0000 0.0000 0.0000 28.6603 0.0000 0.0000
# 5 0.0000 0.0000 0.0000 0.0000 19.1032 0.0000
# 6 0.0000 0.0000 0.0000 0.0000 0.0000 22.8686
#
#
#
# Elastic Compliance Matrix: (Units=1/GPa)
#
#
# Indices 1 2 3 4 5 6 
#
# 1 0.016198 -0.003092 -0.002119 0.000000 0.000000 0.000000
# 2 -0.003092 0.012599 0.000012 0.000000 0.000000 0.000000
# 3 -0.002119 0.000012 0.011860 0.000000 0.000000 0.000000
# 4 0.000000 0.000000 0.000000 0.034891 0.000000 0.000000
# 5 0.000000 0.000000 0.000000 0.000000 0.052347 0.000000
# 6 0.000000 0.000000 0.000000 0.000000 0.000000 0.043728
#
#
# Mechanical properties :
#
#
# Convention : Reuss Voigt Hill
#
# Bulk Modulus (GPa) = 33.04807 33.12188 33.08498
# Shear Modulus (GPa) = 26.02688 27.80851 26.91770
#
# Velocity S-wave (km/s) = 3.66079 3.78401 3.72291
# Velocity P-wave (km/s) = 5.90636 6.01217 5.95950
#
# Compressibility (1/GPa) = 0.03025895
#
# Stress axis : x y z
#
# Youngs Moduli (GPa) = 61.73604 79.36825 84.31653
#
# Poissons Ratio (x) = 0.24543 0.17866
# Poissons Ratio (y) = 0.19090 -0.00100
# Poissons Ratio (z) = 0.13081 -0.00094
#
# Static dielectric constant tensor:
#      x y z
#    x 3.336020 0.000000 0.000000 
#    y 0.000000 3.587490 0.000000 
#    z 0.000000 0.000000 3.685540 
# 
# 
# High freq. dielectric constant tensor:
#      x y z
#    x 1.743940 0.000000 0.000000 
#    y 0.000000 1.756790 0.000000 
#    z 0.000000 0.000000 1.760760 
# 
# From -- ./inp_files/52545.got.cif
#   From: 2010.03.12/outbox.cif.g09.slc.cpg/sg63_27_cif.got.tgz:52545.got - 2010.04.10 19:34:48.
