data_PCOD8259772
_publ_section_title
;
Structure prediction by ZEFSAII (Michael W. Deem and Ramdas Pophale) SiO2 
 PCOD8259772
Probable space group: C M C M
;
_chemical_formula_sum "Si O2"
_cell_formula_units_Z 96
_cell_length_a 14.781541
_cell_length_b 23.414255
_cell_length_c 14.646773
_cell_angle_alpha 90.000000
_cell_angle_beta 90.000000
_cell_angle_gamma 90.000000
_cell_volume 5069.230124
_symmetry_space_group_name_H-M "C M C M"
_symmetry_group_IT_number 63
_symmetry_cell_setting 'orthorhombic'
loop_
_space_group_symop_operation_xyz
x,y,z
-x,-y,1/2+z
x,-y,-z
-x,y,1/2-z
-x,-y,-z
x,y,1/2-z
-x,y,z
x,-y,1/2+z
1/2+x,1/2+y,z
1/2-x,1/2-y,1/2+z
1/2+x,1/2-y,-z
1/2-x,1/2+y,1/2-z
1/2-x,1/2-y,-z
1/2+x,1/2+y,1/2-z
1/2-x,1/2+y,z
1/2+x,1/2-y,1/2+z
loop_
_atom_site_type_symbol
_atom_site_label
_atom_site_fract_x
_atom_site_fract_y
_atom_site_fract_z
Si Si1 0.806168 0.605845 0.145074
Si Si2 0.000000 0.279723 0.999637
Si Si3 0.500000 0.867431 0.648933
Si Si4 0.799048 0.309343 0.017893
Si Si5 0.500000 0.429831 0.848425
Si Si6 0.000000 0.146201 0.972129
Si Si7 0.324634 0.494816 0.605386
Si Si8 0.175413 0.878142 0.353549
O O1 0.785565 0.624928 0.250000
O O2 0.758854 0.546844 0.122025
O O3 0.912585 0.593850 0.128642
O O4 0.777626 0.655340 0.074741
O O5 0.905464 0.301369 0.044678
O O6 0.000000 0.212322 0.994229
O O7 0.000000 0.306405 0.899720
O O8 0.500000 0.844297 0.750000
O O9 0.756671 0.341225 0.104619
O O10 0.750000 0.250000 0.000000
O O11 0.500000 0.397078 0.750000
O O12 0.586471 0.470615 0.847338
O O13 0.500000 0.385270 0.930648
O O14 0.913216 0.129041 0.914605
O O15 0.347111 0.500000 0.500000
O O16 0.297243 0.555463 0.647735
O O17 0.157964 0.857228 0.250000
#
# Coordination Sequence:
#
# PCOD8259772 Si02
#       8
#    16   8   8  16   8   8  16  16
#     4  10  20  38  64  90 120 157 201 255 311 367
#     4  10  22  39  63  86 125 163 203 255 305 357
#     4   8  18  36  61  92 118 151 204 259 307 354
#     4  11  22  41  61  89 126 162 208 258 307 371
#     4  12  24  39  62  92 127 166 203 250 314 379
#     4  12  22  41  62  92 129 162 212 258 308 368
#     4  12  22  41  62  89 127 163 205 256 311 372
#     4  12  25  40  63  93 126 166 209 258 314 370
#
# _framework density 18.937788000000001
#
# number of rings (size 3 to 8) (size 9 to 14) (size 15 to 20)
#    0.000    1.000    5.000    2.500    0.000    1.333 
#    0.000    2.500    0.000    0.000    0.000    0.000 
#    0.000    0.000    0.000    0.000    0.000    0.000 
#
# Total GULP energy -595036.541804 kJ/mol
# GULP energy per Si atom -12396.594621 kJ/mol
# Density = 1.889468 g / cm^3
# Si number density = 18.937788 Si / 1000 Ang^3
#
#
#
# Elastic Constant Matrix: (Units=GPa)
#
#
# Indices 1 2 3 4 5 6 
#
# 1 131.5279 73.2131 57.8126 0.0000 0.0000 0.0000
# 2 73.2131 139.0416 48.6150 0.0000 0.0000 0.0000
# 3 57.8126 48.6150 144.7188 0.0000 0.0000 0.0000
# 4 0.0000 0.0000 0.0000 12.7733 0.0000 0.0000
# 5 0.0000 0.0000 0.0000 0.0000 19.3514 0.0000
# 6 0.0000 0.0000 0.0000 0.0000 0.0000 20.8641
#
#
#
# Elastic Compliance Matrix: (Units=1/GPa)
#
#
# Indices 1 2 3 4 5 6 
#
# 1 0.011785 -0.005166 -0.002973 0.000000 0.000000 0.000000
# 2 -0.005166 0.010414 -0.001435 0.000000 0.000000 0.000000
# 3 -0.002973 -0.001435 0.008579 0.000000 0.000000 0.000000
# 4 0.000000 0.000000 0.000000 0.078289 0.000000 0.000000
# 5 0.000000 0.000000 0.000000 0.000000 0.051676 0.000000
# 6 0.000000 0.000000 0.000000 0.000000 0.000000 0.047929
#
#
# Mechanical properties :
#
#
# Convention : Reuss Voigt Hill
#
# Bulk Modulus (GPa) = 85.96996 86.06329 86.01663
# Shear Modulus (GPa) = 21.58001 26.30760 23.94380
#
# Velocity S-wave (km/s) = 3.37934 3.73119 3.55961
# Velocity P-wave (km/s) = 7.79238 8.00664 7.90023
#
# Compressibility (1/GPa) = 0.01163197
#
# Stress axis : x y z
#
# Youngs Moduli (GPa) = 84.85202 96.02482 116.55952
#
# Poissons Ratio (x) = 0.49609 0.34647
# Poissons Ratio (y) = 0.43837 0.16721
# Poissons Ratio (z) = 0.25222 0.13775
#
# Static dielectric constant tensor:
#      x y z
#    x 3.873390 0.000000 0.000000 
#    y 0.000000 3.486140 0.000000 
#    z 0.000000 0.000000 3.681220 
# 
# 
# High freq. dielectric constant tensor:
#      x y z
#    x 1.748320 0.000000 0.000000 
#    y 0.000000 1.731820 0.000000 
#    z 0.000000 0.000000 1.740930 
# 
# From -- ./inp_files/32030.got.cif
#   From: 2010.03.12/outbox.cif.g09.slc.cpg/sg63_17_cif.got.tgz:32030.got - 2010.04.10 19:34:48.
