data_PCOD8259253
_publ_section_title
;
Structure prediction by ZEFSAII (Michael W. Deem and Ramdas Pophale) SiO2 
 PCOD8259253
Probable space group: C M C M
;
_chemical_formula_sum "Si O2"
_cell_formula_units_Z 72
_cell_length_a 29.005012
_cell_length_b 14.032282
_cell_length_c 8.661449
_cell_angle_alpha 90.000000
_cell_angle_beta 90.000000
_cell_angle_gamma 90.000000
_cell_volume 3525.266110
_symmetry_space_group_name_H-M "C M C M"
_symmetry_group_IT_number 63
_symmetry_cell_setting 'orthorhombic'
loop_
_space_group_symop_operation_xyz
x,y,z
-x,-y,1/2+z
x,-y,-z
-x,y,1/2-z
-x,-y,-z
x,y,1/2-z
-x,y,z
x,-y,1/2+z
1/2+x,1/2+y,z
1/2-x,1/2-y,1/2+z
1/2+x,1/2-y,-z
1/2-x,1/2+y,1/2-z
1/2-x,1/2-y,-z
1/2+x,1/2+y,1/2-z
1/2-x,1/2+y,z
1/2+x,1/2-y,1/2+z
loop_
_atom_site_type_symbol
_atom_site_label
_atom_site_fract_x
_atom_site_fract_y
_atom_site_fract_z
Si Si1 0.819606 0.781840 0.430769
Si Si2 0.053984 0.600199 0.428214
Si Si3 0.085421 0.212881 0.069602
Si Si4 0.000000 0.103579 0.931330
Si Si5 0.771551 0.395270 0.431400
O O1 0.829139 0.774649 0.250000
O O2 0.864602 0.823767 0.515738
O O3 0.808217 0.676230 0.492482
O O4 0.779371 0.856541 0.470331
O O5 0.067923 0.500000 0.500000
O O6 0.068843 0.604126 0.250000
O O7 0.082263 0.676362 0.526124
O O8 0.000000 0.620831 0.447524
O O9 0.078956 0.196626 0.250000
O O10 0.045866 0.156874 0.981778
O O11 0.000000 0.097161 0.750000
O O12 0.000000 0.000000 0.000000
O O13 0.777960 0.500000 0.500000
O O14 0.780769 0.397928 0.250000
#
# Coordination Sequence:
#
# PCOD8259253 Si02
#       5
#    16  16  16   8  16
#     4  10  22  40  62  90 124 161 204 252 303 362
#     4  10  20  35  57  84 117 156 198 247 299 358
#     4  12  24  40  63  91 125 163 206 255 306 363
#     4  12  26  46  67  90 121 162 210 258 308 358
#     4  10  21  39  64  92 123 159 199 249 306 367
#
# _framework density 20.42399
#
# number of rings (size 3 to 8) (size 9 to 14) (size 15 to 20)
#    0.000    1.333    1.111    5.000    0.000    5.333 
#    0.000    6.667    0.000    0.000    0.000    0.000 
#    0.000    0.000    0.000    0.000    0.000    0.000 
#
# Total GULP energy -446605.304366 kJ/mol
# GULP energy per Si atom -12405.702899 kJ/mol
# Density = 2.037750 g / cm^3
# Si number density = 20.423990 Si / 1000 Ang^3
#
#
#
# Elastic Constant Matrix: (Units=GPa)
#
#
# Indices 1 2 3 4 5 6 
#
# 1 108.0353 30.6741 44.1827 0.0000 0.0000 0.0000
# 2 30.6741 91.2153 36.1477 0.0000 0.0000 0.0000
# 3 44.1827 36.1477 143.8967 0.0000 0.0000 0.0000
# 4 0.0000 0.0000 0.0000 37.7710 0.0000 0.0000
# 5 0.0000 0.0000 0.0000 0.0000 35.9153 0.0000
# 6 0.0000 0.0000 0.0000 0.0000 0.0000 34.1062
#
#
#
# Elastic Compliance Matrix: (Units=1/GPa)
#
#
# Indices 1 2 3 4 5 6 
#
# 1 0.011135 -0.002654 -0.002752 0.000000 0.000000 0.000000
# 2 -0.002654 0.012808 -0.002402 0.000000 0.000000 0.000000
# 3 -0.002752 -0.002402 0.008398 0.000000 0.000000 0.000000
# 4 0.000000 0.000000 0.000000 0.026475 0.000000 0.000000
# 5 0.000000 0.000000 0.000000 0.000000 0.027843 0.000000
# 6 0.000000 0.000000 0.000000 0.000000 0.000000 0.029320
#
#
# Mechanical properties :
#
#
# Convention : Reuss Voigt Hill
#
# Bulk Modulus (GPa) = 59.79600 62.79512 61.29556
# Shear Modulus (GPa) = 36.45062 37.03468 36.74265
#
# Velocity S-wave (km/s) = 4.22915 4.26290 4.24606
# Velocity P-wave (km/s) = 7.29304 7.41905 7.35632
#
# Compressibility (1/GPa) = 0.01672353
#
# Stress axis : x y z
#
# Youngs Moduli (GPa) = 89.80389 78.07860 119.07519
#
# Poissons Ratio (x) = 0.20721 0.32774
# Poissons Ratio (y) = 0.23833 0.28608
# Poissons Ratio (z) = 0.24717 0.18758
#
# Static dielectric constant tensor:
#      x y z
#    x 3.776070 0.000000 0.000000 
#    y 0.000000 3.737350 0.000000 
#    z 0.000000 0.000000 3.816400 
# 
# 
# High freq. dielectric constant tensor:
#      x y z
#    x 1.803500 0.000000 0.000000 
#    y 0.000000 1.797680 0.000000 
#    z 0.000000 0.000000 1.815470 
# 
# From -- ./inp_files/11703.got.cif
#   From: 2010.03.12/outbox.cif.g09.slc.cpg/sg63_6_cif.got.tgz:11703.got - 2010.04.10 19:34:48.
