data_PCOD8259584
_publ_section_title
;
Structure prediction by ZEFSAII (Michael W. Deem and Ramdas Pophale) SiO2 
 PCOD8259584
Probable space group: C M C M
;
_chemical_formula_sum "Si O2"
_cell_formula_units_Z 88
_cell_length_a 16.609736
_cell_length_b 11.650934
_cell_length_c 21.582119
_cell_angle_alpha 90.000000
_cell_angle_beta 90.000000
_cell_angle_gamma 90.000000
_cell_volume 4176.548746
_symmetry_space_group_name_H-M "C M C M"
_symmetry_group_IT_number 63
_symmetry_cell_setting 'orthorhombic'
loop_
_space_group_symop_operation_xyz
x,y,z
-x,-y,1/2+z
x,-y,-z
-x,y,1/2-z
-x,-y,-z
x,y,1/2-z
-x,y,z
x,-y,1/2+z
1/2+x,1/2+y,z
1/2-x,1/2-y,1/2+z
1/2+x,1/2-y,-z
1/2-x,1/2+y,1/2-z
1/2-x,1/2-y,-z
1/2+x,1/2+y,1/2-z
1/2-x,1/2+y,z
1/2+x,1/2-y,1/2+z
loop_
_atom_site_type_symbol
_atom_site_label
_atom_site_fract_x
_atom_site_fract_y
_atom_site_fract_z
Si Si1 0.908268 0.531506 0.819124
Si Si2 0.324196 0.606962 0.098392
Si Si3 0.688796 0.807427 0.822656
Si Si4 0.792587 0.500000 0.000000
Si Si5 0.093619 0.916313 0.321554
Si Si6 0.907222 0.676566 0.937741
O O1 0.881076 0.571933 0.750000
O O2 0.858095 0.422444 0.842021
O O3 0.895649 0.634812 0.866876
O O4 0.000000 0.490137 0.817521
O O5 0.273936 0.690942 0.143177
O O6 0.264704 0.532804 0.056512
O O7 0.379970 0.524160 0.138363
O O8 0.381905 0.689841 0.058172
O O9 0.703406 0.802766 0.750000
O O10 0.639917 0.696422 0.845222
O O11 0.850133 0.606575 0.983950
O O12 0.113857 0.942486 0.250000
O O13 0.000000 0.892785 0.331344
O O14 0.000000 0.663193 0.959064
#
# Coordination Sequence:
#
# PCOD8259584 Si02
#       6
#    16  16  16   8  16  16
#     4   9  18  35  61  93 124 155 196 249 309 374
#     4  12  24  42  62  93 123 164 203 264 310 367
#     4  10  20  36  62  93 126 161 202 247 303 372
#     4  12  25  46  63  86 122 164 220 262 309 358
#     4  10  22  41  65  95 130 165 200 243 305 380
#     4  11  24  43  65  90 121 160 207 258 315 372
#
# _framework density 21.070029000000002
#
# number of rings (size 3 to 8) (size 9 to 14) (size 15 to 20)
#    0.000    1.455    1.818    3.545    0.000    3.636 
#    0.000    5.455    0.000    0.000    0.000    0.000 
#    0.000    0.000    0.000    0.000    0.000    0.000 
#
# Total GULP energy -545757.792079 kJ/mol
# GULP energy per Si atom -12403.586184 kJ/mol
# Density = 2.102207 g / cm^3
# Si number density = 21.070029 Si / 1000 Ang^3
#
#
#
# Elastic Constant Matrix: (Units=GPa)
#
#
# Indices 1 2 3 4 5 6 
#
# 1 64.6165 32.1494 9.5529 0.0000 0.0000 0.0000
# 2 32.1494 85.3590 9.4543 0.0000 0.0000 0.0000
# 3 9.5529 9.4543 29.2882 0.0000 0.0000 0.0000
# 4 0.0000 0.0000 0.0000 26.7181 0.0000 0.0000
# 5 0.0000 0.0000 0.0000 0.0000 25.7251 0.0000
# 6 0.0000 0.0000 0.0000 0.0000 0.0000 38.2695
#
#
#
# Elastic Compliance Matrix: (Units=1/GPa)
#
#
# Indices 1 2 3 4 5 6 
#
# 1 0.019517 -0.006892 -0.004141 0.000000 0.000000 0.000000
# 2 -0.006892 0.014584 -0.002460 0.000000 0.000000 0.000000
# 3 -0.004141 -0.002460 0.036288 0.000000 0.000000 0.000000
# 4 0.000000 0.000000 0.000000 0.037428 0.000000 0.000000
# 5 0.000000 0.000000 0.000000 0.000000 0.038873 0.000000
# 6 0.000000 0.000000 0.000000 0.000000 0.000000 0.026130
#
#
# Mechanical properties :
#
#
# Convention : Reuss Voigt Hill
#
# Bulk Modulus (GPa) = 23.03981 31.28630 27.16305
# Shear Modulus (GPa) = 23.33467 26.68301 25.00884
#
# Velocity S-wave (km/s) = 3.33149 3.56251 3.44894
# Velocity P-wave (km/s) = 5.07514 5.63941 5.36470
#
# Compressibility (1/GPa) = 0.04340314
#
# Stress axis : x y z
#
# Youngs Moduli (GPa) = 51.23643 68.57047 27.55721
#
# Poissons Ratio (x) = 0.47261 0.11412
# Poissons Ratio (y) = 0.35314 0.06778
# Poissons Ratio (z) = 0.21218 0.16865
#
# Static dielectric constant tensor:
#      x y z
#    x 3.926310 0.000000 0.000000 
#    y 0.000000 3.741830 0.000000 
#    z 0.000000 0.000000 3.755770 
# 
# 
# High freq. dielectric constant tensor:
#      x y z
#    x 1.838070 0.000000 0.000000 
#    y 0.000000 1.825860 0.000000 
#    z 0.000000 0.000000 1.817990 
# 
# From -- ./inp_files/55401.got.cif
#   From: 2010.03.12/outbox.cif.g09.slc.cpg/sg63_28_cif.got.tgz:55401.got - 2010.04.10 19:34:48.
