data_PCOD8259742
_publ_section_title
;
Structure prediction by ZEFSAII (Michael W. Deem and Ramdas Pophale) SiO2 
 PCOD8259742
Probable space group: C M C M
;
_chemical_formula_sum "Si O2"
_cell_formula_units_Z 96
_cell_length_a 25.094658
_cell_length_b 23.575433
_cell_length_c 8.591205
_cell_angle_alpha 90.000000
_cell_angle_beta 90.000000
_cell_angle_gamma 90.000000
_cell_volume 5082.706608
_symmetry_space_group_name_H-M "C M C M"
_symmetry_group_IT_number 63
_symmetry_cell_setting 'orthorhombic'
loop_
_space_group_symop_operation_xyz
x,y,z
-x,-y,1/2+z
x,-y,-z
-x,y,1/2-z
-x,-y,-z
x,y,1/2-z
-x,y,z
x,-y,1/2+z
1/2+x,1/2+y,z
1/2-x,1/2-y,1/2+z
1/2+x,1/2-y,-z
1/2-x,1/2+y,1/2-z
1/2-x,1/2-y,-z
1/2+x,1/2+y,1/2-z
1/2-x,1/2+y,z
1/2+x,1/2-y,1/2+z
loop_
_atom_site_type_symbol
_atom_site_label
_atom_site_fract_x
_atom_site_fract_y
_atom_site_fract_z
Si Si1 0.595059 0.136205 0.433978
Si Si2 0.188599 0.939656 0.934843
Si Si3 0.191034 0.558653 0.068448
Si Si4 0.000000 0.062118 0.067538
Si Si5 0.938080 0.246680 0.067368
Si Si6 0.403026 0.368769 0.432428
Si Si7 0.500000 0.062853 0.564390
O O1 0.586802 0.143779 0.250000
O O2 0.652885 0.110750 0.476660
O O3 0.591331 0.195995 0.519556
O O4 0.551712 0.093827 0.500935
O O5 0.182377 0.938981 0.750000
O O6 0.249206 0.928632 0.991362
O O7 0.154385 0.889382 0.009354
O O8 0.168170 0.000000 0.000000
O O9 0.192008 0.549169 0.250000
O O10 0.168453 0.500000 0.000000
O O11 0.000000 0.057226 0.250000
O O12 0.947923 0.095284 0.016980
O O13 0.000000 0.000000 0.000000
O O14 0.931748 0.235776 0.250000
O O15 0.000000 0.250254 0.019504
O O16 0.909274 0.196964 0.973776
O O17 0.408671 0.377784 0.250000
O O18 0.500000 0.063580 0.750000
O O19 0.500000 0.000000 0.500000
#
# Coordination Sequence:
#
# PCOD8259742 Si02
#       7
#    16  16  16   8  16  16   8
#     4  11  22  38  60  87 117 152 195 242 291 346
#     4  10  20  38  61  87 120 155 193 238 289 346
#     4   9  20  37  60  88 118 154 194 238 290 345
#     4  12  24  39  58  85 118 152 188 234 290 346
#     4  11  23  40  61  85 115 155 198 239 290 347
#     4  12  24  39  60  87 116 151 195 240 289 344
#     4  12  24  37  54  83 118 154 192 238 294 350
#
# _framework density 18.887574000000001
#
# number of rings (size 3 to 8) (size 9 to 14) (size 15 to 20)
#    0.000    1.167    1.667    5.500    0.000    4.000 
#    0.000    0.833    0.000    0.000    0.000    0.000 
#    0.000    0.000    0.000    0.000    0.000    0.000 
#
# Total GULP energy -595445.058503 kJ/mol
# GULP energy per Si atom -12405.105385 kJ/mol
# Density = 1.884458 g / cm^3
# Si number density = 18.887574 Si / 1000 Ang^3
#
#
#
# Elastic Constant Matrix: (Units=GPa)
#
#
# Indices 1 2 3 4 5 6 
#
# 1 103.1826 57.1627 35.4017 0.0000 0.0000 0.0000
# 2 57.1627 132.9308 29.4585 0.0000 0.0000 0.0000
# 3 35.4017 29.4585 92.0011 0.0000 0.0000 0.0000
# 4 0.0000 0.0000 0.0000 37.8148 0.0000 0.0000
# 5 0.0000 0.0000 0.0000 0.0000 -61.7814 0.0000
# 6 0.0000 0.0000 0.0000 0.0000 0.0000 30.2445
#
#
#
# Elastic Compliance Matrix: (Units=1/GPa)
#
#
# Indices 1 2 3 4 5 6 
#
# 1 0.013783 -0.005114 -0.003666 0.000000 0.000000 0.000000
# 2 -0.005114 0.009995 -0.001232 0.000000 0.000000 0.000000
# 3 -0.003666 -0.001232 0.012675 0.000000 0.000000 0.000000
# 4 0.000000 0.000000 0.000000 0.026445 0.000000 0.000000
# 5 0.000000 0.000000 0.000000 0.000000 -0.016186 0.000000
# 6 0.000000 0.000000 0.000000 0.000000 0.000000 0.033064
#
#
# Mechanical properties :
#
#
# Convention : Reuss Voigt Hill
#
# Bulk Modulus (GPa) = 60.87526 63.57335 62.22430
# Shear Modulus (GPa) = 47.49419 14.99502 31.24461
#
# Velocity S-wave (km/s) = 5.01999 2.82070 4.07165
# Velocity P-wave (km/s) = 8.11793 6.65885 7.42432
#
# Compressibility (1/GPa) = 0.01642704
#
# Stress axis : x y z
#
# Youngs Moduli (GPa) = 72.55483 100.04887 78.89746
#
# Poissons Ratio (x) = 0.51169 0.28923
# Poissons Ratio (y) = 0.37108 0.09723
# Poissons Ratio (z) = 0.26598 0.12330
#
# Static dielectric constant tensor:
#      x y z
#    x 3.668440 0.000000 0.000000 
#    y 0.000000 3.546300 0.000000 
#    z 0.000000 0.000000 3.601380 
# 
# 
# High freq. dielectric constant tensor:
#      x y z
#    x 1.736120 0.000000 0.000000 
#    y 0.000000 1.738400 0.000000 
#    z 0.000000 0.000000 1.749990 
# 
# From -- ./inp_files/10534.got.cif
#   From: 2010.03.12/outbox.cif.g09.slc.cpg/sg63_6_cif.got.tgz:10534.got - 2010.04.10 19:34:48.
