data_PCOD8259352
_publ_section_title
;
Structure prediction by ZEFSAII (Michael W. Deem and Ramdas Pophale) SiO2 
 PCOD8259352
Probable space group: C M C M
;
_chemical_formula_sum "Si O2"
_cell_formula_units_Z 88
_cell_length_a 15.793388
_cell_length_b 30.120909
_cell_length_c 9.618830
_cell_angle_alpha 90.000000
_cell_angle_beta 90.000000
_cell_angle_gamma 90.000000
_cell_volume 4575.785188
_symmetry_space_group_name_H-M "C M C M"
_symmetry_group_IT_number 63
_symmetry_cell_setting 'orthorhombic'
loop_
_space_group_symop_operation_xyz
x,y,z
-x,-y,1/2+z
x,-y,-z
-x,y,1/2-z
-x,-y,-z
x,y,1/2-z
-x,y,z
x,-y,1/2+z
1/2+x,1/2+y,z
1/2-x,1/2-y,1/2+z
1/2+x,1/2-y,-z
1/2-x,1/2+y,1/2-z
1/2-x,1/2-y,-z
1/2+x,1/2+y,1/2-z
1/2-x,1/2+y,z
1/2+x,1/2-y,1/2+z
loop_
_atom_site_type_symbol
_atom_site_label
_atom_site_fract_x
_atom_site_fract_y
_atom_site_fract_z
Si Si1 0.500000 0.953861 0.416169
Si Si2 0.336898 0.387438 0.413542
Si Si3 0.355907 0.211327 0.904518
Si Si4 0.644644 0.113886 0.585763
Si Si5 0.845481 0.212161 0.597307
Si Si6 0.902357 0.962123 0.595518
O O1 0.500000 0.962990 0.250000
O O2 0.581771 0.925131 0.463604
O O3 0.500000 0.000000 0.500000
O O4 0.349400 0.398520 0.250000
O O5 0.240078 0.396952 0.460825
O O6 0.367726 0.337775 0.447891
O O7 0.395313 0.416441 0.512523
O O8 0.394043 0.216850 0.750000
O O9 0.382267 0.163154 0.969391
O O10 0.255300 0.215273 0.899625
O O11 0.390335 0.251866 0.997579
O O12 0.642350 0.118471 0.750000
O O13 0.881908 0.221883 0.750000
O O14 0.859983 0.960137 0.750000
O O15 0.000000 0.973873 0.615684
O O16 0.857997 0.000000 0.500000
#
# Coordination Sequence:
#
# PCOD8259352 Si02
#       6
#     8  16  16  16  16  16
#     4  10  20  36  54  70  96 132 170 214 265 304
#     4   9  17  31  51  75 102 131 166 203 244 295
#     4   8  13  24  43  66  92 124 162 197 233 284
#     4   8  16  31  51  73  97 130 169 209 249 295
#     4   8  14  24  41  68  98 125 154 193 240 285
#     4  10  21  36  53  73  97 126 161 199 243 295
#
# _framework density 19.231672
#
# number of rings (size 3 to 8) (size 9 to 14) (size 15 to 20)
#    0.000    3.273    0.000    2.727    0.000    2.545 
#    0.000    6.364    2.000    0.000    0.000    0.000 
#    0.000    0.000    0.000    0.000    0.000    0.000 
#
# Total GULP energy -545165.645093 kJ/mol
# GULP energy per Si atom -12390.128298 kJ/mol
# Density = 1.918790 g / cm^3
# Si number density = 19.231672 Si / 1000 Ang^3
#
#
#
# Elastic Constant Matrix: (Units=GPa)
#
#
# Indices 1 2 3 4 5 6 
#
# 1 25.9994 19.7719 12.7628 0.0000 0.0000 0.0000
# 2 19.7719 157.9556 79.7459 0.0000 0.0000 0.0000
# 3 12.7628 79.7459 101.3732 0.0000 0.0000 0.0000
# 4 0.0000 0.0000 0.0000 38.3697 0.0000 0.0000
# 5 0.0000 0.0000 0.0000 0.0000 14.1673 0.0000
# 6 0.0000 0.0000 0.0000 0.0000 0.0000 12.6624
#
#
#
# Elastic Compliance Matrix: (Units=1/GPa)
#
#
# Indices 1 2 3 4 5 6 
#
# 1 0.042739 -0.004368 -0.001945 0.000000 0.000000 0.000000
# 2 -0.004368 0.010948 -0.008062 0.000000 0.000000 0.000000
# 3 -0.001945 -0.008062 0.016452 0.000000 0.000000 0.000000
# 4 0.000000 0.000000 0.000000 0.026062 0.000000 0.000000
# 5 0.000000 0.000000 0.000000 0.000000 0.070585 0.000000
# 6 0.000000 0.000000 0.000000 0.000000 0.000000 0.078974
#
#
# Mechanical properties :
#
#
# Convention : Reuss Voigt Hill
#
# Bulk Modulus (GPa) = 24.16136 56.65437 40.40786
# Shear Modulus (GPa) = 17.34267 24.57638 20.95952
#
# Velocity S-wave (km/s) = 3.00622 3.57867 3.30486
# Velocity P-wave (km/s) = 4.96391 6.82632 5.96821
#
# Compressibility (1/GPa) = 0.04138840
#
# Stress axis : x y z
#
# Youngs Moduli (GPa) = 23.39796 91.34021 60.78383
#
# Poissons Ratio (x) = 0.39897 0.11820
# Poissons Ratio (y) = 0.10220 0.49007
# Poissons Ratio (z) = 0.04550 0.73643
#
# Static dielectric constant tensor:
#      x y z
#    x 3.281130 0.000000 0.000000 
#    y 0.000000 3.728550 0.000000 
#    z 0.000000 0.000000 3.641800 
# 
# 
# High freq. dielectric constant tensor:
#      x y z
#    x 1.711210 0.000000 0.000000 
#    y 0.000000 1.759020 0.000000 
#    z 0.000000 0.000000 1.725680 
# 
# From -- ./inp_files/6837.got.cif
#   From: 2010.03.12/outbox.cif.g09.slc.cpg/sg63_4_cif.got.tgz:6837.got - 2010.04.10 19:34:48.
