data_PCOD8259031
_publ_section_title
;
Structure prediction by ZEFSAII (Michael W. Deem and Ramdas Pophale) SiO2 
 PCOD8259031
Probable space group: C M C M
;
_chemical_formula_sum "Si O2"
_cell_formula_units_Z 80
_cell_length_a 8.903444
_cell_length_b 15.593571
_cell_length_c 28.718273
_cell_angle_alpha 90.000000
_cell_angle_beta 90.000000
_cell_angle_gamma 90.000000
_cell_volume 3987.144112
_symmetry_space_group_name_H-M "C M C M"
_symmetry_group_IT_number 63
_symmetry_cell_setting 'orthorhombic'
loop_
_space_group_symop_operation_xyz
x,y,z
-x,-y,1/2+z
x,-y,-z
-x,y,1/2-z
-x,-y,-z
x,y,1/2-z
-x,y,z
x,-y,1/2+z
1/2+x,1/2+y,z
1/2-x,1/2-y,1/2+z
1/2+x,1/2-y,-z
1/2-x,1/2+y,1/2-z
1/2-x,1/2-y,-z
1/2+x,1/2+y,1/2-z
1/2-x,1/2+y,z
1/2+x,1/2-y,1/2+z
loop_
_atom_site_type_symbol
_atom_site_label
_atom_site_fract_x
_atom_site_fract_y
_atom_site_fract_z
Si Si1 0.826611 0.845519 0.114096
Si Si2 0.827373 0.654978 0.391308
Si Si3 0.177794 0.995413 0.552357
Si Si4 0.324559 0.597077 0.197384
Si Si5 0.327320 0.082838 0.697768
O O1 0.805986 0.752343 0.090132
O O2 0.000000 0.860730 0.127324
O O3 0.767768 0.919112 0.079108
O O4 0.727627 0.846358 0.161140
O O5 0.737041 0.590311 0.423625
O O6 0.767635 0.655194 0.338328
O O7 0.000000 0.626900 0.391766
O O8 0.000000 0.989680 0.552074
O O9 0.241754 0.000000 0.500000
O O10 0.287947 0.627179 0.250000
O O11 0.500000 0.604702 0.186266
O O12 0.276460 0.499333 0.189747
O O13 0.307504 0.119674 0.750000
O O14 0.500000 0.057777 0.688539
#
# Coordination Sequence:
#
# PCOD8259031 Si02
#       5
#    16  16  16  16  16
#     4  10  22  39  59  86 121 157 193 238 294 350
#     4  11  23  38  59  89 121 154 196 243 291 347
#     4  10  22  42  65  86 113 153 198 245 299 357
#     4  10  20  35  57  84 117 158 198 237 288 345
#     4  10  20  34  56  87 120 155 197 241 285 340
#
# _framework density 20.064485999999999
#
# number of rings (size 3 to 8) (size 9 to 14) (size 15 to 20)
#    0.000    1.800    2.000    1.800    0.000    6.000 
#    0.000    4.000    0.000    0.000    0.000    0.000 
#    0.000    0.000    0.000    0.000    0.000    0.000 
#
# Total GULP energy -496052.601153 kJ/mol
# GULP energy per Si atom -12401.315029 kJ/mol
# Density = 2.001882 g / cm^3
# Si number density = 20.064486 Si / 1000 Ang^3
#
#
#
# Elastic Constant Matrix: (Units=GPa)
#
#
# Indices 1 2 3 4 5 6 
#
# 1 26.2890 17.7471 26.4833 0.0000 0.0000 0.0000
# 2 17.7471 110.4164 55.1489 0.0000 0.0000 0.0000
# 3 26.4833 55.1489 126.9806 0.0000 0.0000 0.0000
# 4 0.0000 0.0000 0.0000 13.3748 0.0000 0.0000
# 5 0.0000 0.0000 0.0000 0.0000 25.2011 0.0000
# 6 0.0000 0.0000 0.0000 0.0000 0.0000 27.7136
#
#
#
# Elastic Compliance Matrix: (Units=1/GPa)
#
#
# Indices 1 2 3 4 5 6 
#
# 1 0.049226 -0.003555 -0.008722 0.000000 0.000000 0.000000
# 2 -0.003555 0.011822 -0.004393 0.000000 0.000000 0.000000
# 3 -0.008722 -0.004393 0.011602 0.000000 0.000000 0.000000
# 4 0.000000 0.000000 0.000000 0.074768 0.000000 0.000000
# 5 0.000000 0.000000 0.000000 0.000000 0.039681 0.000000
# 6 0.000000 0.000000 0.000000 0.000000 0.000000 0.036083
#
#
# Mechanical properties :
#
#
# Convention : Reuss Voigt Hill
#
# Bulk Modulus (GPa) = 25.43973 51.38273 38.41123
# Shear Modulus (GPa) = 18.54416 24.21167 21.37791
#
# Velocity S-wave (km/s) = 3.04341 3.47752 3.26768
# Velocity P-wave (km/s) = 5.00563 6.46441 5.78121
#
# Compressibility (1/GPa) = 0.03930859
#
# Stress axis : x y z
#
# Youngs Moduli (GPa) = 20.31454 84.58646 86.18982
#
# Poissons Ratio (x) = 0.30074 0.75179
# Poissons Ratio (y) = 0.07223 0.37863
# Poissons Ratio (z) = 0.17719 0.37159
#
# Static dielectric constant tensor:
#      x y z
#    x 3.591160 0.000000 0.000000 
#    y 0.000000 3.519490 0.000000 
#    z 0.000000 0.000000 3.807980 
# 
# 
# High freq. dielectric constant tensor:
#      x y z
#    x 1.783870 0.000000 0.000000 
#    y 0.000000 1.778530 0.000000 
#    z 0.000000 0.000000 1.779460 
# 
# From -- ./inp_files/66578.got.cif
#   From: 2010.03.12/outbox.cif.g09.slc.cpg/sg63_34_cif.got.tgz:66578.got - 2010.04.10 19:34:48.
