data_PCOD8259050
_publ_section_title
;
Structure prediction by ZEFSAII (Michael W. Deem and Ramdas Pophale) SiO2 
 PCOD8259050
Probable space group: C M C M
;
_chemical_formula_sum "Si O2"
_cell_formula_units_Z 112
_cell_length_a 14.821860
_cell_length_b 14.880731
_cell_length_c 23.229865
_cell_angle_alpha 90.000000
_cell_angle_beta 90.000000
_cell_angle_gamma 90.000000
_cell_volume 5123.581616
_symmetry_space_group_name_H-M "C M C M"
_symmetry_group_IT_number 63
_symmetry_cell_setting 'orthorhombic'
loop_
_space_group_symop_operation_xyz
x,y,z
-x,-y,1/2+z
x,-y,-z
-x,y,1/2-z
-x,-y,-z
x,y,1/2-z
-x,y,z
x,-y,1/2+z
1/2+x,1/2+y,z
1/2-x,1/2-y,1/2+z
1/2+x,1/2-y,-z
1/2-x,1/2+y,1/2-z
1/2-x,1/2-y,-z
1/2+x,1/2+y,1/2-z
1/2-x,1/2+y,z
1/2+x,1/2-y,1/2+z
loop_
_atom_site_type_symbol
_atom_site_label
_atom_site_fract_x
_atom_site_fract_y
_atom_site_fract_z
Si Si1 0.398104 0.361601 0.895183
Si Si2 0.137291 0.599875 0.513140
Si Si3 0.342066 0.400673 0.012394
Si Si4 0.715858 0.685373 0.684180
Si Si5 0.402773 0.166213 0.636048
Si Si6 0.397926 0.757064 0.912194
Si Si7 0.106582 0.989097 0.312868
O O1 0.500000 0.385550 0.913394
O O2 0.340895 0.345620 0.952726
O O3 0.395065 0.273369 0.856596
O O4 0.352533 0.442699 0.859553
O O5 0.098656 0.500000 0.500000
O O6 0.240173 0.590443 0.533235
O O7 0.088624 0.639444 0.569159
O O8 0.123534 0.664913 0.458462
O O9 0.384884 0.500000 0.000000
O O10 0.396090 0.342338 0.059000
O O11 0.719048 0.722178 0.750000
O O12 0.811852 0.636147 0.668838
O O13 0.678368 0.761535 0.639144
O O14 0.640508 0.610302 0.676332
O O15 0.500000 0.135543 0.664072
O O16 0.500000 0.772116 0.888557
O O17 0.137433 0.023054 0.250000
O O18 0.000000 0.988193 0.317728
#
# Coordination Sequence:
#
# PCOD8259050 Si02
#       7
#    16  16  16  16  16  16  16
#     4  10  20  34  57  90 124 156 197 252 309 371
#     4  11  24  42  65  92 128 172 219 267 317 373
#     4  11  21  34  58  93 129 163 200 250 314 378
#     4  11  24  42  62  92 129 165 207 255 313 382
#     4  11  23  42  65  88 120 161 213 268 316 367
#     4  12  23  39  65  96 131 169 208 256 318 386
#     4   9  19  37  61  90 126 165 201 244 310 387
#
# _framework density 21.859708000000001
#
# number of rings (size 3 to 8) (size 9 to 14) (size 15 to 20)
#    0.000    1.286    2.857    3.429    2.000    5.143 
#    0.000    1.429    0.000    0.000    0.000    2.000 
#    0.000    0.000    0.000    0.000    0.000    0.000 
#
# Total GULP energy -693931.588577 kJ/mol
# GULP energy per Si atom -12391.635510 kJ/mol
# Density = 2.180995 g / cm^3
# Si number density = 21.859708 Si / 1000 Ang^3
#
#
#
# Elastic Constant Matrix: (Units=GPa)
#
#
# Indices 1 2 3 4 5 6 
#
# 1 65.3014 6.7875 28.4911 0.0000 0.0000 0.0000
# 2 6.7875 78.7453 22.3114 0.0000 0.0000 0.0000
# 3 28.4911 22.3114 120.8620 0.0000 0.0000 0.0000
# 4 0.0000 0.0000 0.0000 27.4778 0.0000 0.0000
# 5 0.0000 0.0000 0.0000 0.0000 14.9237 0.0000
# 6 0.0000 0.0000 0.0000 0.0000 0.0000 17.2590
#
#
#
# Elastic Compliance Matrix: (Units=1/GPa)
#
#
# Indices 1 2 3 4 5 6 
#
# 1 0.017078 -0.000350 -0.003961 0.000000 0.000000 0.000000
# 2 -0.000350 0.013407 -0.002393 0.000000 0.000000 0.000000
# 3 -0.003961 -0.002393 0.009649 0.000000 0.000000 0.000000
# 4 0.000000 0.000000 0.000000 0.036393 0.000000 0.000000
# 5 0.000000 0.000000 0.000000 0.000000 0.067007 0.000000
# 6 0.000000 0.000000 0.000000 0.000000 0.000000 0.057941
#
#
# Mechanical properties :
#
#
# Convention : Reuss Voigt Hill
#
# Bulk Modulus (GPa) = 37.41437 42.23208 39.82323
# Shear Modulus (GPa) = 22.34209 25.75333 24.04771
#
# Velocity S-wave (km/s) = 3.20045 3.43610 3.32036
# Velocity P-wave (km/s) = 5.55067 5.92485 5.74081
#
# Compressibility (1/GPa) = 0.02672770
#
# Stress axis : x y z
#
# Youngs Moduli (GPa) = 58.55384 74.58665 103.63336
#
# Poissons Ratio (x) = 0.02608 0.41053
# Poissons Ratio (y) = 0.02047 0.24795
# Poissons Ratio (z) = 0.23195 0.17845
#
# Static dielectric constant tensor:
#      x y z
#    x 4.050240 0.000000 0.000000 
#    y 0.000000 3.885790 0.000000 
#    z 0.000000 0.000000 4.027200 
# 
# 
# High freq. dielectric constant tensor:
#      x y z
#    x 1.865270 0.000000 0.000000 
#    y 0.000000 1.840280 0.000000 
#    z 0.000000 0.000000 1.849270 
# 
# From -- ./inp_files/62991.got.cif
#   From: 2010.03.12/outbox.cif.g09.slc.cpg/sg63_32_cif.got.tgz:62991.got - 2010.04.10 19:34:48.
