data_PCOD8259186
_publ_section_title
;
Structure prediction by ZEFSAII (Michael W. Deem and Ramdas Pophale) SiO2 
 PCOD8259186
Probable space group: C M C M
;
_chemical_formula_sum "Si O2"
_cell_formula_units_Z 96
_cell_length_a 9.078852
_cell_length_b 20.016675
_cell_length_c 28.008701
_cell_angle_alpha 90.000000
_cell_angle_beta 90.000000
_cell_angle_gamma 90.000000
_cell_volume 5089.977255
_symmetry_space_group_name_H-M "C M C M"
_symmetry_group_IT_number 63
_symmetry_cell_setting 'orthorhombic'
loop_
_space_group_symop_operation_xyz
x,y,z
-x,-y,1/2+z
x,-y,-z
-x,y,1/2-z
-x,-y,-z
x,y,1/2-z
-x,y,z
x,-y,1/2+z
1/2+x,1/2+y,z
1/2-x,1/2-y,1/2+z
1/2+x,1/2-y,-z
1/2-x,1/2+y,1/2-z
1/2-x,1/2-y,-z
1/2+x,1/2+y,1/2-z
1/2-x,1/2+y,z
1/2+x,1/2-y,1/2+z
loop_
_atom_site_type_symbol
_atom_site_label
_atom_site_fract_x
_atom_site_fract_y
_atom_site_fract_z
Si Si1 0.328927 0.507242 0.805073
Si Si2 0.674107 0.431321 0.519791
Si Si3 0.825988 0.111220 0.375920
Si Si4 0.171635 0.198562 0.533665
Si Si5 0.165745 0.639637 0.693554
Si Si6 0.326022 0.748773 0.863329
O O1 0.291123 0.490741 0.750000
O O2 0.500000 0.524499 0.811550
O O3 0.283736 0.443861 0.836672
O O4 0.240174 0.571133 0.824641
O O5 0.744353 0.500000 0.500000
O O6 0.500000 0.438998 0.523641
O O7 0.733763 0.413059 0.572480
O O8 0.720837 0.375507 0.481457
O O9 0.743583 0.178234 0.360996
O O10 0.000000 0.125373 0.377129
O O11 0.250000 0.250000 0.500000
O O12 0.217810 0.211519 0.587829
O O13 0.000000 0.208863 0.525669
O O14 0.164805 0.639412 0.750000
O O15 0.258915 0.703964 0.678378
O O16 0.000000 0.643825 0.673012
O O17 0.500000 0.755061 0.856556
#
# Coordination Sequence:
#
# PCOD8259186 Si02
#       6
#    16  16  16  16  16  16
#     4   9  19  36  58  84 112 142 181 231 283 335
#     4   9  18  32  53  79 106 142 188 233 274 323
#     4  10  20  35  57  81 112 153 193 231 277 334
#     4  10  20  35  56  80 111 148 186 228 276 331
#     4  10  22  40  61  84 111 146 188 231 280 342
#     4  11  23  36  56  85 117 150 188 235 284 333
#
# _framework density 18.860595
#
# number of rings (size 3 to 8) (size 9 to 14) (size 15 to 20)
#    0.000    2.167    1.667    1.000    2.333    3.000 
#    0.000    1.667    0.000    1.000    0.000    0.000 
#    0.000    0.000    0.000    0.000    0.000    0.000 
#
# Total GULP energy -595282.187915 kJ/mol
# GULP energy per Si atom -12401.712248 kJ/mol
# Density = 1.881767 g / cm^3
# Si number density = 18.860595 Si / 1000 Ang^3
#
#
#
# Elastic Constant Matrix: (Units=GPa)
#
#
# Indices 1 2 3 4 5 6 
#
# 1 63.6801 58.6561 31.4493 0.0000 0.0000 0.0000
# 2 58.6561 174.3747 54.5882 0.0000 0.0000 0.0000
# 3 31.4493 54.5882 57.0618 0.0000 0.0000 0.0000
# 4 0.0000 0.0000 0.0000 41.4604 0.0000 0.0000
# 5 0.0000 0.0000 0.0000 0.0000 21.6389 0.0000
# 6 0.0000 0.0000 0.0000 0.0000 0.0000 35.2703
#
#
#
# Elastic Compliance Matrix: (Units=1/GPa)
#
#
# Indices 1 2 3 4 5 6 
#
# 1 0.025211 -0.005897 -0.008254 0.000000 0.000000 0.000000
# 2 -0.005897 0.009566 -0.005901 0.000000 0.000000 0.000000
# 3 -0.008254 -0.005901 0.027719 0.000000 0.000000 0.000000
# 4 0.000000 0.000000 0.000000 0.024119 0.000000 0.000000
# 5 0.000000 0.000000 0.000000 0.000000 0.046213 0.000000
# 6 0.000000 0.000000 0.000000 0.000000 0.000000 0.028352
#
#
# Mechanical properties :
#
#
# Convention : Reuss Voigt Hill
#
# Bulk Modulus (GPa) = 44.65738 64.94487 54.80112
# Shear Modulus (GPa) = 23.95224 29.70213 26.82719
#
# Velocity S-wave (km/s) = 3.56752 3.97271 3.77555
# Velocity P-wave (km/s) = 6.37955 7.45333 6.93725
#
# Compressibility (1/GPa) = 0.02239272
#
# Stress axis : x y z
#
# Youngs Moduli (GPa) = 39.66480 104.54118 36.07596
#
# Poissons Ratio (x) = 0.61644 0.29777
# Poissons Ratio (y) = 0.23389 0.21289
# Poissons Ratio (z) = 0.32740 0.61690
#
# Static dielectric constant tensor:
#      x y z
#    x 3.328180 0.000000 0.000000 
#    y 0.000000 3.553820 0.000000 
#    z 0.000000 0.000000 3.519460 
# 
# 
# High freq. dielectric constant tensor:
#      x y z
#    x 1.714210 0.000000 0.000000 
#    y 0.000000 1.745210 0.000000 
#    z 0.000000 0.000000 1.735700 
# 
# From -- ./inp_files/66886.got.cif
#   From: 2010.03.12/outbox.cif.g09.slc.cpg/sg63_34_cif.got.tgz:66886.got - 2010.04.10 19:34:48.
