data_PCOD8259042
_publ_section_title
;
Structure prediction by ZEFSAII (Michael W. Deem and Ramdas Pophale) SiO2 
 PCOD8259042
Probable space group: C M C M
;
_chemical_formula_sum "Si O2"
_cell_formula_units_Z 72
_cell_length_a 20.996222
_cell_length_b 19.357543
_cell_length_c 8.989288
_cell_angle_alpha 90.000000
_cell_angle_beta 90.000000
_cell_angle_gamma 90.000000
_cell_volume 3653.563697
_symmetry_space_group_name_H-M "C M C M"
_symmetry_group_IT_number 63
_symmetry_cell_setting 'orthorhombic'
loop_
_space_group_symop_operation_xyz
x,y,z
-x,-y,1/2+z
x,-y,-z
-x,y,1/2-z
-x,-y,-z
x,y,1/2-z
-x,y,z
x,-y,1/2+z
1/2+x,1/2+y,z
1/2-x,1/2-y,1/2+z
1/2+x,1/2-y,-z
1/2-x,1/2+y,1/2-z
1/2-x,1/2-y,-z
1/2+x,1/2+y,1/2-z
1/2-x,1/2+y,z
1/2+x,1/2-y,1/2+z
loop_
_atom_site_type_symbol
_atom_site_label
_atom_site_fract_x
_atom_site_fract_y
_atom_site_fract_z
Si Si1 0.611504 0.160909 0.577326
Si Si2 0.748391 0.323680 0.424031
Si Si3 0.375642 0.679237 0.075495
Si Si4 0.500000 0.924245 0.572280
Si Si5 0.571903 0.562343 0.911636
O O1 0.592298 0.151395 0.750000
O O2 0.684658 0.135700 0.548533
O O3 0.609174 0.241699 0.531851
O O4 0.563185 0.117022 0.477467
O O5 0.738029 0.312905 0.250000
O O6 0.750000 0.250000 0.500000
O O7 0.686705 0.357637 0.499602
O O8 0.368132 0.672328 0.250000
O O9 0.431297 0.632228 0.009945
O O10 0.500000 0.931293 0.750000
O O11 0.500000 0.000000 0.500000
O O12 0.605180 0.573748 0.750000
O O13 0.500000 0.539491 0.882617
O O14 0.607114 0.500000 0.000000
#
# Coordination Sequence:
#
# PCOD8259042 Si02
#       5
#    16  16  16   8  16
#     4   9  20  38  59  84 114 147 184 228 281 335
#     4   9  17  32  55  83 114 147 182 230 283 333
#     4  10  20  34  57  86 116 150 186 232 281 332
#     4  12  26  42  62  84 113 150 189 238 290 344
#     4  10  21  36  53  76 110 150 189 230 275 327
#
# _framework density 19.706786000000001
#
# number of rings (size 3 to 8) (size 9 to 14) (size 15 to 20)
#    0.000    2.222    0.000    4.333    1.556    6.667 
#    0.000    1.111    0.000    5.333    0.000    0.000 
#    0.000    0.000    0.000    0.000    0.000    0.000 
#
# Total GULP energy -445976.532993 kJ/mol
# GULP energy per Si atom -12388.237028 kJ/mol
# Density = 1.966193 g / cm^3
# Si number density = 19.706786 Si / 1000 Ang^3
#
#
#
# Elastic Constant Matrix: (Units=GPa)
#
#
# Indices 1 2 3 4 5 6 
#
# 1 87.6215 40.0830 55.4846 0.0000 0.0000 0.0000
# 2 40.0830 102.1979 66.8178 0.0000 0.0000 0.0000
# 3 55.4846 66.8178 146.4273 0.0000 0.0000 0.0000
# 4 0.0000 0.0000 0.0000 33.1787 0.0000 0.0000
# 5 0.0000 0.0000 0.0000 0.0000 34.3851 0.0000
# 6 0.0000 0.0000 0.0000 0.0000 0.0000 9.5237
#
#
#
# Elastic Compliance Matrix: (Units=1/GPa)
#
#
# Indices 1 2 3 4 5 6 
#
# 1 0.015734 -0.003240 -0.004484 0.000000 0.000000 0.000000
# 2 -0.003240 0.014613 -0.005440 0.000000 0.000000 0.000000
# 3 -0.004484 -0.005440 0.011011 0.000000 0.000000 0.000000
# 4 0.000000 0.000000 0.000000 0.030140 0.000000 0.000000
# 5 0.000000 0.000000 0.000000 0.000000 0.029082 0.000000
# 6 0.000000 0.000000 0.000000 0.000000 0.000000 0.105001
#
#
# Mechanical properties :
#
#
# Convention : Reuss Voigt Hill
#
# Bulk Modulus (GPa) = 66.53371 73.44639 69.99005
# Shear Modulus (GPa) = 21.10437 27.00825 24.05631
#
# Velocity S-wave (km/s) = 3.27604 3.70605 3.49766
# Velocity P-wave (km/s) = 6.93866 7.46080 7.20446
#
# Compressibility (1/GPa) = 0.01502997
#
# Stress axis : x y z
#
# Youngs Moduli (GPa) = 63.55731 68.43436 90.81925
#
# Poissons Ratio (x) = 0.22169 0.40720
# Poissons Ratio (y) = 0.20590 0.49410
# Poissons Ratio (z) = 0.28497 0.37232
#
# Static dielectric constant tensor:
#      x y z
#    x 3.976120 0.000000 0.000000 
#    y 0.000000 3.351540 0.000000 
#    z 0.000000 0.000000 4.242670 
# 
# 
# High freq. dielectric constant tensor:
#      x y z
#    x 1.768090 0.000000 0.000000 
#    y 0.000000 1.739690 0.000000 
#    z 0.000000 0.000000 1.783430 
# 
# From -- ./inp_files/7812.got.cif
#   From: 2010.03.12/outbox.cif.g09.slc.cpg/sg63_4_cif.got.tgz:7812.got - 2010.04.10 19:34:48.
