data_PCOD8259855
_publ_section_title
;
Structure prediction by ZEFSAII (Michael W. Deem and Ramdas Pophale) SiO2 
 PCOD8259855
Probable space group: C M C M
;
_chemical_formula_sum "Si O2"
_cell_formula_units_Z 88
_cell_length_a 15.189621
_cell_length_b 11.019212
_cell_length_c 27.599045
_cell_angle_alpha 90.000000
_cell_angle_beta 90.000000
_cell_angle_gamma 90.000000
_cell_volume 4619.463405
_symmetry_space_group_name_H-M "C M C M"
_symmetry_group_IT_number 63
_symmetry_cell_setting 'orthorhombic'
loop_
_space_group_symop_operation_xyz
x,y,z
-x,-y,1/2+z
x,-y,-z
-x,y,1/2-z
-x,-y,-z
x,y,1/2-z
-x,y,z
x,-y,1/2+z
1/2+x,1/2+y,z
1/2-x,1/2-y,1/2+z
1/2+x,1/2-y,-z
1/2-x,1/2+y,1/2-z
1/2-x,1/2-y,-z
1/2+x,1/2+y,1/2-z
1/2-x,1/2+y,z
1/2+x,1/2-y,1/2+z
loop_
_atom_site_type_symbol
_atom_site_label
_atom_site_fract_x
_atom_site_fract_y
_atom_site_fract_z
Si Si1 0.832669 0.612305 0.870843
Si Si2 0.313618 0.858983 0.017154
Si Si3 0.000000 0.212456 0.807410
Si Si4 0.000000 0.633051 0.479640
Si Si5 0.000000 0.560815 0.128124
Si Si6 0.400708 0.691761 0.197535
Si Si7 0.828684 0.070435 0.803617
O O1 0.806615 0.638781 0.925453
O O2 0.912877 0.519093 0.867871
O O3 0.857813 0.737425 0.846200
O O4 0.748819 0.564903 0.842195
O O5 0.250000 0.750000 0.000000
O O6 0.409649 0.809597 0.999934
O O7 0.293232 0.000000 0.000000
O O8 0.088495 0.144910 0.825373
O O9 0.000000 0.216204 0.750000
O O10 0.000000 0.348134 0.827220
O O11 0.000000 0.500000 0.500000
O O12 0.000000 0.636502 0.421577
O O13 0.395032 0.760539 0.250000
O O14 0.500000 0.665097 0.182935
O O15 0.352260 0.567080 0.203819
O O16 0.801221 0.122552 0.750000
#
# Coordination Sequence:
#
# PCOD8259855 Si02
#       7
#    16  16   8   8   8  16  16
#     4  12  24  39  65  94 124 163 215 261 314 379
#     4  11  25  44  67  96 128 169 215 268 326 386
#     4  10  24  43  63  90 130 173 212 259 318 385
#     4  10  20  46  65  85 124 175 202 254 332 383
#     4  12  24  41  65  93 124 168 214 259 310 383
#     4  10  21  39  61  85 121 163 205 254 312 373
#     4  10  23  42  61  88 127 169 208 259 321 375
#
# _framework density 19.049831000000001
#
# number of rings (size 3 to 8) (size 9 to 14) (size 15 to 20)
#    0.000    1.273    5.455    0.545    7.636    1.455 
#    0.000    0.455    0.000    0.000    0.000    0.000 
#    0.000    0.000    0.000    0.000    0.000    0.000 
#
# Total GULP energy -545230.176621 kJ/mol
# GULP energy per Si atom -12391.594923 kJ/mol
# Density = 1.900647 g / cm^3
# Si number density = 19.049831 Si / 1000 Ang^3
#
#
#
# Elastic Constant Matrix: (Units=GPa)
#
#
# Indices 1 2 3 4 5 6 
#
# 1 166.3342 45.1044 87.1981 0.0000 0.0000 0.0000
# 2 45.1044 88.8783 52.0507 0.0000 0.0000 0.0000
# 3 87.1981 52.0507 111.4988 0.0000 0.0000 0.0000
# 4 0.0000 0.0000 0.0000 19.8127 0.0000 0.0000
# 5 0.0000 0.0000 0.0000 0.0000 36.0489 0.0000
# 6 0.0000 0.0000 0.0000 0.0000 0.0000 32.6553
#
#
#
# Elastic Compliance Matrix: (Units=1/GPa)
#
#
# Indices 1 2 3 4 5 6 
#
# 1 0.010221 -0.000696 -0.007668 0.000000 0.000000 0.000000
# 2 -0.000696 0.015532 -0.006707 0.000000 0.000000 0.000000
# 3 -0.007668 -0.006707 0.018096 0.000000 0.000000 0.000000
# 4 0.000000 0.000000 0.000000 0.050473 0.000000 0.000000
# 5 0.000000 0.000000 0.000000 0.000000 0.027740 0.000000
# 6 0.000000 0.000000 0.000000 0.000000 0.000000 0.030623
#
#
# Mechanical properties :
#
#
# Convention : Reuss Voigt Hill
#
# Bulk Modulus (GPa) = 72.95113 81.71307 77.33210
# Shear Modulus (GPa) = 26.68151 29.86057 28.27104
#
# Velocity S-wave (km/s) = 3.74654 3.96346 3.85653
# Velocity P-wave (km/s) = 7.55602 7.99580 7.77902
#
# Compressibility (1/GPa) = 0.01370781
#
# Stress axis : x y z
#
# Youngs Moduli (GPa) = 97.84102 64.38248 55.25954
#
# Poissons Ratio (x) = 0.04481 0.42374
# Poissons Ratio (y) = 0.06810 0.37060
# Poissons Ratio (z) = 0.75026 0.43178
#
# Static dielectric constant tensor:
#      x y z
#    x 3.048780 0.000000 0.000000 
#    y 0.000000 3.383120 0.000000 
#    z 0.000000 0.000000 3.525590 
# 
# 
# High freq. dielectric constant tensor:
#      x y z
#    x 1.756410 0.000000 0.000000 
#    y 0.000000 1.727130 0.000000 
#    z 0.000000 0.000000 1.750320 
# 
# From -- ./inp_files/69269.got.cif
#   From: 2010.03.12/outbox.cif.g09.slc.cpg/sg63_35_cif.got.tgz:69269.got - 2010.04.10 19:34:48.
