data_PCOD8259640
_publ_section_title
;
Structure prediction by ZEFSAII (Michael W. Deem and Ramdas Pophale) SiO2 
 PCOD8259640
Probable space group: C M C M
;
_chemical_formula_sum "Si O2"
_cell_formula_units_Z 64
_cell_length_a 8.549666
_cell_length_b 22.769290
_cell_length_c 16.295479
_cell_angle_alpha 90.000000
_cell_angle_beta 90.000000
_cell_angle_gamma 90.000000
_cell_volume 3172.238038
_symmetry_space_group_name_H-M "C M C M"
_symmetry_group_IT_number 63
_symmetry_cell_setting 'orthorhombic'
loop_
_space_group_symop_operation_xyz
x,y,z
-x,-y,1/2+z
x,-y,-z
-x,y,1/2-z
-x,-y,-z
x,y,1/2-z
-x,y,z
x,-y,1/2+z
1/2+x,1/2+y,z
1/2-x,1/2-y,1/2+z
1/2+x,1/2-y,-z
1/2-x,1/2+y,1/2-z
1/2-x,1/2-y,-z
1/2+x,1/2+y,1/2-z
1/2-x,1/2+y,z
1/2+x,1/2-y,1/2+z
loop_
_atom_site_type_symbol
_atom_site_label
_atom_site_fract_x
_atom_site_fract_y
_atom_site_fract_z
Si Si1 0.182312 0.397148 0.250000
Si Si2 0.685321 0.729582 0.750000
Si Si3 0.182835 0.581144 0.449575
Si Si4 0.318870 0.472633 0.109485
Si Si5 0.816501 0.285970 0.922789
O O1 0.213736 0.328559 0.250000
O O2 0.261581 0.424153 0.171400
O O3 0.000000 0.409968 0.250000
O O4 0.500000 0.716935 0.750000
O O5 0.736751 0.763417 0.666880
O O6 0.221453 0.533725 0.377789
O O7 0.290526 0.557847 0.522454
O O8 0.237662 0.646311 0.426074
O O9 0.000000 0.579388 0.472841
O O10 0.500000 0.486539 0.122530
O O11 0.000000 0.280960 0.930967
O O12 0.750000 0.250000 0.000000
#
# Coordination Sequence:
#
# PCOD8259640 Si02
#       5
#     8   8  16  16  16
#     4  12  24  39  58  83 113 148 190 240 291 346
#     4  10  22  41  60  85 117 152 194 242 291 352
#     4  10  20  37  59  86 116 151 192 236 286 345
#     4  11  22  37  58  85 114 150 190 237 291 346
#     4  10  22  38  60  86 118 157 197 240 292 346
#
# _framework density 20.17503
#
# number of rings (size 3 to 8) (size 9 to 14) (size 15 to 20)
#    0.000    1.500    0.000    7.125    0.000    8.000 
#    0.000    2.500    0.000    0.000    0.000    0.000 
#    0.000    0.000    0.000    0.000    0.000    0.000 
#
# Total GULP energy -396695.111541 kJ/mol
# GULP energy per Si atom -12396.722236 kJ/mol
# Density = 2.012911 g / cm^3
# Si number density = 20.175030 Si / 1000 Ang^3
#
#
#
# Elastic Constant Matrix: (Units=GPa)
#
#
# Indices 1 2 3 4 5 6 
#
# 1 76.7220 39.6002 25.3810 0.0000 0.0000 0.0000
# 2 39.6002 185.6849 71.1508 0.0000 0.0000 0.0000
# 3 25.3810 71.1508 115.9630 0.0000 0.0000 0.0000
# 4 0.0000 0.0000 0.0000 33.1335 0.0000 0.0000
# 5 0.0000 0.0000 0.0000 0.0000 31.0665 0.0000
# 6 0.0000 0.0000 0.0000 0.0000 0.0000 35.0523
#
#
#
# Elastic Compliance Matrix: (Units=1/GPa)
#
#
# Indices 1 2 3 4 5 6 
#
# 1 0.014903 -0.002521 -0.001715 0.000000 0.000000 0.000000
# 2 -0.002521 0.007467 -0.004030 0.000000 0.000000 0.000000
# 3 -0.001715 -0.004030 0.011471 0.000000 0.000000 0.000000
# 4 0.000000 0.000000 0.000000 0.030181 0.000000 0.000000
# 5 0.000000 0.000000 0.000000 0.000000 0.032189 0.000000
# 6 0.000000 0.000000 0.000000 0.000000 0.000000 0.028529
#
#
# Mechanical properties :
#
#
# Convention : Reuss Voigt Hill
#
# Bulk Modulus (GPa) = 57.77152 72.29265 65.03209
# Shear Modulus (GPa) = 34.00395 35.99964 35.00179
#
# Velocity S-wave (km/s) = 4.10987 4.22876 4.16974
# Velocity P-wave (km/s) = 7.15673 7.73005 7.44891
#
# Compressibility (1/GPa) = 0.01730957
#
# Stress axis : x y z
#
# Youngs Moduli (GPa) = 67.10204 133.91718 87.17354
#
# Poissons Ratio (x) = 0.33762 0.14950
# Poissons Ratio (y) = 0.16917 0.35130
# Poissons Ratio (z) = 0.11507 0.53967
#
# Static dielectric constant tensor:
#      x y z
#    x 3.584270 0.000000 0.000000 
#    y 0.000000 4.120360 0.000000 
#    z 0.000000 0.000000 3.875440 
# 
# 
# High freq. dielectric constant tensor:
#      x y z
#    x 1.787780 0.000000 0.000000 
#    y 0.000000 1.807550 0.000000 
#    z 0.000000 0.000000 1.784700 
# 
# From -- ./inp_files/27565.got.cif
#   From: 2010.03.12/outbox.cif.g09.slc.cpg/sg63_14_cif.got.tgz:27565.got - 2010.04.10 19:34:48.
