data_PCOD8259985
_publ_section_title
;
Structure prediction by ZEFSAII (Michael W. Deem and Ramdas Pophale) SiO2 
 PCOD8259985
Probable space group: C M C M
;
_chemical_formula_sum "Si O2"
_cell_formula_units_Z 96
_cell_length_a 10.785814
_cell_length_b 30.752119
_cell_length_c 13.940223
_cell_angle_alpha 90.000000
_cell_angle_beta 90.000000
_cell_angle_gamma 90.000000
_cell_volume 4623.785667
_symmetry_space_group_name_H-M "C M C M"
_symmetry_group_IT_number 63
_symmetry_cell_setting 'orthorhombic'
loop_
_space_group_symop_operation_xyz
x,y,z
-x,-y,1/2+z
x,-y,-z
-x,y,1/2-z
-x,-y,-z
x,y,1/2-z
-x,y,z
x,-y,1/2+z
1/2+x,1/2+y,z
1/2-x,1/2-y,1/2+z
1/2+x,1/2-y,-z
1/2-x,1/2+y,1/2-z
1/2-x,1/2-y,-z
1/2+x,1/2+y,1/2-z
1/2-x,1/2+y,z
1/2+x,1/2-y,1/2+z
loop_
_atom_site_type_symbol
_atom_site_label
_atom_site_fract_x
_atom_site_fract_y
_atom_site_fract_z
Si Si1 0.237939 0.393442 0.467159
Si Si2 0.500000 0.894321 0.141706
Si Si3 0.140499 0.805297 0.038175
Si Si4 0.858487 0.745188 0.861328
Si Si5 0.000000 0.503785 0.612857
Si Si6 0.268486 0.052729 0.354811
Si Si7 0.637470 0.529474 0.637393
O O1 0.345087 0.357383 0.465812
O O2 0.207504 0.406315 0.576732
O O3 0.270619 0.437890 0.414288
O O4 0.117047 0.374523 0.414804
O O5 0.500000 0.875848 0.250000
O O6 0.500000 0.946334 0.143893
O O7 0.247842 0.787620 0.109033
O O8 0.000000 0.795059 0.076020
O O9 0.156987 0.787039 0.930255
O O10 0.838908 0.758623 0.750000
O O11 0.000000 0.726056 0.874580
O O12 0.000000 0.500000 0.500000
O O13 0.883162 0.479640 0.656485
O O14 0.236543 0.072096 0.250000
O O15 0.158861 0.020962 0.393717
O O16 0.661437 0.534045 0.750000
O O17 0.500000 0.542980 0.608319
#
# Coordination Sequence:
#
# PCOD8259985 Si02
#       7
#    16   8  16  16   8  16  16
#     4  12  23  37  57  85 119 155 194 245 306 355
#     4  12  24  37  56  83 116 156 204 257 302 353
#     4  10  23  41  64  96 129 157 194 246 298 363
#     4   9  20  43  72  96 121 158 197 237 295 365
#     4  12  18  37  59  78 105 157 212 259 311 348
#     4  11  22  36  55  79 111 155 206 252 298 355
#     4  10  21  36  53  76 110 153 199 245 292 349
#
# _framework density 20.762208999999999
#
# number of rings (size 3 to 8) (size 9 to 14) (size 15 to 20)
#    0.000    1.333    3.333    2.250    1.167    4.333 
#    0.000    0.000    0.000    0.000    0.000    0.000 
#    0.000    0.000    0.000    0.000    0.000    0.000 
#
# Total GULP energy -594989.564611 kJ/mol
# GULP energy per Si atom -12395.615929 kJ/mol
# Density = 2.071495 g / cm^3
# Si number density = 20.762209 Si / 1000 Ang^3
#
#
#
# Elastic Constant Matrix: (Units=GPa)
#
#
# Indices 1 2 3 4 5 6 
#
# 1 117.9646 25.1284 53.1601 0.0000 0.0000 0.0000
# 2 25.1284 57.4916 35.6230 0.0000 0.0000 0.0000
# 3 53.1601 35.6230 108.9784 0.0000 0.0000 0.0000
# 4 0.0000 0.0000 0.0000 8.2749 0.0000 0.0000
# 5 0.0000 0.0000 0.0000 0.0000 28.5627 0.0000
# 6 0.0000 0.0000 0.0000 0.0000 0.0000 28.3931
#
#
#
# Elastic Compliance Matrix: (Units=1/GPa)
#
#
# Indices 1 2 3 4 5 6 
#
# 1 0.011023 -0.001864 -0.004768 0.000000 0.000000 0.000000
# 2 -0.001864 0.022127 -0.006324 0.000000 0.000000 0.000000
# 3 -0.004768 -0.006324 0.013569 0.000000 0.000000 0.000000
# 4 0.000000 0.000000 0.000000 0.120847 0.000000 0.000000
# 5 0.000000 0.000000 0.000000 0.000000 0.035011 0.000000
# 6 0.000000 0.000000 0.000000 0.000000 0.000000 0.035220
#
#
# Mechanical properties :
#
#
# Convention : Reuss Voigt Hill
#
# Bulk Modulus (GPa) = 48.05795 56.91749 52.48772
# Shear Modulus (GPa) = 18.47457 24.41435 21.44446
#
# Velocity S-wave (km/s) = 2.98622 3.43286 3.21730
# Velocity P-wave (km/s) = 5.92343 6.57162 6.25593
#
# Compressibility (1/GPa) = 0.02080821
#
# Stress axis : x y z
#
# Youngs Moduli (GPa) = 90.72234 45.19428 73.69765
#
# Poissons Ratio (x) = 0.08422 0.35137
# Poissons Ratio (y) = 0.16907 0.46604
# Poissons Ratio (z) = 0.43254 0.28580
#
# Static dielectric constant tensor:
#      x y z
#    x 4.306190 0.000000 0.000000 
#    y 0.000000 3.423250 0.000000 
#    z 0.000000 0.000000 3.833840 
# 
# 
# High freq. dielectric constant tensor:
#      x y z
#    x 1.825300 0.000000 0.000000 
#    y 0.000000 1.778830 0.000000 
#    z 0.000000 0.000000 1.821690 
# 
# From -- ./inp_files/30354.got.cif
#   From: 2010.03.12/outbox.cif.g09.slc.cpg/sg63_16_cif.got.tgz:30354.got - 2010.04.10 19:34:48.
