data_PCOD8259878
_publ_section_title
;
Structure prediction by ZEFSAII (Michael W. Deem and Ramdas Pophale) SiO2 
 PCOD8259878
Probable space group: C M C M
;
_chemical_formula_sum "Si O2"
_cell_formula_units_Z 88
_cell_length_a 17.165683
_cell_length_b 19.419444
_cell_length_c 15.147361
_cell_angle_alpha 90.000000
_cell_angle_beta 90.000000
_cell_angle_gamma 90.000000
_cell_volume 5049.342794
_symmetry_space_group_name_H-M "C M C M"
_symmetry_group_IT_number 63
_symmetry_cell_setting 'orthorhombic'
loop_
_space_group_symop_operation_xyz
x,y,z
-x,-y,1/2+z
x,-y,-z
-x,y,1/2-z
-x,-y,-z
x,y,1/2-z
-x,y,z
x,-y,1/2+z
1/2+x,1/2+y,z
1/2-x,1/2-y,1/2+z
1/2+x,1/2-y,-z
1/2-x,1/2+y,1/2-z
1/2-x,1/2-y,-z
1/2+x,1/2+y,1/2-z
1/2-x,1/2+y,z
1/2+x,1/2-y,1/2+z
loop_
_atom_site_type_symbol
_atom_site_label
_atom_site_fract_x
_atom_site_fract_y
_atom_site_fract_z
Si Si1 0.913516 0.620678 0.354935
Si Si2 0.590715 0.354089 0.491429
Si Si3 0.180319 0.810368 0.846947
Si Si4 0.836379 0.239703 0.852529
Si Si5 0.665494 0.500000 0.500000
Si Si6 0.766492 0.455431 0.651656
O O1 0.912741 0.624703 0.250000
O O2 0.884764 0.694903 0.389910
O O3 0.854791 0.559022 0.383061
O O4 0.000000 0.604945 0.392036
O O5 0.500000 0.344875 0.473995
O O6 0.613749 0.310625 0.578794
O O7 0.638284 0.326977 0.407375
O O8 0.610150 0.434101 0.504675
O O9 0.142314 0.797915 0.750000
O O10 0.243965 0.751185 0.866997
O O11 0.225258 0.882043 0.845895
O O12 0.855142 0.226045 0.750000
O O13 0.721239 0.506036 0.585713
O O14 0.766256 0.488511 0.750000
#
# Coordination Sequence:
#
# PCOD8259878 Si02
#       6
#    16  16  16  16   8  16
#     4   8  13  24  45  71  93 109 134 183 241 286
#     4  11  21  31  46  68  95 126 158 193 229 264
#     4   8  16  32  51  68  87 115 153 192 230 277
#     4   9  17  30  49  73  97 117 141 181 237 294
#     4  10  21  34  43  58  90 130 170 196 213 252
#     4   8  15  29  47  63  83 117 155 188 225 270
#
# _framework density 17.428011000000001
#
# number of rings (size 3 to 8) (size 9 to 14) (size 15 to 20)
#    0.000    3.091    0.000    3.545    0.000    2.182 
#    0.000    0.455    0.000    3.273    0.000    1.273 
#    0.000    2.909    0.000    0.000    0.000    0.000 
#
# Total GULP energy -545365.146302 kJ/mol
# GULP energy per Si atom -12394.662416 kJ/mol
# Density = 1.738834 g / cm^3
# Si number density = 17.428011 Si / 1000 Ang^3
#
#
#
# Elastic Constant Matrix: (Units=GPa)
#
#
# Indices 1 2 3 4 5 6 
#
# 1 52.2228 32.0778 31.9169 0.0000 0.0000 0.0000
# 2 32.0778 38.0792 34.0117 0.0000 0.0000 0.0000
# 3 31.9169 34.0117 91.8895 0.0000 0.0000 0.0000
# 4 0.0000 0.0000 0.0000 23.2824 0.0000 0.0000
# 5 0.0000 0.0000 0.0000 0.0000 20.7278 0.0000
# 6 0.0000 0.0000 0.0000 0.0000 0.0000 18.6563
#
#
#
# Elastic Compliance Matrix: (Units=1/GPa)
#
#
# Indices 1 2 3 4 5 6 
#
# 1 0.039956 -0.031765 -0.002121 0.000000 0.000000 0.000000
# 2 -0.031765 0.064483 -0.012834 0.000000 0.000000 0.000000
# 3 -0.002121 -0.012834 0.016370 0.000000 0.000000 0.000000
# 4 0.000000 0.000000 0.000000 0.042951 0.000000 0.000000
# 5 0.000000 0.000000 0.000000 0.000000 0.048244 0.000000
# 6 0.000000 0.000000 0.000000 0.000000 0.000000 0.053601
#
#
# Mechanical properties :
#
#
# Convention : Reuss Voigt Hill
#
# Bulk Modulus (GPa) = 36.53784 42.02269 39.28027
# Shear Modulus (GPa) = 13.58071 18.14562 15.86317
#
# Velocity S-wave (km/s) = 2.79453 3.23023 3.02024
# Velocity P-wave (km/s) = 5.60562 6.17066 5.89491
#
# Compressibility (1/GPa) = 0.02736889
#
# Stress axis : x y z
#
# Youngs Moduli (GPa) = 25.02722 15.50800 61.08757
#
# Poissons Ratio (x) = 0.49260 0.12958
# Poissons Ratio (y) = 0.79498 0.78402
# Poissons Ratio (z) = 0.05309 0.19904
#
# Static dielectric constant tensor:
#      x y z
#    x 3.395640 0.000000 0.000000 
#    y 0.000000 2.894780 0.000000 
#    z 0.000000 0.000000 3.371360 
# 
# 
# High freq. dielectric constant tensor:
#      x y z
#    x 1.668990 0.000000 0.000000 
#    y 0.000000 1.637200 0.000000 
#    z 0.000000 0.000000 1.664760 
# 
# From -- ./inp_files/34138.got.cif
#   From: 2010.03.12/outbox.cif.g09.slc.cpg/sg63_18_cif.got.tgz:34138.got - 2010.04.10 19:34:48.
