data_PCOD8259341
_publ_section_title
;
Structure prediction by ZEFSAII (Michael W. Deem and Ramdas Pophale) SiO2 
 PCOD8259341
Probable space group: C M C M
;
_chemical_formula_sum "Si O2"
_cell_formula_units_Z 96
_cell_length_a 22.229555
_cell_length_b 13.704831
_cell_length_c 14.502120
_cell_angle_alpha 90.000000
_cell_angle_beta 90.000000
_cell_angle_gamma 90.000000
_cell_volume 4418.104133
_symmetry_space_group_name_H-M "C M C M"
_symmetry_group_IT_number 63
_symmetry_cell_setting 'orthorhombic'
loop_
_space_group_symop_operation_xyz
x,y,z
-x,-y,1/2+z
x,-y,-z
-x,y,1/2-z
-x,-y,-z
x,y,1/2-z
-x,y,z
x,-y,1/2+z
1/2+x,1/2+y,z
1/2-x,1/2-y,1/2+z
1/2+x,1/2-y,-z
1/2-x,1/2+y,1/2-z
1/2-x,1/2-y,-z
1/2+x,1/2+y,1/2-z
1/2-x,1/2+y,z
1/2+x,1/2-y,1/2+z
loop_
_atom_site_type_symbol
_atom_site_label
_atom_site_fract_x
_atom_site_fract_y
_atom_site_fract_z
Si Si1 0.110264 0.165173 0.146792
Si Si2 0.158352 0.356277 0.852192
Si Si3 0.732280 0.244479 0.894642
Si Si4 0.370047 0.447717 0.143942
Si Si5 0.764121 0.467652 0.144227
Si Si6 0.931116 0.229762 0.958295
O O1 0.091642 0.200323 0.250000
O O2 0.181890 0.177208 0.132504
O O3 0.095354 0.050614 0.136289
O O4 0.074631 0.226581 0.069546
O O5 0.132561 0.380962 0.750000
O O6 0.206457 0.268311 0.839823
O O7 0.192917 0.448776 0.900290
O O8 0.104522 0.323410 0.919157
O O9 0.705906 0.138495 0.867996
O O10 0.750000 0.250000 0.000000
O O11 0.367948 0.411611 0.250000
O O12 0.302920 0.461053 0.101667
O O13 0.405652 0.370034 0.083420
O O14 0.758349 0.499035 0.250000
O O15 0.000000 0.242484 0.929624
#
# Coordination Sequence:
#
# PCOD8259341 Si02
#       6
#    16  16  16  16  16  16
#     4  11  23  40  61  90 127 170 221 278 338 395
#     4  11  22  39  64  97 132 169 212 269 336 397
#     4  12  21  36  64  99 133 170 208 273 339 395
#     4  10  20  36  62  95 131 169 210 268 337 400
#     4  10  20  35  61  97 136 168 207 267 334 399
#     4  12  26  43  62  92 133 181 229 271 321 395
#
# _framework density 21.728776
#
# number of rings (size 3 to 8) (size 9 to 14) (size 15 to 20)
#    0.000    1.000    5.000    2.500    0.000    3.667 
#    0.000    1.667    0.000    2.000    0.000    2.333 
#    0.000    0.000    0.000    0.000    0.000    0.000 
#
# Total GULP energy -595181.096637 kJ/mol
# GULP energy per Si atom -12399.606180 kJ/mol
# Density = 2.167932 g / cm^3
# Si number density = 21.728776 Si / 1000 Ang^3
#
#
#
# Elastic Constant Matrix: (Units=GPa)
#
#
# Indices 1 2 3 4 5 6 
#
# 1 128.7947 52.8995 30.6946 0.0000 0.0000 0.0000
# 2 52.8995 111.7985 34.3015 0.0000 0.0000 0.0000
# 3 30.6946 34.3015 103.6740 0.0000 0.0000 0.0000
# 4 0.0000 0.0000 0.0000 28.4546 0.0000 0.0000
# 5 0.0000 0.0000 0.0000 0.0000 11.2981 0.0000
# 6 0.0000 0.0000 0.0000 0.0000 0.0000 22.8942
#
#
#
# Elastic Compliance Matrix: (Units=1/GPa)
#
#
# Indices 1 2 3 4 5 6 
#
# 1 0.009850 -0.004192 -0.001530 0.000000 0.000000 0.000000
# 2 -0.004192 0.011739 -0.002643 0.000000 0.000000 0.000000
# 3 -0.001530 -0.002643 0.010973 0.000000 0.000000 0.000000
# 4 0.000000 0.000000 0.000000 0.035144 0.000000 0.000000
# 5 0.000000 0.000000 0.000000 0.000000 0.088511 0.000000
# 6 0.000000 0.000000 0.000000 0.000000 0.000000 0.043679
#
#
# Mechanical properties :
#
#
# Convention : Reuss Voigt Hill
#
# Bulk Modulus (GPa) = 63.15510 64.45093 63.80301
# Shear Modulus (GPa) = 22.53247 27.62081 25.07664
#
# Velocity S-wave (km/s) = 3.22372 3.56920 3.40085
# Velocity P-wave (km/s) = 6.55628 6.83459 6.69688
#
# Compressibility (1/GPa) = 0.01583404
#
# Stress axis : x y z
#
# Youngs Moduli (GPa) = 101.51834 85.18690 91.13353
#
# Poissons Ratio (x) = 0.35707 0.13939
# Poissons Ratio (y) = 0.42553 0.24086
# Poissons Ratio (z) = 0.15528 0.22514
#
# Static dielectric constant tensor:
#      x y z
#    x 3.613950 0.000000 0.000000 
#    y 0.000000 4.016750 0.000000 
#    z 0.000000 0.000000 4.066070 
# 
# 
# High freq. dielectric constant tensor:
#      x y z
#    x 1.807970 0.000000 0.000000 
#    y 0.000000 1.849180 0.000000 
#    z 0.000000 0.000000 1.864620 
# 
# From -- ./inp_files/35382.got.cif
#   From: 2010.03.12/outbox.cif.g09.slc.cpg/sg63_18_cif.got.tgz:35382.got - 2010.04.10 19:34:48.
