data_PCOD8259040
_publ_section_title
;
Structure prediction by ZEFSAII (Michael W. Deem and Ramdas Pophale) SiO2 
 PCOD8259040
Probable space group: C M C M
;
_chemical_formula_sum "Si O2"
_cell_formula_units_Z 96
_cell_length_a 19.364082
_cell_length_b 28.408756
_cell_length_c 9.090321
_cell_angle_alpha 90.000000
_cell_angle_beta 90.000000
_cell_angle_gamma 90.000000
_cell_volume 5000.671765
_symmetry_space_group_name_H-M "C M C M"
_symmetry_group_IT_number 63
_symmetry_cell_setting 'orthorhombic'
loop_
_space_group_symop_operation_xyz
x,y,z
-x,-y,1/2+z
x,-y,-z
-x,y,1/2-z
-x,-y,-z
x,y,1/2-z
-x,y,z
x,-y,1/2+z
1/2+x,1/2+y,z
1/2-x,1/2-y,1/2+z
1/2+x,1/2-y,-z
1/2-x,1/2+y,1/2-z
1/2-x,1/2-y,-z
1/2+x,1/2+y,1/2-z
1/2-x,1/2+y,z
1/2+x,1/2-y,1/2+z
loop_
_atom_site_type_symbol
_atom_site_label
_atom_site_fract_x
_atom_site_fract_y
_atom_site_fract_z
Si Si1 0.079102 0.951904 0.081711
Si Si2 0.300662 0.306651 0.412968
Si Si3 0.693833 0.400115 0.921819
Si Si4 0.147308 0.726073 0.913277
Si Si5 0.667285 0.951409 0.921515
Si Si6 0.581143 0.138633 0.079330
O O1 0.101039 0.958703 0.250000
O O2 0.000000 0.936430 0.066119
O O3 0.123874 0.911794 0.006865
O O4 0.094811 0.000000 0.000000
O O5 0.327073 0.322234 0.250000
O O6 0.283559 0.349614 0.520446
O O7 0.228430 0.280855 0.394345
O O8 0.359377 0.272774 0.485033
O O9 0.678695 0.397386 0.750000
O O10 0.753651 0.437777 0.957599
O O11 0.115248 0.734293 0.750000
O O12 0.108222 0.682584 0.987027
O O13 0.656084 0.959665 0.750000
O O14 0.617619 0.909298 0.976996
O O15 0.647487 0.000000 0.000000
O O16 0.599889 0.147354 0.250000
O O17 0.500000 0.132738 0.054602
#
# Coordination Sequence:
#
# PCOD8259040 Si02
#       6
#    16  16  16  16  16  16
#     4  10  21  37  56  79 110 148 189 230 277 339
#     4  10  20  34  57  85 114 146 181 226 279 337
#     4  11  21  35  57  85 116 150 188 237 286 337
#     4  10  20  35  57  85 113 144 183 230 278 334
#     4  10  22  37  55  82 114 149 193 242 290 339
#     4  10  21  39  60  81 113 156 197 240 292 347
#
# _framework density 19.197420000000001
#
# number of rings (size 3 to 8) (size 9 to 14) (size 15 to 20)
#    0.000    1.833    1.667    2.500    0.000    6.333 
#    0.000    0.833    0.000    5.000    0.000    0.000 
#    0.000    0.000    0.000    0.000    0.000    0.000 
#
# Total GULP energy -595206.241622 kJ/mol
# GULP energy per Si atom -12400.130034 kJ/mol
# Density = 1.915373 g / cm^3
# Si number density = 19.197420 Si / 1000 Ang^3
#
#
#
# Elastic Constant Matrix: (Units=GPa)
#
#
# Indices 1 2 3 4 5 6 
#
# 1 56.3934 18.0652 44.1297 0.0000 0.0000 0.0000
# 2 18.0652 68.1396 43.3640 0.0000 0.0000 0.0000
# 3 44.1297 43.3640 118.8925 0.0000 0.0000 0.0000
# 4 0.0000 0.0000 0.0000 40.0295 0.0000 0.0000
# 5 0.0000 0.0000 0.0000 0.0000 23.5302 0.0000
# 6 0.0000 0.0000 0.0000 0.0000 0.0000 29.5643
#
#
#
# Elastic Compliance Matrix: (Units=1/GPa)
#
#
# Indices 1 2 3 4 5 6 
#
# 1 0.025038 -0.000943 -0.008950 0.000000 0.000000 0.000000
# 2 -0.000943 0.019147 -0.006634 0.000000 0.000000 0.000000
# 3 -0.008950 -0.006634 0.014152 0.000000 0.000000 0.000000
# 4 0.000000 0.000000 0.000000 0.024982 0.000000 0.000000
# 5 0.000000 0.000000 0.000000 0.000000 0.042499 0.000000
# 6 0.000000 0.000000 0.000000 0.000000 0.000000 0.033825
#
#
# Mechanical properties :
#
#
# Convention : Reuss Voigt Hill
#
# Bulk Modulus (GPa) = 39.54805 50.50480 45.02643
# Shear Modulus (GPa) = 24.86043 27.81592 26.33818
#
# Velocity S-wave (km/s) = 3.60250 3.81062 3.70802
# Velocity P-wave (km/s) = 6.16031 6.76213 6.46822
#
# Compressibility (1/GPa) = 0.02528570
#
# Stress axis : x y z
#
# Youngs Moduli (GPa) = 39.93954 52.22644 70.65952
#
# Poissons Ratio (x) = 0.04923 0.63237
# Poissons Ratio (y) = 0.03764 0.46874
# Poissons Ratio (z) = 0.35744 0.34646
#
# Static dielectric constant tensor:
#      x y z
#    x 3.336800 0.000000 0.000000 
#    y 0.000000 3.513850 0.000000 
#    z 0.000000 0.000000 3.771480 
# 
# 
# High freq. dielectric constant tensor:
#      x y z
#    x 1.726920 0.000000 0.000000 
#    y 0.000000 1.746840 0.000000 
#    z 0.000000 0.000000 1.760220 
# 
# From -- ./inp_files/8512.got.cif
#   From: 2010.03.12/outbox.cif.g09.slc.cpg/sg63_5_cif.got.tgz:8512.got - 2010.04.10 19:34:48.
