data_PCOD8259115
_publ_section_title
;
Structure prediction by ZEFSAII (Michael W. Deem and Ramdas Pophale) SiO2 
 PCOD8259115
Probable space group: C M C M
;
_chemical_formula_sum "Si O2"
_cell_formula_units_Z 96
_cell_length_a 21.617127
_cell_length_b 27.734188
_cell_length_c 8.757161
_cell_angle_alpha 90.000000
_cell_angle_beta 90.000000
_cell_angle_gamma 90.000000
_cell_volume 5250.211071
_symmetry_space_group_name_H-M "C M C M"
_symmetry_group_IT_number 63
_symmetry_cell_setting 'orthorhombic'
loop_
_space_group_symop_operation_xyz
x,y,z
-x,-y,1/2+z
x,-y,-z
-x,y,1/2-z
-x,-y,-z
x,y,1/2-z
-x,y,z
x,-y,1/2+z
1/2+x,1/2+y,z
1/2-x,1/2-y,1/2+z
1/2+x,1/2-y,-z
1/2-x,1/2+y,1/2-z
1/2-x,1/2-y,-z
1/2+x,1/2+y,1/2-z
1/2-x,1/2+y,z
1/2+x,1/2-y,1/2+z
loop_
_atom_site_type_symbol
_atom_site_label
_atom_site_fract_x
_atom_site_fract_y
_atom_site_fract_z
Si Si1 0.374742 0.365590 0.570379
Si Si2 0.313058 0.891924 0.569382
Si Si3 0.500000 0.219960 0.430877
Si Si4 0.293524 0.448709 0.068624
Si Si5 0.431928 0.860096 0.076479
Si Si6 0.236951 0.800679 0.573697
Si Si7 0.500000 0.669650 0.568791
O O1 0.380094 0.375705 0.750000
O O2 0.344610 0.411669 0.491215
O O3 0.332561 0.318540 0.538021
O O4 0.441098 0.357397 0.497726
O O5 0.307502 0.899036 0.750000
O O6 0.275068 0.934544 0.489049
O O7 0.384221 0.893506 0.515925
O O8 0.285001 0.840859 0.513621
O O9 0.500000 0.215632 0.250000
O O10 0.561216 0.193048 0.498150
O O11 0.500000 0.274959 0.486330
O O12 0.294391 0.450466 0.250000
O O13 0.311653 0.500000 0.000000
O O14 0.408992 0.853428 0.250000
O O15 0.500000 0.885406 0.071070
O O16 0.248126 0.793365 0.750000
O O17 0.250000 0.750000 0.500000
O O18 0.500000 0.666003 0.750000
#
# Coordination Sequence:
#
# PCOD8259115 Si02
#       7
#    16  16   8  16  16  16   8
#     4  10  22  40  58  83 115 151 191 237 287 341
#     4  10  20  35  54  80 111 146 189 234 283 338
#     4   9  19  33  49  74 109 154 197 233 271 325
#     4  11  22  40  65  89 113 143 183 235 292 350
#     4   9  19  32  49  76 110 149 194 234 275 328
#     4   9  20  33  49  75 108 145 185 229 276 329
#     4  11  23  37  56  82 115 156 198 237 286 339
#
# _framework density 18.284980000000001
#
# number of rings (size 3 to 8) (size 9 to 14) (size 15 to 20)
#    0.500    1.667    0.000    4.250    2.333    5.333 
#    0.000    0.417    0.000    0.500    0.000    0.000 
#    0.000    0.000    0.000    0.000    0.000    0.000 
#
# Total GULP energy -595105.421706 kJ/mol
# GULP energy per Si atom -12398.029619 kJ/mol
# Density = 1.824336 g / cm^3
# Si number density = 18.284980 Si / 1000 Ang^3
#
#
#
# Elastic Constant Matrix: (Units=GPa)
#
#
# Indices 1 2 3 4 5 6 
#
# 1 113.1087 32.6755 46.1573 0.0000 0.0000 0.0000
# 2 32.6755 84.4504 44.7200 0.0000 0.0000 0.0000
# 3 46.1573 44.7200 116.3872 0.0000 0.0000 0.0000
# 4 0.0000 0.0000 0.0000 31.6270 0.0000 0.0000
# 5 0.0000 0.0000 0.0000 0.0000 34.0025 0.0000
# 6 0.0000 0.0000 0.0000 0.0000 0.0000 17.1567
#
#
#
# Elastic Compliance Matrix: (Units=1/GPa)
#
#
# Indices 1 2 3 4 5 6 
#
# 1 0.010931 -0.002428 -0.003402 0.000000 0.000000 0.000000
# 2 -0.002428 0.015405 -0.004956 0.000000 0.000000 0.000000
# 3 -0.003402 -0.004956 0.011846 0.000000 0.000000 0.000000
# 4 0.000000 0.000000 0.000000 0.031619 0.000000 0.000000
# 5 0.000000 0.000000 0.000000 0.000000 0.029410 0.000000
# 6 0.000000 0.000000 0.000000 0.000000 0.000000 0.058286
#
#
# Mechanical properties :
#
#
# Convention : Reuss Voigt Hill
#
# Bulk Modulus (GPa) = 60.20810 62.33907 61.27358
# Shear Modulus (GPa) = 27.08486 29.25015 28.16750
#
# Velocity S-wave (km/s) = 3.85289 4.00394 3.92914
# Velocity P-wave (km/s) = 7.26582 7.45268 7.35984
#
# Compressibility (1/GPa) = 0.01660906
#
# Stress axis : x y z
#
# Youngs Moduli (GPa) = 91.48519 64.91295 84.41908
#
# Poissons Ratio (x) = 0.15759 0.28720
# Poissons Ratio (y) = 0.22210 0.41842
# Poissons Ratio (z) = 0.31124 0.32174
#
# Static dielectric constant tensor:
#      x y z
#    x 3.529100 0.000000 0.000000 
#    y 0.000000 2.981160 0.000000 
#    z 0.000000 0.000000 6.034840 
# 
# 
# High freq. dielectric constant tensor:
#      x y z
#    x 1.707980 0.000000 0.000000 
#    y 0.000000 1.686350 0.000000 
#    z 0.000000 0.000000 1.724370 
# 
# From -- ./inp_files/10783.got.cif
#   From: 2010.03.12/outbox.cif.g09.slc.cpg/sg63_6_cif.got.tgz:10783.got - 2010.04.10 19:34:48.
