data_PCOD8259938
_publ_section_title
;
Structure prediction by ZEFSAII (Michael W. Deem and Ramdas Pophale) SiO2 
 PCOD8259938
Probable space group: C M C M
;
_chemical_formula_sum "Si O2"
_cell_formula_units_Z 112
_cell_length_a 13.660118
_cell_length_b 28.287138
_cell_length_c 14.425228
_cell_angle_alpha 90.000000
_cell_angle_beta 90.000000
_cell_angle_gamma 90.000000
_cell_volume 5573.989500
_symmetry_space_group_name_H-M "C M C M"
_symmetry_group_IT_number 63
_symmetry_cell_setting 'orthorhombic'
loop_
_space_group_symop_operation_xyz
x,y,z
-x,-y,1/2+z
x,-y,-z
-x,y,1/2-z
-x,-y,-z
x,y,1/2-z
-x,y,z
x,-y,1/2+z
1/2+x,1/2+y,z
1/2-x,1/2-y,1/2+z
1/2+x,1/2-y,-z
1/2-x,1/2+y,1/2-z
1/2-x,1/2-y,-z
1/2+x,1/2+y,1/2-z
1/2-x,1/2+y,z
1/2+x,1/2-y,1/2+z
loop_
_atom_site_type_symbol
_atom_site_label
_atom_site_fract_x
_atom_site_fract_y
_atom_site_fract_z
Si Si1 0.613084 0.442333 0.851999
Si Si2 0.892005 0.514864 0.395168
Si Si3 0.112564 0.218160 0.507539
Si Si4 0.209900 0.963815 0.147802
Si Si5 0.778448 0.287294 0.862122
Si Si6 0.389017 0.388700 0.028204
Si Si7 0.390718 0.880492 0.641362
O O1 0.658461 0.430406 0.750000
O O2 0.500000 0.453251 0.840921
O O3 0.659818 0.489638 0.896209
O O4 0.631597 0.398058 0.919233
O O5 0.898906 0.500000 0.500000
O O6 0.825288 0.475774 0.344913
O O7 0.847169 0.568053 0.386727
O O8 0.000000 0.514587 0.348890
O O9 0.143354 0.251558 0.592674
O O10 0.175076 0.223753 0.412604
O O11 0.126600 0.165939 0.548807
O O12 0.000000 0.227989 0.480369
O O13 0.167796 0.954104 0.250000
O O14 0.189033 0.917823 0.087590
O O15 0.770288 0.280377 0.750000
O O16 0.816043 0.339610 0.891157
O O17 0.500000 0.404655 0.053347
O O18 0.401692 0.876907 0.750000
O O19 0.500000 0.873789 0.597002
#
# Coordination Sequence:
#
# PCOD8259938 Si02
#       7
#    16  16  16  16  16  16  16
#     4   9  18  32  51  78 111 147 192 240 285 337
#     4  10  21  35  53  80 112 149 194 247 304 352
#     4  10  23  41  62  93 126 156 195 247 302 360
#     4  11  22  33  51  77 111 158 203 241 282 336
#     4  10  22  40  66  94 120 155 199 247 303 364
#     4  10  21  37  57  82 117 157 193 234 287 348
#     4   9  18  34  58  86 113 145 193 250 302 354
#
# _framework density 20.093329000000001
#
# number of rings (size 3 to 8) (size 9 to 14) (size 15 to 20)
#    0.000    2.143    0.000    2.571    4.000    5.143 
#    0.000    2.857    0.000    0.000    0.000    2.000 
#    0.000    0.000    0.000    0.000    0.000    0.000 
#
# Total GULP energy -694171.886557 kJ/mol
# GULP energy per Si atom -12395.926546 kJ/mol
# Density = 2.004760 g / cm^3
# Si number density = 20.093329 Si / 1000 Ang^3
#
#
#
# Elastic Constant Matrix: (Units=GPa)
#
#
# Indices 1 2 3 4 5 6 
#
# 1 95.6054 51.6870 37.7952 0.0000 0.0000 0.0000
# 2 51.6870 113.0610 43.4412 0.0000 0.0000 0.0000
# 3 37.7952 43.4412 80.8965 0.0000 0.0000 0.0000
# 4 0.0000 0.0000 0.0000 26.4389 0.0000 0.0000
# 5 0.0000 0.0000 0.0000 0.0000 11.8382 0.0000
# 6 0.0000 0.0000 0.0000 0.0000 0.0000 34.9126
#
#
#
# Elastic Compliance Matrix: (Units=1/GPa)
#
#
# Indices 1 2 3 4 5 6 
#
# 1 0.014933 -0.005224 -0.004172 0.000000 0.000000 0.000000
# 2 -0.005224 0.012972 -0.004525 0.000000 0.000000 0.000000
# 3 -0.004172 -0.004525 0.016740 0.000000 0.000000 0.000000
# 4 0.000000 0.000000 0.000000 0.037823 0.000000 0.000000
# 5 0.000000 0.000000 0.000000 0.000000 0.084472 0.000000
# 6 0.000000 0.000000 0.000000 0.000000 0.000000 0.028643
#
#
# Mechanical properties :
#
#
# Convention : Reuss Voigt Hill
#
# Bulk Modulus (GPa) = 59.50997 61.71219 60.61108
# Shear Modulus (GPa) = 21.83161 25.08057 23.45609
#
# Velocity S-wave (km/s) = 3.29980 3.53683 3.42037
# Velocity P-wave (km/s) = 6.64826 6.88900 6.76970
#
# Compressibility (1/GPa) = 0.01680391
#
# Stress axis : x y z
#
# Youngs Moduli (GPa) = 66.96588 77.09131 59.73581
#
# Poissons Ratio (x) = 0.40272 0.24919
# Poissons Ratio (y) = 0.34983 0.27031
# Poissons Ratio (z) = 0.27935 0.34884
#
# Static dielectric constant tensor:
#      x y z
#    x 4.031270 0.000000 0.000000 
#    y 0.000000 3.704290 0.000000 
#    z 0.000000 0.000000 3.619610 
# 
# 
# High freq. dielectric constant tensor:
#      x y z
#    x 1.797610 0.000000 0.000000 
#    y 0.000000 1.771730 0.000000 
#    z 0.000000 0.000000 1.771930 
# 
# From -- ./inp_files/32550.got.cif
#   From: 2010.03.12/outbox.cif.g09.slc.cpg/sg63_17_cif.got.tgz:32550.got - 2010.04.10 19:34:48.
