data_PCOD8259139
_publ_section_title
;
Structure prediction by ZEFSAII (Michael W. Deem and Ramdas Pophale) SiO2 
 PCOD8259139
Probable space group: C M C M
;
_chemical_formula_sum "Si O2"
_cell_formula_units_Z 96
_cell_length_a 9.057286
_cell_length_b 23.404827
_cell_length_c 24.953560
_cell_angle_alpha 90.000000
_cell_angle_beta 90.000000
_cell_angle_gamma 90.000000
_cell_volume 5289.760751
_symmetry_space_group_name_H-M "C M C M"
_symmetry_group_IT_number 63
_symmetry_cell_setting 'orthorhombic'
loop_
_space_group_symop_operation_xyz
x,y,z
-x,-y,1/2+z
x,-y,-z
-x,y,1/2-z
-x,-y,-z
x,y,1/2-z
-x,y,z
x,-y,1/2+z
1/2+x,1/2+y,z
1/2-x,1/2-y,1/2+z
1/2+x,1/2-y,-z
1/2-x,1/2+y,1/2-z
1/2-x,1/2-y,-z
1/2+x,1/2+y,1/2-z
1/2-x,1/2+y,z
1/2+x,1/2-y,1/2+z
loop_
_atom_site_type_symbol
_atom_site_label
_atom_site_fract_x
_atom_site_fract_y
_atom_site_fract_z
Si Si1 0.829483 0.994913 0.061471
Si Si2 0.826059 0.614692 0.898095
Si Si3 0.669991 0.697908 0.189560
Si Si4 0.331093 0.378218 0.908547
Si Si5 0.828610 0.187159 0.687580
Si Si6 0.673680 0.189196 0.500105
O O1 0.730024 0.948931 0.091285
O O2 0.000000 0.975893 0.064301
O O3 0.801248 0.054418 0.091668
O O4 0.778213 0.000000 0.000000
O O5 0.752642 0.636847 0.843761
O O6 0.000000 0.613080 0.890437
O O7 0.778177 0.655870 0.946546
O O8 0.712985 0.679555 0.250000
O O9 0.500000 0.717038 0.186154
O O10 0.702319 0.644292 0.151225
O O11 0.765599 0.751498 0.169727
O O12 0.500000 0.365187 0.925644
O O13 0.223036 0.347339 0.949386
O O14 0.798473 0.176561 0.750000
O O15 0.000000 0.186009 0.673192
O O16 0.500000 0.198427 0.497552
O O17 0.750000 0.250000 0.500000
#
# Coordination Sequence:
#
# PCOD8259139 Si02
#       6
#    16  16  16  16  16  16
#     4  10  20  36  57  79 108 148 188 229 274 322
#     4  11  23  37  55  80 110 144 183 226 274 330
#     4   9  18  34  56  81 110 142 176 219 272 327
#     4  10  20  35  55  79 107 142 184 224 270 326
#     4  10  21  37  58  83 110 142 181 224 271 325
#     4  11  23  35  51  78 110 141 176 222 275 328
#
# _framework density 18.148268000000002
#
# number of rings (size 3 to 8) (size 9 to 14) (size 15 to 20)
#    0.000    1.833    1.667    2.500    0.000    8.667 
#    0.000    0.833    0.000    3.000    0.000    0.000 
#    0.000    0.000    0.000    0.000    0.000    0.000 
#
# Total GULP energy -595445.830406 kJ/mol
# GULP energy per Si atom -12405.121467 kJ/mol
# Density = 1.810696 g / cm^3
# Si number density = 18.148268 Si / 1000 Ang^3
#
#
#
# Elastic Constant Matrix: (Units=GPa)
#
#
# Indices 1 2 3 4 5 6 
#
# 1 69.1390 56.6031 47.2175 0.0000 0.0000 0.0000
# 2 56.6031 131.3502 64.8557 0.0000 0.0000 0.0000
# 3 47.2175 64.8557 95.8351 0.0000 0.0000 0.0000
# 4 0.0000 0.0000 0.0000 31.3436 0.0000 0.0000
# 5 0.0000 0.0000 0.0000 0.0000 28.8823 0.0000
# 6 0.0000 0.0000 0.0000 0.0000 0.0000 34.4139
#
#
#
# Elastic Compliance Matrix: (Units=1/GPa)
#
#
# Indices 1 2 3 4 5 6 
#
# 1 0.025688 -0.007240 -0.007757 0.000000 0.000000 0.000000
# 2 -0.007240 0.013474 -0.005552 0.000000 0.000000 0.000000
# 3 -0.007757 -0.005552 0.018013 0.000000 0.000000 0.000000
# 4 0.000000 0.000000 0.000000 0.031904 0.000000 0.000000
# 5 0.000000 0.000000 0.000000 0.000000 0.034623 0.000000
# 6 0.000000 0.000000 0.000000 0.000000 0.000000 0.029058
#
#
# Mechanical properties :
#
#
# Convention : Reuss Voigt Hill
#
# Bulk Modulus (GPa) = 62.19229 70.40854 66.30042
# Shear Modulus (GPa) = 25.09810 27.43782 26.26796
#
# Velocity S-wave (km/s) = 3.72283 3.89250 3.80861
# Velocity P-wave (km/s) = 7.26792 7.68652 7.48015
#
# Compressibility (1/GPa) = 0.01607916
#
# Stress axis : x y z
#
# Youngs Moduli (GPa) = 38.92830 74.21548 55.51413
#
# Poissons Ratio (x) = 0.53731 0.43062
# Poissons Ratio (y) = 0.28183 0.30819
# Poissons Ratio (z) = 0.30197 0.41202
#
# Static dielectric constant tensor:
#      x y z
#    x 3.401360 0.000000 0.000000 
#    y 0.000000 3.360750 0.000000 
#    z 0.000000 0.000000 3.432860 
# 
# 
# High freq. dielectric constant tensor:
#      x y z
#    x 1.707630 0.000000 0.000000 
#    y 0.000000 1.702650 0.000000 
#    z 0.000000 0.000000 1.703570 
# 
# From -- ./inp_files/59844.got.cif
#   From: 2010.03.12/outbox.cif.g09.slc.cpg/sg63_30_cif.got.tgz:59844.got - 2010.04.10 19:34:48.
