data_PCOD8259371
_publ_section_title
;
Structure prediction by ZEFSAII (Michael W. Deem and Ramdas Pophale) SiO2 
 PCOD8259371
Probable space group: C M C M
;
_chemical_formula_sum "Si O2"
_cell_formula_units_Z 88
_cell_length_a 16.631248
_cell_length_b 30.362846
_cell_length_c 9.601139
_cell_angle_alpha 90.000000
_cell_angle_beta 90.000000
_cell_angle_gamma 90.000000
_cell_volume 4848.306573
_symmetry_space_group_name_H-M "C M C M"
_symmetry_group_IT_number 63
_symmetry_cell_setting 'orthorhombic'
loop_
_space_group_symop_operation_xyz
x,y,z
-x,-y,1/2+z
x,-y,-z
-x,y,1/2-z
-x,-y,-z
x,y,1/2-z
-x,y,z
x,-y,1/2+z
1/2+x,1/2+y,z
1/2-x,1/2-y,1/2+z
1/2+x,1/2-y,-z
1/2-x,1/2+y,1/2-z
1/2-x,1/2-y,-z
1/2+x,1/2+y,1/2-z
1/2-x,1/2+y,z
1/2+x,1/2-y,1/2+z
loop_
_atom_site_type_symbol
_atom_site_label
_atom_site_fract_x
_atom_site_fract_y
_atom_site_fract_z
Si Si1 0.405183 0.960576 0.407696
Si Si2 0.407663 0.711231 0.596657
Si Si3 0.313721 0.123325 0.915399
Si Si4 0.594128 0.790923 0.412660
Si Si5 0.366545 0.384575 0.084825
Si Si6 0.000000 0.046135 0.917034
O O1 0.376185 0.968577 0.250000
O O2 0.500000 0.957359 0.417694
O O3 0.370317 0.915630 0.469775
O O4 0.370486 0.000000 0.500000
O O5 0.365263 0.713997 0.750000
O O6 0.500000 0.722262 0.616160
O O7 0.372357 0.747855 0.492473
O O8 0.398984 0.662529 0.530855
O O9 0.313821 0.125216 0.750000
O O10 0.351280 0.168965 0.970668
O O11 0.224522 0.112380 0.971905
O O12 0.608355 0.782752 0.250000
O O13 0.500000 0.801083 0.441447
O O14 0.370470 0.384553 0.250000
O O15 0.421670 0.425495 0.034403
O O16 0.000000 0.037478 0.750000
O O17 0.000000 0.000000 0.000000
#
# Coordination Sequence:
#
# PCOD8259371 Si02
#       6
#    16  16  16  16  16   8
#     4   9  17  30  48  68  90 120 155 189 227 275
#     4   9  16  29  49  69  91 124 163 196 228 276
#     4   9  17  29  47  70  95 124 158 193 231 281
#     4   9  17  29  46  70  98 127 157 193 234 275
#     4   9  17  31  51  71  92 123 160 194 232 283
#     4  10  20  36  56  76  96 122 160 204 247 290
#
# _framework density 18.150666999999999
#
# number of rings (size 3 to 8) (size 9 to 14) (size 15 to 20)
#    0.000    2.909    0.909    0.545    0.000    3.636 
#    0.000    1.818    0.000    6.545    0.000    0.000 
#    0.000    0.000    0.000    0.000    0.000    0.000 
#
# Total GULP energy -545266.783187 kJ/mol
# GULP energy per Si atom -12392.426891 kJ/mol
# Density = 1.810935 g / cm^3
# Si number density = 18.150667 Si / 1000 Ang^3
#
#
#
# Elastic Constant Matrix: (Units=GPa)
#
#
# Indices 1 2 3 4 5 6 
#
# 1 50.0089 51.5621 24.3528 0.0000 0.0000 0.0000
# 2 51.5621 187.0718 55.6962 0.0000 0.0000 0.0000
# 3 24.3528 55.6962 42.7105 0.0000 0.0000 0.0000
# 4 0.0000 0.0000 0.0000 33.3353 0.0000 0.0000
# 5 0.0000 0.0000 0.0000 0.0000 9.9417 0.0000
# 6 0.0000 0.0000 0.0000 0.0000 0.0000 14.3235
#
#
#
# Elastic Compliance Matrix: (Units=1/GPa)
#
#
# Indices 1 2 3 4 5 6 
#
# 1 0.030585 -0.005293 -0.010537 0.000000 0.000000 0.000000
# 2 -0.005293 0.009654 -0.009571 0.000000 0.000000 0.000000
# 3 -0.010537 -0.009571 0.041903 0.000000 0.000000 0.000000
# 4 0.000000 0.000000 0.000000 0.029998 0.000000 0.000000
# 5 0.000000 0.000000 0.000000 0.000000 0.100586 0.000000
# 6 0.000000 0.000000 0.000000 0.000000 0.000000 0.069815
#
#
# Mechanical properties :
#
#
# Convention : Reuss Voigt Hill
#
# Bulk Modulus (GPa) = 31.90851 60.33481 46.12166
# Shear Modulus (GPa) = 14.54377 21.39878 17.97127
#
# Velocity S-wave (km/s) = 2.83376 3.43731 3.15003
# Velocity P-wave (km/s) = 5.32211 7.00477 6.22060
#
# Compressibility (1/GPa) = 0.03133961
#
# Stress axis : x y z
#
# Youngs Moduli (GPa) = 32.69599 103.58330 23.86476
#
# Poissons Ratio (x) = 0.54826 0.25146
# Poissons Ratio (y) = 0.17306 0.22842
# Poissons Ratio (z) = 0.34451 0.99143
#
# Static dielectric constant tensor:
#      x y z
#    x 3.413560 0.000000 0.000000 
#    y 0.000000 3.548930 0.000000 
#    z 0.000000 0.000000 3.044750 
# 
# 
# High freq. dielectric constant tensor:
#      x y z
#    x 1.698160 0.000000 0.000000 
#    y 0.000000 1.714290 0.000000 
#    z 0.000000 0.000000 1.654280 
# 
# From -- ./inp_files/6798.got.cif
#   From: 2010.03.12/outbox.cif.g09.slc.cpg/sg63_4_cif.got.tgz:6798.got - 2010.04.10 19:34:48.
