data_PCOD8259391
_publ_section_title
;
Structure prediction by ZEFSAII (Michael W. Deem and Ramdas Pophale) SiO2 
 PCOD8259391
Probable space group: C M C M
;
_chemical_formula_sum "Si O2"
_cell_formula_units_Z 88
_cell_length_a 19.769256
_cell_length_b 24.329104
_cell_length_c 9.054082
_cell_angle_alpha 90.000000
_cell_angle_beta 90.000000
_cell_angle_gamma 90.000000
_cell_volume 4354.726294
_symmetry_space_group_name_H-M "C M C M"
_symmetry_group_IT_number 63
_symmetry_cell_setting 'orthorhombic'
loop_
_space_group_symop_operation_xyz
x,y,z
-x,-y,1/2+z
x,-y,-z
-x,y,1/2-z
-x,-y,-z
x,y,1/2-z
-x,y,z
x,-y,1/2+z
1/2+x,1/2+y,z
1/2-x,1/2-y,1/2+z
1/2+x,1/2-y,-z
1/2-x,1/2+y,1/2-z
1/2-x,1/2-y,-z
1/2+x,1/2+y,1/2-z
1/2-x,1/2+y,z
1/2+x,1/2-y,1/2+z
loop_
_atom_site_type_symbol
_atom_site_label
_atom_site_fract_x
_atom_site_fract_y
_atom_site_fract_z
Si Si1 0.500000 0.939404 0.427449
Si Si2 0.892409 0.053198 0.578651
Si Si3 0.074841 0.173523 0.579322
Si Si4 0.739614 0.052942 0.922679
Si Si5 0.823658 0.251641 0.074001
Si Si6 0.874283 0.367475 0.076554
O O1 0.500000 0.946714 0.250000
O O2 0.563669 0.903434 0.487118
O O3 0.500000 0.000000 0.500000
O O4 0.895214 0.039897 0.750000
O O5 0.931690 0.108917 0.540329
O O6 0.815758 0.062335 0.522598
O O7 0.925289 0.000000 0.500000
O O8 0.097263 0.180842 0.750000
O O9 0.131411 0.200114 0.475852
O O10 0.000000 0.199029 0.551916
O O11 0.735239 0.042886 0.750000
O O12 0.696444 0.105389 0.970897
O O13 0.707040 0.000000 0.000000
O O14 0.813704 0.251344 0.250000
O O15 0.867167 0.304831 0.019772
O O16 0.750000 0.250000 0.000000
O O17 0.884551 0.366446 0.250000
#
# Coordination Sequence:
#
# PCOD8259391 Si02
#       6
#     8  16  16  16  16  16
#     4  10  20  36  56  82 116 154 195 238 291 358
#     4   9  18  33  54  79 111 148 188 234 289 347
#     4  10  22  40  60  84 119 158 194 241 299 354
#     4   9  16  29  49  74 103 138 180 227 278 333
#     4  11  23  40  63  88 116 154 203 254 304 364
#     4   9  19  34  55  78 108 150 191 233 287 352
#
# _framework density 20.207929
#
# number of rings (size 3 to 8) (size 9 to 14) (size 15 to 20)
#    0.000    2.364    0.000    2.182    1.273    4.364 
#    0.000    7.273    0.000    0.000    0.000    0.000 
#    0.000    0.000    0.000    0.000    0.000    0.000 
#
# Total GULP energy -545361.833297 kJ/mol
# GULP energy per Si atom -12394.587120 kJ/mol
# Density = 2.016194 g / cm^3
# Si number density = 20.207929 Si / 1000 Ang^3
#
#
#
# Elastic Constant Matrix: (Units=GPa)
#
#
# Indices 1 2 3 4 5 6 
#
# 1 109.1425 51.4296 36.7606 0.0000 0.0000 0.0000
# 2 51.4296 122.5998 40.2812 0.0000 0.0000 0.0000
# 3 36.7606 40.2812 52.3792 0.0000 0.0000 0.0000
# 4 0.0000 0.0000 0.0000 34.7652 0.0000 0.0000
# 5 0.0000 0.0000 0.0000 0.0000 21.1931 0.0000
# 6 0.0000 0.0000 0.0000 0.0000 0.0000 56.2815
#
#
#
# Elastic Compliance Matrix: (Units=1/GPa)
#
#
# Indices 1 2 3 4 5 6 
#
# 1 0.012905 -0.003262 -0.006548 0.000000 0.000000 0.000000
# 2 -0.003262 0.011739 -0.006738 0.000000 0.000000 0.000000
# 3 -0.006548 -0.006738 0.028869 0.000000 0.000000 0.000000
# 4 0.000000 0.000000 0.000000 0.028764 0.000000 0.000000
# 5 0.000000 0.000000 0.000000 0.000000 0.047185 0.000000
# 6 0.000000 0.000000 0.000000 0.000000 0.000000 0.017768
#
#
# Mechanical properties :
#
#
# Convention : Reuss Voigt Hill
#
# Bulk Modulus (GPa) = 48.98145 60.11826 54.54985
# Shear Modulus (GPa) = 26.71894 32.82462 29.77178
#
# Velocity S-wave (km/s) = 3.64015 4.03469 3.84249
# Velocity P-wave (km/s) = 6.47757 7.17770 6.83660
#
# Compressibility (1/GPa) = 0.02041589
#
# Stress axis : x y z
#
# Youngs Moduli (GPa) = 77.48925 85.18663 34.63898
#
# Poissons Ratio (x) = 0.27788 0.22683
# Poissons Ratio (y) = 0.25277 0.23341
# Poissons Ratio (z) = 0.50743 0.57401
#
# Static dielectric constant tensor:
#      x y z
#    x 3.804330 0.000000 0.000000 
#    y 0.000000 4.211340 0.000000 
#    z 0.000000 0.000000 3.458550 
# 
# 
# High freq. dielectric constant tensor:
#      x y z
#    x 1.798020 0.000000 0.000000 
#    y 0.000000 1.798450 0.000000 
#    z 0.000000 0.000000 1.757020 
# 
# From -- ./inp_files/8226.got.cif
#   From: 2010.03.12/outbox.cif.g09.slc.cpg/sg63_5_cif.got.tgz:8226.got - 2010.04.10 19:34:48.
