data_PCOD8259789
_publ_section_title
;
Structure prediction by ZEFSAII (Michael W. Deem and Ramdas Pophale) SiO2 
 PCOD8259789
Probable space group: C M C M
;
_chemical_formula_sum "Si O2"
_cell_formula_units_Z 112
_cell_length_a 31.189526
_cell_length_b 11.631337
_cell_length_c 14.883878
_cell_angle_alpha 90.000000
_cell_angle_beta 90.000000
_cell_angle_gamma 90.000000
_cell_volume 5399.512055
_symmetry_space_group_name_H-M "C M C M"
_symmetry_group_IT_number 63
_symmetry_cell_setting 'orthorhombic'
loop_
_space_group_symop_operation_xyz
x,y,z
-x,-y,1/2+z
x,-y,-z
-x,y,1/2-z
-x,-y,-z
x,y,1/2-z
-x,y,z
x,-y,1/2+z
1/2+x,1/2+y,z
1/2-x,1/2-y,1/2+z
1/2+x,1/2-y,-z
1/2-x,1/2+y,1/2-z
1/2-x,1/2-y,-z
1/2+x,1/2+y,1/2-z
1/2-x,1/2+y,z
1/2+x,1/2-y,1/2+z
loop_
_atom_site_type_symbol
_atom_site_label
_atom_site_fract_x
_atom_site_fract_y
_atom_site_fract_z
Si Si1 0.417536 0.623520 0.982552
Si Si2 0.451643 0.191157 0.146693
Si Si3 0.673272 0.391602 0.098898
Si Si4 0.877149 0.258025 0.146600
Si Si5 0.299160 0.843417 0.848173
Si Si6 0.795884 0.867289 0.902588
Si Si7 0.621968 0.019093 0.356163
O O1 0.448164 0.702724 0.922376
O O2 0.376667 0.593879 0.921195
O O3 0.440436 0.500000 0.000000
O O4 0.404864 0.680293 0.078494
O O5 0.441267 0.228817 0.250000
O O6 0.500000 0.143247 0.140901
O O7 0.419806 0.090534 0.113485
O O8 0.681586 0.284693 0.163825
O O9 0.691685 0.509305 0.141120
O O10 0.697648 0.364525 0.007789
O O11 0.893612 0.244420 0.250000
O O12 0.826474 0.227332 0.143949
O O13 0.882553 0.388485 0.111215
O O14 0.290643 0.894634 0.750000
O O15 0.253919 0.839311 0.896493
O O16 0.334978 0.922355 0.898411
O O17 0.626532 0.023943 0.250000
#
# Coordination Sequence:
#
# PCOD8259789 Si02
#       7
#    16  16  16  16  16  16  16
#     4  11  21  41  63  92 124 157 205 248 300 363
#     4  10  22  43  70  95 120 153 195 248 306 362
#     4  10  20  39  54  80 117 158 202 252 300 347
#     4  10  21  38  59  86 124 165 202 245 297 356
#     4  11  22  34  54  82 115 155 205 255 294 347
#     4  10  21  37  53  80 116 159 206 247 296 350
#     4   9  20  38  58  87 120 152 198 251 302 358
#
# _framework density 20.742614
#
# number of rings (size 3 to 8) (size 9 to 14) (size 15 to 20)
#    0.000    1.857    4.286    0.857    2.000    2.571 
#    2.571    1.429    0.000    1.286    0.000    0.000 
#    0.000    0.000    0.000    0.000    0.000    0.000 
#
# Total GULP energy -694112.434746 kJ/mol
# GULP energy per Si atom -12394.864906 kJ/mol
# Density = 2.069540 g / cm^3
# Si number density = 20.742614 Si / 1000 Ang^3
#
#
#
# Elastic Constant Matrix: (Units=GPa)
#
#
# Indices 1 2 3 4 5 6 
#
# 1 89.0872 37.2212 27.6258 0.0000 0.0000 0.0000
# 2 37.2212 150.7987 27.2204 0.0000 0.0000 0.0000
# 3 27.6258 27.2204 61.7086 0.0000 0.0000 0.0000
# 4 0.0000 0.0000 0.0000 26.9524 0.0000 0.0000
# 5 0.0000 0.0000 0.0000 0.0000 16.3120 0.0000
# 6 0.0000 0.0000 0.0000 0.0000 0.0000 11.5880
#
#
#
# Elastic Compliance Matrix: (Units=1/GPa)
#
#
# Indices 1 2 3 4 5 6 
#
# 1 0.013850 -0.002498 -0.005098 0.000000 0.000000 0.000000
# 2 -0.002498 0.007656 -0.002259 0.000000 0.000000 0.000000
# 3 -0.005098 -0.002259 0.019484 0.000000 0.000000 0.000000
# 4 0.000000 0.000000 0.000000 0.037102 0.000000 0.000000
# 5 0.000000 0.000000 0.000000 0.000000 0.061305 0.000000
# 6 0.000000 0.000000 0.000000 0.000000 0.000000 0.086296
#
#
# Mechanical properties :
#
#
# Convention : Reuss Voigt Hill
#
# Bulk Modulus (GPa) = 46.99443 53.96992 50.48217
# Shear Modulus (GPa) = 19.80233 24.93894 22.37064
#
# Velocity S-wave (km/s) = 3.09312 3.47119 3.28759
# Velocity P-wave (km/s) = 5.95497 6.49160 6.22907
#
# Compressibility (1/GPa) = 0.02127912
#
# Stress axis : x y z
#
# Youngs Moduli (GPa) = 72.20381 130.62201 51.32439
#
# Poissons Ratio (x) = 0.32632 0.26167
# Poissons Ratio (y) = 0.18038 0.11592
# Poissons Ratio (z) = 0.36811 0.29502
#
# Static dielectric constant tensor:
#      x y z
#    x 3.578990 0.000000 0.000000 
#    y 0.000000 4.022250 0.000000 
#    z 0.000000 0.000000 3.592720 
# 
# 
# High freq. dielectric constant tensor:
#      x y z
#    x 1.791740 0.000000 0.000000 
#    y 0.000000 1.817580 0.000000 
#    z 0.000000 0.000000 1.803570 
# 
# From -- ./inp_files/38590.got.cif
#   From: 2010.03.12/outbox.cif.g09.slc.cpg/sg63_20_cif.got.tgz:38590.got - 2010.04.10 19:34:48.
