data_PCOD8259017
_publ_section_title
;
Structure prediction by ZEFSAII (Michael W. Deem and Ramdas Pophale) SiO2 
 PCOD8259017
Probable space group: C M C M
;
_chemical_formula_sum "Si O2"
_cell_formula_units_Z 64
_cell_length_a 18.799793
_cell_length_b 10.840181
_cell_length_c 17.058621
_cell_angle_alpha 90.000000
_cell_angle_beta 90.000000
_cell_angle_gamma 90.000000
_cell_volume 3476.430260
_symmetry_space_group_name_H-M "C M C M"
_symmetry_group_IT_number 63
_symmetry_cell_setting 'orthorhombic'
loop_
_space_group_symop_operation_xyz
x,y,z
-x,-y,1/2+z
x,-y,-z
-x,y,1/2-z
-x,-y,-z
x,y,1/2-z
-x,y,z
x,-y,1/2+z
1/2+x,1/2+y,z
1/2-x,1/2-y,1/2+z
1/2+x,1/2-y,-z
1/2-x,1/2+y,1/2-z
1/2-x,1/2-y,-z
1/2+x,1/2+y,1/2-z
1/2-x,1/2+y,z
1/2+x,1/2-y,1/2+z
loop_
_atom_site_type_symbol
_atom_site_label
_atom_site_fract_x
_atom_site_fract_y
_atom_site_fract_z
Si Si1 0.259834 0.099118 0.936673
Si Si2 0.875514 0.495581 0.840058
Si Si3 0.000000 0.313867 0.340570
Si Si4 0.500000 0.644537 0.014607
Si Si5 0.363291 0.229297 0.051583
O O1 0.194706 0.182233 0.906138
O O2 0.294790 0.036383 0.860347
O O3 0.324101 0.175499 0.975520
O O4 0.230771 0.000000 0.000000
O O5 0.880222 0.457390 0.750000
O O6 0.931129 0.603572 0.859993
O O7 0.893141 0.375581 0.891135
O O8 0.000000 0.191053 0.394638
O O9 0.000000 0.270333 0.250000
O O10 0.430354 0.692653 0.972567
O O11 0.500000 0.500000 0.000000
#
# Coordination Sequence:
#
# PCOD8259017 Si02
#       5
#    16  16   8   8  16
#     4   9  18  34  55  79 113 146 186 235 279 331
#     4  10  20  35  59  85 112 150 185 233 293 333
#     4  10  21  39  59  85 114 142 191 237 279 341
#     4  12  23  37  61  83 111 158 194 228 295 341
#     4  10  20  34  56  85 113 142 193 238 274 335
#
# _framework density 18.409690000000001
#
# number of rings (size 3 to 8) (size 9 to 14) (size 15 to 20)
#    0.000    2.000    2.500    1.500    0.000    2.000 
#    0.000    1.250    0.000    0.000    0.000    0.000 
#    0.000    0.000    0.000    0.000    0.000    0.000 
#
# Total GULP energy -396702.997683 kJ/mol
# GULP energy per Si atom -12396.968678 kJ/mol
# Density = 1.836779 g / cm^3
# Si number density = 18.409690 Si / 1000 Ang^3
#
#
#
# Elastic Constant Matrix: (Units=GPa)
#
#
# Indices 1 2 3 4 5 6 
#
# 1 83.0622 51.5157 50.4647 0.0000 0.0000 0.0000
# 2 51.5157 130.9127 57.7236 0.0000 0.0000 0.0000
# 3 50.4647 57.7236 88.2292 0.0000 0.0000 0.0000
# 4 0.0000 0.0000 0.0000 22.9704 0.0000 0.0000
# 5 0.0000 0.0000 0.0000 0.0000 12.9202 0.0000
# 6 0.0000 0.0000 0.0000 0.0000 0.0000 28.1381
#
#
#
# Elastic Compliance Matrix: (Units=1/GPa)
#
#
# Indices 1 2 3 4 5 6 
#
# 1 0.019793 -0.003931 -0.008749 0.000000 0.000000 0.000000
# 2 -0.003931 0.011516 -0.005286 0.000000 0.000000 0.000000
# 3 -0.008749 -0.005286 0.019797 0.000000 0.000000 0.000000
# 4 0.000000 0.000000 0.000000 0.043534 0.000000 0.000000
# 5 0.000000 0.000000 0.000000 0.000000 0.077398 0.000000
# 6 0.000000 0.000000 0.000000 0.000000 0.000000 0.035539
#
#
# Mechanical properties :
#
#
# Convention : Reuss Voigt Hill
#
# Bulk Modulus (GPa) = 65.90424 69.06802 67.48613
# Shear Modulus (GPa) = 20.11525 22.30575 21.21050
#
# Velocity S-wave (km/s) = 3.30910 3.48462 3.39800
# Velocity P-wave (km/s) = 7.10469 7.33409 7.22030
#
# Compressibility (1/GPa) = 0.01517353
#
# Stress axis : x y z
#
# Youngs Moduli (GPa) = 50.52377 86.83288 50.51310
#
# Poissons Ratio (x) = 0.34133 0.44194
# Poissons Ratio (y) = 0.19860 0.26702
# Poissons Ratio (z) = 0.44204 0.45902
#
# Static dielectric constant tensor:
#      x y z
#    x 3.464260 0.000000 0.000000 
#    y 0.000000 3.498970 0.000000 
#    z 0.000000 0.000000 3.165550 
# 
# 
# High freq. dielectric constant tensor:
#      x y z
#    x 1.723690 0.000000 0.000000 
#    y 0.000000 1.714310 0.000000 
#    z 0.000000 0.000000 1.691700 
# 
# From -- ./inp_files/33412.got.cif
#   From: 2010.03.12/outbox.cif.g09.slc.cpg/sg63_17_cif.got.tgz:33412.got - 2010.04.10 19:34:48.
