data_PCOD8259333
_publ_section_title
;
Structure prediction by ZEFSAII (Michael W. Deem and Ramdas Pophale) SiO2 
 PCOD8259333
Probable space group: C M C M
;
_chemical_formula_sum "Si O2"
_cell_formula_units_Z 96
_cell_length_a 23.612769
_cell_length_b 13.979363
_cell_length_c 14.969401
_cell_angle_alpha 90.000000
_cell_angle_beta 90.000000
_cell_angle_gamma 90.000000
_cell_volume 4941.271570
_symmetry_space_group_name_H-M "C M C M"
_symmetry_group_IT_number 63
_symmetry_cell_setting 'orthorhombic'
loop_
_space_group_symop_operation_xyz
x,y,z
-x,-y,1/2+z
x,-y,-z
-x,y,1/2-z
-x,-y,-z
x,y,1/2-z
-x,y,z
x,-y,1/2+z
1/2+x,1/2+y,z
1/2-x,1/2-y,1/2+z
1/2+x,1/2-y,-z
1/2-x,1/2+y,1/2-z
1/2-x,1/2-y,-z
1/2+x,1/2+y,1/2-z
1/2-x,1/2+y,z
1/2+x,1/2-y,1/2+z
loop_
_atom_site_type_symbol
_atom_site_label
_atom_site_fract_x
_atom_site_fract_y
_atom_site_fract_z
Si Si1 0.256779 0.501760 0.354228
Si Si2 0.066229 0.756613 0.351594
Si Si3 0.287545 0.301475 0.573162
Si Si4 0.363876 0.590117 0.951358
Si Si5 0.064596 0.612875 0.993597
Si Si6 0.343100 0.868499 0.349760
O O1 0.268363 0.490250 0.250000
O O2 0.252831 0.612318 0.382103
O O3 0.307046 0.447674 0.404333
O O4 0.196412 0.456504 0.381715
O O5 0.085289 0.732457 0.250000
O O6 0.095614 0.855347 0.382498
O O7 0.082483 0.665866 0.414019
O O8 0.000000 0.777061 0.355804
O O9 0.250000 0.250000 0.500000
O O10 0.345790 0.336487 0.528313
O O11 0.304392 0.226577 0.649863
O O12 0.395170 0.500000 0.000000
O O13 0.000000 0.639780 0.969803
O O14 0.072139 0.500000 0.000000
O O15 0.103746 0.648161 0.913562
O O16 0.365888 0.886278 0.250000
#
# Coordination Sequence:
#
# PCOD8259333 Si02
#       6
#    16  16  16  16  16  16
#     4  10  22  37  55  86 121 153 193 240 295 353
#     4  10  21  39  63  90 118 154 203 252 299 357
#     4  11  21  36  57  82 120 154 187 237 288 352
#     4  10  20  35  60  87 116 157 190 240 299 353
#     4  10  23  41  62  86 119 158 199 252 304 351
#     4  11  23  38  61  89 117 157 202 241 293 356
#
# _framework density 19.428197000000001
#
# number of rings (size 3 to 8) (size 9 to 14) (size 15 to 20)
#    0.000    1.667    3.333    1.000    2.333    1.333 
#    0.000    3.333    0.000    0.000    0.000    0.000 
#    0.000    0.000    0.000    0.000    0.000    0.000 
#
# Total GULP energy -595145.501620 kJ/mol
# GULP energy per Si atom -12398.864617 kJ/mol
# Density = 1.938398 g / cm^3
# Si number density = 19.428197 Si / 1000 Ang^3
#
#
#
# Elastic Constant Matrix: (Units=GPa)
#
#
# Indices 1 2 3 4 5 6 
#
# 1 68.4396 47.1055 53.8726 0.0000 0.0000 0.0000
# 2 47.1055 123.0509 55.0555 0.0000 0.0000 0.0000
# 3 53.8726 55.0555 121.0680 0.0000 0.0000 0.0000
# 4 0.0000 0.0000 0.0000 34.3784 0.0000 0.0000
# 5 0.0000 0.0000 0.0000 0.0000 31.2890 0.0000
# 6 0.0000 0.0000 0.0000 0.0000 0.0000 26.1276
#
#
#
# Elastic Compliance Matrix: (Units=1/GPa)
#
#
# Indices 1 2 3 4 5 6 
#
# 1 0.025476 -0.005876 -0.008664 0.000000 0.000000 0.000000
# 2 -0.005876 0.011558 -0.002641 0.000000 0.000000 0.000000
# 3 -0.008664 -0.002641 0.013316 0.000000 0.000000 0.000000
# 4 0.000000 0.000000 0.000000 0.029088 0.000000 0.000000
# 5 0.000000 0.000000 0.000000 0.000000 0.031960 0.000000
# 6 0.000000 0.000000 0.000000 0.000000 0.000000 0.038274
#
#
# Mechanical properties :
#
#
# Convention : Reuss Voigt Hill
#
# Bulk Modulus (GPa) = 62.54970 69.40286 65.97628
# Shear Modulus (GPa) = 26.40427 28.79397 27.59912
#
# Velocity S-wave (km/s) = 3.69056 3.85394 3.77313
# Velocity P-wave (km/s) = 7.10109 7.45682 7.28113
#
# Compressibility (1/GPa) = 0.01598729
#
# Stress axis : x y z
#
# Youngs Moduli (GPa) = 39.25309 86.52117 75.09627
#
# Poissons Ratio (x) = 0.50839 0.65064
# Poissons Ratio (y) = 0.23065 0.19835
# Poissons Ratio (z) = 0.34009 0.22852
#
# Static dielectric constant tensor:
#      x y z
#    x 3.461320 0.000000 0.000000 
#    y 0.000000 3.165280 0.000000 
#    z 0.000000 0.000000 3.696760 
# 
# 
# High freq. dielectric constant tensor:
#      x y z
#    x 1.739380 0.000000 0.000000 
#    y 0.000000 1.770360 0.000000 
#    z 0.000000 0.000000 1.761240 
# 
# From -- ./inp_files/35354.got.cif
#   From: 2010.03.12/outbox.cif.g09.slc.cpg/sg63_18_cif.got.tgz:35354.got - 2010.04.10 19:34:48.
