data_PCOD8259105
_publ_section_title
;
Structure prediction by ZEFSAII (Michael W. Deem and Ramdas Pophale) SiO2 
 PCOD8259105
Probable space group: C M C M
;
_chemical_formula_sum "Si O2"
_cell_formula_units_Z 112
_cell_length_a 24.381158
_cell_length_b 16.962980
_cell_length_c 14.776456
_cell_angle_alpha 90.000000
_cell_angle_beta 90.000000
_cell_angle_gamma 90.000000
_cell_volume 6111.203755
_symmetry_space_group_name_H-M "C M C M"
_symmetry_group_IT_number 63
_symmetry_cell_setting 'orthorhombic'
loop_
_space_group_symop_operation_xyz
x,y,z
-x,-y,1/2+z
x,-y,-z
-x,y,1/2-z
-x,-y,-z
x,y,1/2-z
-x,y,z
x,-y,1/2+z
1/2+x,1/2+y,z
1/2-x,1/2-y,1/2+z
1/2+x,1/2-y,-z
1/2-x,1/2+y,1/2-z
1/2-x,1/2-y,-z
1/2+x,1/2+y,1/2-z
1/2-x,1/2+y,z
1/2+x,1/2-y,1/2+z
loop_
_atom_site_type_symbol
_atom_site_label
_atom_site_fract_x
_atom_site_fract_y
_atom_site_fract_z
Si Si1 0.562428 0.917912 0.852216
Si Si2 0.603937 0.808495 0.489899
Si Si3 0.274924 0.438598 0.148686
Si Si4 0.834161 0.905185 0.853426
Si Si5 0.199015 0.802993 0.011195
Si Si6 0.154123 0.540073 0.907726
Si Si7 0.439267 0.685160 0.352029
O O1 0.569405 0.883560 0.750000
O O2 0.500000 0.949582 0.865327
O O3 0.604892 0.990267 0.862416
O O4 0.571674 0.850546 0.927902
O O5 0.646924 0.749961 0.537361
O O6 0.633649 0.871557 0.425161
O O7 0.566115 0.756576 0.423627
O O8 0.291927 0.416837 0.250000
O O9 0.313584 0.509673 0.113488
O O10 0.209998 0.459206 0.149956
O O11 0.290976 0.365534 0.088514
O O12 0.816136 0.892178 0.750000
O O13 0.804305 0.839978 0.912128
O O14 0.899209 0.889837 0.868686
O O15 0.250000 0.750000 0.000000
O O16 0.172426 0.500000 0.000000
O O17 0.429289 0.718634 0.250000
O O18 0.500000 0.650114 0.362081
#
# Coordination Sequence:
#
# PCOD8259105 Si02
#       7
#    16  16  16  16  16  16  16
#     4  10  22  38  55  78 110 149 191 228 265 317
#     4  10  21  35  56  80 112 144 181 225 275 328
#     4  11  22  36  57  82 111 144 182 221 269 329
#     4   9  20  36  56  80 109 144 179 223 272 321
#     4  11  21  36  54  79 113 144 178 222 272 326
#     4  10  20  35  54  77 107 145 184 225 273 322
#     4   9  18  34  57  84 110 139 179 228 281 324
#
# _framework density 18.326995
#
# number of rings (size 3 to 8) (size 9 to 14) (size 15 to 20)
#    0.000    2.000    1.429    2.143    2.000    5.429 
#    0.000    1.429    0.000    7.714    0.000    2.000 
#    0.000    0.000    0.000    0.000    0.000    0.000 
#
# Total GULP energy -694043.509696 kJ/mol
# GULP energy per Si atom -12393.634102 kJ/mol
# Density = 1.828528 g / cm^3
# Si number density = 18.326995 Si / 1000 Ang^3
#
#
#
# Elastic Constant Matrix: (Units=GPa)
#
#
# Indices 1 2 3 4 5 6 
#
# 1 132.4934 74.9091 54.9550 0.0000 0.0000 0.0000
# 2 74.9091 108.5660 42.8721 0.0000 0.0000 0.0000
# 3 54.9550 42.8721 77.6980 0.0000 0.0000 0.0000
# 4 0.0000 0.0000 0.0000 -143.1933 0.0000 0.0000
# 5 0.0000 0.0000 0.0000 0.0000 28.1847 0.0000
# 6 0.0000 0.0000 0.0000 0.0000 0.0000 24.4359
#
#
#
# Elastic Compliance Matrix: (Units=1/GPa)
#
#
# Indices 1 2 3 4 5 6 
#
# 1 0.014243 -0.007479 -0.005947 0.000000 0.000000 0.000000
# 2 -0.007479 0.015704 -0.003376 0.000000 0.000000 0.000000
# 3 -0.005947 -0.003376 0.018939 0.000000 0.000000 0.000000
# 4 0.000000 0.000000 0.000000 -0.006984 0.000000 0.000000
# 5 0.000000 0.000000 0.000000 0.000000 0.035480 0.000000
# 6 0.000000 0.000000 0.000000 0.000000 0.000000 0.040923
#
#
# Mechanical properties :
#
#
# Convention : Reuss Voigt Hill
#
# Bulk Modulus (GPa) = 65.43110 73.80329 69.61719
# Shear Modulus (GPa) = 31.84649 -8.37980 11.73334
#
# Velocity S-wave (km/s) = 4.17307 -2.14063 2.53301
# Velocity P-wave (km/s) = 7.68108 5.85217 6.82814
#
# Compressibility (1/GPa) = 0.01528325
#
# Stress axis : x y z
#
# Youngs Moduli (GPa) = 70.21222 63.67715 52.80054
#
# Poissons Ratio (x) = 0.47622 0.31401
# Poissons Ratio (y) = 0.52510 0.17823
# Poissons Ratio (z) = 0.41755 0.21495
#
# Static dielectric constant tensor:
#      x y z
#    x 3.516560 0.000000 0.000000 
#    y 0.000000 3.428790 0.000000 
#    z 0.000000 0.000000 2.709040 
# 
# 
# High freq. dielectric constant tensor:
#      x y z
#    x 1.717150 0.000000 0.000000 
#    y 0.000000 1.698610 0.000000 
#    z 0.000000 0.000000 1.719340 
# 
# From -- ./inp_files/37979.got.cif
#   From: 2010.03.12/outbox.cif.g09.slc.cpg/sg63_19_cif.got.tgz:37979.got - 2010.04.10 19:34:48.
