data_PCOD8259826
_publ_section_title
;
Structure prediction by ZEFSAII (Michael W. Deem and Ramdas Pophale) SiO2 
 PCOD8259826
Probable space group: C M C M
;
_chemical_formula_sum "Si O2"
_cell_formula_units_Z 96
_cell_length_a 8.885042
_cell_length_b 23.377569
_cell_length_c 25.124841
_cell_angle_alpha 90.000000
_cell_angle_beta 90.000000
_cell_angle_gamma 90.000000
_cell_volume 5218.697870
_symmetry_space_group_name_H-M "C M C M"
_symmetry_group_IT_number 63
_symmetry_cell_setting 'orthorhombic'
loop_
_space_group_symop_operation_xyz
x,y,z
-x,-y,1/2+z
x,-y,-z
-x,y,1/2-z
-x,-y,-z
x,y,1/2-z
-x,y,z
x,-y,1/2+z
1/2+x,1/2+y,z
1/2-x,1/2-y,1/2+z
1/2+x,1/2-y,-z
1/2-x,1/2+y,1/2-z
1/2-x,1/2-y,-z
1/2+x,1/2+y,1/2-z
1/2-x,1/2+y,z
1/2+x,1/2-y,1/2+z
loop_
_atom_site_type_symbol
_atom_site_label
_atom_site_fract_x
_atom_site_fract_y
_atom_site_fract_z
Si Si1 0.326166 0.683053 0.312083
Si Si2 0.321458 0.311607 0.503640
Si Si3 0.674583 0.493845 0.938822
Si Si4 0.177636 0.312203 0.190674
Si Si5 0.676698 0.118578 0.097306
Si Si6 0.174060 0.119476 0.598881
O O1 0.301028 0.671309 0.250000
O O2 0.500000 0.673160 0.327599
O O3 0.276499 0.747914 0.326593
O O4 0.221211 0.638977 0.343705
O O5 0.500000 0.306751 0.505685
O O6 0.250000 0.250000 0.500000
O O7 0.265854 0.341932 0.556532
O O8 0.265138 0.348194 0.453271
O O9 0.500000 0.475252 0.936543
O O10 0.776102 0.447061 0.909815
O O11 0.704142 0.552392 0.907587
O O12 0.725060 0.500000 0.000000
O O13 0.239779 0.324999 0.250000
O O14 0.242134 0.359094 0.151039
O O15 0.000000 0.317157 0.190774
O O16 0.500000 0.125215 0.088296
O O17 0.000000 0.133164 0.606423
#
# Coordination Sequence:
#
# PCOD8259826 Si02
#       6
#    16  16  16  16  16  16
#     4   9  19  38  62  84 110 151 195 232 279 339
#     4  11  22  37  55  82 116 148 184 231 285 340
#     4  10  20  40  61  77 106 153 196 236 281 328
#     4   9  19  36  58  84 114 147 182 225 280 335
#     4  12  24  36  55  86 117 148 187 233 287 344
#     4  10  21  36  57  82 108 143 189 232 277 329
#
# _framework density 18.395395000000001
#
# number of rings (size 3 to 8) (size 9 to 14) (size 15 to 20)
#    0.000    1.833    1.667    4.000    0.000    6.333 
#    0.000    2.500    0.000    1.000    0.000    0.000 
#    0.000    0.000    0.000    0.000    0.000    0.000 
#
# Total GULP energy -595366.177994 kJ/mol
# GULP energy per Si atom -12403.462042 kJ/mol
# Density = 1.835353 g / cm^3
# Si number density = 18.395395 Si / 1000 Ang^3
#
#
#
# Elastic Constant Matrix: (Units=GPa)
#
#
# Indices 1 2 3 4 5 6 
#
# 1 66.9055 43.4521 38.8928 0.0000 0.0000 0.0000
# 2 43.4521 104.0871 51.0023 0.0000 0.0000 0.0000
# 3 38.8928 51.0023 100.2428 0.0000 0.0000 0.0000
# 4 0.0000 0.0000 0.0000 18.3018 0.0000 0.0000
# 5 0.0000 0.0000 0.0000 0.0000 30.2599 0.0000
# 6 0.0000 0.0000 0.0000 0.0000 0.0000 32.1668
#
#
#
# Elastic Compliance Matrix: (Units=1/GPa)
#
#
# Indices 1 2 3 4 5 6 
#
# 1 0.022397 -0.006783 -0.005239 0.000000 0.000000 0.000000
# 2 -0.006783 0.014852 -0.004925 0.000000 0.000000 0.000000
# 3 -0.005239 -0.004925 0.014514 0.000000 0.000000 0.000000
# 4 0.000000 0.000000 0.000000 0.054639 0.000000 0.000000
# 5 0.000000 0.000000 0.000000 0.000000 0.033047 0.000000
# 6 0.000000 0.000000 0.000000 0.000000 0.000000 0.031088
#
#
# Mechanical properties :
#
#
# Convention : Reuss Voigt Hill
#
# Bulk Modulus (GPa) = 55.95913 59.76999 57.86456
# Shear Modulus (GPa) = 23.76571 25.33822 24.55197
#
# Velocity S-wave (km/s) = 3.59825 3.71539 3.65729
# Velocity P-wave (km/s) = 6.91010 7.13918 7.02557
#
# Compressibility (1/GPa) = 0.01787019
#
# Stress axis : x y z
#
# Youngs Moduli (GPa) = 44.64901 67.33050 68.89887
#
# Poissons Ratio (x) = 0.45669 0.36094
# Poissons Ratio (y) = 0.30285 0.33932
# Poissons Ratio (z) = 0.23390 0.33160
#
# Static dielectric constant tensor:
#      x y z
#    x 3.265650 0.000000 0.000000 
#    y 0.000000 3.433930 0.000000 
#    z 0.000000 0.000000 3.599660 
# 
# 
# High freq. dielectric constant tensor:
#      x y z
#    x 1.706930 0.000000 0.000000 
#    y 0.000000 1.716600 0.000000 
#    z 0.000000 0.000000 1.716570 
# 
# From -- ./inp_files/59871.got.cif
#   From: 2010.03.12/outbox.cif.g09.slc.cpg/sg63_30_cif.got.tgz:59871.got - 2010.04.10 19:34:48.
