data_PCOD8259769
_publ_section_title
;
Structure prediction by ZEFSAII (Michael W. Deem and Ramdas Pophale) SiO2 
 PCOD8259769
Probable space group: C M C M
;
_chemical_formula_sum "Si O2"
_cell_formula_units_Z 72
_cell_length_a 19.675507
_cell_length_b 8.407906
_cell_length_c 20.588447
_cell_angle_alpha 90.000000
_cell_angle_beta 90.000000
_cell_angle_gamma 90.000000
_cell_volume 3405.942945
_symmetry_space_group_name_H-M "C M C M"
_symmetry_group_IT_number 63
_symmetry_cell_setting 'orthorhombic'
loop_
_space_group_symop_operation_xyz
x,y,z
-x,-y,1/2+z
x,-y,-z
-x,y,1/2-z
-x,-y,-z
x,y,1/2-z
-x,y,z
x,-y,1/2+z
1/2+x,1/2+y,z
1/2-x,1/2-y,1/2+z
1/2+x,1/2-y,-z
1/2-x,1/2+y,1/2-z
1/2-x,1/2-y,-z
1/2+x,1/2+y,1/2-z
1/2-x,1/2+y,z
1/2+x,1/2-y,1/2+z
loop_
_atom_site_type_symbol
_atom_site_label
_atom_site_fract_x
_atom_site_fract_y
_atom_site_fract_z
Si Si1 0.346711 0.000000 0.500000
Si Si2 0.923041 0.961387 0.428528
Si Si3 0.800962 0.572915 0.822051
Si Si4 0.423361 0.186034 0.888569
Si Si5 0.693790 0.232193 0.106240
O O1 0.394977 0.896536 0.453568
O O2 0.299705 0.875865 0.540859
O O3 0.876409 0.829910 0.394258
O O4 0.000000 0.893252 0.432448
O O5 0.894765 0.000000 0.500000
O O6 0.920644 0.123852 0.388991
O O7 0.772088 0.608636 0.750000
O O8 0.877604 0.637735 0.827231
O O9 0.756623 0.648587 0.881374
O O10 0.804503 0.383716 0.831752
O O11 0.500000 0.126155 0.877898
#
# Coordination Sequence:
#
# PCOD8259769 Si02
#       5
#     8  16  16  16  16
#     4  10  21  36  62  96 129 158 200 258 323 386
#     4  10  20  38  63  93 131 165 195 243 313 386
#     4  11  25  44  63  87 124 174 220 267 311 363
#     4  10  21  38  63  94 127 166 206 256 316 380
#     4  11  23  40  64  93 125 165 210 262 320 383
#
# _framework density 21.139520000000001
#
# number of rings (size 3 to 8) (size 9 to 14) (size 15 to 20)
#    0.000    1.556    2.222    2.333    0.000    7.556 
#   10.000    1.111    0.000    4.667    0.000    0.000 
#    0.000    0.000    0.000    0.000    0.000    0.000 
#
# Total GULP energy -446261.804734 kJ/mol
# GULP energy per Si atom -12396.161243 kJ/mol
# Density = 2.109141 g / cm^3
# Si number density = 21.139520 Si / 1000 Ang^3
#
#
#
# Elastic Constant Matrix: (Units=GPa)
#
#
# Indices 1 2 3 4 5 6 
#
# 1 128.4803 59.6460 44.0944 0.0000 0.0000 0.0000
# 2 59.6460 117.7501 37.2016 0.0000 0.0000 0.0000
# 3 44.0944 37.2016 82.0685 0.0000 0.0000 0.0000
# 4 0.0000 0.0000 0.0000 27.1398 0.0000 0.0000
# 5 0.0000 0.0000 0.0000 0.0000 20.0688 0.0000
# 6 0.0000 0.0000 0.0000 0.0000 0.0000 38.2130
#
#
#
# Elastic Compliance Matrix: (Units=1/GPa)
#
#
# Indices 1 2 3 4 5 6 
#
# 1 0.011211 -0.004407 -0.004026 0.000000 0.000000 0.000000
# 2 -0.004407 0.011644 -0.002911 0.000000 0.000000 0.000000
# 3 -0.004026 -0.002911 0.015667 0.000000 0.000000 0.000000
# 4 0.000000 0.000000 0.000000 0.036846 0.000000 0.000000
# 5 0.000000 0.000000 0.000000 0.000000 0.049829 0.000000
# 6 0.000000 0.000000 0.000000 0.000000 0.000000 0.026169
#
#
# Mechanical properties :
#
#
# Convention : Reuss Voigt Hill
#
# Bulk Modulus (GPa) = 63.14753 67.79809 65.47281
# Shear Modulus (GPa) = 27.88126 29.57477 28.72802
#
# Velocity S-wave (km/s) = 3.63563 3.74442 3.69042
# Velocity P-wave (km/s) = 6.89640 7.12991 7.01413
#
# Compressibility (1/GPa) = 0.01583593
#
# Stress axis : x y z
#
# Youngs Moduli (GPa) = 89.19954 85.87779 63.82712
#
# Poissons Ratio (x) = 0.37846 0.25695
# Poissons Ratio (y) = 0.39310 0.18578
# Poissons Ratio (z) = 0.35910 0.24996
#
# Static dielectric constant tensor:
#      x y z
#    x 3.852880 0.000000 0.000000 
#    y 0.000000 4.032230 0.000000 
#    z 0.000000 0.000000 3.484120 
# 
# 
# High freq. dielectric constant tensor:
#      x y z
#    x 1.826410 0.000000 0.000000 
#    y 0.000000 1.846950 0.000000 
#    z 0.000000 0.000000 1.800640 
# 
# From -- ./inp_files/56320.got.cif
#   From: 2010.03.12/outbox.cif.g09.slc.cpg/sg63_29_cif.got.tgz:56320.got - 2010.04.10 19:34:48.
