data_PCOD8259313
_publ_section_title
;
Structure prediction by ZEFSAII (Michael W. Deem and Ramdas Pophale) SiO2 
 PCOD8259313
Probable space group: C M C M
;
_chemical_formula_sum "Si O2"
_cell_formula_units_Z 64
_cell_length_a 7.579090
_cell_length_b 22.537439
_cell_length_c 19.368611
_cell_angle_alpha 90.000000
_cell_angle_beta 90.000000
_cell_angle_gamma 90.000000
_cell_volume 3308.415946
_symmetry_space_group_name_H-M "C M C M"
_symmetry_group_IT_number 63
_symmetry_cell_setting 'orthorhombic'
loop_
_space_group_symop_operation_xyz
x,y,z
-x,-y,1/2+z
x,-y,-z
-x,y,1/2-z
-x,-y,-z
x,y,1/2-z
-x,y,z
x,-y,1/2+z
1/2+x,1/2+y,z
1/2-x,1/2-y,1/2+z
1/2+x,1/2-y,-z
1/2-x,1/2+y,1/2-z
1/2-x,1/2-y,-z
1/2+x,1/2+y,1/2-z
1/2-x,1/2+y,z
1/2+x,1/2-y,1/2+z
loop_
_atom_site_type_symbol
_atom_site_label
_atom_site_fract_x
_atom_site_fract_y
_atom_site_fract_z
Si Si1 0.293393 0.331770 0.954259
Si Si2 0.197498 0.786247 0.398276
Si Si3 0.500000 0.019263 0.833493
Si Si4 0.000000 0.349189 0.172218
Si Si5 0.292752 0.466867 0.928586
O O1 0.500000 0.321637 0.948351
O O2 0.201671 0.285503 0.901869
O O3 0.238597 0.398270 0.936619
O O4 0.230450 0.315530 0.031170
O O5 0.326118 0.810381 0.340129
O O6 0.000000 0.807487 0.380838
O O7 0.500000 0.011355 0.750000
O O8 0.500000 0.086392 0.863522
O O9 0.677910 0.990514 0.864797
O O10 0.000000 0.368096 0.250000
O O11 0.500000 0.474801 0.910952
O O12 0.246263 0.500000 0.000000
#
# Coordination Sequence:
#
# PCOD8259313 Si02
#       5
#    16  16   8   8  16
#     4   9  18  34  59  89 120 143 181 241 292 339
#     4  10  20  35  59  87 114 148 186 233 294 344
#     4  11  25  41  59  85 119 162 201 239 290 354
#     4  11  24  41  57  79 116 152 195 239 280 342
#     4  10  21  38  62  91 119 152 197 247 293 346
#
# _framework density 19.344605000000001
#
# number of rings (size 3 to 8) (size 9 to 14) (size 15 to 20)
#    0.000    2.000    1.250    1.875    3.500    4.000 
#    0.000    3.750    0.000    0.000    0.000    0.000 
#    0.000    0.000    0.000    0.000    0.000    0.000 
#
# Total GULP energy -396731.290602 kJ/mol
# GULP energy per Si atom -12397.852831 kJ/mol
# Density = 1.930058 g / cm^3
# Si number density = 19.344605 Si / 1000 Ang^3
#
#
#
# Elastic Constant Matrix: (Units=GPa)
#
#
# Indices 1 2 3 4 5 6 
#
# 1 96.7230 54.4461 42.1732 0.0000 0.0000 0.0000
# 2 54.4461 148.9329 45.8595 0.0000 0.0000 0.0000
# 3 42.1732 45.8595 76.0121 0.0000 0.0000 0.0000
# 4 0.0000 0.0000 0.0000 24.7420 0.0000 0.0000
# 5 0.0000 0.0000 0.0000 0.0000 27.0604 0.0000
# 6 0.0000 0.0000 0.0000 0.0000 0.0000 18.7344
#
#
#
# Elastic Compliance Matrix: (Units=1/GPa)
#
#
# Indices 1 2 3 4 5 6 
#
# 1 0.015063 -0.003603 -0.006184 0.000000 0.000000 0.000000
# 2 -0.003603 0.009108 -0.003496 0.000000 0.000000 0.000000
# 3 -0.006184 -0.003496 0.018696 0.000000 0.000000 0.000000
# 4 0.000000 0.000000 0.000000 0.040417 0.000000 0.000000
# 5 0.000000 0.000000 0.000000 0.000000 0.036954 0.000000
# 6 0.000000 0.000000 0.000000 0.000000 0.000000 0.053378
#
#
# Mechanical properties :
#
#
# Convention : Reuss Voigt Hill
#
# Bulk Modulus (GPa) = 61.34270 67.40283 64.37277
# Shear Modulus (GPa) = 24.31725 26.05330 25.18528
#
# Velocity S-wave (km/s) = 3.54934 3.67386 3.61214
# Velocity P-wave (km/s) = 6.96968 7.27428 7.12361
#
# Compressibility (1/GPa) = 0.01630186
#
# Stress axis : x y z
#
# Youngs Moduli (GPa) = 66.38800 109.79369 53.48719
#
# Poissons Ratio (x) = 0.39553 0.33075
# Poissons Ratio (y) = 0.23916 0.18700
# Poissons Ratio (z) = 0.41053 0.38387
#
# Static dielectric constant tensor:
#      x y z
#    x 3.607620 0.000000 0.000000 
#    y 0.000000 3.756750 0.000000 
#    z 0.000000 0.000000 3.185520 
# 
# 
# High freq. dielectric constant tensor:
#      x y z
#    x 1.764220 0.000000 0.000000 
#    y 0.000000 1.770120 0.000000 
#    z 0.000000 0.000000 1.714890 
# 
# From -- ./inp_files/39883.got.cif
#   From: 2010.03.12/outbox.cif.g09.slc.cpg/sg63_20_cif.got.tgz:39883.got - 2010.04.10 19:34:48.
