data_PCOD8259225
_publ_section_title
;
Structure prediction by ZEFSAII (Michael W. Deem and Ramdas Pophale) SiO2 
 PCOD8259225
Probable space group: C M C M
;
_chemical_formula_sum "Si O2"
_cell_formula_units_Z 96
_cell_length_a 20.189376
_cell_length_b 11.762873
_cell_length_c 19.684964
_cell_angle_alpha 90.000000
_cell_angle_beta 90.000000
_cell_angle_gamma 90.000000
_cell_volume 4674.884972
_symmetry_space_group_name_H-M "C M C M"
_symmetry_group_IT_number 63
_symmetry_cell_setting 'orthorhombic'
loop_
_space_group_symop_operation_xyz
x,y,z
-x,-y,1/2+z
x,-y,-z
-x,y,1/2-z
-x,-y,-z
x,y,1/2-z
-x,y,z
x,-y,1/2+z
1/2+x,1/2+y,z
1/2-x,1/2-y,1/2+z
1/2+x,1/2-y,-z
1/2-x,1/2+y,1/2-z
1/2-x,1/2-y,-z
1/2+x,1/2+y,1/2-z
1/2-x,1/2+y,z
1/2+x,1/2-y,1/2+z
loop_
_atom_site_type_symbol
_atom_site_label
_atom_site_fract_x
_atom_site_fract_y
_atom_site_fract_z
Si Si1 0.425969 0.384204 0.173461
Si Si2 0.782508 0.893214 0.545891
Si Si3 0.077807 0.539148 0.070808
Si Si4 0.137875 0.110805 0.326017
Si Si5 0.922967 0.351575 0.172238
Si Si6 0.155378 0.241967 0.932934
O O1 0.417247 0.336131 0.250000
O O2 0.500000 0.351636 0.146222
O O3 0.422546 0.521621 0.174478
O O4 0.363237 0.340954 0.129269
O O5 0.810608 0.934550 0.617827
O O6 0.840878 0.830022 0.502910
O O7 0.724690 0.808143 0.569654
O O8 0.756696 0.000000 0.500000
O O9 0.107496 0.456656 0.129118
O O10 0.095478 0.670381 0.075947
O O11 0.000000 0.527263 0.073023
O O12 0.108859 0.500000 0.000000
O O13 0.169864 0.115172 0.250000
O O14 0.113362 0.235501 0.347892
O O15 0.910800 0.383953 0.250000
O O16 0.000000 0.333737 0.156366
#
# Coordination Sequence:
#
# PCOD8259225 Si02
#       6
#    16  16  16  16  16  16
#     4  10  21  39  64  94 128 162 200 259 327 382
#     4  11  23  41  61  86 122 168 215 262 308 373
#     4  10  20  35  56  84 117 149 192 248 304 359
#     4  10  20  38  62  89 122 161 208 257 314 375
#     4   9  18  34  58  87 118 155 197 243 300 368
#     4  11  23  39  62  85 121 163 208 254 315 373
#
# _framework density 20.535264000000002
#
# number of rings (size 3 to 8) (size 9 to 14) (size 15 to 20)
#    0.000    1.833    1.667    2.500    0.000    4.667 
#    0.000    5.000    0.000    0.000    0.000    0.000 
#    0.000    0.000    0.000    0.000    0.000    0.000 
#
# Total GULP energy -594638.442338 kJ/mol
# GULP energy per Si atom -12388.300882 kJ/mol
# Density = 2.048852 g / cm^3
# Si number density = 20.535264 Si / 1000 Ang^3
#
#
#
# Elastic Constant Matrix: (Units=GPa)
#
#
# Indices 1 2 3 4 5 6 
#
# 1 59.3574 26.4696 56.6956 0.0000 0.0000 0.0000
# 2 26.4696 108.4911 48.6079 0.0000 0.0000 0.0000
# 3 56.6956 48.6079 134.3814 0.0000 0.0000 0.0000
# 4 0.0000 0.0000 0.0000 33.9208 0.0000 0.0000
# 5 0.0000 0.0000 0.0000 0.0000 25.4442 0.0000
# 6 0.0000 0.0000 0.0000 0.0000 0.0000 28.3825
#
#
#
# Elastic Compliance Matrix: (Units=1/GPa)
#
#
# Indices 1 2 3 4 5 6 
#
# 1 0.028534 -0.001871 -0.011361 0.000000 0.000000 0.000000
# 2 -0.001871 0.011123 -0.003234 0.000000 0.000000 0.000000
# 3 -0.011361 -0.003234 0.013405 0.000000 0.000000 0.000000
# 4 0.000000 0.000000 0.000000 0.029480 0.000000 0.000000
# 5 0.000000 0.000000 0.000000 0.000000 0.039302 0.000000
# 6 0.000000 0.000000 0.000000 0.000000 0.000000 0.035233
#
#
# Mechanical properties :
#
#
# Convention : Reuss Voigt Hill
#
# Bulk Modulus (GPa) = 49.68227 62.86399 56.27313
# Shear Modulus (GPa) = 25.41704 28.91327 27.16516
#
# Velocity S-wave (km/s) = 3.52195 3.75638 3.64105
# Velocity P-wave (km/s) = 6.38631 7.03513 6.71856
#
# Compressibility (1/GPa) = 0.02012790
#
# Stress axis : x y z
#
# Youngs Moduli (GPa) = 35.04646 89.90582 74.60109
#
# Poissons Ratio (x) = 0.16824 0.84758
# Poissons Ratio (y) = 0.06558 0.24124
# Poissons Ratio (z) = 0.39818 0.29074
#
# Static dielectric constant tensor:
#      x y z
#    x 3.336980 0.000000 0.000000 
#    y 0.000000 3.940030 0.000000 
#    z 0.000000 0.000000 3.989150 
# 
# 
# High freq. dielectric constant tensor:
#      x y z
#    x 1.774570 0.000000 0.000000 
#    y 0.000000 1.816260 0.000000 
#    z 0.000000 0.000000 1.809080 
# 
# From -- ./inp_files/56544.got.cif
#   From: 2010.03.12/outbox.cif.g09.slc.cpg/sg63_29_cif.got.tgz:56544.got - 2010.04.10 19:34:48.
