data_PCOD8259480
_publ_section_title
;
Structure prediction by ZEFSAII (Michael W. Deem and Ramdas Pophale) SiO2 
 PCOD8259480
Probable space group: C M C M
;
_chemical_formula_sum "Si O2"
_cell_formula_units_Z 72
_cell_length_a 28.923766
_cell_length_b 14.035398
_cell_length_c 8.647954
_cell_angle_alpha 90.000000
_cell_angle_beta 90.000000
_cell_angle_gamma 90.000000
_cell_volume 3510.693721
_symmetry_space_group_name_H-M "C M C M"
_symmetry_group_IT_number 63
_symmetry_cell_setting 'orthorhombic'
loop_
_space_group_symop_operation_xyz
x,y,z
-x,-y,1/2+z
x,-y,-z
-x,y,1/2-z
-x,-y,-z
x,y,1/2-z
-x,y,z
x,-y,1/2+z
1/2+x,1/2+y,z
1/2-x,1/2-y,1/2+z
1/2+x,1/2-y,-z
1/2-x,1/2+y,1/2-z
1/2-x,1/2-y,-z
1/2+x,1/2+y,1/2-z
1/2-x,1/2+y,z
1/2+x,1/2-y,1/2+z
loop_
_atom_site_type_symbol
_atom_site_label
_atom_site_fract_x
_atom_site_fract_y
_atom_site_fract_z
Si Si1 0.774521 0.896890 0.568612
Si Si2 0.086256 0.715887 0.433125
Si Si3 0.824547 0.395313 0.932563
Si Si4 0.124615 0.104941 0.066276
Si Si5 0.000000 0.605264 0.932625
O O1 0.777032 0.907904 0.750000
O O2 0.725587 0.845967 0.520658
O O3 0.824072 0.854924 0.514014
O O4 0.769351 0.000000 0.500000
O O5 0.080255 0.711236 0.250000
O O6 0.133815 0.669091 0.494594
O O7 0.086886 0.825302 0.490117
O O8 0.044707 0.661279 0.512090
O O9 0.827927 0.404852 0.750000
O O10 0.830414 0.500000 0.000000
O O11 0.118469 0.103016 0.250000
O O12 0.116099 0.000000 0.000000
O O13 0.000000 0.597868 0.750000
O O14 0.000000 0.500000 0.000000
#
# Coordination Sequence:
#
# PCOD8259480 Si02
#       5
#    16  16  16  16   8
#     4   8  15  29  49  76 112 153 194 234 280 333
#     4  11  23  39  60  87 117 151 194 241 292 348
#     4   9  18  32  52  80 115 153 193 238 286 339
#     4  10  20  36  58  84 117 157 198 240 286 337
#     4  12  26  46  69  92 119 150 186 232 290 348
#
# _framework density 20.508768
#
# number of rings (size 3 to 8) (size 9 to 14) (size 15 to 20)
#    0.000    2.222    0.000    3.000    0.000    5.333 
#    0.000    0.556    0.000    0.000    0.000    0.000 
#    0.000    0.000    0.000    0.000    0.000    0.000 
#
# Total GULP energy -445976.541082 kJ/mol
# GULP energy per Si atom -12388.237252 kJ/mol
# Density = 2.046209 g / cm^3
# Si number density = 20.508768 Si / 1000 Ang^3
#
#
#
# Elastic Constant Matrix: (Units=GPa)
#
#
# Indices 1 2 3 4 5 6 
#
# 1 136.5937 84.6275 55.0461 0.0000 0.0000 0.0000
# 2 84.6275 109.9274 41.4625 0.0000 0.0000 0.0000
# 3 55.0461 41.4625 76.2744 0.0000 0.0000 0.0000
# 4 0.0000 0.0000 0.0000 30.9152 0.0000 0.0000
# 5 0.0000 0.0000 0.0000 0.0000 25.5340 0.0000
# 6 0.0000 0.0000 0.0000 0.0000 0.0000 33.2934
#
#
#
# Elastic Compliance Matrix: (Units=1/GPa)
#
#
# Indices 1 2 3 4 5 6 
#
# 1 0.015969 -0.009996 -0.006090 0.000000 0.000000 0.000000
# 2 -0.009996 0.017701 -0.002408 0.000000 0.000000 0.000000
# 3 -0.006090 -0.002408 0.018815 0.000000 0.000000 0.000000
# 4 0.000000 0.000000 0.000000 0.032347 0.000000 0.000000
# 5 0.000000 0.000000 0.000000 0.000000 0.039163 0.000000
# 6 0.000000 0.000000 0.000000 0.000000 0.000000 0.030036
#
#
# Mechanical properties :
#
#
# Convention : Reuss Voigt Hill
#
# Bulk Modulus (GPa) = 64.53659 76.11864 70.32762
# Shear Modulus (GPa) = 25.48626 27.39247 26.43936
#
# Velocity S-wave (km/s) = 3.52902 3.65862 3.59440
# Velocity P-wave (km/s) = 6.93840 7.41910 7.18277
#
# Compressibility (1/GPa) = 0.01549509
#
# Stress axis : x y z
#
# Youngs Moduli (GPa) = 62.62305 56.49495 53.14954
#
# Poissons Ratio (x) = 0.56473 0.32370
# Poissons Ratio (y) = 0.62599 0.12798
# Poissons Ratio (z) = 0.38140 0.13604
#
# Static dielectric constant tensor:
#      x y z
#    x 4.235890 0.000000 0.000000 
#    y 0.000000 3.580850 0.000000 
#    z 0.000000 0.000000 3.526110 
# 
# 
# High freq. dielectric constant tensor:
#      x y z
#    x 1.808800 0.000000 0.000000 
#    y 0.000000 1.792310 0.000000 
#    z 0.000000 0.000000 1.802360 
# 
# From -- ./inp_files/11721.got.cif
#   From: 2010.03.12/outbox.cif.g09.slc.cpg/sg63_6_cif.got.tgz:11721.got - 2010.04.10 19:34:48.
