data_PCOD8259103
_publ_section_title
;
Structure prediction by ZEFSAII (Michael W. Deem and Ramdas Pophale) SiO2 
 PCOD8259103
Probable space group: C M C M
;
_chemical_formula_sum "Si O2"
_cell_formula_units_Z 80
_cell_length_a 29.642088
_cell_length_b 7.875079
_cell_length_c 16.457519
_cell_angle_alpha 90.000000
_cell_angle_beta 90.000000
_cell_angle_gamma 90.000000
_cell_volume 3841.740947
_symmetry_space_group_name_H-M "C M C M"
_symmetry_group_IT_number 63
_symmetry_cell_setting 'orthorhombic'
loop_
_space_group_symop_operation_xyz
x,y,z
-x,-y,1/2+z
x,-y,-z
-x,y,1/2-z
-x,-y,-z
x,y,1/2-z
-x,y,z
x,-y,1/2+z
1/2+x,1/2+y,z
1/2-x,1/2-y,1/2+z
1/2+x,1/2-y,-z
1/2-x,1/2+y,1/2-z
1/2-x,1/2-y,-z
1/2+x,1/2+y,1/2-z
1/2-x,1/2+y,z
1/2+x,1/2-y,1/2+z
loop_
_atom_site_type_symbol
_atom_site_label
_atom_site_fract_x
_atom_site_fract_y
_atom_site_fract_z
Si Si1 0.607928 0.048129 0.843317
Si Si2 0.448975 0.737328 0.847029
Si Si3 0.887741 0.930793 0.846510
Si Si4 0.706964 0.915775 0.158577
Si Si5 0.707787 0.569994 0.088354
O O1 0.593689 0.059189 0.750000
O O2 0.601439 0.239620 0.879879
O O3 0.659753 0.983264 0.853429
O O4 0.576010 0.904605 0.884117
O O5 0.447095 0.741179 0.750000
O O6 0.500000 0.737098 0.879519
O O7 0.425297 0.563553 0.877719
O O8 0.884562 0.926062 0.750000
O O9 0.839858 0.000683 0.879518
O O10 0.706594 0.837386 0.250000
O O11 0.706651 0.772905 0.089061
O O12 0.750772 0.029991 0.148444
O O13 0.718474 0.500000 0.000000
#
# Coordination Sequence:
#
# PCOD8259103 Si02
#       5
#    16  16  16  16  16
#     4   8  16  30  47  72 104 136 175 221 269 324
#     4   9  17  29  50  80 106 133 177 233 287 330
#     4   9  18  33  52  75 107 146 183 222 274 339
#     4  10  20  35  54  77 106 148 189 223 273 339
#     4  11  22  35  52  80 114 144 185 231 280 329
#
# _framework density 20.823893000000002
#
# number of rings (size 3 to 8) (size 9 to 14) (size 15 to 20)
#    0.000    2.600    0.000    3.600    2.800    0.800 
#    0.000    4.000    0.000    0.600    0.000    5.600 
#    0.000    0.000    0.000    0.000    0.000    0.000 
#
# Total GULP energy -495649.886538 kJ/mol
# GULP energy per Si atom -12391.247163 kJ/mol
# Density = 2.077650 g / cm^3
# Si number density = 20.823893 Si / 1000 Ang^3
#
#
#
# Elastic Constant Matrix: (Units=GPa)
#
#
# Indices 1 2 3 4 5 6 
#
# 1 192.0589 93.7103 14.9346 0.0000 0.0000 0.0000
# 2 93.7103 122.4477 8.9685 0.0000 0.0000 0.0000
# 3 14.9346 8.9685 19.9822 0.0000 0.0000 0.0000
# 4 0.0000 0.0000 0.0000 13.8561 0.0000 0.0000
# 5 0.0000 0.0000 0.0000 0.0000 6.5146 0.0000
# 6 0.0000 0.0000 0.0000 0.0000 0.0000 40.0982
#
#
#
# Elastic Compliance Matrix: (Units=1/GPa)
#
#
# Indices 1 2 3 4 5 6 
#
# 1 0.008549 -0.006281 -0.003570 0.000000 0.000000 0.000000
# 2 -0.006281 0.013059 -0.001167 0.000000 0.000000 0.000000
# 3 -0.003570 -0.001167 0.053237 0.000000 0.000000 0.000000
# 4 0.000000 0.000000 0.000000 0.072171 0.000000 0.000000
# 5 0.000000 0.000000 0.000000 0.000000 0.153501 0.000000
# 6 0.000000 0.000000 0.000000 0.000000 0.000000 0.024939
#
#
# Mechanical properties :
#
#
# Convention : Reuss Voigt Hill
#
# Bulk Modulus (GPa) = 18.93645 63.30173 41.11909
# Shear Modulus (GPa) = 13.69507 26.55213 20.12360
#
# Velocity S-wave (km/s) = 2.56727 3.57470 3.11202
# Velocity P-wave (km/s) = 4.23098 6.89221 5.71856
#
# Compressibility (1/GPa) = 0.05280820
#
# Stress axis : x y z
#
# Youngs Moduli (GPa) = 116.97098 76.57386 18.78407
#
# Poissons Ratio (x) = 0.48098 0.06707
# Poissons Ratio (y) = 0.73472 0.02192
# Poissons Ratio (z) = 0.41763 0.08935
#
# Static dielectric constant tensor:
#      x y z
#    x 3.994290 0.000000 0.000000 
#    y 0.000000 3.929930 0.000000 
#    z 0.000000 0.000000 3.154780 
# 
# 
# High freq. dielectric constant tensor:
#      x y z
#    x 1.820960 0.000000 0.000000 
#    y 0.000000 1.813780 0.000000 
#    z 0.000000 0.000000 1.761300 
# 
# From -- ./inp_files/48776.got.cif
#   From: 2010.03.12/outbox.cif.g09.slc.cpg/sg63_25_cif.got.tgz:48776.got - 2010.04.10 19:34:48.
