data_PCOD8259745
_publ_section_title
;
Structure prediction by ZEFSAII (Michael W. Deem and Ramdas Pophale) SiO2 
 PCOD8259745
Probable space group: C M C M
;
_chemical_formula_sum "Si O2"
_cell_formula_units_Z 72
_cell_length_a 14.015882
_cell_length_b 27.260341
_cell_length_c 9.256113
_cell_angle_alpha 90.000000
_cell_angle_beta 90.000000
_cell_angle_gamma 90.000000
_cell_volume 3536.554576
_symmetry_space_group_name_H-M "C M C M"
_symmetry_group_IT_number 63
_symmetry_cell_setting 'orthorhombic'
loop_
_space_group_symop_operation_xyz
x,y,z
-x,-y,1/2+z
x,-y,-z
-x,y,1/2-z
-x,-y,-z
x,y,1/2-z
-x,y,z
x,-y,1/2+z
1/2+x,1/2+y,z
1/2-x,1/2-y,1/2+z
1/2+x,1/2-y,-z
1/2-x,1/2+y,1/2-z
1/2-x,1/2-y,-z
1/2+x,1/2+y,1/2-z
1/2-x,1/2+y,z
1/2+x,1/2-y,1/2+z
loop_
_atom_site_type_symbol
_atom_site_label
_atom_site_fract_x
_atom_site_fract_y
_atom_site_fract_z
Si Si1 0.680995 0.449836 0.416023
Si Si2 0.000000 0.108796 0.585251
Si Si3 0.500000 0.717842 0.014019
Si Si4 0.000000 0.672079 0.417046
Si Si5 0.684844 0.865889 0.082618
Si Si6 0.705048 0.292968 0.909861
O O1 0.689128 0.500000 0.500000
O O2 0.659773 0.462009 0.250000
O O3 0.595144 0.416298 0.482789
O O4 0.784462 0.422752 0.428044
O O5 0.000000 0.168033 0.579212
O O6 0.000000 0.094336 0.750000
O O7 0.500000 0.768575 0.922638
O O8 0.593201 0.716673 0.113634
O O9 0.090266 0.647938 0.495938
O O10 0.000000 0.656152 0.250000
O O11 0.673896 0.849188 0.250000
O O12 0.775300 0.840289 0.006622
O O13 0.751963 0.296908 0.750000
O O14 0.750000 0.250000 0.000000
#
# Coordination Sequence:
#
# PCOD8259745 Si02
#       6
#    16   8   8   8  16  16
#     4  10  22  41  66  94 124 166 210 263 324 378
#     4  10  20  38  61  93 133 172 209 249 313 383
#     4  12  24  39  62  94 139 171 218 252 314 367
#     4  12  26  41  66  97 128 170 215 262 316 378
#     4  11  24  43  66  91 127 168 212 265 324 382
#     4  12  25  40  61  91 129 174 220 263 315 373
#
# _framework density 20.358798
#
# number of rings (size 3 to 8) (size 9 to 14) (size 15 to 20)
#    0.000    0.889    4.444    2.667    0.000    4.444 
#    0.000    0.556    0.000    0.000    0.000    0.000 
#    0.000    0.000    0.000    0.000    0.000    0.000 
#
# Total GULP energy -446089.095609 kJ/mol
# GULP energy per Si atom -12391.363767 kJ/mol
# Density = 2.031246 g / cm^3
# Si number density = 20.358798 Si / 1000 Ang^3
#
#
#
# Elastic Constant Matrix: (Units=GPa)
#
#
# Indices 1 2 3 4 5 6 
#
# 1 134.3740 61.5246 58.5568 0.0000 0.0000 0.0000
# 2 61.5246 137.9722 60.8360 0.0000 0.0000 0.0000
# 3 58.5568 60.8360 146.2596 0.0000 0.0000 0.0000
# 4 0.0000 0.0000 0.0000 28.3373 0.0000 0.0000
# 5 0.0000 0.0000 0.0000 0.0000 23.9114 0.0000
# 6 0.0000 0.0000 0.0000 0.0000 0.0000 27.4345
#
#
#
# Elastic Compliance Matrix: (Units=1/GPa)
#
#
# Indices 1 2 3 4 5 6 
#
# 1 0.010135 -0.003343 -0.002667 0.000000 0.000000 0.000000
# 2 -0.003343 0.009979 -0.002812 0.000000 0.000000 0.000000
# 3 -0.002667 -0.002812 0.009075 0.000000 0.000000 0.000000
# 4 0.000000 0.000000 0.000000 0.035289 0.000000 0.000000
# 5 0.000000 0.000000 0.000000 0.000000 0.041821 0.000000
# 6 0.000000 0.000000 0.000000 0.000000 0.000000 0.036450
#
#
# Mechanical properties :
#
#
# Convention : Reuss Voigt Hill
#
# Bulk Modulus (GPa) = 86.62992 86.71563 86.67277
# Shear Modulus (GPa) = 30.44301 31.78253 31.11277
#
# Velocity S-wave (km/s) = 3.87114 3.95539 3.91349
# Velocity P-wave (km/s) = 7.91359 7.97159 7.94264
#
# Compressibility (1/GPa) = 0.01154336
#
# Stress axis : x y z
#
# Youngs Moduli (GPa) = 98.66856 100.21415 110.19838
#
# Poissons Ratio (x) = 0.33506 0.29389
# Poissons Ratio (y) = 0.32989 0.30988
# Poissons Ratio (z) = 0.26315 0.28180
#
# Static dielectric constant tensor:
#      x y z
#    x 16.912330 0.000000 0.000000 
#    y 0.000000 3.096860 0.000000 
#    z 0.000000 0.000000 3.487460 
# 
# 
# High freq. dielectric constant tensor:
#      x y z
#    x 1.805420 0.000000 0.000000 
#    y 0.000000 1.787360 0.000000 
#    z 0.000000 0.000000 1.791350 
# 
# From -- ./inp_files/4727.got.cif
#   From: 2010.03.12/outbox.cif.g09.slc.cpg/sg63_3_cif.got.tgz:4727.got - 2010.04.10 19:34:48.
