data_PCOD8259797
_publ_section_title
;
Structure prediction by ZEFSAII (Michael W. Deem and Ramdas Pophale) SiO2 
 PCOD8259797
Probable space group: C M C M
;
_chemical_formula_sum "Si O2"
_cell_formula_units_Z 104
_cell_length_a 21.160714
_cell_length_b 26.953094
_cell_length_c 9.147029
_cell_angle_alpha 90.000000
_cell_angle_beta 90.000000
_cell_angle_gamma 90.000000
_cell_volume 5216.977929
_symmetry_space_group_name_H-M "C M C M"
_symmetry_group_IT_number 63
_symmetry_cell_setting 'orthorhombic'
loop_
_space_group_symop_operation_xyz
x,y,z
-x,-y,1/2+z
x,-y,-z
-x,y,1/2-z
-x,-y,-z
x,y,1/2-z
-x,y,z
x,-y,1/2+z
1/2+x,1/2+y,z
1/2-x,1/2-y,1/2+z
1/2+x,1/2-y,-z
1/2-x,1/2+y,1/2-z
1/2-x,1/2-y,-z
1/2+x,1/2+y,1/2-z
1/2-x,1/2+y,z
1/2+x,1/2-y,1/2+z
loop_
_atom_site_type_symbol
_atom_site_label
_atom_site_fract_x
_atom_site_fract_y
_atom_site_fract_z
Si Si1 0.000000 0.948456 0.420323
Si Si2 0.573380 0.274328 0.580233
Si Si3 0.900949 0.888293 0.585540
Si Si4 0.834890 0.612570 0.079349
Si Si5 0.574308 0.950822 0.083575
Si Si6 0.781031 0.049051 0.084340
Si Si7 0.189541 0.725034 0.422713
O O1 0.061303 0.918115 0.464627
O O2 0.000000 0.958536 0.250000
O O3 0.000000 0.000000 0.500000
O O4 0.582762 0.260450 0.750000
O O5 0.500000 0.264994 0.533894
O O6 0.592383 0.330782 0.550987
O O7 0.621630 0.242849 0.482758
O O8 0.926361 0.899303 0.750000
O O9 0.829206 0.905306 0.568605
O O10 0.850629 0.608777 0.250000
O O11 0.784652 0.571183 0.027638
O O12 0.807971 0.666697 0.042297
O O13 0.897455 0.599109 0.988439
O O14 0.597029 0.955450 0.250000
O O15 0.500000 0.944770 0.071401
O O16 0.597861 0.000000 0.000000
O O17 0.775385 0.031679 0.250000
O O18 0.802741 0.000000 0.000000
O O19 0.193482 0.736004 0.250000
O O20 0.250000 0.750000 0.500000
#
# Coordination Sequence:
#
# PCOD8259797 Si02
#       7
#     8  16  16  16  16  16  16
#     4  12  24  36  54  82 116 152 196 246 291 342
#     4  10  21  40  66  91 120 161 205 250 309 376
#     4  10  20  39  61  82 114 157 198 237 292 355
#     4  10  22  40  60  84 115 155 198 245 299 357
#     4  10  21  37  59  88 121 157 196 239 290 356
#     4  10  21  36  57  83 114 150 193 239 288 349
#     4  11  24  42  64  90 122 159 207 262 315 370
#
# _framework density 19.934912000000001
#
# number of rings (size 3 to 8) (size 9 to 14) (size 15 to 20)
#    0.000    1.692    0.769    3.462    0.000    9.846 
#    0.000    4.615    0.000    0.000    0.000    0.000 
#    0.000    0.000    0.000    0.000    0.000    0.000 
#
# Total GULP energy -644814.415331 kJ/mol
# GULP energy per Si atom -12400.277218 kJ/mol
# Density = 1.988954 g / cm^3
# Si number density = 19.934912 Si / 1000 Ang^3
#
#
#
# Elastic Constant Matrix: (Units=GPa)
#
#
# Indices 1 2 3 4 5 6 
#
# 1 97.8972 50.6544 53.4044 0.0000 0.0000 0.0000
# 2 50.6544 93.2822 59.4235 0.0000 0.0000 0.0000
# 3 53.4044 59.4235 113.6114 0.0000 0.0000 0.0000
# 4 0.0000 0.0000 0.0000 35.2678 0.0000 0.0000
# 5 0.0000 0.0000 0.0000 0.0000 34.1066 0.0000
# 6 0.0000 0.0000 0.0000 0.0000 0.0000 35.9525
#
#
#
# Elastic Compliance Matrix: (Units=1/GPa)
#
#
# Indices 1 2 3 4 5 6 
#
# 1 0.015505 -0.005664 -0.004326 0.000000 0.000000 0.000000
# 2 -0.005664 0.018146 -0.006829 0.000000 0.000000 0.000000
# 3 -0.004326 -0.006829 0.014407 0.000000 0.000000 0.000000
# 4 0.000000 0.000000 0.000000 0.028354 0.000000 0.000000
# 5 0.000000 0.000000 0.000000 0.000000 0.029320 0.000000
# 6 0.000000 0.000000 0.000000 0.000000 0.000000 0.027815
#
#
# Mechanical properties :
#
#
# Convention : Reuss Voigt Hill
#
# Bulk Modulus (GPa) = 69.34274 70.19503 69.76888
# Shear Modulus (GPa) = 29.07123 30.48594 29.77858
#
# Velocity S-wave (km/s) = 3.82292 3.91484 3.86915
# Velocity P-wave (km/s) = 7.37200 7.46479 7.41854
#
# Compressibility (1/GPa) = 0.01442112
#
# Stress axis : x y z
#
# Youngs Moduli (GPa) = 64.49380 55.10897 69.41043
#
# Poissons Ratio (x) = 0.31214 0.30027
# Poissons Ratio (y) = 0.36529 0.47398
# Poissons Ratio (z) = 0.27900 0.37632
#
# Static dielectric constant tensor:
#      x y z
#    x 3.726430 0.000000 0.000000 
#    y 0.000000 3.904310 0.000000 
#    z 0.000000 0.000000 3.627860 
# 
# 
# High freq. dielectric constant tensor:
#      x y z
#    x 1.788800 0.000000 0.000000 
#    y 0.000000 1.781010 0.000000 
#    z 0.000000 0.000000 1.774510 
# 
# From -- ./inp_files/8801.got.cif
#   From: 2010.03.12/outbox.cif.g09.slc.cpg/sg63_5_cif.got.tgz:8801.got - 2010.04.10 19:34:48.
