data_PCOD8259912
_publ_section_title
;
Structure prediction by ZEFSAII (Michael W. Deem and Ramdas Pophale) SiO2 
 PCOD8259912
Probable space group: C M C M
;
_chemical_formula_sum "Si O2"
_cell_formula_units_Z 80
_cell_length_a 7.775813
_cell_length_b 28.758421
_cell_length_c 20.051153
_cell_angle_alpha 90.000000
_cell_angle_beta 90.000000
_cell_angle_gamma 90.000000
_cell_volume 4483.840917
_symmetry_space_group_name_H-M "C M C M"
_symmetry_group_IT_number 63
_symmetry_cell_setting 'orthorhombic'
loop_
_space_group_symop_operation_xyz
x,y,z
-x,-y,1/2+z
x,-y,-z
-x,y,1/2-z
-x,-y,-z
x,y,1/2-z
-x,y,z
x,-y,1/2+z
1/2+x,1/2+y,z
1/2-x,1/2-y,1/2+z
1/2+x,1/2-y,-z
1/2-x,1/2+y,1/2-z
1/2-x,1/2-y,-z
1/2+x,1/2+y,1/2-z
1/2-x,1/2+y,z
1/2+x,1/2-y,1/2+z
loop_
_atom_site_type_symbol
_atom_site_label
_atom_site_fract_x
_atom_site_fract_y
_atom_site_fract_z
Si Si1 0.000000 0.059764 0.068025
Si Si2 0.805232 0.375877 0.945711
Si Si3 0.302496 0.801437 0.323096
Si Si4 0.000000 0.043264 0.911218
Si Si5 0.803010 0.608433 0.601932
Si Si6 0.300480 0.770678 0.570788
O O1 0.172362 0.088063 0.087783
O O2 0.000000 0.011181 0.108020
O O3 0.000000 0.049889 0.990014
O O4 0.747131 0.324449 0.923928
O O5 0.000000 0.387363 0.921734
O O6 0.795367 0.377818 0.025021
O O7 0.215983 0.793628 0.250000
O O8 0.500000 0.812284 0.312928
O O9 0.226150 0.847316 0.358372
O O10 0.287651 0.755977 0.368508
O O11 0.825291 0.065829 0.881621
O O12 0.000000 0.594978 0.621623
O O13 0.500000 0.764206 0.580332
O O14 0.250000 0.750000 0.500000
#
# Coordination Sequence:
#
# PCOD8259912 Si02
#       6
#     8  16  16   8  16  16
#     4   9  18  30  48  70 104 132 166 219 261 305
#     4   9  18  30  46  73 102 134 174 212 259 315
#     4  10  21  35  50  74 108 143 177 219 270 323
#     4   9  18  30  47  74  96 134 173 205 264 316
#     4   9  17  31  48  69 101 135 171 210 260 318
#     4  11  21  31  51  77 103 141 185 222 264 322
#
# _framework density 17.841846
#
# number of rings (size 3 to 8) (size 9 to 14) (size 15 to 20)
#    0.000    2.400    2.000    0.600    4.200    1.200 
#    0.000    4.000    0.000    0.000    0.000    2.800 
#    0.000    3.200    0.000    0.000    0.000    0.000 
#
# Total GULP energy -495803.050888 kJ/mol
# GULP energy per Si atom -12395.076272 kJ/mol
# Density = 1.780124 g / cm^3
# Si number density = 17.841846 Si / 1000 Ang^3
#
#
#
# Elastic Constant Matrix: (Units=GPa)
#
#
# Indices 1 2 3 4 5 6 
#
# 1 95.9458 73.8061 18.8960 0.0000 0.0000 0.0000
# 2 73.8061 160.2456 43.0810 0.0000 0.0000 0.0000
# 3 18.8960 43.0810 55.1470 0.0000 0.0000 0.0000
# 4 0.0000 0.0000 0.0000 12.0744 0.0000 0.0000
# 5 0.0000 0.0000 0.0000 0.0000 10.4704 0.0000
# 6 0.0000 0.0000 0.0000 0.0000 0.0000 33.8829
#
#
#
# Elastic Compliance Matrix: (Units=1/GPa)
#
#
# Indices 1 2 3 4 5 6 
#
# 1 0.016147 -0.007531 0.000351 0.000000 0.000000 0.000000
# 2 -0.007531 0.011412 -0.006335 0.000000 0.000000 0.000000
# 3 0.000351 -0.006335 0.022962 0.000000 0.000000 0.000000
# 4 0.000000 0.000000 0.000000 0.082820 0.000000 0.000000
# 5 0.000000 0.000000 0.000000 0.000000 0.095507 0.000000
# 6 0.000000 0.000000 0.000000 0.000000 0.000000 0.029513
#
#
# Mechanical properties :
#
#
# Convention : Reuss Voigt Hill
#
# Bulk Modulus (GPa) = 42.57030 64.76716 53.66873
# Shear Modulus (GPa) = 17.05193 22.98923 20.02058
#
# Velocity S-wave (km/s) = 3.09484 3.59346 3.35343
# Velocity P-wave (km/s) = 6.05659 7.32098 6.71860
#
# Compressibility (1/GPa) = 0.02349056
#
# Stress axis : x y z
#
# Youngs Moduli (GPa) = 61.93152 87.62544 43.55050
#
# Poissons Ratio (x) = 0.65993 -0.01528
# Poissons Ratio (y) = 0.46642 0.27588
# Poissons Ratio (z) = -0.02172 0.55508
#
# Static dielectric constant tensor:
#      x y z
#    x 3.522650 0.000000 0.000000 
#    y 0.000000 3.469250 0.000000 
#    z 0.000000 0.000000 3.157440 
# 
# 
# High freq. dielectric constant tensor:
#      x y z
#    x 1.701120 0.000000 0.000000 
#    y 0.000000 1.688230 0.000000 
#    z 0.000000 0.000000 1.641100 
# 
# From -- ./inp_files/51217.got.cif
#   From: 2010.03.12/outbox.cif.g09.slc.cpg/sg63_26_cif.got.tgz:51217.got - 2010.04.10 19:34:48.
