data_PCOD8259600
_publ_section_title
;
Structure prediction by ZEFSAII (Michael W. Deem and Ramdas Pophale) SiO2 
 PCOD8259600
Probable space group: C M C M
;
_chemical_formula_sum "Si O2"
_cell_formula_units_Z 88
_cell_length_a 18.948995
_cell_length_b 19.083272
_cell_length_c 13.084239
_cell_angle_alpha 90.000000
_cell_angle_beta 90.000000
_cell_angle_gamma 90.000000
_cell_volume 4731.376300
_symmetry_space_group_name_H-M "C M C M"
_symmetry_group_IT_number 63
_symmetry_cell_setting 'orthorhombic'
loop_
_space_group_symop_operation_xyz
x,y,z
-x,-y,1/2+z
x,-y,-z
-x,y,1/2-z
-x,-y,-z
x,y,1/2-z
-x,y,z
x,-y,1/2+z
1/2+x,1/2+y,z
1/2-x,1/2-y,1/2+z
1/2+x,1/2-y,-z
1/2-x,1/2+y,1/2-z
1/2-x,1/2-y,-z
1/2+x,1/2+y,1/2-z
1/2-x,1/2+y,z
1/2+x,1/2-y,1/2+z
loop_
_atom_site_type_symbol
_atom_site_label
_atom_site_fract_x
_atom_site_fract_y
_atom_site_fract_z
Si Si1 0.802191 0.250640 0.368746
Si Si2 0.421226 0.707469 0.983246
Si Si3 0.918980 0.932393 0.132265
Si Si4 0.687853 0.500000 0.000000
Si Si5 0.782874 0.635264 0.027955
Si Si6 0.920812 0.347204 0.631108
O O1 0.813954 0.263982 0.250000
O O2 0.874494 0.224521 0.418936
O O3 0.779814 0.324889 0.418925
O O4 0.743652 0.190712 0.386607
O O5 0.500000 0.702140 0.026048
O O6 0.397104 0.635027 0.933405
O O7 0.414946 0.764920 0.894124
O O8 0.907500 0.914791 0.250000
O O9 0.000000 0.955625 0.111863
O O10 0.864071 0.992292 0.097889
O O11 0.736563 0.566255 0.021804
O O12 0.862313 0.612655 0.062151
O O13 0.905142 0.359242 0.750000
O O14 0.000000 0.374510 0.603630
#
# Coordination Sequence:
#
# PCOD8259600 Si02
#       6
#    16  16  16   8  16  16
#     4  10  20  37  57  81 111 149 190 236 288 337
#     4   9  17  33  56  85 114 144 186 230 277 336
#     4  10  21  37  57  81 116 160 198 231 271 333
#     4  12  23  40  55  82 118 154 196 232 287 342
#     4  10  22  37  55  82 111 147 188 239 284 342
#     4   9  17  32  57  83 106 136 181 238 290 335
#
# _framework density 18.599240000000002
#
# number of rings (size 3 to 8) (size 9 to 14) (size 15 to 20)
#    0.000    2.182    1.818    1.364    0.000    4.727 
#    0.000    0.455    0.000    0.000    0.000    0.000 
#    0.000    0.000    0.000    0.000    0.000    0.000 
#
# Total GULP energy -545489.913101 kJ/mol
# GULP energy per Si atom -12397.498025 kJ/mol
# Density = 1.855691 g / cm^3
# Si number density = 18.599240 Si / 1000 Ang^3
#
#
#
# Elastic Constant Matrix: (Units=GPa)
#
#
# Indices 1 2 3 4 5 6 
#
# 1 126.3774 63.0423 50.9097 0.0000 0.0000 0.0000
# 2 63.0423 90.1590 48.6565 0.0000 0.0000 0.0000
# 3 50.9097 48.6565 116.2887 0.0000 0.0000 0.0000
# 4 0.0000 0.0000 0.0000 14.2879 0.0000 0.0000
# 5 0.0000 0.0000 0.0000 0.0000 26.4007 0.0000
# 6 0.0000 0.0000 0.0000 0.0000 0.0000 32.4296
#
#
#
# Elastic Compliance Matrix: (Units=1/GPa)
#
#
# Indices 1 2 3 4 5 6 
#
# 1 0.012638 -0.007557 -0.002371 0.000000 0.000000 0.000000
# 2 -0.007557 0.018846 -0.004577 0.000000 0.000000 0.000000
# 3 -0.002371 -0.004577 0.011552 0.000000 0.000000 0.000000
# 4 0.000000 0.000000 0.000000 0.069989 0.000000 0.000000
# 5 0.000000 0.000000 0.000000 0.000000 0.037878 0.000000
# 6 0.000000 0.000000 0.000000 0.000000 0.000000 0.030836
#
#
# Mechanical properties :
#
#
# Convention : Reuss Voigt Hill
#
# Bulk Modulus (GPa) = 71.29515 73.11579 72.20547
# Shear Modulus (GPa) = 23.21008 25.97142 24.59075
#
# Velocity S-wave (km/s) = 3.53640 3.74086 3.64007
# Velocity P-wave (km/s) = 7.42229 7.61940 7.52149
#
# Compressibility (1/GPa) = 0.01402620
#
# Stress axis : x y z
#
# Youngs Moduli (GPa) = 79.12839 53.06188 86.56463
#
# Poissons Ratio (x) = 0.40101 0.20520
# Poissons Ratio (y) = 0.59801 0.39619
# Poissons Ratio (z) = 0.18757 0.24285
#
# Static dielectric constant tensor:
#      x y z
#    x 3.914080 0.000000 0.000000 
#    y 0.000000 3.173800 0.000000 
#    z 0.000000 0.000000 3.193400 
# 
# 
# High freq. dielectric constant tensor:
#      x y z
#    x 1.746670 0.000000 0.000000 
#    y 0.000000 1.692560 0.000000 
#    z 0.000000 0.000000 1.706910 
# 
# From -- ./inp_files/22576.got.cif
#   From: 2010.03.12/outbox.cif.g09.slc.cpg/sg63_12_cif.got.tgz:22576.got - 2010.04.10 19:34:48.
