data_PCOD8259343
_publ_section_title
;
Structure prediction by ZEFSAII (Michael W. Deem and Ramdas Pophale) SiO2 
 PCOD8259343
Probable space group: C M C M
;
_chemical_formula_sum "Si O2"
_cell_formula_units_Z 64
_cell_length_a 7.602012
_cell_length_b 21.546403
_cell_length_c 20.625359
_cell_angle_alpha 90.000000
_cell_angle_beta 90.000000
_cell_angle_gamma 90.000000
_cell_volume 3378.351595
_symmetry_space_group_name_H-M "C M C M"
_symmetry_group_IT_number 63
_symmetry_cell_setting 'orthorhombic'
loop_
_space_group_symop_operation_xyz
x,y,z
-x,-y,1/2+z
x,-y,-z
-x,y,1/2-z
-x,-y,-z
x,y,1/2-z
-x,y,z
x,-y,1/2+z
1/2+x,1/2+y,z
1/2-x,1/2-y,1/2+z
1/2+x,1/2-y,-z
1/2-x,1/2+y,1/2-z
1/2-x,1/2-y,-z
1/2+x,1/2+y,1/2-z
1/2-x,1/2+y,z
1/2+x,1/2-y,1/2+z
loop_
_atom_site_type_symbol
_atom_site_label
_atom_site_fract_x
_atom_site_fract_y
_atom_site_fract_z
Si Si1 0.294417 0.222486 0.676988
Si Si2 0.205523 0.199371 0.053949
Si Si3 0.000000 0.527693 0.598099
Si Si4 0.696558 0.587161 0.824235
Si Si5 0.000000 0.599550 0.035324
O O1 0.235174 0.242562 0.750000
O O2 0.500000 0.208557 0.674977
O O3 0.243884 0.275422 0.625533
O O4 0.201859 0.159108 0.654195
O O5 0.322610 0.139145 0.041890
O O6 0.000000 0.181228 0.050318
O O7 0.250000 0.250000 0.000000
O O8 0.176311 0.543315 0.636099
O O9 0.000000 0.453888 0.589115
O O10 0.000000 0.567631 0.533718
O O11 0.756123 0.583470 0.750000
O O12 0.500000 0.561859 0.835026
#
# Coordination Sequence:
#
# PCOD8259343 Si02
#       5
#    16  16   8  16   8
#     4   9  18  34  57  86 118 149 188 242 298 348
#     4  11  22  38  60  86 119 152 192 247 300 355
#     4  11  23  42  58  80 123 157 198 248 280 348
#     4  10  20  35  62  92 114 150 198 243 294 343
#     4  11  26  40  58  86 114 163 204 230 300 358
#
# _framework density 18.94415
#
# number of rings (size 3 to 8) (size 9 to 14) (size 15 to 20)
#    0.000    1.750    2.500    1.875    1.750    4.000 
#    0.000    5.000    0.000    3.000    0.000    0.000 
#    0.000    0.000    0.000    0.000    0.000    0.000 
#
# Total GULP energy -396834.512128 kJ/mol
# GULP energy per Si atom -12401.078504 kJ/mol
# Density = 1.890103 g / cm^3
# Si number density = 18.944150 Si / 1000 Ang^3
#
#
#
# Elastic Constant Matrix: (Units=GPa)
#
#
# Indices 1 2 3 4 5 6 
#
# 1 108.4945 64.3417 38.7264 0.0000 0.0000 0.0000
# 2 64.3417 128.7427 56.8310 0.0000 0.0000 0.0000
# 3 38.7264 56.8310 79.2466 0.0000 0.0000 0.0000
# 4 0.0000 0.0000 0.0000 32.1817 0.0000 0.0000
# 5 0.0000 0.0000 0.0000 0.0000 38.4219 0.0000
# 6 0.0000 0.0000 0.0000 0.0000 0.0000 -13.1499
#
#
#
# Elastic Compliance Matrix: (Units=1/GPa)
#
#
# Indices 1 2 3 4 5 6 
#
# 1 0.013446 -0.005589 -0.002563 0.000000 0.000000 0.000000
# 2 -0.005589 0.013688 -0.007085 0.000000 0.000000 0.000000
# 3 -0.002563 -0.007085 0.018953 0.000000 0.000000 0.000000
# 4 0.000000 0.000000 0.000000 0.031074 0.000000 0.000000
# 5 0.000000 0.000000 0.000000 0.000000 0.026027 0.000000
# 6 0.000000 0.000000 0.000000 0.000000 0.000000 -0.076046
#
#
# Mechanical properties :
#
#
# Convention : Reuss Voigt Hill
#
# Bulk Modulus (GPa) = 64.04954 70.69799 67.37376
# Shear Modulus (GPa) = 79.59394 21.92974 50.76184
#
# Velocity S-wave (km/s) = 6.48893 3.40604 5.18205
# Velocity P-wave (km/s) = 9.48814 7.27106 8.45261
#
# Compressibility (1/GPa) = 0.01561292
#
# Stress axis : x y z
#
# Youngs Moduli (GPa) = 74.37044 73.05631 52.76342
#
# Poissons Ratio (x) = 0.40828 0.13524
# Poissons Ratio (y) = 0.41562 0.37384
# Poissons Ratio (z) = 0.19062 0.51762
#
# Static dielectric constant tensor:
#      x y z
#    x 3.718070 0.000000 0.000000 
#    y 0.000000 3.307990 0.000000 
#    z 0.000000 0.000000 3.824990 
# 
# 
# High freq. dielectric constant tensor:
#      x y z
#    x 1.750550 0.000000 0.000000 
#    y 0.000000 1.708290 0.000000 
#    z 0.000000 0.000000 1.748160 
# 
# From -- ./inp_files/50625.got.cif
#   From: 2010.03.12/outbox.cif.g09.slc.cpg/sg63_26_cif.got.tgz:50625.got - 2010.04.10 19:34:48.
