data_PCOD8259202
_publ_section_title
;
Structure prediction by ZEFSAII (Michael W. Deem and Ramdas Pophale) SiO2 
 PCOD8259202
Probable space group: C M C M
;
_chemical_formula_sum "Si O2"
_cell_formula_units_Z 64
_cell_length_a 8.856080
_cell_length_b 15.465044
_cell_length_c 26.267954
_cell_angle_alpha 90.000000
_cell_angle_beta 90.000000
_cell_angle_gamma 90.000000
_cell_volume 3597.650229
_symmetry_space_group_name_H-M "C M C M"
_symmetry_group_IT_number 63
_symmetry_cell_setting 'orthorhombic'
loop_
_space_group_symop_operation_xyz
x,y,z
-x,-y,1/2+z
x,-y,-z
-x,y,1/2-z
-x,-y,-z
x,y,1/2-z
-x,y,z
x,-y,1/2+z
1/2+x,1/2+y,z
1/2-x,1/2-y,1/2+z
1/2+x,1/2-y,-z
1/2-x,1/2+y,1/2-z
1/2-x,1/2-y,-z
1/2+x,1/2+y,1/2-z
1/2-x,1/2+y,z
1/2+x,1/2-y,1/2+z
loop_
_atom_site_type_symbol
_atom_site_label
_atom_site_fract_x
_atom_site_fract_y
_atom_site_fract_z
Si Si1 0.329199 0.397071 0.853535
Si Si2 0.671113 0.490329 0.056284
Si Si3 0.177966 0.432199 0.149905
Si Si4 0.326646 0.264924 0.191560
O O1 0.500000 0.385262 0.833172
O O2 0.328084 0.416591 0.914545
O O3 0.252947 0.480744 0.826014
O O4 0.234074 0.311577 0.843697
O O5 0.500000 0.454426 0.052037
O O6 0.769184 0.423155 0.090482
O O7 0.742461 0.500000 0.000000
O O8 0.231266 0.350782 0.182119
O O9 0.000000 0.440310 0.153204
O O10 0.307293 0.236947 0.250000
O O11 0.500000 0.283149 0.177591
#
# Coordination Sequence:
#
# PCOD8259202 Si02
#       4
#    16  16  16  16
#     4   9  19  36  57  81 110 142 179 223 271 321
#     4   8  16  34  58  81 109 144 179 220 270 320
#     4  10  20  35  56  82 112 143 181 223 268 322
#     4  11  23  38  56  79 108 144 185 227 271 320
#
# _framework density 17.789389
#
# number of rings (size 3 to 8) (size 9 to 14) (size 15 to 20)
#    1.500    1.000    0.000    3.000    0.000    3.500 
#    0.000    1.250    0.000    0.000    0.000    0.000 
#    0.000    0.000    0.000    0.000    0.000    0.000 
#
# Total GULP energy -396499.913607 kJ/mol
# GULP energy per Si atom -12390.622300 kJ/mol
# Density = 1.774890 g / cm^3
# Si number density = 17.789389 Si / 1000 Ang^3
#
#
#
# Elastic Constant Matrix: (Units=GPa)
#
#
# Indices 1 2 3 4 5 6 
#
# 1 107.2102 29.3827 30.3350 0.0000 0.0000 0.0000
# 2 29.3827 82.1421 8.1036 0.0000 0.0000 0.0000
# 3 30.3350 8.1036 53.3146 0.0000 0.0000 0.0000
# 4 0.0000 0.0000 0.0000 23.7642 0.0000 0.0000
# 5 0.0000 0.0000 0.0000 0.0000 17.0681 0.0000
# 6 0.0000 0.0000 0.0000 0.0000 0.0000 35.5174
#
#
#
# Elastic Compliance Matrix: (Units=1/GPa)
#
#
# Indices 1 2 3 4 5 6 
#
# 1 0.012141 -0.003717 -0.006343 0.000000 0.000000 0.000000
# 2 -0.003717 0.013497 0.000063 0.000000 0.000000 0.000000
# 3 -0.006343 0.000063 0.022356 0.000000 0.000000 0.000000
# 4 0.000000 0.000000 0.000000 0.042080 0.000000 0.000000
# 5 0.000000 0.000000 0.000000 0.000000 0.058589 0.000000
# 6 0.000000 0.000000 0.000000 0.000000 0.000000 0.028155
#
#
# Mechanical properties :
#
#
# Convention : Reuss Voigt Hill
#
# Bulk Modulus (GPa) = 35.71305 42.03440 38.87373
# Shear Modulus (GPa) = 24.25471 26.92631 25.59051
#
# Velocity S-wave (km/s) = 3.69648 3.89474 3.79691
# Velocity P-wave (km/s) = 6.19174 6.62613 6.41262
#
# Compressibility (1/GPa) = 0.02800097
#
# Stress axis : x y z
#
# Youngs Moduli (GPa) = 82.36586 74.08824 44.73076
#
# Poissons Ratio (x) = 0.27540 0.28373
# Poissons Ratio (y) = 0.30617 -0.00284
# Poissons Ratio (z) = 0.52245 -0.00470
#
# Static dielectric constant tensor:
#      x y z
#    x 3.303710 0.000000 0.000000 
#    y 0.000000 3.020950 0.000000 
#    z 0.000000 0.000000 3.196310 
# 
# 
# High freq. dielectric constant tensor:
#      x y z
#    x 1.700120 0.000000 0.000000 
#    y 0.000000 1.667870 0.000000 
#    z 0.000000 0.000000 1.670180 
# 
# From -- ./inp_files/59052.got.cif
#   From: 2010.03.12/outbox.cif.g09.slc.cpg/sg63_30_cif.got.tgz:59052.got - 2010.04.10 19:34:48.
