data_PCOD8259453
_publ_section_title
;
Structure prediction by ZEFSAII (Michael W. Deem and Ramdas Pophale) SiO2 
 PCOD8259453
Probable space group: C M C M
;
_chemical_formula_sum "Si O2"
_cell_formula_units_Z 112
_cell_length_a 13.922741
_cell_length_b 27.230079
_cell_length_c 14.822337
_cell_angle_alpha 90.000000
_cell_angle_beta 90.000000
_cell_angle_gamma 90.000000
_cell_volume 5619.404936
_symmetry_space_group_name_H-M "C M C M"
_symmetry_group_IT_number 63
_symmetry_cell_setting 'orthorhombic'
loop_
_space_group_symop_operation_xyz
x,y,z
-x,-y,1/2+z
x,-y,-z
-x,y,1/2-z
-x,-y,-z
x,y,1/2-z
-x,y,z
x,-y,1/2+z
1/2+x,1/2+y,z
1/2-x,1/2-y,1/2+z
1/2+x,1/2-y,-z
1/2-x,1/2+y,1/2-z
1/2-x,1/2-y,-z
1/2+x,1/2+y,1/2-z
1/2-x,1/2+y,z
1/2+x,1/2-y,1/2+z
loop_
_atom_site_type_symbol
_atom_site_label
_atom_site_fract_x
_atom_site_fract_y
_atom_site_fract_z
Si Si1 0.109912 0.739855 0.648656
Si Si2 0.107358 0.157487 0.438529
Si Si3 0.802429 0.485537 0.598964
Si Si4 0.106799 0.947265 0.643944
Si Si5 0.112582 0.380605 0.647088
Si Si6 0.201370 0.339196 0.474929
Si Si7 0.890426 0.581591 0.650835
O O1 0.147807 0.729554 0.750000
O O2 0.120189 0.797379 0.629780
O O3 0.170110 0.710301 0.574611
O O4 0.000000 0.722249 0.640215
O O5 0.128391 0.108844 0.381578
O O6 0.182842 0.160979 0.520645
O O7 0.000000 0.157241 0.480352
O O8 0.838418 0.500000 0.500000
O O9 0.686182 0.482885 0.600220
O O10 0.845605 0.434566 0.631955
O O11 0.841968 0.528415 0.662635
O O12 0.115491 0.951943 0.750000
O O13 0.000000 0.963161 0.611115
O O14 0.134637 0.363860 0.750000
O O15 0.160000 0.341902 0.577215
O O16 0.000000 0.381928 0.628211
O O17 0.168515 0.386803 0.420397
O O18 0.887144 0.606640 0.750000
O O19 0.000000 0.576941 0.617057
#
# Coordination Sequence:
#
# PCOD8259453 Si02
#       7
#    16  16  16  16  16  16  16
#     4  10  21  38  63  93 122 153 194 245 295 350
#     4  10  21  38  60  87 116 152 200 246 297 347
#     4  12  22  36  56  83 115 157 199 244 295 351
#     4  10  20  36  58  82 111 149 197 252 299 344
#     4  11  23  37  55  81 117 157 196 240 290 347
#     4  12  22  38  60  88 121 156 197 243 295 350
#     4  11  23  38  59  86 120 161 202 244 291 353
#
# _framework density 19.930935000000002
#
# number of rings (size 3 to 8) (size 9 to 14) (size 15 to 20)
#    0.000    1.143    2.857    4.286    0.000    5.429 
#    0.000    0.714    0.000    2.571    0.000    2.000 
#    0.000    0.000    0.000    0.000    0.000    0.000 
#
# Total GULP energy -694460.473831 kJ/mol
# GULP energy per Si atom -12401.079890 kJ/mol
# Density = 1.988557 g / cm^3
# Si number density = 19.930935 Si / 1000 Ang^3
#
#
#
# Elastic Constant Matrix: (Units=GPa)
#
#
# Indices 1 2 3 4 5 6 
#
# 1 131.5392 40.2331 54.0476 0.0000 0.0000 0.0000
# 2 40.2331 58.3131 26.3668 0.0000 0.0000 0.0000
# 3 54.0476 26.3668 112.5314 0.0000 0.0000 0.0000
# 4 0.0000 0.0000 0.0000 23.6249 0.0000 0.0000
# 5 0.0000 0.0000 0.0000 0.0000 29.3305 0.0000
# 6 0.0000 0.0000 0.0000 0.0000 0.0000 15.6951
#
#
#
# Elastic Compliance Matrix: (Units=1/GPa)
#
#
# Indices 1 2 3 4 5 6 
#
# 1 0.010989 -0.005811 -0.003916 0.000000 0.000000 0.000000
# 2 -0.005811 0.022254 -0.002423 0.000000 0.000000 0.000000
# 3 -0.003916 -0.002423 0.011335 0.000000 0.000000 0.000000
# 4 0.000000 0.000000 0.000000 0.042328 0.000000 0.000000
# 5 0.000000 0.000000 0.000000 0.000000 0.034094 0.000000
# 6 0.000000 0.000000 0.000000 0.000000 0.000000 0.063714
#
#
# Mechanical properties :
#
#
# Convention : Reuss Voigt Hill
#
# Bulk Modulus (GPa) = 49.31752 60.40874 54.86313
# Shear Modulus (GPa) = 23.17239 25.84585 24.50912
#
# Velocity S-wave (km/s) = 3.41344 3.60498 3.51052
# Velocity P-wave (km/s) = 6.35086 6.90671 6.63461
#
# Compressibility (1/GPa) = 0.02027677
#
# Stress axis : x y z
#
# Youngs Moduli (GPa) = 91.00177 44.93619 88.22129
#
# Poissons Ratio (x) = 0.26112 0.34550
# Poissons Ratio (y) = 0.52881 0.21378
# Poissons Ratio (z) = 0.35639 0.10889
#
# Static dielectric constant tensor:
#      x y z
#    x 3.945760 0.000000 0.000000 
#    y 0.000000 3.514220 0.000000 
#    z 0.000000 0.000000 3.639950 
# 
# 
# High freq. dielectric constant tensor:
#      x y z
#    x 1.786680 0.000000 0.000000 
#    y 0.000000 1.767690 0.000000 
#    z 0.000000 0.000000 1.775730 
# 
# From -- ./inp_files/32559.got.cif
#   From: 2010.03.12/outbox.cif.g09.slc.cpg/sg63_17_cif.got.tgz:32559.got - 2010.04.10 19:34:48.
