data_PCOD8259423
_publ_section_title
;
Structure prediction by ZEFSAII (Michael W. Deem and Ramdas Pophale) SiO2 
 PCOD8259423
Probable space group: C M C M
;
_chemical_formula_sum "Si O2"
_cell_formula_units_Z 120
_cell_length_a 26.894303
_cell_length_b 28.033947
_cell_length_c 8.791252
_cell_angle_alpha 90.000000
_cell_angle_beta 90.000000
_cell_angle_gamma 90.000000
_cell_volume 6628.194906
_symmetry_space_group_name_H-M "C M C M"
_symmetry_group_IT_number 63
_symmetry_cell_setting 'orthorhombic'
loop_
_space_group_symop_operation_xyz
x,y,z
-x,-y,1/2+z
x,-y,-z
-x,y,1/2-z
-x,-y,-z
x,y,1/2-z
-x,y,z
x,-y,1/2+z
1/2+x,1/2+y,z
1/2-x,1/2-y,1/2+z
1/2+x,1/2-y,-z
1/2-x,1/2+y,1/2-z
1/2-x,1/2-y,-z
1/2+x,1/2+y,1/2-z
1/2-x,1/2+y,z
1/2+x,1/2-y,1/2+z
loop_
_atom_site_type_symbol
_atom_site_label
_atom_site_fract_x
_atom_site_fract_y
_atom_site_fract_z
Si Si1 0.355112 0.695145 0.928284
Si Si2 0.443446 0.643370 0.427135
Si Si3 0.610923 0.451120 0.574968
Si Si4 0.799854 0.110727 0.074297
Si Si5 0.500000 0.949579 0.425884
Si Si6 0.798337 0.274912 0.069956
Si Si7 0.811047 0.377893 0.926420
Si Si8 0.891588 0.447348 0.070023
O O1 0.351410 0.704755 0.750000
O O2 0.410127 0.678046 0.971539
O O3 0.312872 0.657017 0.974752
O O4 0.345809 0.743954 0.019279
O O5 0.433292 0.653772 0.250000
O O6 0.500000 0.652887 0.472809
O O7 0.430037 0.588678 0.465146
O O8 0.594710 0.500000 0.500000
O O9 0.612751 0.462609 0.750000
O O10 0.665468 0.433114 0.519871
O O11 0.812223 0.123592 0.250000
O O12 0.742488 0.096380 0.053395
O O13 0.500000 0.959737 0.250000
O O14 0.553048 0.925052 0.469052
O O15 0.500000 0.000000 0.500000
O O16 0.792609 0.276326 0.250000
O O17 0.750000 0.250000 0.000000
O O18 0.808213 0.327566 0.009230
O O19 0.823698 0.369872 0.750000
O O20 0.852121 0.411366 0.000226
O O21 0.882980 0.451023 0.250000
O O22 0.884875 0.500000 0.000000
#
# Coordination Sequence:
#
# PCOD8259423 Si02
#       8
#    16  16  16  16   8  16  16  16
#     4  11  21  34  56  83 109 139 179 227 277 333
#     4   9  19  37  58  77 103 143 188 233 284 339
#     4   9  18  32  49  73 103 141 183 226 276 329
#     4   9  19  35  52  71 104 145 182 221 270 333
#     4   8  16  32  56  80 104 140 184 226 270 322
#     4  12  23  37  58  85 114 147 184 226 272 328
#     4  11  22  36  56  84 115 148 186 231 277 327
#     4  10  20  36  57  83 114 149 189 232 277 332
#
# _framework density 18.104475999999998
#
# number of rings (size 3 to 8) (size 9 to 14) (size 15 to 20)
#    0.000    2.000    1.333    4.000    0.000    4.267 
#    0.000    1.333    1.467    0.000    0.000    0.000 
#    0.000    0.000    0.000    0.000    0.000    0.000 
#
# Total GULP energy -743750.988345 kJ/mol
# GULP energy per Si atom -12395.849806 kJ/mol
# Density = 1.806327 g / cm^3
# Si number density = 18.104476 Si / 1000 Ang^3
#
#
#
# Elastic Constant Matrix: (Units=GPa)
#
#
# Indices 1 2 3 4 5 6 
#
# 1 128.2846 42.1237 50.2613 0.0000 0.0000 0.0000
# 2 42.1237 83.2466 43.8548 0.0000 0.0000 0.0000
# 3 50.2613 43.8548 102.8786 0.0000 0.0000 0.0000
# 4 0.0000 0.0000 0.0000 33.0347 0.0000 0.0000
# 5 0.0000 0.0000 0.0000 0.0000 27.6120 0.0000
# 6 0.0000 0.0000 0.0000 0.0000 0.0000 58.5256
#
#
#
# Elastic Compliance Matrix: (Units=1/GPa)
#
#
# Indices 1 2 3 4 5 6 
#
# 1 0.010299 -0.003302 -0.003624 0.000000 0.000000 0.000000
# 2 -0.003302 0.016550 -0.005442 0.000000 0.000000 0.000000
# 3 -0.003624 -0.005442 0.013810 0.000000 0.000000 0.000000
# 4 0.000000 0.000000 0.000000 0.030271 0.000000 0.000000
# 5 0.000000 0.000000 0.000000 0.000000 0.036216 0.000000
# 6 0.000000 0.000000 0.000000 0.000000 0.000000 0.017087
#
#
# Mechanical properties :
#
#
# Convention : Reuss Voigt Hill
#
# Bulk Modulus (GPa) = 62.79875 65.20993 64.00434
# Shear Modulus (GPa) = 32.40902 35.71246 34.06074
#
# Velocity S-wave (km/s) = 4.23556 4.44619 4.34215
# Velocity P-wave (km/s) = 7.66043 7.90285 7.78258
#
# Compressibility (1/GPa) = 0.01592388
#
# Stress axis : x y z
#
# Youngs Moduli (GPa) = 97.09262 60.42207 72.40957
#
# Poissons Ratio (x) = 0.19954 0.26241
# Poissons Ratio (y) = 0.32065 0.39402
# Poissons Ratio (z) = 0.35187 0.32879
#
# Static dielectric constant tensor:
#      x y z
#    x 3.704350 0.000000 0.000000 
#    y 0.000000 3.327050 0.000000 
#    z 0.000000 0.000000 3.393810 
# 
# 
# High freq. dielectric constant tensor:
#      x y z
#    x 1.707340 0.000000 0.000000 
#    y 0.000000 1.682030 0.000000 
#    z 0.000000 0.000000 1.708070 
# 
# From -- ./inp_files/13165.got.cif
#   From: 2010.03.12/outbox.cif.g09.slc.cpg/sg63_7_cif.got.tgz:13165.got - 2010.04.10 19:34:48.
