data_PCOD8259646
_publ_section_title
;
Structure prediction by ZEFSAII (Michael W. Deem and Ramdas Pophale) SiO2 
 PCOD8259646
Probable space group: C M C M
;
_chemical_formula_sum "Si O2"
_cell_formula_units_Z 104
_cell_length_a 21.344414
_cell_length_b 26.948454
_cell_length_c 8.973287
_cell_angle_alpha 90.000000
_cell_angle_beta 90.000000
_cell_angle_gamma 90.000000
_cell_volume 5161.425340
_symmetry_space_group_name_H-M "C M C M"
_symmetry_group_IT_number 63
_symmetry_cell_setting 'orthorhombic'
loop_
_space_group_symop_operation_xyz
x,y,z
-x,-y,1/2+z
x,-y,-z
-x,y,1/2-z
-x,-y,-z
x,y,1/2-z
-x,y,z
x,-y,1/2+z
1/2+x,1/2+y,z
1/2-x,1/2-y,1/2+z
1/2+x,1/2-y,-z
1/2-x,1/2+y,1/2-z
1/2-x,1/2-y,-z
1/2+x,1/2+y,1/2-z
1/2-x,1/2+y,z
1/2+x,1/2-y,1/2+z
loop_
_atom_site_type_symbol
_atom_site_label
_atom_site_fract_x
_atom_site_fract_y
_atom_site_fract_z
Si Si1 0.000000 0.948086 0.422636
Si Si2 0.429725 0.275479 0.574424
Si Si3 0.899334 0.886581 0.580747
Si Si4 0.825984 0.608048 0.925786
Si Si5 0.573005 0.948941 0.922113
Si Si6 0.780516 0.049651 0.078611
Si Si7 0.192856 0.720597 0.573965
O O1 0.938589 0.918610 0.466789
O O2 0.000000 0.958160 0.250000
O O3 0.000000 0.000000 0.500000
O O4 0.434855 0.269842 0.750000
O O5 0.500000 0.265180 0.506808
O O6 0.405829 0.330000 0.529883
O O7 0.375528 0.238752 0.513706
O O8 0.924207 0.893514 0.750000
O O9 0.828383 0.904644 0.566377
O O10 0.830492 0.601840 0.750000
O O11 0.801979 0.662854 0.968700
O O12 0.893661 0.597650 0.998029
O O13 0.781343 0.566202 0.993363
O O14 0.592558 0.951863 0.750000
O O15 0.500000 0.939169 0.942844
O O16 0.593759 0.000000 0.000000
O O17 0.765309 0.037504 0.250000
O O18 0.807362 0.000000 0.000000
O O19 0.197390 0.729757 0.750000
O O20 0.250000 0.750000 0.500000
#
# Coordination Sequence:
#
# PCOD8259646 Si02
#       7
#     8  16  16  16  16  16  16
#     4  12  24  36  54  80 114 150 188 234 283 338
#     4   9  17  34  62  88 113 148 194 240 284 345
#     4  10  20  37  60  84 111 148 192 237 286 339
#     4  11  23  38  58  86 121 156 194 243 296 354
#     4  10  21  38  61  88 119 156 196 240 293 354
#     4  11  23  38  59  85 116 155 198 243 293 350
#     4  10  22  39  61  89 117 154 197 245 301 352
#
# _framework density 20.149471999999999
#
# number of rings (size 3 to 8) (size 9 to 14) (size 15 to 20)
#    0.000    1.692    0.769    3.923    0.000    6.462 
#    0.000    2.308    0.000    0.000    0.000    0.000 
#    0.000    0.000    0.000    0.000    0.000    0.000 
#
# Total GULP energy -644828.593844 kJ/mol
# GULP energy per Si atom -12400.549882 kJ/mol
# Density = 2.010361 g / cm^3
# Si number density = 20.149472 Si / 1000 Ang^3
#
#
#
# Elastic Constant Matrix: (Units=GPa)
#
#
# Indices 1 2 3 4 5 6 
#
# 1 113.6581 45.2260 40.1785 0.0000 0.0000 0.0000
# 2 45.2260 87.4261 45.7170 0.0000 0.0000 0.0000
# 3 40.1785 45.7170 106.1851 0.0000 0.0000 0.0000
# 4 0.0000 0.0000 0.0000 27.0843 0.0000 0.0000
# 5 0.0000 0.0000 0.0000 0.0000 32.7075 0.0000
# 6 0.0000 0.0000 0.0000 0.0000 0.0000 39.6751
#
#
#
# Elastic Compliance Matrix: (Units=1/GPa)
#
#
# Indices 1 2 3 4 5 6 
#
# 1 0.011502 -0.004742 -0.002311 0.000000 0.000000 0.000000
# 2 -0.004742 0.016716 -0.005403 0.000000 0.000000 0.000000
# 3 -0.002311 -0.005403 0.012618 0.000000 0.000000 0.000000
# 4 0.000000 0.000000 0.000000 0.036922 0.000000 0.000000
# 5 0.000000 0.000000 0.000000 0.000000 0.030574 0.000000
# 6 0.000000 0.000000 0.000000 0.000000 0.000000 0.025205
#
#
# Mechanical properties :
#
#
# Convention : Reuss Voigt Hill
#
# Bulk Modulus (GPa) = 62.79109 63.27914 63.03511
# Shear Modulus (GPa) = 30.53322 31.63656 31.08489
#
# Velocity S-wave (km/s) = 3.89695 3.96674 3.93200
# Velocity P-wave (km/s) = 7.17486 7.24245 7.20873
#
# Compressibility (1/GPa) = 0.01592583
#
# Stress axis : x y z
#
# Youngs Moduli (GPa) = 86.94201 59.82132 79.25193
#
# Poissons Ratio (x) = 0.28366 0.18312
# Poissons Ratio (y) = 0.41226 0.42819
# Poissons Ratio (z) = 0.20089 0.32321
#
# Static dielectric constant tensor:
#      x y z
#    x 3.822310 0.000000 0.000000 
#    y 0.000000 3.235310 0.000000 
#    z 0.000000 0.000000 3.364200 
# 
# 
# High freq. dielectric constant tensor:
#      x y z
#    x 1.799150 0.000000 0.000000 
#    y 0.000000 1.789490 0.000000 
#    z 0.000000 0.000000 1.771440 
# 
# From -- ./inp_files/8800.got.cif
#   From: 2010.03.12/outbox.cif.g09.slc.cpg/sg63_5_cif.got.tgz:8800.got - 2010.04.10 19:34:48.
