data_PCOD8259107
_publ_section_title
;
Structure prediction by ZEFSAII (Michael W. Deem and Ramdas Pophale) SiO2 
 PCOD8259107
Probable space group: C M C M
;
_chemical_formula_sum "Si O2"
_cell_formula_units_Z 80
_cell_length_a 8.685870
_cell_length_b 19.116419
_cell_length_c 25.558973
_cell_angle_alpha 90.000000
_cell_angle_beta 90.000000
_cell_angle_gamma 90.000000
_cell_volume 4243.881661
_symmetry_space_group_name_H-M "C M C M"
_symmetry_group_IT_number 63
_symmetry_cell_setting 'orthorhombic'
loop_
_space_group_symop_operation_xyz
x,y,z
-x,-y,1/2+z
x,-y,-z
-x,y,1/2-z
-x,-y,-z
x,y,1/2-z
-x,y,z
x,-y,1/2+z
1/2+x,1/2+y,z
1/2-x,1/2-y,1/2+z
1/2+x,1/2-y,-z
1/2-x,1/2+y,1/2-z
1/2-x,1/2-y,-z
1/2+x,1/2+y,1/2-z
1/2-x,1/2+y,z
1/2+x,1/2-y,1/2+z
loop_
_atom_site_type_symbol
_atom_site_label
_atom_site_fract_x
_atom_site_fract_y
_atom_site_fract_z
Si Si1 0.320379 0.376358 0.416672
Si Si2 0.178675 0.485054 0.881863
Si Si3 0.179286 0.624721 0.028782
Si Si4 0.820641 0.768043 0.896781
Si Si5 0.321234 0.376673 0.809553
O O1 0.500000 0.361817 0.412486
O O2 0.277161 0.444482 0.383286
O O3 0.273945 0.388369 0.476531
O O4 0.230802 0.311652 0.390915
O O5 0.218582 0.438942 0.932695
O O6 0.223569 0.442389 0.830004
O O7 0.000000 0.504514 0.880117
O O8 0.228432 0.697594 0.055127
O O9 0.000000 0.628120 0.014625
O O10 0.781228 0.807382 0.842696
O O11 0.000000 0.772413 0.910257
O O12 0.274095 0.361191 0.750000
O O13 0.500000 0.396010 0.815056
#
# Coordination Sequence:
#
# PCOD8259107 Si02
#       5
#    16  16  16  16  16
#     4  12  23  34  51  77 111 146 179 219 265 311
#     4  10  21  36  55  80 108 140 178 218 262 314
#     4  10  20  35  54  77 108 144 181 218 259 314
#     4  10  20  35  55  79 108 141 178 218 262 316
#     4   9  19  38  62  83 103 132 172 218 267 318
#
# _framework density 18.850667000000001
#
# number of rings (size 3 to 8) (size 9 to 14) (size 15 to 20)
#    0.000    1.800    0.000    4.800    0.000    6.000 
#    0.000    1.000    0.000    3.600    0.000    0.000 
#    0.000    0.000    0.000    0.000    0.000    0.000 
#
# Total GULP energy -496235.787058 kJ/mol
# GULP energy per Si atom -12405.894676 kJ/mol
# Density = 1.880776 g / cm^3
# Si number density = 18.850667 Si / 1000 Ang^3
#
#
#
# Elastic Constant Matrix: (Units=GPa)
#
#
# Indices 1 2 3 4 5 6 
#
# 1 47.3475 20.0167 16.1912 0.0000 0.0000 0.0000
# 2 20.0167 111.8959 28.0785 0.0000 0.0000 0.0000
# 3 16.1912 28.0785 87.5620 0.0000 0.0000 0.0000
# 4 0.0000 0.0000 0.0000 11.7705 0.0000 0.0000
# 5 0.0000 0.0000 0.0000 0.0000 25.0229 0.0000
# 6 0.0000 0.0000 0.0000 0.0000 0.0000 33.1739
#
#
#
# Elastic Compliance Matrix: (Units=1/GPa)
#
#
# Indices 1 2 3 4 5 6 
#
# 1 0.023687 -0.003413 -0.003286 0.000000 0.000000 0.000000
# 2 -0.003413 0.010211 -0.002643 0.000000 0.000000 0.000000
# 3 -0.003286 -0.002643 0.012876 0.000000 0.000000 0.000000
# 4 0.000000 0.000000 0.000000 0.084958 0.000000 0.000000
# 5 0.000000 0.000000 0.000000 0.000000 0.039963 0.000000
# 6 0.000000 0.000000 0.000000 0.000000 0.000000 0.030144
#
#
# Mechanical properties :
#
#
# Convention : Reuss Voigt Hill
#
# Bulk Modulus (GPa) = 35.59995 41.70872 38.65433
# Shear Modulus (GPa) = 21.74996 26.16138 23.95567
#
# Velocity S-wave (km/s) = 3.40045 3.72939 3.56871
# Velocity P-wave (km/s) = 5.86035 6.38109 6.12626
#
# Compressibility (1/GPa) = 0.02808993
#
# Stress axis : x y z
#
# Youngs Moduli (GPa) = 42.21762 97.93701 77.66622
#
# Poissons Ratio (x) = 0.33424 0.25518
# Poissons Ratio (y) = 0.14408 0.20529
# Poissons Ratio (z) = 0.13871 0.25887
#
# Static dielectric constant tensor:
#      x y z
#    x 3.513080 0.000000 0.000000 
#    y 0.000000 3.503840 0.000000 
#    z 0.000000 0.000000 3.349670 
# 
# 
# High freq. dielectric constant tensor:
#      x y z
#    x 1.742550 0.000000 0.000000 
#    y 0.000000 1.737850 0.000000 
#    z 0.000000 0.000000 1.713830 
# 
# From -- ./inp_files/66539.got.cif
#   From: 2010.03.12/outbox.cif.g09.slc.cpg/sg63_34_cif.got.tgz:66539.got - 2010.04.10 19:34:48.
