data_PCOD8259909
_publ_section_title
;
Structure prediction by ZEFSAII (Michael W. Deem and Ramdas Pophale) SiO2 
 PCOD8259909
Probable space group: C M C M
;
_chemical_formula_sum "Si O2"
_cell_formula_units_Z 112
_cell_length_a 14.715689
_cell_length_b 31.283287
_cell_length_c 13.055885
_cell_angle_alpha 90.000000
_cell_angle_beta 90.000000
_cell_angle_gamma 90.000000
_cell_volume 6010.343537
_symmetry_space_group_name_H-M "C M C M"
_symmetry_group_IT_number 63
_symmetry_cell_setting 'orthorhombic'
loop_
_space_group_symop_operation_xyz
x,y,z
-x,-y,1/2+z
x,-y,-z
-x,y,1/2-z
-x,-y,-z
x,y,1/2-z
-x,y,z
x,-y,1/2+z
1/2+x,1/2+y,z
1/2-x,1/2-y,1/2+z
1/2+x,1/2-y,-z
1/2-x,1/2+y,1/2-z
1/2-x,1/2-y,-z
1/2+x,1/2+y,1/2-z
1/2-x,1/2+y,z
1/2+x,1/2-y,1/2+z
loop_
_atom_site_type_symbol
_atom_site_label
_atom_site_fract_x
_atom_site_fract_y
_atom_site_fract_z
Si Si1 0.892871 0.238036 0.134820
Si Si2 0.395071 0.113786 0.366432
Si Si3 0.104989 0.328733 0.053461
Si Si4 0.258307 0.617497 0.634286
Si Si5 0.395275 0.654108 0.476846
Si Si6 0.899087 0.933182 0.630714
Si Si7 0.773314 0.453516 0.521176
O O1 0.851448 0.241662 0.250000
O O2 0.854500 0.196676 0.075699
O O3 0.000000 0.232761 0.144755
O O4 0.867433 0.279268 0.066408
O O5 0.368351 0.125635 0.250000
O O6 0.500000 0.100518 0.374782
O O7 0.374651 0.155300 0.437215
O O8 0.337638 0.073095 0.402968
O O9 0.000000 0.335847 0.083189
O O10 0.164106 0.356483 0.131951
O O11 0.290045 0.610449 0.750000
O O12 0.337009 0.643945 0.577342
O O13 0.241416 0.571167 0.585113
O O14 0.500000 0.659791 0.510465
O O15 0.382863 0.616659 0.394086
O O16 0.887439 0.940135 0.750000
O O17 0.824666 0.961687 0.573359
O O18 0.000000 0.947185 0.594424
O O19 0.817093 0.500000 0.500000
#
# Coordination Sequence:
#
# PCOD8259909 Si02
#       7
#    16  16  16  16  16  16  16
#     4   9  16  28  50  77 103 133 169 209 248 283
#     4   9  18  34  55  76 101 133 164 197 244 300
#     4   9  18  33  52  75 102 130 164 206 247 288
#     4  10  21  35  50  70  98 134 170 203 248 301
#     4   9  18  32  49  72 102 134 170 207 242 287
#     4   9  17  31  52  75  99 128 162 203 251 299
#     4  10  21  35  53  75 100 126 161 209 252 297
#
# _framework density 18.634542
#
# number of rings (size 3 to 8) (size 9 to 14) (size 15 to 20)
#    0.000    2.714    0.000    1.286    0.000    5.143 
#    0.000    1.429    0.000    2.571    0.000    0.000 
#    0.000    0.000    0.000    0.000    0.000    0.000 
#
# Total GULP energy -694326.249940 kJ/mol
# GULP energy per Si atom -12398.683035 kJ/mol
# Density = 1.859213 g / cm^3
# Si number density = 18.634542 Si / 1000 Ang^3
#
#
#
# Elastic Constant Matrix: (Units=GPa)
#
#
# Indices 1 2 3 4 5 6 
#
# 1 51.2653 21.6839 29.0289 0.0000 0.0000 0.0000
# 2 21.6839 104.5266 49.4605 0.0000 0.0000 0.0000
# 3 29.0289 49.4605 123.8580 0.0000 0.0000 0.0000
# 4 0.0000 0.0000 0.0000 16.1513 0.0000 0.0000
# 5 0.0000 0.0000 0.0000 0.0000 23.3525 0.0000
# 6 0.0000 0.0000 0.0000 0.0000 0.0000 21.3857
#
#
#
# Elastic Compliance Matrix: (Units=1/GPa)
#
#
# Indices 1 2 3 4 5 6 
#
# 1 0.023116 -0.002752 -0.004319 0.000000 0.000000 0.000000
# 2 -0.002752 0.012123 -0.004196 0.000000 0.000000 0.000000
# 3 -0.004319 -0.004196 0.010762 0.000000 0.000000 0.000000
# 4 0.000000 0.000000 0.000000 0.061914 0.000000 0.000000
# 5 0.000000 0.000000 0.000000 0.000000 0.042822 0.000000
# 6 0.000000 0.000000 0.000000 0.000000 0.000000 0.046760
#
#
# Mechanical properties :
#
#
# Convention : Reuss Voigt Hill
#
# Bulk Modulus (GPa) = 42.61279 53.33292 47.97286
# Shear Modulus (GPa) = 21.94389 24.14302 23.04346
#
# Velocity S-wave (km/s) = 3.43533 3.60336 3.52035
# Velocity P-wave (km/s) = 6.21712 6.78195 6.50567
#
# Compressibility (1/GPa) = 0.02346713
#
# Stress axis : x y z
#
# Youngs Moduli (GPa) = 43.26040 82.48483 92.92198
#
# Poissons Ratio (x) = 0.22698 0.40132
# Poissons Ratio (y) = 0.11904 0.38993
# Poissons Ratio (z) = 0.18684 0.34614
#
# Static dielectric constant tensor:
#      x y z
#    x 3.502310 0.000000 0.000000 
#    y 0.000000 3.312560 0.000000 
#    z 0.000000 0.000000 3.343810 
# 
# 
# High freq. dielectric constant tensor:
#      x y z
#    x 1.720940 0.000000 0.000000 
#    y 0.000000 1.711580 0.000000 
#    z 0.000000 0.000000 1.717050 
# 
# From -- ./inp_files/20047.got.cif
#   From: 2010.03.12/outbox.cif.g09.slc.cpg/sg63_11_cif.got.tgz:20047.got - 2010.04.10 19:34:48.
