data_PCOD8259920
_publ_section_title
;
Structure prediction by ZEFSAII (Michael W. Deem and Ramdas Pophale) SiO2 
 PCOD8259920
Probable space group: C M C M
;
_chemical_formula_sum "Si O2"
_cell_formula_units_Z 96
_cell_length_a 19.258290
_cell_length_b 16.140565
_cell_length_c 14.463536
_cell_angle_alpha 90.000000
_cell_angle_beta 90.000000
_cell_angle_gamma 90.000000
_cell_volume 4495.840924
_symmetry_space_group_name_H-M "C M C M"
_symmetry_group_IT_number 63
_symmetry_cell_setting 'orthorhombic'
loop_
_space_group_symop_operation_xyz
x,y,z
-x,-y,1/2+z
x,-y,-z
-x,y,1/2-z
-x,-y,-z
x,y,1/2-z
-x,y,z
x,-y,1/2+z
1/2+x,1/2+y,z
1/2-x,1/2-y,1/2+z
1/2+x,1/2-y,-z
1/2-x,1/2+y,1/2-z
1/2-x,1/2-y,-z
1/2+x,1/2+y,1/2-z
1/2-x,1/2+y,z
1/2+x,1/2-y,1/2+z
loop_
_atom_site_type_symbol
_atom_site_label
_atom_site_fract_x
_atom_site_fract_y
_atom_site_fract_z
Si Si1 0.077710 0.140777 0.645091
Si Si2 0.283862 0.903643 0.854971
Si Si3 0.221235 0.070873 0.642455
Si Si4 0.924258 0.253562 0.472783
Si Si5 0.710392 0.758888 0.139747
Si Si6 0.423906 0.923524 0.939084
O O1 0.086379 0.176282 0.750000
O O2 0.137714 0.072876 0.626709
O O3 0.090653 0.214639 0.573644
O O4 0.000000 0.101960 0.633089
O O5 0.259363 0.903140 0.750000
O O6 0.258607 0.816355 0.898727
O O7 0.367061 0.908762 0.860124
O O8 0.249037 0.985137 0.903456
O O9 0.240246 0.069712 0.750000
O O10 0.259089 0.153491 0.600654
O O11 0.865963 0.235543 0.397041
O O12 0.926520 0.350882 0.486750
O O13 0.000000 0.222449 0.436082
O O14 0.708082 0.761626 0.250000
O O15 0.500000 0.936323 0.892647
O O16 0.400051 0.000000 0.000000
#
# Coordination Sequence:
#
# PCOD8259920 Si02
#       6
#    16  16  16  16  16  16
#     4   9  18  34  56  80 106 137 174 221 275 324
#     4  10  21  36  56  83 109 139 183 226 270 325
#     4   9  18  34  55  80 110 142 180 224 267 319
#     4  10  21  36  55  80 108 141 183 224 268 326
#     4  10  21  37  56  79 109 144 183 227 271 319
#     4  10  21  35  51  76 110 144 180 223 271 325
#
# _framework density 21.353069000000001
#
# number of rings (size 3 to 8) (size 9 to 14) (size 15 to 20)
#    0.000    2.333    0.000    2.000    0.000    6.667 
#    0.000    2.500    0.000   11.000    0.000    0.000 
#    0.000    0.000    0.000    0.000    0.000    0.000 
#
# Total GULP energy -594792.129657 kJ/mol
# GULP energy per Si atom -12391.502701 kJ/mol
# Density = 2.130447 g / cm^3
# Si number density = 21.353069 Si / 1000 Ang^3
#
#
#
# Elastic Constant Matrix: (Units=GPa)
#
#
# Indices 1 2 3 4 5 6 
#
# 1 129.7737 35.8752 -0.4467 0.0000 0.0000 0.0000
# 2 35.8752 123.8323 -6.0133 0.0000 0.0000 0.0000
# 3 -0.4467 -6.0133 6.1621 0.0000 0.0000 0.0000
# 4 0.0000 0.0000 0.0000 2.6701 0.0000 0.0000
# 5 0.0000 0.0000 0.0000 0.0000 35.3425 0.0000
# 6 0.0000 0.0000 0.0000 0.0000 0.0000 30.6397
#
#
#
# Elastic Compliance Matrix: (Units=1/GPa)
#
#
# Indices 1 2 3 4 5 6 
#
# 1 0.008397 -0.002523 -0.001853 0.000000 0.000000 0.000000
# 2 -0.002523 0.009235 0.008829 0.000000 0.000000 0.000000
# 3 -0.001853 0.008829 0.170765 0.000000 0.000000 0.000000
# 4 0.000000 0.000000 0.000000 0.374516 0.000000 0.000000
# 5 0.000000 0.000000 0.000000 0.000000 0.028295 0.000000
# 6 0.000000 0.000000 0.000000 0.000000 0.000000 0.032637
#
#
# Mechanical properties :
#
#
# Convention : Reuss Voigt Hill
#
# Bulk Modulus (GPa) = 5.06833 35.39985 20.23409
# Shear Modulus (GPa) = 7.34532 29.08731 18.21631
#
# Velocity S-wave (km/s) = 1.85672 3.69481 2.92396
# Velocity P-wave (km/s) = 2.64107 5.90055 4.57120
#
# Compressibility (1/GPa) = 0.19730384
#
# Stress axis : x y z
#
# Youngs Moduli (GPa) = 119.09455 108.28394 5.85600
#
# Poissons Ratio (x) = 0.27315 0.01085
# Poissons Ratio (y) = 0.30042 -0.05170
# Poissons Ratio (z) = 0.22068 -0.95605
#
# Static dielectric constant tensor:
#      x y z
#    x 4.162500 0.000000 0.000000 
#    y 0.000000 4.064850 0.000000 
#    z 0.000000 0.000000 3.427420 
# 
# 
# High freq. dielectric constant tensor:
#      x y z
#    x 1.853310 0.000000 0.000000 
#    y 0.000000 1.830280 0.000000 
#    z 0.000000 0.000000 1.809380 
# 
# From -- ./inp_files/35327.got.cif
#   From: 2010.03.12/outbox.cif.g09.slc.cpg/sg63_18_cif.got.tgz:35327.got - 2010.04.10 19:34:48.
