data_PCOD8259467
_publ_section_title
;
Structure prediction by ZEFSAII (Michael W. Deem and Ramdas Pophale) SiO2 
 PCOD8259467
Probable space group: C M C M
;
_chemical_formula_sum "Si O2"
_cell_formula_units_Z 80
_cell_length_a 18.323001
_cell_length_b 25.358590
_cell_length_c 8.774682
_cell_angle_alpha 90.000000
_cell_angle_beta 90.000000
_cell_angle_gamma 90.000000
_cell_volume 4077.116241
_symmetry_space_group_name_H-M "C M C M"
_symmetry_group_IT_number 63
_symmetry_cell_setting 'orthorhombic'
loop_
_space_group_symop_operation_xyz
x,y,z
-x,-y,1/2+z
x,-y,-z
-x,y,1/2-z
-x,-y,-z
x,y,1/2-z
-x,y,z
x,-y,1/2+z
1/2+x,1/2+y,z
1/2-x,1/2-y,1/2+z
1/2+x,1/2-y,-z
1/2-x,1/2+y,1/2-z
1/2-x,1/2-y,-z
1/2+x,1/2+y,1/2-z
1/2-x,1/2+y,z
1/2+x,1/2-y,1/2+z
loop_
_atom_site_type_symbol
_atom_site_label
_atom_site_fract_x
_atom_site_fract_y
_atom_site_fract_z
Si Si1 0.823058 0.054908 0.571700
Si Si2 0.170760 0.249523 0.429056
Si Si3 0.415262 0.147712 0.926559
Si Si4 0.583969 0.655668 0.926723
Si Si5 0.330224 0.944225 0.929969
O O1 0.808957 0.046846 0.750000
O O2 0.884899 0.097789 0.538339
O O3 0.747689 0.074091 0.496034
O O4 0.850036 0.000000 0.500000
O O5 0.179529 0.250213 0.250000
O O6 0.250000 0.250000 0.500000
O O7 0.127171 0.300824 0.485775
O O8 0.127245 0.197675 0.474904
O O9 0.398154 0.136056 0.750000
O O10 0.500000 0.158382 0.954410
O O11 0.391145 0.098105 0.026381
O O12 0.593700 0.670085 0.750000
O O13 0.500000 0.656032 0.976865
O O14 0.324550 0.949709 0.750000
O O15 0.354073 0.000000 0.000000
#
# Coordination Sequence:
#
# PCOD8259467 Si02
#       5
#    16  16  16  16  16
#     4  10  20  36  58  83 113 150 191 234 280 331
#     4  11  23  39  61  87 114 149 191 234 282 336
#     4  10  22  40  59  81 113 149 185 229 280 333
#     4  10  22  39  58  83 117 153 188 232 286 339
#     4  11  22  37  59  85 113 147 188 232 278 331
#
# _framework density 19.621711999999999
#
# number of rings (size 3 to 8) (size 9 to 14) (size 15 to 20)
#    0.000    1.600    0.000    6.000    0.000   10.400 
#    0.000    0.000    0.000    0.000    0.000    0.000 
#    0.000    0.000    0.000    0.000    0.000    0.000 
#
# Total GULP energy -496228.050652 kJ/mol
# GULP energy per Si atom -12405.701266 kJ/mol
# Density = 1.957705 g / cm^3
# Si number density = 19.621712 Si / 1000 Ang^3
#
#
#
# Elastic Constant Matrix: (Units=GPa)
#
#
# Indices 1 2 3 4 5 6 
#
# 1 140.1779 79.8825 54.1852 0.0000 0.0000 0.0000
# 2 79.8825 126.3820 59.3793 0.0000 0.0000 0.0000
# 3 54.1852 59.3793 106.0766 0.0000 0.0000 0.0000
# 4 0.0000 0.0000 0.0000 35.9000 0.0000 0.0000
# 5 0.0000 0.0000 0.0000 0.0000 30.7099 0.0000
# 6 0.0000 0.0000 0.0000 0.0000 0.0000 36.0666
#
#
#
# Elastic Compliance Matrix: (Units=1/GPa)
#
#
# Indices 1 2 3 4 5 6 
#
# 1 0.011609 -0.006176 -0.002473 0.000000 0.000000 0.000000
# 2 -0.006176 0.014022 -0.004694 0.000000 0.000000 0.000000
# 3 -0.002473 -0.004694 0.013318 0.000000 0.000000 0.000000
# 4 0.000000 0.000000 0.000000 0.027855 0.000000 0.000000
# 5 0.000000 0.000000 0.000000 0.000000 0.032563 0.000000
# 6 0.000000 0.000000 0.000000 0.000000 0.000000 0.027726
#
#
# Mechanical properties :
#
#
# Convention : Reuss Voigt Hill
#
# Bulk Modulus (GPa) = 81.54854 84.39228 82.97041
# Shear Modulus (GPa) = 31.67217 32.48127 32.07672
#
# Velocity S-wave (km/s) = 4.02199 4.07304 4.04760
# Velocity P-wave (km/s) = 7.95105 8.07605 8.01379
#
# Compressibility (1/GPa) = 0.01226264
#
# Stress axis : x y z
#
# Youngs Moduli (GPa) = 86.13891 71.31796 75.08569
#
# Poissons Ratio (x) = 0.44045 0.18568
# Poissons Ratio (y) = 0.53199 0.35247
# Poissons Ratio (z) = 0.21302 0.33479
#
# Static dielectric constant tensor:
#      x y z
#    x 3.624370 0.000000 0.000000 
#    y 0.000000 3.637200 0.000000 
#    z 0.000000 0.000000 3.641760 
# 
# 
# High freq. dielectric constant tensor:
#      x y z
#    x 1.769500 0.000000 0.000000 
#    y 0.000000 1.777700 0.000000 
#    z 0.000000 0.000000 1.769400 
# 
# From -- ./inp_files/6450.got.cif
#   From: 2010.03.12/outbox.cif.g09.slc.cpg/sg63_4_cif.got.tgz:6450.got - 2010.04.10 19:34:48.
