data_PCOD8259067
_publ_section_title
;
Structure prediction by ZEFSAII (Michael W. Deem and Ramdas Pophale) SiO2 
 PCOD8259067
Probable space group: C M C M
;
_chemical_formula_sum "Si O2"
_cell_formula_units_Z 112
_cell_length_a 14.366440
_cell_length_b 25.458817
_cell_length_c 16.117568
_cell_angle_alpha 90.000000
_cell_angle_beta 90.000000
_cell_angle_gamma 90.000000
_cell_volume 5895.041868
_symmetry_space_group_name_H-M "C M C M"
_symmetry_group_IT_number 63
_symmetry_cell_setting 'orthorhombic'
loop_
_space_group_symop_operation_xyz
x,y,z
-x,-y,1/2+z
x,-y,-z
-x,y,1/2-z
-x,-y,-z
x,y,1/2-z
-x,y,z
x,-y,1/2+z
1/2+x,1/2+y,z
1/2-x,1/2-y,1/2+z
1/2+x,1/2-y,-z
1/2-x,1/2+y,1/2-z
1/2-x,1/2-y,-z
1/2+x,1/2+y,1/2-z
1/2-x,1/2+y,z
1/2+x,1/2-y,1/2+z
loop_
_atom_site_type_symbol
_atom_site_label
_atom_site_fract_x
_atom_site_fract_y
_atom_site_fract_z
Si Si1 0.102511 0.191945 0.919422
Si Si2 0.889051 0.202361 0.250000
Si Si3 0.390234 0.178190 0.750000
Si Si4 0.750457 0.056657 0.029122
Si Si5 0.392570 0.911654 0.845318
Si Si6 0.288985 0.143821 0.592899
Si Si7 0.894586 0.690655 0.053771
Si Si8 0.104707 0.860446 0.591604
O O1 0.184766 0.159138 0.875912
O O2 0.120159 0.253263 0.903431
O O3 0.000000 0.175486 0.884382
O O4 0.105891 0.181330 0.017576
O O5 0.850006 0.262140 0.250000
O O6 0.852484 0.170628 0.169910
O O7 0.000000 0.205215 0.250000
O O8 0.500000 0.178928 0.750000
O O9 0.356843 0.145374 0.670665
O O10 0.668859 0.049729 0.097397
O O11 0.835373 0.088300 0.070293
O O12 0.711004 0.086035 0.947432
O O13 0.786540 0.000000 0.000000
O O14 0.361083 0.916444 0.750000
O O15 0.500000 0.927740 0.855997
O O16 0.374249 0.852157 0.875400
O O17 0.323847 0.184577 0.522720
O O18 0.000000 0.685138 0.019392
O O19 0.000000 0.880071 0.610362
#
# Coordination Sequence:
#
# PCOD8259067 Si02
#       8
#    16   8   8  16  16  16  16  16
#     4   9  17  31  50  75 108 148 183 216 263 324
#     4   9  18  32  53  87 121 145 170 212 270 327
#     4  11  22  36  56  83 117 149 175 218 275 333
#     4  10  22  39  58  78 104 145 189 235 280 315
#     4   9  19  35  53  78 108 136 177 228 276 327
#     4  10  20  35  51  76 107 143 188 223 266 326
#     4   9  16  29  52  77 108 143 175 217 267 325
#     4   9  18  33  55  83 114 143 181 224 268 326
#
# _framework density 18.999016000000001
#
# number of rings (size 3 to 8) (size 9 to 14) (size 15 to 20)
#    0.000    2.571    0.000    1.714    1.000    5.714 
#    2.571    0.357    0.000    0.000    0.000    0.000 
#    0.000    0.000    0.000    0.000    0.000    0.000 
#
# Total GULP energy -694328.778556 kJ/mol
# GULP energy per Si atom -12398.728189 kJ/mol
# Density = 1.895577 g / cm^3
# Si number density = 18.999016 Si / 1000 Ang^3
#
#
#
# Elastic Constant Matrix: (Units=GPa)
#
#
# Indices 1 2 3 4 5 6 
#
# 1 84.1514 28.3528 30.2050 0.0000 0.0000 0.0000
# 2 28.3528 81.9359 33.9182 0.0000 0.0000 0.0000
# 3 30.2050 33.9182 80.0683 0.0000 0.0000 0.0000
# 4 0.0000 0.0000 0.0000 17.6075 0.0000 0.0000
# 5 0.0000 0.0000 0.0000 0.0000 24.5252 0.0000
# 6 0.0000 0.0000 0.0000 0.0000 0.0000 22.4345
#
#
#
# Elastic Compliance Matrix: (Units=1/GPa)
#
#
# Indices 1 2 3 4 5 6 
#
# 1 0.014456 -0.003329 -0.004043 0.000000 0.000000 0.000000
# 2 -0.003329 0.015566 -0.005339 0.000000 0.000000 0.000000
# 3 -0.004043 -0.005339 0.016276 0.000000 0.000000 0.000000
# 4 0.000000 0.000000 0.000000 0.056794 0.000000 0.000000
# 5 0.000000 0.000000 0.000000 0.000000 0.040774 0.000000
# 6 0.000000 0.000000 0.000000 0.000000 0.000000 0.044574
#
#
# Mechanical properties :
#
#
# Convention : Reuss Voigt Hill
#
# Bulk Modulus (GPa) = 47.89788 47.90085 47.89936
# Shear Modulus (GPa) = 22.64272 23.15874 22.90073
#
# Velocity S-wave (km/s) = 3.45597 3.49513 3.47560
# Velocity P-wave (km/s) = 6.41797 6.44631 6.43216
#
# Compressibility (1/GPa) = 0.02087775
#
# Stress axis : x y z
#
# Youngs Moduli (GPa) = 69.17478 64.24096 61.43954
#
# Poissons Ratio (x) = 0.21383 0.24843
# Poissons Ratio (y) = 0.23025 0.32800
# Poissons Ratio (z) = 0.27970 0.34295
#
# Static dielectric constant tensor:
#      x y z
#    x 3.746280 0.000000 0.000000 
#    y 0.000000 3.137140 0.000000 
#    z 0.000000 0.000000 3.387090 
# 
# 
# High freq. dielectric constant tensor:
#      x y z
#    x 1.750650 0.000000 0.000000 
#    y 0.000000 1.705180 0.000000 
#    z 0.000000 0.000000 1.722540 
# 
# From -- ./inp_files/32624.got.cif
#   From: 2010.03.12/outbox.cif.g09.slc.cpg/sg63_17_cif.got.tgz:32624.got - 2010.04.10 19:34:48.
