data_PCOD8259152
_publ_section_title
;
Structure prediction by ZEFSAII (Michael W. Deem and Ramdas Pophale) SiO2 
 PCOD8259152
Probable space group: C M C M
;
_chemical_formula_sum "Si O2"
_cell_formula_units_Z 88
_cell_length_a 27.401814
_cell_length_b 19.538662
_cell_length_c 8.953336
_cell_angle_alpha 90.000000
_cell_angle_beta 90.000000
_cell_angle_gamma 90.000000
_cell_volume 4793.569375
_symmetry_space_group_name_H-M "C M C M"
_symmetry_group_IT_number 63
_symmetry_cell_setting 'orthorhombic'
loop_
_space_group_symop_operation_xyz
x,y,z
-x,-y,1/2+z
x,-y,-z
-x,y,1/2-z
-x,-y,-z
x,y,1/2-z
-x,y,z
x,-y,1/2+z
1/2+x,1/2+y,z
1/2-x,1/2-y,1/2+z
1/2+x,1/2-y,-z
1/2-x,1/2+y,1/2-z
1/2-x,1/2-y,-z
1/2+x,1/2+y,1/2-z
1/2-x,1/2+y,z
1/2+x,1/2-y,1/2+z
loop_
_atom_site_type_symbol
_atom_site_label
_atom_site_fract_x
_atom_site_fract_y
_atom_site_fract_z
Si Si1 0.921659 0.668237 0.575273
Si Si2 0.374371 0.429059 0.424613
Si Si3 0.055698 0.191785 0.579672
Si Si4 0.684941 0.199676 0.923825
Si Si5 0.210280 0.163075 0.575060
Si Si6 0.500000 0.074110 0.072076
O O1 0.933419 0.658295 0.750000
O O2 0.936681 0.744179 0.528442
O O3 0.864016 0.656784 0.540784
O O4 0.951487 0.613309 0.480148
O O5 0.387568 0.500000 0.500000
O O6 0.379302 0.440508 0.250000
O O7 0.412066 0.371238 0.479213
O O8 0.319444 0.405106 0.470425
O O9 0.070054 0.212028 0.750000
O O10 0.000000 0.167681 0.571655
O O11 0.688267 0.216350 0.750000
O O12 0.733088 0.157323 0.976918
O O13 0.682916 0.272155 0.005177
O O14 0.206681 0.174711 0.750000
O O15 0.500000 0.068711 0.250000
O O16 0.500000 0.000000 0.000000
#
# Coordination Sequence:
#
# PCOD8259152 Si02
#       6
#    16  16  16  16  16   8
#     4  11  21  35  58  89 118 145 182 230 282 336
#     4  10  21  35  52  75 109 152 193 235 282 332
#     4  10  20  35  55  80 109 146 190 233 279 335
#     4   9  18  31  53  83 112 140 178 232 279 328
#     4   9  17  32  52  77 109 145 186 230 279 330
#     4  12  26  44  64  86 115 150 185 226 280 342
#
# _framework density 18.357927
#
# number of rings (size 3 to 8) (size 9 to 14) (size 15 to 20)
#    0.000    2.000    2.727    1.364    0.000    2.545 
#    0.000    0.909    0.000    2.182    0.000    0.000 
#    0.000    0.000    0.000    0.000    0.000    0.000 
#
# Total GULP energy -545515.098673 kJ/mol
# GULP energy per Si atom -12398.070424 kJ/mol
# Density = 1.831614 g / cm^3
# Si number density = 18.357927 Si / 1000 Ang^3
#
#
#
# Elastic Constant Matrix: (Units=GPa)
#
#
# Indices 1 2 3 4 5 6 
#
# 1 126.8676 61.4678 42.3126 0.0000 0.0000 0.0000
# 2 61.4678 126.1397 46.0921 0.0000 0.0000 0.0000
# 3 42.3126 46.0921 67.5426 0.0000 0.0000 0.0000
# 4 0.0000 0.0000 0.0000 31.8897 0.0000 0.0000
# 5 0.0000 0.0000 0.0000 0.0000 23.4730 0.0000
# 6 0.0000 0.0000 0.0000 0.0000 0.0000 23.6116
#
#
#
# Elastic Compliance Matrix: (Units=1/GPa)
#
#
# Indices 1 2 3 4 5 6 
#
# 1 0.011218 -0.003862 -0.004393 0.000000 0.000000 0.000000
# 2 -0.003862 0.011890 -0.005695 0.000000 0.000000 0.000000
# 3 -0.004393 -0.005695 0.021444 0.000000 0.000000 0.000000
# 4 0.000000 0.000000 0.000000 0.031358 0.000000 0.000000
# 5 0.000000 0.000000 0.000000 0.000000 0.042602 0.000000
# 6 0.000000 0.000000 0.000000 0.000000 0.000000 0.042352
#
#
# Mechanical properties :
#
#
# Convention : Reuss Voigt Hill
#
# Bulk Modulus (GPa) = 60.04615 68.92163 64.48389
# Shear Modulus (GPa) = 25.73149 27.17334 26.45242
#
# Velocity S-wave (km/s) = 3.74793 3.85151 3.80007
# Velocity P-wave (km/s) = 7.17697 7.57651 7.37945
#
# Compressibility (1/GPa) = 0.01665386
#
# Stress axis : x y z
#
# Youngs Moduli (GPa) = 89.14129 84.10092 46.63388
#
# Poissons Ratio (x) = 0.32476 0.20484
# Poissons Ratio (y) = 0.34422 0.26559
# Poissons Ratio (z) = 0.39155 0.47897
#
# Static dielectric constant tensor:
#      x y z
#    x 3.956820 0.000000 0.000000 
#    y 0.000000 3.224730 0.000000 
#    z 0.000000 0.000000 3.357970 
# 
# 
# High freq. dielectric constant tensor:
#      x y z
#    x 1.733820 0.000000 0.000000 
#    y 0.000000 1.682850 0.000000 
#    z 0.000000 0.000000 1.709650 
# 
# From -- ./inp_files/14194.got.cif
#   From: 2010.03.12/outbox.cif.g09.slc.cpg/sg63_8_cif.got.tgz:14194.got - 2010.04.10 19:34:48.
