data_PCOD8259664
_publ_section_title
;
Structure prediction by ZEFSAII (Michael W. Deem and Ramdas Pophale) SiO2 
 PCOD8259664
Probable space group: C M C M
;
_chemical_formula_sum "Si O2"
_cell_formula_units_Z 72
_cell_length_a 10.245466
_cell_length_b 15.121675
_cell_length_c 25.739373
_cell_angle_alpha 90.000000
_cell_angle_beta 90.000000
_cell_angle_gamma 90.000000
_cell_volume 3987.765206
_symmetry_space_group_name_H-M "C M C M"
_symmetry_group_IT_number 63
_symmetry_cell_setting 'orthorhombic'
loop_
_space_group_symop_operation_xyz
x,y,z
-x,-y,1/2+z
x,-y,-z
-x,y,1/2-z
-x,-y,-z
x,y,1/2-z
-x,y,z
x,-y,1/2+z
1/2+x,1/2+y,z
1/2-x,1/2-y,1/2+z
1/2+x,1/2-y,-z
1/2-x,1/2+y,1/2-z
1/2-x,1/2-y,-z
1/2+x,1/2+y,1/2-z
1/2-x,1/2+y,z
1/2+x,1/2-y,1/2+z
loop_
_atom_site_type_symbol
_atom_site_label
_atom_site_fract_x
_atom_site_fract_y
_atom_site_fract_z
Si Si1 0.653435 0.935122 0.810424
Si Si2 0.500000 0.568072 0.546324
Si Si3 0.645711 0.760955 0.866743
Si Si4 0.747942 0.921357 0.114451
Si Si5 0.000000 0.577310 0.541865
Si Si6 0.000000 0.731361 0.463612
O O1 0.686224 0.936474 0.750000
O O2 0.500000 0.946526 0.821679
O O3 0.703534 0.842048 0.833960
O O4 0.733199 0.013729 0.836843
O O5 0.500000 0.500000 0.500000
O O6 0.624702 0.552717 0.582342
O O7 0.500000 0.665485 0.520800
O O8 0.500000 0.733868 0.845994
O O9 0.742435 0.677704 0.862085
O O10 0.628757 0.788604 0.927868
O O11 0.625911 0.931530 0.077002
O O12 0.000000 0.500000 0.500000
O O13 0.000000 0.672863 0.514734
#
# Coordination Sequence:
#
# PCOD8259664 Si02
#       6
#    16   8  16  16   8   8
#     4  10  20  37  61  85 113 151 193 239 294 348
#     4  10  22  38  55  81 121 159 184 226 289 344
#     4   8  18  38  55  78 114 152 189 228 283 349
#     4  11  21  37  58  87 117 151 192 241 283 339
#     4  12  22  32  56  88 117 152 195 236 280 338
#     4   8  18  34  50  77 109 151 193 224 264 342
#
# _framework density 18.055225
#
# number of rings (size 3 to 8) (size 9 to 14) (size 15 to 20)
#    0.667    1.556    2.222    2.000    0.000    6.222 
#    0.000    0.556    0.000    0.000    0.000    0.000 
#    0.000    0.000    0.000    0.000    0.000    0.000 
#
# Total GULP energy -446277.549119 kJ/mol
# GULP energy per Si atom -12396.598587 kJ/mol
# Density = 1.801413 g / cm^3
# Si number density = 18.055225 Si / 1000 Ang^3
#
#
#
# Elastic Constant Matrix: (Units=GPa)
#
#
# Indices 1 2 3 4 5 6 
#
# 1 83.4165 36.2580 36.9754 0.0000 0.0000 0.0000
# 2 36.2580 120.6333 75.9313 0.0000 0.0000 0.0000
# 3 36.9754 75.9313 108.6436 0.0000 0.0000 0.0000
# 4 0.0000 0.0000 0.0000 29.7894 0.0000 0.0000
# 5 0.0000 0.0000 0.0000 0.0000 22.0993 0.0000
# 6 0.0000 0.0000 0.0000 0.0000 0.0000 34.0196
#
#
#
# Elastic Compliance Matrix: (Units=1/GPa)
#
#
# Indices 1 2 3 4 5 6 
#
# 1 0.014445 -0.002227 -0.003360 0.000000 0.000000 0.000000
# 2 -0.002227 0.015144 -0.009826 0.000000 0.000000 0.000000
# 3 -0.003360 -0.009826 0.017215 0.000000 0.000000 0.000000
# 4 0.000000 0.000000 0.000000 0.033569 0.000000 0.000000
# 5 0.000000 0.000000 0.000000 0.000000 0.045250 0.000000
# 6 0.000000 0.000000 0.000000 0.000000 0.000000 0.029395
#
#
# Mechanical properties :
#
#
# Convention : Reuss Voigt Hill
#
# Bulk Modulus (GPa) = 62.58343 67.89144 65.23743
# Shear Modulus (GPa) = 26.15460 28.08358 27.11909
#
# Velocity S-wave (km/s) = 3.81016 3.94817 3.87978
# Velocity P-wave (km/s) = 7.35486 7.64642 7.50206
#
# Compressibility (1/GPa) = 0.01597867
#
# Stress axis : x y z
#
# Youngs Moduli (GPa) = 69.22672 66.03308 58.08725
#
# Poissons Ratio (x) = 0.14705 0.19517
# Poissons Ratio (y) = 0.15416 0.57078
# Poissons Ratio (z) = 0.23259 0.64886
#
# Static dielectric constant tensor:
#      x y z
#    x 3.143310 0.000000 0.000000 
#    y 0.000000 3.396700 0.000000 
#    z 0.000000 0.000000 3.231650 
# 
# 
# High freq. dielectric constant tensor:
#      x y z
#    x 1.676650 0.000000 0.000000 
#    y 0.000000 1.709250 0.000000 
#    z 0.000000 0.000000 1.690430 
# 
# From -- ./inp_files/66396.got.cif
#   From: 2010.03.12/outbox.cif.g09.slc.cpg/sg63_34_cif.got.tgz:66396.got - 2010.04.10 19:34:48.
