data_PCOD8259850
_publ_section_title
;
Structure prediction by ZEFSAII (Michael W. Deem and Ramdas Pophale) SiO2 
 PCOD8259850
Probable space group: C M C M
;
_chemical_formula_sum "Si O2"
_cell_formula_units_Z 104
_cell_length_a 16.879057
_cell_length_b 20.567055
_cell_length_c 15.253795
_cell_angle_alpha 90.000000
_cell_angle_beta 90.000000
_cell_angle_gamma 90.000000
_cell_volume 5295.392972
_symmetry_space_group_name_H-M "C M C M"
_symmetry_group_IT_number 63
_symmetry_cell_setting 'orthorhombic'
loop_
_space_group_symop_operation_xyz
x,y,z
-x,-y,1/2+z
x,-y,-z
-x,y,1/2-z
-x,-y,-z
x,y,1/2-z
-x,y,z
x,-y,1/2+z
1/2+x,1/2+y,z
1/2-x,1/2-y,1/2+z
1/2+x,1/2-y,-z
1/2-x,1/2+y,1/2-z
1/2-x,1/2-y,-z
1/2+x,1/2+y,1/2-z
1/2-x,1/2+y,z
1/2+x,1/2-y,1/2+z
loop_
_atom_site_type_symbol
_atom_site_label
_atom_site_fract_x
_atom_site_fract_y
_atom_site_fract_z
Si Si1 0.590028 0.005434 0.401350
Si Si2 0.239238 0.767222 0.900612
Si Si3 0.261685 0.668367 0.750000
Si Si4 0.413870 0.332151 0.850359
Si Si5 0.908163 0.064564 0.750000
Si Si6 0.216754 0.594436 0.151656
Si Si7 0.867586 0.970011 0.593286
Si Si8 0.907960 0.402609 0.250000
O O1 0.500000 0.025579 0.409169
O O2 0.629272 0.066244 0.352825
O O3 0.625622 0.000000 0.500000
O O4 0.602047 0.942503 0.340356
O O5 0.273359 0.711623 0.837088
O O6 0.146135 0.777925 0.884510
O O7 0.286113 0.834072 0.887992
O O8 0.250000 0.750000 0.000000
O O9 0.334635 0.616633 0.750000
O O10 0.169408 0.643945 0.750000
O O11 0.394626 0.348098 0.750000
O O12 0.500000 0.300803 0.863216
O O13 0.410276 0.400291 0.901205
O O14 0.000000 0.093379 0.750000
O O15 0.899385 0.020120 0.664856
O O16 0.248804 0.599904 0.250000
O O17 0.273821 0.543473 0.101913
O O18 0.887743 0.000000 0.500000
O O19 0.000000 0.373045 0.250000
#
# Coordination Sequence:
#
# PCOD8259850 Si02
#       8
#    16  16   8  16   8  16  16   8
#     4  10  21  37  59  93 126 152 193 248 304 367
#     4  11  25  43  61  86 118 160 211 251 293 353
#     4  12  26  44  60  86 126 166 204 252 304 358
#     4  10  20  41  68  90 116 152 202 262 305 346
#     4  12  26  41  59  91 131 166 197 242 304 372
#     4  11  20  40  66  84 114 161 208 250 298 353
#     4  11  22  38  63  94 123 155 196 246 308 368
#     4  10  22  39  65  95 125 156 193 250 318 368
#
# _framework density 19.639713
#
# number of rings (size 3 to 8) (size 9 to 14) (size 15 to 20)
#    0.000    1.231    3.846    2.769    6.462    1.846 
#    0.000    1.538    0.000    0.000    0.000    0.000 
#    0.000    0.000    0.000    0.000    0.000    0.000 
#
# Total GULP energy -644400.206532 kJ/mol
# GULP energy per Si atom -12392.311664 kJ/mol
# Density = 1.959501 g / cm^3
# Si number density = 19.639713 Si / 1000 Ang^3
#
#
#
# Elastic Constant Matrix: (Units=GPa)
#
#
# Indices 1 2 3 4 5 6 
#
# 1 94.9527 46.0247 21.1124 0.0000 0.0000 0.0000
# 2 46.0247 73.9171 31.4995 0.0000 0.0000 0.0000
# 3 21.1124 31.4995 141.1962 0.0000 0.0000 0.0000
# 4 0.0000 0.0000 0.0000 33.3219 0.0000 0.0000
# 5 0.0000 0.0000 0.0000 0.0000 10.7366 0.0000
# 6 0.0000 0.0000 0.0000 0.0000 0.0000 14.7113
#
#
#
# Elastic Compliance Matrix: (Units=1/GPa)
#
#
# Indices 1 2 3 4 5 6 
#
# 1 0.015088 -0.009319 -0.000177 0.000000 0.000000 0.000000
# 2 -0.009319 0.020706 -0.003226 0.000000 0.000000 0.000000
# 3 -0.000177 -0.003226 0.007828 0.000000 0.000000 0.000000
# 4 0.000000 0.000000 0.000000 0.030010 0.000000 0.000000
# 5 0.000000 0.000000 0.000000 0.000000 0.093139 0.000000
# 6 0.000000 0.000000 0.000000 0.000000 0.000000 0.067975
#
#
# Mechanical properties :
#
#
# Convention : Reuss Voigt Hill
#
# Bulk Modulus (GPa) = 55.01043 56.37104 55.69074
# Shear Modulus (GPa) = 18.77933 25.84927 22.31430
#
# Velocity S-wave (km/s) = 3.09559 3.63185 3.37439
# Velocity P-wave (km/s) = 6.39120 6.80823 6.60301
#
# Compressibility (1/GPa) = 0.01817837
#
# Stress axis : x y z
#
# Youngs Moduli (GPa) = 66.27770 48.29529 127.73888
#
# Poissons Ratio (x) = 0.45007 0.02261
# Poissons Ratio (y) = 0.61765 0.41207
# Poissons Ratio (z) = 0.01173 0.15579
#
# Static dielectric constant tensor:
#      x y z
#    x 3.828200 0.000000 0.000000 
#    y 0.000000 3.406870 0.000000 
#    z 0.000000 0.000000 3.693360 
# 
# 
# High freq. dielectric constant tensor:
#      x y z
#    x 1.774890 0.000000 0.000000 
#    y 0.000000 1.751150 0.000000 
#    z 0.000000 0.000000 1.776300 
# 
# From -- ./inp_files/34218.got.cif
#   From: 2010.03.12/outbox.cif.g09.slc.cpg/sg63_18_cif.got.tgz:34218.got - 2010.04.10 19:34:48.
