data_PCOD8259420
_publ_section_title
;
Structure prediction by ZEFSAII (Michael W. Deem and Ramdas Pophale) SiO2 
 PCOD8259420
Probable space group: C M C M
;
_chemical_formula_sum "Si O2"
_cell_formula_units_Z 112
_cell_length_a 29.131653
_cell_length_b 14.760489
_cell_length_c 14.153677
_cell_angle_alpha 90.000000
_cell_angle_beta 90.000000
_cell_angle_gamma 90.000000
_cell_volume 6086.044928
_symmetry_space_group_name_H-M "C M C M"
_symmetry_group_IT_number 63
_symmetry_cell_setting 'orthorhombic'
loop_
_space_group_symop_operation_xyz
x,y,z
-x,-y,1/2+z
x,-y,-z
-x,y,1/2-z
-x,-y,-z
x,y,1/2-z
-x,y,z
x,-y,1/2+z
1/2+x,1/2+y,z
1/2-x,1/2-y,1/2+z
1/2+x,1/2-y,-z
1/2-x,1/2+y,1/2-z
1/2-x,1/2-y,-z
1/2+x,1/2+y,1/2-z
1/2-x,1/2+y,z
1/2+x,1/2-y,1/2+z
loop_
_atom_site_type_symbol
_atom_site_label
_atom_site_fract_x
_atom_site_fract_y
_atom_site_fract_z
Si Si1 0.053384 0.748433 0.066417
Si Si2 0.814223 0.696230 0.510745
Si Si3 0.055336 0.552040 0.750000
Si Si4 0.260019 0.326518 0.640618
Si Si5 0.631164 0.631890 0.964715
Si Si6 0.158900 0.960709 0.856912
Si Si7 0.554278 0.152313 0.250000
Si Si8 0.903954 0.404641 0.052770
O O1 0.078432 0.845711 0.059237
O O2 0.073738 0.703394 0.160121
O O3 0.000000 0.769975 0.069350
O O4 0.064704 0.676533 0.985613
O O5 0.782163 0.652504 0.429624
O O6 0.786559 0.737481 0.600498
O O7 0.840505 0.776221 0.457605
O O8 0.849853 0.619994 0.546841
O O9 0.071922 0.449074 0.750000
O O10 0.079184 0.595254 0.659687
O O11 0.000000 0.563989 0.750000
O O12 0.245493 0.307535 0.750000
O O13 0.290220 0.418342 0.636829
O O14 0.656946 0.564296 0.892647
O O15 0.627158 0.595874 0.072044
O O16 0.139916 0.954205 0.750000
O O17 0.500000 0.153065 0.250000
O O18 0.914019 0.500000 0.000000
#
# Coordination Sequence:
#
# PCOD8259420 Si02
#       8
#    16  16   8  16  16  16   8  16
#     4  10  20  36  57  82 112 149 188 234 285 334
#     4   9  20  37  55  84 113 149 188 236 288 338
#     4  11  22  36  60  86 112 156 202 230 277 356
#     4   9  18  37  59  80 110 149 192 236 284 345
#     4   9  19  35  56  82 109 143 184 232 280 335
#     4   9  18  35  59  81 108 145 184 228 285 337
#     4   9  18  32  54  80 106 142 188 230 273 328
#     4  11  22  38  56  83 120 154 186 239 288 341
#
# _framework density 18.402756
#
# number of rings (size 3 to 8) (size 9 to 14) (size 15 to 20)
#    0.000    2.429    1.429    0.429    2.000    1.143 
#   16.714    1.429    0.000    0.857    0.000    0.000 
#    0.000    0.000    0.000    0.000    0.000    0.000 
#
# Total GULP energy -694005.807506 kJ/mol
# GULP energy per Si atom -12392.960848 kJ/mol
# Density = 1.836087 g / cm^3
# Si number density = 18.402756 Si / 1000 Ang^3
#
#
#
# Elastic Constant Matrix: (Units=GPa)
#
#
# Indices 1 2 3 4 5 6 
#
# 1 95.3344 37.7021 57.0274 0.0000 0.0000 0.0000
# 2 37.7021 84.0272 47.5177 0.0000 0.0000 0.0000
# 3 57.0274 47.5177 165.5294 0.0000 0.0000 0.0000
# 4 0.0000 0.0000 0.0000 22.4511 0.0000 0.0000
# 5 0.0000 0.0000 0.0000 0.0000 44.2754 0.0000
# 6 0.0000 0.0000 0.0000 0.0000 0.0000 21.6213
#
#
#
# Elastic Compliance Matrix: (Units=1/GPa)
#
#
# Indices 1 2 3 4 5 6 
#
# 1 0.014446 -0.004378 -0.003720 0.000000 0.000000 0.000000
# 2 -0.004378 0.015534 -0.002951 0.000000 0.000000 0.000000
# 3 -0.003720 -0.002951 0.008170 0.000000 0.000000 0.000000
# 4 0.000000 0.000000 0.000000 0.044541 0.000000 0.000000
# 5 0.000000 0.000000 0.000000 0.000000 0.022586 0.000000
# 6 0.000000 0.000000 0.000000 0.000000 0.000000 0.046251
#
#
# Mechanical properties :
#
#
# Convention : Reuss Voigt Hill
#
# Bulk Modulus (GPa) = 62.29814 69.93171 66.11492
# Shear Modulus (GPa) = 27.93655 31.17914 29.55785
#
# Velocity S-wave (km/s) = 3.90046 4.12061 4.01205
# Velocity P-wave (km/s) = 7.36280 7.79246 7.58068
#
# Compressibility (1/GPa) = 0.01605184
#
# Stress axis : x y z
#
# Youngs Moduli (GPa) = 69.22277 64.37458 122.39928
#
# Poissons Ratio (x) = 0.28184 0.45534
# Poissons Ratio (y) = 0.30306 0.36120
# Poissons Ratio (z) = 0.25752 0.18997
#
# Static dielectric constant tensor:
#      x y z
#    x 3.373000 0.000000 0.000000 
#    y 0.000000 3.414380 0.000000 
#    z 0.000000 0.000000 3.408020 
# 
# 
# High freq. dielectric constant tensor:
#      x y z
#    x 1.700890 0.000000 0.000000 
#    y 0.000000 1.706310 0.000000 
#    z 0.000000 0.000000 1.724280 
# 
# From -- ./inp_files/37995.got.cif
#   From: 2010.03.12/outbox.cif.g09.slc.cpg/sg63_19_cif.got.tgz:37995.got - 2010.04.10 19:34:48.
