data_PCOD8259305
_publ_section_title
;
Structure prediction by ZEFSAII (Michael W. Deem and Ramdas Pophale) SiO2 
 PCOD8259305
Probable space group: C M C M
;
_chemical_formula_sum "Si O2"
_cell_formula_units_Z 96
_cell_length_a 15.679320
_cell_length_b 19.710740
_cell_length_c 17.103664
_cell_angle_alpha 90.000000
_cell_angle_beta 90.000000
_cell_angle_gamma 90.000000
_cell_volume 5285.904461
_symmetry_space_group_name_H-M "C M C M"
_symmetry_group_IT_number 63
_symmetry_cell_setting 'orthorhombic'
loop_
_space_group_symop_operation_xyz
x,y,z
-x,-y,1/2+z
x,-y,-z
-x,y,1/2-z
-x,-y,-z
x,y,1/2-z
-x,y,z
x,-y,1/2+z
1/2+x,1/2+y,z
1/2-x,1/2-y,1/2+z
1/2+x,1/2-y,-z
1/2-x,1/2+y,1/2-z
1/2-x,1/2-y,-z
1/2+x,1/2+y,1/2-z
1/2-x,1/2+y,z
1/2+x,1/2-y,1/2+z
loop_
_atom_site_type_symbol
_atom_site_label
_atom_site_fract_x
_atom_site_fract_y
_atom_site_fract_z
Si Si1 0.820616 0.194117 0.904320
Si Si2 0.403400 0.077871 0.521936
Si Si3 0.000000 0.152328 0.844114
Si Si4 0.761601 0.659174 0.064133
Si Si5 0.287203 0.080225 0.838434
Si Si6 0.174200 0.954180 0.657793
Si Si7 0.000000 0.000060 0.907434
O O1 0.786623 0.270272 0.896004
O O2 0.768870 0.148105 0.843282
O O3 0.919464 0.190548 0.881554
O O4 0.804766 0.167883 0.992671
O O5 0.500000 0.103942 0.515999
O O6 0.347890 0.123284 0.464023
O O7 0.372305 0.087461 0.610731
O O8 0.395127 0.000000 0.500000
O O9 0.000000 0.157501 0.750000
O O10 0.000000 0.074196 0.869209
O O11 0.717338 0.615276 0.130929
O O12 0.316374 0.067523 0.750000
O O13 0.230687 0.017835 0.870797
O O14 0.164775 0.954385 0.750000
O O15 0.081819 0.958684 0.619957
O O16 0.000000 0.000000 0.000000
#
# Coordination Sequence:
#
# PCOD8259305 Si02
#       7
#    16  16   8  16  16  16   8
#     4  10  22  37  59  86 116 156 197 239 292 357
#     4  10  20  35  59  83 112 147 194 244 282 334
#     4  12  22  36  60  92 127 154 194 247 301 359
#     4  10  22  40  59  85 114 157 200 240 292 350
#     4  10  20  36  59  84 114 150 189 238 295 350
#     4  11  22  37  58  86 119 151 191 241 296 355
#     4  12  24  36  62  92 120 154 196 248 294 353
#
# _framework density 18.161508999999999
#
# number of rings (size 3 to 8) (size 9 to 14) (size 15 to 20)
#    0.000    1.500    3.333    2.250    3.500    1.667 
#    0.000    0.000    1.833    0.000    0.000    0.000 
#    0.000    0.000    0.000    0.000    0.000    0.000 
#
# Total GULP energy -595391.765830 kJ/mol
# GULP energy per Si atom -12403.995121 kJ/mol
# Density = 1.812017 g / cm^3
# Si number density = 18.161509 Si / 1000 Ang^3
#
#
#
# Elastic Constant Matrix: (Units=GPa)
#
#
# Indices 1 2 3 4 5 6 
#
# 1 125.5927 47.6564 51.8568 0.0000 0.0000 0.0000
# 2 47.6564 114.2608 28.4468 0.0000 0.0000 0.0000
# 3 51.8568 28.4468 73.4337 0.0000 0.0000 0.0000
# 4 0.0000 0.0000 0.0000 25.0538 0.0000 0.0000
# 5 0.0000 0.0000 0.0000 0.0000 21.1545 0.0000
# 6 0.0000 0.0000 0.0000 0.0000 0.0000 21.0724
#
#
#
# Elastic Compliance Matrix: (Units=1/GPa)
#
#
# Indices 1 2 3 4 5 6 
#
# 1 0.012253 -0.003272 -0.007385 0.000000 0.000000 0.000000
# 2 -0.003272 0.010560 -0.001780 0.000000 0.000000 0.000000
# 3 -0.007385 -0.001780 0.019523 0.000000 0.000000 0.000000
# 4 0.000000 0.000000 0.000000 0.039914 0.000000 0.000000
# 5 0.000000 0.000000 0.000000 0.000000 0.047271 0.000000
# 6 0.000000 0.000000 0.000000 0.000000 0.000000 0.047455
#
#
# Mechanical properties :
#
#
# Convention : Reuss Voigt Hill
#
# Bulk Modulus (GPa) = 57.27118 63.24524 60.25821
# Shear Modulus (GPa) = 24.07649 25.81129 24.94389
#
# Velocity S-wave (km/s) = 3.64495 3.77398 3.71003
# Velocity P-wave (km/s) = 7.02261 7.34098 7.18356
#
# Compressibility (1/GPa) = 0.01746079
#
# Stress axis : x y z
#
# Youngs Moduli (GPa) = 81.61148 94.69913 51.22257
#
# Poissons Ratio (x) = 0.30985 0.37830
# Poissons Ratio (y) = 0.26703 0.09118
# Poissons Ratio (z) = 0.60273 0.16857
#
# Static dielectric constant tensor:
#      x y z
#    x 3.412700 0.000000 0.000000 
#    y 0.000000 3.397700 0.000000 
#    z 0.000000 0.000000 3.287950 
# 
# 
# High freq. dielectric constant tensor:
#      x y z
#    x 1.706800 0.000000 0.000000 
#    y 0.000000 1.705610 0.000000 
#    z 0.000000 0.000000 1.705710 
# 
# From -- ./inp_files/31987.got.cif
#   From: 2010.03.12/outbox.cif.g09.slc.cpg/sg63_16_cif.got.tgz:31987.got - 2010.04.10 19:34:48.
