data_PCOD8259999
_publ_section_title
;
Structure prediction by ZEFSAII (Michael W. Deem and Ramdas Pophale) SiO2 
 PCOD8259999
Probable space group: C M C M
;
_chemical_formula_sum "Si O2"
_cell_formula_units_Z 96
_cell_length_a 18.583972
_cell_length_b 30.712901
_cell_length_c 8.921088
_cell_angle_alpha 90.000000
_cell_angle_beta 90.000000
_cell_angle_gamma 90.000000
_cell_volume 5091.868810
_symmetry_space_group_name_H-M "C M C M"
_symmetry_group_IT_number 63
_symmetry_cell_setting 'orthorhombic'
loop_
_space_group_symop_operation_xyz
x,y,z
-x,-y,1/2+z
x,-y,-z
-x,y,1/2-z
-x,-y,-z
x,y,1/2-z
-x,y,z
x,-y,1/2+z
1/2+x,1/2+y,z
1/2-x,1/2-y,1/2+z
1/2+x,1/2-y,-z
1/2-x,1/2+y,1/2-z
1/2-x,1/2-y,-z
1/2+x,1/2+y,1/2-z
1/2-x,1/2+y,z
1/2+x,1/2-y,1/2+z
loop_
_atom_site_type_symbol
_atom_site_label
_atom_site_fract_x
_atom_site_fract_y
_atom_site_fract_z
Si Si1 0.917699 0.045172 0.926223
Si Si2 0.584471 0.800521 0.077238
Si Si3 0.579428 0.296672 0.572237
Si Si4 0.082336 0.455664 0.426050
Si Si5 0.163585 0.622462 0.423971
Si Si6 0.668655 0.621910 0.074796
O O1 0.908047 0.040539 0.750000
O O2 0.000000 0.056307 0.970230
O O3 0.865936 0.082444 0.985621
O O4 0.893343 0.000000 0.000000
O O5 0.606838 0.808042 0.250000
O O6 0.500000 0.809791 0.057850
O O7 0.603689 0.751643 0.022128
O O8 0.629136 0.832003 0.970885
O O9 0.575378 0.296695 0.750000
O O10 0.500000 0.307328 0.507143
O O11 0.634858 0.332910 0.513676
O O12 0.111061 0.500000 0.500000
O O13 0.090513 0.460534 0.250000
O O14 0.130091 0.416081 0.480500
O O15 0.000000 0.446797 0.473649
O O16 0.148123 0.614036 0.250000
O O17 0.247551 0.623944 0.459892
O O18 0.652225 0.615500 0.250000
#
# Coordination Sequence:
#
# PCOD8259999 Si02
#       6
#    16  16  16  16  16  16
#     4  10  21  37  58  83 108 137 176 220 265 313
#     4   9  18  34  56  79 102 135 181 225 265 314
#     4   8  15  31  56  80 101 133 179 224 263 309
#     4  10  21  38  60  82 103 133 175 220 266 317
#     4  11  23  35  50  78 113 145 177 215 262 315
#     4  10  21  36  54  78 109 145 181 216 260 315
#
# _framework density 18.853587999999998
#
# number of rings (size 3 to 8) (size 9 to 14) (size 15 to 20)
#    0.000    2.333    0.000    3.500    0.000    7.667 
#    0.000    0.833    0.000    1.000    0.000    0.000 
#    0.000    0.000    0.000    0.000    0.000    0.000 
#
# Total GULP energy -595287.389020 kJ/mol
# GULP energy per Si atom -12401.820605 kJ/mol
# Density = 1.881068 g / cm^3
# Si number density = 18.853588 Si / 1000 Ang^3
#
#
#
# Elastic Constant Matrix: (Units=GPa)
#
#
# Indices 1 2 3 4 5 6 
#
# 1 89.5883 71.6801 39.4209 0.0000 0.0000 0.0000
# 2 71.6801 154.2054 43.4300 0.0000 0.0000 0.0000
# 3 39.4209 43.4300 55.3805 0.0000 0.0000 0.0000
# 4 0.0000 0.0000 0.0000 30.7879 0.0000 0.0000
# 5 0.0000 0.0000 0.0000 0.0000 24.8122 0.0000
# 6 0.0000 0.0000 0.0000 0.0000 0.0000 -93.6388
#
#
#
# Elastic Compliance Matrix: (Units=1/GPa)
#
#
# Indices 1 2 3 4 5 6 
#
# 1 0.020966 -0.007114 -0.009345 0.000000 0.000000 0.000000
# 2 -0.007114 0.010737 -0.003356 0.000000 0.000000 0.000000
# 3 -0.009345 -0.003356 0.027341 0.000000 0.000000 0.000000
# 4 0.000000 0.000000 0.000000 0.032480 0.000000 0.000000
# 5 0.000000 0.000000 0.000000 0.000000 0.040303 0.000000
# 6 0.000000 0.000000 0.000000 0.000000 0.000000 -0.010679
#
#
# Mechanical properties :
#
#
# Convention : Reuss Voigt Hill
#
# Bulk Modulus (GPa) = 51.51108 67.58179 59.54644
# Shear Modulus (GPa) = 29.89545 2.03515 15.96530
#
# Velocity S-wave (km/s) = 3.98636 1.04009 2.91315
# Velocity P-wave (km/s) = 6.96915 6.11276 6.55495
#
# Compressibility (1/GPa) = 0.01941330
#
# Stress axis : x y z
#
# Youngs Moduli (GPa) = 47.69597 93.13737 36.57501
#
# Poissons Ratio (x) = 0.66256 0.34181
# Poissons Ratio (y) = 0.33930 0.12275
# Poissons Ratio (z) = 0.44574 0.31259
#
# Static dielectric constant tensor:
#      x y z
#    x 3.478950 0.000000 0.000000 
#    y 0.000000 3.729860 0.000000 
#    z 0.000000 0.000000 3.305810 
# 
# 
# High freq. dielectric constant tensor:
#      x y z
#    x 1.727820 0.000000 0.000000 
#    y 0.000000 1.748620 0.000000 
#    z 0.000000 0.000000 1.719250 
# 
# From -- ./inp_files/8518.got.cif
#   From: 2010.03.12/outbox.cif.g09.slc.cpg/sg63_5_cif.got.tgz:8518.got - 2010.04.10 19:34:48.
