data_PCOD8259430
_publ_section_title
;
Structure prediction by ZEFSAII (Michael W. Deem and Ramdas Pophale) SiO2 
 PCOD8259430
Probable space group: C M C M
;
_chemical_formula_sum "Si O2"
_cell_formula_units_Z 96
_cell_length_a 8.731699
_cell_length_b 20.460065
_cell_length_c 24.910955
_cell_angle_alpha 90.000000
_cell_angle_beta 90.000000
_cell_angle_gamma 90.000000
_cell_volume 4450.370238
_symmetry_space_group_name_H-M "C M C M"
_symmetry_group_IT_number 63
_symmetry_cell_setting 'orthorhombic'
loop_
_space_group_symop_operation_xyz
x,y,z
-x,-y,1/2+z
x,-y,-z
-x,y,1/2-z
-x,-y,-z
x,y,1/2-z
-x,y,z
x,-y,1/2+z
1/2+x,1/2+y,z
1/2-x,1/2-y,1/2+z
1/2+x,1/2-y,-z
1/2-x,1/2+y,1/2-z
1/2-x,1/2-y,-z
1/2+x,1/2+y,1/2-z
1/2-x,1/2+y,z
1/2+x,1/2-y,1/2+z
loop_
_atom_site_type_symbol
_atom_site_label
_atom_site_fract_x
_atom_site_fract_y
_atom_site_fract_z
Si Si1 0.317659 0.094571 0.387651
Si Si2 0.177251 0.268408 0.845979
Si Si3 0.319416 0.461181 0.110411
Si Si4 0.331632 0.914045 0.491436
Si Si5 0.329878 0.775394 0.448459
Si Si6 0.324106 0.856696 0.310019
O O1 0.500000 0.090988 0.385752
O O2 0.264057 0.155934 0.350163
O O3 0.260254 0.103469 0.449902
O O4 0.245043 0.028358 0.363583
O O5 0.203978 0.238318 0.904069
O O6 0.268971 0.219478 0.806866
O O7 0.000000 0.266425 0.829756
O O8 0.500000 0.461295 0.110821
O O9 0.266505 0.400637 0.147238
O O10 0.265209 0.462550 0.047309
O O11 0.500000 0.944701 0.500581
O O12 0.347403 0.852086 0.453459
O O13 0.500000 0.744647 0.438027
O O14 0.250000 0.750000 0.500000
O O15 0.304388 0.885689 0.250000
O O16 0.500000 0.856329 0.328390
#
# Coordination Sequence:
#
# PCOD8259430 Si02
#       6
#    16  16  16  16  16  16
#     4  10  22  40  60  87 128 172 206 240 295 363
#     4  11  22  39  63  92 122 156 202 252 305 362
#     4  12  25  39  60  92 126 162 208 256 304 357
#     4  10  20  36  57  84 124 172 212 245 292 356
#     4  11  20  32  54  85 124 166 206 247 295 350
#     4  11  25  46  70  92 116 153 201 253 313 374
#
# _framework density 21.571238999999998
#
# number of rings (size 3 to 8) (size 9 to 14) (size 15 to 20)
#    0.000    1.167    3.333    3.500    0.000    6.000 
#    0.000    0.833    0.000    1.000    0.000    0.000 
#    0.000    0.000    0.000    0.000    0.000    0.000 
#
# Total GULP energy -594645.524281 kJ/mol
# GULP energy per Si atom -12388.448423 kJ/mol
# Density = 2.152214 g / cm^3
# Si number density = 21.571239 Si / 1000 Ang^3
#
#
#
# Elastic Constant Matrix: (Units=GPa)
#
#
# Indices 1 2 3 4 5 6 
#
# 1 68.8735 29.4883 8.9708 0.0000 0.0000 0.0000
# 2 29.4883 123.4641 10.5067 0.0000 0.0000 0.0000
# 3 8.9708 10.5067 62.5980 0.0000 0.0000 0.0000
# 4 0.0000 0.0000 0.0000 20.2682 0.0000 0.0000
# 5 0.0000 0.0000 0.0000 0.0000 21.4804 0.0000
# 6 0.0000 0.0000 0.0000 0.0000 0.0000 32.3119
#
#
#
# Elastic Compliance Matrix: (Units=1/GPa)
#
#
# Indices 1 2 3 4 5 6 
#
# 1 0.016352 -0.003760 -0.001712 0.000000 0.000000 0.000000
# 2 -0.003760 0.009081 -0.000985 0.000000 0.000000 0.000000
# 3 -0.001712 -0.000985 0.016386 0.000000 0.000000 0.000000
# 4 0.000000 0.000000 0.000000 0.049338 0.000000 0.000000
# 5 0.000000 0.000000 0.000000 0.000000 0.046554 0.000000
# 6 0.000000 0.000000 0.000000 0.000000 0.000000 0.030948
#
#
# Mechanical properties :
#
#
# Convention : Reuss Voigt Hill
#
# Bulk Modulus (GPa) = 34.59722 39.20748 36.90235
# Shear Modulus (GPa) = 26.14926 28.54342 27.34634
#
# Velocity S-wave (km/s) = 3.48548 3.64155 3.56437
# Velocity P-wave (km/s) = 5.68080 5.99137 5.83815
#
# Compressibility (1/GPa) = 0.02890406
#
# Stress axis : x y z
#
# Youngs Moduli (GPa) = 61.15391 110.11529 61.02863
#
# Poissons Ratio (x) = 0.41402 0.10450
# Poissons Ratio (y) = 0.22993 0.06014
# Poissons Ratio (z) = 0.10472 0.10851
#
# Static dielectric constant tensor:
#      x y z
#    x 3.852870 0.000000 0.000000 
#    y 0.000000 4.233230 0.000000 
#    z 0.000000 0.000000 3.615760 
# 
# 
# High freq. dielectric constant tensor:
#      x y z
#    x 1.837540 0.000000 0.000000 
#    y 0.000000 1.862330 0.000000 
#    z 0.000000 0.000000 1.822380 
# 
# From -- ./inp_files/66910.got.cif
#   From: 2010.03.12/outbox.cif.g09.slc.cpg/sg63_34_cif.got.tgz:66910.got - 2010.04.10 19:34:48.
