data_PCOD8259703
_publ_section_title
;
Structure prediction by ZEFSAII (Michael W. Deem and Ramdas Pophale) SiO2 
 PCOD8259703
Probable space group: C M C M
;
_chemical_formula_sum "Si O2"
_cell_formula_units_Z 64
_cell_length_a 36.813921
_cell_length_b 9.086687
_cell_length_c 9.907782
_cell_angle_alpha 90.000000
_cell_angle_beta 90.000000
_cell_angle_gamma 90.000000
_cell_volume 3314.317324
_symmetry_space_group_name_H-M "C M C M"
_symmetry_group_IT_number 63
_symmetry_cell_setting 'orthorhombic'
loop_
_space_group_symop_operation_xyz
x,y,z
-x,-y,1/2+z
x,-y,-z
-x,y,1/2-z
-x,-y,-z
x,y,1/2-z
-x,y,z
x,-y,1/2+z
1/2+x,1/2+y,z
1/2-x,1/2-y,1/2+z
1/2+x,1/2-y,-z
1/2-x,1/2+y,1/2-z
1/2-x,1/2-y,-z
1/2+x,1/2+y,1/2-z
1/2-x,1/2+y,z
1/2+x,1/2-y,1/2+z
loop_
_atom_site_type_symbol
_atom_site_label
_atom_site_fract_x
_atom_site_fract_y
_atom_site_fract_z
Si Si1 0.541776 0.634126 0.594629
Si Si2 0.704203 0.721747 0.250000
Si Si3 0.722877 0.613004 0.750000
Si Si4 0.168380 0.832122 0.020732
Si Si5 0.101747 0.363277 0.597182
O O1 0.553998 0.500000 0.500000
O O2 0.548540 0.587557 0.750000
O O3 0.500000 0.676322 0.568391
O O4 0.565320 0.776401 0.555710
O O5 0.722723 0.562709 0.250000
O O6 0.735191 0.844077 0.250000
O O7 0.678762 0.744186 0.379842
O O8 0.703408 0.675563 0.882856
O O9 0.135571 0.746222 0.088145
O O10 0.155639 0.000000 0.000000
O O11 0.107084 0.500000 0.500000
O O12 0.098771 0.421784 0.750000
#
# Coordination Sequence:
#
# PCOD8259703 Si02
#       5
#    16   8   8  16  16
#     4   9  19  38  63  90 119 153 193 235 280 336
#     4  10  22  34  60  84 111 146 189 230 292 347
#     4  10  20  38  56  84 113 146 185 238 288 343
#     4  10  21  39  59  82 112 152 193 238 284 342
#     4  11  24  39  57  85 119 154 192 239 289 337
#
# _framework density 19.310161000000001
#
# number of rings (size 3 to 8) (size 9 to 14) (size 15 to 20)
#    0.000    2.000    1.250    1.500    1.750    3.500 
#    0.000    0.000    0.000    0.000    0.000    0.000 
#    0.000    0.000    0.000    0.000    0.000    0.000 
#
# Total GULP energy -396968.841246 kJ/mol
# GULP energy per Si atom -12405.276289 kJ/mol
# Density = 1.926621 g / cm^3
# Si number density = 19.310161 Si / 1000 Ang^3
#
#
#
# Elastic Constant Matrix: (Units=GPa)
#
#
# Indices 1 2 3 4 5 6 
#
# 1 68.4538 31.7558 15.1796 0.0000 0.0000 0.0000
# 2 31.7558 69.9541 26.6286 0.0000 0.0000 0.0000
# 3 15.1796 26.6286 89.4927 0.0000 0.0000 0.0000
# 4 0.0000 0.0000 0.0000 31.5726 0.0000 0.0000
# 5 0.0000 0.0000 0.0000 0.0000 19.9669 0.0000
# 6 0.0000 0.0000 0.0000 0.0000 0.0000 31.4661
#
#
#
# Elastic Compliance Matrix: (Units=1/GPa)
#
#
# Indices 1 2 3 4 5 6 
#
# 1 0.018547 -0.008144 -0.000723 0.000000 0.000000 0.000000
# 2 -0.008144 0.019697 -0.004480 0.000000 0.000000 0.000000
# 3 -0.000723 -0.004480 0.012630 0.000000 0.000000 0.000000
# 4 0.000000 0.000000 0.000000 0.031673 0.000000 0.000000
# 5 0.000000 0.000000 0.000000 0.000000 0.050083 0.000000
# 6 0.000000 0.000000 0.000000 0.000000 0.000000 0.031780
#
#
# Mechanical properties :
#
#
# Convention : Reuss Voigt Hill
#
# Bulk Modulus (GPa) = 41.35487 41.66983 41.51235
# Shear Modulus (GPa) = 25.10508 26.89023 25.99765
#
# Velocity S-wave (km/s) = 3.60960 3.73573 3.67320
# Velocity P-wave (km/s) = 6.23176 6.34300 6.28763
#
# Compressibility (1/GPa) = 0.02418095
#
# Stress axis : x y z
#
# Youngs Moduli (GPa) = 53.91775 50.76814 79.17946
#
# Poissons Ratio (x) = 0.41347 0.05721
# Poissons Ratio (y) = 0.43912 0.35469
# Poissons Ratio (z) = 0.03896 0.22742
#
# Static dielectric constant tensor:
#      x y z
#    x 3.471520 0.000000 0.000000 
#    y 0.000000 3.315840 0.000000 
#    z 0.000000 0.000000 3.718070 
# 
# 
# High freq. dielectric constant tensor:
#      x y z
#    x 1.755190 0.000000 0.000000 
#    y 0.000000 1.736640 0.000000 
#    z 0.000000 0.000000 1.767150 
# 
# From -- ./inp_files/25507.got.cif
#   From: 2010.03.12/outbox.cif.g09.slc.cpg/sg63_13_cif.got.tgz:25507.got - 2010.04.10 19:34:48.
