data_PCOD8259278
_publ_section_title
;
Structure prediction by ZEFSAII (Michael W. Deem and Ramdas Pophale) SiO2 
 PCOD8259278
Probable space group: C M C M
;
_chemical_formula_sum "Si O2"
_cell_formula_units_Z 96
_cell_length_a 8.983335
_cell_length_b 28.797633
_cell_length_c 20.345605
_cell_angle_alpha 90.000000
_cell_angle_beta 90.000000
_cell_angle_gamma 90.000000
_cell_volume 5263.383282
_symmetry_space_group_name_H-M "C M C M"
_symmetry_group_IT_number 63
_symmetry_cell_setting 'orthorhombic'
loop_
_space_group_symop_operation_xyz
x,y,z
-x,-y,1/2+z
x,-y,-z
-x,y,1/2-z
-x,-y,-z
x,y,1/2-z
-x,y,z
x,-y,1/2+z
1/2+x,1/2+y,z
1/2-x,1/2-y,1/2+z
1/2+x,1/2-y,-z
1/2-x,1/2+y,1/2-z
1/2-x,1/2-y,-z
1/2+x,1/2+y,1/2-z
1/2-x,1/2+y,z
1/2+x,1/2-y,1/2+z
loop_
_atom_site_type_symbol
_atom_site_label
_atom_site_fract_x
_atom_site_fract_y
_atom_site_fract_z
Si Si1 0.173316 0.379273 0.978022
Si Si2 0.823938 0.970556 0.562745
Si Si3 0.173515 0.724228 0.439597
Si Si4 0.825664 0.276512 0.174878
Si Si5 0.823904 0.625324 0.626276
Si Si6 0.673147 0.972995 0.325010
O O1 0.262150 0.418536 0.939196
O O2 0.203364 0.330571 0.942772
O O3 0.000000 0.392480 0.977967
O O4 0.236547 0.376574 0.052036
O O5 0.000000 0.968886 0.563993
O O6 0.765775 0.000000 0.500000
O O7 0.767142 0.993096 0.629701
O O8 0.250000 0.750000 0.500000
O O9 0.238821 0.740452 0.370366
O O10 0.000000 0.735695 0.443521
O O11 0.794046 0.262980 0.250000
O O12 0.763163 0.328447 0.161690
O O13 0.000000 0.273656 0.157891
O O14 0.769717 0.579824 0.665225
O O15 0.000000 0.627984 0.626271
O O16 0.700323 0.987746 0.250000
O O17 0.500000 0.976884 0.344413
#
# Coordination Sequence:
#
# PCOD8259278 Si02
#       6
#    16  16  16  16  16  16
#     4  10  20  36  59  83 108 146 192 233 271 321
#     4  11  23  37  55  82 115 148 182 226 281 333
#     4  11  22  37  58  84 115 149 190 234 279 331
#     4  10  20  36  58  85 118 153 189 230 280 336
#     4   9  16  31  56  85 114 143 182 229 275 327
#     4  10  20  35  58  85 111 145 187 229 275 329
#
# _framework density 18.239218999999999
#
# number of rings (size 3 to 8) (size 9 to 14) (size 15 to 20)
#    0.000    1.833    3.333    1.500    0.000    4.667 
#    0.000    1.667    0.000    3.000    0.000    0.000 
#    0.000    0.000    0.000    0.000    0.000    0.000 
#
# Total GULP energy -595331.209991 kJ/mol
# GULP energy per Si atom -12402.733541 kJ/mol
# Density = 1.819771 g / cm^3
# Si number density = 18.239219 Si / 1000 Ang^3
#
#
#
# Elastic Constant Matrix: (Units=GPa)
#
#
# Indices 1 2 3 4 5 6 
#
# 1 68.4202 57.9503 48.9936 0.0000 0.0000 0.0000
# 2 57.9503 120.1847 67.7102 0.0000 0.0000 0.0000
# 3 48.9936 67.7102 117.9744 0.0000 0.0000 0.0000
# 4 0.0000 0.0000 0.0000 30.8720 0.0000 0.0000
# 5 0.0000 0.0000 0.0000 0.0000 29.1249 0.0000
# 6 0.0000 0.0000 0.0000 0.0000 0.0000 26.5196
#
#
#
# Elastic Compliance Matrix: (Units=1/GPa)
#
#
# Indices 1 2 3 4 5 6 
#
# 1 0.026932 -0.009879 -0.005514 0.000000 0.000000 0.000000
# 2 -0.009879 0.015920 -0.005035 0.000000 0.000000 0.000000
# 3 -0.005514 -0.005035 0.013656 0.000000 0.000000 0.000000
# 4 0.000000 0.000000 0.000000 0.032392 0.000000 0.000000
# 5 0.000000 0.000000 0.000000 0.000000 0.034335 0.000000
# 6 0.000000 0.000000 0.000000 0.000000 0.000000 0.037708
#
#
# Mechanical properties :
#
#
# Convention : Reuss Voigt Hill
#
# Bulk Modulus (GPa) = 63.89048 72.87639 68.38344
# Shear Modulus (GPa) = 24.15266 26.09832 25.12549
#
# Velocity S-wave (km/s) = 3.64292 3.78681 3.71557
# Velocity P-wave (km/s) = 7.26634 7.69172 7.48206
#
# Compressibility (1/GPa) = 0.01565178
#
# Stress axis : x y z
#
# Youngs Moduli (GPa) = 37.13105 62.81217 73.22720
#
# Poissons Ratio (x) = 0.62053 0.40381
# Poissons Ratio (y) = 0.36682 0.36868
# Poissons Ratio (z) = 0.20476 0.31624
#
# Static dielectric constant tensor:
#      x y z
#    x 3.168210 0.000000 0.000000 
#    y 0.000000 3.454220 0.000000 
#    z 0.000000 0.000000 3.359630 
# 
# 
# High freq. dielectric constant tensor:
#      x y z
#    x 1.687200 0.000000 0.000000 
#    y 0.000000 1.711230 0.000000 
#    z 0.000000 0.000000 1.707140 
# 
# From -- ./inp_files/51274.got.cif
#   From: 2010.03.12/outbox.cif.g09.slc.cpg/sg63_26_cif.got.tgz:51274.got - 2010.04.10 19:34:48.
