data_PCOD8259722
_publ_section_title
;
Structure prediction by ZEFSAII (Michael W. Deem and Ramdas Pophale) SiO2 
 PCOD8259722
Probable space group: C M C M
;
_chemical_formula_sum "Si O2"
_cell_formula_units_Z 72
_cell_length_a 16.388283
_cell_length_b 24.927788
_cell_length_c 8.891125
_cell_angle_alpha 90.000000
_cell_angle_beta 90.000000
_cell_angle_gamma 90.000000
_cell_volume 3632.234787
_symmetry_space_group_name_H-M "C M C M"
_symmetry_group_IT_number 63
_symmetry_cell_setting 'orthorhombic'
loop_
_space_group_symop_operation_xyz
x,y,z
-x,-y,1/2+z
x,-y,-z
-x,y,1/2-z
-x,-y,-z
x,y,1/2-z
-x,y,z
x,-y,1/2+z
1/2+x,1/2+y,z
1/2-x,1/2-y,1/2+z
1/2+x,1/2-y,-z
1/2-x,1/2+y,1/2-z
1/2-x,1/2-y,-z
1/2+x,1/2+y,1/2-z
1/2-x,1/2+y,z
1/2+x,1/2-y,1/2+z
loop_
_atom_site_type_symbol
_atom_site_label
_atom_site_fract_x
_atom_site_fract_y
_atom_site_fract_z
Si Si1 0.643210 0.637314 0.571524
Si Si2 0.403863 0.052098 0.918151
Si Si3 0.500000 0.558472 0.927840
Si Si4 0.590541 0.246538 0.428652
Si Si5 0.685491 0.856167 0.572147
O O1 0.649944 0.638506 0.750000
O O2 0.579788 0.591565 0.519222
O O3 0.614550 0.695061 0.508651
O O4 0.730643 0.624809 0.501863
O O5 0.366406 0.056947 0.750000
O O6 0.500000 0.046562 0.907210
O O7 0.383965 0.103374 0.018791
O O8 0.366050 0.000000 0.000000
O O9 0.500000 0.551720 0.750000
O O10 0.500000 0.500000 0.000000
O O11 0.588742 0.247791 0.250000
O O12 0.500000 0.231822 0.489186
O O13 0.656739 0.202811 0.484237
O O14 0.694283 0.857973 0.750000
#
# Coordination Sequence:
#
# PCOD8259722 Si02
#       5
#    16  16   8  16  16
#     4  10  20  38  60  81 110 150 196 243 292 348
#     4  10  21  38  59  82 112 150 191 235 282 337
#     4  10  22  40  64  86 108 148 197 246 299 350
#     4   9  17  33  58  84 113 151 195 238 288 349
#     4  11  22  34  55  88 121 152 188 235 291 351
#
# _framework density 19.822506000000001
#
# number of rings (size 3 to 8) (size 9 to 14) (size 15 to 20)
#    0.000    2.000    1.111    2.667    0.000    4.000 
#    0.000    3.333    0.000    2.667    0.000    0.000 
#    0.000    0.000    0.000    0.000    0.000    0.000 
#
# Total GULP energy -446405.364840 kJ/mol
# GULP energy per Si atom -12400.149023 kJ/mol
# Density = 1.977739 g / cm^3
# Si number density = 19.822506 Si / 1000 Ang^3
#
#
#
# Elastic Constant Matrix: (Units=GPa)
#
#
# Indices 1 2 3 4 5 6 
#
# 1 80.5158 41.9278 31.5194 0.0000 0.0000 0.0000
# 2 41.9278 160.3982 38.4554 0.0000 0.0000 0.0000
# 3 31.5194 38.4554 38.2818 0.0000 0.0000 0.0000
# 4 0.0000 0.0000 0.0000 30.6168 0.0000 0.0000
# 5 0.0000 0.0000 0.0000 0.0000 27.7409 0.0000
# 6 0.0000 0.0000 0.0000 0.0000 0.0000 21.9242
#
#
#
# Elastic Compliance Matrix: (Units=1/GPa)
#
#
# Indices 1 2 3 4 5 6 
#
# 1 0.018622 -0.001570 -0.013756 0.000000 0.000000 0.000000
# 2 -0.001570 0.008345 -0.007090 0.000000 0.000000 0.000000
# 3 -0.013756 -0.007090 0.044570 0.000000 0.000000 0.000000
# 4 0.000000 0.000000 0.000000 0.032662 0.000000 0.000000
# 5 0.000000 0.000000 0.000000 0.000000 0.036048 0.000000
# 6 0.000000 0.000000 0.000000 0.000000 0.000000 0.045612
#
#
# Mechanical properties :
#
#
# Convention : Reuss Voigt Hill
#
# Bulk Modulus (GPa) = 37.44496 55.88901 46.66698
# Shear Modulus (GPa) = 20.86885 27.20926 24.03906
#
# Velocity S-wave (km/s) = 3.24819 3.70894 3.48618
# Velocity P-wave (km/s) = 5.74445 6.82624 6.30858
#
# Compressibility (1/GPa) = 0.02670587
#
# Stress axis : x y z
#
# Youngs Moduli (GPa) = 53.69878 119.83716 22.43663
#
# Poissons Ratio (x) = 0.18814 0.30863
# Poissons Ratio (y) = 0.08430 0.15907
# Poissons Ratio (z) = 0.73867 0.84963
#
# Static dielectric constant tensor:
#      x y z
#    x 3.593920 0.000000 0.000000 
#    y 0.000000 3.785460 0.000000 
#    z 0.000000 0.000000 3.414510 
# 
# 
# High freq. dielectric constant tensor:
#      x y z
#    x 1.773750 0.000000 0.000000 
#    y 0.000000 1.783240 0.000000 
#    z 0.000000 0.000000 1.749830 
# 
# From -- ./inp_files/4625.got.cif
#   From: 2010.03.12/outbox.cif.g09.slc.cpg/sg63_3_cif.got.tgz:4625.got - 2010.04.10 19:34:48.
