data_PCOD8259944
_publ_section_title
;
Structure prediction by ZEFSAII (Michael W. Deem and Ramdas Pophale) SiO2 
 PCOD8259944
Probable space group: C M C M
;
_chemical_formula_sum "Si O2"
_cell_formula_units_Z 88
_cell_length_a 18.919057
_cell_length_b 24.710712
_cell_length_c 9.571302
_cell_angle_alpha 90.000000
_cell_angle_beta 90.000000
_cell_angle_gamma 90.000000
_cell_volume 4474.615929
_symmetry_space_group_name_H-M "C M C M"
_symmetry_group_IT_number 63
_symmetry_cell_setting 'orthorhombic'
loop_
_space_group_symop_operation_xyz
x,y,z
-x,-y,1/2+z
x,-y,-z
-x,y,1/2-z
-x,-y,-z
x,y,1/2-z
-x,y,z
x,-y,1/2+z
1/2+x,1/2+y,z
1/2-x,1/2-y,1/2+z
1/2+x,1/2-y,-z
1/2-x,1/2+y,1/2-z
1/2-x,1/2-y,-z
1/2+x,1/2+y,1/2-z
1/2-x,1/2+y,z
1/2+x,1/2-y,1/2+z
loop_
_atom_site_type_symbol
_atom_site_label
_atom_site_fract_x
_atom_site_fract_y
_atom_site_fract_z
Si Si1 0.000000 0.948625 0.407027
Si Si2 0.580170 0.725929 0.414240
Si Si3 0.416742 0.948346 0.411889
Si Si4 0.847902 0.052122 0.592122
Si Si5 0.855027 0.663594 0.585733
Si Si6 0.199399 0.834079 0.412395
O O1 0.925399 0.919183 0.437769
O O2 0.000000 0.969792 0.250000
O O3 0.000000 0.000000 0.500000
O O4 0.592984 0.716787 0.250000
O O5 0.500000 0.709290 0.455999
O O6 0.590219 0.789074 0.454346
O O7 0.637245 0.690839 0.496257
O O8 0.396655 0.957986 0.250000
O O9 0.500000 0.940333 0.429659
O O10 0.380227 0.894139 0.476021
O O11 0.389683 0.000000 0.500000
O O12 0.843184 0.030857 0.750000
O O13 0.794658 0.100971 0.565032
O O14 0.830298 0.000000 0.500000
O O15 0.851918 0.655022 0.750000
O O16 0.777192 0.684077 0.535340
O O17 0.184753 0.819770 0.250000
#
# Coordination Sequence:
#
# PCOD8259944 Si02
#       6
#     8  16  16  16  16  16
#     4   8  14  26  42  60  84 118 156 194 231 278
#     4  10  21  37  57  79 102 134 178 222 261 311
#     4   9  17  31  53  80 110 144 180 219 260 307
#     4   9  18  31  48  70  98 132 167 203 249 301
#     4   9  18  35  56  77 105 142 179 212 258 318
#     4  10  21  35  54  79 107 138 172 217 268 317
#
# _framework density 19.666491000000001
#
# number of rings (size 3 to 8) (size 9 to 14) (size 15 to 20)
#    0.000    2.727    0.000    1.091    1.273    4.000 
#    0.000    1.818    0.000    2.182    0.000    0.000 
#    0.000    0.000    0.000    0.000    0.000    0.000 
#
# Total GULP energy -545091.263037 kJ/mol
# GULP energy per Si atom -12388.437796 kJ/mol
# Density = 1.962173 g / cm^3
# Si number density = 19.666491 Si / 1000 Ang^3
#
#
#
# Elastic Constant Matrix: (Units=GPa)
#
#
# Indices 1 2 3 4 5 6 
#
# 1 87.9080 35.4931 32.9835 0.0000 0.0000 0.0000
# 2 35.4931 86.2274 35.2813 0.0000 0.0000 0.0000
# 3 32.9835 35.2813 51.6741 0.0000 0.0000 0.0000
# 4 0.0000 0.0000 0.0000 27.8230 0.0000 0.0000
# 5 0.0000 0.0000 0.0000 0.0000 22.2895 0.0000
# 6 0.0000 0.0000 0.0000 0.0000 0.0000 29.6440
#
#
#
# Elastic Compliance Matrix: (Units=1/GPa)
#
#
# Indices 1 2 3 4 5 6 
#
# 1 0.015589 -0.003255 -0.007728 0.000000 0.000000 0.000000
# 2 -0.003255 0.016773 -0.009374 0.000000 0.000000 0.000000
# 3 -0.007728 -0.009374 0.030686 0.000000 0.000000 0.000000
# 4 0.000000 0.000000 0.000000 0.035941 0.000000 0.000000
# 5 0.000000 0.000000 0.000000 0.000000 0.044864 0.000000
# 6 0.000000 0.000000 0.000000 0.000000 0.000000 0.033734
#
#
# Mechanical properties :
#
#
# Convention : Reuss Voigt Hill
#
# Bulk Modulus (GPa) = 44.77756 48.14725 46.46240
# Shear Modulus (GPa) = 22.14880 24.08807 23.11844
#
# Velocity S-wave (km/s) = 3.35956 3.50355 3.43231
# Velocity P-wave (km/s) = 6.15360 6.39543 6.27568
#
# Compressibility (1/GPa) = 0.02233262
#
# Stress axis : x y z
#
# Youngs Moduli (GPa) = 64.14620 59.62116 32.58866
#
# Poissons Ratio (x) = 0.19405 0.25186
# Poissons Ratio (y) = 0.20878 0.30549
# Poissons Ratio (z) = 0.49575 0.55890
#
# Static dielectric constant tensor:
#      x y z
#    x 3.589840 0.000000 0.000000 
#    y 0.000000 3.458490 0.000000 
#    z 0.000000 0.000000 3.347310 
# 
# 
# High freq. dielectric constant tensor:
#      x y z
#    x 1.778530 0.000000 0.000000 
#    y 0.000000 1.761820 0.000000 
#    z 0.000000 0.000000 1.735080 
# 
# From -- ./inp_files/8239.got.cif
#   From: 2010.03.12/outbox.cif.g09.slc.cpg/sg63_5_cif.got.tgz:8239.got - 2010.04.10 19:34:48.
