data_PCOD8259872
_publ_section_title
;
Structure prediction by ZEFSAII (Michael W. Deem and Ramdas Pophale) SiO2 
 PCOD8259872
Probable space group: C M C M
;
_chemical_formula_sum "Si O2"
_cell_formula_units_Z 96
_cell_length_a 23.837534
_cell_length_b 14.375650
_cell_length_c 13.869013
_cell_angle_alpha 90.000000
_cell_angle_beta 90.000000
_cell_angle_gamma 90.000000
_cell_volume 4752.634008
_symmetry_space_group_name_H-M "C M C M"
_symmetry_group_IT_number 63
_symmetry_cell_setting 'orthorhombic'
loop_
_space_group_symop_operation_xyz
x,y,z
-x,-y,1/2+z
x,-y,-z
-x,y,1/2-z
-x,-y,-z
x,y,1/2-z
-x,y,z
x,-y,1/2+z
1/2+x,1/2+y,z
1/2-x,1/2-y,1/2+z
1/2+x,1/2-y,-z
1/2-x,1/2+y,1/2-z
1/2-x,1/2-y,-z
1/2+x,1/2+y,1/2-z
1/2-x,1/2+y,z
1/2+x,1/2-y,1/2+z
loop_
_atom_site_type_symbol
_atom_site_label
_atom_site_fract_x
_atom_site_fract_y
_atom_site_fract_z
Si Si1 0.437211 0.930278 0.250000
Si Si2 0.743765 0.521497 0.608889
Si Si3 0.862207 0.425728 0.417677
Si Si4 0.658934 0.675505 0.857165
Si Si5 0.372290 0.718177 0.056174
Si Si6 0.064213 0.791239 0.750000
Si Si7 0.757318 0.813844 0.646020
O O1 0.500000 0.968450 0.250000
O O2 0.405455 0.970031 0.342409
O O3 0.433458 0.819233 0.250000
O O4 0.728529 0.500000 0.500000
O O5 0.799140 0.586107 0.624119
O O6 0.691750 0.577948 0.652647
O O7 0.755059 0.423290 0.659624
O O8 0.857081 0.500000 0.500000
O O9 0.886230 0.327129 0.452331
O O10 0.630920 0.691537 0.750000
O O11 0.700509 0.760959 0.883963
O O12 0.614864 0.673560 0.948880
O O13 0.405908 0.674135 0.149156
O O14 0.306012 0.702207 0.069027
O O15 0.000000 0.827768 0.750000
O O16 0.777475 0.775054 0.750000
#
# Coordination Sequence:
#
# PCOD8259872 Si02
#       7
#     8  16  16  16  16   8  16
#     4   9  20  36  55  76 102 141 194 245 286 317
#     4  11  20  32  50  76 117 152 191 221 265 336
#     4  10  21  33  52  78 106 148 187 230 279 329
#     4  11  22  33  50  78 121 161 181 213 278 343
#     4  11  19  37  55  79 114 144 187 237 282 321
#     4   9  20  38  65  86 100 137 196 253 288 313
#     4  11  21  32  50  78 113 156 188 227 269 335
#
# _framework density 20.199325000000002
#
# number of rings (size 3 to 8) (size 9 to 14) (size 15 to 20)
#    0.000    1.500    4.167    3.000    2.333    0.333 
#    1.500    0.000    0.000    0.500    0.000    2.333 
#    0.000    0.000    0.000    0.000    0.000    0.000 
#
# Total GULP energy -594683.685258 kJ/mol
# GULP energy per Si atom -12389.243443 kJ/mol
# Density = 2.015335 g / cm^3
# Si number density = 20.199325 Si / 1000 Ang^3
#
#
#
# Elastic Constant Matrix: (Units=GPa)
#
#
# Indices 1 2 3 4 5 6 
#
# 1 54.8815 1.1784 45.4798 0.0000 0.0000 0.0000
# 2 1.1784 63.7760 4.8573 0.0000 0.0000 0.0000
# 3 45.4798 4.8573 169.3009 0.0000 0.0000 0.0000
# 4 0.0000 0.0000 0.0000 9.0169 0.0000 0.0000
# 5 0.0000 0.0000 0.0000 0.0000 23.5056 0.0000
# 6 0.0000 0.0000 0.0000 0.0000 0.0000 10.9882
#
#
#
# Elastic Compliance Matrix: (Units=1/GPa)
#
#
# Indices 1 2 3 4 5 6 
#
# 1 0.023439 0.000047 -0.006298 0.000000 0.000000 0.000000
# 2 0.000047 0.015714 -0.000463 0.000000 0.000000 0.000000
# 3 -0.006298 -0.000463 0.007612 0.000000 0.000000 0.000000
# 4 0.000000 0.000000 0.000000 0.110903 0.000000 0.000000
# 5 0.000000 0.000000 0.000000 0.000000 0.042543 0.000000
# 6 0.000000 0.000000 0.000000 0.000000 0.000000 0.091006
#
#
# Mechanical properties :
#
#
# Convention : Reuss Voigt Hill
#
# Bulk Modulus (GPa) = 29.99774 43.44324 36.72049
# Shear Modulus (GPa) = 15.83488 24.46500 20.14994
#
# Velocity S-wave (km/s) = 2.80291 3.48398 3.16184
# Velocity P-wave (km/s) = 5.03569 6.14313 5.61677
#
# Compressibility (1/GPa) = 0.03333585
#
# Stress axis : x y z
#
# Youngs Moduli (GPa) = 42.66388 63.63623 131.37603
#
# Poissons Ratio (x) = -0.00296 0.82738
# Poissons Ratio (y) = -0.00199 0.06087
# Poissons Ratio (z) = 0.26869 0.02949
#
# Static dielectric constant tensor:
#      x y z
#    x 3.329540 0.000000 0.000000 
#    y 0.000000 3.564360 0.000000 
#    z 0.000000 0.000000 3.947660 
# 
# 
# High freq. dielectric constant tensor:
#      x y z
#    x 1.719470 0.000000 0.000000 
#    y 0.000000 1.768900 0.000000 
#    z 0.000000 0.000000 1.818320 
# 
# From -- ./inp_files/37871.got.cif
#   From: 2010.03.12/outbox.cif.g09.slc.cpg/sg63_19_cif.got.tgz:37871.got - 2010.04.10 19:34:48.
