data_PCOD8259206
_publ_section_title
;
Structure prediction by ZEFSAII (Michael W. Deem and Ramdas Pophale) SiO2 
 PCOD8259206
Probable space group: C M C M
;
_chemical_formula_sum "Si O2"
_cell_formula_units_Z 96
_cell_length_a 8.751780
_cell_length_b 23.664746
_cell_length_c 25.497690
_cell_angle_alpha 90.000000
_cell_angle_beta 90.000000
_cell_angle_gamma 90.000000
_cell_volume 5280.792173
_symmetry_space_group_name_H-M "C M C M"
_symmetry_group_IT_number 63
_symmetry_cell_setting 'orthorhombic'
loop_
_space_group_symop_operation_xyz
x,y,z
-x,-y,1/2+z
x,-y,-z
-x,y,1/2-z
-x,-y,-z
x,y,1/2-z
-x,y,z
x,-y,1/2+z
1/2+x,1/2+y,z
1/2-x,1/2-y,1/2+z
1/2+x,1/2-y,-z
1/2-x,1/2+y,1/2-z
1/2-x,1/2-y,-z
1/2+x,1/2+y,1/2-z
1/2-x,1/2+y,z
1/2+x,1/2-y,1/2+z
loop_
_atom_site_type_symbol
_atom_site_label
_atom_site_fract_x
_atom_site_fract_y
_atom_site_fract_z
Si Si1 0.319940 0.732264 0.055477
Si Si2 0.829723 0.923951 0.470292
Si Si3 0.825950 0.170624 0.883810
Si Si4 0.677359 0.887706 0.570744
Si Si5 0.322703 0.489421 0.880956
Si Si6 0.323281 0.083029 0.811572
O O1 0.500000 0.735377 0.049271
O O2 0.265983 0.772914 0.102345
O O3 0.271528 0.669878 0.072360
O O4 0.250000 0.750000 0.000000
O O5 0.817169 0.869875 0.433546
O O6 0.703603 0.918508 0.515136
O O7 0.000000 0.926324 0.495476
O O8 0.798680 0.980347 0.437156
O O9 0.752179 0.140043 0.833793
O O10 0.000000 0.186264 0.870096
O O11 0.500000 0.874817 0.578991
O O12 0.737645 0.929063 0.616787
O O13 0.500000 0.480513 0.868445
O O14 0.252995 0.526846 0.834706
O O15 0.296680 0.082530 0.750000
O O16 0.500000 0.082891 0.827295
#
# Coordination Sequence:
#
# PCOD8259206 Si02
#       6
#    16  16  16  16  16  16
#     4  12  23  36  54  77 111 152 193 230 270 325
#     4   9  18  32  50  73 107 145 182 224 269 318
#     4  10  20  35  56  82 112 145 186 232 276 325
#     4  12  23  33  50  76 110 150 188 224 270 327
#     4  10  21  36  54  77 108 143 184 230 275 328
#     4  10  21  38  61  87 113 141 179 230 283 333
#
# _framework density 18.179091
#
# number of rings (size 3 to 8) (size 9 to 14) (size 15 to 20)
#    0.000    1.500    1.667    6.000    0.000    6.667 
#    0.000    0.000    0.000    1.000    0.000    0.000 
#    0.000    0.000    0.000    0.000    0.000    0.000 
#
# Total GULP energy -595350.523468 kJ/mol
# GULP energy per Si atom -12403.135906 kJ/mol
# Density = 1.813771 g / cm^3
# Si number density = 18.179091 Si / 1000 Ang^3
#
#
#
# Elastic Constant Matrix: (Units=GPa)
#
#
# Indices 1 2 3 4 5 6 
#
# 1 150.8314 50.2455 47.2021 0.0000 0.0000 0.0000
# 2 50.2455 115.0356 38.3789 0.0000 0.0000 0.0000
# 3 47.2021 38.3789 62.0586 0.0000 0.0000 0.0000
# 4 0.0000 0.0000 0.0000 8.1978 0.0000 0.0000
# 5 0.0000 0.0000 0.0000 0.0000 25.8430 0.0000
# 6 0.0000 0.0000 0.0000 0.0000 0.0000 34.0740
#
#
#
# Elastic Compliance Matrix: (Units=1/GPa)
#
#
# Indices 1 2 3 4 5 6 
#
# 1 0.009085 -0.002095 -0.005614 0.000000 0.000000 0.000000
# 2 -0.002095 0.011436 -0.005479 0.000000 0.000000 0.000000
# 3 -0.005614 -0.005479 0.023772 0.000000 0.000000 0.000000
# 4 0.000000 0.000000 0.000000 0.121984 0.000000 0.000000
# 5 0.000000 0.000000 0.000000 0.000000 0.038695 0.000000
# 6 0.000000 0.000000 0.000000 0.000000 0.000000 0.029348
#
#
# Mechanical properties :
#
#
# Convention : Reuss Voigt Hill
#
# Bulk Modulus (GPa) = 55.81374 66.61984 61.21679
# Shear Modulus (GPa) = 18.74989 26.42958 22.58973
#
# Velocity S-wave (km/s) = 3.21502 3.81707 3.52891
# Velocity P-wave (km/s) = 6.67463 7.49351 7.09589
#
# Compressibility (1/GPa) = 0.01791674
#
# Stress axis : x y z
#
# Youngs Moduli (GPa) = 110.07407 87.44391 42.06560
#
# Poissons Ratio (x) = 0.18319 0.23617
# Poissons Ratio (y) = 0.23060 0.23047
# Poissons Ratio (z) = 0.61799 0.47909
#
# Static dielectric constant tensor:
#      x y z
#    x 3.513290 0.000000 0.000000 
#    y 0.000000 3.593790 0.000000 
#    z 0.000000 0.000000 3.046630 
# 
# 
# High freq. dielectric constant tensor:
#      x y z
#    x 1.720100 0.000000 0.000000 
#    y 0.000000 1.713490 0.000000 
#    z 0.000000 0.000000 1.666100 
# 
# From -- ./inp_files/67253.got.cif
#   From: 2010.03.12/outbox.cif.g09.slc.cpg/sg63_34_cif.got.tgz:67253.got - 2010.04.10 19:34:48.
