data_PCOD8259562
_publ_section_title
;
Structure prediction by ZEFSAII (Michael W. Deem and Ramdas Pophale) SiO2 
 PCOD8259562
Probable space group: C M C M
;
_chemical_formula_sum "Si O2"
_cell_formula_units_Z 80
_cell_length_a 7.517961
_cell_length_b 20.399918
_cell_length_c 26.443560
_cell_angle_alpha 90.000000
_cell_angle_beta 90.000000
_cell_angle_gamma 90.000000
_cell_volume 4055.537415
_symmetry_space_group_name_H-M "C M C M"
_symmetry_group_IT_number 63
_symmetry_cell_setting 'orthorhombic'
loop_
_space_group_symop_operation_xyz
x,y,z
-x,-y,1/2+z
x,-y,-z
-x,y,1/2-z
-x,-y,-z
x,y,1/2-z
-x,y,z
x,-y,1/2+z
1/2+x,1/2+y,z
1/2-x,1/2-y,1/2+z
1/2+x,1/2-y,-z
1/2-x,1/2+y,1/2-z
1/2-x,1/2-y,-z
1/2+x,1/2+y,1/2-z
1/2-x,1/2+y,z
1/2+x,1/2-y,1/2+z
loop_
_atom_site_type_symbol
_atom_site_label
_atom_site_fract_x
_atom_site_fract_y
_atom_site_fract_z
Si Si1 0.500000 0.296680 0.308240
Si Si2 0.791817 0.629292 0.066733
Si Si3 0.199975 0.740824 0.881051
Si Si4 0.000000 0.951569 0.308427
Si Si5 0.290248 0.126747 0.546239
Si Si6 0.208086 0.509260 0.883285
O O1 0.500000 0.276690 0.250000
O O2 0.675775 0.264780 0.332281
O O3 0.500000 0.374016 0.316337
O O4 0.695558 0.685766 0.098079
O O5 0.750362 0.561172 0.093648
O O6 0.000000 0.644778 0.065579
O O7 0.709703 0.627404 0.010183
O O8 0.272944 0.691895 0.924479
O O9 0.000000 0.720609 0.864969
O O10 0.178465 0.981945 0.332462
O O11 0.000000 0.971330 0.250000
O O12 0.500000 0.123479 0.541234
O O13 0.224219 0.062696 0.576125
O O14 0.000000 0.518215 0.869989
#
# Coordination Sequence:
#
# PCOD8259562 Si02
#       6
#     8  16  16   8  16  16
#     4  11  24  44  67  87 112 153 204 258 309 353
#     4  10  20  36  61  88 130 165 195 235 297 358
#     4  11  22  39  61  89 124 157 200 250 297 354
#     4  11  24  42  66  90 112 150 204 262 307 353
#     4   9  18  35  59  90 122 165 198 237 292 356
#     4  10  21  39  61  88 124 159 197 247 294 357
#
# _framework density 19.726115
#
# number of rings (size 3 to 8) (size 9 to 14) (size 15 to 20)
#    0.000    1.800    3.000    1.200    1.400    3.200 
#    3.600    4.000    0.000    0.000    0.000    0.000 
#    0.000    0.000    0.000    0.000    0.000    0.000 
#
# Total GULP energy -496130.127547 kJ/mol
# GULP energy per Si atom -12403.253189 kJ/mol
# Density = 1.968122 g / cm^3
# Si number density = 19.726115 Si / 1000 Ang^3
#
#
#
# Elastic Constant Matrix: (Units=GPa)
#
#
# Indices 1 2 3 4 5 6 
#
# 1 92.6034 34.9969 67.7498 0.0000 0.0000 0.0000
# 2 34.9969 134.0691 63.0090 0.0000 0.0000 0.0000
# 3 67.7498 63.0090 167.2609 0.0000 0.0000 0.0000
# 4 0.0000 0.0000 0.0000 18.3497 0.0000 0.0000
# 5 0.0000 0.0000 0.0000 0.0000 10.0882 0.0000
# 6 0.0000 0.0000 0.0000 0.0000 0.0000 -17.1368
#
#
#
# Elastic Compliance Matrix: (Units=1/GPa)
#
#
# Indices 1 2 3 4 5 6 
#
# 1 0.015541 -0.001335 -0.005792 0.000000 0.000000 0.000000
# 2 -0.001335 0.009178 -0.002917 0.000000 0.000000 0.000000
# 3 -0.005792 -0.002917 0.009424 0.000000 0.000000 0.000000
# 4 0.000000 0.000000 0.000000 0.054497 0.000000 0.000000
# 5 0.000000 0.000000 0.000000 0.000000 0.099126 0.000000
# 6 0.000000 0.000000 0.000000 0.000000 0.000000 -0.058354
#
#
# Mechanical properties :
#
#
# Convention : Reuss Voigt Hill
#
# Bulk Modulus (GPa) = 71.14766 80.60499 75.87633
# Shear Modulus (GPa) = 32.42903 17.47208 24.95055
#
# Velocity S-wave (km/s) = 4.05898 2.97936 3.56033
# Velocity P-wave (km/s) = 7.62320 7.26541 7.44645
#
# Compressibility (1/GPa) = 0.01405528
#
# Stress axis : x y z
#
# Youngs Moduli (GPa) = 64.34731 108.95523 106.11620
#
# Poissons Ratio (x) = 0.14541 0.61463
# Poissons Ratio (y) = 0.08587 0.30953
# Poissons Ratio (z) = 0.37271 0.31781
#
# Static dielectric constant tensor:
#      x y z
#    x 3.477120 0.000000 0.000000 
#    y 0.000000 3.592150 0.000000 
#    z 0.000000 0.000000 3.542360 
# 
# 
# High freq. dielectric constant tensor:
#      x y z
#    x 1.769080 0.000000 0.000000 
#    y 0.000000 1.775870 0.000000 
#    z 0.000000 0.000000 1.754100 
# 
# From -- ./inp_files/66662.got.cif
#   From: 2010.03.12/outbox.cif.g09.slc.cpg/sg63_34_cif.got.tgz:66662.got - 2010.04.10 19:34:48.
