data_PCOD8259564
_publ_section_title
;
Structure prediction by ZEFSAII (Michael W. Deem and Ramdas Pophale) SiO2 
 PCOD8259564
Probable space group: C M C M
;
_chemical_formula_sum "Si O2"
_cell_formula_units_Z 80
_cell_length_a 10.023559
_cell_length_b 20.794772
_cell_length_c 20.713931
_cell_angle_alpha 90.000000
_cell_angle_beta 90.000000
_cell_angle_gamma 90.000000
_cell_volume 4317.562562
_symmetry_space_group_name_H-M "C M C M"
_symmetry_group_IT_number 63
_symmetry_cell_setting 'orthorhombic'
loop_
_space_group_symop_operation_xyz
x,y,z
-x,-y,1/2+z
x,-y,-z
-x,y,1/2-z
-x,-y,-z
x,y,1/2-z
-x,y,z
x,-y,1/2+z
1/2+x,1/2+y,z
1/2-x,1/2-y,1/2+z
1/2+x,1/2-y,-z
1/2-x,1/2+y,1/2-z
1/2-x,1/2-y,-z
1/2+x,1/2+y,1/2-z
1/2-x,1/2+y,z
1/2+x,1/2-y,1/2+z
loop_
_atom_site_type_symbol
_atom_site_label
_atom_site_fract_x
_atom_site_fract_y
_atom_site_fract_z
Si Si1 0.147953 0.756817 0.416791
Si Si2 0.000000 0.949011 0.943177
Si Si3 0.762332 0.140469 0.016385
Si Si4 0.711391 0.645506 0.821830
Si Si5 0.500000 0.067710 0.533404
Si Si6 0.500000 0.095291 0.822795
Si Si7 0.500000 0.543815 0.672668
O O1 0.177934 0.821750 0.456302
O O2 0.237990 0.695048 0.429575
O O3 0.169461 0.783445 0.345276
O O4 0.000000 0.733056 0.430998
O O5 0.134246 0.907747 0.950943
O O6 0.000000 0.979569 0.871339
O O7 0.000000 0.000000 0.000000
O O8 0.630376 0.105822 0.989981
O O9 0.660081 0.645555 0.750000
O O10 0.870161 0.639439 0.828431
O O11 0.630381 0.584407 0.850878
O O12 0.500000 0.052699 0.611399
O O13 0.500000 0.000000 0.500000
O O14 0.500000 0.060768 0.750000
O O15 0.500000 0.525741 0.750000
#
# Coordination Sequence:
#
# PCOD8259564 Si02
#       7
#    16   8  16  16   8   8   8
#     4  11  20  37  60  83 120 147 191 247 294 354
#     4  12  24  40  62  87 123 156 202 248 295 359
#     4  11  24  37  57  90 114 158 194 240 302 351
#     4  10  20  36  61  89 115 152 200 246 296 349
#     4  12  24  38  59  86 128 157 200 245 297 365
#     4  10  22  37  56  88 120 150 196 247 298 345
#     4  10  22  39  63  87 115 157 202 248 293 351
#
# _framework density 18.528973000000001
#
# number of rings (size 3 to 8) (size 9 to 14) (size 15 to 20)
#    0.000    1.200    5.000    1.800    2.800    0.800 
#    0.000    1.000    0.000    1.200    0.000    0.000 
#    0.000    0.000    0.000    0.000    0.000    0.000 
#
# Total GULP energy -495547.317694 kJ/mol
# GULP energy per Si atom -12388.682942 kJ/mol
# Density = 1.848680 g / cm^3
# Si number density = 18.528973 Si / 1000 Ang^3
#
#
#
# Elastic Constant Matrix: (Units=GPa)
#
#
# Indices 1 2 3 4 5 6 
#
# 1 126.3734 35.9774 37.2616 0.0000 0.0000 0.0000
# 2 35.9774 94.7808 63.2780 0.0000 0.0000 0.0000
# 3 37.2616 63.2780 90.0530 0.0000 0.0000 0.0000
# 4 0.0000 0.0000 0.0000 32.8812 0.0000 0.0000
# 5 0.0000 0.0000 0.0000 0.0000 23.5014 0.0000
# 6 0.0000 0.0000 0.0000 0.0000 0.0000 29.7420
#
#
#
# Elastic Compliance Matrix: (Units=1/GPa)
#
#
# Indices 1 2 3 4 5 6 
#
# 1 0.009170 -0.001785 -0.002540 0.000000 0.000000 0.000000
# 2 -0.001785 0.020222 -0.013471 0.000000 0.000000 0.000000
# 3 -0.002540 -0.013471 0.021621 0.000000 0.000000 0.000000
# 4 0.000000 0.000000 0.000000 0.030413 0.000000 0.000000
# 5 0.000000 0.000000 0.000000 0.000000 0.042551 0.000000
# 6 0.000000 0.000000 0.000000 0.000000 0.000000 0.033622
#
#
# Mechanical properties :
#
#
# Convention : Reuss Voigt Hill
#
# Bulk Modulus (GPa) = 64.84510 64.91568 64.88039
# Shear Modulus (GPa) = 25.21049 28.87095 27.04072
#
# Velocity S-wave (km/s) = 3.69263 3.95162 3.82432
# Velocity P-wave (km/s) = 7.29748 7.47872 7.38866
#
# Compressibility (1/GPa) = 0.01542137
#
# Stress axis : x y z
#
# Youngs Moduli (GPa) = 109.04896 49.45225 46.25130
#
# Poissons Ratio (x) = 0.08827 0.11748
# Poissons Ratio (y) = 0.19466 0.62303
# Poissons Ratio (z) = 0.27699 0.66615
#
# Static dielectric constant tensor:
#      x y z
#    x 3.591630 0.000000 0.000000 
#    y 0.000000 3.691380 0.000000 
#    z 0.000000 0.000000 3.823040 
# 
# 
# High freq. dielectric constant tensor:
#      x y z
#    x 1.742530 0.000000 0.000000 
#    y 0.000000 1.696880 0.000000 
#    z 0.000000 0.000000 1.720840 
# 
# From -- ./inp_files/59598.got.cif
#   From: 2010.03.12/outbox.cif.g09.slc.cpg/sg63_30_cif.got.tgz:59598.got - 2010.04.10 19:34:48.
