data_PCOD8259409
_publ_section_title
;
Structure prediction by ZEFSAII (Michael W. Deem and Ramdas Pophale) SiO2 
 PCOD8259409
Probable space group: C M C M
;
_chemical_formula_sum "Si O2"
_cell_formula_units_Z 104
_cell_length_a 26.213867
_cell_length_b 21.930478
_cell_length_c 8.736271
_cell_angle_alpha 90.000000
_cell_angle_beta 90.000000
_cell_angle_gamma 90.000000
_cell_volume 5022.330480
_symmetry_space_group_name_H-M "C M C M"
_symmetry_group_IT_number 63
_symmetry_cell_setting 'orthorhombic'
loop_
_space_group_symop_operation_xyz
x,y,z
-x,-y,1/2+z
x,-y,-z
-x,y,1/2-z
-x,-y,-z
x,y,1/2-z
-x,y,z
x,-y,1/2+z
1/2+x,1/2+y,z
1/2-x,1/2-y,1/2+z
1/2+x,1/2-y,-z
1/2-x,1/2+y,1/2-z
1/2-x,1/2-y,-z
1/2+x,1/2+y,1/2-z
1/2-x,1/2+y,z
1/2+x,1/2-y,1/2+z
loop_
_atom_site_type_symbol
_atom_site_label
_atom_site_fract_x
_atom_site_fract_y
_atom_site_fract_z
Si Si1 0.210367 0.142988 0.067978
Si Si2 0.708071 0.936430 0.426817
Si Si3 0.356732 0.248795 0.923584
Si Si4 0.057136 0.844419 0.578161
Si Si5 0.105696 0.376813 0.427972
Si Si6 0.376145 0.563819 0.927925
Si Si7 0.500000 0.067379 0.566880
O O1 0.213005 0.145057 0.250000
O O2 0.189190 0.208998 0.004652
O O3 0.265010 0.123668 0.999684
O O4 0.172029 0.090137 0.018052
O O5 0.722877 0.938262 0.250000
O O6 0.647260 0.930195 0.452633
O O7 0.726705 0.000000 0.500000
O O8 0.340206 0.235330 0.750000
O O9 0.409529 0.284273 0.934564
O O10 0.369715 0.184298 0.006387
O O11 0.061984 0.871921 0.750000
O O12 0.074698 0.893923 0.454450
O O13 0.000000 0.824550 0.539394
O O14 0.097126 0.362481 0.250000
O O15 0.050796 0.397554 0.495369
O O16 0.363001 0.558681 0.750000
O O17 0.390532 0.500000 0.000000
O O18 0.500000 0.062843 0.750000
O O19 0.500000 0.000000 0.500000
#
# Coordination Sequence:
#
# PCOD8259409 Si02
#       7
#    16  16  16  16  16  16   8
#     4  10  20  36  57  81 110 142 180 227 280 336
#     4  11  22  36  55  81 114 149 189 232 278 332
#     4   8  16  32  54  82 111 139 180 229 275 328
#     4   9  18  32  52  77 105 139 179 228 279 331
#     4   9  19  34  56  87 115 145 187 235 279 329
#     4  11  21  34  52  74 104 141 182 228 278 333
#     4  10  20  36  60  86 116 152 191 234 281 328
#
# _framework density 20.707519000000001
#
# number of rings (size 3 to 8) (size 9 to 14) (size 15 to 20)
#    0.000    2.308    0.000    4.154    1.077    1.231 
#    0.000    0.769    0.000   12.923    0.000    0.000 
#    0.000    0.000    0.000    0.000    0.000    0.000 
#
# Total GULP energy -644417.818177 kJ/mol
# GULP energy per Si atom -12392.650350 kJ/mol
# Density = 2.066039 g / cm^3
# Si number density = 20.707519 Si / 1000 Ang^3
#
#
#
# Elastic Constant Matrix: (Units=GPa)
#
#
# Indices 1 2 3 4 5 6 
#
# 1 122.1838 41.2631 25.9410 0.0000 0.0000 0.0000
# 2 41.2631 122.8229 28.0299 0.0000 0.0000 0.0000
# 3 25.9410 28.0299 66.4130 0.0000 0.0000 0.0000
# 4 0.0000 0.0000 0.0000 20.2682 0.0000 0.0000
# 5 0.0000 0.0000 0.0000 0.0000 23.0469 0.0000
# 6 0.0000 0.0000 0.0000 0.0000 0.0000 23.5959
#
#
#
# Elastic Compliance Matrix: (Units=1/GPa)
#
#
# Indices 1 2 3 4 5 6 
#
# 1 0.009637 -0.002632 -0.002653 0.000000 0.000000 0.000000
# 2 -0.002632 0.009728 -0.003078 0.000000 0.000000 0.000000
# 3 -0.002653 -0.003078 0.017393 0.000000 0.000000 0.000000
# 4 0.000000 0.000000 0.000000 0.049338 0.000000 0.000000
# 5 0.000000 0.000000 0.000000 0.000000 0.043390 0.000000
# 6 0.000000 0.000000 0.000000 0.000000 0.000000 0.042380
#
#
# Mechanical properties :
#
#
# Convention : Reuss Voigt Hill
#
# Bulk Modulus (GPa) = 49.92126 55.76529 52.84327
# Shear Modulus (GPa) = 25.60566 27.79458 26.70012
#
# Velocity S-wave (km/s) = 3.52026 3.66764 3.59471
# Velocity P-wave (km/s) = 6.37833 6.70253 6.54244
#
# Compressibility (1/GPa) = 0.02003155
#
# Stress axis : x y z
#
# Youngs Moduli (GPa) = 103.77163 102.79137 57.49548
#
# Poissons Ratio (x) = 0.27054 0.15255
# Poissons Ratio (y) = 0.27312 0.17696
# Poissons Ratio (z) = 0.27533 0.31638
#
# Static dielectric constant tensor:
#      x y z
#    x 3.907170 0.000000 0.000000 
#    y 0.000000 3.842390 0.000000 
#    z 0.000000 0.000000 3.481620 
# 
# 
# High freq. dielectric constant tensor:
#      x y z
#    x 1.817930 0.000000 0.000000 
#    y 0.000000 1.814860 0.000000 
#    z 0.000000 0.000000 1.770700 
# 
# From -- ./inp_files/12520.got.cif
#   From: 2010.03.12/outbox.cif.g09.slc.cpg/sg63_7_cif.got.tgz:12520.got - 2010.04.10 19:34:48.
