data_PCOD8259849
_publ_section_title
;
Structure prediction by ZEFSAII (Michael W. Deem and Ramdas Pophale) SiO2 
 PCOD8259849
Probable space group: C M C M
;
_chemical_formula_sum "Si O2"
_cell_formula_units_Z 96
_cell_length_a 8.931929
_cell_length_b 19.781530
_cell_length_c 28.323224
_cell_angle_alpha 90.000000
_cell_angle_beta 90.000000
_cell_angle_gamma 90.000000
_cell_volume 5004.351752
_symmetry_space_group_name_H-M "C M C M"
_symmetry_group_IT_number 63
_symmetry_cell_setting 'orthorhombic'
loop_
_space_group_symop_operation_xyz
x,y,z
-x,-y,1/2+z
x,-y,-z
-x,y,1/2-z
-x,-y,-z
x,y,1/2-z
-x,y,z
x,-y,1/2+z
1/2+x,1/2+y,z
1/2-x,1/2-y,1/2+z
1/2+x,1/2-y,-z
1/2-x,1/2+y,1/2-z
1/2-x,1/2-y,-z
1/2+x,1/2+y,1/2-z
1/2-x,1/2+y,z
1/2+x,1/2-y,1/2+z
loop_
_atom_site_type_symbol
_atom_site_label
_atom_site_fract_x
_atom_site_fract_y
_atom_site_fract_z
Si Si1 0.823210 0.816411 0.479915
Si Si2 0.832432 0.056353 0.460630
Si Si3 0.673937 0.757087 0.195409
Si Si4 0.825216 0.501019 0.371399
Si Si5 0.330827 0.602610 0.194705
Si Si6 0.322817 0.357563 0.376311
O O1 0.750000 0.750000 0.500000
O O2 0.774197 0.875279 0.515522
O O3 0.763105 0.832930 0.427377
O O4 0.000000 0.807624 0.478597
O O5 0.000000 0.065194 0.439420
O O6 0.836101 0.000000 0.500000
O O7 0.717816 0.036350 0.420246
O O8 0.713276 0.771101 0.250000
O O9 0.500000 0.772491 0.185913
O O10 0.711565 0.679747 0.182040
O O11 0.775030 0.804648 0.163354
O O12 0.783853 0.551904 0.329574
O O13 0.742022 0.430532 0.363859
O O14 0.000000 0.486548 0.370529
O O15 0.317597 0.590887 0.250000
O O16 0.500000 0.587542 0.177598
O O17 0.500000 0.364347 0.376900
#
# Coordination Sequence:
#
# PCOD8259849 Si02
#       6
#    16  16  16  16  16  16
#     4  10  23  40  60  86 118 155 195 242 290 347
#     4  10  20  41  64  82 114 159 199 239 290 346
#     4   9  20  40  64  90 119 152 193 242 296 351
#     4  12  25  38  59  91 122 155 197 248 297 347
#     4   9  20  41  66  89 117 156 198 239 292 358
#     4  11  23  41  61  86 120 158 201 241 290 353
#
# _framework density 19.183305000000001
#
# number of rings (size 3 to 8) (size 9 to 14) (size 15 to 20)
#    0.000    1.833    1.667    3.000    2.333    4.333 
#    0.000    1.667    0.000    0.000    0.000    0.000 
#    0.000    0.000    0.000    0.000    0.000    0.000 
#
# Total GULP energy -595338.418767 kJ/mol
# GULP energy per Si atom -12402.883724 kJ/mol
# Density = 1.913964 g / cm^3
# Si number density = 19.183305 Si / 1000 Ang^3
#
#
#
# Elastic Constant Matrix: (Units=GPa)
#
#
# Indices 1 2 3 4 5 6 
#
# 1 80.6184 53.1108 43.9269 0.0000 0.0000 0.0000
# 2 53.1108 146.3437 64.0090 0.0000 0.0000 0.0000
# 3 43.9269 64.0090 90.2826 0.0000 0.0000 0.0000
# 4 0.0000 0.0000 0.0000 34.8877 0.0000 0.0000
# 5 0.0000 0.0000 0.0000 0.0000 36.3097 0.0000
# 6 0.0000 0.0000 0.0000 0.0000 0.0000 5.7962
#
#
#
# Elastic Compliance Matrix: (Units=1/GPa)
#
#
# Indices 1 2 3 4 5 6 
#
# 1 0.018360 -0.003995 -0.006101 0.000000 0.000000 0.000000
# 2 -0.003995 0.010774 -0.005695 0.000000 0.000000 0.000000
# 3 -0.006101 -0.005695 0.018082 0.000000 0.000000 0.000000
# 4 0.000000 0.000000 0.000000 0.028663 0.000000 0.000000
# 5 0.000000 0.000000 0.000000 0.000000 0.027541 0.000000
# 6 0.000000 0.000000 0.000000 0.000000 0.000000 0.172527
#
#
# Mechanical properties :
#
#
# Convention : Reuss Voigt Hill
#
# Bulk Modulus (GPa) = 63.95809 71.03759 67.49784
# Shear Modulus (GPa) = 15.98773 25.81191 20.89982
#
# Velocity S-wave (km/s) = 2.89003 3.67214 3.30431
# Velocity P-wave (km/s) = 6.67452 7.42232 7.05833
#
# Compressibility (1/GPa) = 0.01563524
#
# Stress axis : x y z
#
# Youngs Moduli (GPa) = 54.46622 92.81715 55.30282
#
# Poissons Ratio (x) = 0.37078 0.33739
# Poissons Ratio (y) = 0.21758 0.31494
# Poissons Ratio (z) = 0.33229 0.52858
#
# Static dielectric constant tensor:
#      x y z
#    x 3.405670 0.000000 0.000000 
#    y 0.000000 3.713820 0.000000 
#    z 0.000000 0.000000 3.655520 
# 
# 
# High freq. dielectric constant tensor:
#      x y z
#    x 1.737350 0.000000 0.000000 
#    y 0.000000 1.759720 0.000000 
#    z 0.000000 0.000000 1.753890 
# 
# From -- ./inp_files/66944.got.cif
#   From: 2010.03.12/outbox.cif.g09.slc.cpg/sg63_34_cif.got.tgz:66944.got - 2010.04.10 19:34:48.
