data_PCOD8259479
_publ_section_title
;
Structure prediction by ZEFSAII (Michael W. Deem and Ramdas Pophale) SiO2 
 PCOD8259479
Probable space group: C M C M
;
_chemical_formula_sum "Si O2"
_cell_formula_units_Z 112
_cell_length_a 13.926352
_cell_length_b 13.455592
_cell_length_c 29.689284
_cell_angle_alpha 90.000000
_cell_angle_beta 90.000000
_cell_angle_gamma 90.000000
_cell_volume 5563.395081
_symmetry_space_group_name_H-M "C M C M"
_symmetry_group_IT_number 63
_symmetry_cell_setting 'orthorhombic'
loop_
_space_group_symop_operation_xyz
x,y,z
-x,-y,1/2+z
x,-y,-z
-x,y,1/2-z
-x,-y,-z
x,y,1/2-z
-x,y,z
x,-y,1/2+z
1/2+x,1/2+y,z
1/2-x,1/2-y,1/2+z
1/2+x,1/2-y,-z
1/2-x,1/2+y,1/2-z
1/2-x,1/2-y,-z
1/2+x,1/2+y,1/2-z
1/2-x,1/2+y,z
1/2+x,1/2-y,1/2+z
loop_
_atom_site_type_symbol
_atom_site_label
_atom_site_fract_x
_atom_site_fract_y
_atom_site_fract_z
Si Si1 0.767600 0.546067 0.698958
Si Si2 0.776925 0.742317 0.654505
Si Si3 0.614159 0.731953 0.003917
Si Si4 0.394837 0.441886 0.646284
Si Si5 0.742096 0.147185 0.558905
Si Si6 0.610595 0.141596 0.302435
Si Si7 0.144405 0.963317 0.952885
O O1 0.733368 0.532787 0.750000
O O2 0.804740 0.658529 0.691266
O O3 0.674674 0.523295 0.668223
O O4 0.854453 0.470756 0.688211
O O5 0.852999 0.831450 0.653977
O O6 0.781457 0.681315 0.608541
O O7 0.671275 0.783650 0.666378
O O8 0.500000 0.729717 0.001385
O O9 0.653086 0.834756 0.024580
O O10 0.661836 0.653199 0.039287
O O11 0.660184 0.706300 0.955556
O O12 0.500000 0.445829 0.669231
O O13 0.413201 0.470111 0.593783
O O14 0.759138 0.028327 0.554791
O O15 0.624972 0.169862 0.250000
O O16 0.500000 0.150043 0.316936
O O17 0.091600 0.000000 0.000000
#
# Coordination Sequence:
#
# PCOD8259479 Si02
#       7
#    16  16  16  16  16  16  16
#     4  10  22  41  61  83 115 153 191 238 294 348
#     4  11  21  37  59  85 118 149 188 239 293 343
#     4  10  21  38  59  83 115 155 196 239 287 340
#     4  11  23  38  60  91 122 153 195 244 293 347
#     4  10  21  35  57  86 118 150 192 240 286 342
#     4   9  20  39  60  81 108 145 187 229 280 347
#     4  10  20  36  58  84 117 154 195 237 288 341
#
# _framework density 20.131592000000001
#
# number of rings (size 3 to 8) (size 9 to 14) (size 15 to 20)
#    0.000    1.857    2.857    0.857    0.000    7.714 
#    0.000    0.000    0.000   10.714    0.000    0.000 
#    0.000    0.000    0.000    0.000    0.000    0.000 
#
# Total GULP energy -693760.665908 kJ/mol
# GULP energy per Si atom -12388.583320 kJ/mol
# Density = 2.008577 g / cm^3
# Si number density = 20.131592 Si / 1000 Ang^3
#
#
#
# Elastic Constant Matrix: (Units=GPa)
#
#
# Indices 1 2 3 4 5 6 
#
# 1 80.2056 3.9796 8.5132 0.0000 0.0000 0.0000
# 2 3.9796 59.2649 -1.0702 0.0000 0.0000 0.0000
# 3 8.5132 -1.0702 65.3992 0.0000 0.0000 0.0000
# 4 0.0000 0.0000 0.0000 24.4060 0.0000 0.0000
# 5 0.0000 0.0000 0.0000 0.0000 14.6117 0.0000
# 6 0.0000 0.0000 0.0000 0.0000 0.0000 11.0928
#
#
#
# Elastic Compliance Matrix: (Units=1/GPa)
#
#
# Indices 1 2 3 4 5 6 
#
# 1 0.012689 -0.000882 -0.001666 0.000000 0.000000 0.000000
# 2 -0.000882 0.016940 0.000392 0.000000 0.000000 0.000000
# 3 -0.001666 0.000392 0.015514 0.000000 0.000000 0.000000
# 4 0.000000 0.000000 0.000000 0.040974 0.000000 0.000000
# 5 0.000000 0.000000 0.000000 0.000000 0.068438 0.000000
# 6 0.000000 0.000000 0.000000 0.000000 0.000000 0.090149
#
#
# Mechanical properties :
#
#
# Convention : Reuss Voigt Hill
#
# Bulk Modulus (GPa) = 24.49189 25.30165 24.89677
# Shear Modulus (GPa) = 19.03852 22.91856 20.97854
#
# Velocity S-wave (km/s) = 3.07857 3.37773 3.23161
# Velocity P-wave (km/s) = 4.98288 5.27329 5.13014
#
# Compressibility (1/GPa) = 0.04082985
#
# Stress axis : x y z
#
# Youngs Moduli (GPa) = 78.81112 59.03295 64.45785
#
# Poissons Ratio (x) = 0.05207 0.10740
# Poissons Ratio (y) = 0.06952 -0.02527
# Poissons Ratio (z) = 0.13131 -0.02314
#
# Static dielectric constant tensor:
#      x y z
#    x 3.347300 0.000000 0.000000 
#    y 0.000000 3.866000 0.000000 
#    z 0.000000 0.000000 3.767270 
# 
# 
# High freq. dielectric constant tensor:
#      x y z
#    x 1.759190 0.000000 0.000000 
#    y 0.000000 1.790140 0.000000 
#    z 0.000000 0.000000 1.790370 
# 
# From -- ./inp_files/73446.got.cif
#   From: 2010.03.12/outbox.cif.g09.slc.cpg/sg63_37_cif.got.tgz:73446.got - 2010.04.10 19:34:48.
