data_PCOD8259344
_publ_section_title
;
Structure prediction by ZEFSAII (Michael W. Deem and Ramdas Pophale) SiO2 
 PCOD8259344
Probable space group: C M C M
;
_chemical_formula_sum "Si O2"
_cell_formula_units_Z 88
_cell_length_a 23.066002
_cell_length_b 10.323599
_cell_length_c 18.665879
_cell_angle_alpha 90.000000
_cell_angle_beta 90.000000
_cell_angle_gamma 90.000000
_cell_volume 4444.796668
_symmetry_space_group_name_H-M "C M C M"
_symmetry_group_IT_number 63
_symmetry_cell_setting 'orthorhombic'
loop_
_space_group_symop_operation_xyz
x,y,z
-x,-y,1/2+z
x,-y,-z
-x,y,1/2-z
-x,-y,-z
x,y,1/2-z
-x,y,z
x,-y,1/2+z
1/2+x,1/2+y,z
1/2-x,1/2-y,1/2+z
1/2+x,1/2-y,-z
1/2-x,1/2+y,1/2-z
1/2-x,1/2-y,-z
1/2+x,1/2+y,1/2-z
1/2-x,1/2+y,z
1/2+x,1/2-y,1/2+z
loop_
_atom_site_type_symbol
_atom_site_label
_atom_site_fract_x
_atom_site_fract_y
_atom_site_fract_z
Si Si1 0.180723 0.256076 0.750000
Si Si2 0.500000 0.359395 0.968229
Si Si3 0.880227 0.323191 0.894655
Si Si4 0.712088 0.500000 0.000000
Si Si5 0.769454 0.465974 0.250000
Si Si6 0.000000 0.608578 0.061960
Si Si7 0.123193 0.195602 0.459729
Si Si8 0.810968 0.431004 0.403629
O O1 0.138758 0.266207 0.681491
O O2 0.229396 0.374168 0.750000
O O3 0.208071 0.111024 0.750000
O O4 0.439096 0.344617 0.924826
O O5 0.500000 0.500000 0.000000
O O6 0.500000 0.249762 0.027901
O O7 0.942235 0.398558 0.888871
O O8 0.833017 0.425901 0.923607
O O9 0.882917 0.209984 0.953870
O O10 0.672478 0.587765 0.052359
O O11 0.750951 0.411024 0.053012
O O12 0.803219 0.415634 0.319091
O O13 0.000000 0.500000 0.000000
O O14 0.140410 0.328465 0.423265
#
# Coordination Sequence:
#
# PCOD8259344 Si02
#       8
#     8   8  16   8   8   8  16  16
#     4  10  22  39  56  80 122 155 198 245 297 366
#     4  10  20  38  55  87 119 151 193 244 300 343
#     4  10  20  37  56  85 115 152 200 246 296 357
#     4  12  22  31  58  87 118 150 190 246 294 354
#     4  10  24  38  56  80 120 158 194 237 301 370
#     4  10  20  35  63  84 113 155 198 246 304 349
#     4  11  21  36  58  85 117 152 196 244 297 354
#     4  11  22  36  56  86 116 152 195 243 299 360
#
# _framework density 19.79843
#
# number of rings (size 3 to 8) (size 9 to 14) (size 15 to 20)
#    0.000    1.455    2.727    3.818    5.091    0.364 
#    0.000    0.000    0.000    1.636    0.000    1.273 
#    0.000    0.000    0.000    0.000    0.000    0.000 
#
# Total GULP energy -545262.449147 kJ/mol
# GULP energy per Si atom -12392.328390 kJ/mol
# Density = 1.975337 g / cm^3
# Si number density = 19.798430 Si / 1000 Ang^3
#
#
#
# Elastic Constant Matrix: (Units=GPa)
#
#
# Indices 1 2 3 4 5 6 
#
# 1 141.2329 26.3903 25.5679 0.0000 0.0000 0.0000
# 2 26.3903 67.6940 17.4578 0.0000 0.0000 0.0000
# 3 25.5679 17.4578 60.3292 0.0000 0.0000 0.0000
# 4 0.0000 0.0000 0.0000 13.3762 0.0000 0.0000
# 5 0.0000 0.0000 0.0000 0.0000 18.0826 0.0000
# 6 0.0000 0.0000 0.0000 0.0000 0.0000 35.9959
#
#
#
# Elastic Compliance Matrix: (Units=1/GPa)
#
#
# Indices 1 2 3 4 5 6 
#
# 1 0.008023 -0.002432 -0.002696 0.000000 0.000000 0.000000
# 2 -0.002432 0.016701 -0.003802 0.000000 0.000000 0.000000
# 3 -0.002696 -0.003802 0.018819 0.000000 0.000000 0.000000
# 4 0.000000 0.000000 0.000000 0.074760 0.000000 0.000000
# 5 0.000000 0.000000 0.000000 0.000000 0.055302 0.000000
# 6 0.000000 0.000000 0.000000 0.000000 0.000000 0.027781
#
#
# Mechanical properties :
#
#
# Convention : Reuss Voigt Hill
#
# Bulk Modulus (GPa) = 38.93883 45.34313 42.14098
# Shear Modulus (GPa) = 21.94836 26.81362 24.38099
#
# Velocity S-wave (km/s) = 3.33316 3.68412 3.51302
# Velocity P-wave (km/s) = 5.87568 6.40695 6.14706
#
# Compressibility (1/GPa) = 0.02568131
#
# Stress axis : x y z
#
# Youngs Moduli (GPa) = 124.63927 59.87617 53.13874
#
# Poissons Ratio (x) = 0.14564 0.14328
# Poissons Ratio (y) = 0.30318 0.20203
# Poissons Ratio (z) = 0.33607 0.22765
#
# Static dielectric constant tensor:
#      x y z
#    x 4.247970 0.000000 0.000000 
#    y 0.000000 3.617790 0.000000 
#    z 0.000000 0.000000 3.342270 
# 
# 
# High freq. dielectric constant tensor:
#      x y z
#    x 1.785930 0.000000 0.000000 
#    y 0.000000 1.773160 0.000000 
#    z 0.000000 0.000000 1.736200 
# 
# From -- ./inp_files/57426.got.cif
#   From: 2010.03.12/outbox.cif.g09.slc.cpg/sg63_29_cif.got.tgz:57426.got - 2010.04.10 19:34:48.
