data_PCOD8259526
_publ_section_title
;
Structure prediction by ZEFSAII (Michael W. Deem and Ramdas Pophale) SiO2 
 PCOD8259526
Probable space group: C M C M
;
_chemical_formula_sum "Si O2"
_cell_formula_units_Z 72
_cell_length_a 10.740947
_cell_length_b 14.381894
_cell_length_c 24.073360
_cell_angle_alpha 90.000000
_cell_angle_beta 90.000000
_cell_angle_gamma 90.000000
_cell_volume 3718.736167
_symmetry_space_group_name_H-M "C M C M"
_symmetry_group_IT_number 63
_symmetry_cell_setting 'orthorhombic'
loop_
_space_group_symop_operation_xyz
x,y,z
-x,-y,1/2+z
x,-y,-z
-x,y,1/2-z
-x,-y,-z
x,y,1/2-z
-x,y,z
x,-y,1/2+z
1/2+x,1/2+y,z
1/2-x,1/2-y,1/2+z
1/2+x,1/2-y,-z
1/2-x,1/2+y,1/2-z
1/2-x,1/2-y,-z
1/2+x,1/2+y,1/2-z
1/2-x,1/2+y,z
1/2+x,1/2-y,1/2+z
loop_
_atom_site_type_symbol
_atom_site_label
_atom_site_fract_x
_atom_site_fract_y
_atom_site_fract_z
Si Si1 0.000000 0.965680 0.937116
Si Si2 0.750807 0.512828 0.877929
Si Si3 0.707634 0.808410 0.312569
Si Si4 0.500000 0.747863 0.102376
Si Si5 0.500000 0.943330 0.443581
Si Si6 0.363022 0.861012 0.812278
O O1 0.877155 0.012970 0.911697
O O2 0.000000 0.853021 0.928297
O O3 0.000000 0.000000 0.000000
O O4 0.749524 0.589752 0.830078
O O5 0.872864 0.526512 0.914677
O O6 0.760182 0.413542 0.848386
O O7 0.649214 0.811489 0.250000
O O8 0.616605 0.761355 0.357100
O O9 0.832608 0.747769 0.312383
O O10 0.500000 0.829305 0.054599
O O11 0.500000 0.000000 0.500000
O O12 0.359725 0.901010 0.750000
O O13 0.500000 0.876113 0.838083
#
# Coordination Sequence:
#
# PCOD8259526 Si02
#       6
#     8  16  16   8   8  16
#     4  12  26  45  61  91 128 171 219 268 320 359
#     4  11  22  41  63  89 127 159 209 259 310 369
#     4  10  21  38  62  94 126 161 198 248 316 390
#     4  10  21  42  66  88 124 162 209 262 314 377
#     4  10  22  43  65  89 112 159 217 262 305 368
#     4  10  20  36  59  89 124 161 200 247 309 381
#
# _framework density 19.361416999999999
#
# number of rings (size 3 to 8) (size 9 to 14) (size 15 to 20)
#    0.000    1.556    3.333    1.667    1.556    0.000 
#    4.000    5.000    0.000    0.000    0.000    0.000 
#    0.000    0.000    0.000    0.000    0.000    0.000 
#
# Total GULP energy -446073.442646 kJ/mol
# GULP energy per Si atom -12390.928962 kJ/mol
# Density = 1.931735 g / cm^3
# Si number density = 19.361417 Si / 1000 Ang^3
#
#
#
# Elastic Constant Matrix: (Units=GPa)
#
#
# Indices 1 2 3 4 5 6 
#
# 1 131.2884 36.2735 49.5458 0.0000 0.0000 0.0000
# 2 36.2735 124.2871 66.3096 0.0000 0.0000 0.0000
# 3 49.5458 66.3096 115.8817 0.0000 0.0000 0.0000
# 4 0.0000 0.0000 0.0000 37.5785 0.0000 0.0000
# 5 0.0000 0.0000 0.0000 0.0000 -22.7600 0.0000
# 6 0.0000 0.0000 0.0000 0.0000 0.0000 173.1942
#
#
#
# Elastic Compliance Matrix: (Units=1/GPa)
#
#
# Indices 1 2 3 4 5 6 
#
# 1 0.009143 -0.000839 -0.003429 0.000000 0.000000 0.000000
# 2 -0.000839 0.011659 -0.006313 0.000000 0.000000 0.000000
# 3 -0.003429 -0.006313 0.013708 0.000000 0.000000 0.000000
# 4 0.000000 0.000000 0.000000 0.026611 0.000000 0.000000
# 5 0.000000 0.000000 0.000000 0.000000 -0.043937 0.000000
# 6 0.000000 0.000000 0.000000 0.000000 0.000000 0.005774
#
#
# Mechanical properties :
#
#
# Convention : Reuss Voigt Hill
#
# Bulk Modulus (GPa) = 74.91702 75.07946 74.99824
# Shear Modulus (GPa) = 102.95001 52.22443 77.58722
#
# Velocity S-wave (km/s) = 7.29988 5.19923 6.33720
# Velocity P-wave (km/s) = 10.47993 8.65475 9.61077
#
# Compressibility (1/GPa) = 0.01334810
#
# Stress axis : x y z
#
# Youngs Moduli (GPa) = 109.37792 85.77344 72.95149
#
# Poissons Ratio (x) = 0.07195 0.25015
# Poissons Ratio (y) = 0.09176 0.46051
# Poissons Ratio (z) = 0.37505 0.54145
#
# Static dielectric constant tensor:
#      x y z
#    x 3.479920 0.000000 0.000000 
#    y 0.000000 3.628960 0.000000 
#    z 0.000000 0.000000 3.565830 
# 
# 
# High freq. dielectric constant tensor:
#      x y z
#    x 1.759750 0.000000 0.000000 
#    y 0.000000 1.763600 0.000000 
#    z 0.000000 0.000000 1.744990 
# 
# From -- ./inp_files/61023.got.cif
#   From: 2010.03.12/outbox.cif.g09.slc.cpg/sg63_31_cif.got.tgz:61023.got - 2010.04.10 19:34:48.
