data_PCOD8259604
_publ_section_title
;
Structure prediction by ZEFSAII (Michael W. Deem and Ramdas Pophale) SiO2 
 PCOD8259604
Probable space group: C M C M
;
_chemical_formula_sum "Si O2"
_cell_formula_units_Z 96
_cell_length_a 9.369057
_cell_length_b 29.736467
_cell_length_c 19.064835
_cell_angle_alpha 90.000000
_cell_angle_beta 90.000000
_cell_angle_gamma 90.000000
_cell_volume 5311.513635
_symmetry_space_group_name_H-M "C M C M"
_symmetry_group_IT_number 63
_symmetry_cell_setting 'orthorhombic'
loop_
_space_group_symop_operation_xyz
x,y,z
-x,-y,1/2+z
x,-y,-z
-x,y,1/2-z
-x,-y,-z
x,y,1/2-z
-x,y,z
x,-y,1/2+z
1/2+x,1/2+y,z
1/2-x,1/2-y,1/2+z
1/2+x,1/2-y,-z
1/2-x,1/2+y,1/2-z
1/2-x,1/2-y,-z
1/2+x,1/2+y,1/2-z
1/2-x,1/2+y,z
1/2+x,1/2-y,1/2+z
loop_
_atom_site_type_symbol
_atom_site_label
_atom_site_fract_x
_atom_site_fract_y
_atom_site_fract_z
Si Si1 0.166513 0.870173 0.433913
Si Si2 0.336032 0.036915 0.169028
Si Si3 0.831563 0.887649 0.905953
Si Si4 0.835278 0.231174 0.934942
Si Si5 0.336212 0.190522 0.169042
Si Si6 0.665681 0.066822 0.829587
O O1 0.209465 0.882108 0.513087
O O2 0.215046 0.819263 0.417190
O O3 0.246154 0.902965 0.381887
O O4 0.000000 0.876878 0.421054
O O5 0.308449 0.049478 0.250000
O O6 0.500000 0.047421 0.149683
O O7 0.232097 0.065410 0.120146
O O8 0.299981 0.985085 0.154783
O O9 0.765832 0.846876 0.862577
O O10 0.000000 0.887527 0.893813
O O11 0.806929 0.261609 0.867097
O O12 0.000000 0.230748 0.957621
O O13 0.750000 0.250000 0.000000
O O14 0.298852 0.196949 0.250000
O O15 0.500000 0.175229 0.158044
O O16 0.709584 0.078582 0.750000
O O17 0.500000 0.076595 0.841468
#
# Coordination Sequence:
#
# PCOD8259604 Si02
#       6
#    16  16  16  16  16  16
#     4  10  22  37  55  82 114 147 181 223 277 332
#     4   9  19  37  58  79 108 146 186 228 274 326
#     4  11  22  35  53  82 116 146 181 225 275 330
#     4  10  20  37  58  79 108 147 186 224 271 326
#     4  10  21  36  56  82 109 143 188 231 272 325
#     4   9  20  39  60  82 108 141 186 234 274 322
#
# _framework density 18.073943
#
# number of rings (size 3 to 8) (size 9 to 14) (size 15 to 20)
#    0.000    2.167    1.667    2.000    0.000    7.000 
#    0.000    6.667    0.000    0.000    0.000    0.000 
#    0.000    0.000    0.000    0.000    0.000    0.000 
#
# Total GULP energy -595333.548050 kJ/mol
# GULP energy per Si atom -12402.782251 kJ/mol
# Density = 1.803281 g / cm^3
# Si number density = 18.073943 Si / 1000 Ang^3
#
#
#
# Elastic Constant Matrix: (Units=GPa)
#
#
# Indices 1 2 3 4 5 6 
#
# 1 75.6901 66.5880 74.1971 0.0000 0.0000 0.0000
# 2 66.5880 135.0038 92.2591 0.0000 0.0000 0.0000
# 3 74.1971 92.2591 146.5433 0.0000 0.0000 0.0000
# 4 0.0000 0.0000 0.0000 37.3924 0.0000 0.0000
# 5 0.0000 0.0000 0.0000 0.0000 33.5478 0.0000
# 6 0.0000 0.0000 0.0000 0.0000 0.0000 33.6431
#
#
#
# Elastic Compliance Matrix: (Units=1/GPa)
#
#
# Indices 1 2 3 4 5 6 
#
# 1 0.030315 -0.007833 -0.010417 0.000000 0.000000 0.000000
# 2 -0.007833 0.015025 -0.005493 0.000000 0.000000 0.000000
# 3 -0.010417 -0.005493 0.015557 0.000000 0.000000 0.000000
# 4 0.000000 0.000000 0.000000 0.026743 0.000000 0.000000
# 5 0.000000 0.000000 0.000000 0.000000 0.029808 0.000000
# 6 0.000000 0.000000 0.000000 0.000000 0.000000 0.029724
#
#
# Mechanical properties :
#
#
# Convention : Reuss Voigt Hill
#
# Bulk Modulus (GPa) = 74.57660 91.48064 83.02862
# Shear Modulus (GPa) = 25.10951 29.19619 27.15285
#
# Velocity S-wave (km/s) = 3.73133 4.02353 3.88018
# Velocity P-wave (km/s) = 7.74050 8.50351 8.13096
#
# Compressibility (1/GPa) = 0.01340903
#
# Stress axis : x y z
#
# Youngs Moduli (GPa) = 32.98719 66.55786 64.28175
#
# Poissons Ratio (x) = 0.52136 0.66964
# Poissons Ratio (y) = 0.25840 0.35309
# Poissons Ratio (z) = 0.34364 0.36560
#
# Static dielectric constant tensor:
#      x y z
#    x 3.338420 0.000000 0.000000 
#    y 0.000000 3.494810 0.000000 
#    z 0.000000 0.000000 3.439260 
# 
# 
# High freq. dielectric constant tensor:
#      x y z
#    x 1.697860 0.000000 0.000000 
#    y 0.000000 1.711720 0.000000 
#    z 0.000000 0.000000 1.703600 
# 
# From -- ./inp_files/51416.got.cif
#   From: 2010.03.12/outbox.cif.g09.slc.cpg/sg63_26_cif.got.tgz:51416.got - 2010.04.10 19:34:48.
