data_PCOD8259280
_publ_section_title
;
Structure prediction by ZEFSAII (Michael W. Deem and Ramdas Pophale) SiO2 
 PCOD8259280
Probable space group: C M C M
;
_chemical_formula_sum "Si O2"
_cell_formula_units_Z 96
_cell_length_a 15.491699
_cell_length_b 16.786446
_cell_length_c 19.415370
_cell_angle_alpha 90.000000
_cell_angle_beta 90.000000
_cell_angle_gamma 90.000000
_cell_volume 5048.978010
_symmetry_space_group_name_H-M "C M C M"
_symmetry_group_IT_number 63
_symmetry_cell_setting 'orthorhombic'
loop_
_space_group_symop_operation_xyz
x,y,z
-x,-y,1/2+z
x,-y,-z
-x,y,1/2-z
-x,-y,-z
x,y,1/2-z
-x,y,z
x,-y,1/2+z
1/2+x,1/2+y,z
1/2-x,1/2-y,1/2+z
1/2+x,1/2-y,-z
1/2-x,1/2+y,1/2-z
1/2-x,1/2-y,-z
1/2+x,1/2+y,1/2-z
1/2-x,1/2+y,z
1/2+x,1/2-y,1/2+z
loop_
_atom_site_type_symbol
_atom_site_label
_atom_site_fract_x
_atom_site_fract_y
_atom_site_fract_z
Si Si1 0.102411 0.950104 0.897162
Si Si2 0.319631 0.777703 0.947314
Si Si3 0.761422 0.616900 0.172750
Si Si4 0.900360 0.114331 0.541446
Si Si5 0.400271 0.020436 0.673225
Si Si6 0.400203 0.080334 0.530516
O O1 0.165101 0.919223 0.836981
O O2 0.000000 0.935390 0.880771
O O3 0.123319 0.044212 0.905181
O O4 0.137583 0.904192 0.965477
O O5 0.278573 0.809015 0.877054
O O6 0.375256 0.699774 0.927851
O O7 0.250000 0.750000 0.000000
O O8 0.372224 0.843056 0.988980
O O9 0.765757 0.649989 0.250000
O O10 0.837472 0.553530 0.160375
O O11 0.000000 0.110635 0.527306
O O12 0.384870 0.057133 0.750000
O O13 0.500000 0.991018 0.666308
O O14 0.380346 0.085596 0.613164
O O15 0.500000 0.073658 0.516749
O O16 0.355478 0.000000 0.500000
#
# Coordination Sequence:
#
# PCOD8259280 Si02
#       6
#    16  16  16  16  16  16
#     4   9  19  38  62  86 113 150 201 249 293 345
#     4  12  23  34  56  88 121 154 191 244 293 349
#     4  11  23  38  58  85 120 159 195 237 300 360
#     4   9  19  36  61  88 113 147 196 255 301 339
#     4   9  19  36  58  86 118 152 193 243 295 347
#     4  10  20  35  58  85 113 151 196 238 285 352
#
# _framework density 19.013749000000001
#
# number of rings (size 3 to 8) (size 9 to 14) (size 15 to 20)
#    0.000    2.000    3.333    1.500    2.333    1.000 
#    0.000    1.667    0.000    1.000    0.000    0.000 
#    0.000    0.000    0.000    0.000    0.000    0.000 
#
# Total GULP energy -594746.538186 kJ/mol
# GULP energy per Si atom -12390.552879 kJ/mol
# Density = 1.897047 g / cm^3
# Si number density = 19.013749 Si / 1000 Ang^3
#
#
#
# Elastic Constant Matrix: (Units=GPa)
#
#
# Indices 1 2 3 4 5 6 
#
# 1 43.7665 25.1789 42.3847 0.0000 0.0000 0.0000
# 2 25.1789 120.5475 57.4669 0.0000 0.0000 0.0000
# 3 42.3847 57.4669 129.8758 0.0000 0.0000 0.0000
# 4 0.0000 0.0000 0.0000 22.1968 0.0000 0.0000
# 5 0.0000 0.0000 0.0000 0.0000 25.2750 0.0000
# 6 0.0000 0.0000 0.0000 0.0000 0.0000 26.5555
#
#
#
# Elastic Compliance Matrix: (Units=1/GPa)
#
#
# Indices 1 2 3 4 5 6 
#
# 1 0.033898 -0.002290 -0.010049 0.000000 0.000000 0.000000
# 2 -0.002290 0.010668 -0.003973 0.000000 0.000000 0.000000
# 3 -0.010049 -0.003973 0.012737 0.000000 0.000000 0.000000
# 4 0.000000 0.000000 0.000000 0.045052 0.000000 0.000000
# 5 0.000000 0.000000 0.000000 0.000000 0.039565 0.000000
# 6 0.000000 0.000000 0.000000 0.000000 0.000000 0.037657
#
#
# Mechanical properties :
#
#
# Convention : Reuss Voigt Hill
#
# Bulk Modulus (GPa) = 40.52062 60.47232 50.49647
# Shear Modulus (GPa) = 22.68330 26.08273 24.38302
#
# Velocity S-wave (km/s) = 3.45772 3.70778 3.58493
# Velocity P-wave (km/s) = 6.10726 7.08546 6.61447
#
# Compressibility (1/GPa) = 0.02467879
#
# Stress axis : x y z
#
# Youngs Moduli (GPa) = 29.50040 93.74085 78.51007
#
# Poissons Ratio (x) = 0.21463 0.78898
# Poissons Ratio (y) = 0.06754 0.31192
# Poissons Ratio (z) = 0.29646 0.37243
#
# Static dielectric constant tensor:
#      x y z
#    x 3.585650 0.000000 0.000000 
#    y 0.000000 3.052110 0.000000 
#    z 0.000000 0.000000 3.561270 
# 
# 
# High freq. dielectric constant tensor:
#      x y z
#    x 1.748380 0.000000 0.000000 
#    y 0.000000 1.719920 0.000000 
#    z 0.000000 0.000000 1.732520 
# 
# From -- ./inp_files/54194.got.cif
#   From: 2010.03.12/outbox.cif.g09.slc.cpg/sg63_28_cif.got.tgz:54194.got - 2010.04.10 19:34:48.
