data_PCOD8259450
_publ_section_title
;
Structure prediction by ZEFSAII (Michael W. Deem and Ramdas Pophale) SiO2 
 PCOD8259450
Probable space group: C M C M
;
_chemical_formula_sum "Si O2"
_cell_formula_units_Z 64
_cell_length_a 12.896916
_cell_length_b 8.440006
_cell_length_c 25.639563
_cell_angle_alpha 90.000000
_cell_angle_beta 90.000000
_cell_angle_gamma 90.000000
_cell_volume 2790.867674
_symmetry_space_group_name_H-M "C M C M"
_symmetry_group_IT_number 63
_symmetry_cell_setting 'orthorhombic'
loop_
_space_group_symop_operation_xyz
x,y,z
-x,-y,1/2+z
x,-y,-z
-x,y,1/2-z
-x,-y,-z
x,y,1/2-z
-x,y,z
x,-y,1/2+z
1/2+x,1/2+y,z
1/2-x,1/2-y,1/2+z
1/2+x,1/2-y,-z
1/2-x,1/2+y,1/2-z
1/2-x,1/2-y,-z
1/2+x,1/2+y,1/2-z
1/2-x,1/2+y,z
1/2+x,1/2-y,1/2+z
loop_
_atom_site_type_symbol
_atom_site_label
_atom_site_fract_x
_atom_site_fract_y
_atom_site_fract_z
Si Si1 0.314769 0.568671 0.444486
Si Si2 0.883005 0.946337 0.338886
Si Si3 0.814004 0.712814 0.808008
Si Si4 0.382757 0.090123 0.913494
O O1 0.347218 0.500000 0.500000
O O2 0.378536 0.471369 0.401123
O O3 0.342912 0.752900 0.442906
O O4 0.191329 0.551885 0.432672
O O5 0.808879 0.803156 0.320738
O O6 0.000000 0.905373 0.322177
O O7 0.843414 0.103786 0.310158
O O8 0.839552 0.648807 0.750000
O O9 0.877968 0.612885 0.850833
O O10 0.500000 0.049138 0.929626
#
# Coordination Sequence:
#
# PCOD8259450 Si02
#       4
#    16  16  16  16
#     4  10  20  38  59  83 115 147 186 232 275 330
#     4  10  22  39  58  83 115 148 185 231 279 329
#     4  10  20  36  58  82 110 145 186 230 276 331
#     4  10  22  38  56  82 113 145 185 230 277 331
#
# _framework density 22.931937000000001
#
# number of rings (size 3 to 8) (size 9 to 14) (size 15 to 20)
#    0.000    2.000    0.000    4.500    0.000    6.000 
#    0.000   22.500    0.000   12.000    0.000    0.000 
#    0.000    0.000    0.000    0.000    0.000    0.000 
#
# Total GULP energy -396805.365877 kJ/mol
# GULP energy per Si atom -12400.167684 kJ/mol
# Density = 2.287974 g / cm^3
# Si number density = 22.931937 Si / 1000 Ang^3
#
#
#
# Elastic Constant Matrix: (Units=GPa)
#
#
# Indices 1 2 3 4 5 6 
#
# 1 174.2514 29.1033 -9.2688 0.0000 0.0000 0.0000
# 2 29.1033 15.7722 12.0457 0.0000 0.0000 0.0000
# 3 -9.2688 12.0457 112.8397 0.0000 0.0000 0.0000
# 4 0.0000 0.0000 0.0000 12.3021 0.0000 0.0000
# 5 0.0000 0.0000 0.0000 0.0000 4.7594 0.0000
# 6 0.0000 0.0000 0.0000 0.0000 0.0000 31.4035
#
#
#
# Elastic Compliance Matrix: (Units=1/GPa)
#
#
# Indices 1 2 3 4 5 6 
#
# 1 0.009011 -0.018718 0.002738 0.000000 0.000000 0.000000
# 2 -0.018718 0.107915 -0.013058 0.000000 0.000000 0.000000
# 3 0.002738 -0.013058 0.010481 0.000000 0.000000 0.000000
# 4 0.000000 0.000000 0.000000 0.081287 0.000000 0.000000
# 5 0.000000 0.000000 0.000000 0.000000 0.210111 0.000000
# 6 0.000000 0.000000 0.000000 0.000000 0.000000 0.031844
#
#
# Mechanical properties :
#
#
# Convention : Reuss Voigt Hill
#
# Bulk Modulus (GPa) = 14.42346 40.73596 27.57971
# Shear Modulus (GPa) = 9.40143 27.75854 18.57999
#
# Velocity S-wave (km/s) = 2.02697 3.48296 2.84953
# Velocity P-wave (km/s) = 3.43242 5.82899 4.78323
#
# Compressibility (1/GPa) = 0.06933149
#
# Stress axis : x y z
#
# Youngs Moduli (GPa) = 110.97766 9.26657 95.41114
#
# Poissons Ratio (x) = 0.17346 -0.26127
# Poissons Ratio (y) = 2.07732 1.24583
# Poissons Ratio (z) = -0.30390 0.12100
#
# Static dielectric constant tensor:
#      x y z
#    x 4.099690 0.000000 0.000000 
#    y 0.000000 3.831920 0.000000 
#    z 0.000000 0.000000 4.275840 
# 
# 
# High freq. dielectric constant tensor:
#      x y z
#    x 1.899250 0.000000 0.000000 
#    y 0.000000 1.877210 0.000000 
#    z 0.000000 0.000000 1.915940 
# 
# From -- ./inp_files/67938.got.cif
#   From: 2010.03.12/outbox.cif.g09.slc.cpg/sg63_34_cif.got.tgz:67938.got - 2010.04.10 19:34:48.
