data_PCOD8259164
_publ_section_title
;
Structure prediction by ZEFSAII (Michael W. Deem and Ramdas Pophale) SiO2 
 PCOD8259164
Probable space group: C M C M
;
_chemical_formula_sum "Si O2"
_cell_formula_units_Z 80
_cell_length_a 28.233782
_cell_length_b 9.035655
_cell_length_c 15.749857
_cell_angle_alpha 90.000000
_cell_angle_beta 90.000000
_cell_angle_gamma 90.000000
_cell_volume 4017.957257
_symmetry_space_group_name_H-M "C M C M"
_symmetry_group_IT_number 63
_symmetry_cell_setting 'orthorhombic'
loop_
_space_group_symop_operation_xyz
x,y,z
-x,-y,1/2+z
x,-y,-z
-x,y,1/2-z
-x,-y,-z
x,y,1/2-z
-x,y,z
x,-y,1/2+z
1/2+x,1/2+y,z
1/2-x,1/2-y,1/2+z
1/2+x,1/2-y,-z
1/2-x,1/2+y,1/2-z
1/2-x,1/2-y,-z
1/2+x,1/2+y,1/2-z
1/2-x,1/2+y,z
1/2+x,1/2-y,1/2+z
loop_
_atom_site_type_symbol
_atom_site_label
_atom_site_fract_x
_atom_site_fract_y
_atom_site_fract_z
Si Si1 0.124121 0.596059 0.581326
Si Si2 0.282269 0.016397 0.151831
Si Si3 0.190052 0.849755 0.150244
Si Si4 0.553329 0.882097 0.845282
Si Si5 0.600002 0.346403 0.033024
O O1 0.113808 0.500000 0.500000
O O2 0.178664 0.586274 0.607826
O O3 0.088372 0.524320 0.650038
O O4 0.113261 0.764245 0.555418
O O5 0.287566 0.982628 0.250000
O O6 0.290314 0.186781 0.129403
O O7 0.230045 0.967379 0.122448
O O8 0.176538 0.863762 0.250000
O O9 0.145345 0.881095 0.091489
O O10 0.558509 0.818052 0.750000
O O11 0.500000 0.937927 0.862945
O O12 0.563867 0.749207 0.910745
O O13 0.577174 0.500000 0.000000
#
# Coordination Sequence:
#
# PCOD8259164 Si02
#       5
#    16  16  16  16  16
#     4  10  20  36  58  86 115 150 195 244 291 343
#     4  10  20  35  55  81 114 157 204 245 284 336
#     4  10  21  37  56  79 117 164 205 241 286 345
#     4  10  21  42  70  89 109 151 199 244 296 353
#     4  11  24  38  56  89 127 157 189 238 300 354
#
# _framework density 19.910613999999999
#
# number of rings (size 3 to 8) (size 9 to 14) (size 15 to 20)
#    0.000    1.800    4.000    1.200    2.800    5.600 
#    0.000    3.000    0.000    2.400    0.000    0.000 
#    0.000    0.000    0.000    0.000    0.000    0.000 
#
# Total GULP energy -495849.602841 kJ/mol
# GULP energy per Si atom -12396.240071 kJ/mol
# Density = 1.986530 g / cm^3
# Si number density = 19.910614 Si / 1000 Ang^3
#
#
#
# Elastic Constant Matrix: (Units=GPa)
#
#
# Indices 1 2 3 4 5 6 
#
# 1 83.4903 10.8968 24.5530 0.0000 0.0000 0.0000
# 2 10.8968 71.5630 27.4501 0.0000 0.0000 0.0000
# 3 24.5530 27.4501 60.9803 0.0000 0.0000 0.0000
# 4 0.0000 0.0000 0.0000 20.8629 0.0000 0.0000
# 5 0.0000 0.0000 0.0000 0.0000 5.3163 0.0000
# 6 0.0000 0.0000 0.0000 0.0000 0.0000 20.2304
#
#
#
# Elastic Compliance Matrix: (Units=1/GPa)
#
#
# Indices 1 2 3 4 5 6 
#
# 1 0.013586 0.000036 -0.005486 0.000000 0.000000 0.000000
# 2 0.000036 0.016890 -0.007617 0.000000 0.000000 0.000000
# 3 -0.005486 -0.007617 0.022037 0.000000 0.000000 0.000000
# 4 0.000000 0.000000 0.000000 0.047932 0.000000 0.000000
# 5 0.000000 0.000000 0.000000 0.000000 0.188102 0.000000
# 6 0.000000 0.000000 0.000000 0.000000 0.000000 0.049430
#
#
# Mechanical properties :
#
#
# Convention : Reuss Voigt Hill
#
# Bulk Modulus (GPa) = 37.91201 37.98149 37.94675
# Shear Modulus (GPa) = 13.40819 19.49083 16.44951
#
# Velocity S-wave (km/s) = 2.59785 3.13216 2.87743
# Velocity P-wave (km/s) = 5.29914 5.67433 5.48994
#
# Compressibility (1/GPa) = 0.02637687
#
# Stress axis : x y z
#
# Youngs Moduli (GPa) = 73.60388 59.20612 45.37876
#
# Poissons Ratio (x) = -0.00211 0.24897
# Poissons Ratio (y) = -0.00263 0.34567
# Poissons Ratio (z) = 0.40382 0.45100
#
# Static dielectric constant tensor:
#      x y z
#    x 3.652030 0.000000 0.000000 
#    y 0.000000 3.912380 0.000000 
#    z 0.000000 0.000000 4.028100 
# 
# 
# High freq. dielectric constant tensor:
#      x y z
#    x 1.771470 0.000000 0.000000 
#    y 0.000000 1.762740 0.000000 
#    z 0.000000 0.000000 1.781190 
# 
# From -- ./inp_files/48727.got.cif
#   From: 2010.03.12/outbox.cif.g09.slc.cpg/sg63_25_cif.got.tgz:48727.got - 2010.04.10 19:34:48.
