data_PCOD8259718
_publ_section_title
;
Structure prediction by ZEFSAII (Michael W. Deem and Ramdas Pophale) SiO2 
 PCOD8259718
Probable space group: C M C M
;
_chemical_formula_sum "Si O2"
_cell_formula_units_Z 80
_cell_length_a 23.753230
_cell_length_b 12.170750
_cell_length_c 14.165669
_cell_angle_alpha 90.000000
_cell_angle_beta 90.000000
_cell_angle_gamma 90.000000
_cell_volume 4095.218754
_symmetry_space_group_name_H-M "C M C M"
_symmetry_group_IT_number 63
_symmetry_cell_setting 'orthorhombic'
loop_
_space_group_symop_operation_xyz
x,y,z
-x,-y,1/2+z
x,-y,-z
-x,y,1/2-z
-x,-y,-z
x,y,1/2-z
-x,y,z
x,-y,1/2+z
1/2+x,1/2+y,z
1/2-x,1/2-y,1/2+z
1/2+x,1/2-y,-z
1/2-x,1/2+y,1/2-z
1/2-x,1/2-y,-z
1/2+x,1/2+y,1/2-z
1/2-x,1/2+y,z
1/2+x,1/2-y,1/2+z
loop_
_atom_site_type_symbol
_atom_site_label
_atom_site_fract_x
_atom_site_fract_y
_atom_site_fract_z
Si Si1 0.858167 0.829181 0.093479
Si Si2 0.434467 0.681925 0.250000
Si Si3 0.067690 0.934533 0.250000
Si Si4 0.897514 0.500000 0.500000
Si Si5 0.222371 0.000000 0.000000
Si Si6 0.063167 0.272509 0.055027
Si Si7 0.311042 0.098315 0.140141
O O1 0.907190 0.874049 0.159818
O O2 0.824394 0.728045 0.139589
O O3 0.814079 0.922356 0.066823
O O4 0.890353 0.793435 0.000677
O O5 0.500000 0.661227 0.250000
O O6 0.408834 0.559314 0.250000
O O7 0.416076 0.754429 0.338579
O O8 0.000000 0.923273 0.250000
O O9 0.937414 0.599727 0.529131
O O10 0.861635 0.529686 0.406841
O O11 0.257350 0.925909 0.925959
O O12 0.000000 0.226260 0.038393
O O13 0.301961 0.062313 0.250000
#
# Coordination Sequence:
#
# PCOD8259718 Si02
#       7
#    16   8   8   8   8  16  16
#     4  11  22  40  61  90 122 158 205 246 301 365
#     4   9  20  34  53  83 119 156 200 242 289 345
#     4  11  22  38  61  91 123 162 198 244 302 363
#     4   9  21  36  63  88 121 160 203 245 310 362
#     4  11  24  40  64  90 120 162 204 249 314 358
#     4  10  20  38  59  88 125 161 201 250 297 361
#     4  10  22  41  61  89 123 153 201 260 301 355
#
# _framework density 19.534977000000001
#
# number of rings (size 3 to 8) (size 9 to 14) (size 15 to 20)
#    0.000    1.800    1.000    2.700    2.800    0.000 
#    1.800    4.000    0.000    0.000    0.000    0.000 
#    0.000    0.000    0.000    0.000    0.000    0.000 
#
# Total GULP energy -495883.954301 kJ/mol
# GULP energy per Si atom -12397.098858 kJ/mol
# Density = 1.949051 g / cm^3
# Si number density = 19.534977 Si / 1000 Ang^3
#
#
#
# Elastic Constant Matrix: (Units=GPa)
#
#
# Indices 1 2 3 4 5 6 
#
# 1 92.7059 36.8847 45.5237 0.0000 0.0000 0.0000
# 2 36.8847 91.5527 43.2809 0.0000 0.0000 0.0000
# 3 45.5237 43.2809 140.6375 0.0000 0.0000 0.0000
# 4 0.0000 0.0000 0.0000 24.2421 0.0000 0.0000
# 5 0.0000 0.0000 0.0000 0.0000 54.9111 0.0000
# 6 0.0000 0.0000 0.0000 0.0000 0.0000 26.2424
#
#
#
# Elastic Compliance Matrix: (Units=1/GPa)
#
#
# Indices 1 2 3 4 5 6 
#
# 1 0.014029 -0.004102 -0.003279 0.000000 0.000000 0.000000
# 2 -0.004102 0.013982 -0.002975 0.000000 0.000000 0.000000
# 3 -0.003279 -0.002975 0.009087 0.000000 0.000000 0.000000
# 4 0.000000 0.000000 0.000000 0.041250 0.000000 0.000000
# 5 0.000000 0.000000 0.000000 0.000000 0.018211 0.000000
# 6 0.000000 0.000000 0.000000 0.000000 0.000000 0.038106
#
#
# Mechanical properties :
#
#
# Convention : Reuss Voigt Hill
#
# Bulk Modulus (GPa) = 61.02593 64.03051 62.52822
# Shear Modulus (GPa) = 31.08689 34.35958 32.72324
#
# Velocity S-wave (km/s) = 3.99349 4.19844 4.09725
# Velocity P-wave (km/s) = 7.25060 7.50674 7.37978
#
# Compressibility (1/GPa) = 0.01638648
#
# Stress axis : x y z
#
# Youngs Moduli (GPa) = 71.28167 71.52207 110.04319
#
# Poissons Ratio (x) = 0.29338 0.36080
# Poissons Ratio (y) = 0.29239 0.32738
# Poissons Ratio (z) = 0.23371 0.21278
#
# Static dielectric constant tensor:
#      x y z
#    x 3.434470 0.000000 0.000000 
#    y 0.000000 3.652620 0.000000 
#    z 0.000000 0.000000 3.780120 
# 
# 
# High freq. dielectric constant tensor:
#      x y z
#    x 1.757500 0.000000 0.000000 
#    y 0.000000 1.767470 0.000000 
#    z 0.000000 0.000000 1.772210 
# 
# From -- ./inp_files/36546.got.cif
#   From: 2010.03.12/outbox.cif.g09.slc.cpg/sg63_19_cif.got.tgz:36546.got - 2010.04.10 19:34:48.
