data_PCOD8259854
_publ_section_title
;
Structure prediction by ZEFSAII (Michael W. Deem and Ramdas Pophale) SiO2 
 PCOD8259854
Probable space group: C M C M
;
_chemical_formula_sum "Si O2"
_cell_formula_units_Z 60
_cell_length_a 10.909463
_cell_length_b 16.075462
_cell_length_c 15.771352
_cell_angle_alpha 90.000000
_cell_angle_beta 90.000000
_cell_angle_gamma 90.000000
_cell_volume 2765.895462
_symmetry_space_group_name_H-M "C M C M"
_symmetry_group_IT_number 63
_symmetry_cell_setting 'orthorhombic'
loop_
_space_group_symop_operation_xyz
x,y,z
-x,-y,1/2+z
x,-y,-z
-x,y,1/2-z
-x,-y,-z
x,y,1/2-z
-x,y,z
x,-y,1/2+z
1/2+x,1/2+y,z
1/2-x,1/2-y,1/2+z
1/2+x,1/2-y,-z
1/2-x,1/2+y,1/2-z
1/2-x,1/2-y,-z
1/2+x,1/2+y,1/2-z
1/2-x,1/2+y,z
1/2+x,1/2-y,1/2+z
loop_
_atom_site_type_symbol
_atom_site_label
_atom_site_fract_x
_atom_site_fract_y
_atom_site_fract_z
Si Si1 0.359629 0.659618 0.076607
Si Si2 0.000000 0.426881 0.750000
Si Si3 0.281030 0.940362 0.250000
Si Si4 0.000000 0.263071 0.842654
Si Si5 0.139613 0.089548 0.250000
Si Si6 0.258492 0.675504 0.907038
O O1 0.500000 0.630174 0.070110
O O2 0.298630 0.626201 0.164314
O O3 0.351909 0.759977 0.077361
O O4 0.286126 0.624497 0.994130
O O5 0.882828 0.487315 0.750000
O O6 0.000000 0.364697 0.667577
O O7 0.287683 0.884851 0.333582
O O8 0.152004 0.989543 0.250000
O O9 0.120412 0.230166 0.889410
O O10 0.000000 0.220482 0.750000
O O11 0.000000 0.117957 0.250000
#
# Coordination Sequence:
#
# PCOD8259854 Si02
#       6
#    16   4   8   8   8  16
#     4  10  22  41  62  91 119 164 209 264 310 373
#     4  10  24  38  62  94 138 170 202 254 332 382
#     4  12  24  39  62  96 127 163 206 259 322 383
#     4  10  20  42  65  88 124 176 210 252 310 385
#     4  10  23  39  61  86 127 159 202 259 327 369
#     4  11  22  37  68  90 122 160 220 259 304 375
#
# _framework density 21.692795
#
# number of rings (size 3 to 8) (size 9 to 14) (size 15 to 20)
#    0.400    1.067    2.667    2.400    3.733    1.067 
#    0.000    2.667    0.000    4.800    0.000    0.000 
#    0.000    0.000    0.000    0.000    0.000    0.000 
#
# Total GULP energy -371756.353589 kJ/mol
# GULP energy per Si atom -12391.878453 kJ/mol
# Density = 2.164342 g / cm^3
# Si number density = 21.692795 Si / 1000 Ang^3
#
#
#
# Elastic Constant Matrix: (Units=GPa)
#
#
# Indices 1 2 3 4 5 6 
#
# 1 46.2195 15.7133 9.5979 0.0000 0.0000 0.0000
# 2 15.7133 77.4811 42.7733 0.0000 0.0000 0.0000
# 3 9.5979 42.7733 191.6979 0.0000 0.0000 0.0000
# 4 0.0000 0.0000 0.0000 -30.1042 0.0000 0.0000
# 5 0.0000 0.0000 0.0000 0.0000 9.9259 0.0000
# 6 0.0000 0.0000 0.0000 0.0000 0.0000 28.9071
#
#
#
# Elastic Compliance Matrix: (Units=1/GPa)
#
#
# Indices 1 2 3 4 5 6 
#
# 1 0.023241 -0.004643 -0.000128 0.000000 0.000000 0.000000
# 2 -0.004643 0.015647 -0.003259 0.000000 0.000000 0.000000
# 3 -0.000128 -0.003259 0.005950 0.000000 0.000000 0.000000
# 4 0.000000 0.000000 0.000000 -0.033218 0.000000 0.000000
# 5 0.000000 0.000000 0.000000 0.000000 0.100747 0.000000
# 6 0.000000 0.000000 0.000000 0.000000 0.000000 0.034594
#
#
# Mechanical properties :
#
#
# Convention : Reuss Voigt Hill
#
# Bulk Modulus (GPa) = 34.74725 50.17416 42.46071
# Shear Modulus (GPa) = 28.96673 18.23336 23.60005
#
# Velocity S-wave (km/s) = 3.65816 2.90233 3.30194
# Velocity P-wave (km/s) = 5.82199 5.86609 5.84408
#
# Compressibility (1/GPa) = 0.02877925
#
# Stress axis : x y z
#
# Youngs Moduli (GPa) = 43.02778 63.91017 168.06511
#
# Poissons Ratio (x) = 0.29672 0.02146
# Poissons Ratio (y) = 0.19977 0.54770
# Poissons Ratio (z) = 0.00549 0.20827
#
# Static dielectric constant tensor:
#      x y z
#    x 3.739430 0.000000 0.000000 
#    y 0.000000 3.600040 0.000000 
#    z 0.000000 0.000000 4.346570 
# 
# 
# High freq. dielectric constant tensor:
#      x y z
#    x 1.843880 0.000000 0.000000 
#    y 0.000000 1.824530 0.000000 
#    z 0.000000 0.000000 1.874450 
# 
# From -- ./inp_files/29074.got.cif
#   From: 2010.03.12/outbox.cif.g09.slc.cpg/sg63_15_cif.got.tgz:29074.got - 2010.04.10 19:34:48.
