data_PCOD8259173
_publ_section_title
;
Structure prediction by ZEFSAII (Michael W. Deem and Ramdas Pophale) SiO2 
 PCOD8259173
Probable space group: C M C M
;
_chemical_formula_sum "Si O2"
_cell_formula_units_Z 72
_cell_length_a 26.822154
_cell_length_b 14.580371
_cell_length_c 8.845968
_cell_angle_alpha 90.000000
_cell_angle_beta 90.000000
_cell_angle_gamma 90.000000
_cell_volume 3459.454241
_symmetry_space_group_name_H-M "C M C M"
_symmetry_group_IT_number 63
_symmetry_cell_setting 'orthorhombic'
loop_
_space_group_symop_operation_xyz
x,y,z
-x,-y,1/2+z
x,-y,-z
-x,y,1/2-z
-x,-y,-z
x,y,1/2-z
-x,y,z
x,-y,1/2+z
1/2+x,1/2+y,z
1/2-x,1/2-y,1/2+z
1/2+x,1/2-y,-z
1/2-x,1/2+y,1/2-z
1/2-x,1/2-y,-z
1/2+x,1/2+y,1/2-z
1/2-x,1/2+y,z
1/2+x,1/2-y,1/2+z
loop_
_atom_site_type_symbol
_atom_site_label
_atom_site_fract_x
_atom_site_fract_y
_atom_site_fract_z
Si Si1 0.833592 0.087711 0.080092
Si Si2 0.122639 0.596790 0.430498
Si Si3 0.729742 0.160314 0.077300
Si Si4 0.000000 0.897621 0.431979
Si Si5 0.086164 0.225495 0.429449
O O1 0.849512 0.072146 0.250000
O O2 0.774086 0.087077 0.057092
O O3 0.859404 0.182912 0.029192
O O4 0.857339 0.000000 0.000000
O O5 0.105896 0.500000 0.500000
O O6 0.119260 0.592463 0.250000
O O7 0.178773 0.618985 0.490564
O O8 0.085005 0.673797 0.495171
O O9 0.720021 0.185918 0.250000
O O10 0.750000 0.250000 0.000000
O O11 0.047215 0.841647 0.492145
O O12 0.000000 0.902272 0.250000
O O13 0.000000 0.000000 0.500000
O O14 0.076020 0.233888 0.250000
#
# Coordination Sequence:
#
# PCOD8259173 Si02
#       5
#    16  16  16   8  16
#     4  10  21  35  55  85 120 159 203 250 302 361
#     4  11  23  39  62  91 126 170 215 261 313 370
#     4  10  20  35  55  84 121 165 211 256 306 360
#     4  12  26  46  71 100 131 162 202 250 314 380
#     4  11  23  42  66  92 125 162 207 259 314 373
#
# _framework density 20.812532000000001
#
# number of rings (size 3 to 8) (size 9 to 14) (size 15 to 20)
#    0.000    1.333    2.222    3.667    0.000    5.333 
#    0.000    0.556    0.000    0.000    0.000    0.000 
#    0.000    0.000    0.000    0.000    0.000    0.000 
#
# Total GULP energy -446263.593181 kJ/mol
# GULP energy per Si atom -12396.210922 kJ/mol
# Density = 2.076516 g / cm^3
# Si number density = 20.812532 Si / 1000 Ang^3
#
#
#
# Elastic Constant Matrix: (Units=GPa)
#
#
# Indices 1 2 3 4 5 6 
#
# 1 75.7793 40.8686 39.4776 0.0000 0.0000 0.0000
# 2 40.8686 180.4072 72.0850 0.0000 0.0000 0.0000
# 3 39.4776 72.0850 103.8653 0.0000 0.0000 0.0000
# 4 0.0000 0.0000 0.0000 43.5756 0.0000 0.0000
# 5 0.0000 0.0000 0.0000 0.0000 28.0605 0.0000
# 6 0.0000 0.0000 0.0000 0.0000 0.0000 29.1799
#
#
#
# Elastic Compliance Matrix: (Units=1/GPa)
#
#
# Indices 1 2 3 4 5 6 
#
# 1 0.016840 -0.001740 -0.005193 0.000000 0.000000 0.000000
# 2 -0.001740 0.007850 -0.004787 0.000000 0.000000 0.000000
# 3 -0.005193 -0.004787 0.014924 0.000000 0.000000 0.000000
# 4 0.000000 0.000000 0.000000 0.022949 0.000000 0.000000
# 5 0.000000 0.000000 0.000000 0.000000 0.035637 0.000000
# 6 0.000000 0.000000 0.000000 0.000000 0.000000 0.034270
#
#
# Mechanical properties :
#
#
# Convention : Reuss Voigt Hill
#
# Bulk Modulus (GPa) = 61.82677 73.87936 67.85306
# Shear Modulus (GPa) = 30.99815 34.00456 32.50135
#
# Velocity S-wave (km/s) = 3.86346 4.04648 3.95603
# Velocity P-wave (km/s) = 7.04789 7.57671 7.31708
#
# Compressibility (1/GPa) = 0.01617422
#
# Stress axis : x y z
#
# Youngs Moduli (GPa) = 59.38281 127.39289 67.00750
#
# Poissons Ratio (x) = 0.22164 0.34798
# Poissons Ratio (y) = 0.10332 0.32074
# Poissons Ratio (z) = 0.30838 0.60978
#
# Static dielectric constant tensor:
#      x y z
#    x 3.450880 0.000000 0.000000 
#    y 0.000000 3.718880 0.000000 
#    z 0.000000 0.000000 3.748290 
# 
# 
# High freq. dielectric constant tensor:
#      x y z
#    x 1.803460 0.000000 0.000000 
#    y 0.000000 1.824780 0.000000 
#    z 0.000000 0.000000 1.815720 
# 
# From -- ./inp_files/11759.got.cif
#   From: 2010.03.12/outbox.cif.g09.slc.cpg/sg63_6_cif.got.tgz:11759.got - 2010.04.10 19:34:48.
