data_PCOD8259124
_publ_section_title
;
Structure prediction by ZEFSAII (Michael W. Deem and Ramdas Pophale) SiO2 
 PCOD8259124
Probable space group: C M C M
;
_chemical_formula_sum "Si O2"
_cell_formula_units_Z 72
_cell_length_a 25.261222
_cell_length_b 11.202052
_cell_length_c 13.850033
_cell_angle_alpha 90.000000
_cell_angle_beta 90.000000
_cell_angle_gamma 90.000000
_cell_volume 3919.248024
_symmetry_space_group_name_H-M "C M C M"
_symmetry_group_IT_number 63
_symmetry_cell_setting 'orthorhombic'
loop_
_space_group_symop_operation_xyz
x,y,z
-x,-y,1/2+z
x,-y,-z
-x,y,1/2-z
-x,-y,-z
x,y,1/2-z
-x,y,z
x,-y,1/2+z
1/2+x,1/2+y,z
1/2-x,1/2-y,1/2+z
1/2+x,1/2-y,-z
1/2-x,1/2+y,1/2-z
1/2-x,1/2-y,-z
1/2+x,1/2+y,1/2-z
1/2-x,1/2+y,z
1/2+x,1/2-y,1/2+z
loop_
_atom_site_type_symbol
_atom_site_label
_atom_site_fract_x
_atom_site_fract_y
_atom_site_fract_z
Si Si1 0.313866 0.500000 0.000000
Si Si2 0.863233 0.395772 0.358875
Si Si3 0.855770 0.244386 0.959862
Si Si4 0.225920 0.411928 0.639649
Si Si5 0.559952 0.896643 0.864148
O O1 0.350975 0.601599 0.953228
O O2 0.279524 0.435755 0.917692
O O3 0.872962 0.350034 0.250000
O O4 0.858577 0.282741 0.428045
O O5 0.809184 0.469555 0.366168
O O6 0.911309 0.480324 0.394857
O O7 0.804949 0.301389 0.907459
O O8 0.910013 0.282826 0.908146
O O9 0.239546 0.378671 0.750000
O O10 0.562984 0.882868 0.750000
O O11 0.500000 0.899544 0.902385
#
# Coordination Sequence:
#
# PCOD8259124 Si02
#       5
#     8  16  16  16  16
#     4  12  24  36  49  78 111 156 184 214 266 330
#     4   9  18  33  54  80 108 137 176 229 277 317
#     4  11  21  36  53  78 113 143 183 225 266 328
#     4  10  20  35  55  76 103 142 187 230 268 312
#     4   9  18  35  61  86 105 132 174 228 283 326
#
# _framework density 18.37087
#
# number of rings (size 3 to 8) (size 9 to 14) (size 15 to 20)
#    0.000    2.000    2.222    4.667    0.000    4.444 
#    0.000    0.556    0.000    0.000    0.000    3.111 
#    0.000    0.000    0.000    0.000    0.000    0.000 
#
# Total GULP energy -446495.142976 kJ/mol
# GULP energy per Si atom -12402.642860 kJ/mol
# Density = 1.832906 g / cm^3
# Si number density = 18.370870 Si / 1000 Ang^3
#
#
#
# Elastic Constant Matrix: (Units=GPa)
#
#
# Indices 1 2 3 4 5 6 
#
# 1 75.0082 29.2913 22.9732 0.0000 0.0000 0.0000
# 2 29.2913 88.1535 29.1245 0.0000 0.0000 0.0000
# 3 22.9732 29.1245 82.2936 0.0000 0.0000 0.0000
# 4 0.0000 0.0000 0.0000 12.3525 0.0000 0.0000
# 5 0.0000 0.0000 0.0000 0.0000 26.8613 0.0000
# 6 0.0000 0.0000 0.0000 0.0000 0.0000 7.7060
#
#
#
# Elastic Compliance Matrix: (Units=1/GPa)
#
#
# Indices 1 2 3 4 5 6 
#
# 1 0.015913 -0.004326 -0.002911 0.000000 0.000000 0.000000
# 2 -0.004326 0.014022 -0.003755 0.000000 0.000000 0.000000
# 3 -0.002911 -0.003755 0.014293 0.000000 0.000000 0.000000
# 4 0.000000 0.000000 0.000000 0.080955 0.000000 0.000000
# 5 0.000000 0.000000 0.000000 0.000000 0.037228 0.000000
# 6 0.000000 0.000000 0.000000 0.000000 0.000000 0.129769
#
#
# Mechanical properties :
#
#
# Convention : Reuss Voigt Hill
#
# Bulk Modulus (GPa) = 44.95583 45.35925 45.15754
# Shear Modulus (GPa) = 15.54831 20.32173 17.93502
#
# Velocity S-wave (km/s) = 2.91238 3.32956 3.12793
# Velocity P-wave (km/s) = 5.98612 6.28695 6.13838
#
# Compressibility (1/GPa) = 0.02224406
#
# Stress axis : x y z
#
# Youngs Moduli (GPa) = 62.84288 71.31817 69.96311
#
# Poissons Ratio (x) = 0.30849 0.20369
# Poissons Ratio (y) = 0.27183 0.26270
# Poissons Ratio (z) = 0.18296 0.26779
#
# Static dielectric constant tensor:
#      x y z
#    x 3.386920 0.000000 0.000000 
#    y 0.000000 3.060300 0.000000 
#    z 0.000000 0.000000 3.591070 
# 
# 
# High freq. dielectric constant tensor:
#      x y z
#    x 1.694830 0.000000 0.000000 
#    y 0.000000 1.679740 0.000000 
#    z 0.000000 0.000000 1.731080 
# 
# From -- ./inp_files/36354.got.cif
#   From: 2010.03.12/outbox.cif.g09.slc.cpg/sg63_19_cif.got.tgz:36354.got - 2010.04.10 19:34:48.
