data_PCOD8259865
_publ_section_title
;
Structure prediction by ZEFSAII (Michael W. Deem and Ramdas Pophale) SiO2 
 PCOD8259865
Probable space group: C M C M
;
_chemical_formula_sum "Si O2"
_cell_formula_units_Z 88
_cell_length_a 10.768482
_cell_length_b 14.892632
_cell_length_c 28.799671
_cell_angle_alpha 90.000000
_cell_angle_beta 90.000000
_cell_angle_gamma 90.000000
_cell_volume 4618.633179
_symmetry_space_group_name_H-M "C M C M"
_symmetry_group_IT_number 63
_symmetry_cell_setting 'orthorhombic'
loop_
_space_group_symop_operation_xyz
x,y,z
-x,-y,1/2+z
x,-y,-z
-x,y,1/2-z
-x,-y,-z
x,y,1/2-z
-x,y,z
x,-y,1/2+z
1/2+x,1/2+y,z
1/2-x,1/2-y,1/2+z
1/2+x,1/2-y,-z
1/2-x,1/2+y,1/2-z
1/2-x,1/2-y,-z
1/2+x,1/2+y,1/2-z
1/2-x,1/2+y,z
1/2+x,1/2-y,1/2+z
loop_
_atom_site_type_symbol
_atom_site_label
_atom_site_fract_x
_atom_site_fract_y
_atom_site_fract_z
Si Si1 0.771326 0.852649 0.804761
Si Si2 0.753849 0.762995 0.386958
Si Si3 0.647515 0.104985 0.446638
Si Si4 0.000000 0.347738 0.697168
Si Si5 0.000000 0.980144 0.803467
Si Si6 0.500000 0.667724 0.852555
Si Si7 0.642286 0.906541 0.449904
O O1 0.771324 0.826164 0.750000
O O2 0.798897 0.763647 0.835688
O O3 0.632176 0.887498 0.821701
O O4 0.875443 0.925671 0.815699
O O5 0.772831 0.671525 0.415116
O O6 0.658245 0.828923 0.412008
O O7 0.880718 0.819090 0.384733
O O8 0.500000 0.121126 0.437939
O O9 0.692123 0.123868 0.499635
O O10 0.693369 0.003860 0.433543
O O11 0.000000 0.240675 0.688905
O O12 0.000000 0.371752 0.750000
O O13 0.000000 0.007159 0.750000
O O14 0.000000 0.068558 0.833229
O O15 0.500000 0.925957 0.458706
#
# Coordination Sequence:
#
# PCOD8259865 Si02
#       7
#    16  16  16   8   8   8  16
#     4   9  20  35  56  82 115 151 187 231 282 332
#     4  11  20  34  58  82 113 143 188 233 273 332
#     4   9  18  37  57  79 110 144 182 225 279 340
#     4   8  15  34  56  77 101 141 190 225 268 326
#     4  10  21  38  56  79 114 151 188 237 290 332
#     4  10  21  32  52  82 104 148 187 223 270 339
#     4   9  20  35  57  83 108 143 183 226 283 340
#
# _framework density 19.053256000000001
#
# number of rings (size 3 to 8) (size 9 to 14) (size 15 to 20)
#    0.000    2.545    0.909    1.909    3.818    0.727 
#    0.000    0.000    0.000    1.091    0.000    8.909 
#    0.000    0.000    0.000    0.000    0.000    0.000 
#
# Total GULP energy -545125.192170 kJ/mol
# GULP energy per Si atom -12389.208913 kJ/mol
# Density = 1.900989 g / cm^3
# Si number density = 19.053256 Si / 1000 Ang^3
#
#
#
# Elastic Constant Matrix: (Units=GPa)
#
#
# Indices 1 2 3 4 5 6 
#
# 1 72.4164 40.3072 22.1074 0.0000 0.0000 0.0000
# 2 40.3072 112.7486 54.5399 0.0000 0.0000 0.0000
# 3 22.1074 54.5399 74.1896 0.0000 0.0000 0.0000
# 4 0.0000 0.0000 0.0000 35.7103 0.0000 0.0000
# 5 0.0000 0.0000 0.0000 0.0000 22.3631 0.0000
# 6 0.0000 0.0000 0.0000 0.0000 0.0000 21.9567
#
#
#
# Elastic Compliance Matrix: (Units=1/GPa)
#
#
# Indices 1 2 3 4 5 6 
#
# 1 0.017282 -0.005722 -0.000943 0.000000 0.000000 0.000000
# 2 -0.005722 0.015658 -0.009806 0.000000 0.000000 0.000000
# 3 -0.000943 -0.009806 0.020969 0.000000 0.000000 0.000000
# 4 0.000000 0.000000 0.000000 0.028003 0.000000 0.000000
# 5 0.000000 0.000000 0.000000 0.000000 0.044717 0.000000
# 6 0.000000 0.000000 0.000000 0.000000 0.000000 0.045544
#
#
# Mechanical properties :
#
#
# Convention : Reuss Voigt Hill
#
# Bulk Modulus (GPa) = 47.69505 54.80708 51.25107
# Shear Modulus (GPa) = 23.57329 25.49934 24.53631
#
# Velocity S-wave (km/s) = 3.52125 3.66227 3.59245
# Velocity P-wave (km/s) = 6.45128 6.83452 6.64566
#
# Compressibility (1/GPa) = 0.02096654
#
# Stress axis : x y z
#
# Youngs Moduli (GPa) = 57.86429 63.86373 47.68957
#
# Poissons Ratio (x) = 0.36542 0.04499
# Poissons Ratio (y) = 0.33109 0.46765
# Poissons Ratio (z) = 0.05458 0.62625
#
# Static dielectric constant tensor:
#      x y z
#    x 3.551390 0.000000 0.000000 
#    y 0.000000 3.264110 0.000000 
#    z 0.000000 0.000000 3.603780 
# 
# 
# High freq. dielectric constant tensor:
#      x y z
#    x 1.726490 0.000000 0.000000 
#    y 0.000000 1.724490 0.000000 
#    z 0.000000 0.000000 1.747550 
# 
# From -- ./inp_files/72641.got.cif
#   From: 2010.03.12/outbox.cif.g09.slc.cpg/sg63_37_cif.got.tgz:72641.got - 2010.04.10 19:34:48.
