data_PCOD8259486
_publ_section_title
;
Structure prediction by ZEFSAII (Michael W. Deem and Ramdas Pophale) SiO2 
 PCOD8259486
Probable space group: C M C M
;
_chemical_formula_sum "Si O2"
_cell_formula_units_Z 80
_cell_length_a 8.799745
_cell_length_b 15.637120
_cell_length_c 28.834318
_cell_angle_alpha 90.000000
_cell_angle_beta 90.000000
_cell_angle_gamma 90.000000
_cell_volume 3967.679102
_symmetry_space_group_name_H-M "C M C M"
_symmetry_group_IT_number 63
_symmetry_cell_setting 'orthorhombic'
loop_
_space_group_symop_operation_xyz
x,y,z
-x,-y,1/2+z
x,-y,-z
-x,y,1/2-z
-x,-y,-z
x,y,1/2-z
-x,y,z
x,-y,1/2+z
1/2+x,1/2+y,z
1/2-x,1/2-y,1/2+z
1/2+x,1/2-y,-z
1/2-x,1/2+y,1/2-z
1/2-x,1/2-y,-z
1/2+x,1/2+y,1/2-z
1/2-x,1/2+y,z
1/2+x,1/2-y,1/2+z
loop_
_atom_site_type_symbol
_atom_site_label
_atom_site_fract_x
_atom_site_fract_y
_atom_site_fract_z
Si Si1 0.674570 0.956733 0.452277
Si Si2 0.678516 0.721083 0.547821
Si Si3 0.179547 0.211606 0.362002
Si Si4 0.824754 0.538214 0.355884
Si Si5 0.680748 0.128625 0.802193
O O1 0.500000 0.925252 0.455537
O O2 0.780336 0.876547 0.441391
O O3 0.727566 0.000000 0.500000
O O4 0.695169 0.023951 0.410885
O O5 0.500000 0.733724 0.545283
O O6 0.750000 0.750000 0.500000
O O7 0.742839 0.781149 0.588052
O O8 0.228206 0.120655 0.340317
O O9 0.240299 0.287147 0.328691
O O10 0.000000 0.216404 0.367962
O O11 0.760206 0.456296 0.328143
O O12 0.000000 0.554250 0.343069
O O13 0.745552 0.129613 0.750000
O O14 0.500000 0.129222 0.802289
#
# Coordination Sequence:
#
# PCOD8259486 Si02
#       5
#    16  16  16  16  16
#     4  10  20  36  58  85 120 160 200 246 301 361
#     4  12  24  38  59  87 122 161 205 252 303 362
#     4  11  22  39  62  90 124 162 206 253 306 363
#     4  10  20  37  60  88 122 161 202 248 304 363
#     4   9  19  38  63  88 120 164 207 249 305 369
#
# _framework density 20.162921000000001
#
# number of rings (size 3 to 8) (size 9 to 14) (size 15 to 20)
#    0.000    1.600    2.000    3.600    0.000    3.600 
#    0.000    0.000    0.000    4.200    0.000    0.000 
#    0.000    0.000    0.000    0.000    0.000    0.000 
#
# Total GULP energy -496179.297682 kJ/mol
# GULP energy per Si atom -12404.482442 kJ/mol
# Density = 2.011703 g / cm^3
# Si number density = 20.162921 Si / 1000 Ang^3
#
#
#
# Elastic Constant Matrix: (Units=GPa)
#
#
# Indices 1 2 3 4 5 6 
#
# 1 82.9753 43.7853 29.4274 0.0000 0.0000 0.0000
# 2 43.7853 160.5962 60.1167 0.0000 0.0000 0.0000
# 3 29.4274 60.1167 132.1116 0.0000 0.0000 0.0000
# 4 0.0000 0.0000 0.0000 29.9832 0.0000 0.0000
# 5 0.0000 0.0000 0.0000 0.0000 13.9352 0.0000
# 6 0.0000 0.0000 0.0000 0.0000 0.0000 37.7057
#
#
#
# Elastic Compliance Matrix: (Units=1/GPa)
#
#
# Indices 1 2 3 4 5 6 
#
# 1 0.014391 -0.003283 -0.001712 0.000000 0.000000 0.000000
# 2 -0.003283 0.008254 -0.003025 0.000000 0.000000 0.000000
# 3 -0.001712 -0.003025 0.009327 0.000000 0.000000 0.000000
# 4 0.000000 0.000000 0.000000 0.033352 0.000000 0.000000
# 5 0.000000 0.000000 0.000000 0.000000 0.071761 0.000000
# 6 0.000000 0.000000 0.000000 0.000000 0.000000 0.026521
#
#
# Mechanical properties :
#
#
# Convention : Reuss Voigt Hill
#
# Bulk Modulus (GPa) = 62.76033 71.37133 67.06583
# Shear Modulus (GPa) = 27.03341 32.48173 29.75757
#
# Velocity S-wave (km/s) = 3.66560 4.01804 3.84585
# Velocity P-wave (km/s) = 7.00783 7.54985 7.28388
#
# Compressibility (1/GPa) = 0.01593363
#
# Stress axis : x y z
#
# Youngs Moduli (GPa) = 69.48692 121.15159 107.21527
#
# Poissons Ratio (x) = 0.39773 0.18352
# Poissons Ratio (y) = 0.22812 0.32430
# Poissons Ratio (z) = 0.11894 0.36645
#
# Static dielectric constant tensor:
#      x y z
#    x 3.465310 0.000000 0.000000 
#    y 0.000000 3.824770 0.000000 
#    z 0.000000 0.000000 3.797960 
# 
# 
# High freq. dielectric constant tensor:
#      x y z
#    x 1.759840 0.000000 0.000000 
#    y 0.000000 1.800630 0.000000 
#    z 0.000000 0.000000 1.788540 
# 
# From -- ./inp_files/66639.got.cif
#   From: 2010.03.12/outbox.cif.g09.slc.cpg/sg63_34_cif.got.tgz:66639.got - 2010.04.10 19:34:48.
