data_PCOD8259651
_publ_section_title
;
Structure prediction by ZEFSAII (Michael W. Deem and Ramdas Pophale) SiO2 
 PCOD8259651
Probable space group: C M C M
;
_chemical_formula_sum "Si O2"
_cell_formula_units_Z 96
_cell_length_a 14.985533
_cell_length_b 21.653610
_cell_length_c 15.103856
_cell_angle_alpha 90.000000
_cell_angle_beta 90.000000
_cell_angle_gamma 90.000000
_cell_volume 4901.063634
_symmetry_space_group_name_H-M "C M C M"
_symmetry_group_IT_number 63
_symmetry_cell_setting 'orthorhombic'
loop_
_space_group_symop_operation_xyz
x,y,z
-x,-y,1/2+z
x,-y,-z
-x,y,1/2-z
-x,-y,-z
x,y,1/2-z
-x,y,z
x,-y,1/2+z
1/2+x,1/2+y,z
1/2-x,1/2-y,1/2+z
1/2+x,1/2-y,-z
1/2-x,1/2+y,1/2-z
1/2-x,1/2-y,-z
1/2+x,1/2+y,1/2-z
1/2-x,1/2+y,z
1/2+x,1/2-y,1/2+z
loop_
_atom_site_type_symbol
_atom_site_label
_atom_site_fract_x
_atom_site_fract_y
_atom_site_fract_z
Si Si1 0.230355 0.636322 0.149738
Si Si2 0.223950 0.497849 0.105740
Si Si3 0.395847 0.197978 0.009642
Si Si4 0.603501 0.113646 0.848492
Si Si5 0.398354 0.663017 0.038939
Si Si6 0.095779 0.047838 0.920807
O O1 0.222752 0.659869 0.250000
O O2 0.204251 0.564517 0.145501
O O3 0.160470 0.674918 0.092523
O O4 0.331926 0.645819 0.118145
O O5 0.149141 0.452388 0.140990
O O6 0.320984 0.472937 0.139899
O O7 0.222835 0.500000 0.000000
O O8 0.500000 0.185639 0.028198
O O9 0.362525 0.162779 0.920967
O O10 0.375245 0.269738 0.997885
O O11 0.622669 0.140347 0.750000
O O12 0.500000 0.100888 0.862669
O O13 0.500000 0.659938 0.075491
O O14 0.383931 0.615967 0.958277
O O15 0.000000 0.048354 0.869110
O O16 0.086830 0.000000 0.000000
#
# Coordination Sequence:
#
# PCOD8259651 Si02
#       6
#    16  16  16  16  16  16
#     4  12  24  37  57  89 123 156 196 239 292 350
#     4  11  19  35  58  84 115 154 193 240 288 347
#     4  10  22  40  61  85 117 156 196 240 290 347
#     4  10  21  37  58  83 112 149 195 244 293 344
#     4  10  20  37  60  86 114 149 195 242 291 345
#     4   9  16  31  59  85 108 146 189 232 287 342
#
# _framework density 19.587585000000001
#
# number of rings (size 3 to 8) (size 9 to 14) (size 15 to 20)
#    0.000    1.667    5.000    1.000    0.000    2.333 
#    0.000    1.667    0.000    2.500    0.000    4.667 
#    0.000    0.000    0.000    0.000    0.000    0.000 
#
# Total GULP energy -595121.342193 kJ/mol
# GULP energy per Si atom -12398.361296 kJ/mol
# Density = 1.954300 g / cm^3
# Si number density = 19.587585 Si / 1000 Ang^3
#
#
#
# Elastic Constant Matrix: (Units=GPa)
#
#
# Indices 1 2 3 4 5 6 
#
# 1 51.3104 28.9935 21.7802 0.0000 0.0000 0.0000
# 2 28.9935 136.9778 21.9225 0.0000 0.0000 0.0000
# 3 21.7802 21.9225 74.4279 0.0000 0.0000 0.0000
# 4 0.0000 0.0000 0.0000 11.2267 0.0000 0.0000
# 5 0.0000 0.0000 0.0000 0.0000 18.2030 0.0000
# 6 0.0000 0.0000 0.0000 0.0000 0.0000 35.2779
#
#
#
# Elastic Compliance Matrix: (Units=1/GPa)
#
#
# Indices 1 2 3 4 5 6 
#
# 1 0.024372 -0.004216 -0.005890 0.000000 0.000000 0.000000
# 2 -0.004216 0.008391 -0.001238 0.000000 0.000000 0.000000
# 3 -0.005890 -0.001238 0.015524 0.000000 0.000000 0.000000
# 4 0.000000 0.000000 0.000000 0.089073 0.000000 0.000000
# 5 0.000000 0.000000 0.000000 0.000000 0.054936 0.000000
# 6 0.000000 0.000000 0.000000 0.000000 0.000000 0.028346
#
#
# Mechanical properties :
#
#
# Convention : Reuss Voigt Hill
#
# Bulk Modulus (GPa) = 39.06428 45.34540 42.20484
# Shear Modulus (GPa) = 19.85203 25.60952 22.73078
#
# Velocity S-wave (km/s) = 3.18701 3.61977 3.41026
# Velocity P-wave (km/s) = 5.79045 6.37736 6.09098
#
# Compressibility (1/GPa) = 0.02559883
#
# Stress axis : x y z
#
# Youngs Moduli (GPa) = 41.03100 119.17632 64.41601
#
# Poissons Ratio (x) = 0.50244 0.37943
# Poissons Ratio (y) = 0.17299 0.07973
# Poissons Ratio (z) = 0.24168 0.14751
#
# Static dielectric constant tensor:
#      x y z
#    x 4.038940 0.000000 0.000000 
#    y 0.000000 3.698610 0.000000 
#    z 0.000000 0.000000 3.332350 
# 
# 
# High freq. dielectric constant tensor:
#      x y z
#    x 1.779610 0.000000 0.000000 
#    y 0.000000 1.773760 0.000000 
#    z 0.000000 0.000000 1.728750 
# 
# From -- ./inp_files/31906.got.cif
#   From: 2010.03.12/outbox.cif.g09.slc.cpg/sg63_16_cif.got.tgz:31906.got - 2010.04.10 19:34:48.
