data_PCOD8259623
_publ_section_title
;
Structure prediction by ZEFSAII (Michael W. Deem and Ramdas Pophale) SiO2 
 PCOD8259623
Probable space group: C M C M
;
_chemical_formula_sum "Si O2"
_cell_formula_units_Z 96
_cell_length_a 18.486430
_cell_length_b 9.693973
_cell_length_c 29.217341
_cell_angle_alpha 90.000000
_cell_angle_beta 90.000000
_cell_angle_gamma 90.000000
_cell_volume 5235.950664
_symmetry_space_group_name_H-M "C M C M"
_symmetry_group_IT_number 63
_symmetry_cell_setting 'orthorhombic'
loop_
_space_group_symop_operation_xyz
x,y,z
-x,-y,1/2+z
x,-y,-z
-x,y,1/2-z
-x,-y,-z
x,y,1/2-z
-x,y,z
x,-y,1/2+z
1/2+x,1/2+y,z
1/2-x,1/2-y,1/2+z
1/2+x,1/2-y,-z
1/2-x,1/2+y,1/2-z
1/2-x,1/2-y,-z
1/2+x,1/2+y,1/2-z
1/2-x,1/2+y,z
1/2+x,1/2-y,1/2+z
loop_
_atom_site_type_symbol
_atom_site_label
_atom_site_fract_x
_atom_site_fract_y
_atom_site_fract_z
Si Si1 0.818034 0.966218 0.619411
Si Si2 0.674018 0.207240 0.113744
Si Si3 0.582442 0.395975 0.536907
Si Si4 0.580652 0.793305 0.800539
Si Si5 0.416971 0.136558 0.023990
Si Si6 0.079969 0.966343 0.800986
O O1 0.743944 0.887503 0.611577
O O2 0.873241 0.910733 0.582456
O O3 0.854793 0.916698 0.666797
O O4 0.805994 0.131033 0.616956
O O5 0.631463 0.153505 0.158635
O O6 0.627857 0.181724 0.068190
O O7 0.615715 0.500000 0.500000
O O8 0.500000 0.437381 0.548235
O O9 0.589300 0.244430 0.516912
O O10 0.609526 0.840062 0.750000
O O11 0.500000 0.853658 0.808039
O O12 0.576992 0.629955 0.802328
O O13 0.500000 0.117682 0.039917
O O14 0.385512 0.000000 0.000000
O O15 0.097401 0.912369 0.750000
O O16 0.000000 0.911410 0.816252
#
# Coordination Sequence:
#
# PCOD8259623 Si02
#       6
#    16  16  16  16  16  16
#     4  11  23  35  53  81 112 146 179 218 270 322
#     4  11  23  36  53  80 114 146 178 219 268 322
#     4  10  20  37  59  80 102 136 184 227 263 310
#     4   8  15  31  57  83 104 134 180 227 266 311
#     4  10  22  39  59  81 105 139 181 227 274 316
#     4   8  15  31  56  82 105 134 179 228 266 309
#
# _framework density 18.334779000000001
#
# number of rings (size 3 to 8) (size 9 to 14) (size 15 to 20)
#    0.000    2.333    1.667    2.000    2.333    3.333 
#    0.000    0.000    0.000    0.000    0.000    2.333 
#    0.000    0.000    0.000    0.000    0.000    0.000 
#
# Total GULP energy -594943.912334 kJ/mol
# GULP energy per Si atom -12394.664840 kJ/mol
# Density = 1.829305 g / cm^3
# Si number density = 18.334779 Si / 1000 Ang^3
#
#
#
# Elastic Constant Matrix: (Units=GPa)
#
#
# Indices 1 2 3 4 5 6 
#
# 1 89.1316 32.1333 56.7895 0.0000 0.0000 0.0000
# 2 32.1333 66.5639 29.7893 0.0000 0.0000 0.0000
# 3 56.7895 29.7893 117.3780 0.0000 0.0000 0.0000
# 4 0.0000 0.0000 0.0000 14.8007 0.0000 0.0000
# 5 0.0000 0.0000 0.0000 0.0000 37.5017 0.0000
# 6 0.0000 0.0000 0.0000 0.0000 0.0000 13.2997
#
#
#
# Elastic Compliance Matrix: (Units=1/GPa)
#
#
# Indices 1 2 3 4 5 6 
#
# 1 0.017751 -0.005331 -0.007235 0.000000 0.000000 0.000000
# 2 -0.005331 0.018549 -0.002128 0.000000 0.000000 0.000000
# 3 -0.007235 -0.002128 0.012560 0.000000 0.000000 0.000000
# 4 0.000000 0.000000 0.000000 0.067564 0.000000 0.000000
# 5 0.000000 0.000000 0.000000 0.000000 0.026665 0.000000
# 6 0.000000 0.000000 0.000000 0.000000 0.000000 0.075190
#
#
# Mechanical properties :
#
#
# Convention : Reuss Voigt Hill
#
# Bulk Modulus (GPa) = 51.35846 56.72196 54.04021
# Shear Modulus (GPa) = 19.67260 23.41117 21.54188
#
# Velocity S-wave (km/s) = 3.27917 3.57721 3.43143
# Velocity P-wave (km/s) = 6.51226 6.93296 6.72590
#
# Compressibility (1/GPa) = 0.01947099
#
# Stress axis : x y z
#
# Youngs Moduli (GPa) = 56.33377 53.91050 79.61654
#
# Poissons Ratio (x) = 0.28741 0.57606
# Poissons Ratio (y) = 0.30033 0.16944
# Poissons Ratio (z) = 0.40760 0.11473
#
# Static dielectric constant tensor:
#      x y z
#    x 3.487130 0.000000 0.000000 
#    y 0.000000 3.184860 0.000000 
#    z 0.000000 0.000000 3.918470 
# 
# 
# High freq. dielectric constant tensor:
#      x y z
#    x 1.707590 0.000000 0.000000 
#    y 0.000000 1.681310 0.000000 
#    z 0.000000 0.000000 1.726280 
# 
# From -- ./inp_files/69903.got.cif
#   From: 2010.03.12/outbox.cif.g09.slc.cpg/sg63_35_cif.got.tgz:69903.got - 2010.04.10 19:34:48.
