data_PCOD8259350
_publ_section_title
;
Structure prediction by ZEFSAII (Michael W. Deem and Ramdas Pophale) SiO2 
 PCOD8259350
Probable space group: C M C M
;
_chemical_formula_sum "Si O2"
_cell_formula_units_Z 64
_cell_length_a 12.270674
_cell_length_b 17.796505
_cell_length_c 15.188926
_cell_angle_alpha 90.000000
_cell_angle_beta 90.000000
_cell_angle_gamma 90.000000
_cell_volume 3316.883404
_symmetry_space_group_name_H-M "C M C M"
_symmetry_group_IT_number 63
_symmetry_cell_setting 'orthorhombic'
loop_
_space_group_symop_operation_xyz
x,y,z
-x,-y,1/2+z
x,-y,-z
-x,y,1/2-z
-x,-y,-z
x,y,1/2-z
-x,y,z
x,-y,1/2+z
1/2+x,1/2+y,z
1/2-x,1/2-y,1/2+z
1/2+x,1/2-y,-z
1/2-x,1/2+y,1/2-z
1/2-x,1/2-y,-z
1/2+x,1/2+y,1/2-z
1/2-x,1/2+y,z
1/2+x,1/2-y,1/2+z
loop_
_atom_site_type_symbol
_atom_site_label
_atom_site_fract_x
_atom_site_fract_y
_atom_site_fract_z
Si Si1 0.000000 0.297160 0.850934
Si Si2 0.218454 0.216930 0.593790
Si Si3 0.877449 0.464549 0.250000
Si Si4 0.216517 0.559122 0.924905
Si Si5 0.500000 0.910763 0.500502
Si Si6 0.876644 0.286228 0.250000
O O1 0.895412 0.248851 0.874279
O O2 0.000000 0.375657 0.903093
O O3 0.000000 0.320969 0.750000
O O4 0.250000 0.250000 0.500000
O O5 0.196928 0.125892 0.589627
O O6 0.311870 0.241008 0.663270
O O7 0.810409 0.489948 0.337237
O O8 0.881370 0.375361 0.250000
O O9 0.000000 0.498180 0.250000
O O10 0.252746 0.500000 0.000000
O O11 0.109745 0.610535 0.948903
O O12 0.500000 0.000000 0.500000
O O13 0.000000 0.252702 0.250000
#
# Coordination Sequence:
#
# PCOD8259350 Si02
#       6
#     8  16   8  16   8   8
#     4  12  24  42  62  94 132 160 207 263 309 360
#     4  11  22  37  61  89 121 165 203 253 311 368
#     4   9  16  28  52  77 113 155 190 245 309 369
#     4  10  20  36  53  85 119 156 207 252 309 378
#     4  10  20  37  56  87 128 153 192 251 322 373
#     4   9  20  35  56  85 121 158 201 243 309 375
#
# _framework density 19.295223
#
# number of rings (size 3 to 8) (size 9 to 14) (size 15 to 20)
#    0.000    1.750    5.000    0.000    3.500    0.000 
#    9.000    1.875    0.000    0.000    0.000    0.000 
#    0.000    0.000    0.000    0.000    0.000    0.000 
#
# Total GULP energy -396583.436753 kJ/mol
# GULP energy per Si atom -12393.232399 kJ/mol
# Density = 1.925131 g / cm^3
# Si number density = 19.295223 Si / 1000 Ang^3
#
#
#
# Elastic Constant Matrix: (Units=GPa)
#
#
# Indices 1 2 3 4 5 6 
#
# 1 100.2414 31.4845 47.1733 0.0000 0.0000 0.0000
# 2 31.4845 76.8071 44.9082 0.0000 0.0000 0.0000
# 3 47.1733 44.9082 184.1794 0.0000 0.0000 0.0000
# 4 0.0000 0.0000 0.0000 34.3040 0.0000 0.0000
# 5 0.0000 0.0000 0.0000 0.0000 27.4076 0.0000
# 6 0.0000 0.0000 0.0000 0.0000 0.0000 -59.4512
#
#
#
# Elastic Compliance Matrix: (Units=1/GPa)
#
#
# Indices 1 2 3 4 5 6 
#
# 1 0.012181 -0.003696 -0.002219 0.000000 0.000000 0.000000
# 2 -0.003696 0.016306 -0.003029 0.000000 0.000000 0.000000
# 3 -0.002219 -0.003029 0.006736 0.000000 0.000000 0.000000
# 4 0.000000 0.000000 0.000000 0.029151 0.000000 0.000000
# 5 0.000000 0.000000 0.000000 0.000000 0.036486 0.000000
# 6 0.000000 0.000000 0.000000 0.000000 0.000000 -0.016821
#
#
# Mechanical properties :
#
#
# Convention : Reuss Voigt Hill
#
# Bulk Modulus (GPa) = 57.68529 67.59554 62.64042
# Shear Modulus (GPa) = 46.42275 16.29621 31.35948
#
# Velocity S-wave (km/s) = 4.91034 2.90931 4.03581
# Velocity P-wave (km/s) = 7.88097 6.81129 7.36557
#
# Compressibility (1/GPa) = 0.01733544
#
# Stress axis : x y z
#
# Youngs Moduli (GPa) = 82.09610 61.32800 148.44822
#
# Poissons Ratio (x) = 0.22666 0.32936
# Poissons Ratio (y) = 0.30342 0.44968
# Poissons Ratio (z) = 0.18214 0.18577
#
# Static dielectric constant tensor:
#      x y z
#    x 4.400760 0.000000 0.000000 
#    y 0.000000 3.249330 0.000000 
#    z 0.000000 0.000000 4.329420 
# 
# 
# High freq. dielectric constant tensor:
#      x y z
#    x 1.722680 0.000000 0.000000 
#    y 0.000000 1.723350 0.000000 
#    z 0.000000 0.000000 1.780200 
# 
# From -- ./inp_files/29211.got.cif
#   From: 2010.03.12/outbox.cif.g09.slc.cpg/sg63_15_cif.got.tgz:29211.got - 2010.04.10 19:34:48.
