data_PCOD8259674
_publ_section_title
;
Structure prediction by ZEFSAII (Michael W. Deem and Ramdas Pophale) SiO2 
 PCOD8259674
Probable space group: C M C M
;
_chemical_formula_sum "Si O2"
_cell_formula_units_Z 72
_cell_length_a 19.769178
_cell_length_b 19.411194
_cell_length_c 9.111974
_cell_angle_alpha 90.000000
_cell_angle_beta 90.000000
_cell_angle_gamma 90.000000
_cell_volume 3496.659422
_symmetry_space_group_name_H-M "C M C M"
_symmetry_group_IT_number 63
_symmetry_cell_setting 'orthorhombic'
loop_
_space_group_symop_operation_xyz
x,y,z
-x,-y,1/2+z
x,-y,-z
-x,y,1/2-z
-x,-y,-z
x,y,1/2-z
-x,y,z
x,-y,1/2+z
1/2+x,1/2+y,z
1/2-x,1/2-y,1/2+z
1/2+x,1/2-y,-z
1/2-x,1/2+y,1/2-z
1/2-x,1/2-y,-z
1/2+x,1/2+y,1/2-z
1/2-x,1/2+y,z
1/2+x,1/2-y,1/2+z
loop_
_atom_site_type_symbol
_atom_site_label
_atom_site_fract_x
_atom_site_fract_y
_atom_site_fract_z
Si Si1 0.076271 0.300343 0.582291
Si Si2 0.696876 0.298399 0.079304
Si Si3 0.647354 0.425915 0.923005
Si Si4 0.000000 0.069247 0.415646
Si Si5 0.080617 0.434077 0.085138
O O1 0.076421 0.325380 0.750000
O O2 0.122596 0.234015 0.559334
O O3 0.106206 0.363664 0.488533
O O4 0.000000 0.280695 0.532124
O O5 0.715939 0.306876 0.250000
O O6 0.750000 0.250000 0.000000
O O7 0.698417 0.372725 0.000350
O O8 0.664039 0.432466 0.750000
O O9 0.571475 0.393218 0.949249
O O10 0.655366 0.500000 0.000000
O O11 0.000000 0.044951 0.250000
O O12 0.000000 0.000000 0.500000
O O13 0.108566 0.436361 0.250000
O O14 0.000000 0.436235 0.080422
O O15 0.110740 0.500000 0.000000
#
# Coordination Sequence:
#
# PCOD8259674 Si02
#       5
#    16  16  16   8  16
#     4   9  19  36  57  82 111 146 190 238 290 349
#     4  11  24  41  61  85 119 160 199 244 300 360
#     4  10  20  37  61  90 123 159 201 248 301 361
#     4   8  16  30  52  86 122 154 189 238 295 352
#     4   9  16  27  47  76 109 144 181 227 280 332
#
# _framework density 20.591082
#
# number of rings (size 3 to 8) (size 9 to 14) (size 15 to 20)
#    0.000    2.444    0.000    2.000    1.556    5.333 
#    0.000    1.111    0.000    5.333    0.000    0.000 
#    0.000    0.000    0.000    0.000    0.000    0.000 
#
# Total GULP energy -446185.987134 kJ/mol
# GULP energy per Si atom -12394.055198 kJ/mol
# Density = 2.054422 g / cm^3
# Si number density = 20.591082 Si / 1000 Ang^3
#
#
#
# Elastic Constant Matrix: (Units=GPa)
#
#
# Indices 1 2 3 4 5 6 
#
# 1 57.4429 36.2279 38.6331 0.0000 0.0000 0.0000
# 2 36.2279 120.8768 77.1990 0.0000 0.0000 0.0000
# 3 38.6331 77.1990 145.7381 0.0000 0.0000 0.0000
# 4 0.0000 0.0000 0.0000 40.4042 0.0000 0.0000
# 5 0.0000 0.0000 0.0000 0.0000 24.1757 0.0000
# 6 0.0000 0.0000 0.0000 0.0000 0.0000 26.3925
#
#
#
# Elastic Compliance Matrix: (Units=1/GPa)
#
#
# Indices 1 2 3 4 5 6 
#
# 1 0.022678 -0.004470 -0.003644 0.000000 0.000000 0.000000
# 2 -0.004470 0.013383 -0.005905 0.000000 0.000000 0.000000
# 3 -0.003644 -0.005905 0.010955 0.000000 0.000000 0.000000
# 4 0.000000 0.000000 0.000000 0.024750 0.000000 0.000000
# 5 0.000000 0.000000 0.000000 0.000000 0.041364 0.000000
# 6 0.000000 0.000000 0.000000 0.000000 0.000000 0.037890
#
#
# Mechanical properties :
#
#
# Convention : Reuss Voigt Hill
#
# Bulk Modulus (GPa) = 52.68525 69.79752 61.24139
# Shear Modulus (GPa) = 26.97111 29.66101 28.31606
#
# Velocity S-wave (km/s) = 3.62310 3.79948 3.71234
# Velocity P-wave (km/s) = 6.56845 7.29511 6.94129
#
# Compressibility (1/GPa) = 0.01898064
#
# Stress axis : x y z
#
# Youngs Moduli (GPa) = 44.09507 74.71922 91.27983
#
# Poissons Ratio (x) = 0.33396 0.33263
# Poissons Ratio (y) = 0.19708 0.53897
# Poissons Ratio (z) = 0.16069 0.44118
#
# Static dielectric constant tensor:
#      x y z
#    x 3.614840 0.000000 0.000000 
#    y 0.000000 3.538520 0.000000 
#    z 0.000000 0.000000 3.825560 
# 
# 
# High freq. dielectric constant tensor:
#      x y z
#    x 1.779860 0.000000 0.000000 
#    y 0.000000 1.798930 0.000000 
#    z 0.000000 0.000000 1.816370 
# 
# From -- ./inp_files/7842.got.cif
#   From: 2010.03.12/outbox.cif.g09.slc.cpg/sg63_4_cif.got.tgz:7842.got - 2010.04.10 19:34:48.
