data_PCOD8259795
_publ_section_title
;
Structure prediction by ZEFSAII (Michael W. Deem and Ramdas Pophale) SiO2 
 PCOD8259795
Probable space group: C M C M
;
_chemical_formula_sum "Si O2"
_cell_formula_units_Z 96
_cell_length_a 16.997327
_cell_length_b 11.422604
_cell_length_c 26.198117
_cell_angle_alpha 90.000000
_cell_angle_beta 90.000000
_cell_angle_gamma 90.000000
_cell_volume 5086.462275
_symmetry_space_group_name_H-M "C M C M"
_symmetry_group_IT_number 63
_symmetry_cell_setting 'orthorhombic'
loop_
_space_group_symop_operation_xyz
x,y,z
-x,-y,1/2+z
x,-y,-z
-x,y,1/2-z
-x,-y,-z
x,y,1/2-z
-x,y,z
x,-y,1/2+z
1/2+x,1/2+y,z
1/2-x,1/2-y,1/2+z
1/2+x,1/2-y,-z
1/2-x,1/2+y,1/2-z
1/2-x,1/2-y,-z
1/2+x,1/2+y,1/2-z
1/2-x,1/2+y,z
1/2+x,1/2-y,1/2+z
loop_
_atom_site_type_symbol
_atom_site_label
_atom_site_fract_x
_atom_site_fract_y
_atom_site_fract_z
Si Si1 0.322115 0.451490 0.372283
Si Si2 0.838754 0.479415 0.601089
Si Si3 0.590334 0.189059 0.953283
Si Si4 0.592703 0.257211 0.064841
Si Si5 0.090667 0.825907 0.648933
Si Si6 0.686517 0.125644 0.808278
O O1 0.256341 0.531203 0.401340
O O2 0.365127 0.370249 0.412868
O O3 0.385420 0.538070 0.346668
O O4 0.277117 0.372944 0.329148
O O5 0.863976 0.568476 0.556491
O O6 0.881051 0.356135 0.596433
O O7 0.863343 0.534612 0.656495
O O8 0.500000 0.153167 0.958092
O O9 0.604542 0.283587 0.909040
O O10 0.619930 0.245019 0.006212
O O11 0.500000 0.274603 0.070207
O O12 0.146576 0.753101 0.687074
O O13 0.000000 0.811526 0.665612
O O14 0.685251 0.083777 0.750000
#
# Coordination Sequence:
#
# PCOD8259795 Si02
#       6
#    16  16  16  16  16  16
#     4  10  22  37  54  87 113 149 182 236 288 328
#     4   9  20  35  57  84 113 145 194 234 278 331
#     4   9  19  35  57  82 115 159 193 228 274 331
#     4  11  21  37  57  82 119 157 186 223 287 340
#     4  10  20  39  59  83 115 146 193 237 273 335
#     4   9  21  40  62  81 107 145 188 234 293 341
#
# _framework density 18.873629999999999
#
# number of rings (size 3 to 8) (size 9 to 14) (size 15 to 20)
#    1.000    1.333    0.000    2.500    0.000    4.333 
#    3.000    2.500    0.000    2.500    0.000    0.000 
#    0.000    0.000    0.000    0.000    0.000    0.000 
#
# Total GULP energy -594984.063787 kJ/mol
# GULP energy per Si atom -12395.501329 kJ/mol
# Density = 1.883067 g / cm^3
# Si number density = 18.873630 Si / 1000 Ang^3
#
#
#
# Elastic Constant Matrix: (Units=GPa)
#
#
# Indices 1 2 3 4 5 6 
#
# 1 70.8453 25.6710 27.4032 0.0000 0.0000 0.0000
# 2 25.6710 58.2198 14.7700 0.0000 0.0000 0.0000
# 3 27.4032 14.7700 94.8632 0.0000 0.0000 0.0000
# 4 0.0000 0.0000 0.0000 15.7646 0.0000 0.0000
# 5 0.0000 0.0000 0.0000 0.0000 15.1522 0.0000
# 6 0.0000 0.0000 0.0000 0.0000 0.0000 38.6793
#
#
#
# Elastic Compliance Matrix: (Units=1/GPa)
#
#
# Indices 1 2 3 4 5 6 
#
# 1 0.018269 -0.006993 -0.004189 0.000000 0.000000 0.000000
# 2 -0.006993 0.020559 -0.001181 0.000000 0.000000 0.000000
# 3 -0.004189 -0.001181 0.011935 0.000000 0.000000 0.000000
# 4 0.000000 0.000000 0.000000 0.063433 0.000000 0.000000
# 5 0.000000 0.000000 0.000000 0.000000 0.065997 0.000000
# 6 0.000000 0.000000 0.000000 0.000000 0.000000 0.025854
#
#
# Mechanical properties :
#
#
# Convention : Reuss Voigt Hill
#
# Bulk Modulus (GPa) = 38.40419 39.95741 39.18080
# Shear Modulus (GPa) = 20.88094 24.32483 22.60289
#
# Velocity S-wave (km/s) = 3.32980 3.59392 3.46438
# Velocity P-wave (km/s) = 5.93091 6.19989 6.06689
#
# Compressibility (1/GPa) = 0.02603883
#
# Stress axis : x y z
#
# Youngs Moduli (GPa) = 54.73649 48.63984 83.78460
#
# Poissons Ratio (x) = 0.34013 0.35095
# Poissons Ratio (y) = 0.38277 0.09895
# Poissons Ratio (z) = 0.22928 0.05744
#
# Static dielectric constant tensor:
#      x y z
#    x 3.467750 0.000000 0.000000 
#    y 0.000000 3.297830 0.000000 
#    z 0.000000 0.000000 3.275170 
# 
# 
# High freq. dielectric constant tensor:
#      x y z
#    x 1.733260 0.000000 0.000000 
#    y 0.000000 1.724740 0.000000 
#    z 0.000000 0.000000 1.715100 
# 
# From -- ./inp_files/63694.got.cif
#   From: 2010.03.12/outbox.cif.g09.slc.cpg/sg63_32_cif.got.tgz:63694.got - 2010.04.10 19:34:48.
