data_PCOD8259314
_publ_section_title
;
Structure prediction by ZEFSAII (Michael W. Deem and Ramdas Pophale) SiO2 
 PCOD8259314
Probable space group: C M C M
;
_chemical_formula_sum "Si O2"
_cell_formula_units_Z 96
_cell_length_a 17.816472
_cell_length_b 11.069989
_cell_length_c 24.024593
_cell_angle_alpha 90.000000
_cell_angle_beta 90.000000
_cell_angle_gamma 90.000000
_cell_volume 4738.326009
_symmetry_space_group_name_H-M "C M C M"
_symmetry_group_IT_number 63
_symmetry_cell_setting 'orthorhombic'
loop_
_space_group_symop_operation_xyz
x,y,z
-x,-y,1/2+z
x,-y,-z
-x,y,1/2-z
-x,-y,-z
x,y,1/2-z
-x,y,z
x,-y,1/2+z
1/2+x,1/2+y,z
1/2-x,1/2-y,1/2+z
1/2+x,1/2-y,-z
1/2-x,1/2+y,1/2-z
1/2-x,1/2-y,-z
1/2+x,1/2+y,1/2-z
1/2-x,1/2+y,z
1/2+x,1/2-y,1/2+z
loop_
_atom_site_type_symbol
_atom_site_label
_atom_site_fract_x
_atom_site_fract_y
_atom_site_fract_z
Si Si1 0.085530 0.957150 0.593511
Si Si2 0.914630 0.768496 0.087981
Si Si3 0.664187 0.655548 0.312133
Si Si4 0.658630 0.140194 0.314156
Si Si5 0.087779 0.728259 0.529619
Si Si6 0.089106 0.606453 0.640977
O O1 0.130398 0.951505 0.651165
O O2 0.120577 0.856422 0.552034
O O3 0.000000 0.920575 0.606316
O O4 0.091861 0.091415 0.570019
O O5 0.871187 0.744484 0.145076
O O6 0.000000 0.729232 0.099661
O O7 0.880692 0.699573 0.032918
O O8 0.639860 0.625541 0.250000
O O9 0.752984 0.650783 0.318410
O O10 0.629867 0.784990 0.327695
O O11 0.631972 0.158580 0.250000
O O12 0.627264 0.014757 0.337703
O O13 0.103686 0.621669 0.574225
O O14 0.000000 0.746796 0.520210
O O15 0.000000 0.606182 0.653732
#
# Coordination Sequence:
#
# PCOD8259314 Si02
#       6
#    16  16  16  16  16  16
#     4   9  18  34  59  88 115 145 188 238 287 347
#     4  10  20  35  59  87 118 152 185 232 292 354
#     4  10  22  38  58  81 112 154 198 242 289 341
#     4  11  25  39  55  82 121 159 191 238 297 347
#     4   8  16  34  61  89 112 144 192 240 286 338
#     4  10  21  40  65  87 112 152 203 247 285 346
#
# _framework density 20.260321000000001
#
# number of rings (size 3 to 8) (size 9 to 14) (size 15 to 20)
#    0.000    2.333    0.000    3.000    2.333    6.667 
#    0.000    7.500    7.333    0.000    0.000    0.000 
#    0.000    0.000    0.000    0.000    0.000    0.000 
#
# Total GULP energy -594786.564925 kJ/mol
# GULP energy per Si atom -12391.386769 kJ/mol
# Density = 2.021421 g / cm^3
# Si number density = 20.260321 Si / 1000 Ang^3
#
#
#
# Elastic Constant Matrix: (Units=GPa)
#
#
# Indices 1 2 3 4 5 6 
#
# 1 58.8145 26.0095 43.6772 0.0000 0.0000 0.0000
# 2 26.0095 57.5237 30.5805 0.0000 0.0000 0.0000
# 3 43.6772 30.5805 172.4401 0.0000 0.0000 0.0000
# 4 0.0000 0.0000 0.0000 17.1664 0.0000 0.0000
# 5 0.0000 0.0000 0.0000 0.0000 4.5606 0.0000
# 6 0.0000 0.0000 0.0000 0.0000 0.0000 28.2702
#
#
#
# Elastic Compliance Matrix: (Units=1/GPa)
#
#
# Indices 1 2 3 4 5 6 
#
# 1 0.024184 -0.008478 -0.004622 0.000000 0.000000 0.000000
# 2 -0.008478 0.022166 -0.001783 0.000000 0.000000 0.000000
# 3 -0.004622 -0.001783 0.007286 0.000000 0.000000 0.000000
# 4 0.000000 0.000000 0.000000 0.058253 0.000000 0.000000
# 5 0.000000 0.000000 0.000000 0.000000 0.219267 0.000000
# 6 0.000000 0.000000 0.000000 0.000000 0.000000 0.035373
#
#
# Mechanical properties :
#
#
# Convention : Reuss Voigt Hill
#
# Bulk Modulus (GPa) = 41.89522 54.36807 48.13164
# Shear Modulus (GPa) = 12.36851 22.56686 17.46769
#
# Velocity S-wave (km/s) = 2.47347 3.34105 2.93945
# Velocity P-wave (km/s) = 5.37408 6.46348 5.94379
#
# Compressibility (1/GPa) = 0.02386907
#
# Stress axis : x y z
#
# Youngs Moduli (GPa) = 41.34918 45.11513 137.24675
#
# Poissons Ratio (x) = 0.38248 0.63438
# Poissons Ratio (y) = 0.35055 0.24478
# Poissons Ratio (z) = 0.19112 0.08046
#
# Static dielectric constant tensor:
#      x y z
#    x 3.553080 0.000000 0.000000 
#    y 0.000000 3.540050 0.000000 
#    z 0.000000 0.000000 4.165470 
# 
# 
# High freq. dielectric constant tensor:
#      x y z
#    x 1.766720 0.000000 0.000000 
#    y 0.000000 1.783440 0.000000 
#    z 0.000000 0.000000 1.811200 
# 
# From -- ./inp_files/63669.got.cif
#   From: 2010.03.12/outbox.cif.g09.slc.cpg/sg63_32_cif.got.tgz:63669.got - 2010.04.10 19:34:48.
