data_PCOD8259684
_publ_section_title
;
Structure prediction by ZEFSAII (Michael W. Deem and Ramdas Pophale) SiO2 
 PCOD8259684
Probable space group: C M C M
;
_chemical_formula_sum "Si O2"
_cell_formula_units_Z 80
_cell_length_a 10.979529
_cell_length_b 19.948751
_cell_length_c 17.983595
_cell_angle_alpha 90.000000
_cell_angle_beta 90.000000
_cell_angle_gamma 90.000000
_cell_volume 3938.908870
_symmetry_space_group_name_H-M "C M C M"
_symmetry_group_IT_number 63
_symmetry_cell_setting 'orthorhombic'
loop_
_space_group_symop_operation_xyz
x,y,z
-x,-y,1/2+z
x,-y,-z
-x,y,1/2-z
-x,-y,-z
x,y,1/2-z
-x,y,z
x,-y,1/2+z
1/2+x,1/2+y,z
1/2-x,1/2-y,1/2+z
1/2+x,1/2-y,-z
1/2-x,1/2+y,1/2-z
1/2-x,1/2-y,-z
1/2+x,1/2+y,1/2-z
1/2-x,1/2+y,z
1/2+x,1/2-y,1/2+z
loop_
_atom_site_type_symbol
_atom_site_label
_atom_site_fract_x
_atom_site_fract_y
_atom_site_fract_z
Si Si1 0.000000 0.447182 0.333268
Si Si2 0.000000 0.394271 0.663662
Si Si3 0.237112 0.932128 0.339276
Si Si4 0.775367 0.673012 0.414518
Si Si5 0.857822 0.182616 0.566367
Si Si6 0.140492 0.928697 0.668646
O O1 0.000000 0.526704 0.333564
O O2 0.875318 0.418771 0.369112
O O3 0.000000 0.420168 0.250000
O O4 0.885260 0.372811 0.614139
O O5 0.000000 0.366445 0.750000
O O6 0.225225 0.929977 0.250000
O O7 0.148811 0.876300 0.373402
O O8 0.199874 0.005718 0.369815
O O9 0.810099 0.749228 0.394719
O O10 0.737657 0.666406 0.500700
O O11 0.658647 0.642195 0.372670
O O12 0.000000 0.190637 0.540932
O O13 0.200198 0.920664 0.750000
O O14 0.000000 0.944307 0.674113
#
# Coordination Sequence:
#
# PCOD8259684 Si02
#       6
#     8   8  16  16  16  16
#     4   9  18  37  63  91 125 154 191 256 319 361
#     4  11  20  39  71  97 120 155 209 265 304 359
#     4  10  21  39  63  93 125 161 209 262 314 367
#     4  11  23  41  62  89 121 162 208 253 310 370
#     4  11  25  43  60  86 126 170 206 254 316 371
#     4  10  20  37  62  90 121 159 203 259 318 371
#
# _framework density 20.310193000000002
#
# number of rings (size 3 to 8) (size 9 to 14) (size 15 to 20)
#    0.000    1.600    3.000    1.800    0.000    4.400 
#    3.600    3.000    0.000    0.000    0.000    0.000 
#    0.000    0.000    0.000    0.000    0.000    0.000 
#
# Total GULP energy -495545.934661 kJ/mol
# GULP energy per Si atom -12388.648367 kJ/mol
# Density = 2.026397 g / cm^3
# Si number density = 20.310193 Si / 1000 Ang^3
#
#
#
# Elastic Constant Matrix: (Units=GPa)
#
#
# Indices 1 2 3 4 5 6 
#
# 1 95.5053 33.6120 28.2411 0.0000 0.0000 0.0000
# 2 33.6120 101.5315 41.2788 0.0000 0.0000 0.0000
# 3 28.2411 41.2788 54.1965 0.0000 0.0000 0.0000
# 4 0.0000 0.0000 0.0000 31.8959 0.0000 0.0000
# 5 0.0000 0.0000 0.0000 0.0000 25.8176 0.0000
# 6 0.0000 0.0000 0.0000 0.0000 0.0000 29.5775
#
#
#
# Elastic Compliance Matrix: (Units=1/GPa)
#
#
# Indices 1 2 3 4 5 6 
#
# 1 0.012707 -0.002194 -0.004950 0.000000 0.000000 0.000000
# 2 -0.002194 0.014646 -0.010012 0.000000 0.000000 0.000000
# 3 -0.004950 -0.010012 0.028656 0.000000 0.000000 0.000000
# 4 0.000000 0.000000 0.000000 0.031352 0.000000 0.000000
# 5 0.000000 0.000000 0.000000 0.000000 0.038733 0.000000
# 6 0.000000 0.000000 0.000000 0.000000 0.000000 0.033810
#
#
# Mechanical properties :
#
#
# Convention : Reuss Voigt Hill
#
# Bulk Modulus (GPa) = 46.08955 50.83301 48.46128
# Shear Modulus (GPa) = 24.82033 27.33161 26.07597
#
# Velocity S-wave (km/s) = 3.49959 3.67237 3.58702
# Velocity P-wave (km/s) = 6.25073 6.56235 6.40843
#
# Compressibility (1/GPa) = 0.02169689
#
# Stress axis : x y z
#
# Youngs Moduli (GPa) = 78.69960 68.27863 34.89629
#
# Poissons Ratio (x) = 0.14980 0.17274
# Poissons Ratio (y) = 0.17266 0.34937
# Poissons Ratio (z) = 0.38958 0.68359
#
# Static dielectric constant tensor:
#      x y z
#    x 3.985430 0.000000 0.000000 
#    y 0.000000 3.646460 0.000000 
#    z 0.000000 0.000000 3.564620 
# 
# 
# High freq. dielectric constant tensor:
#      x y z
#    x 1.814690 0.000000 0.000000 
#    y 0.000000 1.790130 0.000000 
#    z 0.000000 0.000000 1.767570 
# 
# From -- ./inp_files/42141.got.cif
#   From: 2010.03.12/outbox.cif.g09.slc.cpg/sg63_22_cif.got.tgz:42141.got - 2010.04.10 19:34:48.
