data_PCOD8259609
_publ_section_title
;
Structure prediction by ZEFSAII (Michael W. Deem and Ramdas Pophale) SiO2 
 PCOD8259609
Probable space group: C M C M
;
_chemical_formula_sum "Si O2"
_cell_formula_units_Z 112
_cell_length_a 14.132206
_cell_length_b 13.542819
_cell_length_c 29.379838
_cell_angle_alpha 90.000000
_cell_angle_beta 90.000000
_cell_angle_gamma 90.000000
_cell_volume 5623.004490
_symmetry_space_group_name_H-M "C M C M"
_symmetry_group_IT_number 63
_symmetry_cell_setting 'orthorhombic'
loop_
_space_group_symop_operation_xyz
x,y,z
-x,-y,1/2+z
x,-y,-z
-x,y,1/2-z
-x,-y,-z
x,y,1/2-z
-x,y,z
x,-y,1/2+z
1/2+x,1/2+y,z
1/2-x,1/2-y,1/2+z
1/2+x,1/2-y,-z
1/2-x,1/2+y,1/2-z
1/2-x,1/2-y,-z
1/2+x,1/2+y,1/2-z
1/2-x,1/2+y,z
1/2+x,1/2-y,1/2+z
loop_
_atom_site_type_symbol
_atom_site_label
_atom_site_fract_x
_atom_site_fract_y
_atom_site_fract_z
Si Si1 0.721732 0.528062 0.354746
Si Si2 0.891969 0.186234 0.302312
Si Si3 0.889606 0.247783 0.558362
Si Si4 0.612288 0.167589 0.346469
Si Si5 0.287321 0.449561 0.049565
Si Si6 0.774956 0.171203 0.698358
Si Si7 0.897133 0.608386 0.980467
O O1 0.640478 0.596081 0.333720
O O2 0.827012 0.566895 0.341345
O O3 0.701142 0.526486 0.409126
O O4 0.708934 0.418399 0.335790
O O5 0.880895 0.152571 0.250000
O O6 0.827628 0.281772 0.311994
O O7 0.000000 0.213841 0.314035
O O8 0.850489 0.285938 0.606291
O O9 0.867004 0.133666 0.550434
O O10 0.852642 0.317873 0.518043
O O11 0.000000 0.261388 0.560070
O O12 0.500000 0.144667 0.343608
O O13 0.642607 0.246497 0.308128
O O14 0.184175 0.397374 0.057843
O O15 0.291373 0.500000 0.000000
O O16 0.781006 0.132489 0.750000
O O17 0.000000 0.645338 0.961645
O O18 0.912450 0.500000 0.000000
#
# Coordination Sequence:
#
# PCOD8259609 Si02
#       7
#    16  16  16  16  16  16  16
#     4  11  22  37  61  91 121 155 201 249 291 350
#     4   9  20  40  64  88 118 156 195 240 297 358
#     4  10  20  37  58  80 114 154 195 243 294 344
#     4  10  21  38  61  88 119 155 196 245 297 350
#     4  11  22  36  58  83 116 159 198 241 294 349
#     4  10  21  39  61  88 121 153 190 241 300 359
#     4   9  18  33  54  80 108 145 192 237 282 338
#
# _framework density 19.918178000000001
#
# number of rings (size 3 to 8) (size 9 to 14) (size 15 to 20)
#    0.000    2.000    1.429    2.571    0.000    4.571 
#    0.000    0.000    0.000    0.000    0.000    0.000 
#    0.000    0.000    0.000    0.000    0.000    0.000 
#
# Total GULP energy -694171.504112 kJ/mol
# GULP energy per Si atom -12395.919716 kJ/mol
# Density = 1.987284 g / cm^3
# Si number density = 19.918178 Si / 1000 Ang^3
#
#
#
# Elastic Constant Matrix: (Units=GPa)
#
#
# Indices 1 2 3 4 5 6 
#
# 1 42.1099 1.7370 5.4320 0.0000 0.0000 0.0000
# 2 1.7370 68.0992 17.8159 0.0000 0.0000 0.0000
# 3 5.4320 17.8159 79.0278 0.0000 0.0000 0.0000
# 4 0.0000 0.0000 0.0000 28.5241 0.0000 0.0000
# 5 0.0000 0.0000 0.0000 0.0000 29.0524 0.0000
# 6 0.0000 0.0000 0.0000 0.0000 0.0000 22.7939
#
#
#
# Elastic Compliance Matrix: (Units=1/GPa)
#
#
# Indices 1 2 3 4 5 6 
#
# 1 0.023962 -0.000192 -0.001604 0.000000 0.000000 0.000000
# 2 -0.000192 0.015606 -0.003505 0.000000 0.000000 0.000000
# 3 -0.001604 -0.003505 0.013554 0.000000 0.000000 0.000000
# 4 0.000000 0.000000 0.000000 0.035058 0.000000 0.000000
# 5 0.000000 0.000000 0.000000 0.000000 0.034421 0.000000
# 6 0.000000 0.000000 0.000000 0.000000 0.000000 0.043871
#
#
# Mechanical properties :
#
#
# Convention : Reuss Voigt Hill
#
# Bulk Modulus (GPa) = 23.51744 26.57852 25.04798
# Shear Modulus (GPa) = 26.14410 27.02421 26.58415
#
# Velocity S-wave (km/s) = 3.62688 3.68742 3.65727
# Velocity P-wave (km/s) = 5.41956 5.61269 5.51697
#
# Compressibility (1/GPa) = 0.04252163
#
# Stress axis : x y z
#
# Youngs Moduli (GPa) = 41.73239 64.07649 73.77780
#
# Poissons Ratio (x) = 0.01228 0.11833
# Poissons Ratio (y) = 0.00800 0.25860
# Poissons Ratio (z) = 0.06693 0.22460
#
# Static dielectric constant tensor:
#      x y z
#    x 3.841080 0.000000 0.000000 
#    y 0.000000 3.463860 0.000000 
#    z 0.000000 0.000000 3.776340 
# 
# 
# High freq. dielectric constant tensor:
#      x y z
#    x 1.778360 0.000000 0.000000 
#    y 0.000000 1.771120 0.000000 
#    z 0.000000 0.000000 1.770800 
# 
# From -- ./inp_files/73411.got.cif
#   From: 2010.03.12/outbox.cif.g09.slc.cpg/sg63_37_cif.got.tgz:73411.got - 2010.04.10 19:34:48.
