data_PCOD8259730
_publ_section_title
;
Structure prediction by ZEFSAII (Michael W. Deem and Ramdas Pophale) SiO2 
 PCOD8259730
Probable space group: C M C M
;
_chemical_formula_sum "Si O2"
_cell_formula_units_Z 112
_cell_length_a 27.827219
_cell_length_b 12.298673
_cell_length_c 16.020210
_cell_angle_alpha 90.000000
_cell_angle_beta 90.000000
_cell_angle_gamma 90.000000
_cell_volume 5482.722499
_symmetry_space_group_name_H-M "C M C M"
_symmetry_group_IT_number 63
_symmetry_cell_setting 'orthorhombic'
loop_
_space_group_symop_operation_xyz
x,y,z
-x,-y,1/2+z
x,-y,-z
-x,y,1/2-z
-x,-y,-z
x,y,1/2-z
-x,y,z
x,-y,1/2+z
1/2+x,1/2+y,z
1/2-x,1/2-y,1/2+z
1/2+x,1/2-y,-z
1/2-x,1/2+y,1/2-z
1/2-x,1/2-y,-z
1/2+x,1/2+y,1/2-z
1/2-x,1/2+y,z
1/2+x,1/2-y,1/2+z
loop_
_atom_site_type_symbol
_atom_site_label
_atom_site_fract_x
_atom_site_fract_y
_atom_site_fract_z
Si Si1 0.193428 0.186161 0.154367
Si Si2 0.638607 0.947371 0.917260
Si Si3 0.845188 0.966054 0.403941
Si Si4 0.054179 0.317483 0.504960
Si Si5 0.947909 0.919594 0.075858
Si Si6 0.202068 0.745838 0.150667
Si Si7 0.890148 0.662651 0.845238
O O1 0.196220 0.218844 0.250000
O O2 0.244600 0.220452 0.115609
O O3 0.150527 0.257345 0.115439
O O4 0.182927 0.058121 0.146675
O O5 0.670545 0.856321 0.875360
O O6 0.629791 0.039880 0.848132
O O7 0.587288 0.900418 0.944977
O O8 0.663531 0.000000 0.000000
O O9 0.900668 0.953607 0.370054
O O10 0.816538 0.854125 0.394149
O O11 0.846608 0.000000 0.500000
O O12 0.063482 0.198208 0.539705
O O13 0.064414 0.320577 0.405508
O O14 0.000000 0.355655 0.519783
O O15 0.000000 0.920042 0.125072
O O16 0.954102 0.000000 0.000000
O O17 0.199678 0.761233 0.250000
O O18 0.904342 0.692040 0.750000
#
# Coordination Sequence:
#
# PCOD8259730 Si02
#       7
#    16  16  16  16  16  16  16
#     4  10  24  41  60  86 123 164 201 247 309 366
#     4  10  22  38  61  87 117 157 201 253 303 360
#     4  11  22  38  64  93 125 158 206 259 306 363
#     4  10  20  38  60  87 119 152 197 247 304 365
#     4   9  17  32  59  89 118 154 195 243 303 362
#     4  11  24  42  62  87 123 168 206 247 312 373
#     4  10  21  38  58  84 120 156 198 247 296 360
#
# _framework density 20.427807999999999
#
# number of rings (size 3 to 8) (size 9 to 14) (size 15 to 20)
#    0.000    1.857    1.429    2.571    4.000    4.000 
#    0.000    0.000    0.000    4.714    0.000    0.000 
#    0.000    0.000    0.000    0.000    0.000    0.000 
#
# Total GULP energy -694145.262715 kJ/mol
# GULP energy per Si atom -12395.451120 kJ/mol
# Density = 2.038131 g / cm^3
# Si number density = 20.427808 Si / 1000 Ang^3
#
#
#
# Elastic Constant Matrix: (Units=GPa)
#
#
# Indices 1 2 3 4 5 6 
#
# 1 125.1704 48.1990 21.0223 0.0000 0.0000 0.0000
# 2 48.1990 117.1120 2.0905 0.0000 0.0000 0.0000
# 3 21.0223 2.0905 42.1476 0.0000 0.0000 0.0000
# 4 0.0000 0.0000 0.0000 26.2066 0.0000 0.0000
# 5 0.0000 0.0000 0.0000 0.0000 23.5103 0.0000
# 6 0.0000 0.0000 0.0000 0.0000 0.0000 31.5080
#
#
#
# Elastic Compliance Matrix: (Units=1/GPa)
#
#
# Indices 1 2 3 4 5 6 
#
# 1 0.010451 -0.004212 -0.005004 0.000000 0.000000 0.000000
# 2 -0.004212 0.010244 0.001593 0.000000 0.000000 0.000000
# 3 -0.005004 0.001593 0.026143 0.000000 0.000000 0.000000
# 4 0.000000 0.000000 0.000000 0.038158 0.000000 0.000000
# 5 0.000000 0.000000 0.000000 0.000000 0.042535 0.000000
# 6 0.000000 0.000000 0.000000 0.000000 0.000000 0.031738
#
#
# Mechanical properties :
#
#
# Convention : Reuss Voigt Hill
#
# Bulk Modulus (GPa) = 31.65380 47.45040 39.55210
# Shear Modulus (GPa) = 27.02021 30.45286 28.73653
#
# Velocity S-wave (km/s) = 3.64086 3.86522 3.75472
# Velocity P-wave (km/s) = 5.76226 6.57257 6.18071
#
# Compressibility (1/GPa) = 0.03159179
#
# Stress axis : x y z
#
# Youngs Moduli (GPa) = 95.68014 97.61854 38.25106
#
# Poissons Ratio (x) = 0.41118 0.19141
# Poissons Ratio (y) = 0.40302 -0.06093
# Poissons Ratio (z) = 0.47879 -0.15549
#
# Static dielectric constant tensor:
#      x y z
#    x 4.150220 0.000000 0.000000 
#    y 0.000000 3.633460 0.000000 
#    z 0.000000 0.000000 3.356990 
# 
# 
# High freq. dielectric constant tensor:
#      x y z
#    x 1.806750 0.000000 0.000000 
#    y 0.000000 1.820470 0.000000 
#    z 0.000000 0.000000 1.768430 
# 
# From -- ./inp_files/38498.got.cif
#   From: 2010.03.12/outbox.cif.g09.slc.cpg/sg63_20_cif.got.tgz:38498.got - 2010.04.10 19:34:48.
