data_PCOD8259663
_publ_section_title
;
Structure prediction by ZEFSAII (Michael W. Deem and Ramdas Pophale) SiO2 
 PCOD8259663
Probable space group: C M C M
;
_chemical_formula_sum "Si O2"
_cell_formula_units_Z 48
_cell_length_a 18.749915
_cell_length_b 8.722243
_cell_length_c 15.424484
_cell_angle_alpha 90.000000
_cell_angle_beta 90.000000
_cell_angle_gamma 90.000000
_cell_volume 2522.540394
_symmetry_space_group_name_H-M "C M C M"
_symmetry_group_IT_number 63
_symmetry_cell_setting 'orthorhombic'
loop_
_space_group_symop_operation_xyz
x,y,z
-x,-y,1/2+z
x,-y,-z
-x,y,1/2-z
-x,-y,-z
x,y,1/2-z
-x,y,z
x,-y,1/2+z
1/2+x,1/2+y,z
1/2-x,1/2-y,1/2+z
1/2+x,1/2-y,-z
1/2-x,1/2+y,1/2-z
1/2-x,1/2-y,-z
1/2+x,1/2+y,1/2-z
1/2-x,1/2+y,z
1/2+x,1/2-y,1/2+z
loop_
_atom_site_type_symbol
_atom_site_label
_atom_site_fract_x
_atom_site_fract_y
_atom_site_fract_z
Si Si1 0.829539 0.951358 0.906433
Si Si2 0.582539 0.416054 0.250000
Si Si3 0.307918 0.880042 0.346405
Si Si4 0.917412 0.555729 0.250000
O O1 0.883940 0.010860 0.835110
O O2 0.751012 0.019862 0.894259
O O3 0.825288 0.767838 0.903381
O O4 0.859483 0.000000 0.000000
O O5 0.500000 0.458852 0.250000
O O6 0.595478 0.235715 0.250000
O O7 0.279900 0.829911 0.250000
O O8 0.379508 0.983403 0.335477
O O9 0.000000 0.510472 0.250000
#
# Coordination Sequence:
#
# PCOD8259663 Si02
#       4
#    16   8  16   8
#     4  12  23  38  62  91 119 155 198 245 294 351
#     4  11  22  41  60  83 121 159 196 245 294 351
#     4  10  20  37  61  84 119 153 193 243 297 342
#     4   9  20  37  64  85 111 161 200 235 296 351
#
# _framework density 19.028435999999999
#
# number of rings (size 3 to 8) (size 9 to 14) (size 15 to 20)
#    1.000    0.333    3.333    3.000    0.000    3.333 
#    0.000    0.000    0.000    5.000    0.000    0.000 
#    0.000    0.000    0.000    0.000    0.000    0.000 
#
# Total GULP energy -297610.515771 kJ/mol
# GULP energy per Si atom -12400.438157 kJ/mol
# Density = 1.898513 g / cm^3
# Si number density = 19.028436 Si / 1000 Ang^3
#
#
#
# Elastic Constant Matrix: (Units=GPa)
#
#
# Indices 1 2 3 4 5 6 
#
# 1 140.4896 72.1955 45.9831 0.0000 0.0000 0.0000
# 2 72.1955 106.4142 19.1158 0.0000 0.0000 0.0000
# 3 45.9831 19.1158 109.2241 0.0000 0.0000 0.0000
# 4 0.0000 0.0000 0.0000 9.2924 0.0000 0.0000
# 5 0.0000 0.0000 0.0000 0.0000 10.9454 0.0000
# 6 0.0000 0.0000 0.0000 0.0000 0.0000 32.7014
#
#
#
# Elastic Compliance Matrix: (Units=1/GPa)
#
#
# Indices 1 2 3 4 5 6 
#
# 1 0.012314 -0.007664 -0.003843 0.000000 0.000000 0.000000
# 2 -0.007664 0.014472 0.000694 0.000000 0.000000 0.000000
# 3 -0.003843 0.000694 0.010652 0.000000 0.000000 0.000000
# 4 0.000000 0.000000 0.000000 0.107615 0.000000 0.000000
# 5 0.000000 0.000000 0.000000 0.000000 0.091363 0.000000
# 6 0.000000 0.000000 0.000000 0.000000 0.000000 0.030580
#
#
# Mechanical properties :
#
#
# Convention : Reuss Voigt Hill
#
# Bulk Modulus (GPa) = 63.24402 70.07965 66.66184
# Shear Modulus (GPa) = 17.01298 25.17673 21.09486
#
# Velocity S-wave (km/s) = 2.99336 3.64141 3.33317
# Velocity P-wave (km/s) = 6.72724 7.38841 7.06556
#
# Compressibility (1/GPa) = 0.01581177
#
# Stress axis : x y z
#
# Youngs Moduli (GPa) = 81.20661 69.09765 93.87952
#
# Poissons Ratio (x) = 0.52957 0.36077
# Poissons Ratio (y) = 0.62238 -0.06513
# Poissons Ratio (z) = 0.31207 -0.04794
#
# Static dielectric constant tensor:
#      x y z
#    x 3.420850 0.000000 0.000000 
#    y 0.000000 3.540390 0.000000 
#    z 0.000000 0.000000 3.440570 
# 
# 
# High freq. dielectric constant tensor:
#      x y z
#    x 1.732440 0.000000 0.000000 
#    y 0.000000 1.756190 0.000000 
#    z 0.000000 0.000000 1.724810 
# 
# From -- ./inp_files/33069.got.cif
#   From: 2010.03.12/outbox.cif.g09.slc.cpg/sg63_17_cif.got.tgz:33069.got - 2010.04.10 19:34:48.
