data_PCOD8259583
_publ_section_title
;
Structure prediction by ZEFSAII (Michael W. Deem and Ramdas Pophale) SiO2 
 PCOD8259583
Probable space group: C M C M
;
_chemical_formula_sum "Si O2"
_cell_formula_units_Z 96
_cell_length_a 15.513410
_cell_length_b 17.156919
_cell_length_c 18.708017
_cell_angle_alpha 90.000000
_cell_angle_beta 90.000000
_cell_angle_gamma 90.000000
_cell_volume 4979.369185
_symmetry_space_group_name_H-M "C M C M"
_symmetry_group_IT_number 63
_symmetry_cell_setting 'orthorhombic'
loop_
_space_group_symop_operation_xyz
x,y,z
-x,-y,1/2+z
x,-y,-z
-x,y,1/2-z
-x,-y,-z
x,y,1/2-z
-x,y,z
x,-y,1/2+z
1/2+x,1/2+y,z
1/2-x,1/2-y,1/2+z
1/2+x,1/2-y,-z
1/2-x,1/2+y,1/2-z
1/2-x,1/2-y,-z
1/2+x,1/2+y,1/2-z
1/2-x,1/2+y,z
1/2+x,1/2-y,1/2+z
loop_
_atom_site_type_symbol
_atom_site_label
_atom_site_fract_x
_atom_site_fract_y
_atom_site_fract_z
Si Si1 0.774540 0.409196 0.332846
Si Si2 0.500000 0.653002 0.327998
Si Si3 0.400097 0.052756 0.167452
Si Si4 0.804876 0.673887 0.073497
Si Si5 0.326008 0.649235 0.544958
Si Si6 0.328266 0.259856 0.828595
Si Si7 0.500000 0.587173 0.023029
O O1 0.744519 0.412531 0.250000
O O2 0.838792 0.479694 0.350233
O O3 0.690031 0.405799 0.384756
O O4 0.824369 0.329702 0.353400
O O5 0.500000 0.610175 0.250000
O O6 0.575108 0.714477 0.334836
O O7 0.500000 0.589618 0.390615
O O8 0.386136 0.080071 0.250000
O O9 0.500000 0.029178 0.155940
O O10 0.377354 0.119825 0.109981
O O11 0.843301 0.760130 0.062852
O O12 0.724765 0.678660 0.126281
O O13 0.762202 0.638962 0.001446
O O14 0.413161 0.625600 0.505940
O O15 0.289276 0.266316 0.750000
O O16 0.500000 0.500000 0.000000
#
# Coordination Sequence:
#
# PCOD8259583 Si02
#       7
#    16   8  16  16  16  16   8
#     4   9  20  38  59  87 121 156 200 249 305 360
#     4  10  20  36  62  93 119 153 203 249 295 351
#     4  10  22  38  61  91 123 158 192 243 305 362
#     4  10  20  38  60  85 117 154 200 241 291 367
#     4  10  23  40  61  85 114 161 202 247 302 350
#     4   9  17  32  58  87 116 153 196 245 292 347
#     4  12  26  42  62  89 127 159 195 257 299 352
#
# _framework density 19.279551000000001
#
# number of rings (size 3 to 8) (size 9 to 14) (size 15 to 20)
#    0.000    2.167    1.667    0.500    4.667    0.667 
#    0.000    2.917    0.000    0.000    0.000    0.000 
#    0.000    0.000    0.000    0.000    0.000    0.000 
#
# Total GULP energy -594786.852242 kJ/mol
# GULP energy per Si atom -12391.392755 kJ/mol
# Density = 1.923567 g / cm^3
# Si number density = 19.279551 Si / 1000 Ang^3
#
#
#
# Elastic Constant Matrix: (Units=GPa)
#
#
# Indices 1 2 3 4 5 6 
#
# 1 85.2859 30.9234 51.3266 0.0000 0.0000 0.0000
# 2 30.9234 77.4938 50.1337 0.0000 0.0000 0.0000
# 3 51.3266 50.1337 124.8448 0.0000 0.0000 0.0000
# 4 0.0000 0.0000 0.0000 32.1348 0.0000 0.0000
# 5 0.0000 0.0000 0.0000 0.0000 -25.7528 0.0000
# 6 0.0000 0.0000 0.0000 0.0000 0.0000 36.9737
#
#
#
# Elastic Compliance Matrix: (Units=1/GPa)
#
#
# Indices 1 2 3 4 5 6 
#
# 1 0.016044 -0.002884 -0.005438 0.000000 0.000000 0.000000
# 2 -0.002884 0.017952 -0.006023 0.000000 0.000000 0.000000
# 3 -0.005438 -0.006023 0.012664 0.000000 0.000000 0.000000
# 4 0.000000 0.000000 0.000000 0.031119 0.000000 0.000000
# 5 0.000000 0.000000 0.000000 0.000000 -0.038831 0.000000
# 6 0.000000 0.000000 0.000000 0.000000 0.000000 0.027046
#
#
# Mechanical properties :
#
#
# Convention : Reuss Voigt Hill
#
# Bulk Modulus (GPa) = 55.64981 61.37687 58.51334
# Shear Modulus (GPa) = 49.66545 19.02053 34.34299
#
# Velocity S-wave (km/s) = 5.08101 3.14437 4.22514
# Velocity P-wave (km/s) = 7.95924 6.71469 7.36331
#
# Compressibility (1/GPa) = 0.01796951
#
# Stress axis : x y z
#
# Youngs Moduli (GPa) = 62.33049 55.70480 78.96300
#
# Poissons Ratio (x) = 0.16067 0.42937
# Poissons Ratio (y) = 0.17978 0.47560
# Poissons Ratio (z) = 0.33893 0.33551
#
# Static dielectric constant tensor:
#      x y z
#    x 4.199240 0.000000 0.000000 
#    y 0.000000 3.717340 0.000000 
#    z 0.000000 0.000000 3.981470 
# 
# 
# High freq. dielectric constant tensor:
#      x y z
#    x 1.738200 0.000000 0.000000 
#    y 0.000000 1.740080 0.000000 
#    z 0.000000 0.000000 1.767820 
# 
# From -- ./inp_files/54248.got.cif
#   From: 2010.03.12/outbox.cif.g09.slc.cpg/sg63_28_cif.got.tgz:54248.got - 2010.04.10 19:34:48.
