data_PCOD8259936
_publ_section_title
;
Structure prediction by ZEFSAII (Michael W. Deem and Ramdas Pophale) SiO2 
 PCOD8259936
Probable space group: C M C M
;
_chemical_formula_sum "Si O2"
_cell_formula_units_Z 96
_cell_length_a 9.267537
_cell_length_b 19.805258
_cell_length_c 28.794699
_cell_angle_alpha 90.000000
_cell_angle_beta 90.000000
_cell_angle_gamma 90.000000
_cell_volume 5285.150709
_symmetry_space_group_name_H-M "C M C M"
_symmetry_group_IT_number 63
_symmetry_cell_setting 'orthorhombic'
loop_
_space_group_symop_operation_xyz
x,y,z
-x,-y,1/2+z
x,-y,-z
-x,y,1/2-z
-x,-y,-z
x,y,1/2-z
-x,y,z
x,-y,1/2+z
1/2+x,1/2+y,z
1/2-x,1/2-y,1/2+z
1/2+x,1/2-y,-z
1/2-x,1/2+y,1/2-z
1/2-x,1/2-y,-z
1/2+x,1/2+y,1/2-z
1/2-x,1/2+y,z
1/2+x,1/2-y,1/2+z
loop_
_atom_site_type_symbol
_atom_site_label
_atom_site_fract_x
_atom_site_fract_y
_atom_site_fract_z
Si Si1 0.168513 0.192466 0.527809
Si Si2 0.165951 0.424720 0.517667
Si Si3 0.327882 0.006554 0.301727
Si Si4 0.832701 0.759386 0.369833
Si Si5 0.663086 0.144257 0.695667
Si Si6 0.171361 0.607799 0.379199
O O1 0.250000 0.250000 0.500000
O O2 0.233897 0.120360 0.514939
O O3 0.195684 0.202853 0.582057
O O4 0.000000 0.195453 0.515322
O O5 0.183373 0.500000 0.500000
O O6 0.220962 0.419562 0.570654
O O7 0.000000 0.399916 0.513920
O O8 0.272637 0.026351 0.250000
O O9 0.500000 0.006990 0.301875
O O10 0.275753 0.930944 0.314815
O O11 0.263751 0.059273 0.339113
O O12 0.757582 0.799710 0.329028
O O13 0.768797 0.683459 0.372117
O O14 0.000000 0.755923 0.357656
O O15 0.669649 0.159091 0.750000
O O16 0.500000 0.150167 0.677099
O O17 0.000000 0.607223 0.376365
#
# Coordination Sequence:
#
# PCOD8259936 Si02
#       6
#    16  16  16  16  16  16
#     4  11  22  38  57  79 113 149 185 228 275 328
#     4  10  21  36  56  82 110 144 186 229 275 329
#     4   8  15  29  51  77 102 132 171 218 267 310
#     4  10  21  35  53  79 110 141 176 220 267 323
#     4   9  19  35  55  81 109 136 175 222 265 320
#     4   9  17  32  50  75 108 135 174 224 262 312
#
# _framework density 18.164100000000001
#
# number of rings (size 3 to 8) (size 9 to 14) (size 15 to 20)
#    0.000    2.500    1.667    1.500    2.333    2.667 
#    0.000    1.667    0.000    1.000    0.000    0.000 
#    0.000    0.000    0.000    0.000    0.000    0.000 
#
# Total GULP energy -595175.289992 kJ/mol
# GULP energy per Si atom -12399.485208 kJ/mol
# Density = 1.812276 g / cm^3
# Si number density = 18.164100 Si / 1000 Ang^3
#
#
#
# Elastic Constant Matrix: (Units=GPa)
#
#
# Indices 1 2 3 4 5 6 
#
# 1 45.9043 37.6803 33.5574 0.0000 0.0000 0.0000
# 2 37.6803 135.9378 83.1586 0.0000 0.0000 0.0000
# 3 33.5574 83.1586 105.9232 0.0000 0.0000 0.0000
# 4 0.0000 0.0000 0.0000 43.0952 0.0000 0.0000
# 5 0.0000 0.0000 0.0000 0.0000 26.6563 0.0000
# 6 0.0000 0.0000 0.0000 0.0000 0.0000 29.9539
#
#
#
# Elastic Compliance Matrix: (Units=1/GPa)
#
#
# Indices 1 2 3 4 5 6 
#
# 1 0.029891 -0.004796 -0.005705 0.000000 0.000000 0.000000
# 2 -0.004796 0.014923 -0.010197 0.000000 0.000000 0.000000
# 3 -0.005705 -0.010197 0.019254 0.000000 0.000000 0.000000
# 4 0.000000 0.000000 0.000000 0.023204 0.000000 0.000000
# 5 0.000000 0.000000 0.000000 0.000000 0.037515 0.000000
# 6 0.000000 0.000000 0.000000 0.000000 0.000000 0.033385
#
#
# Mechanical properties :
#
#
# Convention : Reuss Voigt Hill
#
# Bulk Modulus (GPa) = 44.10411 66.28421 55.19416
# Shear Modulus (GPa) = 24.14008 28.83234 26.48621
#
# Velocity S-wave (km/s) = 3.64950 3.98845 3.82273
# Velocity P-wave (km/s) = 6.48784 7.60141 7.06659
#
# Compressibility (1/GPa) = 0.02267362
#
# Stress axis : x y z
#
# Youngs Moduli (GPa) = 33.45450 67.00889 51.93858
#
# Poissons Ratio (x) = 0.32135 0.29630
# Poissons Ratio (y) = 0.16043 0.52961
# Poissons Ratio (z) = 0.19085 0.68328
#
# Static dielectric constant tensor:
#      x y z
#    x 3.079440 0.000000 0.000000 
#    y 0.000000 3.487960 0.000000 
#    z 0.000000 0.000000 3.408280 
# 
# 
# High freq. dielectric constant tensor:
#      x y z
#    x 1.663630 0.000000 0.000000 
#    y 0.000000 1.714900 0.000000 
#    z 0.000000 0.000000 1.712440 
# 
# From -- ./inp_files/67014.got.cif
#   From: 2010.03.12/outbox.cif.g09.slc.cpg/sg63_34_cif.got.tgz:67014.got - 2010.04.10 19:34:48.
