data_PCOD8259363
_publ_section_title
;
Structure prediction by ZEFSAII (Michael W. Deem and Ramdas Pophale) SiO2 
 PCOD8259363
Probable space group: C M C M
;
_chemical_formula_sum "Si O2"
_cell_formula_units_Z 88
_cell_length_a 26.923953
_cell_length_b 18.910209
_cell_length_c 9.621431
_cell_angle_alpha 90.000000
_cell_angle_beta 90.000000
_cell_angle_gamma 90.000000
_cell_volume 4898.632079
_symmetry_space_group_name_H-M "C M C M"
_symmetry_group_IT_number 63
_symmetry_cell_setting 'orthorhombic'
loop_
_space_group_symop_operation_xyz
x,y,z
-x,-y,1/2+z
x,-y,-z
-x,y,1/2-z
-x,-y,-z
x,y,1/2-z
-x,y,z
x,-y,1/2+z
1/2+x,1/2+y,z
1/2-x,1/2-y,1/2+z
1/2+x,1/2-y,-z
1/2-x,1/2+y,1/2-z
1/2-x,1/2-y,-z
1/2+x,1/2+y,1/2-z
1/2-x,1/2+y,z
1/2+x,1/2-y,1/2+z
loop_
_atom_site_type_symbol
_atom_site_label
_atom_site_fract_x
_atom_site_fract_y
_atom_site_fract_z
Si Si1 0.500000 0.929009 0.588154
Si Si2 0.693992 0.930046 0.589001
Si Si3 0.728892 0.312161 0.909112
Si Si4 0.384989 0.297253 0.588511
Si Si5 0.902348 0.340690 0.587902
Si Si6 0.558353 0.564297 0.408512
O O1 0.500000 0.949812 0.750000
O O2 0.451596 0.883861 0.549009
O O3 0.500000 0.000000 0.500000
O O4 0.691223 0.951427 0.750000
O O5 0.743056 0.884791 0.554685
O O6 0.645311 0.886511 0.544856
O O7 0.696928 0.000000 0.500000
O O8 0.738949 0.291422 0.750000
O O9 0.671129 0.321051 0.941463
O O10 0.750000 0.250000 0.000000
O O11 0.393295 0.278564 0.750000
O O12 0.401910 0.230806 0.499120
O O13 0.418324 0.362657 0.539410
O O14 0.900959 0.320743 0.750000
O O15 0.579565 0.500000 0.500000
O O16 0.573536 0.548876 0.250000
O O17 0.500000 0.571764 0.427828
#
# Coordination Sequence:
#
# PCOD8259363 Si02
#       6
#     8  16  16  16  16  16
#     4  10  22  38  56  80 111 146 183 226 271 322
#     4  10  21  36  55  79 109 142 179 221 265 317
#     4  10  20  36  55  78 108 141 178 220 266 316
#     4  10  21  35  56  83 110 141 181 225 268 321
#     4  10  21  37  55  80 112 144 181 224 269 319
#     4   9  19  36  55  78 109 142 177 218 265 317
#
# _framework density 17.964199000000001
#
# number of rings (size 3 to 8) (size 9 to 14) (size 15 to 20)
#    0.000    2.182    1.818    0.545    1.273    3.636 
#    0.000    0.000    0.000    0.000    0.000    0.000 
#    0.000    0.000    0.000    0.000    0.000    0.000 
#
# Total GULP energy -545749.449458 kJ/mol
# GULP energy per Si atom -12403.396579 kJ/mol
# Density = 1.792331 g / cm^3
# Si number density = 17.964199 Si / 1000 Ang^3
#
#
#
# Elastic Constant Matrix: (Units=GPa)
#
#
# Indices 1 2 3 4 5 6 
#
# 1 87.6058 69.1978 45.0282 0.0000 0.0000 0.0000
# 2 69.1978 179.5957 92.3860 0.0000 0.0000 0.0000
# 3 45.0282 92.3860 77.3857 0.0000 0.0000 0.0000
# 4 0.0000 0.0000 0.0000 44.9373 0.0000 0.0000
# 5 0.0000 0.0000 0.0000 0.0000 18.1189 0.0000
# 6 0.0000 0.0000 0.0000 0.0000 0.0000 31.8421
#
#
#
# Elastic Compliance Matrix: (Units=1/GPa)
#
#
# Indices 1 2 3 4 5 6 
#
# 1 0.017252 -0.003844 -0.005449 0.000000 0.000000 0.000000
# 2 -0.003844 0.015286 -0.016012 0.000000 0.000000 0.000000
# 3 -0.005449 -0.016012 0.035209 0.000000 0.000000 0.000000
# 4 0.000000 0.000000 0.000000 0.022253 0.000000 0.000000
# 5 0.000000 0.000000 0.000000 0.000000 0.055191 0.000000
# 6 0.000000 0.000000 0.000000 0.000000 0.000000 0.031405
#
#
# Mechanical properties :
#
#
# Convention : Reuss Voigt Hill
#
# Bulk Modulus (GPa) = 58.35673 84.20122 71.27898
# Shear Modulus (GPa) = 21.46662 28.17801 24.82231
#
# Velocity S-wave (km/s) = 3.46058 3.96481 3.72124
# Velocity P-wave (km/s) = 6.96585 8.24215 7.63073
#
# Compressibility (1/GPa) = 0.01713598
#
# Stress axis : x y z
#
# Youngs Moduli (GPa) = 57.96477 65.41877 28.40158
#
# Poissons Ratio (x) = 0.25147 0.15477
# Poissons Ratio (y) = 0.22282 0.45478
# Poissons Ratio (z) = 0.31586 1.04752
#
# Static dielectric constant tensor:
#      x y z
#    x 3.615060 0.000000 0.000000 
#    y 0.000000 3.304380 0.000000 
#    z 0.000000 0.000000 3.394270 
# 
# 
# High freq. dielectric constant tensor:
#      x y z
#    x 1.708430 0.000000 0.000000 
#    y 0.000000 1.698330 0.000000 
#    z 0.000000 0.000000 1.693290 
# 
# From -- ./inp_files/25856.got.cif
#   From: 2010.03.12/outbox.cif.g09.slc.cpg/sg63_13_cif.got.tgz:25856.got - 2010.04.10 19:34:48.
