data_PCOD8259342
_publ_section_title
;
Structure prediction by ZEFSAII (Michael W. Deem and Ramdas Pophale) SiO2 
 PCOD8259342
Probable space group: C M C M
;
_chemical_formula_sum "Si O2"
_cell_formula_units_Z 112
_cell_length_a 30.790787
_cell_length_b 11.819653
_cell_length_c 13.678183
_cell_angle_alpha 90.000000
_cell_angle_beta 90.000000
_cell_angle_gamma 90.000000
_cell_volume 4977.988925
_symmetry_space_group_name_H-M "C M C M"
_symmetry_group_IT_number 63
_symmetry_cell_setting 'orthorhombic'
loop_
_space_group_symop_operation_xyz
x,y,z
-x,-y,1/2+z
x,-y,-z
-x,y,1/2-z
-x,-y,-z
x,y,1/2-z
-x,y,z
x,-y,1/2+z
1/2+x,1/2+y,z
1/2-x,1/2-y,1/2+z
1/2+x,1/2-y,-z
1/2-x,1/2+y,1/2-z
1/2-x,1/2-y,-z
1/2+x,1/2+y,1/2-z
1/2-x,1/2+y,z
1/2+x,1/2-y,1/2+z
loop_
_atom_site_type_symbol
_atom_site_label
_atom_site_fract_x
_atom_site_fract_y
_atom_site_fract_z
Si Si1 0.378762 0.071285 0.859065
Si Si2 0.129751 0.670346 0.441090
Si Si3 0.413992 0.537884 0.136758
Si Si4 0.683295 0.475569 0.864023
Si Si5 0.706920 0.317482 0.476758
Si Si6 0.450340 0.303671 0.135711
Si Si7 0.452929 0.766017 0.137369
O O1 0.361643 0.105660 0.750000
O O2 0.428430 0.113913 0.872474
O O3 0.374056 0.937222 0.870069
O O4 0.355562 0.134972 0.948441
O O5 0.170813 0.747799 0.413799
O O6 0.082822 0.731569 0.431848
O O7 0.412986 0.562951 0.250000
O O8 0.366241 0.494802 0.106576
O O9 0.446616 0.436776 0.108418
O O10 0.428082 0.657798 0.087167
O O11 0.692354 0.461975 0.750000
O O12 0.691641 0.355539 0.915556
O O13 0.714896 0.572307 0.908415
O O14 0.750000 0.250000 0.500000
O O15 0.437570 0.286404 0.250000
O O16 0.500000 0.265008 0.116906
O O17 0.459572 0.736181 0.250000
O O18 0.500000 0.778135 0.086141
#
# Coordination Sequence:
#
# PCOD8259342 Si02
#       7
#    16  16  16  16  16  16  16
#     4  10  23  40  61  87 120 172 227 276 335 400
#     4  11  23  42  65  90 129 173 221 283 344 405
#     4   9  16  32  60  91 126 169 216 268 334 400
#     4  10  22  42  69  99 134 175 219 277 350 423
#     4  11  25  44  67  98 135 173 222 283 352 417
#     4  10  20  35  61  99 137 175 224 280 339 407
#     4   9  17  31  53  84 124 169 217 268 323 389
#
# _framework density 22.499046
#
# number of rings (size 3 to 8) (size 9 to 14) (size 15 to 20)
#    0.000    2.000    1.429    1.714    0.000    8.000 
#    0.000    4.286    0.000    2.571    0.000    0.000 
#    0.000    0.000    0.000    0.000    0.000    0.000 
#
# Total GULP energy -693757.624356 kJ/mol
# GULP energy per Si atom -12388.529006 kJ/mol
# Density = 2.244784 g / cm^3
# Si number density = 22.499046 Si / 1000 Ang^3
#
#
#
# Elastic Constant Matrix: (Units=GPa)
#
#
# Indices 1 2 3 4 5 6 
#
# 1 101.1766 47.8814 2.7879 0.0000 0.0000 0.0000
# 2 47.8814 118.0761 32.6770 0.0000 0.0000 0.0000
# 3 2.7879 32.6770 102.5437 0.0000 0.0000 0.0000
# 4 0.0000 0.0000 0.0000 33.1854 0.0000 0.0000
# 5 0.0000 0.0000 0.0000 0.0000 20.9448 0.0000
# 6 0.0000 0.0000 0.0000 0.0000 0.0000 36.4533
#
#
#
# Elastic Compliance Matrix: (Units=1/GPa)
#
#
# Indices 1 2 3 4 5 6 
#
# 1 0.012409 -0.005416 0.001389 0.000000 0.000000 0.000000
# 2 -0.005416 0.011652 -0.003566 0.000000 0.000000 0.000000
# 3 0.001389 -0.003566 0.010851 0.000000 0.000000 0.000000
# 4 0.000000 0.000000 0.000000 0.030134 0.000000 0.000000
# 5 0.000000 0.000000 0.000000 0.000000 0.047745 0.000000
# 6 0.000000 0.000000 0.000000 0.000000 0.000000 0.027432
#
#
# Mechanical properties :
#
#
# Convention : Reuss Voigt Hill
#
# Bulk Modulus (GPa) = 50.69849 54.27654 52.48751
# Shear Modulus (GPa) = 30.86728 34.01338 32.44033
#
# Velocity S-wave (km/s) = 3.70799 3.89237 3.80129
# Velocity P-wave (km/s) = 6.39646 6.66161 6.53038
#
# Compressibility (1/GPa) = 0.01972445
#
# Stress axis : x y z
#
# Youngs Moduli (GPa) = 80.58928 85.82014 92.16148
#
# Poissons Ratio (x) = 0.46481 -0.12797
# Poissons Ratio (y) = 0.43648 0.32864
# Poissons Ratio (z) = -0.11190 0.30603
#
# Static dielectric constant tensor:
#      x y z
#    x 3.891260 0.000000 0.000000 
#    y 0.000000 4.027490 0.000000 
#    z 0.000000 0.000000 4.191000 
# 
# 
# High freq. dielectric constant tensor:
#      x y z
#    x 1.854140 0.000000 0.000000 
#    y 0.000000 1.888890 0.000000 
#    z 0.000000 0.000000 1.896670 
# 
# From -- ./inp_files/38582.got.cif
#   From: 2010.03.12/outbox.cif.g09.slc.cpg/sg63_20_cif.got.tgz:38582.got - 2010.04.10 19:34:48.
