data_PCOD8259048
_publ_section_title
;
Structure prediction by ZEFSAII (Michael W. Deem and Ramdas Pophale) SiO2 
 PCOD8259048
Probable space group: C M C M
;
_chemical_formula_sum "Si O2"
_cell_formula_units_Z 80
_cell_length_a 8.809642
_cell_length_b 15.549623
_cell_length_c 28.649491
_cell_angle_alpha 90.000000
_cell_angle_beta 90.000000
_cell_angle_gamma 90.000000
_cell_volume 3924.596704
_symmetry_space_group_name_H-M "C M C M"
_symmetry_group_IT_number 63
_symmetry_cell_setting 'orthorhombic'
loop_
_space_group_symop_operation_xyz
x,y,z
-x,-y,1/2+z
x,-y,-z
-x,y,1/2-z
-x,-y,-z
x,y,1/2-z
-x,y,z
x,-y,1/2+z
1/2+x,1/2+y,z
1/2-x,1/2-y,1/2+z
1/2+x,1/2-y,-z
1/2-x,1/2+y,1/2-z
1/2-x,1/2-y,-z
1/2+x,1/2+y,1/2-z
1/2-x,1/2+y,z
1/2+x,1/2-y,1/2+z
loop_
_atom_site_type_symbol
_atom_site_label
_atom_site_fract_x
_atom_site_fract_y
_atom_site_fract_z
Si Si1 0.678528 0.251946 0.050492
Si Si2 0.325783 0.902430 0.392605
Si Si3 0.176852 0.153324 0.802725
Si Si4 0.824735 0.593599 0.386765
Si Si5 0.674041 0.334178 0.802195
O O1 0.500000 0.250503 0.044752
O O2 0.724747 0.338484 0.077108
O O3 0.734772 0.167511 0.078333
O O4 0.750000 0.250000 0.000000
O O5 0.500000 0.873490 0.396900
O O6 0.275345 0.902443 0.338498
O O7 0.303163 0.000209 0.410781
O O8 0.215339 0.123533 0.750000
O O9 0.218486 0.252619 0.809857
O O10 0.000000 0.141585 0.813984
O O11 0.725763 0.594709 0.339387
O O12 0.000000 0.608788 0.373691
O O13 0.693838 0.372128 0.750000
O O14 0.500000 0.307043 0.810905
#
# Coordination Sequence:
#
# PCOD8259048 Si02
#       5
#    16  16  16  16  16
#     4  11  24  44  67  90 119 157 199 251 311 366
#     4  11  23  40  63  92 123 159 203 251 299 357
#     4  10  20  35  57  86 123 165 204 245 298 356
#     4  10  23  41  62  89 124 162 200 244 303 364
#     4  10  20  34  57  89 123 161 206 251 294 349
#
# _framework density 20.384260000000001
#
# number of rings (size 3 to 8) (size 9 to 14) (size 15 to 20)
#    0.000    1.600    2.000    2.400    0.000    6.400 
#    0.000    8.000    0.000    0.000    0.000    0.000 
#    0.000    0.000    0.000    0.000    0.000    0.000 
#
# Total GULP energy -496092.337594 kJ/mol
# GULP energy per Si atom -12402.308440 kJ/mol
# Density = 2.033786 g / cm^3
# Si number density = 20.384260 Si / 1000 Ang^3
#
#
#
# Elastic Constant Matrix: (Units=GPa)
#
#
# Indices 1 2 3 4 5 6 
#
# 1 61.1850 28.5281 39.1775 0.0000 0.0000 0.0000
# 2 28.5281 111.6216 55.0456 0.0000 0.0000 0.0000
# 3 39.1775 55.0456 127.6163 0.0000 0.0000 0.0000
# 4 0.0000 0.0000 0.0000 12.3627 0.0000 0.0000
# 5 0.0000 0.0000 0.0000 0.0000 39.0714 0.0000
# 6 0.0000 0.0000 0.0000 0.0000 0.0000 28.9372
#
#
#
# Elastic Compliance Matrix: (Units=1/GPa)
#
#
# Indices 1 2 3 4 5 6 
#
# 1 0.021000 -0.002779 -0.005248 0.000000 0.000000 0.000000
# 2 -0.002779 0.011747 -0.004214 0.000000 0.000000 0.000000
# 3 -0.005248 -0.004214 0.011265 0.000000 0.000000 0.000000
# 4 0.000000 0.000000 0.000000 0.080889 0.000000 0.000000
# 5 0.000000 0.000000 0.000000 0.000000 0.025594 0.000000
# 6 0.000000 0.000000 0.000000 0.000000 0.000000 0.034558
#
#
# Mechanical properties :
#
#
# Convention : Reuss Voigt Hill
#
# Bulk Modulus (GPa) = 51.20374 60.65837 55.93105
# Shear Modulus (GPa) = 23.14338 27.91905 25.53122
#
# Velocity S-wave (km/s) = 3.37316 3.70488 3.54290
# Velocity P-wave (km/s) = 6.35175 6.93711 6.65087
#
# Compressibility (1/GPa) = 0.01952983
#
# Stress axis : x y z
#
# Youngs Moduli (GPa) = 47.61878 85.12722 88.77270
#
# Poissons Ratio (x) = 0.23657 0.46590
# Poissons Ratio (y) = 0.13234 0.37407
# Poissons Ratio (z) = 0.24991 0.35871
#
# Static dielectric constant tensor:
#      x y z
#    x 3.695380 0.000000 0.000000 
#    y 0.000000 3.612780 0.000000 
#    z 0.000000 0.000000 3.851770 
# 
# 
# High freq. dielectric constant tensor:
#      x y z
#    x 1.803660 0.000000 0.000000 
#    y 0.000000 1.790990 0.000000 
#    z 0.000000 0.000000 1.793670 
# 
# From -- ./inp_files/66562.got.cif
#   From: 2010.03.12/outbox.cif.g09.slc.cpg/sg63_34_cif.got.tgz:66562.got - 2010.04.10 19:34:48.
