data_PCOD8259383
_publ_section_title
;
Structure prediction by ZEFSAII (Michael W. Deem and Ramdas Pophale) SiO2 
 PCOD8259383
Probable space group: C M C M
;
_chemical_formula_sum "Si O2"
_cell_formula_units_Z 96
_cell_length_a 23.519029
_cell_length_b 24.236198
_cell_length_c 8.663068
_cell_angle_alpha 90.000000
_cell_angle_beta 90.000000
_cell_angle_gamma 90.000000
_cell_volume 4938.051362
_symmetry_space_group_name_H-M "C M C M"
_symmetry_group_IT_number 63
_symmetry_cell_setting 'orthorhombic'
loop_
_space_group_symop_operation_xyz
x,y,z
-x,-y,1/2+z
x,-y,-z
-x,y,1/2-z
-x,-y,-z
x,y,1/2-z
-x,y,z
x,-y,1/2+z
1/2+x,1/2+y,z
1/2-x,1/2-y,1/2+z
1/2+x,1/2-y,-z
1/2-x,1/2+y,1/2-z
1/2-x,1/2-y,-z
1/2+x,1/2+y,1/2-z
1/2-x,1/2+y,z
1/2+x,1/2-y,1/2+z
loop_
_atom_site_type_symbol
_atom_site_label
_atom_site_fract_x
_atom_site_fract_y
_atom_site_fract_z
Si Si1 0.860474 0.156278 0.067666
Si Si2 0.345114 0.942079 0.568111
Si Si3 0.565976 0.132128 0.927339
Si Si4 0.630779 0.230024 0.068242
Si Si5 0.733224 0.842179 0.931408
Si Si6 0.934965 0.941633 0.067947
O O1 0.861465 0.148139 0.250000
O O2 0.796391 0.158134 0.997197
O O3 0.887778 0.214721 0.021033
O O4 0.895279 0.106685 0.993920
O O5 0.354963 0.945366 0.750000
O O6 0.403274 0.922950 0.487412
O O7 0.295234 0.899926 0.523070
O O8 0.325547 0.000000 0.500000
O O9 0.582211 0.143735 0.750000
O O10 0.500000 0.121204 0.949097
O O11 0.583887 0.184185 0.030639
O O12 0.630817 0.241333 0.250000
O O13 0.692856 0.207994 0.009434
O O14 0.738367 0.836311 0.750000
O O15 0.929359 0.944559 0.250000
O O16 0.000000 0.929851 0.016640
O O17 0.914062 0.000000 0.000000
#
# Coordination Sequence:
#
# PCOD8259383 Si02
#       6
#    16  16  16  16  16  16
#     4  11  21  35  58  86 113 142 180 220 263 320
#     4  10  20  36  56  79 109 144 183 224 270 321
#     4  10  21  37  56  79 107 141 183 229 276 322
#     4  10  20  36  56  80 112 146 181 221 269 320
#     4   8  18  35  54  79 111 145 179 221 269 317
#     4  10  22  41  61  81 108 141 178 222 271 320
#
# _framework density 19.440867999999998
#
# number of rings (size 3 to 8) (size 9 to 14) (size 15 to 20)
#    0.000    2.167    0.000    4.000    0.000    4.000 
#    0.000   10.833    0.000    0.000    0.000    0.000 
#    0.000    0.000    0.000    0.000    0.000    0.000 
#
# Total GULP energy -595240.264774 kJ/mol
# GULP energy per Si atom -12400.838849 kJ/mol
# Density = 1.939662 g / cm^3
# Si number density = 19.440868 Si / 1000 Ang^3
#
#
#
# Elastic Constant Matrix: (Units=GPa)
#
#
# Indices 1 2 3 4 5 6 
#
# 1 53.1055 24.9310 26.0148 0.0000 0.0000 0.0000
# 2 24.9310 128.3574 26.0415 0.0000 0.0000 0.0000
# 3 26.0148 26.0415 59.4542 0.0000 0.0000 0.0000
# 4 0.0000 0.0000 0.0000 39.0405 0.0000 0.0000
# 5 0.0000 0.0000 0.0000 0.0000 26.6724 0.0000
# 6 0.0000 0.0000 0.0000 0.0000 0.0000 22.3491
#
#
#
# Elastic Compliance Matrix: (Units=1/GPa)
#
#
# Indices 1 2 3 4 5 6 
#
# 1 0.024903 -0.002882 -0.009634 0.000000 0.000000 0.000000
# 2 -0.002882 0.008884 -0.002630 0.000000 0.000000 0.000000
# 3 -0.009634 -0.002630 0.022187 0.000000 0.000000 0.000000
# 4 0.000000 0.000000 0.000000 0.025614 0.000000 0.000000
# 5 0.000000 0.000000 0.000000 0.000000 0.037492 0.000000
# 6 0.000000 0.000000 0.000000 0.000000 0.000000 0.044745
#
#
# Mechanical properties :
#
#
# Convention : Reuss Voigt Hill
#
# Bulk Modulus (GPa) = 38.93893 43.87685 41.40789
# Shear Modulus (GPa) = 24.66955 28.54105 26.60530
#
# Velocity S-wave (km/s) = 3.56610 3.83573 3.70337
# Velocity P-wave (km/s) = 6.08515 6.49888 6.29541
#
# Compressibility (1/GPa) = 0.02568124
#
# Stress axis : x y z
#
# Youngs Moduli (GPa) = 40.15572 112.55933 45.07100
#
# Poissons Ratio (x) = 0.32444 0.43422
# Poissons Ratio (y) = 0.11574 0.11854
# Poissons Ratio (z) = 0.38686 0.29605
#
# Static dielectric constant tensor:
#      x y z
#    x 3.701710 0.000000 0.000000 
#    y 0.000000 3.652380 0.000000 
#    z 0.000000 0.000000 3.534870 
# 
# 
# High freq. dielectric constant tensor:
#      x y z
#    x 1.752070 0.000000 0.000000 
#    y 0.000000 1.764160 0.000000 
#    z 0.000000 0.000000 1.756650 
# 
# From -- ./inp_files/10409.got.cif
#   From: 2010.03.12/outbox.cif.g09.slc.cpg/sg63_6_cif.got.tgz:10409.got - 2010.04.10 19:34:48.
