data_PCOD8259109
_publ_section_title
;
Structure prediction by ZEFSAII (Michael W. Deem and Ramdas Pophale) SiO2 
 PCOD8259109
Probable space group: C M C M
;
_chemical_formula_sum "Si O2"
_cell_formula_units_Z 96
_cell_length_a 15.877624
_cell_length_b 12.682243
_cell_length_c 23.518127
_cell_angle_alpha 90.000000
_cell_angle_beta 90.000000
_cell_angle_gamma 90.000000
_cell_volume 4735.701440
_symmetry_space_group_name_H-M "C M C M"
_symmetry_group_IT_number 63
_symmetry_cell_setting 'orthorhombic'
loop_
_space_group_symop_operation_xyz
x,y,z
-x,-y,1/2+z
x,-y,-z
-x,y,1/2-z
-x,-y,-z
x,y,1/2-z
-x,y,z
x,-y,1/2+z
1/2+x,1/2+y,z
1/2-x,1/2-y,1/2+z
1/2+x,1/2-y,-z
1/2-x,1/2+y,1/2-z
1/2-x,1/2-y,-z
1/2+x,1/2+y,1/2-z
1/2-x,1/2+y,z
1/2+x,1/2-y,1/2+z
loop_
_atom_site_type_symbol
_atom_site_label
_atom_site_fract_x
_atom_site_fract_y
_atom_site_fract_z
Si Si1 0.596938 0.141284 0.470128
Si Si2 0.203299 0.826458 0.814176
Si Si3 0.404251 0.475024 0.183514
Si Si4 0.403421 0.873470 0.187593
Si Si5 0.324556 0.694580 0.892276
Si Si6 0.327960 0.065016 0.924247
O O1 0.500000 0.110186 0.457993
O O2 0.617841 0.251376 0.440287
O O3 0.613397 0.144967 0.538258
O O4 0.662420 0.053078 0.447500
O O5 0.240537 0.836593 0.750000
O O6 0.124993 0.747070 0.813720
O O7 0.273858 0.784429 0.857508
O O8 0.163724 0.936753 0.835654
O O9 0.393769 0.452014 0.250000
O O10 0.500000 0.510611 0.169623
O O11 0.384670 0.366852 0.151003
O O12 0.385491 0.922866 0.250000
O O13 0.500000 0.877488 0.171716
O O14 0.353980 0.941912 0.141703
O O15 0.266235 0.611169 0.925962
#
# Coordination Sequence:
#
# PCOD8259109 Si02
#       6
#    16  16  16  16  16  16
#     4  11  22  38  58  79 107 144 183 219 264 324
#     4   9  18  32  52  78 108 144 182 220 266 320
#     4  10  20  35  54  78 112 150 182 216 267 327
#     4   9  16  29  52  81 108 134 172 222 269 313
#     4  11  21  35  55  82 108 138 181 232 269 307
#     4  10  21  37  57  79 106 142 180 219 267 322
#
# _framework density 20.271547999999999
#
# number of rings (size 3 to 8) (size 9 to 14) (size 15 to 20)
#    0.000    2.000    0.000    5.000    0.000    2.667 
#    0.000    1.667    0.000    4.000    0.000   17.500 
#    0.000    0.000    0.000    0.000    0.000    0.000 
#
# Total GULP energy -595022.352549 kJ/mol
# GULP energy per Si atom -12396.299011 kJ/mol
# Density = 2.022541 g / cm^3
# Si number density = 20.271548 Si / 1000 Ang^3
#
#
#
# Elastic Constant Matrix: (Units=GPa)
#
#
# Indices 1 2 3 4 5 6 
#
# 1 71.3089 22.3410 22.6949 0.0000 0.0000 0.0000
# 2 22.3410 54.8525 25.5882 0.0000 0.0000 0.0000
# 3 22.6949 25.5882 76.0789 0.0000 0.0000 0.0000
# 4 0.0000 0.0000 0.0000 35.9875 0.0000 0.0000
# 5 0.0000 0.0000 0.0000 0.0000 26.9897 0.0000
# 6 0.0000 0.0000 0.0000 0.0000 0.0000 24.4334
#
#
#
# Elastic Compliance Matrix: (Units=1/GPa)
#
#
# Indices 1 2 3 4 5 6 
#
# 1 0.016705 -0.005313 -0.003196 0.000000 0.000000 0.000000
# 2 -0.005313 0.023313 -0.006256 0.000000 0.000000 0.000000
# 3 -0.003196 -0.006256 0.016202 0.000000 0.000000 0.000000
# 4 0.000000 0.000000 0.000000 0.027787 0.000000 0.000000
# 5 0.000000 0.000000 0.000000 0.000000 0.037051 0.000000
# 6 0.000000 0.000000 0.000000 0.000000 0.000000 0.040928
#
#
# Mechanical properties :
#
#
# Convention : Reuss Voigt Hill
#
# Bulk Modulus (GPa) = 37.46805 38.16539 37.81672
# Shear Modulus (GPa) = 24.94838 26.25654 25.60246
#
# Velocity S-wave (km/s) = 3.51195 3.60285 3.55769
# Velocity P-wave (km/s) = 5.91340 6.01459 5.96421
#
# Compressibility (1/GPa) = 0.02668941
#
# Stress axis : x y z
#
# Youngs Moduli (GPa) = 59.86125 42.89445 61.72098
#
# Poissons Ratio (x) = 0.22789 0.19729
# Poissons Ratio (y) = 0.31803 0.38614
# Poissons Ratio (z) = 0.19134 0.26836
#
# Static dielectric constant tensor:
#      x y z
#    x 3.545260 0.000000 0.000000 
#    y 0.000000 3.487530 0.000000 
#    z 0.000000 0.000000 4.129090 
# 
# 
# High freq. dielectric constant tensor:
#      x y z
#    x 1.785370 0.000000 0.000000 
#    y 0.000000 1.775730 0.000000 
#    z 0.000000 0.000000 1.798680 
# 
# From -- ./inp_files/63678.got.cif
#   From: 2010.03.12/outbox.cif.g09.slc.cpg/sg63_32_cif.got.tgz:63678.got - 2010.04.10 19:34:48.
