data_PCOD8259397
_publ_section_title
;
Structure prediction by ZEFSAII (Michael W. Deem and Ramdas Pophale) SiO2 
 PCOD8259397
Probable space group: C M C M
;
_chemical_formula_sum "Si O2"
_cell_formula_units_Z 64
_cell_length_a 13.194018
_cell_length_b 13.362141
_cell_length_c 18.591047
_cell_angle_alpha 90.000000
_cell_angle_beta 90.000000
_cell_angle_gamma 90.000000
_cell_volume 3277.607700
_symmetry_space_group_name_H-M "C M C M"
_symmetry_group_IT_number 63
_symmetry_cell_setting 'orthorhombic'
loop_
_space_group_symop_operation_xyz
x,y,z
-x,-y,1/2+z
x,-y,-z
-x,y,1/2-z
-x,-y,-z
x,y,1/2-z
-x,y,z
x,-y,1/2+z
1/2+x,1/2+y,z
1/2-x,1/2-y,1/2+z
1/2+x,1/2-y,-z
1/2-x,1/2+y,1/2-z
1/2-x,1/2-y,-z
1/2+x,1/2+y,1/2-z
1/2-x,1/2+y,z
1/2+x,1/2-y,1/2+z
loop_
_atom_site_type_symbol
_atom_site_label
_atom_site_fract_x
_atom_site_fract_y
_atom_site_fract_z
Si Si1 0.696681 0.670182 0.416245
Si Si2 0.112620 0.650080 0.669047
Si Si3 0.616286 0.701063 0.569145
Si Si4 0.807270 0.032632 0.833409
O O1 0.629365 0.760018 0.385757
O O2 0.660574 0.649494 0.497319
O O3 0.815657 0.701023 0.412725
O O4 0.673000 0.572926 0.370174
O O5 0.128735 0.691368 0.750000
O O6 0.189457 0.559522 0.654215
O O7 0.000000 0.606740 0.657993
O O8 0.500000 0.735349 0.560467
O O9 0.623062 0.618916 0.632182
O O10 0.836540 0.024494 0.750000
#
# Coordination Sequence:
#
# PCOD8259397 Si02
#       4
#    16  16  16  16
#     4  10  20  36  57  78 105 142 179 218 264 313
#     4   9  18  33  53  78 107 138 176 221 263 307
#     4  10  22  38  55  79 109 139 176 221 265 312
#     4  10  21  36  54  79 109 139 174 216 262 314
#
# _framework density 19.526437000000001
#
# number of rings (size 3 to 8) (size 9 to 14) (size 15 to 20)
#    0.000    2.250    0.000    2.250    0.000    5.500 
#    0.000    0.000    0.000    9.000    0.000    0.000 
#    0.000    0.000    0.000    0.000    0.000    0.000 
#
# Total GULP energy -396846.855192 kJ/mol
# GULP energy per Si atom -12401.464225 kJ/mol
# Density = 1.948199 g / cm^3
# Si number density = 19.526437 Si / 1000 Ang^3
#
#
#
# Elastic Constant Matrix: (Units=GPa)
#
#
# Indices 1 2 3 4 5 6 
#
# 1 99.5324 -3.3580 1.2704 0.0000 0.0000 0.0000
# 2 -3.3580 34.1049 14.6340 0.0000 0.0000 0.0000
# 3 1.2704 14.6340 87.0903 0.0000 0.0000 0.0000
# 4 0.0000 0.0000 0.0000 28.9949 0.0000 0.0000
# 5 0.0000 0.0000 0.0000 0.0000 22.2300 0.0000
# 6 0.0000 0.0000 0.0000 0.0000 0.0000 9.8835
#
#
#
# Elastic Compliance Matrix: (Units=1/GPa)
#
#
# Indices 1 2 3 4 5 6 
#
# 1 0.010090 0.001139 -0.000339 0.000000 0.000000 0.000000
# 2 0.001139 0.031728 -0.005348 0.000000 0.000000 0.000000
# 3 -0.000339 -0.005348 0.012386 0.000000 0.000000 0.000000
# 4 0.000000 0.000000 0.000000 0.034489 0.000000 0.000000
# 5 0.000000 0.000000 0.000000 0.000000 0.044984 0.000000
# 6 0.000000 0.000000 0.000000 0.000000 0.000000 0.101178
#
#
# Mechanical properties :
#
#
# Convention : Reuss Voigt Hill
#
# Bulk Modulus (GPa) = 22.16892 27.31337 24.74114
# Shear Modulus (GPa) = 19.30601 26.10044 22.70323
#
# Velocity S-wave (km/s) = 3.14779 3.66002 3.41353
# Velocity P-wave (km/s) = 4.95877 5.64617 5.31360
#
# Compressibility (1/GPa) = 0.04510820
#
# Stress axis : x y z
#
# Youngs Moduli (GPa) = 99.11078 31.51777 80.73700
#
# Poissons Ratio (x) = -0.03589 0.02733
# Poissons Ratio (y) = -0.11286 0.43178
# Poissons Ratio (z) = 0.03355 0.16856
#
# Static dielectric constant tensor:
#      x y z
#    x 3.580110 0.000000 0.000000 
#    y 0.000000 3.211270 0.000000 
#    z 0.000000 0.000000 3.736890 
# 
# 
# High freq. dielectric constant tensor:
#      x y z
#    x 1.762280 0.000000 0.000000 
#    y 0.000000 1.736980 0.000000 
#    z 0.000000 0.000000 1.775660 
# 
# From -- ./inp_files/31104.got.cif
#   From: 2010.03.12/outbox.cif.g09.slc.cpg/sg63_16_cif.got.tgz:31104.got - 2010.04.10 19:34:48.
