data_PCOD8259376
_publ_section_title
;
Structure prediction by ZEFSAII (Michael W. Deem and Ramdas Pophale) SiO2 
 PCOD8259376
Probable space group: C M C M
;
_chemical_formula_sum "Si O2"
_cell_formula_units_Z 80
_cell_length_a 8.443852
_cell_length_b 19.685196
_cell_length_c 25.716004
_cell_angle_alpha 90.000000
_cell_angle_beta 90.000000
_cell_angle_gamma 90.000000
_cell_volume 4274.485424
_symmetry_space_group_name_H-M "C M C M"
_symmetry_group_IT_number 63
_symmetry_cell_setting 'orthorhombic'
loop_
_space_group_symop_operation_xyz
x,y,z
-x,-y,1/2+z
x,-y,-z
-x,y,1/2-z
-x,-y,-z
x,y,1/2-z
-x,y,z
x,-y,1/2+z
1/2+x,1/2+y,z
1/2-x,1/2-y,1/2+z
1/2+x,1/2-y,-z
1/2-x,1/2+y,1/2-z
1/2-x,1/2-y,-z
1/2+x,1/2+y,1/2-z
1/2-x,1/2+y,z
1/2+x,1/2-y,1/2+z
loop_
_atom_site_type_symbol
_atom_site_label
_atom_site_fract_x
_atom_site_fract_y
_atom_site_fract_z
Si Si1 0.310028 0.318111 0.360931
Si Si2 0.184659 0.078272 0.550927
Si Si3 0.684905 0.331157 0.640566
Si Si4 0.172218 0.828809 0.250000
Si Si5 0.817168 0.565921 0.058827
Si Si6 0.324526 0.831889 0.750000
O O1 0.500000 0.309555 0.357770
O O2 0.255011 0.369878 0.405147
O O3 0.232314 0.245815 0.372390
O O4 0.244001 0.347624 0.304980
O O5 0.277131 0.095460 0.498102
O O6 0.000000 0.088175 0.540375
O O7 0.215931 0.001714 0.569959
O O8 0.500000 0.341217 0.631495
O O9 0.780618 0.378052 0.601344
O O10 0.728786 0.354526 0.698870
O O11 0.155629 0.748117 0.250000
O O12 0.000000 0.863916 0.250000
O O13 0.000000 0.545828 0.060883
O O14 0.500000 0.865437 0.750000
#
# Coordination Sequence:
#
# PCOD8259376 Si02
#       6
#    16  16  16   8  16   8
#     4   9  18  33  55  80 107 139 172 213 265 316
#     4  10  20  36  56  78 105 137 177 223 270 320
#     4  11  21  34  55  82 109 138 177 220 259 307
#     4   7  12  27  50  75 102 133 165 197 247 311
#     4  11  22  37  55  74 103 143 181 218 268 322
#     4   9  17  33  54  77 108 141 173 211 261 315
#
# _framework density 18.715703999999999
#
# number of rings (size 3 to 8) (size 9 to 14) (size 15 to 20)
#    0.000    2.200    0.000    6.900    0.000    2.400 
#    0.000    1.000    0.000    2.400    0.000    0.000 
#    0.000    0.000    0.000    0.000    0.000    0.000 
#
# Total GULP energy -495841.642430 kJ/mol
# GULP energy per Si atom -12396.041061 kJ/mol
# Density = 1.867311 g / cm^3
# Si number density = 18.715704 Si / 1000 Ang^3
#
#
#
# Elastic Constant Matrix: (Units=GPa)
#
#
# Indices 1 2 3 4 5 6 
#
# 1 58.7806 3.3092 16.0851 0.0000 0.0000 0.0000
# 2 3.3092 63.9409 67.3355 0.0000 0.0000 0.0000
# 3 16.0851 67.3355 146.1553 0.0000 0.0000 0.0000
# 4 0.0000 0.0000 0.0000 -16.1570 0.0000 0.0000
# 5 0.0000 0.0000 0.0000 0.0000 25.4274 0.0000
# 6 0.0000 0.0000 0.0000 0.0000 0.0000 25.0224
#
#
#
# Elastic Compliance Matrix: (Units=1/GPa)
#
#
# Indices 1 2 3 4 5 6 
#
# 1 0.017699 0.002205 -0.002964 0.000000 0.000000 0.000000
# 2 0.002205 0.030653 -0.014365 0.000000 0.000000 0.000000
# 3 -0.002964 -0.014365 0.013786 0.000000 0.000000 0.000000
# 4 0.000000 0.000000 0.000000 -0.061893 0.000000 0.000000
# 5 0.000000 0.000000 0.000000 0.000000 0.039328 0.000000
# 6 0.000000 0.000000 0.000000 0.000000 0.000000 0.039964
#
#
# Mechanical properties :
#
#
# Convention : Reuss Voigt Hill
#
# Bulk Modulus (GPa) = 31.35641 49.14848 40.25245
# Shear Modulus (GPa) = 41.52322 19.00170 30.26246
#
# Velocity S-wave (km/s) = 4.71534 3.18980 4.02550
# Velocity P-wave (km/s) = 6.81442 6.31538 6.56964
#
# Compressibility (1/GPa) = 0.03189140
#
# Stress axis : x y z
#
# Youngs Moduli (GPa) = 56.49935 32.62359 72.53614
#
# Poissons Ratio (x) = -0.07194 0.21499
# Poissons Ratio (y) = -0.12459 1.04196
# Poissons Ratio (z) = 0.16746 0.46863
#
# Static dielectric constant tensor:
#      x y z
#    x 3.372650 0.000000 0.000000 
#    y 0.000000 3.157160 0.000000 
#    z 0.000000 0.000000 3.885880 
# 
# 
# High freq. dielectric constant tensor:
#      x y z
#    x 1.724400 0.000000 0.000000 
#    y 0.000000 1.696760 0.000000 
#    z 0.000000 0.000000 1.744980 
# 
# From -- ./inp_files/66670.got.cif
#   From: 2010.03.12/outbox.cif.g09.slc.cpg/sg63_34_cif.got.tgz:66670.got - 2010.04.10 19:34:48.
