data_PCOD8259245
_publ_section_title
;
Structure prediction by ZEFSAII (Michael W. Deem and Ramdas Pophale) SiO2 
 PCOD8259245
Probable space group: C M C M
;
_chemical_formula_sum "Si O2"
_cell_formula_units_Z 80
_cell_length_a 9.155520
_cell_length_b 14.436463
_cell_length_c 29.440937
_cell_angle_alpha 90.000000
_cell_angle_beta 90.000000
_cell_angle_gamma 90.000000
_cell_volume 3891.306556
_symmetry_space_group_name_H-M "C M C M"
_symmetry_group_IT_number 63
_symmetry_cell_setting 'orthorhombic'
loop_
_space_group_symop_operation_xyz
x,y,z
-x,-y,1/2+z
x,-y,-z
-x,y,1/2-z
-x,-y,-z
x,y,1/2-z
-x,y,z
x,-y,1/2+z
1/2+x,1/2+y,z
1/2-x,1/2-y,1/2+z
1/2+x,1/2-y,-z
1/2-x,1/2+y,1/2-z
1/2-x,1/2-y,-z
1/2+x,1/2+y,1/2-z
1/2-x,1/2+y,z
1/2+x,1/2-y,1/2+z
loop_
_atom_site_type_symbol
_atom_site_label
_atom_site_fract_x
_atom_site_fract_y
_atom_site_fract_z
Si Si1 0.828915 0.171851 0.638071
Si Si2 0.335151 0.629979 0.037782
Si Si3 0.331059 0.883944 0.626275
Si Si4 0.165322 0.349662 0.048966
Si Si5 0.830995 0.462452 0.301915
O O1 0.791770 0.280095 0.641374
O O2 0.747942 0.124554 0.595343
O O3 0.000000 0.153645 0.633062
O O4 0.767295 0.124747 0.683545
O O5 0.500000 0.592827 0.034247
O O6 0.259300 0.585193 0.081893
O O7 0.331946 0.740217 0.041811
O O8 0.247981 0.599751 0.992557
O O9 0.500000 0.891827 0.612964
O O10 0.287817 0.948438 0.668337
O O11 0.000000 0.387090 0.051740
O O12 0.795750 0.487238 0.250000
O O13 0.000000 0.435868 0.308624
#
# Coordination Sequence:
#
# PCOD8259245 Si02
#       5
#    16  16  16  16  16
#     4  10  20  35  57  84 112 142 180 226 272 318
#     4   9  16  27  48  79 112 144 180 222 265 311
#     4   9  19  36  57  80 109 146 183 219 267 327
#     4   9  16  28  49  77 111 149 183 215 260 320
#     4  10  22  40  59  79 106 141 181 225 274 329
#
# _framework density 20.558648000000002
#
# number of rings (size 3 to 8) (size 9 to 14) (size 15 to 20)
#    0.000    2.600    0.000    1.800    0.000    7.600 
#    0.000    3.000    0.000    6.000    0.000    0.000 
#    0.000    0.000    0.000    0.000    0.000    0.000 
#
# Total GULP energy -496146.438361 kJ/mol
# GULP energy per Si atom -12403.660959 kJ/mol
# Density = 2.051186 g / cm^3
# Si number density = 20.558648 Si / 1000 Ang^3
#
#
#
# Elastic Constant Matrix: (Units=GPa)
#
#
# Indices 1 2 3 4 5 6 
#
# 1 108.3514 21.2069 54.2909 0.0000 0.0000 0.0000
# 2 21.2069 36.6726 27.2529 0.0000 0.0000 0.0000
# 3 54.2909 27.2529 137.3784 0.0000 0.0000 0.0000
# 4 0.0000 0.0000 0.0000 31.5134 0.0000 0.0000
# 5 0.0000 0.0000 0.0000 0.0000 38.1739 0.0000
# 6 0.0000 0.0000 0.0000 0.0000 0.0000 22.0229
#
#
#
# Elastic Compliance Matrix: (Units=1/GPa)
#
#
# Indices 1 2 3 4 5 6 
#
# 1 0.011989 -0.004002 -0.003944 0.000000 0.000000 0.000000
# 2 -0.004002 0.033319 -0.005028 0.000000 0.000000 0.000000
# 3 -0.003944 -0.005028 0.009835 0.000000 0.000000 0.000000
# 4 0.000000 0.000000 0.000000 0.031732 0.000000 0.000000
# 5 0.000000 0.000000 0.000000 0.000000 0.026196 0.000000
# 6 0.000000 0.000000 0.000000 0.000000 0.000000 0.045407
#
#
# Mechanical properties :
#
#
# Convention : Reuss Voigt Hill
#
# Bulk Modulus (GPa) = 34.25252 54.21154 44.23203
# Shear Modulus (GPa) = 25.75213 30.31883 28.03548
#
# Velocity S-wave (km/s) = 3.54307 3.84441 3.69681
# Velocity P-wave (km/s) = 5.78229 6.79209 6.30743
#
# Compressibility (1/GPa) = 0.02919493
#
# Stress axis : x y z
#
# Youngs Moduli (GPa) = 83.41229 30.01271 101.67467
#
# Poissons Ratio (x) = 0.12011 0.40100
# Poissons Ratio (y) = 0.33380 0.51125
# Poissons Ratio (z) = 0.32897 0.15091
#
# Static dielectric constant tensor:
#      x y z
#    x 3.774930 0.000000 0.000000 
#    y 0.000000 3.481830 0.000000 
#    z 0.000000 0.000000 3.746830 
# 
# 
# High freq. dielectric constant tensor:
#      x y z
#    x 1.806330 0.000000 0.000000 
#    y 0.000000 1.792990 0.000000 
#    z 0.000000 0.000000 1.801170 
# 
# From -- ./inp_files/71592.got.cif
#   From: 2010.03.12/outbox.cif.g09.slc.cpg/sg63_36_cif.got.tgz:71592.got - 2010.04.10 19:34:48.
