data_PCOD8259457
_publ_section_title
;
Structure prediction by ZEFSAII (Michael W. Deem and Ramdas Pophale) SiO2 
 PCOD8259457
Probable space group: C M C M
;
_chemical_formula_sum "Si O2"
_cell_formula_units_Z 72
_cell_length_a 13.067689
_cell_length_b 24.003565
_cell_length_c 13.203163
_cell_angle_alpha 90.000000
_cell_angle_beta 90.000000
_cell_angle_gamma 90.000000
_cell_volume 4141.450956
_symmetry_space_group_name_H-M "C M C M"
_symmetry_group_IT_number 63
_symmetry_cell_setting 'orthorhombic'
loop_
_space_group_symop_operation_xyz
x,y,z
-x,-y,1/2+z
x,-y,-z
-x,y,1/2-z
-x,-y,-z
x,y,1/2-z
-x,y,z
x,-y,1/2+z
1/2+x,1/2+y,z
1/2-x,1/2-y,1/2+z
1/2+x,1/2-y,-z
1/2-x,1/2+y,1/2-z
1/2-x,1/2-y,-z
1/2+x,1/2+y,1/2-z
1/2-x,1/2+y,z
1/2+x,1/2-y,1/2+z
loop_
_atom_site_type_symbol
_atom_site_label
_atom_site_fract_x
_atom_site_fract_y
_atom_site_fract_z
Si Si1 0.288245 0.298850 0.633165
Si Si2 0.380141 0.081384 0.633540
Si Si3 0.881097 0.917291 0.633418
Si Si4 0.750508 0.500000 0.000000
Si Si5 0.618232 0.803470 0.029247
O O1 0.258389 0.295490 0.750000
O O2 0.350688 0.354323 0.607072
O O3 0.360773 0.247344 0.605043
O O4 0.181883 0.296650 0.573290
O O5 0.346092 0.082230 0.750000
O O6 0.500000 0.069940 0.622181
O O7 0.348892 0.140138 0.585219
O O8 0.321657 0.031928 0.578648
O O9 0.855597 0.931248 0.750000
O O10 0.000000 0.925168 0.610244
O O11 0.819677 0.958111 0.561663
O O12 0.500000 0.804424 0.998229
#
# Coordination Sequence:
#
# PCOD8259457 Si02
#       5
#    16  16  16   8  16
#     4  10  20  36  58  83 109 140 176 221 271 320
#     4  10  21  36  55  80 110 143 180 222 268 321
#     4  10  21  36  55  80 108 141 182 224 266 315
#     4  12  20  36  54  80 108 148 184 222 264 312
#     4  10  20  36  58  83 109 140 177 220 270 322
#
# _framework density 17.385211000000002
#
# number of rings (size 3 to 8) (size 9 to 14) (size 15 to 20)
#    0.000    1.778    2.222    2.667    0.000    2.667 
#    0.000    0.000    0.000    0.000    0.000    0.000 
#    0.000    0.000    0.000    0.000    0.000    0.000 
#
# Total GULP energy -446553.806415 kJ/mol
# GULP energy per Si atom -12404.272400 kJ/mol
# Density = 1.734564 g / cm^3
# Si number density = 17.385211 Si / 1000 Ang^3
#
#
#
# Elastic Constant Matrix: (Units=GPa)
#
#
# Indices 1 2 3 4 5 6 
#
# 1 52.1831 19.2973 36.1823 0.0000 0.0000 0.0000
# 2 19.2973 85.0304 46.3546 0.0000 0.0000 0.0000
# 3 36.1823 46.3546 92.8264 0.0000 0.0000 0.0000
# 4 0.0000 0.0000 0.0000 20.3646 0.0000 0.0000
# 5 0.0000 0.0000 0.0000 0.0000 8.3797 0.0000
# 6 0.0000 0.0000 0.0000 0.0000 0.0000 107.2746
#
#
#
# Elastic Compliance Matrix: (Units=1/GPa)
#
#
# Indices 1 2 3 4 5 6 
#
# 1 0.026277 -0.000522 -0.009982 0.000000 0.000000 0.000000
# 2 -0.000522 0.016170 -0.007871 0.000000 0.000000 0.000000
# 3 -0.009982 -0.007871 0.018594 0.000000 0.000000 0.000000
# 4 0.000000 0.000000 0.000000 0.049105 0.000000 0.000000
# 5 0.000000 0.000000 0.000000 0.000000 0.119336 0.000000
# 6 0.000000 0.000000 0.000000 0.000000 0.000000 0.009322
#
#
# Mechanical properties :
#
#
# Convention : Reuss Voigt Hill
#
# Bulk Modulus (GPa) = 41.16680 48.18983 44.67831
# Shear Modulus (GPa) = 17.62725 35.75084 26.68905
#
# Velocity S-wave (km/s) = 3.18767 4.53967 3.92236
# Velocity P-wave (km/s) = 6.10565 7.43351 6.80206
#
# Compressibility (1/GPa) = 0.02429142
#
# Stress axis : x y z
#
# Youngs Moduli (GPa) = 38.05540 61.84268 53.77981
#
# Poissons Ratio (x) = 0.03227 0.53683
# Poissons Ratio (y) = 0.01986 0.42332
# Poissons Ratio (z) = 0.37987 0.48679
#
# Static dielectric constant tensor:
#      x y z
#    x 3.194140 0.000000 0.000000 
#    y 0.000000 3.379830 0.000000 
#    z 0.000000 0.000000 3.297170 
# 
# 
# High freq. dielectric constant tensor:
#      x y z
#    x 1.674350 0.000000 0.000000 
#    y 0.000000 1.686940 0.000000 
#    z 0.000000 0.000000 1.677680 
# 
# From -- ./inp_files/17611.got.cif
#   From: 2010.03.12/outbox.cif.g09.slc.cpg/sg63_9_cif.got.tgz:17611.got - 2010.04.10 19:34:48.
