data_PCOD8259241
_publ_section_title
;
Structure prediction by ZEFSAII (Michael W. Deem and Ramdas Pophale) SiO2 
 PCOD8259241
Probable space group: C M C M
;
_chemical_formula_sum "Si O2"
_cell_formula_units_Z 96
_cell_length_a 27.339242
_cell_length_b 20.307881
_cell_length_c 8.821226
_cell_angle_alpha 90.000000
_cell_angle_beta 90.000000
_cell_angle_gamma 90.000000
_cell_volume 4897.562963
_symmetry_space_group_name_H-M "C M C M"
_symmetry_group_IT_number 63
_symmetry_cell_setting 'orthorhombic'
loop_
_space_group_symop_operation_xyz
x,y,z
-x,-y,1/2+z
x,-y,-z
-x,y,1/2-z
-x,-y,-z
x,y,1/2-z
-x,y,z
x,-y,1/2+z
1/2+x,1/2+y,z
1/2-x,1/2-y,1/2+z
1/2+x,1/2-y,-z
1/2-x,1/2+y,1/2-z
1/2-x,1/2-y,-z
1/2+x,1/2+y,1/2-z
1/2-x,1/2+y,z
1/2+x,1/2-y,1/2+z
loop_
_atom_site_type_symbol
_atom_site_label
_atom_site_fract_x
_atom_site_fract_y
_atom_site_fract_z
Si Si1 0.390541 0.196968 0.428446
Si Si2 0.269500 0.431730 0.428420
Si Si3 0.372825 0.568512 0.429009
Si Si4 0.713585 0.801493 0.427229
Si Si5 0.944492 0.433145 0.571046
Si Si6 0.443722 0.686044 0.424721
O O1 0.382091 0.196959 0.250000
O O2 0.339944 0.211870 0.509900
O O3 0.411531 0.127235 0.485910
O O4 0.429508 0.252588 0.471205
O O5 0.250305 0.500000 0.500000
O O6 0.277043 0.441132 0.250000
O O7 0.320882 0.410350 0.501377
O O8 0.229955 0.375771 0.466363
O O9 0.390938 0.500000 0.500000
O O10 0.367023 0.560364 0.250000
O O11 0.412354 0.622986 0.473983
O O12 0.713371 0.788427 0.250000
O O13 0.750000 0.750000 0.500000
O O14 0.922853 0.500000 0.500000
O O15 0.942783 0.439469 0.750000
O O16 0.000000 0.421611 0.514101
O O17 0.433819 0.704492 0.250000
O O18 0.500000 0.668313 0.453681
#
# Coordination Sequence:
#
# PCOD8259241 Si02
#       6
#    16  16  16  16  16  16
#     4  11  23  38  58  84 114 148 187 232 281 333
#     4  10  21  37  58  83 111 145 185 227 275 331
#     4  10  20  35  57  83 112 146 184 227 276 330
#     4  11  24  40  59  84 113 147 188 232 280 334
#     4   9  19  36  57  82 112 146 185 228 275 328
#     4  10  22  39  58  82 113 149 189 233 281 332
#
# _framework density 19.601585
#
# number of rings (size 3 to 8) (size 9 to 14) (size 15 to 20)
#    0.000    1.833    0.000    4.500    0.000   10.000 
#    0.000    5.000    0.000    0.000    0.000    0.000 
#    0.000    0.000    0.000    0.000    0.000    0.000 
#
# Total GULP energy -595430.142982 kJ/mol
# GULP energy per Si atom -12404.794645 kJ/mol
# Density = 1.955697 g / cm^3
# Si number density = 19.601585 Si / 1000 Ang^3
#
#
#
# Elastic Constant Matrix: (Units=GPa)
#
#
# Indices 1 2 3 4 5 6 
#
# 1 62.9524 23.7139 19.8791 0.0000 0.0000 0.0000
# 2 23.7139 91.7156 39.1475 0.0000 0.0000 0.0000
# 3 19.8791 39.1475 75.0748 0.0000 0.0000 0.0000
# 4 0.0000 0.0000 0.0000 35.4808 0.0000 0.0000
# 5 0.0000 0.0000 0.0000 0.0000 26.2555 0.0000
# 6 0.0000 0.0000 0.0000 0.0000 0.0000 37.8987
#
#
#
# Elastic Compliance Matrix: (Units=1/GPa)
#
#
# Indices 1 2 3 4 5 6 
#
# 1 0.018119 -0.003392 -0.003029 0.000000 0.000000 0.000000
# 2 -0.003392 0.014660 -0.006746 0.000000 0.000000 0.000000
# 3 -0.003029 -0.006746 0.017640 0.000000 0.000000 0.000000
# 4 0.000000 0.000000 0.000000 0.028184 0.000000 0.000000
# 5 0.000000 0.000000 0.000000 0.000000 0.038087 0.000000
# 6 0.000000 0.000000 0.000000 0.000000 0.000000 0.026386
#
#
# Mechanical properties :
#
#
# Convention : Reuss Voigt Hill
#
# Bulk Modulus (GPa) = 41.52039 43.91376 42.71707
# Shear Modulus (GPa) = 28.17868 29.72716 28.95292
#
# Velocity S-wave (km/s) = 3.79565 3.89854 3.84744
# Velocity P-wave (km/s) = 6.35904 6.53580 6.44802
#
# Compressibility (1/GPa) = 0.02408455
#
# Stress axis : x y z
#
# Youngs Moduli (GPa) = 55.18981 68.21384 56.68980
#
# Poissons Ratio (x) = 0.23138 0.17172
# Poissons Ratio (y) = 0.18720 0.38244
# Poissons Ratio (z) = 0.16717 0.46018
#
# Static dielectric constant tensor:
#      x y z
#    x 3.581650 0.000000 0.000000 
#    y 0.000000 3.759350 0.000000 
#    z 0.000000 0.000000 3.604550 
# 
# 
# High freq. dielectric constant tensor:
#      x y z
#    x 1.762840 0.000000 0.000000 
#    y 0.000000 1.777290 0.000000 
#    z 0.000000 0.000000 1.769620 
# 
# From -- ./inp_files/12319.got.cif
#   From: 2010.03.12/outbox.cif.g09.slc.cpg/sg63_7_cif.got.tgz:12319.got - 2010.04.10 19:34:48.
