data_PCOD8259114
_publ_section_title
;
Structure prediction by ZEFSAII (Michael W. Deem and Ramdas Pophale) SiO2 
 PCOD8259114
Probable space group: C M C M
;
_chemical_formula_sum "Si O2"
_cell_formula_units_Z 80
_cell_length_a 26.073275
_cell_length_b 10.583870
_cell_length_c 15.305869
_cell_angle_alpha 90.000000
_cell_angle_beta 90.000000
_cell_angle_gamma 90.000000
_cell_volume 4223.748729
_symmetry_space_group_name_H-M "C M C M"
_symmetry_group_IT_number 63
_symmetry_cell_setting 'orthorhombic'
loop_
_space_group_symop_operation_xyz
x,y,z
-x,-y,1/2+z
x,-y,-z
-x,y,1/2-z
-x,-y,-z
x,y,1/2-z
-x,y,z
x,-y,1/2+z
1/2+x,1/2+y,z
1/2-x,1/2-y,1/2+z
1/2+x,1/2-y,-z
1/2-x,1/2+y,1/2-z
1/2-x,1/2-y,-z
1/2+x,1/2+y,1/2-z
1/2-x,1/2+y,z
1/2+x,1/2-y,1/2+z
loop_
_atom_site_type_symbol
_atom_site_label
_atom_site_fract_x
_atom_site_fract_y
_atom_site_fract_z
Si Si1 0.127575 0.359301 0.498238
Si Si2 0.645826 0.531454 0.151183
Si Si3 0.799529 0.274170 0.350998
Si Si4 0.058232 0.131252 0.052002
Si Si5 0.819643 0.229197 0.851949
O O1 0.103075 0.500000 0.500000
O O2 0.165638 0.357804 0.414965
O O3 0.082355 0.254293 0.495192
O O4 0.160200 0.342456 0.587688
O O5 0.652960 0.493130 0.250000
O O6 0.690681 0.627589 0.123391
O O7 0.591181 0.600178 0.138071
O O8 0.652253 0.395017 0.105877
O O9 0.815633 0.300503 0.250000
O O10 0.740074 0.299560 0.365691
O O11 0.000000 0.164284 0.076927
O O12 0.061498 0.000000 0.000000
O O13 0.831638 0.260538 0.750000
#
# Coordination Sequence:
#
# PCOD8259114 Si02
#       5
#    16  16  16  16  16
#     4  11  23  36  55  85 114 147 189 230 280 336
#     4   9  18  34  56  82 107 140 190 236 273 326
#     4   9  20  35  54  79 113 153 190 226 271 330
#     4  10  20  38  60  78 105 142 186 236 284 327
#     4  10  20  35  54  79 115 153 186 227 277 331
#
# _framework density 18.940521
#
# number of rings (size 3 to 8) (size 9 to 14) (size 15 to 20)
#    0.000    2.200    2.000    0.600    2.800    1.600 
#    0.000    0.000    0.000    0.600    0.000    2.800 
#    0.000    0.000    0.000    0.000    0.000    0.000 
#
# Total GULP energy -495565.673321 kJ/mol
# GULP energy per Si atom -12389.141833 kJ/mol
# Density = 1.889741 g / cm^3
# Si number density = 18.940521 Si / 1000 Ang^3
#
#
#
# Elastic Constant Matrix: (Units=GPa)
#
#
# Indices 1 2 3 4 5 6 
#
# 1 107.0808 44.2357 23.8141 0.0000 0.0000 0.0000
# 2 44.2357 127.3588 33.3227 0.0000 0.0000 0.0000
# 3 23.8141 33.3227 46.6202 0.0000 0.0000 0.0000
# 4 0.0000 0.0000 0.0000 16.0018 0.0000 0.0000
# 5 0.0000 0.0000 0.0000 0.0000 18.1507 0.0000
# 6 0.0000 0.0000 0.0000 0.0000 0.0000 22.1702
#
#
#
# Elastic Compliance Matrix: (Units=1/GPa)
#
#
# Indices 1 2 3 4 5 6 
#
# 1 0.011394 -0.002995 -0.003680 0.000000 0.000000 0.000000
# 2 -0.002995 0.010445 -0.005936 0.000000 0.000000 0.000000
# 3 -0.003680 -0.005936 0.027572 0.000000 0.000000 0.000000
# 4 0.000000 0.000000 0.000000 0.062493 0.000000 0.000000
# 5 0.000000 0.000000 0.000000 0.000000 0.055094 0.000000
# 6 0.000000 0.000000 0.000000 0.000000 0.000000 0.045106
#
#
# Mechanical properties :
#
#
# Convention : Reuss Voigt Hill
#
# Bulk Modulus (GPa) = 41.33824 53.75609 47.54716
# Shear Modulus (GPa) = 20.37578 23.24371 21.80974
#
# Velocity S-wave (km/s) = 3.28346 3.50693 3.39704
# Velocity P-wave (km/s) = 6.02059 6.69636 6.36745
#
# Compressibility (1/GPa) = 0.02419067
#
# Stress axis : x y z
#
# Youngs Moduli (GPa) = 87.76347 95.73801 36.26805
#
# Poissons Ratio (x) = 0.28672 0.13346
# Poissons Ratio (y) = 0.26284 0.21529
# Poissons Ratio (z) = 0.32294 0.56831
#
# Static dielectric constant tensor:
#      x y z
#    x 3.377130 0.000000 0.000000 
#    y 0.000000 3.567500 0.000000 
#    z 0.000000 0.000000 3.479730 
# 
# 
# High freq. dielectric constant tensor:
#      x y z
#    x 1.716140 0.000000 0.000000 
#    y 0.000000 1.741370 0.000000 
#    z 0.000000 0.000000 1.731990 
# 
# From -- ./inp_files/36480.got.cif
#   From: 2010.03.12/outbox.cif.g09.slc.cpg/sg63_19_cif.got.tgz:36480.got - 2010.04.10 19:34:48.
