data_PCOD8259880
_publ_section_title
;
Structure prediction by ZEFSAII (Michael W. Deem and Ramdas Pophale) SiO2 
 PCOD8259880
Probable space group: C M C M
;
_chemical_formula_sum "Si O2"
_cell_formula_units_Z 112
_cell_length_a 25.347076
_cell_length_b 27.474895
_cell_length_c 9.570688
_cell_angle_alpha 90.000000
_cell_angle_beta 90.000000
_cell_angle_gamma 90.000000
_cell_volume 6665.106097
_symmetry_space_group_name_H-M "C M C M"
_symmetry_group_IT_number 63
_symmetry_cell_setting 'orthorhombic'
loop_
_space_group_symop_operation_xyz
x,y,z
-x,-y,1/2+z
x,-y,-z
-x,y,1/2-z
-x,-y,-z
x,y,1/2-z
-x,y,z
x,-y,1/2+z
1/2+x,1/2+y,z
1/2-x,1/2-y,1/2+z
1/2+x,1/2-y,-z
1/2-x,1/2+y,1/2-z
1/2-x,1/2-y,-z
1/2+x,1/2+y,1/2-z
1/2-x,1/2+y,z
1/2+x,1/2-y,1/2+z
loop_
_atom_site_type_symbol
_atom_site_label
_atom_site_fract_x
_atom_site_fract_y
_atom_site_fract_z
Si Si1 0.164122 0.370192 0.084626
Si Si2 0.137499 0.048091 0.587633
Si Si3 0.758176 0.547632 0.913200
Si Si4 0.442400 0.167807 0.916174
Si Si5 0.202279 0.733761 0.908918
Si Si6 0.439768 0.633920 0.589158
Si Si7 0.409158 0.273675 0.910594
O O1 0.165972 0.374036 0.250000
O O2 0.200715 0.412928 0.023936
O O3 0.102750 0.370284 0.031249
O O4 0.186682 0.319001 0.034090
O O5 0.127807 0.035862 0.750000
O O6 0.197954 0.065011 0.561753
O O7 0.099049 0.091178 0.536154
O O8 0.124043 0.000000 0.500000
O O9 0.767935 0.537172 0.750000
O O10 0.770772 0.500000 0.000000
O O11 0.438398 0.170435 0.750000
O O12 0.500000 0.149391 0.966687
O O13 0.433124 0.222994 0.969363
O O14 0.221302 0.730445 0.750000
O O15 0.154100 0.771426 0.924044
O O16 0.250000 0.750000 0.000000
O O17 0.427178 0.646228 0.750000
O O18 0.500000 0.616064 0.570551
O O19 0.431164 0.682412 0.501095
O O20 0.426036 0.282197 0.750000
#
# Coordination Sequence:
#
# PCOD8259880 Si02
#       7
#    16  16  16  16  16  16  16
#     4   8  15  27  44  66  91 120 153 184 222 272
#     4   9  19  34  50  67  87 115 151 192 238 283
#     4   9  17  31  50  69  89 117 151 188 231 277
#     4   8  13  24  44  68  93 120 153 191 221 253
#     4   9  18  30  45  68  97 126 156 189 227 275
#     4  10  21  34  48  69  94 121 156 194 234 285
#     4   9  18  31  46  69  96 124 159 194 227 268
#
# _framework density 16.803934000000002
#
# number of rings (size 3 to 8) (size 9 to 14) (size 15 to 20)
#    0.000    3.143    0.000    2.143    2.000    2.286 
#    0.000    0.714    0.000    1.286    0.000    0.000 
#    0.000    0.000    0.000    0.000    0.000    0.000 
#
# Total GULP energy -694013.338500 kJ/mol
# GULP energy per Si atom -12393.095330 kJ/mol
# Density = 1.676569 g / cm^3
# Si number density = 16.803934 Si / 1000 Ang^3
#
#
#
# Elastic Constant Matrix: (Units=GPa)
#
#
# Indices 1 2 3 4 5 6 
#
# 1 134.7193 67.5806 32.0252 0.0000 0.0000 0.0000
# 2 67.5806 94.0165 28.0581 0.0000 0.0000 0.0000
# 3 32.0252 28.0581 34.1482 0.0000 0.0000 0.0000
# 4 0.0000 0.0000 0.0000 23.3818 0.0000 0.0000
# 5 0.0000 0.0000 0.0000 0.0000 19.3671 0.0000
# 6 0.0000 0.0000 0.0000 0.0000 0.0000 26.7642
#
#
#
# Elastic Compliance Matrix: (Units=1/GPa)
#
#
# Indices 1 2 3 4 5 6 
#
# 1 0.012394 -0.007207 -0.005701 0.000000 0.000000 0.000000
# 2 -0.007207 0.018283 -0.008263 0.000000 0.000000 0.000000
# 3 -0.005701 -0.008263 0.041421 0.000000 0.000000 0.000000
# 4 0.000000 0.000000 0.000000 0.042768 0.000000 0.000000
# 5 0.000000 0.000000 0.000000 0.000000 0.051634 0.000000
# 6 0.000000 0.000000 0.000000 0.000000 0.000000 0.037363
#
#
# Mechanical properties :
#
#
# Convention : Reuss Voigt Hill
#
# Bulk Modulus (GPa) = 33.60925 57.57912 45.59418
# Shear Modulus (GPa) = 19.52178 22.91730 21.21954
#
# Velocity S-wave (km/s) = 3.41213 3.69698 3.55741
# Velocity P-wave (km/s) = 5.96387 7.25005 6.63818
#
# Compressibility (1/GPa) = 0.02975371
#
# Stress axis : x y z
#
# Youngs Moduli (GPa) = 80.68705 54.69495 24.14263
#
# Poissons Ratio (x) = 0.39420 0.13764
# Poissons Ratio (y) = 0.58153 0.19950
# Poissons Ratio (z) = 0.46001 0.45196
#
# Static dielectric constant tensor:
#      x y z
#    x 3.511400 0.000000 0.000000 
#    y 0.000000 3.323360 0.000000 
#    z 0.000000 0.000000 2.729180 
# 
# 
# High freq. dielectric constant tensor:
#      x y z
#    x 1.662610 0.000000 0.000000 
#    y 0.000000 1.629990 0.000000 
#    z 0.000000 0.000000 1.614960 
# 
# From -- ./inp_files/24091.got.cif
#   From: 2010.03.12/outbox.cif.g09.slc.cpg/sg63_13_cif.got.tgz:24091.got - 2010.04.10 19:34:48.
