data_PCOD8259707
_publ_section_title
;
Structure prediction by ZEFSAII (Michael W. Deem and Ramdas Pophale) SiO2 
 PCOD8259707
Probable space group: C M C M
;
_chemical_formula_sum "Si O2"
_cell_formula_units_Z 76
_cell_length_a 12.324121
_cell_length_b 27.172221
_cell_length_c 13.108774
_cell_angle_alpha 90.000000
_cell_angle_beta 90.000000
_cell_angle_gamma 90.000000
_cell_volume 4389.784169
_symmetry_space_group_name_H-M "C M C M"
_symmetry_group_IT_number 63
_symmetry_cell_setting 'orthorhombic'
loop_
_space_group_symop_operation_xyz
x,y,z
-x,-y,1/2+z
x,-y,-z
-x,y,1/2-z
-x,-y,-z
x,y,1/2-z
-x,y,z
x,-y,1/2+z
1/2+x,1/2+y,z
1/2-x,1/2-y,1/2+z
1/2+x,1/2-y,-z
1/2-x,1/2+y,1/2-z
1/2-x,1/2-y,-z
1/2+x,1/2+y,1/2-z
1/2-x,1/2+y,z
1/2+x,1/2-y,1/2+z
loop_
_atom_site_type_symbol
_atom_site_label
_atom_site_fract_x
_atom_site_fract_y
_atom_site_fract_z
Si Si1 0.873836 0.179188 0.250000
Si Si2 0.000000 0.021332 0.750000
Si Si3 0.277720 0.532817 0.250000
Si Si4 0.798945 0.106931 0.078154
Si Si5 0.000000 0.057054 0.531521
Si Si6 0.370778 0.788504 0.250000
Si Si7 0.118816 0.443539 0.250000
Si Si8 0.875647 0.637022 0.918436
O O1 0.843448 0.150464 0.148200
O O2 0.820268 0.233676 0.250000
O O3 0.000000 0.188196 0.250000
O O4 0.902499 0.982611 0.750000
O O5 0.000000 0.058129 0.845916
O O6 0.251540 0.563601 0.148577
O O7 0.207655 0.484705 0.250000
O O8 0.893506 0.085299 0.006947
O O9 0.700775 0.130191 0.015305
O O10 0.000000 0.000000 0.500000
O O11 0.500000 0.790946 0.250000
O O12 0.332024 0.816679 0.147632
O O13 0.133155 0.411602 0.350798
O O14 0.000000 0.468190 0.250000
O O15 0.000000 0.645166 0.954909
#
# Coordination Sequence:
#
# PCOD8259707 Si02
#       8
#     8   4   8  16   8   8   8  16
#     4  10  20  38  58  81 109 140 187 234 266 341
#     4  12  22  32  52  74 108 154 190 222 258 334
#     4  11  21  33  48  75 108 148 190 211 271 322
#     4  11  22  34  55  82 111 145 186 230 270 330
#     4  12  22  36  54  78 116 156 188 222 280 324
#     4   8  17  37  63  80 104 141 180 230 285 337
#     4   9  19  34  52  72 106 145 182 223 256 324
#     4   9  19  36  55  81 106 138 185 227 280 334
#
# _framework density 17.312923000000001
#
# number of rings (size 3 to 8) (size 9 to 14) (size 15 to 20)
#    0.000    1.895    3.158    2.526    1.474    2.526 
#    0.000    3.684    0.000    0.000    2.737    0.000 
#    0.000    0.000    0.000    0.000    0.000    0.000 
#
# Total GULP energy -471170.587406 kJ/mol
# GULP energy per Si atom -12399.225984 kJ/mol
# Density = 1.727352 g / cm^3
# Si number density = 17.312923 Si / 1000 Ang^3
#
#
#
# Elastic Constant Matrix: (Units=GPa)
#
#
# Indices 1 2 3 4 5 6 
#
# 1 73.3232 44.9776 43.8389 0.0000 0.0000 0.0000
# 2 44.9776 121.8170 50.8804 0.0000 0.0000 0.0000
# 3 43.8389 50.8804 128.3309 0.0000 0.0000 0.0000
# 4 0.0000 0.0000 0.0000 19.7119 0.0000 0.0000
# 5 0.0000 0.0000 0.0000 0.0000 27.3267 0.0000
# 6 0.0000 0.0000 0.0000 0.0000 0.0000 20.7100
#
#
#
# Elastic Compliance Matrix: (Units=1/GPa)
#
#
# Indices 1 2 3 4 5 6 
#
# 1 0.019664 -0.005339 -0.004601 0.000000 0.000000 0.000000
# 2 -0.005339 0.011288 -0.002652 0.000000 0.000000 0.000000
# 3 -0.004601 -0.002652 0.010415 0.000000 0.000000 0.000000
# 4 0.000000 0.000000 0.000000 0.050731 0.000000 0.000000
# 5 0.000000 0.000000 0.000000 0.000000 0.036594 0.000000
# 6 0.000000 0.000000 0.000000 0.000000 0.000000 0.048286
#
#
# Mechanical properties :
#
#
# Convention : Reuss Voigt Hill
#
# Bulk Modulus (GPa) = 61.78602 66.98499 64.38551
# Shear Modulus (GPa) = 24.09005 25.80132 24.94568
#
# Velocity S-wave (km/s) = 3.73426 3.86462 3.80000
# Velocity P-wave (km/s) = 7.37280 7.66084 7.51820
#
# Compressibility (1/GPa) = 0.01618489
#
# Stress axis : x y z
#
# Youngs Moduli (GPa) = 50.85494 88.59184 96.01293
#
# Poissons Ratio (x) = 0.47297 0.44172
# Poissons Ratio (y) = 0.27150 0.25459
# Poissons Ratio (z) = 0.23396 0.23491
#
# Static dielectric constant tensor:
#      x y z
#    x 3.132200 0.000000 0.000000 
#    y 0.000000 3.340740 0.000000 
#    z 0.000000 0.000000 3.283540 
# 
# 
# High freq. dielectric constant tensor:
#      x y z
#    x 1.657420 0.000000 0.000000 
#    y 0.000000 1.668260 0.000000 
#    z 0.000000 0.000000 1.674250 
# 
# From -- ./inp_files/17978.got.cif
#   From: 2010.03.12/outbox.cif.g09.slc.cpg/sg63_9_cif.got.tgz:17978.got - 2010.04.10 19:34:48.
