data_PCOD8259277
_publ_section_title
;
Structure prediction by ZEFSAII (Michael W. Deem and Ramdas Pophale) SiO2 
 PCOD8259277
Probable space group: C M C M
;
_chemical_formula_sum "Si O2"
_cell_formula_units_Z 64
_cell_length_a 13.178163
_cell_length_b 14.392736
_cell_length_c 18.409250
_cell_angle_alpha 90.000000
_cell_angle_beta 90.000000
_cell_angle_gamma 90.000000
_cell_volume 3491.679153
_symmetry_space_group_name_H-M "C M C M"
_symmetry_group_IT_number 63
_symmetry_cell_setting 'orthorhombic'
loop_
_space_group_symop_operation_xyz
x,y,z
-x,-y,1/2+z
x,-y,-z
-x,y,1/2-z
-x,-y,-z
x,y,1/2-z
-x,y,z
x,-y,1/2+z
1/2+x,1/2+y,z
1/2-x,1/2-y,1/2+z
1/2+x,1/2-y,-z
1/2-x,1/2+y,1/2-z
1/2-x,1/2-y,-z
1/2+x,1/2+y,1/2-z
1/2-x,1/2+y,z
1/2+x,1/2-y,1/2+z
loop_
_atom_site_type_symbol
_atom_site_label
_atom_site_fract_x
_atom_site_fract_y
_atom_site_fract_z
Si Si1 0.230492 0.157082 0.083224
Si Si2 0.615793 0.499436 0.332991
Si Si3 0.882092 0.325051 0.035914
Si Si4 0.756871 0.668287 0.832012
O O1 0.181343 0.066001 0.116464
O O2 0.145878 0.214417 0.036230
O O3 0.273097 0.225753 0.146554
O O4 0.322289 0.126087 0.030492
O O5 0.623604 0.534462 0.250000
O O6 0.500000 0.500060 0.359750
O O7 0.657345 0.395067 0.340292
O O8 0.845587 0.368055 0.113466
O O9 0.000000 0.342568 0.024696
O O10 0.799446 0.665198 0.750000
#
# Coordination Sequence:
#
# PCOD8259277 Si02
#       4
#    16  16  16  16
#     4   9  19  36  54  82 113 141 181 228 269 317
#     4  10  20  35  58  85 109 141 186 229 271 320
#     4   9  19  36  55  78 109 148 184 217 271 328
#     4   9  19  35  53  81 115 139 176 229 275 321
#
# _framework density 18.32929
#
# number of rings (size 3 to 8) (size 9 to 14) (size 15 to 20)
#    1.500    1.250    0.000    1.500    0.000    2.500 
#    0.000    3.750    0.000    3.750    0.000    0.000 
#    0.000    0.000    0.000    0.000    0.000    0.000 
#
# Total GULP energy -396492.026338 kJ/mol
# GULP energy per Si atom -12390.375823 kJ/mol
# Density = 1.828757 g / cm^3
# Si number density = 18.329290 Si / 1000 Ang^3
#
#
#
# Elastic Constant Matrix: (Units=GPa)
#
#
# Indices 1 2 3 4 5 6 
#
# 1 143.0552 37.9976 91.0020 0.0000 0.0000 0.0000
# 2 37.9976 59.2062 35.6268 0.0000 0.0000 0.0000
# 3 91.0020 35.6268 113.9473 0.0000 0.0000 0.0000
# 4 0.0000 0.0000 0.0000 19.6996 0.0000 0.0000
# 5 0.0000 0.0000 0.0000 0.0000 27.2280 0.0000
# 6 0.0000 0.0000 0.0000 0.0000 0.0000 22.5197
#
#
#
# Elastic Compliance Matrix: (Units=1/GPa)
#
#
# Indices 1 2 3 4 5 6 
#
# 1 0.014602 -0.002900 -0.010755 0.000000 0.000000 0.000000
# 2 -0.002900 0.021380 -0.004369 0.000000 0.000000 0.000000
# 3 -0.010755 -0.004369 0.018731 0.000000 0.000000 0.000000
# 4 0.000000 0.000000 0.000000 0.050762 0.000000 0.000000
# 5 0.000000 0.000000 0.000000 0.000000 0.036727 0.000000
# 6 0.000000 0.000000 0.000000 0.000000 0.000000 0.044406
#
#
# Mechanical properties :
#
#
# Convention : Reuss Voigt Hill
#
# Bulk Modulus (GPa) = 53.57302 71.71796 62.64549
# Shear Modulus (GPa) = 21.84568 23.99496 22.92032
#
# Velocity S-wave (km/s) = 3.45606 3.62208 3.54004
# Velocity P-wave (km/s) = 6.72438 7.53028 7.13871
#
# Compressibility (1/GPa) = 0.01866611
#
# Stress axis : x y z
#
# Youngs Moduli (GPa) = 68.48259 46.77263 53.38605
#
# Poissons Ratio (x) = 0.13562 0.57418
# Poissons Ratio (y) = 0.19857 0.23324
# Poissons Ratio (z) = 0.73655 0.20435
#
# Static dielectric constant tensor:
#      x y z
#    x 3.054730 0.000000 0.000000 
#    y 0.000000 3.061030 0.000000 
#    z 0.000000 0.000000 3.529300 
# 
# 
# High freq. dielectric constant tensor:
#      x y z
#    x 1.688090 0.000000 0.000000 
#    y 0.000000 1.688590 0.000000 
#    z 0.000000 0.000000 1.718740 
# 
# From -- ./inp_files/41493.got.cif
#   From: 2010.03.12/outbox.cif.g09.slc.cpg/sg63_21_cif.got.tgz:41493.got - 2010.04.10 19:34:48.
