data_PCOD8259610
_publ_section_title
;
Structure prediction by ZEFSAII (Michael W. Deem and Ramdas Pophale) SiO2 
 PCOD8259610
Probable space group: C M C M
;
_chemical_formula_sum "Si O2"
_cell_formula_units_Z 112
_cell_length_a 16.599791
_cell_length_b 12.316884
_cell_length_c 28.918177
_cell_angle_alpha 90.000000
_cell_angle_beta 90.000000
_cell_angle_gamma 90.000000
_cell_volume 5912.543963
_symmetry_space_group_name_H-M "C M C M"
_symmetry_group_IT_number 63
_symmetry_cell_setting 'orthorhombic'
loop_
_space_group_symop_operation_xyz
x,y,z
-x,-y,1/2+z
x,-y,-z
-x,y,1/2-z
-x,-y,-z
x,y,1/2-z
-x,y,z
x,-y,1/2+z
1/2+x,1/2+y,z
1/2-x,1/2-y,1/2+z
1/2+x,1/2-y,-z
1/2-x,1/2+y,1/2-z
1/2-x,1/2-y,-z
1/2+x,1/2+y,1/2-z
1/2-x,1/2+y,z
1/2+x,1/2-y,1/2+z
loop_
_atom_site_type_symbol
_atom_site_label
_atom_site_fract_x
_atom_site_fract_y
_atom_site_fract_z
Si Si1 0.596384 0.663323 0.937824
Si Si2 0.339982 0.452149 0.891701
Si Si3 0.405937 0.786044 0.697570
Si Si4 0.094426 0.035962 0.697944
Si Si5 0.659754 0.880337 0.609020
Si Si6 0.905111 0.555150 0.546173
Si Si7 0.407897 0.708047 0.039170
O O1 0.500000 0.646577 0.929967
O O2 0.648153 0.572832 0.911462
O O3 0.623072 0.780140 0.919167
O O4 0.623689 0.655353 0.991368
O O5 0.358650 0.456640 0.837008
O O6 0.253567 0.399132 0.900383
O O7 0.401039 0.373263 0.918090
O O8 0.384761 0.819496 0.750000
O O9 0.500000 0.802220 0.687660
O O10 0.382147 0.661011 0.688569
O O11 0.355696 0.863518 0.663563
O O12 0.118797 0.002686 0.750000
O O13 0.000000 0.020578 0.690133
O O14 0.616117 0.989327 0.592310
O O15 0.868186 0.500000 0.500000
O O16 0.866400 0.675811 0.550178
O O17 0.000000 0.560509 0.541765
O O18 0.500000 0.733988 0.029752
#
# Coordination Sequence:
#
# PCOD8259610 Si02
#       7
#    16  16  16  16  16  16  16
#     4  11  22  42  64  83 114 164 212 247 286 344
#     4  12  25  35  57  90 127 152 190 247 314 354
#     4   9  18  36  64  91 111 146 204 253 287 345
#     4   9  18  36  63  88 111 148 200 247 289 349
#     4  12  24  35  59  87 124 155 191 244 309 353
#     4  10  20  37  58  81 111 156 203 240 284 350
#     4  10  22  39  60  83 115 160 210 247 285 351
#
# _framework density 18.942775999999999
#
# number of rings (size 3 to 8) (size 9 to 14) (size 15 to 20)
#    0.000    1.571    2.857    3.857    2.000    3.429 
#    0.000    0.000    0.000    0.857    0.000    4.000 
#    0.000    0.000    0.000    0.000    0.000    0.000 
#
# Total GULP energy -694296.622475 kJ/mol
# GULP energy per Si atom -12398.153973 kJ/mol
# Density = 1.889966 g / cm^3
# Si number density = 18.942776 Si / 1000 Ang^3
#
#
#
# Elastic Constant Matrix: (Units=GPa)
#
#
# Indices 1 2 3 4 5 6 
#
# 1 48.6075 18.3087 26.3738 0.0000 0.0000 0.0000
# 2 18.3087 74.3233 52.6729 0.0000 0.0000 0.0000
# 3 26.3738 52.6729 139.8575 0.0000 0.0000 0.0000
# 4 0.0000 0.0000 0.0000 37.7432 0.0000 0.0000
# 5 0.0000 0.0000 0.0000 0.0000 12.4347 0.0000
# 6 0.0000 0.0000 0.0000 0.0000 0.0000 24.3513
#
#
#
# Elastic Compliance Matrix: (Units=1/GPa)
#
#
# Indices 1 2 3 4 5 6 
#
# 1 0.023615 -0.003630 -0.003086 0.000000 0.000000 0.000000
# 2 -0.003630 0.018911 -0.006438 0.000000 0.000000 0.000000
# 3 -0.003086 -0.006438 0.010157 0.000000 0.000000 0.000000
# 4 0.000000 0.000000 0.000000 0.026495 0.000000 0.000000
# 5 0.000000 0.000000 0.000000 0.000000 0.080420 0.000000
# 6 0.000000 0.000000 0.000000 0.000000 0.000000 0.041066
#
#
# Mechanical properties :
#
#
# Convention : Reuss Voigt Hill
#
# Bulk Modulus (GPa) = 37.91486 50.83321 44.37403
# Shear Modulus (GPa) = 21.20771 25.93469 23.57120
#
# Velocity S-wave (km/s) = 3.34962 3.70416 3.53134
# Velocity P-wave (km/s) = 5.91768 6.72219 6.33272
#
# Compressibility (1/GPa) = 0.02637488
#
# Stress axis : x y z
#
# Youngs Moduli (GPa) = 42.34642 52.87792 98.45730
#
# Poissons Ratio (x) = 0.19196 0.30384
# Poissons Ratio (y) = 0.15373 0.63385
# Poissons Ratio (z) = 0.13068 0.34042
#
# Static dielectric constant tensor:
#      x y z
#    x 3.215550 0.000000 0.000000 
#    y 0.000000 3.509180 0.000000 
#    z 0.000000 0.000000 3.656580 
# 
# 
# High freq. dielectric constant tensor:
#      x y z
#    x 1.714150 0.000000 0.000000 
#    y 0.000000 1.731240 0.000000 
#    z 0.000000 0.000000 1.743930 
# 
# From -- ./inp_files/73404.got.cif
#   From: 2010.03.12/outbox.cif.g09.slc.cpg/sg63_37_cif.got.tgz:73404.got - 2010.04.10 19:34:48.
