data_PCOD8259657
_publ_section_title
;
Structure prediction by ZEFSAII (Michael W. Deem and Ramdas Pophale) SiO2 
 PCOD8259657
Probable space group: C M C M
;
_chemical_formula_sum "Si O2"
_cell_formula_units_Z 72
_cell_length_a 17.583680
_cell_length_b 10.668927
_cell_length_c 18.799289
_cell_angle_alpha 90.000000
_cell_angle_beta 90.000000
_cell_angle_gamma 90.000000
_cell_volume 3526.727785
_symmetry_space_group_name_H-M "C M C M"
_symmetry_group_IT_number 63
_symmetry_cell_setting 'orthorhombic'
loop_
_space_group_symop_operation_xyz
x,y,z
-x,-y,1/2+z
x,-y,-z
-x,y,1/2-z
-x,-y,-z
x,y,1/2-z
-x,y,z
x,-y,1/2+z
1/2+x,1/2+y,z
1/2-x,1/2-y,1/2+z
1/2+x,1/2-y,-z
1/2-x,1/2+y,1/2-z
1/2-x,1/2-y,-z
1/2+x,1/2+y,1/2-z
1/2-x,1/2+y,z
1/2+x,1/2-y,1/2+z
loop_
_atom_site_type_symbol
_atom_site_label
_atom_site_fract_x
_atom_site_fract_y
_atom_site_fract_z
Si Si1 0.836536 0.073519 0.404887
Si Si2 0.914607 0.691745 0.967292
Si Si3 0.217139 0.956659 0.750000
Si Si4 0.825618 0.229816 0.750000
Si Si5 0.295992 0.000000 0.500000
Si Si6 0.585149 0.676199 0.609454
O O1 0.893458 0.183967 0.424628
O O2 0.830407 0.078835 0.319766
O O3 0.755301 0.082550 0.445544
O O4 0.871763 0.940280 0.427226
O O5 0.000000 0.649035 0.944192
O O6 0.850599 0.587402 0.951453
O O7 0.913653 0.713121 0.052053
O O8 0.290309 0.868125 0.750000
O O9 0.232583 0.108799 0.750000
O O10 0.876631 0.224791 0.819468
O O11 0.500000 0.633585 0.628008
#
# Coordination Sequence:
#
# PCOD8259657 Si02
#       6
#    16  16   8   8   8  16
#     4  11  22  38  62  89 117 158 203 255 299 361
#     4  11  23  39  59  88 125 158 199 249 304 363
#     4  10  24  36  60  88 122 151 207 257 305 359
#     4  10  21  38  56  90 117 161 197 257 306 363
#     4  12  23  36  63  90 122 160 202 246 305 364
#     4  10  20  37  60  87 118 155 202 251 302 356
#
# _framework density 20.415524999999999
#
# number of rings (size 3 to 8) (size 9 to 14) (size 15 to 20)
#    0.000    1.333    2.222    3.333    6.222    1.778 
#    0.000    1.667    0.000    0.000    0.000    0.000 
#    0.000    0.000    0.000    0.000    0.000    0.000 
#
# Total GULP energy -446346.462256 kJ/mol
# GULP energy per Si atom -12398.512840 kJ/mol
# Density = 2.036906 g / cm^3
# Si number density = 20.415525 Si / 1000 Ang^3
#
#
#
# Elastic Constant Matrix: (Units=GPa)
#
#
# Indices 1 2 3 4 5 6 
#
# 1 129.0799 34.5282 19.8670 0.0000 0.0000 0.0000
# 2 34.5282 43.3644 10.8240 0.0000 0.0000 0.0000
# 3 19.8670 10.8240 76.9469 0.0000 0.0000 0.0000
# 4 0.0000 0.0000 0.0000 17.6418 0.0000 0.0000
# 5 0.0000 0.0000 0.0000 0.0000 15.9872 0.0000
# 6 0.0000 0.0000 0.0000 0.0000 0.0000 35.9320
#
#
#
# Elastic Compliance Matrix: (Units=1/GPa)
#
#
# Indices 1 2 3 4 5 6 
#
# 1 0.010012 -0.007593 -0.001517 0.000000 0.000000 0.000000
# 2 -0.007593 0.029658 -0.002212 0.000000 0.000000 0.000000
# 3 -0.001517 -0.002212 0.013699 0.000000 0.000000 0.000000
# 4 0.000000 0.000000 0.000000 0.056684 0.000000 0.000000
# 5 0.000000 0.000000 0.000000 0.000000 0.062550 0.000000
# 6 0.000000 0.000000 0.000000 0.000000 0.000000 0.027830
#
#
# Mechanical properties :
#
#
# Convention : Reuss Voigt Hill
#
# Bulk Modulus (GPa) = 32.54590 42.20329 37.37459
# Shear Modulus (GPa) = 21.43005 26.19034 23.81019
#
# Velocity S-wave (km/s) = 3.24341 3.58559 3.41879
# Velocity P-wave (km/s) = 5.47747 6.15297 5.82502
#
# Compressibility (1/GPa) = 0.03072584
#
# Stress axis : x y z
#
# Youngs Moduli (GPa) = 99.88315 33.71742 72.99966
#
# Poissons Ratio (x) = 0.25602 0.11073
# Poissons Ratio (y) = 0.75842 0.16144
# Poissons Ratio (z) = 0.15151 0.07457
#
# Static dielectric constant tensor:
#      x y z
#    x 3.794780 0.000000 0.000000 
#    y 0.000000 3.711970 0.000000 
#    z 0.000000 0.000000 3.704590 
# 
# 
# High freq. dielectric constant tensor:
#      x y z
#    x 1.797390 0.000000 0.000000 
#    y 0.000000 1.791790 0.000000 
#    z 0.000000 0.000000 1.798800 
# 
# From -- ./inp_files/45287.got.cif
#   From: 2010.03.12/outbox.cif.g09.slc.cpg/sg63_23_cif.got.tgz:45287.got - 2010.04.10 19:34:48.
