data_PCOD8259519
_publ_section_title
;
Structure prediction by ZEFSAII (Michael W. Deem and Ramdas Pophale) SiO2 
 PCOD8259519
Probable space group: C M C M
;
_chemical_formula_sum "Si O2"
_cell_formula_units_Z 96
_cell_length_a 20.279872
_cell_length_b 14.414116
_cell_length_c 17.311562
_cell_angle_alpha 90.000000
_cell_angle_beta 90.000000
_cell_angle_gamma 90.000000
_cell_volume 5060.453958
_symmetry_space_group_name_H-M "C M C M"
_symmetry_group_IT_number 63
_symmetry_cell_setting 'orthorhombic'
loop_
_space_group_symop_operation_xyz
x,y,z
-x,-y,1/2+z
x,-y,-z
-x,y,1/2-z
-x,-y,-z
x,y,1/2-z
-x,y,z
x,-y,1/2+z
1/2+x,1/2+y,z
1/2-x,1/2-y,1/2+z
1/2+x,1/2-y,-z
1/2-x,1/2+y,1/2-z
1/2-x,1/2-y,-z
1/2+x,1/2+y,1/2-z
1/2-x,1/2+y,z
1/2+x,1/2-y,1/2+z
loop_
_atom_site_type_symbol
_atom_site_label
_atom_site_fract_x
_atom_site_fract_y
_atom_site_fract_z
Si Si1 0.311293 0.175645 0.084853
Si Si2 0.810678 0.699533 0.595474
Si Si3 0.575516 0.288835 0.340070
Si Si4 0.924632 0.181326 0.159929
Si Si5 0.726952 0.990560 0.160115
Si Si6 0.375722 0.514985 0.658596
O O1 0.249870 0.233568 0.119913
O O2 0.379964 0.219840 0.110769
O O3 0.311113 0.071027 0.115263
O O4 0.306086 0.171923 0.993273
O O5 0.879653 0.749332 0.611538
O O6 0.808858 0.607036 0.646625
O O7 0.594718 0.281063 0.250000
O O8 0.500000 0.260871 0.353991
O O9 0.586904 0.393449 0.371356
O O10 0.905793 0.188292 0.250000
O O11 0.000000 0.209515 0.145269
O O12 0.913146 0.076683 0.128948
O O13 0.726206 0.015353 0.250000
O O14 0.801190 0.984528 0.126972
O O15 0.375993 0.516278 0.750000
#
# Coordination Sequence:
#
# PCOD8259519 Si02
#       6
#    16  16  16  16  16  16
#     4  11  23  38  57  83 119 156 191 233 284 343
#     4  11  23  38  57  83 119 156 191 233 284 343
#     4  10  20  36  59  87 118 152 193 238 285 339
#     4  10  20  36  59  87 118 152 193 238 285 339
#     4  11  21  36  62  88 112 147 196 243 282 331
#     4   9  17  31  56  88 118 146 181 236 289 333
#
# _framework density 18.97063
#
# number of rings (size 3 to 8) (size 9 to 14) (size 15 to 20)
#    0.000    1.667    3.333    2.000    0.000    4.000 
#    0.000    1.667    0.000    7.000    0.000    0.000 
#    0.000    0.000    0.000    0.000    0.000    0.000 
#
# Total GULP energy -595413.767925 kJ/mol
# GULP energy per Si atom -12404.453498 kJ/mol
# Density = 1.892745 g / cm^3
# Si number density = 18.970630 Si / 1000 Ang^3
#
#
#
# Elastic Constant Matrix: (Units=GPa)
#
#
# Indices 1 2 3 4 5 6 
#
# 1 101.6364 37.3033 18.8149 0.0000 0.0000 0.0000
# 2 37.3033 95.7488 11.0589 0.0000 0.0000 0.0000
# 3 18.8149 11.0589 37.1692 0.0000 0.0000 0.0000
# 4 0.0000 0.0000 0.0000 17.7394 0.0000 0.0000
# 5 0.0000 0.0000 0.0000 0.0000 25.7214 0.0000
# 6 0.0000 0.0000 0.0000 0.0000 0.0000 30.9695
#
#
#
# Elastic Compliance Matrix: (Units=1/GPa)
#
#
# Indices 1 2 3 4 5 6 
#
# 1 0.012309 -0.004221 -0.004975 0.000000 0.000000 0.000000
# 2 -0.004221 0.012263 -0.001512 0.000000 0.000000 0.000000
# 3 -0.004975 -0.001512 0.029872 0.000000 0.000000 0.000000
# 4 0.000000 0.000000 0.000000 0.056372 0.000000 0.000000
# 5 0.000000 0.000000 0.000000 0.000000 0.038878 0.000000
# 6 0.000000 0.000000 0.000000 0.000000 0.000000 0.032290
#
#
# Mechanical properties :
#
#
# Convention : Reuss Voigt Hill
#
# Bulk Modulus (GPa) = 30.27686 40.98986 35.63336
# Shear Modulus (GPa) = 23.31985 26.04454 24.68220
#
# Velocity S-wave (km/s) = 3.50989 3.70927 3.61095
# Velocity P-wave (km/s) = 5.69388 6.32446 6.01744
#
# Compressibility (1/GPa) = 0.03302853
#
# Stress axis : x y z
#
# Youngs Moduli (GPa) = 81.24013 81.54534 33.47599
#
# Poissons Ratio (x) = 0.34420 0.16654
# Poissons Ratio (y) = 0.34291 0.05061
# Poissons Ratio (z) = 0.40417 0.12329
#
# Static dielectric constant tensor:
#      x y z
#    x 3.400440 0.000000 0.000000 
#    y 0.000000 3.500370 0.000000 
#    z 0.000000 0.000000 3.239710 
# 
# 
# High freq. dielectric constant tensor:
#      x y z
#    x 1.733340 0.000000 0.000000 
#    y 0.000000 1.741350 0.000000 
#    z 0.000000 0.000000 1.719080 
# 
# From -- ./inp_files/35342.got.cif
#   From: 2010.03.12/outbox.cif.g09.slc.cpg/sg63_18_cif.got.tgz:35342.got - 2010.04.10 19:34:48.
