data_PCOD8259647
_publ_section_title
;
Structure prediction by ZEFSAII (Michael W. Deem and Ramdas Pophale) SiO2 
 PCOD8259647
Probable space group: C M C M
;
_chemical_formula_sum "Si O2"
_cell_formula_units_Z 112
_cell_length_a 15.384880
_cell_length_b 24.092936
_cell_length_c 14.240453
_cell_angle_alpha 90.000000
_cell_angle_beta 90.000000
_cell_angle_gamma 90.000000
_cell_volume 5278.464984
_symmetry_space_group_name_H-M "C M C M"
_symmetry_group_IT_number 63
_symmetry_cell_setting 'orthorhombic'
loop_
_space_group_symop_operation_xyz
x,y,z
-x,-y,1/2+z
x,-y,-z
-x,y,1/2-z
-x,-y,-z
x,y,1/2-z
-x,y,z
x,-y,1/2+z
1/2+x,1/2+y,z
1/2-x,1/2-y,1/2+z
1/2+x,1/2-y,-z
1/2-x,1/2+y,1/2-z
1/2-x,1/2-y,-z
1/2+x,1/2+y,1/2-z
1/2-x,1/2+y,z
1/2+x,1/2-y,1/2+z
loop_
_atom_site_type_symbol
_atom_site_label
_atom_site_fract_x
_atom_site_fract_y
_atom_site_fract_z
Si Si1 0.096025 0.164411 0.638564
Si Si2 0.901334 0.450448 0.139759
Si Si3 0.900923 0.663019 0.539379
Si Si4 0.191669 0.650888 0.356489
Si Si5 0.247202 0.531238 0.360448
Si Si6 0.095960 0.039519 0.861812
Si Si7 0.238744 0.268772 0.142787
O O1 0.093152 0.167005 0.750000
O O2 0.118062 0.102016 0.604659
O O3 0.171021 0.205742 0.601807
O O4 0.000000 0.182310 0.600214
O O5 0.890013 0.439391 0.250000
O O6 0.873251 0.394412 0.087720
O O7 0.839392 0.499855 0.102941
O O8 0.000000 0.467693 0.115084
O O9 0.888979 0.658471 0.427012
O O10 0.841102 0.711785 0.579728
O O11 0.000000 0.678045 0.562300
O O12 0.154551 0.645769 0.250000
O O13 0.244672 0.595970 0.386872
O O14 0.257718 0.702275 0.364314
O O15 0.251486 0.523539 0.250000
O O16 0.333029 0.502806 0.405268
O O17 0.097872 0.037773 0.750000
O O18 0.000000 0.021856 0.897545
O O19 0.223901 0.288097 0.250000
#
# Coordination Sequence:
#
# PCOD8259647 Si02
#       7
#    16  16  16  16  16  16  16
#     4   8  14  26  49  82 112 138 174 222 277 332
#     4   9  18  33  55  84 114 144 184 234 284 332
#     4  11  23  38  59  86 114 146 188 238 288 336
#     4  10  23  40  56  77 109 152 196 231 273 336
#     4   9  17  32  53  77 110 150 187 227 277 332
#     4   8  13  23  44  75 105 132 169 218 270 324
#     4  10  20  37  60  84 113 146 182 229 282 338
#
# _framework density 21.218288999999999
#
# number of rings (size 3 to 8) (size 9 to 14) (size 15 to 20)
#    0.000    2.714    0.000    2.571    0.000    5.143 
#    0.000    5.000    0.000    3.429    0.000    3.000 
#    0.000    0.000    0.000    0.000    0.000    0.000 
#
# Total GULP energy -694260.254223 kJ/mol
# GULP energy per Si atom -12397.504540 kJ/mol
# Density = 2.117000 g / cm^3
# Si number density = 21.218289 Si / 1000 Ang^3
#
#
#
# Elastic Constant Matrix: (Units=GPa)
#
#
# Indices 1 2 3 4 5 6 
#
# 1 138.5598 77.3608 29.1653 0.0000 0.0000 0.0000
# 2 77.3608 140.9608 29.9155 0.0000 0.0000 0.0000
# 3 29.1653 29.9155 62.4878 0.0000 0.0000 0.0000
# 4 0.0000 0.0000 0.0000 7.7286 0.0000 0.0000
# 5 0.0000 0.0000 0.0000 0.0000 16.4441 0.0000
# 6 0.0000 0.0000 0.0000 0.0000 0.0000 -3.0310
#
#
#
# Elastic Compliance Matrix: (Units=1/GPa)
#
#
# Indices 1 2 3 4 5 6 
#
# 1 0.010729 -0.005371 -0.002436 0.000000 0.000000 0.000000
# 2 -0.005371 0.010585 -0.002561 0.000000 0.000000 0.000000
# 3 -0.002436 -0.002561 0.018366 0.000000 0.000000 0.000000
# 4 0.000000 0.000000 0.000000 0.129389 0.000000 0.000000
# 5 0.000000 0.000000 0.000000 0.000000 0.060812 0.000000
# 6 0.000000 0.000000 0.000000 0.000000 0.000000 -0.329924
#
#
# Mechanical properties :
#
#
# Convention : Reuss Voigt Hill
#
# Bulk Modulus (GPa) = 52.78649 68.32129 60.55389
# Shear Modulus (GPa) = -68.50003 17.93280 -25.28361
#
# Velocity S-wave (km/s) = -5.68802 2.91031 -3.45569
# Velocity P-wave (km/s) = 4.26688 6.60018 3.56063
#
# Compressibility (1/GPa) = 0.01894424
#
# Stress axis : x y z
#
# Youngs Moduli (GPa) = 93.20893 94.47089 54.44810
#
# Poissons Ratio (x) = 0.50740 0.13264
# Poissons Ratio (y) = 0.50062 0.13943
# Poissons Ratio (z) = 0.22707 0.24192
#
# Static dielectric constant tensor:
#      x y z
#    x 3.994590 0.000000 0.000000 
#    y 0.000000 3.898330 0.000000 
#    z 0.000000 0.000000 3.614610 
# 
# 
# High freq. dielectric constant tensor:
#      x y z
#    x 1.822470 0.000000 0.000000 
#    y 0.000000 1.831110 0.000000 
#    z 0.000000 0.000000 1.814020 
# 
# From -- ./inp_files/32290.got.cif
#   From: 2010.03.12/outbox.cif.g09.slc.cpg/sg63_17_cif.got.tgz:32290.got - 2010.04.10 19:34:48.
