data_PCOD8259331
_publ_section_title
;
Structure prediction by ZEFSAII (Michael W. Deem and Ramdas Pophale) SiO2 
 PCOD8259331
Probable space group: C M C M
;
_chemical_formula_sum "Si O2"
_cell_formula_units_Z 80
_cell_length_a 14.783047
_cell_length_b 15.171914
_cell_length_c 17.679129
_cell_angle_alpha 90.000000
_cell_angle_beta 90.000000
_cell_angle_gamma 90.000000
_cell_volume 3965.200888
_symmetry_space_group_name_H-M "C M C M"
_symmetry_group_IT_number 63
_symmetry_cell_setting 'orthorhombic'
loop_
_space_group_symop_operation_xyz
x,y,z
-x,-y,1/2+z
x,-y,-z
-x,y,1/2-z
-x,-y,-z
x,y,1/2-z
-x,y,z
x,-y,1/2+z
1/2+x,1/2+y,z
1/2-x,1/2-y,1/2+z
1/2+x,1/2-y,-z
1/2-x,1/2+y,1/2-z
1/2-x,1/2-y,-z
1/2+x,1/2+y,1/2-z
1/2-x,1/2+y,z
1/2+x,1/2-y,1/2+z
loop_
_atom_site_type_symbol
_atom_site_label
_atom_site_fract_x
_atom_site_fract_y
_atom_site_fract_z
Si Si1 0.399465 0.071987 0.062569
Si Si2 0.601788 0.435019 0.066582
Si Si3 0.355475 0.745553 0.009722
Si Si4 0.896829 0.691150 0.834136
Si Si5 0.771599 0.476225 0.336633
O O1 0.500000 0.056564 0.097016
O O2 0.320641 0.060816 0.125218
O O3 0.399312 0.167693 0.025426
O O4 0.376321 0.000000 0.000000
O O5 0.500000 0.454081 0.096205
O O6 0.672085 0.452870 0.133385
O O7 0.629948 0.500000 0.000000
O O8 0.604354 0.336223 0.035274
O O9 0.379184 0.737445 0.099536
O O10 0.250000 0.750000 0.000000
O O11 0.875207 0.730669 0.750000
O O12 0.835053 0.607366 0.851035
O O13 0.000000 0.658747 0.837239
O O14 0.760105 0.500896 0.250000
#
# Coordination Sequence:
#
# PCOD8259331 Si02
#       5
#    16  16  16  16  16
#     4  11  21  36  61  94 126 159 203 255 317 381
#     4  11  24  43  64  88 120 165 221 267 306 365
#     4  12  21  38  64  92 129 167 210 256 313 373
#     4  10  20  35  59  92 126 158 195 245 308 374
#     4  11  22  39  61  88 124 163 202 255 320 381
#
# _framework density 20.175522000000001
#
# number of rings (size 3 to 8) (size 9 to 14) (size 15 to 20)
#    0.000    1.000    4.000    4.200    0.000    1.600 
#    0.000    5.000    0.000    3.600    0.000    0.000 
#    0.000    0.000    0.000    0.000    0.000    0.000 
#
# Total GULP energy -496008.887274 kJ/mol
# GULP energy per Si atom -12400.222182 kJ/mol
# Density = 2.012960 g / cm^3
# Si number density = 20.175522 Si / 1000 Ang^3
#
#
#
# Elastic Constant Matrix: (Units=GPa)
#
#
# Indices 1 2 3 4 5 6 
#
# 1 140.0774 14.0150 63.9526 0.0000 0.0000 0.0000
# 2 14.0150 90.3565 41.6292 0.0000 0.0000 0.0000
# 3 63.9526 41.6292 146.9157 0.0000 0.0000 0.0000
# 4 0.0000 0.0000 0.0000 17.0319 0.0000 0.0000
# 5 0.0000 0.0000 0.0000 0.0000 34.5809 0.0000
# 6 0.0000 0.0000 0.0000 0.0000 0.0000 63.5190
#
#
#
# Elastic Compliance Matrix: (Units=1/GPa)
#
#
# Indices 1 2 3 4 5 6 
#
# 1 0.008927 0.000467 -0.004018 0.000000 0.000000 0.000000
# 2 0.000467 0.012753 -0.003817 0.000000 0.000000 0.000000
# 3 -0.004018 -0.003817 0.009637 0.000000 0.000000 0.000000
# 4 0.000000 0.000000 0.000000 0.058713 0.000000 0.000000
# 5 0.000000 0.000000 0.000000 0.000000 0.028918 0.000000
# 6 0.000000 0.000000 0.000000 0.000000 0.000000 0.015743
#
#
# Mechanical properties :
#
#
# Convention : Reuss Voigt Hill
#
# Bulk Modulus (GPa) = 60.31094 68.50480 64.40787
# Shear Modulus (GPa) = 32.26741 40.20986 36.23864
#
# Velocity S-wave (km/s) = 4.00351 4.46915 4.24272
# Velocity P-wave (km/s) = 7.16441 7.78840 7.48291
#
# Compressibility (1/GPa) = 0.01658074
#
# Stress axis : x y z
#
# Youngs Moduli (GPa) = 112.02417 78.41041 103.76485
#
# Poissons Ratio (x) = -0.03658 0.41693
# Poissons Ratio (y) = -0.05227 0.39605
# Poissons Ratio (z) = 0.45011 0.29928
#
# Static dielectric constant tensor:
#      x y z
#    x 3.685870 0.000000 0.000000 
#    y 0.000000 4.434760 0.000000 
#    z 0.000000 0.000000 3.844220 
# 
# 
# High freq. dielectric constant tensor:
#      x y z
#    x 1.810870 0.000000 0.000000 
#    y 0.000000 1.770170 0.000000 
#    z 0.000000 0.000000 1.780090 
# 
# From -- ./inp_files/43932.got.cif
#   From: 2010.03.12/outbox.cif.g09.slc.cpg/sg63_22_cif.got.tgz:43932.got - 2010.04.10 19:34:48.
