data_PCOD8259926
_publ_section_title
;
Structure prediction by ZEFSAII (Michael W. Deem and Ramdas Pophale) SiO2 
 PCOD8259926
Probable space group: C M C M
;
_chemical_formula_sum "Si O2"
_cell_formula_units_Z 96
_cell_length_a 11.745942
_cell_length_b 31.992201
_cell_length_c 13.896002
_cell_angle_alpha 90.000000
_cell_angle_beta 90.000000
_cell_angle_gamma 90.000000
_cell_volume 5221.819307
_symmetry_space_group_name_H-M "C M C M"
_symmetry_group_IT_number 63
_symmetry_cell_setting 'orthorhombic'
loop_
_space_group_symop_operation_xyz
x,y,z
-x,-y,1/2+z
x,-y,-z
-x,y,1/2-z
-x,-y,-z
x,y,1/2-z
-x,y,z
x,-y,1/2+z
1/2+x,1/2+y,z
1/2-x,1/2-y,1/2+z
1/2+x,1/2-y,-z
1/2-x,1/2+y,1/2-z
1/2-x,1/2-y,-z
1/2+x,1/2+y,1/2-z
1/2-x,1/2+y,z
1/2+x,1/2-y,1/2+z
loop_
_atom_site_type_symbol
_atom_site_label
_atom_site_fract_x
_atom_site_fract_y
_atom_site_fract_z
Si Si1 0.634594 0.566431 0.035365
Si Si2 0.865015 0.984528 0.144278
Si Si3 0.500000 0.262837 0.136070
Si Si4 0.127294 0.778986 0.860880
Si Si5 0.500000 0.167285 0.365419
Si Si6 0.765420 0.196287 0.860509
Si Si7 0.769025 0.350525 0.541573
O O1 0.500000 0.574667 0.039710
O O2 0.673427 0.530328 0.109059
O O3 0.697766 0.608354 0.065559
O O4 0.674122 0.551824 0.928700
O O5 0.813097 0.975725 0.250000
O O6 0.000000 0.984418 0.147036
O O7 0.500000 0.260653 0.250000
O O8 0.500000 0.215282 0.098424
O O9 0.387375 0.286911 0.100608
O O10 0.126109 0.792409 0.750000
O O11 0.171966 0.732131 0.872096
O O12 0.210553 0.809959 0.914355
O O13 0.000000 0.780848 0.905042
O O14 0.500000 0.163381 0.250000
O O15 0.391776 0.143760 0.410401
O O16 0.774301 0.180989 0.750000
O O17 0.726363 0.157191 0.926176
#
# Coordination Sequence:
#
# PCOD8259926 Si02
#       7
#    16  16   8  16   8  16  16
#     4   9  19  33  51  85 115 131 169 215 259 327
#     4   8  15  32  57  79 107 144 169 199 257 323
#     4   9  18  36  54  71 102 143 191 230 254 308
#     4  10  21  35  52  76 105 139 186 237 277 317
#     4  11  24  40  55  74 102 144 194 230 265 320
#     4  10  22  36  52  76 106 146 191 228 267 317
#     4  12  23  34  56  77 108 144 178 226 281 314
#
# _framework density 18.384398000000001
#
# number of rings (size 3 to 8) (size 9 to 14) (size 15 to 20)
#    0.000    2.167    1.667    2.500    3.500    2.000 
#    0.000    1.667    0.000    2.000    0.000    1.167 
#    0.000    0.000    0.000    0.000    0.000    0.000 
#
# Total GULP energy -595180.297508 kJ/mol
# GULP energy per Si atom -12399.589531 kJ/mol
# Density = 1.834255 g / cm^3
# Si number density = 18.384398 Si / 1000 Ang^3
#
#
#
# Elastic Constant Matrix: (Units=GPa)
#
#
# Indices 1 2 3 4 5 6 
#
# 1 96.3420 16.7576 29.9343 0.0000 0.0000 0.0000
# 2 16.7576 43.9583 11.1684 0.0000 0.0000 0.0000
# 3 29.9343 11.1684 69.5833 0.0000 0.0000 0.0000
# 4 0.0000 0.0000 0.0000 11.8680 0.0000 0.0000
# 5 0.0000 0.0000 0.0000 0.0000 25.3325 0.0000
# 6 0.0000 0.0000 0.0000 0.0000 0.0000 18.5159
#
#
#
# Elastic Compliance Matrix: (Units=1/GPa)
#
#
# Indices 1 2 3 4 5 6 
#
# 1 0.012488 -0.003540 -0.004804 0.000000 0.000000 0.000000
# 2 -0.003540 0.024719 -0.002445 0.000000 0.000000 0.000000
# 3 -0.004804 -0.002445 0.016830 0.000000 0.000000 0.000000
# 4 0.000000 0.000000 0.000000 0.084260 0.000000 0.000000
# 5 0.000000 0.000000 0.000000 0.000000 0.039475 0.000000
# 6 0.000000 0.000000 0.000000 0.000000 0.000000 0.054008
#
#
# Mechanical properties :
#
#
# Convention : Reuss Voigt Hill
#
# Bulk Modulus (GPa) = 30.80695 36.17826 33.49260
# Shear Modulus (GPa) = 18.92658 21.27816 20.10237
#
# Velocity S-wave (km/s) = 3.21205 3.40575 3.31032
# Velocity P-wave (km/s) = 5.52719 5.93187 5.73310
#
# Compressibility (1/GPa) = 0.03246021
#
# Stress axis : x y z
#
# Youngs Moduli (GPa) = 80.07599 40.45397 59.41650
#
# Poissons Ratio (x) = 0.14321 0.28544
# Poissons Ratio (y) = 0.28348 0.14525
# Poissons Ratio (z) = 0.38470 0.09890
#
# Static dielectric constant tensor:
#      x y z
#    x 3.317290 0.000000 0.000000 
#    y 0.000000 3.084920 0.000000 
#    z 0.000000 0.000000 3.863340 
# 
# 
# High freq. dielectric constant tensor:
#      x y z
#    x 1.690330 0.000000 0.000000 
#    y 0.000000 1.684920 0.000000 
#    z 0.000000 0.000000 1.730690 
# 
# From -- ./inp_files/30332.got.cif
#   From: 2010.03.12/outbox.cif.g09.slc.cpg/sg63_16_cif.got.tgz:30332.got - 2010.04.10 19:34:48.
