data_PCOD8259739
_publ_section_title
;
Structure prediction by ZEFSAII (Michael W. Deem and Ramdas Pophale) SiO2 
 PCOD8259739
Probable space group: C M C M
;
_chemical_formula_sum "Si O2"
_cell_formula_units_Z 80
_cell_length_a 25.589361
_cell_length_b 9.094262
_cell_length_c 18.405419
_cell_angle_alpha 90.000000
_cell_angle_beta 90.000000
_cell_angle_gamma 90.000000
_cell_volume 4283.241991
_symmetry_space_group_name_H-M "C M C M"
_symmetry_group_IT_number 63
_symmetry_cell_setting 'orthorhombic'
loop_
_space_group_symop_operation_xyz
x,y,z
-x,-y,1/2+z
x,-y,-z
-x,y,1/2-z
-x,-y,-z
x,y,1/2-z
-x,y,z
x,-y,1/2+z
1/2+x,1/2+y,z
1/2-x,1/2-y,1/2+z
1/2+x,1/2-y,-z
1/2-x,1/2+y,1/2-z
1/2-x,1/2-y,-z
1/2+x,1/2+y,1/2-z
1/2-x,1/2+y,z
1/2+x,1/2-y,1/2+z
loop_
_atom_site_type_symbol
_atom_site_label
_atom_site_fract_x
_atom_site_fract_y
_atom_site_fract_z
Si Si1 0.000000 0.299608 0.835970
Si Si2 0.000000 0.415156 0.076842
Si Si3 0.693940 0.273856 0.666128
Si Si4 0.097094 0.863776 0.093852
Si Si5 0.595432 0.301593 0.573606
Si Si6 0.796434 0.116197 0.832573
O O1 0.948686 0.225824 0.868697
O O2 0.000000 0.281813 0.750000
O O3 0.000000 0.470159 0.857336
O O4 0.049254 0.310876 0.087273
O O5 0.000000 0.500000 0.000000
O O6 0.680795 0.232848 0.750000
O O7 0.645271 0.233863 0.614875
O O8 0.743468 0.184846 0.634962
O O9 0.708176 0.443254 0.658341
O O10 0.152300 0.821487 0.128776
O O11 0.082876 0.035787 0.104538
O O12 0.104659 0.815820 0.011479
O O13 0.801283 0.167406 0.750000
#
# Coordination Sequence:
#
# PCOD8259739 Si02
#       6
#     8   8  16  16  16  16
#     4  12  25  39  59  89 117 150 192 238 291 349
#     4  12  23  41  58  83 120 153 183 240 301 347
#     4   9  19  35  55  81 112 149 192 236 283 340
#     4  10  20  38  61  86 113 151 198 240 280 349
#     4  10  21  38  62  83 113 154 194 235 292 343
#     4   9  18  34  54  80 116 152 188 237 289 335
#
# _framework density 18.677441999999999
#
# number of rings (size 3 to 8) (size 9 to 14) (size 15 to 20)
#    0.000    2.000    2.000    1.200    0.000    5.600 
#    0.000    3.000    0.000    0.000    0.000    0.000 
#    0.000    0.000    0.000    0.000    0.000    0.000 
#
# Total GULP energy -496015.604608 kJ/mol
# GULP energy per Si atom -12400.390115 kJ/mol
# Density = 1.863493 g / cm^3
# Si number density = 18.677442 Si / 1000 Ang^3
#
#
#
# Elastic Constant Matrix: (Units=GPa)
#
#
# Indices 1 2 3 4 5 6 
#
# 1 198.7288 86.9219 75.9563 0.0000 0.0000 0.0000
# 2 86.9219 80.2679 39.9861 0.0000 0.0000 0.0000
# 3 75.9563 39.9861 83.7759 0.0000 0.0000 0.0000
# 4 0.0000 0.0000 0.0000 26.3882 0.0000 0.0000
# 5 0.0000 0.0000 0.0000 0.0000 34.6068 0.0000
# 6 0.0000 0.0000 0.0000 0.0000 0.0000 44.2308
#
#
#
# Elastic Compliance Matrix: (Units=1/GPa)
#
#
# Indices 1 2 3 4 5 6 
#
# 1 0.011376 -0.009421 -0.005818 0.000000 0.000000 0.000000
# 2 -0.009421 0.024147 -0.002983 0.000000 0.000000 0.000000
# 3 -0.005818 -0.002983 0.018635 0.000000 0.000000 0.000000
# 4 0.000000 0.000000 0.000000 0.037896 0.000000 0.000000
# 5 0.000000 0.000000 0.000000 0.000000 0.028896 0.000000
# 6 0.000000 0.000000 0.000000 0.000000 0.000000 0.022609
#
#
# Mechanical properties :
#
#
# Convention : Reuss Voigt Hill
#
# Bulk Modulus (GPa) = 56.45347 85.38900 70.92123
# Shear Modulus (GPa) = 26.89506 31.70572 29.30039
#
# Velocity S-wave (km/s) = 3.79882 4.12459 3.96505
# Velocity P-wave (km/s) = 7.03793 8.27647 7.68220
#
# Compressibility (1/GPa) = 0.01771370
#
# Stress axis : x y z
#
# Youngs Moduli (GPa) = 87.90175 41.41357 53.66185
#
# Poissons Ratio (x) = 0.39017 0.31219
# Poissons Ratio (y) = 0.82815 0.16009
# Poissons Ratio (z) = 0.51139 0.12355
#
# Static dielectric constant tensor:
#      x y z
#    x 3.640690 0.000000 0.000000 
#    y 0.000000 3.507080 0.000000 
#    z 0.000000 0.000000 3.505250 
# 
# 
# High freq. dielectric constant tensor:
#      x y z
#    x 1.737900 0.000000 0.000000 
#    y 0.000000 1.725370 0.000000 
#    z 0.000000 0.000000 1.723260 
# 
# From -- ./inp_files/48823.got.cif
#   From: 2010.03.12/outbox.cif.g09.slc.cpg/sg63_25_cif.got.tgz:48823.got - 2010.04.10 19:34:48.
