data_PCOD8259379
_publ_section_title
;
Structure prediction by ZEFSAII (Michael W. Deem and Ramdas Pophale) SiO2 
 PCOD8259379
Probable space group: C M C M
;
_chemical_formula_sum "Si O2"
_cell_formula_units_Z 80
_cell_length_a 8.632837
_cell_length_b 19.065746
_cell_length_c 25.722781
_cell_angle_alpha 90.000000
_cell_angle_beta 90.000000
_cell_angle_gamma 90.000000
_cell_volume 4233.750530
_symmetry_space_group_name_H-M "C M C M"
_symmetry_group_IT_number 63
_symmetry_cell_setting 'orthorhombic'
loop_
_space_group_symop_operation_xyz
x,y,z
-x,-y,1/2+z
x,-y,-z
-x,y,1/2-z
-x,-y,-z
x,y,1/2-z
-x,y,z
x,-y,1/2+z
1/2+x,1/2+y,z
1/2-x,1/2-y,1/2+z
1/2+x,1/2-y,-z
1/2-x,1/2+y,1/2-z
1/2-x,1/2-y,-z
1/2+x,1/2+y,1/2-z
1/2-x,1/2+y,z
1/2+x,1/2-y,1/2+z
loop_
_atom_site_type_symbol
_atom_site_label
_atom_site_fract_x
_atom_site_fract_y
_atom_site_fract_z
Si Si1 0.822070 0.011668 0.611206
Si Si2 0.180742 0.870390 0.309549
Si Si3 0.179093 0.626592 0.421462
Si Si4 0.679106 0.632811 0.966652
Si Si5 0.319789 0.235394 0.887275
O O1 0.781213 0.055922 0.662768
O O2 0.786665 0.058449 0.560403
O O3 0.000000 0.987087 0.611610
O O4 0.713053 0.943932 0.610748
O O5 0.232234 0.876466 0.250000
O O6 0.275911 0.808075 0.336063
O O7 0.000000 0.852832 0.315969
O O8 0.281207 0.626868 0.473296
O O9 0.225465 0.692126 0.385700
O O10 0.000000 0.630054 0.436529
O O11 0.500000 0.653368 0.959409
O O12 0.779702 0.693470 0.939885
O O13 0.500000 0.252748 0.886770
#
# Coordination Sequence:
#
# PCOD8259379 Si02
#       5
#    16  16  16  16  16
#     4   9  19  35  55  80 109 142 178 217 265 321
#     4   9  19  39  64  84 105 136 174 219 272 326
#     4  12  23  34  51  78 113 148 182 223 267 311
#     4  10  20  36  56  78 109 147 183 219 264 320
#     4  11  22  36  55  80 110 143 182 223 264 317
#
# _framework density 18.895776000000001
#
# number of rings (size 3 to 8) (size 9 to 14) (size 15 to 20)
#    0.000    1.800    0.000    6.600    0.000    6.800 
#    0.000    1.000    0.000    3.600    0.000    0.000 
#    0.000    0.000    0.000    0.000    0.000    0.000 
#
# Total GULP energy -496216.762342 kJ/mol
# GULP energy per Si atom -12405.419059 kJ/mol
# Density = 1.885277 g / cm^3
# Si number density = 18.895776 Si / 1000 Ang^3
#
#
#
# Elastic Constant Matrix: (Units=GPa)
#
#
# Indices 1 2 3 4 5 6 
#
# 1 68.8316 37.5755 18.1993 0.0000 0.0000 0.0000
# 2 37.5755 121.7286 40.9811 0.0000 0.0000 0.0000
# 3 18.1993 40.9811 107.8852 0.0000 0.0000 0.0000
# 4 0.0000 0.0000 0.0000 10.1288 0.0000 0.0000
# 5 0.0000 0.0000 0.0000 0.0000 24.7001 0.0000
# 6 0.0000 0.0000 0.0000 0.0000 0.0000 34.6438
#
#
#
# Elastic Compliance Matrix: (Units=1/GPa)
#
#
# Indices 1 2 3 4 5 6 
#
# 1 0.017573 -0.005076 -0.001036 0.000000 0.000000 0.000000
# 2 -0.005076 0.010886 -0.003279 0.000000 0.000000 0.000000
# 3 -0.001036 -0.003279 0.010689 0.000000 0.000000 0.000000
# 4 0.000000 0.000000 0.000000 0.098728 0.000000 0.000000
# 5 0.000000 0.000000 0.000000 0.000000 0.040486 0.000000
# 6 0.000000 0.000000 0.000000 0.000000 0.000000 0.028865
#
#
# Mechanical properties :
#
#
# Convention : Reuss Voigt Hill
#
# Bulk Modulus (GPa) = 49.10026 54.66191 51.88109
# Shear Modulus (GPa) = 21.47790 27.34051 24.40920
#
# Velocity S-wave (km/s) = 3.37508 3.80796 3.59803
# Velocity P-wave (km/s) = 6.42102 6.95161 6.69158
#
# Compressibility (1/GPa) = 0.02036649
#
# Stress axis : x y z
#
# Youngs Moduli (GPa) = 56.90538 91.86475 93.55045
#
# Poissons Ratio (x) = 0.46627 0.09696
# Poissons Ratio (y) = 0.28883 0.30673
# Poissons Ratio (z) = 0.05898 0.30120
#
# Static dielectric constant tensor:
#      x y z
#    x 3.386120 0.000000 0.000000 
#    y 0.000000 3.536090 0.000000 
#    z 0.000000 0.000000 3.331460 
# 
# 
# High freq. dielectric constant tensor:
#      x y z
#    x 1.736660 0.000000 0.000000 
#    y 0.000000 1.738990 0.000000 
#    z 0.000000 0.000000 1.715980 
# 
# From -- ./inp_files/66556.got.cif
#   From: 2010.03.12/outbox.cif.g09.slc.cpg/sg63_34_cif.got.tgz:66556.got - 2010.04.10 19:34:48.
