data_PCOD8259147
_publ_section_title
;
Structure prediction by ZEFSAII (Michael W. Deem and Ramdas Pophale) SiO2 
 PCOD8259147
Probable space group: C M C M
;
_chemical_formula_sum "Si O2"
_cell_formula_units_Z 96
_cell_length_a 9.106267
_cell_length_b 25.110829
_cell_length_c 23.170256
_cell_angle_alpha 90.000000
_cell_angle_beta 90.000000
_cell_angle_gamma 90.000000
_cell_volume 5298.247753
_symmetry_space_group_name_H-M "C M C M"
_symmetry_group_IT_number 63
_symmetry_cell_setting 'orthorhombic'
loop_
_space_group_symop_operation_xyz
x,y,z
-x,-y,1/2+z
x,-y,-z
-x,y,1/2-z
-x,-y,-z
x,y,1/2-z
-x,y,z
x,-y,1/2+z
1/2+x,1/2+y,z
1/2-x,1/2-y,1/2+z
1/2+x,1/2-y,-z
1/2-x,1/2+y,1/2-z
1/2-x,1/2-y,-z
1/2+x,1/2+y,1/2-z
1/2-x,1/2+y,z
1/2+x,1/2-y,1/2+z
loop_
_atom_site_type_symbol
_atom_site_label
_atom_site_fract_x
_atom_site_fract_y
_atom_site_fract_z
Si Si1 0.830635 0.003054 0.683210
Si Si2 0.826090 0.402821 0.122553
Si Si3 0.830415 0.099915 0.384016
Si Si4 0.669622 0.439234 0.009691
Si Si5 0.171930 0.688132 0.185383
Si Si6 0.330662 0.689653 0.683296
O O1 0.810701 0.989776 0.750000
O O2 0.736083 0.054234 0.667301
O O3 0.000000 0.014821 0.667254
O O4 0.769598 0.952877 0.647422
O O5 0.769393 0.413219 0.058317
O O6 0.773738 0.344836 0.142624
O O7 0.000000 0.405185 0.122901
O O8 0.804357 0.094809 0.452106
O O9 0.748317 0.151943 0.362150
O O10 0.000000 0.106579 0.368297
O O11 0.500000 0.437770 0.029323
O O12 0.718914 0.500000 0.000000
O O13 0.228953 0.674406 0.250000
O O14 0.208246 0.749126 0.170631
O O15 0.000000 0.677825 0.182315
O O16 0.300528 0.675757 0.750000
O O17 0.500000 0.677620 0.668241
#
# Coordination Sequence:
#
# PCOD8259147 Si02
#       6
#    16  16  16  16  16  16
#     4  10  20  35  55  79 110 147 184 221 268 332
#     4  12  24  35  53  83 115 142 180 233 284 326
#     4  10  20  35  58  84 107 140 187 231 269 319
#     4  10  20  39  61  77 104 149 194 228 267 326
#     4   9  19  36  58  84 114 147 180 221 277 333
#     4   9  19  38  61  81 107 149 192 223 265 331
#
# _framework density 18.119198000000001
#
# number of rings (size 3 to 8) (size 9 to 14) (size 15 to 20)
#    0.000    2.000    1.667    3.500    0.000    6.000 
#    0.000    2.500    0.000    0.000    0.000    0.000 
#    0.000    0.000    0.000    0.000    0.000    0.000 
#
# Total GULP energy -595377.545505 kJ/mol
# GULP energy per Si atom -12403.698865 kJ/mol
# Density = 1.807796 g / cm^3
# Si number density = 18.119198 Si / 1000 Ang^3
#
#
#
# Elastic Constant Matrix: (Units=GPa)
#
#
# Indices 1 2 3 4 5 6 
#
# 1 83.9980 54.4124 45.2647 0.0000 0.0000 0.0000
# 2 54.4124 107.4050 50.2824 0.0000 0.0000 0.0000
# 3 45.2647 50.2824 90.9236 0.0000 0.0000 0.0000
# 4 0.0000 0.0000 0.0000 26.1261 0.0000 0.0000
# 5 0.0000 0.0000 0.0000 0.0000 26.1808 0.0000
# 6 0.0000 0.0000 0.0000 0.0000 0.0000 30.8728
#
#
#
# Elastic Compliance Matrix: (Units=1/GPa)
#
#
# Indices 1 2 3 4 5 6 
#
# 1 0.019755 -0.007292 -0.005802 0.000000 0.000000 0.000000
# 2 -0.007292 0.015255 -0.004806 0.000000 0.000000 0.000000
# 3 -0.005802 -0.004806 0.016545 0.000000 0.000000 0.000000
# 4 0.000000 0.000000 0.000000 0.038276 0.000000 0.000000
# 5 0.000000 0.000000 0.000000 0.000000 0.038196 0.000000
# 6 0.000000 0.000000 0.000000 0.000000 0.000000 0.032391
#
#
# Mechanical properties :
#
#
# Convention : Reuss Voigt Hill
#
# Bulk Modulus (GPa) = 63.47472 64.69394 64.08433
# Shear Modulus (GPa) = 24.81772 25.46041 25.13906
#
# Velocity S-wave (km/s) = 3.70495 3.75262 3.72886
# Velocity P-wave (km/s) = 7.30821 7.38636 7.34739
#
# Compressibility (1/GPa) = 0.01575430
#
# Stress axis : x y z
#
# Youngs Moduli (GPa) = 50.61930 65.55396 60.44267
#
# Poissons Ratio (x) = 0.47801 0.35071
# Poissons Ratio (y) = 0.36911 0.29048
# Poissons Ratio (z) = 0.29371 0.31505
#
# Static dielectric constant tensor:
#      x y z
#    x 3.189990 0.000000 0.000000 
#    y 0.000000 3.336080 0.000000 
#    z 0.000000 0.000000 3.337150 
# 
# 
# High freq. dielectric constant tensor:
#      x y z
#    x 1.689110 0.000000 0.000000 
#    y 0.000000 1.703510 0.000000 
#    z 0.000000 0.000000 1.705840 
# 
# From -- ./inp_files/60178.got.cif
#   From: 2010.03.12/outbox.cif.g09.slc.cpg/sg63_31_cif.got.tgz:60178.got - 2010.04.10 19:34:48.
