data_PCOD8259057
_publ_section_title
;
Structure prediction by ZEFSAII (Michael W. Deem and Ramdas Pophale) SiO2 
 PCOD8259057
Probable space group: C M C M
;
_chemical_formula_sum "Si O2"
_cell_formula_units_Z 96
_cell_length_a 19.320755
_cell_length_b 11.586574
_cell_length_c 22.100135
_cell_angle_alpha 90.000000
_cell_angle_beta 90.000000
_cell_angle_gamma 90.000000
_cell_volume 4947.366223
_symmetry_space_group_name_H-M "C M C M"
_symmetry_group_IT_number 63
_symmetry_cell_setting 'orthorhombic'
loop_
_space_group_symop_operation_xyz
x,y,z
-x,-y,1/2+z
x,-y,-z
-x,y,1/2-z
-x,-y,-z
x,y,1/2-z
-x,y,z
x,-y,1/2+z
1/2+x,1/2+y,z
1/2-x,1/2-y,1/2+z
1/2+x,1/2-y,-z
1/2-x,1/2+y,1/2-z
1/2-x,1/2-y,-z
1/2+x,1/2+y,1/2-z
1/2-x,1/2+y,z
1/2+x,1/2-y,1/2+z
loop_
_atom_site_type_symbol
_atom_site_label
_atom_site_fract_x
_atom_site_fract_y
_atom_site_fract_z
Si Si1 0.420986 0.841214 0.819488
Si Si2 0.664763 0.939963 0.318276
Si Si3 0.419395 0.401963 0.122413
Si Si4 0.202684 0.257019 0.405868
Si Si5 0.193558 0.053187 0.182510
Si Si6 0.178720 0.122038 0.521464
O O1 0.404985 0.814575 0.750000
O O2 0.500000 0.878049 0.830111
O O3 0.402259 0.725780 0.854668
O O4 0.373730 0.946094 0.842532
O O5 0.638423 0.907797 0.250000
O O6 0.650789 0.839941 0.367836
O O7 0.747321 0.956221 0.316346
O O8 0.500000 0.432515 0.127477
O O9 0.378326 0.497963 0.160565
O O10 0.394835 0.405285 0.052738
O O11 0.221884 0.153056 0.361202
O O12 0.164626 0.207758 0.465500
O O13 0.271217 0.323224 0.427978
O O14 0.182436 0.103863 0.250000
O O15 0.211787 0.000000 0.500000
#
# Coordination Sequence:
#
# PCOD8259057 Si02
#       6
#    16  16  16  16  16  16
#     4   9  19  37  60  86 117 157 198 238 292 355
#     4  10  20  34  59  89 120 153 191 247 300 357
#     4  11  22  39  61  86 120 159 206 251 295 350
#     4  11  21  38  60  86 120 152 199 245 304 353
#     4  11  22  37  59  90 123 153 198 248 302 359
#     4  11  22  39  60  85 117 162 202 245 293 356
#
# _framework density 19.404263
#
# number of rings (size 3 to 8) (size 9 to 14) (size 15 to 20)
#    0.000    1.500    3.333    2.000    0.000    2.667 
#    0.000    1.667    0.000    4.000    0.000    0.000 
#    0.000    0.000    0.000    0.000    0.000    0.000 
#
# Total GULP energy -595125.453775 kJ/mol
# GULP energy per Si atom -12398.446954 kJ/mol
# Density = 1.936010 g / cm^3
# Si number density = 19.404263 Si / 1000 Ang^3
#
#
#
# Elastic Constant Matrix: (Units=GPa)
#
#
# Indices 1 2 3 4 5 6 
#
# 1 76.4638 39.4033 35.3186 0.0000 0.0000 0.0000
# 2 39.4033 98.8931 57.7691 0.0000 0.0000 0.0000
# 3 35.3186 57.7691 129.8825 0.0000 0.0000 0.0000
# 4 0.0000 0.0000 0.0000 43.8375 0.0000 0.0000
# 5 0.0000 0.0000 0.0000 0.0000 11.6573 0.0000
# 6 0.0000 0.0000 0.0000 0.0000 0.0000 28.5419
#
#
#
# Elastic Compliance Matrix: (Units=1/GPa)
#
#
# Indices 1 2 3 4 5 6 
#
# 1 0.016895 -0.005469 -0.002162 0.000000 0.000000 0.000000
# 2 -0.005469 0.015432 -0.005377 0.000000 0.000000 0.000000
# 3 -0.002162 -0.005377 0.010678 0.000000 0.000000 0.000000
# 4 0.000000 0.000000 0.000000 0.022812 0.000000 0.000000
# 5 0.000000 0.000000 0.000000 0.000000 0.085783 0.000000
# 6 0.000000 0.000000 0.000000 0.000000 0.000000 0.035036
#
#
# Mechanical properties :
#
#
# Convention : Reuss Voigt Hill
#
# Bulk Modulus (GPa) = 58.85572 63.35793 61.10682
# Shear Modulus (GPa) = 22.90284 28.32390 25.61337
#
# Velocity S-wave (km/s) = 3.43928 3.82471 3.63710
# Velocity P-wave (km/s) = 6.79475 7.22683 7.01412
#
# Compressibility (1/GPa) = 0.01699070
#
# Stress axis : x y z
#
# Youngs Moduli (GPa) = 59.18989 64.80158 93.64615
#
# Poissons Ratio (x) = 0.35439 0.20244
# Poissons Ratio (y) = 0.32370 0.50350
# Poissons Ratio (z) = 0.12795 0.34841
#
# Static dielectric constant tensor:
#      x y z
#    x 3.262590 0.000000 0.000000 
#    y 0.000000 3.629670 0.000000 
#    z 0.000000 0.000000 3.786120 
# 
# 
# High freq. dielectric constant tensor:
#      x y z
#    x 1.724590 0.000000 0.000000 
#    y 0.000000 1.758600 0.000000 
#    z 0.000000 0.000000 1.769100 
# 
# From -- ./inp_files/63697.got.cif
#   From: 2010.03.12/outbox.cif.g09.slc.cpg/sg63_32_cif.got.tgz:63697.got - 2010.04.10 19:34:48.
