data_PCOD8259244
_publ_section_title
;
Structure prediction by ZEFSAII (Michael W. Deem and Ramdas Pophale) SiO2 
 PCOD8259244
Probable space group: C M C M
;
_chemical_formula_sum "Si O2"
_cell_formula_units_Z 96
_cell_length_a 8.864471
_cell_length_b 30.090727
_cell_length_c 19.051413
_cell_angle_alpha 90.000000
_cell_angle_beta 90.000000
_cell_angle_gamma 90.000000
_cell_volume 5081.742981
_symmetry_space_group_name_H-M "C M C M"
_symmetry_group_IT_number 63
_symmetry_cell_setting 'orthorhombic'
loop_
_space_group_symop_operation_xyz
x,y,z
-x,-y,1/2+z
x,-y,-z
-x,y,1/2-z
-x,-y,-z
x,y,1/2-z
-x,y,z
x,-y,1/2+z
1/2+x,1/2+y,z
1/2-x,1/2-y,1/2+z
1/2+x,1/2-y,-z
1/2-x,1/2+y,1/2-z
1/2-x,1/2-y,-z
1/2+x,1/2+y,1/2-z
1/2-x,1/2+y,z
1/2+x,1/2-y,1/2+z
loop_
_atom_site_type_symbol
_atom_site_label
_atom_site_fract_x
_atom_site_fract_y
_atom_site_fract_z
Si Si1 0.321350 0.266282 0.071893
Si Si2 0.174139 0.932810 0.168251
Si Si3 0.679029 0.187627 0.171501
Si Si4 0.176504 0.016054 0.075409
Si Si5 0.678532 0.891647 0.925036
Si Si6 0.322313 0.140057 0.922403
O O1 0.500000 0.267051 0.062779
O O2 0.270319 0.232711 0.133162
O O3 0.261907 0.314258 0.093922
O O4 0.250000 0.250000 0.000000
O O5 0.207013 0.937616 0.250000
O O6 0.218415 0.979353 0.132909
O O7 0.279196 0.894174 0.138369
O O8 0.000000 0.921023 0.152577
O O9 0.747457 0.187138 0.250000
O O10 0.500000 0.185012 0.174313
O O11 0.741809 0.145335 0.128551
O O12 0.000000 0.025573 0.071149
O O13 0.256775 0.061193 0.098505
O O14 0.238426 0.000000 0.000000
O O15 0.500000 0.894017 0.922537
O O16 0.733902 0.879190 0.003141
O O17 0.500000 0.148795 0.922731
#
# Coordination Sequence:
#
# PCOD8259244 Si02
#       6
#    16  16  16  16  16  16
#     4  11  21  36  60  88 116 153 197 239 286 341
#     4  10  22  40  59  82 115 154 193 235 289 350
#     4   9  19  37  58  82 114 149 186 229 279 338
#     4  10  20  35  57  84 111 145 189 233 281 337
#     4  10  20  35  57  85 113 146 189 234 280 338
#     4  11  22  37  58  87 117 148 193 242 290 342
#
# _framework density 18.891155999999999
#
# number of rings (size 3 to 8) (size 9 to 14) (size 15 to 20)
#    0.000    1.833    3.333    1.000    0.000    3.333 
#    0.000    1.667    0.000    3.500    0.000    0.000 
#    0.000    0.000    0.000    0.000    0.000    0.000 
#
# Total GULP energy -595394.275954 kJ/mol
# GULP energy per Si atom -12404.047416 kJ/mol
# Density = 1.884816 g / cm^3
# Si number density = 18.891156 Si / 1000 Ang^3
#
#
#
# Elastic Constant Matrix: (Units=GPa)
#
#
# Indices 1 2 3 4 5 6 
#
# 1 45.6312 43.4051 32.9047 0.0000 0.0000 0.0000
# 2 43.4051 170.5819 76.4181 0.0000 0.0000 0.0000
# 3 32.9047 76.4181 149.4963 0.0000 0.0000 0.0000
# 4 0.0000 0.0000 0.0000 35.2717 0.0000 0.0000
# 5 0.0000 0.0000 0.0000 0.0000 23.4788 0.0000
# 6 0.0000 0.0000 0.0000 0.0000 0.0000 37.6389
#
#
#
# Elastic Compliance Matrix: (Units=1/GPa)
#
#
# Indices 1 2 3 4 5 6 
#
# 1 0.030289 -0.006123 -0.003537 0.000000 0.000000 0.000000
# 2 -0.006123 0.008841 -0.003172 0.000000 0.000000 0.000000
# 3 -0.003537 -0.003172 0.009089 0.000000 0.000000 0.000000
# 4 0.000000 0.000000 0.000000 0.028351 0.000000 0.000000
# 5 0.000000 0.000000 0.000000 0.000000 0.042592 0.000000
# 6 0.000000 0.000000 0.000000 0.000000 0.000000 0.026568
#
#
# Mechanical properties :
#
#
# Convention : Reuss Voigt Hill
#
# Bulk Modulus (GPa) = 44.33301 74.57390 59.45346
# Shear Modulus (GPa) = 27.94666 33.47666 30.71166
#
# Velocity S-wave (km/s) = 3.85041 4.21418 4.03639
# Velocity P-wave (km/s) = 6.57921 7.95238 7.29816
#
# Compressibility (1/GPa) = 0.02255656
#
# Stress axis : x y z
#
# Youngs Moduli (GPa) = 33.01483 113.10835 110.02402
#
# Poissons Ratio (x) = 0.69253 0.38916
# Poissons Ratio (y) = 0.20214 0.34896
# Poissons Ratio (z) = 0.11678 0.35874
#
# Static dielectric constant tensor:
#      x y z
#    x 3.319790 0.000000 0.000000 
#    y 0.000000 3.678720 0.000000 
#    z 0.000000 0.000000 3.626060 
# 
# 
# High freq. dielectric constant tensor:
#      x y z
#    x 1.714710 0.000000 0.000000 
#    y 0.000000 1.749470 0.000000 
#    z 0.000000 0.000000 1.735050 
# 
# From -- ./inp_files/51254.got.cif
#   From: 2010.03.12/outbox.cif.g09.slc.cpg/sg63_26_cif.got.tgz:51254.got - 2010.04.10 19:34:48.
