data_PCOD8259578
_publ_section_title
;
Structure prediction by ZEFSAII (Michael W. Deem and Ramdas Pophale) SiO2 
 PCOD8259578
Probable space group: C M C M
;
_chemical_formula_sum "Si O2"
_cell_formula_units_Z 68
_cell_length_a 7.550471
_cell_length_b 25.585438
_cell_length_c 16.826994
_cell_angle_alpha 90.000000
_cell_angle_beta 90.000000
_cell_angle_gamma 90.000000
_cell_volume 3250.674166
_symmetry_space_group_name_H-M "C M C M"
_symmetry_group_IT_number 63
_symmetry_cell_setting 'orthorhombic'
loop_
_space_group_symop_operation_xyz
x,y,z
-x,-y,1/2+z
x,-y,-z
-x,y,1/2-z
-x,-y,-z
x,y,1/2-z
-x,y,z
x,-y,1/2+z
1/2+x,1/2+y,z
1/2-x,1/2-y,1/2+z
1/2+x,1/2-y,-z
1/2-x,1/2+y,1/2-z
1/2-x,1/2-y,-z
1/2+x,1/2+y,1/2-z
1/2-x,1/2+y,z
1/2+x,1/2-y,1/2+z
loop_
_atom_site_type_symbol
_atom_site_label
_atom_site_fract_x
_atom_site_fract_y
_atom_site_fract_z
Si Si1 0.209886 0.395458 0.750000
Si Si2 0.000000 0.963074 0.078485
Si Si3 0.211092 0.622644 0.560917
Si Si4 0.797879 0.717477 0.836481
Si Si5 0.500000 0.519248 0.250000
Si Si6 0.793430 0.326189 0.896591
O O1 0.317588 0.448798 0.750000
O O2 0.273141 0.362124 0.674837
O O3 0.000000 0.408046 0.750000
O O4 0.818798 0.930106 0.075068
O O5 0.000000 0.988445 0.166261
O O6 0.000000 0.000000 0.000000
O O7 0.283084 0.666120 0.622526
O O8 0.266506 0.645194 0.475796
O O9 0.000000 0.611262 0.566362
O O10 0.706341 0.726986 0.750000
O O11 0.786694 0.768289 0.891970
O O12 0.000000 0.703735 0.823572
O O13 0.000000 0.318144 0.892099
#
# Coordination Sequence:
#
# PCOD8259578 Si02
#       6
#     8   8  16  16   4  16
#     4  10  22  40  63  95 129 161 214 280 324 383
#     4  12  28  48  70 100 122 178 234 282 336 376
#     4  10  24  43  64  91 134 171 215 271 327 392
#     4  10  21  35  58  94 132 174 210 253 326 398
#     4  12  28  44  70  98 122 170 236 276 344 386
#     4  10  20  36  61  95 128 175 211 254 327 393
#
# _framework density 20.918735999999999
#
# number of rings (size 3 to 8) (size 9 to 14) (size 15 to 20)
#    0.000    1.647    1.176    2.118    6.588    1.412 
#    0.000    0.000    0.000    0.000    0.000    0.000 
#    0.000    0.000    0.000    0.000    0.000    0.000 
#
# Total GULP energy -421441.352684 kJ/mol
# GULP energy per Si atom -12395.333902 kJ/mol
# Density = 2.087112 g / cm^3
# Si number density = 20.918736 Si / 1000 Ang^3
#
#
#
# Elastic Constant Matrix: (Units=GPa)
#
#
# Indices 1 2 3 4 5 6 
#
# 1 68.7871 52.9564 31.3691 0.0000 0.0000 0.0000
# 2 52.9564 156.7556 74.7839 0.0000 0.0000 0.0000
# 3 31.3691 74.7839 144.2954 0.0000 0.0000 0.0000
# 4 0.0000 0.0000 0.0000 -124.0431 0.0000 0.0000
# 5 0.0000 0.0000 0.0000 0.0000 -50.5247 0.0000
# 6 0.0000 0.0000 0.0000 0.0000 0.0000 43.9468
#
#
#
# Elastic Compliance Matrix: (Units=1/GPa)
#
#
# Indices 1 2 3 4 5 6 
#
# 1 0.019781 -0.006152 -0.001112 0.000000 0.000000 0.000000
# 2 -0.006152 0.010388 -0.004046 0.000000 0.000000 0.000000
# 3 -0.001112 -0.004046 0.009269 0.000000 0.000000 0.000000
# 4 0.000000 0.000000 0.000000 -0.008062 0.000000 0.000000
# 5 0.000000 0.000000 0.000000 0.000000 -0.019792 0.000000
# 6 0.000000 0.000000 0.000000 0.000000 0.000000 0.022755
#
#
# Mechanical properties :
#
#
# Convention : Reuss Voigt Hill
#
# Bulk Modulus (GPa) = 59.46218 76.45078 67.95648
# Shear Modulus (GPa) = 79.91632 -12.07562 33.92035
#
# Velocity S-wave (km/s) = 6.18758 -2.40524 4.03119
# Velocity P-wave (km/s) = 8.91825 5.37702 7.36368
#
# Compressibility (1/GPa) = 0.01681741
#
# Stress axis : x y z
#
# Youngs Moduli (GPa) = 50.55378 96.26350 107.88564
#
# Poissons Ratio (x) = 0.59222 0.11995
# Poissons Ratio (y) = 0.31101 0.43655
# Poissons Ratio (z) = 0.05621 0.38952
#
# Static dielectric constant tensor:
#      x y z
#    x 3.826850 0.000000 0.000000 
#    y 0.000000 3.696670 0.000000 
#    z 0.000000 0.000000 4.836840 
# 
# 
# High freq. dielectric constant tensor:
#      x y z
#    x 1.819120 0.000000 0.000000 
#    y 0.000000 1.813680 0.000000 
#    z 0.000000 0.000000 1.839250 
# 
# From -- ./inp_files/39997.got.cif
#   From: 2010.03.12/outbox.cif.g09.slc.cpg/sg63_20_cif.got.tgz:39997.got - 2010.04.10 19:34:48.
