data_PCOD8259810
_publ_section_title
;
Structure prediction by ZEFSAII (Michael W. Deem and Ramdas Pophale) SiO2 
 PCOD8259810
Probable space group: C M C M
;
_chemical_formula_sum "Si O2"
_cell_formula_units_Z 80
_cell_length_a 15.279414
_cell_length_b 11.801042
_cell_length_c 23.519643
_cell_angle_alpha 90.000000
_cell_angle_beta 90.000000
_cell_angle_gamma 90.000000
_cell_volume 4240.897538
_symmetry_space_group_name_H-M "C M C M"
_symmetry_group_IT_number 63
_symmetry_cell_setting 'orthorhombic'
loop_
_space_group_symop_operation_xyz
x,y,z
-x,-y,1/2+z
x,-y,-z
-x,y,1/2-z
-x,-y,-z
x,y,1/2-z
-x,y,z
x,-y,1/2+z
1/2+x,1/2+y,z
1/2-x,1/2-y,1/2+z
1/2+x,1/2-y,-z
1/2-x,1/2+y,1/2-z
1/2-x,1/2-y,-z
1/2+x,1/2+y,1/2-z
1/2-x,1/2+y,z
1/2+x,1/2-y,1/2+z
loop_
_atom_site_type_symbol
_atom_site_label
_atom_site_fract_x
_atom_site_fract_y
_atom_site_fract_z
Si Si1 0.151628 0.894076 0.128735
Si Si2 0.500000 0.749181 0.817182
Si Si3 0.500000 0.005390 0.682574
Si Si4 0.596667 0.632009 0.509642
Si Si5 0.333776 0.148874 0.682492
Si Si6 0.101278 0.150344 0.385577
O O1 0.159230 0.845550 0.063879
O O2 0.245392 0.902632 0.157664
O O3 0.087969 0.812653 0.163533
O O4 0.112224 0.019240 0.129148
O O5 0.500000 0.752331 0.750000
O O6 0.500000 0.877636 0.841513
O O7 0.500000 0.005535 0.750000
O O8 0.413321 0.070172 0.660759
O O9 0.585250 0.500000 0.500000
O O10 0.500000 0.682572 0.523667
O O11 0.633549 0.681801 0.450016
O O12 0.328533 0.154863 0.750000
O O13 0.344099 0.276025 0.659035
O O14 0.000000 0.181801 0.379540
#
# Coordination Sequence:
#
# PCOD8259810 Si02
#       6
#    16   8   8  16  16  16
#     4  11  21  37  60  91 117 148 192 242 287 347
#     4  11  22  37  57  83 119 159 187 230 295 351
#     4   9  22  43  56  71 114 163 193 227 286 346
#     4   8  15  33  60  86 115 147 184 236 299 341
#     4  11  24  39  58  84 117 156 194 238 290 342
#     4  10  20  39  65  88 112 150 198 246 286 337
#
# _framework density 18.863931000000001
#
# number of rings (size 3 to 8) (size 9 to 14) (size 15 to 20)
#    0.000    2.000    3.000    1.800    2.800    2.400 
#    0.000    0.000    0.000    1.200    0.000    0.000 
#    0.000    0.000    0.000    0.000    0.000    0.000 
#
# Total GULP energy -495834.652414 kJ/mol
# GULP energy per Si atom -12395.866310 kJ/mol
# Density = 1.882100 g / cm^3
# Si number density = 18.863931 Si / 1000 Ang^3
#
#
#
# Elastic Constant Matrix: (Units=GPa)
#
#
# Indices 1 2 3 4 5 6 
#
# 1 106.2745 27.6808 48.6157 0.0000 0.0000 0.0000
# 2 27.6808 80.2817 37.2227 0.0000 0.0000 0.0000
# 3 48.6157 37.2227 117.8414 0.0000 0.0000 0.0000
# 4 0.0000 0.0000 0.0000 21.3493 0.0000 0.0000
# 5 0.0000 0.0000 0.0000 0.0000 27.6915 0.0000
# 6 0.0000 0.0000 0.0000 0.0000 0.0000 14.2078
#
#
#
# Elastic Compliance Matrix: (Units=1/GPa)
#
#
# Indices 1 2 3 4 5 6 
#
# 1 0.011905 -0.002141 -0.004235 0.000000 0.000000 0.000000
# 2 -0.002141 0.014978 -0.003848 0.000000 0.000000 0.000000
# 3 -0.004235 -0.003848 0.011449 0.000000 0.000000 0.000000
# 4 0.000000 0.000000 0.000000 0.046840 0.000000 0.000000
# 5 0.000000 0.000000 0.000000 0.000000 0.036112 0.000000
# 6 0.000000 0.000000 0.000000 0.000000 0.000000 0.070384
#
#
# Mechanical properties :
#
#
# Convention : Reuss Voigt Hill
#
# Bulk Modulus (GPa) = 55.91707 59.04844 57.48275
# Shear Modulus (GPa) = 22.92768 25.37494 24.15131
#
# Velocity S-wave (km/s) = 3.49008 3.67162 3.58200
# Velocity P-wave (km/s) = 6.77846 7.02457 6.90261
#
# Compressibility (1/GPa) = 0.01788363
#
# Stress axis : x y z
#
# Youngs Moduli (GPa) = 84.00131 66.76237 87.34708
#
# Poissons Ratio (x) = 0.14295 0.36991
# Poissons Ratio (y) = 0.17986 0.33611
# Poissons Ratio (z) = 0.35574 0.25690
#
# Static dielectric constant tensor:
#      x y z
#    x 3.378940 0.000000 0.000000 
#    y 0.000000 3.323380 0.000000 
#    z 0.000000 0.000000 3.788390 
# 
# 
# High freq. dielectric constant tensor:
#      x y z
#    x 1.725680 0.000000 0.000000 
#    y 0.000000 1.716820 0.000000 
#    z 0.000000 0.000000 1.740200 
# 
# From -- ./inp_files/62597.got.cif
#   From: 2010.03.12/outbox.cif.g09.slc.cpg/sg63_32_cif.got.tgz:62597.got - 2010.04.10 19:34:48.
