data_PCOD8259020
_publ_section_title
;
Structure prediction by ZEFSAII (Michael W. Deem and Ramdas Pophale) SiO2 
 PCOD8259020
Probable space group: C M C M
;
_chemical_formula_sum "Si O2"
_cell_formula_units_Z 104
_cell_length_a 20.163332
_cell_length_b 29.064788
_cell_length_c 8.619467
_cell_angle_alpha 90.000000
_cell_angle_beta 90.000000
_cell_angle_gamma 90.000000
_cell_volume 5051.378040
_symmetry_space_group_name_H-M "C M C M"
_symmetry_group_IT_number 63
_symmetry_cell_setting 'orthorhombic'
loop_
_space_group_symop_operation_xyz
x,y,z
-x,-y,1/2+z
x,-y,-z
-x,y,1/2-z
-x,-y,-z
x,y,1/2-z
-x,y,z
x,-y,1/2+z
1/2+x,1/2+y,z
1/2-x,1/2-y,1/2+z
1/2+x,1/2-y,-z
1/2-x,1/2+y,1/2-z
1/2-x,1/2-y,-z
1/2+x,1/2+y,1/2-z
1/2-x,1/2+y,z
1/2+x,1/2-y,1/2+z
loop_
_atom_site_type_symbol
_atom_site_label
_atom_site_fract_x
_atom_site_fract_y
_atom_site_fract_z
Si Si1 0.324600 0.707178 0.069358
Si Si2 0.117470 0.950896 0.932884
Si Si3 0.741807 0.953423 0.429198
Si Si4 0.074317 0.860743 0.426787
Si Si5 0.617574 0.108962 0.927314
Si Si6 0.325223 0.803289 0.568987
Si Si7 0.500000 0.948830 0.931212
O O1 0.323542 0.719763 0.250000
O O2 0.251442 0.690528 0.015817
O O3 0.376746 0.667257 0.037105
O O4 0.347932 0.751912 0.974474
O O5 0.106448 0.949792 0.750000
O O6 0.193740 0.939700 0.973168
O O7 0.071926 0.913044 0.014471
O O8 0.095812 0.000000 0.000000
O O9 0.761557 0.961477 0.250000
O O10 0.689344 0.913277 0.449136
O O11 0.710603 0.000000 0.500000
O O12 0.100161 0.858509 0.250000
O O13 0.000000 0.840590 0.439008
O O14 0.593980 0.108752 0.750000
O O15 0.625400 0.161257 0.984350
O O16 0.564516 0.080113 0.023168
O O17 0.333807 0.811663 0.750000
O O18 0.500000 0.955906 0.750000
O O19 0.500000 0.000000 0.000000
#
# Coordination Sequence:
#
# PCOD8259020 Si02
#       7
#    16  16  16  16  16  16   8
#     4  10  21  39  64  93 123 156 196 246 300 357
#     4  11  22  37  59  86 118 154 195 244 293 346
#     4  10  20  34  56  85 117 152 192 242 295 349
#     4  11  24  41  60  84 117 157 198 240 289 349
#     4  11  23  39  60  88 120 157 201 249 302 360
#     4  10  21  38  63  93 123 155 195 245 302 358
#     4  12  26  44  64  86 120 164 208 256 309 372
#
# _framework density 20.588442000000001
#
# number of rings (size 3 to 8) (size 9 to 14) (size 15 to 20)
#    0.000    1.385    0.000    6.692    0.000    9.538 
#    1.385    0.000    0.000    0.000    0.000    0.000 
#    0.000    0.000    0.000    0.000    0.000    0.000 
#
# Total GULP energy -645045.675176 kJ/mol
# GULP energy per Si atom -12404.724523 kJ/mol
# Density = 2.054158 g / cm^3
# Si number density = 20.588442 Si / 1000 Ang^3
#
#
#
# Elastic Constant Matrix: (Units=GPa)
#
#
# Indices 1 2 3 4 5 6 
#
# 1 63.4681 42.1861 25.2876 0.0000 0.0000 0.0000
# 2 42.1861 112.4355 27.0150 0.0000 0.0000 0.0000
# 3 25.2876 27.0150 101.2636 0.0000 0.0000 0.0000
# 4 0.0000 0.0000 0.0000 39.3517 0.0000 0.0000
# 5 0.0000 0.0000 0.0000 0.0000 28.4512 0.0000
# 6 0.0000 0.0000 0.0000 0.0000 0.0000 23.9762
#
#
#
# Elastic Compliance Matrix: (Units=1/GPa)
#
#
# Indices 1 2 3 4 5 6 
#
# 1 0.022115 -0.007448 -0.003536 0.000000 0.000000 0.000000
# 2 -0.007448 0.012012 -0.001344 0.000000 0.000000 0.000000
# 3 -0.003536 -0.001344 0.011117 0.000000 0.000000 0.000000
# 4 0.000000 0.000000 0.000000 0.025412 0.000000 0.000000
# 5 0.000000 0.000000 0.000000 0.000000 0.035148 0.000000
# 6 0.000000 0.000000 0.000000 0.000000 0.000000 0.041708
#
#
# Mechanical properties :
#
#
# Convention : Reuss Voigt Hill
#
# Bulk Modulus (GPa) = 48.57402 51.79383 50.18393
# Shear Modulus (GPa) = 27.92819 30.53440 29.23129
#
# Velocity S-wave (km/s) = 3.68706 3.85526 3.77210
# Velocity P-wave (km/s) = 6.46297 6.71035 6.58782
#
# Compressibility (1/GPa) = 0.02058713
#
# Stress axis : x y z
#
# Youngs Moduli (GPa) = 45.21746 83.25276 89.95388
#
# Poissons Ratio (x) = 0.62009 0.31804
# Poissons Ratio (y) = 0.33679 0.12094
# Poissons Ratio (z) = 0.15987 0.11193
#
# Static dielectric constant tensor:
#      x y z
#    x 3.569930 0.000000 0.000000 
#    y 0.000000 3.743360 0.000000 
#    z 0.000000 0.000000 3.802690 
# 
# 
# High freq. dielectric constant tensor:
#      x y z
#    x 1.793450 0.000000 0.000000 
#    y 0.000000 1.812000 0.000000 
#    z 0.000000 0.000000 1.819370 
# 
# From -- ./inp_files/8723.got.cif
#   From: 2010.03.12/outbox.cif.g09.slc.cpg/sg63_5_cif.got.tgz:8723.got - 2010.04.10 19:34:48.
