data_PCOD8259650
_publ_section_title
;
Structure prediction by ZEFSAII (Michael W. Deem and Ramdas Pophale) SiO2 
 PCOD8259650
Probable space group: C M C M
;
_chemical_formula_sum "Si O2"
_cell_formula_units_Z 80
_cell_length_a 25.375296
_cell_length_b 9.275566
_cell_length_c 18.218592
_cell_angle_alpha 90.000000
_cell_angle_beta 90.000000
_cell_angle_gamma 90.000000
_cell_volume 4288.114241
_symmetry_space_group_name_H-M "C M C M"
_symmetry_group_IT_number 63
_symmetry_cell_setting 'orthorhombic'
loop_
_space_group_symop_operation_xyz
x,y,z
-x,-y,1/2+z
x,-y,-z
-x,y,1/2-z
-x,-y,-z
x,y,1/2-z
-x,y,z
x,-y,1/2+z
1/2+x,1/2+y,z
1/2-x,1/2-y,1/2+z
1/2+x,1/2-y,-z
1/2-x,1/2+y,1/2-z
1/2-x,1/2-y,-z
1/2+x,1/2+y,1/2-z
1/2-x,1/2+y,z
1/2+x,1/2-y,1/2+z
loop_
_atom_site_type_symbol
_atom_site_label
_atom_site_fract_x
_atom_site_fract_y
_atom_site_fract_z
Si Si1 0.206325 0.278418 0.832812
Si Si2 0.093852 0.561789 0.579000
Si Si3 0.696251 0.889862 0.334022
Si Si4 0.500000 0.718500 0.443070
Si Si5 0.500000 0.402630 0.393999
Si Si6 0.590630 0.218463 0.163947
O O1 0.206088 0.219317 0.750000
O O2 0.256171 0.201621 0.871291
O O3 0.215868 0.447388 0.836623
O O4 0.148940 0.241448 0.867745
O O5 0.109977 0.500000 0.500000
O O6 0.144432 0.633463 0.617237
O O7 0.051103 0.687074 0.572930
O O8 0.070386 0.429297 0.626575
O O9 0.683615 0.842357 0.250000
O O10 0.500000 0.575866 0.392583
O O11 0.500000 0.667135 0.526339
O O12 0.448217 0.350267 0.351098
O O13 0.594839 0.185094 0.250000
#
# Coordination Sequence:
#
# PCOD8259650 Si02
#       6
#    16  16  16   8   8  16
#     4   8  16  31  53  78 108 143 177 220 278 326
#     4  11  20  37  60  82 108 153 190 229 275 338
#     4   9  18  34  55  80 110 144 183 227 272 327
#     4  11  24  38  56  79 112 148 183 229 293 334
#     4  11  22  39  57  80 111 146 188 230 284 342
#     4  10  20  37  60  85 112 147 190 231 274 335
#
# _framework density 18.656220000000001
#
# number of rings (size 3 to 8) (size 9 to 14) (size 15 to 20)
#    0.000    2.200    2.000    3.000    0.000    1.600 
#    0.000   11.500    4.400    0.000    0.000    0.000 
#    0.000    0.000    0.000    0.000    0.000    0.000 
#
# Total GULP energy -495869.544028 kJ/mol
# GULP energy per Si atom -12396.738601 kJ/mol
# Density = 1.861376 g / cm^3
# Si number density = 18.656220 Si / 1000 Ang^3
#
#
#
# Elastic Constant Matrix: (Units=GPa)
#
#
# Indices 1 2 3 4 5 6 
#
# 1 153.0080 79.6887 42.0456 0.0000 0.0000 0.0000
# 2 79.6887 89.8147 34.3174 0.0000 0.0000 0.0000
# 3 42.0456 34.3174 73.2599 0.0000 0.0000 0.0000
# 4 0.0000 0.0000 0.0000 26.5609 0.0000 0.0000
# 5 0.0000 0.0000 0.0000 0.0000 130.1024 0.0000
# 6 0.0000 0.0000 0.0000 0.0000 0.0000 43.4184
#
#
#
# Elastic Compliance Matrix: (Units=1/GPa)
#
#
# Indices 1 2 3 4 5 6 
#
# 1 0.012489 -0.010161 -0.002408 0.000000 0.000000 0.000000
# 2 -0.010161 0.021828 -0.004393 0.000000 0.000000 0.000000
# 3 -0.002408 -0.004393 0.017090 0.000000 0.000000 0.000000
# 4 0.000000 0.000000 0.000000 0.037649 0.000000 0.000000
# 5 0.000000 0.000000 0.000000 0.000000 0.007686 0.000000
# 6 0.000000 0.000000 0.000000 0.000000 0.000000 0.023032
#
#
# Mechanical properties :
#
#
# Convention : Reuss Voigt Hill
#
# Bulk Modulus (GPa) = 57.20017 69.79844 63.49931
# Shear Modulus (GPa) = 31.34246 50.68507 41.01376
#
# Velocity S-wave (km/s) = 4.10323 5.21794 4.69379
# Velocity P-wave (km/s) = 7.29214 8.59050 7.96781
#
# Compressibility (1/GPa) = 0.01748246
#
# Stress axis : x y z
#
# Youngs Moduli (GPa) = 80.06753 45.81212 58.51342
#
# Poissons Ratio (x) = 0.46551 0.14091
# Poissons Ratio (y) = 0.81358 0.25707
# Poissons Ratio (z) = 0.19281 0.20127
#
# Static dielectric constant tensor:
#      x y z
#    x 3.636320 0.000000 0.000000 
#    y 0.000000 3.404240 0.000000 
#    z 0.000000 0.000000 3.354420 
# 
# 
# High freq. dielectric constant tensor:
#      x y z
#    x 1.737340 0.000000 0.000000 
#    y 0.000000 1.714830 0.000000 
#    z 0.000000 0.000000 1.705450 
# 
# From -- ./inp_files/48825.got.cif
#   From: 2010.03.12/outbox.cif.g09.slc.cpg/sg63_25_cif.got.tgz:48825.got - 2010.04.10 19:34:48.
