data_PCOD8259512
_publ_section_title
;
Structure prediction by ZEFSAII (Michael W. Deem and Ramdas Pophale) SiO2 
 PCOD8259512
Probable space group: C M C M
;
_chemical_formula_sum "Si O2"
_cell_formula_units_Z 96
_cell_length_a 9.097019
_cell_length_b 30.028234
_cell_length_c 18.970537
_cell_angle_alpha 90.000000
_cell_angle_beta 90.000000
_cell_angle_gamma 90.000000
_cell_volume 5182.132558
_symmetry_space_group_name_H-M "C M C M"
_symmetry_group_IT_number 63
_symmetry_cell_setting 'orthorhombic'
loop_
_space_group_symop_operation_xyz
x,y,z
-x,-y,1/2+z
x,-y,-z
-x,y,1/2-z
-x,-y,-z
x,y,1/2-z
-x,y,z
x,-y,1/2+z
1/2+x,1/2+y,z
1/2-x,1/2-y,1/2+z
1/2+x,1/2-y,-z
1/2-x,1/2+y,1/2-z
1/2-x,1/2-y,-z
1/2+x,1/2+y,1/2-z
1/2-x,1/2+y,z
1/2+x,1/2-y,1/2+z
loop_
_atom_site_type_symbol
_atom_site_label
_atom_site_fract_x
_atom_site_fract_y
_atom_site_fract_z
Si Si1 0.828325 0.700598 0.167617
Si Si2 0.828234 0.526477 0.168298
Si Si3 0.329090 0.766207 0.429937
Si Si4 0.325714 0.886880 0.911222
Si Si5 0.829929 0.629699 0.930951
Si Si6 0.671728 0.437121 0.168411
O O1 0.798175 0.696474 0.250000
O O2 0.739477 0.742571 0.138152
O O3 0.766057 0.656060 0.130630
O O4 0.000000 0.707538 0.150727
O O5 0.795354 0.536051 0.250000
O O6 0.764613 0.568119 0.124265
O O7 0.745817 0.482563 0.141199
O O8 0.000000 0.519278 0.154367
O O9 0.500000 0.754486 0.436605
O O10 0.250000 0.750000 0.500000
O O11 0.303911 0.818334 0.419752
O O12 0.500000 0.886382 0.905474
O O13 0.273284 0.884650 0.991819
O O14 0.734467 0.604645 0.873277
O O15 0.000000 0.616854 0.921265
O O16 0.709786 0.429346 0.250000
O O17 0.500000 0.440982 0.154734
#
# Coordination Sequence:
#
# PCOD8259512 Si02
#       6
#    16  16  16  16  16  16
#     4  10  20  36  59  86 117 151 188 231 279 334
#     4   9  17  32  57  83 107 142 185 226 270 322
#     4  11  22  38  59  82 113 150 189 232 282 336
#     4   9  17  33  56  84 113 143 184 227 271 326
#     4  10  21  37  58  81 108 144 185 229 274 328
#     4  10  22  39  56  77 109 145 183 230 280 331
#
# _framework density 18.525191
#
# number of rings (size 3 to 8) (size 9 to 14) (size 15 to 20)
#    0.000    2.167    1.667    1.500    0.000    6.000 
#    0.000    8.333    0.000    2.000    0.000    0.000 
#    0.000    0.000    0.000    0.000    0.000    0.000 
#
# Total GULP energy -595366.030263 kJ/mol
# GULP energy per Si atom -12403.458964 kJ/mol
# Density = 1.848303 g / cm^3
# Si number density = 18.525191 Si / 1000 Ang^3
#
#
#
# Elastic Constant Matrix: (Units=GPa)
#
#
# Indices 1 2 3 4 5 6 
#
# 1 69.6155 59.9798 50.0108 0.0000 0.0000 0.0000
# 2 59.9798 130.3214 72.4740 0.0000 0.0000 0.0000
# 3 50.0108 72.4740 100.1786 0.0000 0.0000 0.0000
# 4 0.0000 0.0000 0.0000 41.1864 0.0000 0.0000
# 5 0.0000 0.0000 0.0000 0.0000 27.3500 0.0000
# 6 0.0000 0.0000 0.0000 0.0000 0.0000 29.2246
#
#
#
# Elastic Compliance Matrix: (Units=1/GPa)
#
#
# Indices 1 2 3 4 5 6 
#
# 1 0.026754 -0.008175 -0.007442 0.000000 0.000000 0.000000
# 2 -0.008175 0.015336 -0.007014 0.000000 0.000000 0.000000
# 3 -0.007442 -0.007014 0.018772 0.000000 0.000000 0.000000
# 4 0.000000 0.000000 0.000000 0.024280 0.000000 0.000000
# 5 0.000000 0.000000 0.000000 0.000000 0.036563 0.000000
# 6 0.000000 0.000000 0.000000 0.000000 0.000000 0.034218
#
#
# Mechanical properties :
#
#
# Convention : Reuss Voigt Hill
#
# Bulk Modulus (GPa) = 64.10116 73.89386 68.99751
# Shear Modulus (GPa) = 24.22654 27.39559 25.81106
#
# Velocity S-wave (km/s) = 3.62022 3.84973 3.73674
# Velocity P-wave (km/s) = 7.22163 7.72887 7.47955
#
# Compressibility (1/GPa) = 0.01560034
#
# Stress axis : x y z
#
# Youngs Moduli (GPa) = 37.37724 65.20428 53.27167
#
# Poissons Ratio (x) = 0.53303 0.39645
# Poissons Ratio (y) = 0.30555 0.37365
# Poissons Ratio (z) = 0.27817 0.45735
#
# Static dielectric constant tensor:
#      x y z
#    x 3.291560 0.000000 0.000000 
#    y 0.000000 3.629290 0.000000 
#    z 0.000000 0.000000 3.441360 
# 
# 
# High freq. dielectric constant tensor:
#      x y z
#    x 1.698950 0.000000 0.000000 
#    y 0.000000 1.731060 0.000000 
#    z 0.000000 0.000000 1.722380 
# 
# From -- ./inp_files/51280.got.cif
#   From: 2010.03.12/outbox.cif.g09.slc.cpg/sg63_26_cif.got.tgz:51280.got - 2010.04.10 19:34:48.
