data_PCOD8259634
_publ_section_title
;
Structure prediction by ZEFSAII (Michael W. Deem and Ramdas Pophale) SiO2 
 PCOD8259634
Probable space group: C M C M
;
_chemical_formula_sum "Si O2"
_cell_formula_units_Z 96
_cell_length_a 23.599557
_cell_length_b 25.142448
_cell_length_c 8.595747
_cell_angle_alpha 90.000000
_cell_angle_beta 90.000000
_cell_angle_gamma 90.000000
_cell_volume 5100.291938
_symmetry_space_group_name_H-M "C M C M"
_symmetry_group_IT_number 63
_symmetry_cell_setting 'orthorhombic'
loop_
_space_group_symop_operation_xyz
x,y,z
-x,-y,1/2+z
x,-y,-z
-x,y,1/2-z
-x,-y,-z
x,y,1/2-z
-x,y,z
x,-y,1/2+z
1/2+x,1/2+y,z
1/2-x,1/2-y,1/2+z
1/2+x,1/2-y,-z
1/2-x,1/2+y,1/2-z
1/2-x,1/2-y,-z
1/2+x,1/2+y,1/2-z
1/2-x,1/2+y,z
1/2+x,1/2-y,1/2+z
loop_
_atom_site_type_symbol
_atom_site_label
_atom_site_fract_x
_atom_site_fract_y
_atom_site_fract_z
Si Si1 0.619386 0.648254 0.067983
Si Si2 0.312079 0.750341 0.066284
Si Si3 0.383546 0.850351 0.065198
Si Si4 0.500000 0.811890 0.566765
Si Si5 0.309523 0.058186 0.065708
Si Si6 0.000000 0.195722 0.069541
Si Si7 0.690026 0.557351 0.932861
O O1 0.628963 0.637943 0.250000
O O2 0.655415 0.698245 0.007269
O O3 0.553962 0.659556 0.029492
O O4 0.638744 0.596694 0.973206
O O5 0.309731 0.751386 0.250000
O O6 0.345145 0.801747 0.003795
O O7 0.250000 0.750000 0.000000
O O8 0.383210 0.854199 0.250000
O O9 0.446629 0.841631 0.006085
O O10 0.359500 0.904272 0.993177
O O11 0.500000 0.819646 0.750000
O O12 0.500000 0.749395 0.529165
O O13 0.308600 0.056523 0.250000
O O14 0.248583 0.079272 0.005948
O O15 0.321818 0.000000 0.000000
O O16 0.000000 0.213367 0.250000
O O17 0.698369 0.552693 0.750000
O O18 0.674113 0.500000 0.000000
#
# Coordination Sequence:
#
# PCOD8259634 Si02
#       7
#    16  16  16   8  16   8  16
#     4  10  20  37  59  84 113 152 196 243 293 350
#     4  10  21  34  54  82 116 150 187 232 290 348
#     4  11  22  40  61  85 117 158 199 241 293 350
#     4  12  24  38  59  88 119 158 202 245 290 345
#     4  11  22  39  62  90 120 155 196 242 294 351
#     4  10  20  40  63  82 113 158 201 241 296 351
#     4  11  22  38  60  87 118 156 196 241 294 352
#
# _framework density 18.822451999999998
#
# number of rings (size 3 to 8) (size 9 to 14) (size 15 to 20)
#    0.000    1.333    1.667    6.250    0.000    5.333 
#    0.000    0.833    0.000    0.000    0.000    0.000 
#    0.000    0.000    0.000    0.000    0.000    0.000 
#
# Total GULP energy -595454.532478 kJ/mol
# GULP energy per Si atom -12405.302760 kJ/mol
# Density = 1.877961 g / cm^3
# Si number density = 18.822452 Si / 1000 Ang^3
#
#
#
# Elastic Constant Matrix: (Units=GPa)
#
#
# Indices 1 2 3 4 5 6 
#
# 1 162.0314 77.8999 48.8900 0.0000 0.0000 0.0000
# 2 77.8999 115.3357 50.1939 0.0000 0.0000 0.0000
# 3 48.8900 50.1939 113.3771 0.0000 0.0000 0.0000
# 4 0.0000 0.0000 0.0000 31.3833 0.0000 0.0000
# 5 0.0000 0.0000 0.0000 0.0000 30.1673 0.0000
# 6 0.0000 0.0000 0.0000 0.0000 0.0000 27.5994
#
#
#
# Elastic Compliance Matrix: (Units=1/GPa)
#
#
# Indices 1 2 3 4 5 6 
#
# 1 0.009349 -0.005648 -0.001531 0.000000 0.000000 0.000000
# 2 -0.005648 0.014152 -0.003830 0.000000 0.000000 0.000000
# 3 -0.001531 -0.003830 0.011176 0.000000 0.000000 0.000000
# 4 0.000000 0.000000 0.000000 0.031864 0.000000 0.000000
# 5 0.000000 0.000000 0.000000 0.000000 0.033149 0.000000
# 6 0.000000 0.000000 0.000000 0.000000 0.000000 0.036233
#
#
# Mechanical properties :
#
#
# Convention : Reuss Voigt Hill
#
# Bulk Modulus (GPa) = 78.99475 82.74576 80.87025
# Shear Modulus (GPa) = 30.83384 32.08069 31.45726
#
# Velocity S-wave (km/s) = 4.05179 4.13290 4.09254
# Velocity P-wave (km/s) = 7.99680 8.17503 8.08640
#
# Compressibility (1/GPa) = 0.01265907
#
# Stress axis : x y z
#
# Youngs Moduli (GPa) = 106.96219 70.66146 89.47968
#
# Poissons Ratio (x) = 0.39912 0.13698
# Poissons Ratio (y) = 0.60416 0.34268
# Poissons Ratio (z) = 0.16375 0.27061
#
# Static dielectric constant tensor:
#      x y z
#    x 3.537220 0.000000 0.000000 
#    y 0.000000 3.599050 0.000000 
#    z 0.000000 0.000000 3.460560 
# 
# 
# High freq. dielectric constant tensor:
#      x y z
#    x 1.735960 0.000000 0.000000 
#    y 0.000000 1.733820 0.000000 
#    z 0.000000 0.000000 1.736690 
# 
# From -- ./inp_files/10525.got.cif
#   From: 2010.03.12/outbox.cif.g09.slc.cpg/sg63_6_cif.got.tgz:10525.got - 2010.04.10 19:34:48.
