data_PCOD8259548
_publ_section_title
;
Structure prediction by ZEFSAII (Michael W. Deem and Ramdas Pophale) SiO2 
 PCOD8259548
Probable space group: C M C M
;
_chemical_formula_sum "Si O2"
_cell_formula_units_Z 64
_cell_length_a 17.528155
_cell_length_b 9.402078
_cell_length_c 20.227263
_cell_angle_alpha 90.000000
_cell_angle_beta 90.000000
_cell_angle_gamma 90.000000
_cell_volume 3333.474798
_symmetry_space_group_name_H-M "C M C M"
_symmetry_group_IT_number 63
_symmetry_cell_setting 'orthorhombic'
loop_
_space_group_symop_operation_xyz
x,y,z
-x,-y,1/2+z
x,-y,-z
-x,y,1/2-z
-x,-y,-z
x,y,1/2-z
-x,y,z
x,-y,1/2+z
1/2+x,1/2+y,z
1/2-x,1/2-y,1/2+z
1/2+x,1/2-y,-z
1/2-x,1/2+y,1/2-z
1/2-x,1/2-y,-z
1/2+x,1/2+y,1/2-z
1/2-x,1/2+y,z
1/2+x,1/2-y,1/2+z
loop_
_atom_site_type_symbol
_atom_site_label
_atom_site_fract_x
_atom_site_fract_y
_atom_site_fract_z
Si Si1 0.173229 0.525182 0.569711
Si Si2 0.671858 0.349072 0.554899
Si Si3 0.087929 0.893529 0.079645
Si Si4 0.088789 0.351661 0.676098
O O1 0.127760 0.500000 0.500000
O O2 0.250424 0.436535 0.561151
O O3 0.185925 0.692690 0.583416
O O4 0.126412 0.473851 0.632502
O O5 0.643564 0.338259 0.478784
O O6 0.607916 0.440587 0.594819
O O7 0.104857 0.803024 0.145034
O O8 0.000000 0.878838 0.057503
O O9 0.123540 0.353116 0.750000
O O10 0.000000 0.385556 0.678297
#
# Coordination Sequence:
#
# PCOD8259548 Si02
#       4
#    16  16  16  16
#     4  12  21  36  62  87 121 156 196 248 300 343
#     4  11  21  35  59  91 121 148 193 250 292 346
#     4  10  20  36  60  88 120 155 192 240 296 351
#     4  10  23  42  60  84 121 160 197 242 301 363
#
# _framework density 19.199186000000001
#
# number of rings (size 3 to 8) (size 9 to 14) (size 15 to 20)
#    0.000    1.250    5.000    3.750    0.000    2.500 
#    0.000    6.250    0.000    3.000    0.000    0.000 
#    0.000    0.000    0.000    0.000    0.000    0.000 
#
# Total GULP energy -396538.367956 kJ/mol
# GULP energy per Si atom -12391.823999 kJ/mol
# Density = 1.915549 g / cm^3
# Si number density = 19.199186 Si / 1000 Ang^3
#
#
#
# Elastic Constant Matrix: (Units=GPa)
#
#
# Indices 1 2 3 4 5 6 
#
# 1 63.8252 48.2092 54.1168 0.0000 0.0000 0.0000
# 2 48.2092 181.2346 75.9573 0.0000 0.0000 0.0000
# 3 54.1168 75.9573 147.6020 0.0000 0.0000 0.0000
# 4 0.0000 0.0000 0.0000 27.0780 0.0000 0.0000
# 5 0.0000 0.0000 0.0000 0.0000 13.1251 0.0000
# 6 0.0000 0.0000 0.0000 0.0000 0.0000 33.6453
#
#
#
# Elastic Compliance Matrix: (Units=1/GPa)
#
#
# Indices 1 2 3 4 5 6 
#
# 1 0.024350 -0.003488 -0.007133 0.000000 0.000000 0.000000
# 2 -0.003488 0.007535 -0.002599 0.000000 0.000000 0.000000
# 3 -0.007133 -0.002599 0.010727 0.000000 0.000000 0.000000
# 4 0.000000 0.000000 0.000000 0.036930 0.000000 0.000000
# 5 0.000000 0.000000 0.000000 0.000000 0.076190 0.000000
# 6 0.000000 0.000000 0.000000 0.000000 0.000000 0.029722
#
#
# Mechanical properties :
#
#
# Convention : Reuss Voigt Hill
#
# Bulk Modulus (GPa) = 61.82908 83.24761 72.53835
# Shear Modulus (GPa) = 23.01139 29.06160 26.03650
#
# Velocity S-wave (km/s) = 3.46578 3.89484 3.68656
# Velocity P-wave (km/s) = 6.94906 7.98000 7.48231
#
# Compressibility (1/GPa) = 0.01617362
#
# Stress axis : x y z
#
# Youngs Moduli (GPa) = 41.06749 132.72152 93.21879
#
# Poissons Ratio (x) = 0.46290 0.66492
# Poissons Ratio (y) = 0.14323 0.24224
# Poissons Ratio (z) = 0.29293 0.34489
#
# Static dielectric constant tensor:
#      x y z
#    x 3.620650 0.000000 0.000000 
#    y 0.000000 3.898840 0.000000 
#    z 0.000000 0.000000 3.570350 
# 
# 
# High freq. dielectric constant tensor:
#      x y z
#    x 1.748060 0.000000 0.000000 
#    y 0.000000 1.762400 0.000000 
#    z 0.000000 0.000000 1.712760 
# 
# From -- ./inp_files/55010.got.cif
#   From: 2010.03.12/outbox.cif.g09.slc.cpg/sg63_28_cif.got.tgz:55010.got - 2010.04.10 19:34:48.
