data_PCOD8259133
_publ_section_title
;
Structure prediction by ZEFSAII (Michael W. Deem and Ramdas Pophale) SiO2 
 PCOD8259133
Probable space group: C M C M
;
_chemical_formula_sum "Si O2"
_cell_formula_units_Z 80
_cell_length_a 13.959699
_cell_length_b 18.999265
_cell_length_c 14.819664
_cell_angle_alpha 90.000000
_cell_angle_beta 90.000000
_cell_angle_gamma 90.000000
_cell_volume 3930.530870
_symmetry_space_group_name_H-M "C M C M"
_symmetry_group_IT_number 63
_symmetry_cell_setting 'orthorhombic'
loop_
_space_group_symop_operation_xyz
x,y,z
-x,-y,1/2+z
x,-y,-z
-x,y,1/2-z
-x,-y,-z
x,y,1/2-z
-x,y,z
x,-y,1/2+z
1/2+x,1/2+y,z
1/2-x,1/2-y,1/2+z
1/2+x,1/2-y,-z
1/2-x,1/2+y,1/2-z
1/2-x,1/2-y,-z
1/2+x,1/2+y,1/2-z
1/2-x,1/2+y,z
1/2+x,1/2-y,1/2+z
loop_
_atom_site_type_symbol
_atom_site_label
_atom_site_fract_x
_atom_site_fract_y
_atom_site_fract_z
Si Si1 0.109380 0.374980 0.037952
Si Si2 0.716808 0.766783 0.145385
Si Si3 0.227139 0.977654 0.096470
Si Si4 0.700777 0.121919 0.349353
Si Si5 0.395421 0.352144 0.147355
O O1 0.133382 0.299407 0.083202
O O2 0.173819 0.434514 0.085054
O O3 0.000000 0.393956 0.057973
O O4 0.123618 0.374382 0.929580
O O5 0.700630 0.789148 0.250000
O O6 0.719199 0.682544 0.133878
O O7 0.818106 0.797611 0.106515
O O8 0.145537 0.931309 0.142847
O O9 0.246233 0.047010 0.155053
O O10 0.186223 0.000000 0.000000
O O11 0.652882 0.134646 0.250000
O O12 0.410773 0.331249 0.250000
O O13 0.500000 0.346598 0.098586
#
# Coordination Sequence:
#
# PCOD8259133 Si02
#       5
#    16  16  16  16  16
#     4  10  21  37  56  79 109 146 185 221 263 322
#     4   9  19  36  56  78 106 140 178 221 269 320
#     4   9  19  34  52  74 104 139 177 220 264 315
#     4  10  20  35  55  78 108 143 178 224 276 318
#     4   9  17  31  51  73  98 130 169 213 263 320
#
# _framework density 20.353484000000002
#
# number of rings (size 3 to 8) (size 9 to 14) (size 15 to 20)
#    0.000    2.600    0.000    1.200    0.000    6.400 
#    0.000    3.000    0.000    1.200    0.000    0.000 
#    0.000    0.000    0.000    0.000    0.000    0.000 
#
# Total GULP energy -495759.131468 kJ/mol
# GULP energy per Si atom -12393.978287 kJ/mol
# Density = 2.030716 g / cm^3
# Si number density = 20.353484 Si / 1000 Ang^3
#
#
#
# Elastic Constant Matrix: (Units=GPa)
#
#
# Indices 1 2 3 4 5 6 
#
# 1 69.1570 13.2327 21.8037 0.0000 0.0000 0.0000
# 2 13.2327 117.5340 24.6279 0.0000 0.0000 0.0000
# 3 21.8037 24.6279 71.1806 0.0000 0.0000 0.0000
# 4 0.0000 0.0000 0.0000 28.7721 0.0000 0.0000
# 5 0.0000 0.0000 0.0000 0.0000 15.9716 0.0000
# 6 0.0000 0.0000 0.0000 0.0000 0.0000 6.8614
#
#
#
# Elastic Compliance Matrix: (Units=1/GPa)
#
#
# Indices 1 2 3 4 5 6 
#
# 1 0.016082 -0.000839 -0.004636 0.000000 0.000000 0.000000
# 2 -0.000839 0.009217 -0.002932 0.000000 0.000000 0.000000
# 3 -0.004636 -0.002932 0.016483 0.000000 0.000000 0.000000
# 4 0.000000 0.000000 0.000000 0.034756 0.000000 0.000000
# 5 0.000000 0.000000 0.000000 0.000000 0.062611 0.000000
# 6 0.000000 0.000000 0.000000 0.000000 0.000000 0.145742
#
#
# Mechanical properties :
#
#
# Convention : Reuss Voigt Hill
#
# Bulk Modulus (GPa) = 40.05080 41.91114 40.98097
# Shear Modulus (GPa) = 16.12756 23.53484 19.83120
#
# Velocity S-wave (km/s) = 2.81797 3.40414 3.12483
# Velocity P-wave (km/s) = 5.50529 6.00726 5.76175
#
# Compressibility (1/GPa) = 0.02496829
#
# Stress axis : x y z
#
# Youngs Moduli (GPa) = 62.18127 108.49502 60.66781
#
# Poissons Ratio (x) = 0.09105 0.28124
# Poissons Ratio (y) = 0.05218 0.17787
# Poissons Ratio (z) = 0.28826 0.31810
#
# Static dielectric constant tensor:
#      x y z
#    x 3.553290 0.000000 0.000000 
#    y 0.000000 3.859070 0.000000 
#    z 0.000000 0.000000 3.702180 
# 
# 
# High freq. dielectric constant tensor:
#      x y z
#    x 1.755110 0.000000 0.000000 
#    y 0.000000 1.806870 0.000000 
#    z 0.000000 0.000000 1.794550 
# 
# From -- ./inp_files/31662.got.cif
#   From: 2010.03.12/outbox.cif.g09.slc.cpg/sg63_16_cif.got.tgz:31662.got - 2010.04.10 19:34:48.
