data_PCOD8259071
_publ_section_title
;
Structure prediction by ZEFSAII (Michael W. Deem and Ramdas Pophale) SiO2 
 PCOD8259071
Probable space group: C M C M
;
_chemical_formula_sum "Si O2"
_cell_formula_units_Z 104
_cell_length_a 22.107819
_cell_length_b 29.992623
_cell_length_c 8.931717
_cell_angle_alpha 90.000000
_cell_angle_beta 90.000000
_cell_angle_gamma 90.000000
_cell_volume 5922.366816
_symmetry_space_group_name_H-M "C M C M"
_symmetry_group_IT_number 63
_symmetry_cell_setting 'orthorhombic'
loop_
_space_group_symop_operation_xyz
x,y,z
-x,-y,1/2+z
x,-y,-z
-x,y,1/2-z
-x,-y,-z
x,y,1/2-z
-x,y,z
x,-y,1/2+z
1/2+x,1/2+y,z
1/2-x,1/2-y,1/2+z
1/2+x,1/2-y,-z
1/2-x,1/2+y,1/2-z
1/2-x,1/2-y,-z
1/2+x,1/2+y,1/2-z
1/2-x,1/2+y,z
1/2+x,1/2-y,1/2+z
loop_
_atom_site_type_symbol
_atom_site_label
_atom_site_fract_x
_atom_site_fract_y
_atom_site_fract_z
Si Si1 0.071900 0.216250 0.581035
Si Si2 0.931173 0.303533 0.077202
Si Si3 0.148316 0.045517 0.075463
Si Si4 0.211951 0.453694 0.573519
Si Si5 0.930783 0.127322 0.426603
Si Si6 0.389148 0.900327 0.073672
Si Si7 0.000000 0.548554 0.070899
O O1 0.094642 0.213128 0.750000
O O2 0.098056 0.261882 0.511008
O O3 0.096289 0.172736 0.495349
O O4 0.000000 0.217683 0.566679
O O5 0.929258 0.290498 0.250000
O O6 0.892922 0.347639 0.042836
O O7 0.000000 0.312905 0.025876
O O8 0.137252 0.039597 0.250000
O O9 0.218031 0.055572 0.038746
O O10 0.108451 0.086098 0.011375
O O11 0.126184 0.000000 0.000000
O O12 0.190858 0.500000 0.500000
O O13 0.198150 0.454893 0.750000
O O14 0.175396 0.414675 0.491719
O O15 0.925004 0.131591 0.250000
O O16 0.000000 0.119577 0.476869
O O17 0.395270 0.910934 0.250000
O O18 0.440925 0.925807 0.984092
O O19 0.000000 0.545372 0.250000
O O20 0.000000 0.500000 0.000000
#
# Coordination Sequence:
#
# PCOD8259071 Si02
#       7
#    16  16  16  16  16  16   8
#     4   9  17  28  45  72 102 130 161 200 242 290
#     4   9  17  31  49  69  96 129 161 198 247 300
#     4   9  19  34  52  74 101 132 168 206 244 293
#     4  10  20  35  52  71  95 129 170 209 249 295
#     4   9  17  31  51  75 103 135 166 197 243 300
#     4  11  21  35  52  73  99 128 167 211 253 301
#     4  12  24  36  50  70 100 134 166 206 259 306
#
# _framework density 17.560547
#
# number of rings (size 3 to 8) (size 9 to 14) (size 15 to 20)
#    0.000    2.308    0.769    2.538    0.000    4.615 
#    0.000    0.000    0.000    0.923    0.000    0.000 
#    0.000    0.000    0.000    0.000    0.000    0.000 
#
# Total GULP energy -644860.431973 kJ/mol
# GULP energy per Si atom -12401.162153 kJ/mol
# Density = 1.752058 g / cm^3
# Si number density = 17.560547 Si / 1000 Ang^3
#
#
#
# Elastic Constant Matrix: (Units=GPa)
#
#
# Indices 1 2 3 4 5 6 
#
# 1 57.7714 60.8924 35.1950 0.0000 0.0000 0.0000
# 2 60.8924 168.1481 68.3595 0.0000 0.0000 0.0000
# 3 35.1950 68.3595 85.4077 0.0000 0.0000 0.0000
# 4 0.0000 0.0000 0.0000 32.0339 0.0000 0.0000
# 5 0.0000 0.0000 0.0000 0.0000 19.0265 0.0000
# 6 0.0000 0.0000 0.0000 0.0000 0.0000 17.2588
#
#
#
# Elastic Compliance Matrix: (Units=1/GPa)
#
#
# Indices 1 2 3 4 5 6 
#
# 1 0.029561 -0.008528 -0.005356 0.000000 0.000000 0.000000
# 2 -0.008528 0.011276 -0.005511 0.000000 0.000000 0.000000
# 3 -0.005356 -0.005511 0.018327 0.000000 0.000000 0.000000
# 4 0.000000 0.000000 0.000000 0.031217 0.000000 0.000000
# 5 0.000000 0.000000 0.000000 0.000000 0.052558 0.000000
# 6 0.000000 0.000000 0.000000 0.000000 0.000000 0.057941
#
#
# Mechanical properties :
#
#
# Convention : Reuss Voigt Hill
#
# Bulk Modulus (GPa) = 49.08225 71.13569 60.10897
# Shear Modulus (GPa) = 20.28725 23.45587 21.87156
#
# Velocity S-wave (km/s) = 3.40262 3.65871 3.53298
# Velocity P-wave (km/s) = 6.59152 7.64493 7.13768
#
# Compressibility (1/GPa) = 0.02037397
#
# Stress axis : x y z
#
# Youngs Moduli (GPa) = 33.82855 88.68637 54.56553
#
# Poissons Ratio (x) = 0.75628 0.29226
# Poissons Ratio (y) = 0.28847 0.30071
# Poissons Ratio (z) = 0.18119 0.48874
#
# Static dielectric constant tensor:
#      x y z
#    x 3.057000 0.000000 0.000000 
#    y 0.000000 3.450330 0.000000 
#    z 0.000000 0.000000 3.303440 
# 
# 
# High freq. dielectric constant tensor:
#      x y z
#    x 1.644150 0.000000 0.000000 
#    y 0.000000 1.689710 0.000000 
#    z 0.000000 0.000000 1.684850 
# 
# From -- ./inp_files/9141.got.cif
#   From: 2010.03.12/outbox.cif.g09.slc.cpg/sg63_5_cif.got.tgz:9141.got - 2010.04.10 19:34:48.
