data_PCOD8259533
_publ_section_title
;
Structure prediction by ZEFSAII (Michael W. Deem and Ramdas Pophale) SiO2 
 PCOD8259533
Probable space group: C M C M
;
_chemical_formula_sum "Si O2"
_cell_formula_units_Z 64
_cell_length_a 14.500716
_cell_length_b 14.534647
_cell_length_c 15.006269
_cell_angle_alpha 90.000000
_cell_angle_beta 90.000000
_cell_angle_gamma 90.000000
_cell_volume 3162.763097
_symmetry_space_group_name_H-M "C M C M"
_symmetry_group_IT_number 63
_symmetry_cell_setting 'orthorhombic'
loop_
_space_group_symop_operation_xyz
x,y,z
-x,-y,1/2+z
x,-y,-z
-x,y,1/2-z
-x,-y,-z
x,y,1/2-z
-x,y,z
x,-y,1/2+z
1/2+x,1/2+y,z
1/2-x,1/2-y,1/2+z
1/2+x,1/2-y,-z
1/2-x,1/2+y,1/2-z
1/2-x,1/2-y,-z
1/2+x,1/2+y,1/2-z
1/2-x,1/2+y,z
1/2+x,1/2-y,1/2+z
loop_
_atom_site_type_symbol
_atom_site_label
_atom_site_fract_x
_atom_site_fract_y
_atom_site_fract_z
Si Si1 0.287964 0.097778 0.351683
Si Si2 0.106541 0.584904 0.850924
Si Si3 0.103105 0.089343 0.440987
Si Si4 0.604623 0.786120 0.988441
O O1 0.312399 0.120528 0.250000
O O2 0.177670 0.089743 0.362065
O O3 0.326765 0.179568 0.412293
O O4 0.334483 0.002574 0.382142
O O5 0.132124 0.615072 0.750000
O O6 0.000000 0.556164 0.857462
O O7 0.130118 0.669249 0.915960
O O8 0.117659 0.177008 0.504895
O O9 0.000000 0.091403 0.398919
O O10 0.118333 0.000000 0.500000
O O11 0.500000 0.811859 0.961755
#
# Coordination Sequence:
#
# PCOD8259533 Si02
#       4
#    16  16  16  16
#     4  11  22  35  56  85 116 147 179 222 276 336
#     4   9  18  33  56  87 116 140 173 224 287 345
#     4  10  22  40  58  76 105 149 197 237 270 311
#     4  10  20  36  60  85 111 144 181 227 280 332
#
# _framework density 20.235471
#
# number of rings (size 3 to 8) (size 9 to 14) (size 15 to 20)
#    0.000    2.000    0.000    3.750    0.000    5.000 
#    0.000    6.250    0.000    4.500    0.000    0.000 
#    0.000    0.000    0.000    0.000    0.000    0.000 
#
# Total GULP energy -396907.756671 kJ/mol
# GULP energy per Si atom -12403.367396 kJ/mol
# Density = 2.018941 g / cm^3
# Si number density = 20.235471 Si / 1000 Ang^3
#
#
#
# Elastic Constant Matrix: (Units=GPa)
#
#
# Indices 1 2 3 4 5 6 
#
# 1 111.8358 44.4737 46.4815 0.0000 0.0000 0.0000
# 2 44.4737 132.1054 53.7883 0.0000 0.0000 0.0000
# 3 46.4815 53.7883 90.3277 0.0000 0.0000 0.0000
# 4 0.0000 0.0000 0.0000 14.0835 0.0000 0.0000
# 5 0.0000 0.0000 0.0000 0.0000 28.5781 0.0000
# 6 0.0000 0.0000 0.0000 0.0000 0.0000 4.4407
#
#
#
# Elastic Compliance Matrix: (Units=1/GPa)
#
#
# Indices 1 2 3 4 5 6 
#
# 1 0.011751 -0.001972 -0.004873 0.000000 0.000000 0.000000
# 2 -0.001972 0.010323 -0.005133 0.000000 0.000000 0.000000
# 3 -0.004873 -0.005133 0.016635 0.000000 0.000000 0.000000
# 4 0.000000 0.000000 0.000000 0.071005 0.000000 0.000000
# 5 0.000000 0.000000 0.000000 0.000000 0.034992 0.000000
# 6 0.000000 0.000000 0.000000 0.000000 0.000000 0.225191
#
#
# Mechanical properties :
#
#
# Convention : Reuss Voigt Hill
#
# Bulk Modulus (GPa) = 67.77607 69.30621 68.54114
# Shear Modulus (GPa) = 12.53855 22.05547 17.29701
#
# Velocity S-wave (km/s) = 2.49194 3.30501 2.92685
# Velocity P-wave (km/s) = 6.46886 6.99202 6.73552
#
# Compressibility (1/GPa) = 0.01475447
#
# Stress axis : x y z
#
# Youngs Moduli (GPa) = 85.09842 96.86716 60.11585
#
# Poissons Ratio (x) = 0.19103 0.29292
# Poissons Ratio (y) = 0.16782 0.30855
# Poissons Ratio (z) = 0.41465 0.49718
#
# Static dielectric constant tensor:
#      x y z
#    x 3.949370 0.000000 0.000000 
#    y 0.000000 3.662900 0.000000 
#    z 0.000000 0.000000 3.466330 
# 
# 
# High freq. dielectric constant tensor:
#      x y z
#    x 1.804000 0.000000 0.000000 
#    y 0.000000 1.792930 0.000000 
#    z 0.000000 0.000000 1.769710 
# 
# From -- ./inp_files/31087.got.cif
#   From: 2010.03.12/outbox.cif.g09.slc.cpg/sg63_16_cif.got.tgz:31087.got - 2010.04.10 19:34:48.
