data_PCOD8259349
_publ_section_title
;
Structure prediction by ZEFSAII (Michael W. Deem and Ramdas Pophale) SiO2 
 PCOD8259349
Probable space group: C M C M
;
_chemical_formula_sum "Si O2"
_cell_formula_units_Z 80
_cell_length_a 18.769744
_cell_length_b 13.284121
_cell_length_c 17.277469
_cell_angle_alpha 90.000000
_cell_angle_beta 90.000000
_cell_angle_gamma 90.000000
_cell_volume 4307.956353
_symmetry_space_group_name_H-M "C M C M"
_symmetry_group_IT_number 63
_symmetry_cell_setting 'orthorhombic'
loop_
_space_group_symop_operation_xyz
x,y,z
-x,-y,1/2+z
x,-y,-z
-x,y,1/2-z
-x,-y,-z
x,y,1/2-z
-x,y,z
x,-y,1/2+z
1/2+x,1/2+y,z
1/2-x,1/2-y,1/2+z
1/2+x,1/2-y,-z
1/2-x,1/2+y,1/2-z
1/2-x,1/2-y,-z
1/2+x,1/2+y,1/2-z
1/2-x,1/2+y,z
1/2+x,1/2-y,1/2+z
loop_
_atom_site_type_symbol
_atom_site_label
_atom_site_fract_x
_atom_site_fract_y
_atom_site_fract_z
Si Si1 0.500000 0.247125 0.842804
Si Si2 0.212271 0.946431 0.158927
Si Si3 0.500000 0.027272 0.589872
Si Si4 0.848759 0.536394 0.411593
Si Si5 0.643159 0.352243 0.840573
Si Si6 0.724875 0.242431 0.086843
O O1 0.500000 0.225885 0.750000
O O2 0.500000 0.145561 0.892241
O O3 0.567955 0.311427 0.871244
O O4 0.203792 0.930503 0.250000
O O5 0.188018 0.845565 0.114745
O O6 0.294161 0.971925 0.139583
O O7 0.161882 0.036533 0.126415
O O8 0.500000 0.000000 0.500000
O O9 0.427446 0.980350 0.624764
O O10 0.843491 0.500000 0.500000
O O11 0.832752 0.654497 0.404213
O O12 0.639339 0.361941 0.750000
O O13 0.705426 0.274766 0.861233
O O14 0.750000 0.250000 0.000000
#
# Coordination Sequence:
#
# PCOD8259349 Si02
#       6
#     8  16   8  16  16  16
#     4  10  20  38  61  83 110 150 192 234 280 337
#     4  10  20  36  57  83 112 143 188 237 277 326
#     4  10  22  34  53  80 114 141 180 227 282 326
#     4  10  20  36  53  81 110 149 183 228 279 335
#     4   9  20  35  56  84 111 142 188 234 278 330
#     4  11  20  32  56  80 111 148 187 224 282 337
#
# _framework density 18.57029
#
# number of rings (size 3 to 8) (size 9 to 14) (size 15 to 20)
#    0.000    2.000    2.000    1.800    2.800    3.200 
#    0.000    1.000    0.000    1.200    0.000    0.000 
#    0.000    0.000    0.000    0.000    0.000    0.000 
#
# Total GULP energy -495924.745977 kJ/mol
# GULP energy per Si atom -12398.118649 kJ/mol
# Density = 1.852802 g / cm^3
# Si number density = 18.570290 Si / 1000 Ang^3
#
#
#
# Elastic Constant Matrix: (Units=GPa)
#
#
# Indices 1 2 3 4 5 6 
#
# 1 141.6353 74.7419 13.3477 0.0000 0.0000 0.0000
# 2 74.7419 165.0586 36.7986 0.0000 0.0000 0.0000
# 3 13.3477 36.7986 37.1294 0.0000 0.0000 0.0000
# 4 0.0000 0.0000 0.0000 35.3389 0.0000 0.0000
# 5 0.0000 0.0000 0.0000 0.0000 18.6750 0.0000
# 6 0.0000 0.0000 0.0000 0.0000 0.0000 18.1711
#
#
#
# Elastic Compliance Matrix: (Units=1/GPa)
#
#
# Indices 1 2 3 4 5 6 
#
# 1 0.009310 -0.004454 0.001067 0.000000 0.000000 0.000000
# 2 -0.004454 0.009907 -0.008218 0.000000 0.000000 0.000000
# 3 0.001067 -0.008218 0.034694 0.000000 0.000000 0.000000
# 4 0.000000 0.000000 0.000000 0.028297 0.000000 0.000000
# 5 0.000000 0.000000 0.000000 0.000000 0.053548 0.000000
# 6 0.000000 0.000000 0.000000 0.000000 0.000000 0.055033
#
#
# Mechanical properties :
#
#
# Convention : Reuss Voigt Hill
#
# Bulk Modulus (GPa) = 32.57093 65.95554 49.26324
# Shear Modulus (GPa) = 22.29833 29.03266 25.66549
#
# Velocity S-wave (km/s) = 3.46895 3.95827 3.72166
# Velocity P-wave (km/s) = 5.79846 7.51560 6.71217
#
# Compressibility (1/GPa) = 0.03070223
#
# Stress axis : x y z
#
# Youngs Moduli (GPa) = 107.41058 100.93538 28.82347
#
# Poissons Ratio (x) = 0.44954 -0.03076
# Poissons Ratio (y) = 0.47837 0.23687
# Poissons Ratio (z) = -0.11462 0.82949
#
# Static dielectric constant tensor:
#      x y z
#    x 3.714650 0.000000 0.000000 
#    y 0.000000 5.231700 0.000000 
#    z 0.000000 0.000000 3.281540 
# 
# 
# High freq. dielectric constant tensor:
#      x y z
#    x 1.710560 0.000000 0.000000 
#    y 0.000000 1.733570 0.000000 
#    z 0.000000 0.000000 1.709480 
# 
# From -- ./inp_files/46861.got.cif
#   From: 2010.03.12/outbox.cif.g09.slc.cpg/sg63_24_cif.got.tgz:46861.got - 2010.04.10 19:34:48.
