data_PCOD8259034
_publ_section_title
;
Structure prediction by ZEFSAII (Michael W. Deem and Ramdas Pophale) SiO2 
 PCOD8259034
Probable space group: C M C M
;
_chemical_formula_sum "Si O2"
_cell_formula_units_Z 88
_cell_length_a 21.845815
_cell_length_b 8.695525
_cell_length_c 21.978486
_cell_angle_alpha 90.000000
_cell_angle_beta 90.000000
_cell_angle_gamma 90.000000
_cell_volume 4175.051453
_symmetry_space_group_name_H-M "C M C M"
_symmetry_group_IT_number 63
_symmetry_cell_setting 'orthorhombic'
loop_
_space_group_symop_operation_xyz
x,y,z
-x,-y,1/2+z
x,-y,-z
-x,y,1/2-z
-x,-y,-z
x,y,1/2-z
-x,y,z
x,-y,1/2+z
1/2+x,1/2+y,z
1/2-x,1/2-y,1/2+z
1/2+x,1/2-y,-z
1/2-x,1/2+y,1/2-z
1/2-x,1/2-y,-z
1/2+x,1/2+y,1/2-z
1/2-x,1/2+y,z
1/2+x,1/2-y,1/2+z
loop_
_atom_site_type_symbol
_atom_site_label
_atom_site_fract_x
_atom_site_fract_y
_atom_site_fract_z
Si Si1 0.814353 0.702382 0.681283
Si Si2 0.635539 0.629768 0.918230
Si Si3 0.569883 0.337167 0.865514
Si Si4 0.288336 0.114188 0.383580
Si Si5 0.239320 0.000000 0.500000
Si Si6 0.068743 0.666515 0.510617
O O1 0.792441 0.669840 0.750000
O O2 0.884162 0.765628 0.684195
O O3 0.773498 0.834859 0.650417
O O4 0.809662 0.549281 0.641476
O O5 0.594357 0.504580 0.884566
O O6 0.656706 0.763420 0.870967
O O7 0.699159 0.570628 0.945887
O O8 0.597202 0.694637 0.973712
O O9 0.500000 0.352821 0.840878
O O10 0.572405 0.214591 0.919718
O O11 0.280790 0.113423 0.458277
O O12 0.101361 0.500000 0.500000
O O13 0.000000 0.650851 0.486615
#
# Coordination Sequence:
#
# PCOD8259034 Si02
#       6
#    16  16  16  16   8  16
#     4  12  25  45  66  90 127 170 220 264 317 384
#     4  12  21  36  62  94 133 168 209 254 324 392
#     4  11  23  41  62  89 124 169 221 266 319 375
#     4  12  25  40  65 100 130 172 208 266 328 388
#     4  12  22  36  63  94 137 162 200 256 326 396
#     4  10  20  34  56  89 129 168 205 255 319 389
#
# _framework density 21.077584000000002
#
# number of rings (size 3 to 8) (size 9 to 14) (size 15 to 20)
#    0.000    0.545    5.455    2.727    3.818    1.818 
#    0.000    1.818    0.000    0.000    0.000    0.000 
#    0.000    0.000    0.000    0.000    0.000    0.000 
#
# Total GULP energy -545441.985406 kJ/mol
# GULP energy per Si atom -12396.408759 kJ/mol
# Density = 2.102961 g / cm^3
# Si number density = 21.077584 Si / 1000 Ang^3
#
#
#
# Elastic Constant Matrix: (Units=GPa)
#
#
# Indices 1 2 3 4 5 6 
#
# 1 97.5478 32.5974 18.5384 0.0000 0.0000 0.0000
# 2 32.5974 96.1785 8.4650 0.0000 0.0000 0.0000
# 3 18.5384 8.4650 70.3991 0.0000 0.0000 0.0000
# 4 0.0000 0.0000 0.0000 13.8863 0.0000 0.0000
# 5 0.0000 0.0000 0.0000 0.0000 16.2307 0.0000
# 6 0.0000 0.0000 0.0000 0.0000 0.0000 30.7582
#
#
#
# Elastic Compliance Matrix: (Units=1/GPa)
#
#
# Indices 1 2 3 4 5 6 
#
# 1 0.012052 -0.003846 -0.002711 0.000000 0.000000 0.000000
# 2 -0.003846 0.011736 -0.000398 0.000000 0.000000 0.000000
# 3 -0.002711 -0.000398 0.014967 0.000000 0.000000 0.000000
# 4 0.000000 0.000000 0.000000 0.072013 0.000000 0.000000
# 5 0.000000 0.000000 0.000000 0.000000 0.061612 0.000000
# 6 0.000000 0.000000 0.000000 0.000000 0.000000 0.032512
#
#
# Mechanical properties :
#
#
# Convention : Reuss Voigt Hill
#
# Bulk Modulus (GPa) = 40.25259 42.59188 41.42223
# Shear Modulus (GPa) = 22.01834 25.81001 23.91418
#
# Velocity S-wave (km/s) = 3.23558 3.50312 3.37200
# Velocity P-wave (km/s) = 5.75304 6.05091 5.90385
#
# Compressibility (1/GPa) = 0.02484312
#
# Stress axis : x y z
#
# Youngs Moduli (GPa) = 82.97465 85.20839 66.81553
#
# Poissons Ratio (x) = 0.32772 0.18115
# Poissons Ratio (y) = 0.31913 0.02662
# Poissons Ratio (z) = 0.22496 0.03394
#
# Static dielectric constant tensor:
#      x y z
#    x 4.029810 0.000000 0.000000 
#    y 0.000000 4.144900 0.000000 
#    z 0.000000 0.000000 3.420770 
# 
# 
# High freq. dielectric constant tensor:
#      x y z
#    x 1.835430 0.000000 0.000000 
#    y 0.000000 1.845270 0.000000 
#    z 0.000000 0.000000 1.787340 
# 
# From -- ./inp_files/64413.got.cif
#   From: 2010.03.12/outbox.cif.g09.slc.cpg/sg63_33_cif.got.tgz:64413.got - 2010.04.10 19:34:48.
