data_PCOD8259575
_publ_section_title
;
Structure prediction by ZEFSAII (Michael W. Deem and Ramdas Pophale) SiO2 
 PCOD8259575
Probable space group: C M C M
;
_chemical_formula_sum "Si O2"
_cell_formula_units_Z 72
_cell_length_a 17.368991
_cell_length_b 23.207363
_cell_length_c 8.796373
_cell_angle_alpha 90.000000
_cell_angle_beta 90.000000
_cell_angle_gamma 90.000000
_cell_volume 3545.716614
_symmetry_space_group_name_H-M "C M C M"
_symmetry_group_IT_number 63
_symmetry_cell_setting 'orthorhombic'
loop_
_space_group_symop_operation_xyz
x,y,z
-x,-y,1/2+z
x,-y,-z
-x,y,1/2-z
-x,-y,-z
x,y,1/2-z
-x,y,z
x,-y,1/2+z
1/2+x,1/2+y,z
1/2-x,1/2-y,1/2+z
1/2+x,1/2-y,-z
1/2-x,1/2+y,1/2-z
1/2-x,1/2-y,-z
1/2+x,1/2+y,1/2-z
1/2-x,1/2+y,z
1/2+x,1/2-y,1/2+z
loop_
_atom_site_type_symbol
_atom_site_label
_atom_site_fract_x
_atom_site_fract_y
_atom_site_fract_z
Si Si1 0.589165 0.635320 0.073464
Si Si2 0.136203 0.631841 0.925526
Si Si3 0.090004 0.255143 0.926488
Si Si4 0.500000 0.937520 0.928746
Si Si5 0.713010 0.559854 0.926389
O O1 0.607048 0.644319 0.250000
O O2 0.500000 0.621623 0.044142
O O3 0.614974 0.692638 0.985067
O O4 0.636014 0.581474 0.008601
O O5 0.111541 0.628694 0.750000
O O6 0.220296 0.606251 0.952706
O O7 0.138328 0.697717 0.980930
O O8 0.075754 0.596438 0.023875
O O9 0.110705 0.259797 0.750000
O O10 0.000000 0.266223 0.956828
O O11 0.500000 0.944442 0.750000
O O12 0.500000 0.000000 0.000000
O O13 0.695382 0.550166 0.750000
O O14 0.739702 0.500000 0.000000
#
# Coordination Sequence:
#
# PCOD8259575 Si02
#       5
#    16  16  16   8  16
#     4  10  22  41  66  93 121 158 201 251 309 367
#     4  11  23  39  61  89 123 163 205 251 302 359
#     4  10  20  36  61  93 126 161 203 251 302 360
#     4  12  24  38  58  86 120 164 211 252 299 356
#     4  11  25  43  63  89 121 160 204 254 308 363
#
# _framework density 20.306191999999999
#
# number of rings (size 3 to 8) (size 9 to 14) (size 15 to 20)
#    0.000    1.333    1.111    4.333    0.000    8.889 
#    0.000    0.000    0.000    0.000    0.000    0.000 
#    0.000    0.000    0.000    0.000    0.000    0.000 
#
# Total GULP energy -446690.142992 kJ/mol
# GULP energy per Si atom -12408.059528 kJ/mol
# Density = 2.025997 g / cm^3
# Si number density = 20.306192 Si / 1000 Ang^3
#
#
#
# Elastic Constant Matrix: (Units=GPa)
#
#
# Indices 1 2 3 4 5 6 
#
# 1 70.4701 29.1714 47.7352 0.0000 0.0000 0.0000
# 2 29.1714 81.0095 38.4799 0.0000 0.0000 0.0000
# 3 47.7352 38.4799 128.1497 0.0000 0.0000 0.0000
# 4 0.0000 0.0000 0.0000 44.0549 0.0000 0.0000
# 5 0.0000 0.0000 0.0000 0.0000 29.2125 0.0000
# 6 0.0000 0.0000 0.0000 0.0000 0.0000 16.8113
#
#
#
# Elastic Compliance Matrix: (Units=1/GPa)
#
#
# Indices 1 2 3 4 5 6 
#
# 1 0.020194 -0.004314 -0.006227 0.000000 0.000000 0.000000
# 2 -0.004314 0.015319 -0.002993 0.000000 0.000000 0.000000
# 3 -0.006227 -0.002993 0.011022 0.000000 0.000000 0.000000
# 4 0.000000 0.000000 0.000000 0.022699 0.000000 0.000000
# 5 0.000000 0.000000 0.000000 0.000000 0.034232 0.000000
# 6 0.000000 0.000000 0.000000 0.000000 0.000000 0.059484
#
#
# Mechanical properties :
#
#
# Convention : Reuss Voigt Hill
#
# Bulk Modulus (GPa) = 51.36834 56.71137 54.03985
# Shear Modulus (GPa) = 25.44441 28.96527 27.20484
#
# Velocity S-wave (km/s) = 3.54367 3.78090 3.66420
# Velocity P-wave (km/s) = 6.48808 6.85923 6.67624
#
# Compressibility (1/GPa) = 0.01946724
#
# Stress axis : x y z
#
# Youngs Moduli (GPa) = 49.51912 65.27655 90.73123
#
# Poissons Ratio (x) = 0.28161 0.56497
# Poissons Ratio (y) = 0.21363 0.27156
# Poissons Ratio (z) = 0.30835 0.19537
#
# Static dielectric constant tensor:
#      x y z
#    x 3.555220 0.000000 0.000000 
#    y 0.000000 3.527210 0.000000 
#    z 0.000000 0.000000 3.857920 
# 
# 
# High freq. dielectric constant tensor:
#      x y z
#    x 1.786260 0.000000 0.000000 
#    y 0.000000 1.803390 0.000000 
#    z 0.000000 0.000000 1.811200 
# 
# From -- ./inp_files/6126.got.cif
#   From: 2010.03.12/outbox.cif.g09.slc.cpg/sg63_4_cif.got.tgz:6126.got - 2010.04.10 19:34:48.
