data_PCOD8259184
_publ_section_title
;
Structure prediction by ZEFSAII (Michael W. Deem and Ramdas Pophale) SiO2 
 PCOD8259184
Probable space group: C M C M
;
_chemical_formula_sum "Si O2"
_cell_formula_units_Z 112
_cell_length_a 14.389790
_cell_length_b 17.102556
_cell_length_c 24.330908
_cell_angle_alpha 90.000000
_cell_angle_beta 90.000000
_cell_angle_gamma 90.000000
_cell_volume 5987.889727
_symmetry_space_group_name_H-M "C M C M"
_symmetry_group_IT_number 63
_symmetry_cell_setting 'orthorhombic'
loop_
_space_group_symop_operation_xyz
x,y,z
-x,-y,1/2+z
x,-y,-z
-x,y,1/2-z
-x,-y,-z
x,y,1/2-z
-x,y,z
x,-y,1/2+z
1/2+x,1/2+y,z
1/2-x,1/2-y,1/2+z
1/2+x,1/2-y,-z
1/2-x,1/2+y,1/2-z
1/2-x,1/2-y,-z
1/2+x,1/2+y,1/2-z
1/2-x,1/2+y,z
1/2+x,1/2-y,1/2+z
loop_
_atom_site_type_symbol
_atom_site_label
_atom_site_fract_x
_atom_site_fract_y
_atom_site_fract_z
Si Si1 0.750007 0.425912 0.186423
Si Si2 0.249994 0.302708 0.404766
Si Si3 0.750004 0.591180 0.010209
Si Si4 0.390751 0.333320 0.589561
Si Si5 0.606176 0.554912 0.188050
Si Si6 0.390754 0.833311 0.910438
Si Si7 0.893825 0.445081 0.688049
O O1 0.750028 0.402209 0.250000
O O2 0.750008 0.345529 0.153497
O O3 0.660806 0.477504 0.170292
O O4 0.839187 0.477521 0.170277
O O5 0.249991 0.366121 0.452286
O O6 0.156852 0.251322 0.409922
O O7 0.343142 0.251329 0.409923
O O8 0.656521 0.613737 0.042876
O O9 0.843481 0.613738 0.042882
O O10 0.750007 0.500000 0.000000
O O11 0.500000 0.324598 0.576946
O O12 0.371222 0.372660 0.648579
O O13 0.633799 0.580705 0.250000
O O14 0.500000 0.530137 0.183626
O O15 0.500000 0.824581 0.923059
O O16 0.371240 0.872644 0.851416
O O17 0.866189 0.419300 0.750000
O O18 0.000000 0.469864 0.683634
#
# Coordination Sequence:
#
# PCOD8259184 Si02
#       7
#    16  16  16  16  16  16  16
#     4  10  20  35  56  80 109 144 179 218 264 310
#     4  11  23  36  53  80 110 139 175 220 265 312
#     4  11  23  39  57  78 106 137 178 226 264 312
#     4  10  21  37  57  80 108 142 176 215 268 321
#     4   9  18  34  56  80 106 139 179 219 259 309
#     4  10  21  37  57  80 108 142 176 215 268 321
#     4   9  18  34  56  80 106 139 179 219 259 309
#
# _framework density 18.704419000000001
#
# number of rings (size 3 to 8) (size 9 to 14) (size 15 to 20)
#    0.000    2.000    0.000    5.143    0.000    5.143 
#    0.000    0.000    0.000    0.000    0.000    0.000 
#    0.000    0.000    0.000    0.000    0.000    0.000 
#
# Total GULP energy -694505.894012 kJ/mol
# GULP energy per Si atom -12401.890964 kJ/mol
# Density = 1.866185 g / cm^3
# Si number density = 18.704419 Si / 1000 Ang^3
#
#
#
# Elastic Constant Matrix: (Units=GPa)
#
#
# Indices 1 2 3 4 5 6 
#
# 1 135.7304 66.9610 53.4390 0.0000 0.0000 0.0000
# 2 66.9610 153.8875 73.1963 0.0000 0.0000 0.0000
# 3 53.4390 73.1963 103.6426 0.0000 0.0000 0.0000
# 4 0.0000 0.0000 0.0000 41.7651 0.0000 0.0000
# 5 0.0000 0.0000 0.0000 0.0000 26.8406 0.0000
# 6 0.0000 0.0000 0.0000 0.0000 0.0000 16.2073
#
#
#
# Elastic Compliance Matrix: (Units=1/GPa)
#
#
# Indices 1 2 3 4 5 6 
#
# 1 0.010018 -0.002864 -0.003142 0.000000 0.000000 0.000000
# 2 -0.002864 0.010604 -0.006012 0.000000 0.000000 0.000000
# 3 -0.003142 -0.006012 0.015515 0.000000 0.000000 0.000000
# 4 0.000000 0.000000 0.000000 0.023943 0.000000 0.000000
# 5 0.000000 0.000000 0.000000 0.000000 0.037257 0.000000
# 6 0.000000 0.000000 0.000000 0.000000 0.000000 0.061701
#
#
# Mechanical properties :
#
#
# Convention : Reuss Voigt Hill
#
# Bulk Modulus (GPa) = 82.65141 86.71704 84.68423
# Shear Modulus (GPa) = 26.72233 30.27352 28.49793
#
# Velocity S-wave (km/s) = 3.78387 4.02745 3.90756
# Velocity P-wave (km/s) = 7.96080 8.25164 8.10752
#
# Compressibility (1/GPa) = 0.01209901
#
# Stress axis : x y z
#
# Youngs Moduli (GPa) = 99.82173 94.30062 64.45432
#
# Poissons Ratio (x) = 0.27012 0.20254
# Poissons Ratio (y) = 0.28593 0.38752
# Poissons Ratio (z) = 0.31367 0.56696
#
# Static dielectric constant tensor:
#      x y z
#    x 3.572590 0.000000 0.000000 
#    y 0.000000 3.273870 0.000000 
#    z 0.000000 0.000000 3.642960 
# 
# 
# High freq. dielectric constant tensor:
#      x y z
#    x 1.737680 0.000000 0.000000 
#    y 0.000000 1.716880 0.000000 
#    z 0.000000 0.000000 1.739130 
# 
# From -- ./inp_files/69404.got.cif
#   From: 2010.03.12/outbox.cif.g09.slc.cpg/sg63_35_cif.got.tgz:69404.got - 2010.04.10 19:34:48.
