data_PCOD8259711
_publ_section_title
;
Structure prediction by ZEFSAII (Michael W. Deem and Ramdas Pophale) SiO2 
 PCOD8259711
Probable space group: C M C M
;
_chemical_formula_sum "Si O2"
_cell_formula_units_Z 96
_cell_length_a 23.327168
_cell_length_b 25.161054
_cell_length_c 8.934803
_cell_angle_alpha 90.000000
_cell_angle_beta 90.000000
_cell_angle_gamma 90.000000
_cell_volume 5244.158728
_symmetry_space_group_name_H-M "C M C M"
_symmetry_group_IT_number 63
_symmetry_cell_setting 'orthorhombic'
loop_
_space_group_symop_operation_xyz
x,y,z
-x,-y,1/2+z
x,-y,-z
-x,y,1/2-z
-x,-y,-z
x,y,1/2-z
-x,y,z
x,-y,1/2+z
1/2+x,1/2+y,z
1/2-x,1/2-y,1/2+z
1/2+x,1/2-y,-z
1/2-x,1/2+y,1/2-z
1/2-x,1/2-y,-z
1/2+x,1/2+y,1/2-z
1/2-x,1/2+y,z
1/2+x,1/2-y,1/2+z
loop_
_atom_site_type_symbol
_atom_site_label
_atom_site_fract_x
_atom_site_fract_y
_atom_site_fract_z
Si Si1 0.623223 0.348245 0.575689
Si Si2 0.182513 0.554706 0.574869
Si Si3 0.117896 0.648108 0.079179
Si Si4 0.813545 0.944711 0.426514
Si Si5 0.000000 0.808652 0.580129
Si Si6 0.500000 0.803395 0.927117
Si Si7 0.189475 0.753927 0.421883
O O1 0.639207 0.352482 0.750000
O O2 0.645770 0.399524 0.490411
O O3 0.555149 0.345237 0.548550
O O4 0.650812 0.295450 0.509363
O O5 0.162952 0.500000 0.500000
O O6 0.176153 0.547418 0.750000
O O7 0.140458 0.600690 0.521938
O O8 0.247878 0.568961 0.530307
O O9 0.113055 0.628359 0.250000
O O10 0.161130 0.696723 0.067271
O O11 0.056104 0.665684 0.014842
O O12 0.821893 0.949010 0.250000
O O13 0.832423 0.000000 0.500000
O O14 0.000000 0.757189 0.477567
O O15 0.000000 0.787802 0.750000
O O16 0.500000 0.800883 0.750000
O O17 0.196460 0.772431 0.250000
O O18 0.250000 0.750000 0.500000
#
# Coordination Sequence:
#
# PCOD8259711 Si02
#       7
#    16  16  16  16   8   8  16
#     4  11  22  37  57  83 115 150 191 236 282 338
#     4  10  21  37  59  84 113 146 184 229 280 337
#     4  10  21  36  56  81 111 146 187 231 279 332
#     4  10  21  38  60  86 114 149 189 233 287 342
#     4  10  22  38  57  82 113 152 193 237 283 331
#     4  10  20  38  59  80 109 150 193 235 279 333
#     4  11  22  35  54  82 115 149 185 232 287 342
#
# _framework density 18.306083000000001
#
# number of rings (size 3 to 8) (size 9 to 14) (size 15 to 20)
#    0.000    1.667    1.667    3.000    0.000    7.333 
#    0.000    0.833    0.000    0.000    0.000    0.000 
#    0.000    0.000    0.000    0.000    0.000    0.000 
#
# Total GULP energy -595405.879434 kJ/mol
# GULP energy per Si atom -12404.289155 kJ/mol
# Density = 1.826442 g / cm^3
# Si number density = 18.306083 Si / 1000 Ang^3
#
#
#
# Elastic Constant Matrix: (Units=GPa)
#
#
# Indices 1 2 3 4 5 6 
#
# 1 104.9496 36.9537 34.0005 0.0000 0.0000 0.0000
# 2 36.9537 101.1596 40.5782 0.0000 0.0000 0.0000
# 3 34.0005 40.5782 77.0051 0.0000 0.0000 0.0000
# 4 0.0000 0.0000 0.0000 39.3893 0.0000 0.0000
# 5 0.0000 0.0000 0.0000 0.0000 27.4756 0.0000
# 6 0.0000 0.0000 0.0000 0.0000 0.0000 353.6903
#
#
#
# Elastic Compliance Matrix: (Units=1/GPa)
#
#
# Indices 1 2 3 4 5 6 
#
# 1 0.011710 -0.002794 -0.003698 0.000000 0.000000 0.000000
# 2 -0.002794 0.013202 -0.005723 0.000000 0.000000 0.000000
# 3 -0.003698 -0.005723 0.017635 0.000000 0.000000 0.000000
# 4 0.000000 0.000000 0.000000 0.025388 0.000000 0.000000
# 5 0.000000 0.000000 0.000000 0.000000 0.036396 0.000000
# 6 0.000000 0.000000 0.000000 0.000000 0.000000 0.002827
#
#
# Mechanical properties :
#
#
# Convention : Reuss Voigt Hill
#
# Bulk Modulus (GPa) = 55.19935 56.24211 55.72073
# Shear Modulus (GPa) = 36.33003 95.54983 65.93993
#
# Velocity S-wave (km/s) = 4.45970 7.23250 6.00824
# Velocity P-wave (km/s) = 7.53244 10.02672 8.86772
#
# Compressibility (1/GPa) = 0.01811615
#
# Stress axis : x y z
#
# Youngs Moduli (GPa) = 85.39441 75.74716 56.70643
#
# Poissons Ratio (x) = 0.21167 0.20970
# Poissons Ratio (y) = 0.23863 0.32453
# Poissons Ratio (z) = 0.31579 0.43349
#
# Static dielectric constant tensor:
#      x y z
#    x 3.489920 0.000000 0.000000 
#    y 0.000000 3.340020 0.000000 
#    z 0.000000 0.000000 3.513720 
# 
# 
# High freq. dielectric constant tensor:
#      x y z
#    x 1.713280 0.000000 0.000000 
#    y 0.000000 1.709820 0.000000 
#    z 0.000000 0.000000 1.721120 
# 
# From -- ./inp_files/10539.got.cif
#   From: 2010.03.12/outbox.cif.g09.slc.cpg/sg63_6_cif.got.tgz:10539.got - 2010.04.10 19:34:48.
