data_PCOD8259144
_publ_section_title
;
Structure prediction by ZEFSAII (Michael W. Deem and Ramdas Pophale) SiO2 
 PCOD8259144
Probable space group: C M C M
;
_chemical_formula_sum "Si O2"
_cell_formula_units_Z 88
_cell_length_a 22.215250
_cell_length_b 24.629348
_cell_length_c 8.691835
_cell_angle_alpha 90.000000
_cell_angle_beta 90.000000
_cell_angle_gamma 90.000000
_cell_volume 4755.712515
_symmetry_space_group_name_H-M "C M C M"
_symmetry_group_IT_number 63
_symmetry_cell_setting 'orthorhombic'
loop_
_space_group_symop_operation_xyz
x,y,z
-x,-y,1/2+z
x,-y,-z
-x,y,1/2-z
-x,-y,-z
x,y,1/2-z
-x,y,z
x,-y,1/2+z
1/2+x,1/2+y,z
1/2-x,1/2-y,1/2+z
1/2+x,1/2-y,-z
1/2-x,1/2+y,1/2-z
1/2-x,1/2-y,-z
1/2+x,1/2+y,1/2-z
1/2-x,1/2+y,z
1/2+x,1/2-y,1/2+z
loop_
_atom_site_type_symbol
_atom_site_label
_atom_site_fract_x
_atom_site_fract_y
_atom_site_fract_z
Si Si1 0.110325 0.375298 0.930647
Si Si2 0.430638 0.344769 0.430044
Si Si3 0.500000 0.059624 0.931778
Si Si4 0.287541 0.057150 0.568072
Si Si5 0.149441 0.943678 0.069552
Si Si6 0.070408 0.268153 0.428004
O O1 0.103239 0.384042 0.750000
O O2 0.058961 0.408632 0.016710
O O3 0.175085 0.395230 0.988292
O O4 0.106226 0.311903 0.971531
O O5 0.419867 0.334910 0.250000
O O6 0.500000 0.357959 0.466037
O O7 0.391262 0.394672 0.494143
O O8 0.408808 0.291387 0.519676
O O9 0.500000 0.055528 0.750000
O O10 0.500000 0.000000 0.000000
O O11 0.297888 0.057409 0.750000
O O12 0.218328 0.067314 0.522265
O O13 0.310165 0.000000 0.500000
O O14 0.142038 0.948495 0.250000
O O15 0.125744 0.000000 0.000000
O O16 0.086117 0.276528 0.250000
O O17 0.000000 0.276077 0.460661
#
# Coordination Sequence:
#
# PCOD8259144 Si02
#       6
#    16  16   8  16  16  16
#     4  12  23  36  55  79 106 141 183 224 273 322
#     4   9  18  34  56  82 112 143 178 221 271 325
#     4  12  24  38  54  78 110 142 179 226 273 318
#     4  10  20  36  55  76 106 143 184 225 270 323
#     4   9  19  35  56  81 110 145 180 220 270 325
#     4  10  20  35  55  79 108 142 180 223 272 323
#
# _framework density 18.504062999999999
#
# number of rings (size 3 to 8) (size 9 to 14) (size 15 to 20)
#    0.000    1.818    0.909    4.091    0.000    2.545 
#    0.000    0.909    0.000    0.000    0.000    0.000 
#    0.000    0.000    0.000    0.000    0.000    0.000 
#
# Total GULP energy -545814.169503 kJ/mol
# GULP energy per Si atom -12404.867489 kJ/mol
# Density = 1.846195 g / cm^3
# Si number density = 18.504063 Si / 1000 Ang^3
#
#
#
# Elastic Constant Matrix: (Units=GPa)
#
#
# Indices 1 2 3 4 5 6 
#
# 1 74.5983 68.4705 34.2572 0.0000 0.0000 0.0000
# 2 68.4705 155.9767 50.8903 0.0000 0.0000 0.0000
# 3 34.2572 50.8903 93.8808 0.0000 0.0000 0.0000
# 4 0.0000 0.0000 0.0000 35.2171 0.0000 0.0000
# 5 0.0000 0.0000 0.0000 0.0000 21.9830 0.0000
# 6 0.0000 0.0000 0.0000 0.0000 0.0000 34.6826
#
#
#
# Elastic Compliance Matrix: (Units=1/GPa)
#
#
# Indices 1 2 3 4 5 6 
#
# 1 0.023417 -0.009101 -0.003611 0.000000 0.000000 0.000000
# 2 -0.009101 0.011326 -0.002818 0.000000 0.000000 0.000000
# 3 -0.003611 -0.002818 0.013497 0.000000 0.000000 0.000000
# 4 0.000000 0.000000 0.000000 0.028395 0.000000 0.000000
# 5 0.000000 0.000000 0.000000 0.000000 0.045490 0.000000
# 6 0.000000 0.000000 0.000000 0.000000 0.000000 0.028833
#
#
# Mechanical properties :
#
#
# Convention : Reuss Voigt Hill
#
# Bulk Modulus (GPa) = 58.21285 70.18798 64.20041
# Shear Modulus (GPa) = 26.63153 29.76575 28.19864
#
# Velocity S-wave (km/s) = 3.79783 4.01509 3.90797
# Velocity P-wave (km/s) = 7.12454 7.71415 7.42520
#
# Compressibility (1/GPa) = 0.01717834
#
# Stress axis : x y z
#
# Youngs Moduli (GPa) = 42.70336 88.29137 74.08827
#
# Poissons Ratio (x) = 0.80358 0.26756
# Poissons Ratio (y) = 0.38866 0.20882
# Poissons Ratio (z) = 0.15422 0.24885
#
# Static dielectric constant tensor:
#      x y z
#    x 3.526980 0.000000 0.000000 
#    y 0.000000 3.578530 0.000000 
#    z 0.000000 0.000000 3.451710 
# 
# 
# High freq. dielectric constant tensor:
#      x y z
#    x 1.704470 0.000000 0.000000 
#    y 0.000000 1.725570 0.000000 
#    z 0.000000 0.000000 1.725450 
# 
# From -- ./inp_files/8164.got.cif
#   From: 2010.03.12/outbox.cif.g09.slc.cpg/sg63_5_cif.got.tgz:8164.got - 2010.04.10 19:34:48.
