data_PCOD8259094
_publ_section_title
;
Structure prediction by ZEFSAII (Michael W. Deem and Ramdas Pophale) SiO2 
 PCOD8259094
Probable space group: C M C M
;
_chemical_formula_sum "Si O2"
_cell_formula_units_Z 104
_cell_length_a 19.184198
_cell_length_b 30.062032
_cell_length_c 9.231230
_cell_angle_alpha 90.000000
_cell_angle_beta 90.000000
_cell_angle_gamma 90.000000
_cell_volume 5323.797802
_symmetry_space_group_name_H-M "C M C M"
_symmetry_group_IT_number 63
_symmetry_cell_setting 'orthorhombic'
loop_
_space_group_symop_operation_xyz
x,y,z
-x,-y,1/2+z
x,-y,-z
-x,y,1/2-z
-x,-y,-z
x,y,1/2-z
-x,y,z
x,-y,1/2+z
1/2+x,1/2+y,z
1/2-x,1/2-y,1/2+z
1/2+x,1/2-y,-z
1/2-x,1/2+y,1/2-z
1/2-x,1/2-y,-z
1/2+x,1/2+y,1/2-z
1/2-x,1/2+y,z
1/2+x,1/2-y,1/2+z
loop_
_atom_site_type_symbol
_atom_site_label
_atom_site_fract_x
_atom_site_fract_y
_atom_site_fract_z
Si Si1 0.079961 0.194974 0.420755
Si Si2 0.000000 0.956175 0.088183
Si Si3 0.195208 0.874949 0.585618
Si Si4 0.649827 0.546233 0.582305
Si Si5 0.853229 0.628151 0.083456
Si Si6 0.918731 0.454115 0.079458
Si Si7 0.581938 0.218223 0.088583
O O1 0.083926 0.200868 0.250000
O O2 0.135743 0.158332 0.474555
O O3 0.106433 0.241058 0.489224
O O4 0.000000 0.182617 0.468052
O O5 0.927359 0.930841 0.058663
O O6 0.000000 0.974152 0.250000
O O7 0.000000 0.000000 0.000000
O O8 0.176024 0.888143 0.750000
O O9 0.201577 0.918936 0.488133
O O10 0.272877 0.855949 0.574178
O O11 0.656620 0.500000 0.500000
O O12 0.668033 0.538672 0.750000
O O13 0.873750 0.617104 0.250000
O O14 0.894231 0.671018 0.022960
O O15 0.872352 0.585627 0.986113
O O16 0.902504 0.458902 0.250000
O O17 0.000000 0.443423 0.052021
O O18 0.897600 0.500000 0.000000
O O19 0.613549 0.224444 0.250000
O O20 0.500000 0.217776 0.095239
#
# Coordination Sequence:
#
# PCOD8259094 Si02
#       7
#    16   8  16  16  16  16  16
#     4   9  19  36  56  79 108 142 180 226 278 327
#     4   8  16  30  48  72  96 122 164 216 266 312
#     4  10  22  37  53  78 110 147 187 226 273 327
#     4  10  20  35  54  76 103 137 178 224 272 323
#     4  10  21  37  56  80 113 149 186 226 270 324
#     4  10  21  37  59  87 116 147 185 227 272 323
#     4   9  18  34  57  82 106 137 177 222 273 327
#
# _framework density 19.534927
#
# number of rings (size 3 to 8) (size 9 to 14) (size 15 to 20)
#    0.000    2.462    0.000    1.385    1.077    5.231 
#    0.000    1.538    0.000    0.000    0.000    0.000 
#    0.000    0.000    0.000    0.000    0.000    0.000 
#
# Total GULP energy -644441.423762 kJ/mol
# GULP energy per Si atom -12393.104303 kJ/mol
# Density = 1.949046 g / cm^3
# Si number density = 19.534927 Si / 1000 Ang^3
#
#
#
# Elastic Constant Matrix: (Units=GPa)
#
#
# Indices 1 2 3 4 5 6 
#
# 1 53.0807 45.1033 30.3175 0.0000 0.0000 0.0000
# 2 45.1033 134.8646 57.9999 0.0000 0.0000 0.0000
# 3 30.3175 57.9999 80.5855 0.0000 0.0000 0.0000
# 4 0.0000 0.0000 0.0000 37.0310 0.0000 0.0000
# 5 0.0000 0.0000 0.0000 0.0000 21.5911 0.0000
# 6 0.0000 0.0000 0.0000 0.0000 0.0000 22.1455
#
#
#
# Elastic Compliance Matrix: (Units=1/GPa)
#
#
# Indices 1 2 3 4 5 6 
#
# 1 0.027891 -0.006974 -0.005474 0.000000 0.000000 0.000000
# 2 -0.006974 0.012482 -0.006360 0.000000 0.000000 0.000000
# 3 -0.005474 -0.006360 0.019046 0.000000 0.000000 0.000000
# 4 0.000000 0.000000 0.000000 0.027004 0.000000 0.000000
# 5 0.000000 0.000000 0.000000 0.000000 0.046315 0.000000
# 6 0.000000 0.000000 0.000000 0.000000 0.000000 0.045156
#
#
# Mechanical properties :
#
#
# Convention : Reuss Voigt Hill
#
# Bulk Modulus (GPa) = 45.86307 59.48580 52.67443
# Shear Modulus (GPa) = 22.44367 25.16086 23.80226
#
# Velocity S-wave (km/s) = 3.39322 3.59276 3.49441
# Velocity P-wave (km/s) = 6.23541 6.90852 6.58058
#
# Compressibility (1/GPa) = 0.02180403
#
# Stress axis : x y z
#
# Youngs Moduli (GPa) = 35.85337 80.11264 52.50346
#
# Poissons Ratio (x) = 0.55868 0.28740
# Poissons Ratio (y) = 0.25003 0.33394
# Poissons Ratio (z) = 0.19626 0.50955
#
# Static dielectric constant tensor:
#      x y z
#    x 3.671580 0.000000 0.000000 
#    y 0.000000 3.423630 0.000000 
#    z 0.000000 0.000000 3.649360 
# 
# 
# High freq. dielectric constant tensor:
#      x y z
#    x 1.760820 0.000000 0.000000 
#    y 0.000000 1.752410 0.000000 
#    z 0.000000 0.000000 1.758310 
# 
# From -- ./inp_files/8830.got.cif
#   From: 2010.03.12/outbox.cif.g09.slc.cpg/sg63_5_cif.got.tgz:8830.got - 2010.04.10 19:34:48.
