data_PCOD8259937
_publ_section_title
;
Structure prediction by ZEFSAII (Michael W. Deem and Ramdas Pophale) SiO2 
 PCOD8259937
Probable space group: C M C M
;
_chemical_formula_sum "Si O2"
_cell_formula_units_Z 64
_cell_length_a 22.265064
_cell_length_b 11.256868
_cell_length_c 13.840329
_cell_angle_alpha 90.000000
_cell_angle_beta 90.000000
_cell_angle_gamma 90.000000
_cell_volume 3468.869287
_symmetry_space_group_name_H-M "C M C M"
_symmetry_group_IT_number 63
_symmetry_cell_setting 'orthorhombic'
loop_
_space_group_symop_operation_xyz
x,y,z
-x,-y,1/2+z
x,-y,-z
-x,y,1/2-z
-x,-y,-z
x,y,1/2-z
-x,y,z
x,-y,1/2+z
1/2+x,1/2+y,z
1/2-x,1/2-y,1/2+z
1/2+x,1/2-y,-z
1/2-x,1/2+y,1/2-z
1/2-x,1/2-y,-z
1/2+x,1/2+y,1/2-z
1/2-x,1/2+y,z
1/2+x,1/2-y,1/2+z
loop_
_atom_site_type_symbol
_atom_site_label
_atom_site_fract_x
_atom_site_fract_y
_atom_site_fract_z
Si Si1 0.393717 0.452611 0.359662
Si Si2 0.331407 0.863470 0.483699
Si Si3 0.278907 0.695057 0.860138
Si Si4 0.067915 0.817956 0.538102
O O1 0.415913 0.433532 0.250000
O O2 0.324043 0.416352 0.372073
O O3 0.400223 0.589710 0.389245
O O4 0.434052 0.370997 0.429501
O O5 0.302522 0.807570 0.579838
O O6 0.285894 0.847955 0.394967
O O7 0.394581 0.802867 0.457224
O O8 0.345911 0.000000 0.500000
O O9 0.274318 0.737586 0.750000
O O10 0.000000 0.791857 0.571515
#
# Coordination Sequence:
#
# PCOD8259937 Si02
#       4
#    16  16  16  16
#     4   9  18  34  57  83 106 136 181 232 279 315
#     4  10  22  36  54  79 111 146 181 221 266 327
#     4   9  20  36  57  81 108 140 179 227 280 325
#     4  10  21  35  53  80 112 145 183 222 265 319
#
# _framework density 18.449815999999998
#
# number of rings (size 3 to 8) (size 9 to 14) (size 15 to 20)
#    0.000    2.500    0.000    1.500   10.500    4.500 
#    0.000    0.000    0.000    0.000    0.000    7.000 
#    0.000    0.000    0.000    0.000    0.000    0.000 
#
# Total GULP energy -396854.380813 kJ/mol
# GULP energy per Si atom -12401.699400 kJ/mol
# Density = 1.840782 g / cm^3
# Si number density = 18.449816 Si / 1000 Ang^3
#
#
#
# Elastic Constant Matrix: (Units=GPa)
#
#
# Indices 1 2 3 4 5 6 
#
# 1 114.6479 69.3116 42.4005 0.0000 0.0000 0.0000
# 2 69.3116 136.0229 25.9967 0.0000 0.0000 0.0000
# 3 42.4005 25.9967 102.7695 0.0000 0.0000 0.0000
# 4 0.0000 0.0000 0.0000 15.5954 0.0000 0.0000
# 5 0.0000 0.0000 0.0000 0.0000 17.5731 0.0000
# 6 0.0000 0.0000 0.0000 0.0000 0.0000 19.0006
#
#
#
# Elastic Compliance Matrix: (Units=1/GPa)
#
#
# Indices 1 2 3 4 5 6 
#
# 1 0.014156 -0.006407 -0.004220 0.000000 0.000000 0.000000
# 2 -0.006407 0.010625 -0.000044 0.000000 0.000000 0.000000
# 3 -0.004220 -0.000044 0.011483 0.000000 0.000000 0.000000
# 4 0.000000 0.000000 0.000000 0.064121 0.000000 0.000000
# 5 0.000000 0.000000 0.000000 0.000000 0.056905 0.000000
# 6 0.000000 0.000000 0.000000 0.000000 0.000000 0.052630
#
#
# Mechanical properties :
#
#
# Convention : Reuss Voigt Hill
#
# Bulk Modulus (GPa) = 67.01666 69.87311 68.44488
# Shear Modulus (GPa) = 21.16518 24.81592 22.99055
#
# Velocity S-wave (km/s) = 3.39067 3.67147 3.53386
# Velocity P-wave (km/s) = 7.19246 7.47844 7.33685
#
# Compressibility (1/GPa) = 0.01492166
#
# Stress axis : x y z
#
# Youngs Moduli (GPa) = 70.63913 94.11833 87.08700
#
# Poissons Ratio (x) = 0.60302 0.36750
# Poissons Ratio (y) = 0.45259 0.00386
# Poissons Ratio (z) = 0.29809 0.00417
#
# Static dielectric constant tensor:
#      x y z
#    x 3.350570 0.000000 0.000000 
#    y 0.000000 3.191740 0.000000 
#    z 0.000000 0.000000 3.507670 
# 
# 
# High freq. dielectric constant tensor:
#      x y z
#    x 1.713840 0.000000 0.000000 
#    y 0.000000 1.697880 0.000000 
#    z 0.000000 0.000000 1.717020 
# 
# From -- ./inp_files/33366.got.cif
#   From: 2010.03.12/outbox.cif.g09.slc.cpg/sg63_17_cif.got.tgz:33366.got - 2010.04.10 19:34:48.
