data_PCOD8259444
_publ_section_title
;
Structure prediction by ZEFSAII (Michael W. Deem and Ramdas Pophale) SiO2 
 PCOD8259444
Probable space group: C M C M
;
_chemical_formula_sum "Si O2"
_cell_formula_units_Z 96
_cell_length_a 15.625462
_cell_length_b 23.674517
_cell_length_c 13.496341
_cell_angle_alpha 90.000000
_cell_angle_beta 90.000000
_cell_angle_gamma 90.000000
_cell_volume 4992.637531
_symmetry_space_group_name_H-M "C M C M"
_symmetry_group_IT_number 63
_symmetry_cell_setting 'orthorhombic'
loop_
_space_group_symop_operation_xyz
x,y,z
-x,-y,1/2+z
x,-y,-z
-x,y,1/2-z
-x,-y,-z
x,y,1/2-z
-x,y,z
x,-y,1/2+z
1/2+x,1/2+y,z
1/2-x,1/2-y,1/2+z
1/2+x,1/2-y,-z
1/2-x,1/2+y,1/2-z
1/2-x,1/2-y,-z
1/2+x,1/2+y,1/2-z
1/2-x,1/2+y,z
1/2+x,1/2-y,1/2+z
loop_
_atom_site_type_symbol
_atom_site_label
_atom_site_fract_x
_atom_site_fract_y
_atom_site_fract_z
Si Si1 0.753738 0.463473 0.634234
Si Si2 0.097146 0.551364 0.636629
Si Si3 0.905836 0.962893 0.132721
Si Si4 0.187498 0.365042 0.000227
Si Si5 0.339965 0.656517 0.634962
Si Si6 0.402522 0.222110 0.139059
O O1 0.746755 0.449148 0.750000
O O2 0.837167 0.501249 0.611624
O O3 0.668760 0.495469 0.594011
O O4 0.762076 0.405938 0.574395
O O5 0.111008 0.571555 0.750000
O O6 0.114019 0.603025 0.562313
O O7 0.000000 0.529411 0.620944
O O8 0.903556 0.963703 0.250000
O O9 0.889623 0.898939 0.096184
O O10 0.000000 0.982521 0.094595
O O11 0.251560 0.336932 0.077484
O O12 0.149292 0.313820 0.939099
O O13 0.317158 0.649752 0.750000
O O14 0.397067 0.711465 0.613899
O O15 0.366749 0.210863 0.250000
O O16 0.500000 0.202803 0.132871
#
# Coordination Sequence:
#
# PCOD8259444 Si02
#       6
#    16  16  16  16  16  16
#     4  10  21  36  53  80 116 150 186 226 277 337
#     4  10  21  36  54  78 111 151 192 229 272 331
#     4   9  17  33  57  81 108 145 184 226 275 327
#     4  12  21  34  56  83 113 145 181 232 284 341
#     4  10  20  36  58  81 108 143 185 234 279 329
#     4  10  22  39  57  80 109 145 191 236 281 334
#
# _framework density 19.228313
#
# number of rings (size 3 to 8) (size 9 to 14) (size 15 to 20)
#    0.000    1.833    1.667    3.000    0.000    4.000 
#    0.000    4.167    0.000    0.000    0.000    0.000 
#    0.000    0.000    0.000    0.000    0.000    0.000 
#
# Total GULP energy -595188.624592 kJ/mol
# GULP energy per Si atom -12399.763012 kJ/mol
# Density = 1.918455 g / cm^3
# Si number density = 19.228313 Si / 1000 Ang^3
#
#
#
# Elastic Constant Matrix: (Units=GPa)
#
#
# Indices 1 2 3 4 5 6 
#
# 1 129.5389 31.5948 26.2761 0.0000 0.0000 0.0000
# 2 31.5948 80.4745 34.7837 0.0000 0.0000 0.0000
# 3 26.2761 34.7837 68.9042 0.0000 0.0000 0.0000
# 4 0.0000 0.0000 0.0000 28.9513 0.0000 0.0000
# 5 0.0000 0.0000 0.0000 0.0000 -2.1886 0.0000
# 6 0.0000 0.0000 0.0000 0.0000 0.0000 139.3106
#
#
#
# Elastic Compliance Matrix: (Units=1/GPa)
#
#
# Indices 1 2 3 4 5 6 
#
# 1 0.008758 -0.002552 -0.002052 0.000000 0.000000 0.000000
# 2 -0.002552 0.016638 -0.007426 0.000000 0.000000 0.000000
# 3 -0.002052 -0.007426 0.019044 0.000000 0.000000 0.000000
# 4 0.000000 0.000000 0.000000 0.034541 0.000000 0.000000
# 5 0.000000 0.000000 0.000000 0.000000 -0.456904 0.000000
# 6 0.000000 0.000000 0.000000 0.000000 0.000000 0.007178
#
#
# Mechanical properties :
#
#
# Convention : Reuss Voigt Hill
#
# Bulk Modulus (GPa) = 49.06445 51.58074 50.32260
# Shear Modulus (GPa) = -14.71055 45.63220 15.46083
#
# Velocity S-wave (km/s) = -2.76895 4.87681 2.83868
# Velocity P-wave (km/s) = 3.91783 7.65472 6.08047
#
# Compressibility (1/GPa) = 0.02038135
#
# Stress axis : x y z
#
# Youngs Moduli (GPa) = 114.17824 60.10404 52.50995
#
# Poissons Ratio (x) = 0.15337 0.10774
# Poissons Ratio (y) = 0.29135 0.38993
# Poissons Ratio (z) = 0.23427 0.44633
#
# Static dielectric constant tensor:
#      x y z
#    x 3.693440 0.000000 0.000000 
#    y 0.000000 3.350630 0.000000 
#    z 0.000000 0.000000 3.602280 
# 
# 
# High freq. dielectric constant tensor:
#      x y z
#    x 1.750760 0.000000 0.000000 
#    y 0.000000 1.732060 0.000000 
#    z 0.000000 0.000000 1.758190 
# 
# From -- ./inp_files/31901.got.cif
#   From: 2010.03.12/outbox.cif.g09.slc.cpg/sg63_16_cif.got.tgz:31901.got - 2010.04.10 19:34:48.
