data_PCOD8259864
_publ_section_title
;
Structure prediction by ZEFSAII (Michael W. Deem and Ramdas Pophale) SiO2 
 PCOD8259864
Probable space group: C M C M
;
_chemical_formula_sum "Si O2"
_cell_formula_units_Z 80
_cell_length_a 23.117364
_cell_length_b 21.696609
_cell_length_c 9.703380
_cell_angle_alpha 90.000000
_cell_angle_beta 90.000000
_cell_angle_gamma 90.000000
_cell_volume 4866.908857
_symmetry_space_group_name_H-M "C M C M"
_symmetry_group_IT_number 63
_symmetry_cell_setting 'orthorhombic'
loop_
_space_group_symop_operation_xyz
x,y,z
-x,-y,1/2+z
x,-y,-z
-x,y,1/2-z
-x,-y,-z
x,y,1/2-z
-x,y,z
x,-y,1/2+z
1/2+x,1/2+y,z
1/2-x,1/2-y,1/2+z
1/2+x,1/2-y,-z
1/2-x,1/2+y,1/2-z
1/2-x,1/2-y,-z
1/2+x,1/2+y,1/2-z
1/2-x,1/2+y,z
1/2+x,1/2-y,1/2+z
loop_
_atom_site_type_symbol
_atom_site_label
_atom_site_fract_x
_atom_site_fract_y
_atom_site_fract_z
Si Si1 0.218168 0.802599 0.087241
Si Si2 0.500000 0.883860 0.250000
Si Si3 0.673738 0.868532 0.465080
Si Si4 0.376771 0.263348 0.903007
Si Si5 0.619138 0.048000 0.750000
Si Si6 0.500000 0.161313 0.250000
Si Si7 0.622728 0.902375 0.750000
Si Si8 0.000000 0.276483 0.035341
O O1 0.212829 0.787145 0.250000
O O2 0.256782 0.863778 0.061869
O O3 0.250000 0.750000 0.000000
O O4 0.154479 0.806424 0.018245
O O5 0.446332 0.929566 0.250000
O O6 0.500000 0.841232 0.384299
O O7 0.643123 0.807676 0.406417
O O8 0.651137 0.928338 0.386294
O O9 0.658420 0.874760 0.623894
O O10 0.362914 0.289057 0.750000
O O11 0.445143 0.265547 0.928322
O O12 0.622256 0.975274 0.750000
O O13 0.443541 0.118759 0.250000
O O14 0.500000 0.207582 0.376335
#
# Coordination Sequence:
#
# PCOD8259864 Si02
#       8
#    16   4  16  16   8   4   8   8
#     4  10  21  32  52  74  94 123 162 209 258 308
#     4  12  19  36  54  60  96 142 178 212 261 282
#     4  11  20  36  49  68  99 126 165 219 259 297
#     4  11  20  34  53  73  96 131 168 201 254 310
#     4  12  21  38  50  69  93 139 179 222 253 292
#     4  12  23  36  42  76 100 134 174 232 241 282
#     4  12  25  32  52  71  97 133 185 218 255 284
#     4  12  20  32  53  70 106 136 165 208 258 295
#
# _framework density 16.437539000000001
#
# number of rings (size 3 to 8) (size 9 to 14) (size 15 to 20)
#    0.000    0.800    7.000    2.700    8.400    0.000 
#    0.000    3.000    0.000    0.000    0.000    0.000 
#    0.000    0.000    0.000    5.400    0.000    0.100 
#
# Total GULP energy -495908.448290 kJ/mol
# GULP energy per Si atom -12397.711207 kJ/mol
# Density = 1.640013 g / cm^3
# Si number density = 16.437539 Si / 1000 Ang^3
#
#
#
# Elastic Constant Matrix: (Units=GPa)
#
#
# Indices 1 2 3 4 5 6 
#
# 1 125.2011 37.0272 51.1832 0.0000 0.0000 0.0000
# 2 37.0272 31.3854 25.8132 0.0000 0.0000 0.0000
# 3 51.1832 25.8132 163.1621 0.0000 0.0000 0.0000
# 4 0.0000 0.0000 0.0000 9.5079 0.0000 0.0000
# 5 0.0000 0.0000 0.0000 0.0000 57.0098 0.0000
# 6 0.0000 0.0000 0.0000 0.0000 0.0000 12.7195
#
#
#
# Elastic Compliance Matrix: (Units=1/GPa)
#
#
# Indices 1 2 3 4 5 6 
#
# 1 0.012740 -0.013500 -0.001861 0.000000 0.000000 0.000000
# 2 -0.013500 0.050933 -0.003823 0.000000 0.000000 0.000000
# 3 -0.001861 -0.003823 0.007317 0.000000 0.000000 0.000000
# 4 0.000000 0.000000 0.000000 0.105175 0.000000 0.000000
# 5 0.000000 0.000000 0.000000 0.000000 0.017541 0.000000
# 6 0.000000 0.000000 0.000000 0.000000 0.000000 0.078620
#
#
# Mechanical properties :
#
#
# Convention : Reuss Voigt Hill
#
# Bulk Modulus (GPa) = 30.65321 60.86620 45.75970
# Shear Modulus (GPa) = 15.54876 29.56245 22.55561
#
# Velocity S-wave (km/s) = 3.07893 4.24544 3.70834
# Velocity P-wave (km/s) = 5.59719 7.81926 6.79961
#
# Compressibility (1/GPa) = 0.03262301
#
# Stress axis : x y z
#
# Youngs Moduli (GPa) = 78.49034 19.63363 136.66033
#
# Poissons Ratio (x) = 0.26506 0.25430
# Poissons Ratio (y) = 1.05963 0.52245
# Poissons Ratio (z) = 0.14606 0.07506
#
# Static dielectric constant tensor:
#      x y z
#    x 3.761380 0.000000 0.000000 
#    y 0.000000 2.764880 0.000000 
#    z 0.000000 0.000000 3.577440 
# 
# 
# High freq. dielectric constant tensor:
#      x y z
#    x 1.639050 0.000000 0.000000 
#    y 0.000000 1.567570 0.000000 
#    z 0.000000 0.000000 1.661310 
# 
# From -- ./inp_files/8135.got.cif
#   From: 2010.03.12/outbox.cif.g09.slc.cpg/sg63_5_cif.got.tgz:8135.got - 2010.04.10 19:34:48.
