data_PCOD8259565
_publ_section_title
;
Structure prediction by ZEFSAII (Michael W. Deem and Ramdas Pophale) SiO2 
 PCOD8259565
Probable space group: C M C M
;
_chemical_formula_sum "Si O2"
_cell_formula_units_Z 96
_cell_length_a 26.535612
_cell_length_b 9.907923
_cell_length_c 18.673900
_cell_angle_alpha 90.000000
_cell_angle_beta 90.000000
_cell_angle_gamma 90.000000
_cell_volume 4909.607344
_symmetry_space_group_name_H-M "C M C M"
_symmetry_group_IT_number 63
_symmetry_cell_setting 'orthorhombic'
loop_
_space_group_symop_operation_xyz
x,y,z
-x,-y,1/2+z
x,-y,-z
-x,y,1/2-z
-x,-y,-z
x,y,1/2-z
-x,y,z
x,-y,1/2+z
1/2+x,1/2+y,z
1/2-x,1/2-y,1/2+z
1/2+x,1/2-y,-z
1/2-x,1/2+y,1/2-z
1/2-x,1/2-y,-z
1/2+x,1/2+y,1/2-z
1/2-x,1/2+y,z
1/2+x,1/2-y,1/2+z
loop_
_atom_site_type_symbol
_atom_site_label
_atom_site_fract_x
_atom_site_fract_y
_atom_site_fract_z
Si Si1 0.104618 0.159015 0.666418
Si Si2 0.442985 0.142372 0.065546
Si Si3 0.403698 0.863927 0.086763
Si Si4 0.943184 0.883081 0.669383
Si Si5 0.800505 0.415157 0.335507
Si Si6 0.210182 0.275231 0.665693
O O1 0.097151 0.192000 0.750000
O O2 0.062554 0.238140 0.622035
O O3 0.159002 0.206225 0.637349
O O4 0.096669 0.000926 0.651032
O O5 0.500000 0.141728 0.035885
O O6 0.431240 0.003375 0.107283
O O7 0.403951 0.155573 0.999283
O O8 0.435452 0.741284 0.117631
O O9 0.348227 0.864759 0.120007
O O10 0.933908 0.832464 0.750000
O O11 0.000000 0.938996 0.660042
O O12 0.810685 0.405980 0.250000
O O13 0.786075 0.568347 0.358372
O O14 0.756775 0.313960 0.362081
O O15 0.210124 0.266877 0.750000
#
# Coordination Sequence:
#
# PCOD8259565 Si02
#       6
#    16  16  16  16  16  16
#     4  10  21  39  61  87 120 153 197 250 301 361
#     4  11  23  40  62  84 117 163 203 247 300 355
#     4  11  22  38  58  84 120 158 200 243 295 354
#     4  10  21  36  57  87 119 152 195 247 297 348
#     4  10  20  36  61  89 118 154 196 248 301 356
#     4   9  19  35  58  88 117 150 194 242 300 356
#
# _framework density 19.553498999999999
#
# number of rings (size 3 to 8) (size 9 to 14) (size 15 to 20)
#    0.000    1.833    1.667    3.000    2.333    2.333 
#    0.000    2.500    0.000    0.000    0.000    0.000 
#    0.000    0.000    0.000    0.000    0.000    0.000 
#
# Total GULP energy -595161.544847 kJ/mol
# GULP energy per Si atom -12399.198851 kJ/mol
# Density = 1.950899 g / cm^3
# Si number density = 19.553499 Si / 1000 Ang^3
#
#
#
# Elastic Constant Matrix: (Units=GPa)
#
#
# Indices 1 2 3 4 5 6 
#
# 1 112.1614 40.0658 35.2511 0.0000 0.0000 0.0000
# 2 40.0658 108.7073 47.6738 0.0000 0.0000 0.0000
# 3 35.2511 47.6738 63.1749 0.0000 0.0000 0.0000
# 4 0.0000 0.0000 0.0000 28.4186 0.0000 0.0000
# 5 0.0000 0.0000 0.0000 0.0000 24.5953 0.0000
# 6 0.0000 0.0000 0.0000 0.0000 0.0000 38.9051
#
#
#
# Elastic Compliance Matrix: (Units=1/GPa)
#
#
# Indices 1 2 3 4 5 6 
#
# 1 0.011111 -0.002057 -0.004648 0.000000 0.000000 0.000000
# 2 -0.002057 0.014130 -0.009515 0.000000 0.000000 0.000000
# 3 -0.004648 -0.009515 0.025603 0.000000 0.000000 0.000000
# 4 0.000000 0.000000 0.000000 0.035188 0.000000 0.000000
# 5 0.000000 0.000000 0.000000 0.000000 0.040658 0.000000
# 6 0.000000 0.000000 0.000000 0.000000 0.000000 0.025704
#
#
# Mechanical properties :
#
#
# Convention : Reuss Voigt Hill
#
# Bulk Modulus (GPa) = 54.33477 58.89165 56.61321
# Shear Modulus (GPa) = 26.18229 29.12067 27.65148
#
# Velocity S-wave (km/s) = 3.66322 3.86331 3.76459
# Velocity P-wave (km/s) = 6.76316 7.07699 6.92185
#
# Compressibility (1/GPa) = 0.01840442
#
# Stress axis : x y z
#
# Youngs Moduli (GPa) = 89.99899 70.77124 39.05798
#
# Poissons Ratio (x) = 0.14557 0.18153
# Poissons Ratio (y) = 0.18512 0.37164
# Poissons Ratio (z) = 0.41829 0.67340
#
# Static dielectric constant tensor:
#      x y z
#    x 3.671020 0.000000 0.000000 
#    y 0.000000 3.699190 0.000000 
#    z 0.000000 0.000000 3.323110 
# 
# 
# High freq. dielectric constant tensor:
#      x y z
#    x 1.763910 0.000000 0.000000 
#    y 0.000000 1.773430 0.000000 
#    z 0.000000 0.000000 1.736010 
# 
# From -- ./inp_files/58118.got.cif
#   From: 2010.03.12/outbox.cif.g09.slc.cpg/sg63_30_cif.got.tgz:58118.got - 2010.04.10 19:34:48.
