data_PCOD8259293
_publ_section_title
;
Structure prediction by ZEFSAII (Michael W. Deem and Ramdas Pophale) SiO2 
 PCOD8259293
Probable space group: C M C M
;
_chemical_formula_sum "Si O2"
_cell_formula_units_Z 80
_cell_length_a 8.785110
_cell_length_b 22.909047
_cell_length_c 20.232636
_cell_angle_alpha 90.000000
_cell_angle_beta 90.000000
_cell_angle_gamma 90.000000
_cell_volume 4071.989930
_symmetry_space_group_name_H-M "C M C M"
_symmetry_group_IT_number 63
_symmetry_cell_setting 'orthorhombic'
loop_
_space_group_symop_operation_xyz
x,y,z
-x,-y,1/2+z
x,-y,-z
-x,y,1/2-z
-x,-y,-z
x,y,1/2-z
-x,y,z
x,-y,1/2+z
1/2+x,1/2+y,z
1/2-x,1/2-y,1/2+z
1/2+x,1/2-y,-z
1/2-x,1/2+y,1/2-z
1/2-x,1/2-y,-z
1/2+x,1/2+y,1/2-z
1/2-x,1/2+y,z
1/2+x,1/2-y,1/2+z
loop_
_atom_site_type_symbol
_atom_site_label
_atom_site_fract_x
_atom_site_fract_y
_atom_site_fract_z
Si Si1 0.322194 0.865384 0.878223
Si Si2 0.820075 0.063886 0.750000
Si Si3 0.327212 0.566086 0.491529
Si Si4 0.679720 0.935953 0.750000
Si Si5 0.673684 0.363054 0.124415
Si Si6 0.321312 0.749781 0.427198
O O1 0.500000 0.851164 0.874157
O O2 0.289988 0.904587 0.941878
O O3 0.264564 0.899938 0.813799
O O4 0.232270 0.805010 0.884116
O O5 0.764452 0.100052 0.686317
O O6 0.000000 0.055816 0.750000
O O7 0.749849 0.999934 0.750000
O O8 0.275586 0.500000 0.500000
O O9 0.500000 0.570711 0.464018
O O10 0.313189 0.595996 0.561678
O O11 0.500000 0.943494 0.750000
O O12 0.500000 0.342622 0.136115
O O13 0.777619 0.306601 0.114541
O O14 0.500000 0.746465 0.437551
O O15 0.250000 0.750000 0.500000
#
# Coordination Sequence:
#
# PCOD8259293 Si02
#       6
#    16   8  16   8  16  16
#     4  11  23  40  62  88 121 163 207 252 307 362
#     4  10  22  41  66  93 125 168 206 246 301 364
#     4  10  20  35  58  88 120 157 204 254 303 360
#     4  10  24  43  62  89 127 166 204 254 305 358
#     4  10  21  38  61  90 125 162 203 249 302 361
#     4  12  24  40  63  91 123 159 203 257 311 366
#
# _framework density 19.646412999999999
#
# number of rings (size 3 to 8) (size 9 to 14) (size 15 to 20)
#    0.000    1.400    2.000    3.600    0.000    5.200 
#    0.000    4.000    0.000    0.000    0.000    0.000 
#    0.000    0.000    0.000    0.000    0.000    0.000 
#
# Total GULP energy -496195.730582 kJ/mol
# GULP energy per Si atom -12404.893265 kJ/mol
# Density = 1.960170 g / cm^3
# Si number density = 19.646413 Si / 1000 Ang^3
#
#
#
# Elastic Constant Matrix: (Units=GPa)
#
#
# Indices 1 2 3 4 5 6 
#
# 1 91.1476 59.3906 41.8685 0.0000 0.0000 0.0000
# 2 59.3906 177.7505 64.3204 0.0000 0.0000 0.0000
# 3 41.8685 64.3204 126.5498 0.0000 0.0000 0.0000
# 4 0.0000 0.0000 0.0000 39.0238 0.0000 0.0000
# 5 0.0000 0.0000 0.0000 0.0000 29.5339 0.0000
# 6 0.0000 0.0000 0.0000 0.0000 0.0000 39.2477
#
#
#
# Elastic Compliance Matrix: (Units=1/GPa)
#
#
# Indices 1 2 3 4 5 6 
#
# 1 0.014863 -0.003905 -0.002933 0.000000 0.000000 0.000000
# 2 -0.003905 0.007920 -0.002733 0.000000 0.000000 0.000000
# 3 -0.002933 -0.002733 0.010262 0.000000 0.000000 0.000000
# 4 0.000000 0.000000 0.000000 0.025625 0.000000 0.000000
# 5 0.000000 0.000000 0.000000 0.000000 0.033859 0.000000
# 6 0.000000 0.000000 0.000000 0.000000 0.000000 0.025479
#
#
# Mechanical properties :
#
#
# Convention : Reuss Voigt Hill
#
# Bulk Modulus (GPa) = 71.93050 80.73410 76.33230
# Shear Modulus (GPa) = 35.26510 36.88564 36.07537
#
# Velocity S-wave (km/s) = 4.24133 4.33768 4.28978
# Velocity P-wave (km/s) = 7.78955 8.14065 7.96703
#
# Compressibility (1/GPa) = 0.01390231
#
# Stress axis : x y z
#
# Youngs Moduli (GPa) = 67.28308 126.26863 97.45142
#
# Poissons Ratio (x) = 0.49305 0.28578
# Poissons Ratio (y) = 0.26272 0.26637
# Poissons Ratio (z) = 0.19731 0.34514
#
# Static dielectric constant tensor:
#      x y z
#    x 3.551260 0.000000 0.000000 
#    y 0.000000 3.778740 0.000000 
#    z 0.000000 0.000000 3.721480 
# 
# 
# High freq. dielectric constant tensor:
#      x y z
#    x 1.759080 0.000000 0.000000 
#    y 0.000000 1.784270 0.000000 
#    z 0.000000 0.000000 1.770730 
# 
# From -- ./inp_files/50907.got.cif
#   From: 2010.03.12/outbox.cif.g09.slc.cpg/sg63_26_cif.got.tgz:50907.got - 2010.04.10 19:34:48.
