data_PCOD8259806
_publ_section_title
;
Structure prediction by ZEFSAII (Michael W. Deem and Ramdas Pophale) SiO2 
 PCOD8259806
Probable space group: C M C M
;
_chemical_formula_sum "Si O2"
_cell_formula_units_Z 96
_cell_length_a 8.821924
_cell_length_b 28.688427
_cell_length_c 20.098767
_cell_angle_alpha 90.000000
_cell_angle_beta 90.000000
_cell_angle_gamma 90.000000
_cell_volume 5086.739109
_symmetry_space_group_name_H-M "C M C M"
_symmetry_group_IT_number 63
_symmetry_cell_setting 'orthorhombic'
loop_
_space_group_symop_operation_xyz
x,y,z
-x,-y,1/2+z
x,-y,-z
-x,y,1/2-z
-x,-y,-z
x,y,1/2-z
-x,y,z
x,-y,1/2+z
1/2+x,1/2+y,z
1/2-x,1/2-y,1/2+z
1/2+x,1/2-y,-z
1/2-x,1/2+y,1/2-z
1/2-x,1/2-y,-z
1/2+x,1/2+y,1/2-z
1/2-x,1/2+y,z
1/2+x,1/2-y,1/2+z
loop_
_atom_site_type_symbol
_atom_site_label
_atom_site_fract_x
_atom_site_fract_y
_atom_site_fract_z
Si Si1 0.177887 0.777199 0.561212
Si Si2 0.824898 0.369788 0.524256
Si Si3 0.326493 0.719554 0.826055
Si Si4 0.326286 0.466555 0.325991
Si Si5 0.177535 0.373015 0.129686
Si Si6 0.176384 0.473346 0.566274
O O1 0.250000 0.750000 0.500000
O O2 0.225298 0.831110 0.561089
O O3 0.228333 0.754739 0.630351
O O4 0.000000 0.772441 0.554557
O O5 0.777340 0.372731 0.447515
O O6 0.791271 0.418730 0.559193
O O7 0.000000 0.355761 0.530911
O O8 0.310633 0.735645 0.750000
O O9 0.500000 0.721419 0.850024
O O10 0.268081 0.666980 0.832505
O O11 0.306938 0.482649 0.250000
O O12 0.500000 0.453877 0.342239
O O13 0.222037 0.422078 0.339078
O O14 0.272994 0.509375 0.371357
O O15 0.000000 0.364777 0.139930
O O16 0.230453 0.500000 0.500000
O O17 0.000000 0.484073 0.579016
#
# Coordination Sequence:
#
# PCOD8259806 Si02
#       6
#    16  16  16  16  16  16
#     4  12  24  39  62  89 121 159 201 246 294 353
#     4  10  21  38  61  90 121 152 195 249 299 350
#     4  11  24  41  61  88 123 159 198 247 301 356
#     4  11  24  39  56  85 125 162 198 243 295 352
#     4  11  21  36  61  90 122 158 196 244 297 355
#     4  10  20  39  63  87 116 151 197 247 293 348
#
# _framework density 18.872599999999998
#
# number of rings (size 3 to 8) (size 9 to 14) (size 15 to 20)
#    0.000    1.167    3.333    3.500    0.000    6.333 
#    0.000    0.833    0.000    1.000    0.000    0.000 
#    0.000    0.000    0.000    0.000    0.000    0.000 
#
# Total GULP energy -595524.833262 kJ/mol
# GULP energy per Si atom -12406.767360 kJ/mol
# Density = 1.882965 g / cm^3
# Si number density = 18.872600 Si / 1000 Ang^3
#
#
#
# Elastic Constant Matrix: (Units=GPa)
#
#
# Indices 1 2 3 4 5 6 
#
# 1 103.5541 51.3283 51.0781 0.0000 0.0000 0.0000
# 2 51.3283 107.9825 54.2194 0.0000 0.0000 0.0000
# 3 51.0781 54.2194 104.4655 0.0000 0.0000 0.0000
# 4 0.0000 0.0000 0.0000 13.6824 0.0000 0.0000
# 5 0.0000 0.0000 0.0000 0.0000 32.2128 0.0000
# 6 0.0000 0.0000 0.0000 0.0000 0.0000 34.7672
#
#
#
# Elastic Compliance Matrix: (Units=1/GPa)
#
#
# Indices 1 2 3 4 5 6 
#
# 1 0.014111 -0.004386 -0.004623 0.000000 0.000000 0.000000
# 2 -0.004386 0.013888 -0.005064 0.000000 0.000000 0.000000
# 3 -0.004623 -0.005064 0.014461 0.000000 0.000000 0.000000
# 4 0.000000 0.000000 0.000000 0.073087 0.000000 0.000000
# 5 0.000000 0.000000 0.000000 0.000000 0.031044 0.000000
# 6 0.000000 0.000000 0.000000 0.000000 0.000000 0.028763
#
#
# Mechanical properties :
#
#
# Convention : Reuss Voigt Hill
#
# Bulk Modulus (GPa) = 69.85860 69.91708 69.88784
# Shear Modulus (GPa) = 24.00719 26.75757 25.38238
#
# Velocity S-wave (km/s) = 3.57047 3.76945 3.67131
# Velocity P-wave (km/s) = 7.35486 7.48815 7.42180
#
# Compressibility (1/GPa) = 0.01431463
#
# Stress axis : x y z
#
# Youngs Moduli (GPa) = 70.86529 72.00345 69.15130
#
# Poissons Ratio (x) = 0.31583 0.31969
# Poissons Ratio (y) = 0.31084 0.35015
# Poissons Ratio (z) = 0.32762 0.36459
#
# Static dielectric constant tensor:
#      x y z
#    x 3.545910 0.000000 0.000000 
#    y 0.000000 3.488180 0.000000 
#    z 0.000000 0.000000 2.059920 
# 
# 
# High freq. dielectric constant tensor:
#      x y z
#    x 1.741670 0.000000 0.000000 
#    y 0.000000 1.735030 0.000000 
#    z 0.000000 0.000000 1.731370 
# 
# From -- ./inp_files/51310.got.cif
#   From: 2010.03.12/outbox.cif.g09.slc.cpg/sg63_26_cif.got.tgz:51310.got - 2010.04.10 19:34:48.
