data_PCOD8259764
_publ_section_title
;
Structure prediction by ZEFSAII (Michael W. Deem and Ramdas Pophale) SiO2 
 PCOD8259764
Probable space group: C M C M
;
_chemical_formula_sum "Si O2"
_cell_formula_units_Z 64
_cell_length_a 8.440242
_cell_length_b 14.614783
_cell_length_c 24.638830
_cell_angle_alpha 90.000000
_cell_angle_beta 90.000000
_cell_angle_gamma 90.000000
_cell_volume 3039.256480
_symmetry_space_group_name_H-M "C M C M"
_symmetry_group_IT_number 63
_symmetry_cell_setting 'orthorhombic'
loop_
_space_group_symop_operation_xyz
x,y,z
-x,-y,1/2+z
x,-y,-z
-x,y,1/2-z
-x,-y,-z
x,y,1/2-z
-x,y,z
x,-y,1/2+z
1/2+x,1/2+y,z
1/2-x,1/2-y,1/2+z
1/2+x,1/2-y,-z
1/2-x,1/2+y,1/2-z
1/2-x,1/2-y,-z
1/2+x,1/2+y,1/2-z
1/2-x,1/2+y,z
1/2+x,1/2-y,1/2+z
loop_
_atom_site_type_symbol
_atom_site_label
_atom_site_fract_x
_atom_site_fract_y
_atom_site_fract_z
Si Si1 0.813900 0.342137 0.750000
Si Si2 0.687381 0.636518 0.750000
Si Si3 0.316763 0.495125 0.437668
Si Si4 0.316699 0.848650 0.360560
Si Si5 0.185446 0.648333 0.133057
O O1 0.747026 0.239895 0.750000
O O2 0.761415 0.389530 0.693425
O O3 0.000000 0.330954 0.750000
O O4 0.500000 0.622479 0.750000
O O5 0.760152 0.596810 0.694046
O O6 0.265428 0.500000 0.500000
O O7 0.500000 0.468959 0.431311
O O8 0.210754 0.417380 0.410137
O O9 0.285816 0.594351 0.411349
O O10 0.500000 0.822928 0.356804
O O11 0.216809 0.756598 0.371081
O O12 0.000000 0.630410 0.123269
#
# Coordination Sequence:
#
# PCOD8259764 Si02
#       5
#     8   8  16  16  16
#     4   7  14  30  55  86 116 146 180 225 283 346
#     4   9  17  34  59  88 122 156 192 235 287 348
#     4  11  25  43  60  82 115 157 206 253 296 348
#     4  11  22  38  62  91 122 156 194 239 296 355
#     4  10  20  38  63  89 120 155 192 239 296 354
#
# _framework density 21.057780999999999
#
# number of rings (size 3 to 8) (size 9 to 14) (size 15 to 20)
#    0.000    2.000    0.000    5.625    0.000    4.000 
#    0.000    5.625    0.000    0.000    0.000    0.000 
#    0.000    0.000    0.000    0.000    0.000    0.000 
#
# Total GULP energy -396668.400867 kJ/mol
# GULP energy per Si atom -12395.887527 kJ/mol
# Density = 2.100985 g / cm^3
# Si number density = 21.057781 Si / 1000 Ang^3
#
#
#
# Elastic Constant Matrix: (Units=GPa)
#
#
# Indices 1 2 3 4 5 6 
#
# 1 76.6408 3.6249 41.3003 0.0000 0.0000 0.0000
# 2 3.6249 69.9410 46.2310 0.0000 0.0000 0.0000
# 3 41.3003 46.2310 174.3310 0.0000 0.0000 0.0000
# 4 0.0000 0.0000 0.0000 32.9518 0.0000 0.0000
# 5 0.0000 0.0000 0.0000 0.0000 28.1745 0.0000
# 6 0.0000 0.0000 0.0000 0.0000 0.0000 30.3840
#
#
#
# Elastic Compliance Matrix: (Units=1/GPa)
#
#
# Indices 1 2 3 4 5 6 
#
# 1 0.015169 0.001927 -0.004105 0.000000 0.000000 0.000000
# 2 0.001927 0.017582 -0.005119 0.000000 0.000000 0.000000
# 3 -0.004105 -0.005119 0.008066 0.000000 0.000000 0.000000
# 4 0.000000 0.000000 0.000000 0.030347 0.000000 0.000000
# 5 0.000000 0.000000 0.000000 0.000000 0.035493 0.000000
# 6 0.000000 0.000000 0.000000 0.000000 0.000000 0.032912
#
#
# Mechanical properties :
#
#
# Convention : Reuss Voigt Hill
#
# Bulk Modulus (GPa) = 38.13433 55.91392 47.02412
# Shear Modulus (GPa) = 30.69312 33.61917 32.15615
#
# Velocity S-wave (km/s) = 3.82195 3.99998 3.91198
# Velocity P-wave (km/s) = 6.13393 6.92412 6.54097
#
# Compressibility (1/GPa) = 0.02622309
#
# Stress axis : x y z
#
# Youngs Moduli (GPa) = 65.92563 56.87783 123.97530
#
# Poissons Ratio (x) = -0.10960 0.50886
# Poissons Ratio (y) = -0.12704 0.63463
# Poissons Ratio (z) = 0.27060 0.29116
#
# Static dielectric constant tensor:
#      x y z
#    x 3.613340 0.000000 0.000000 
#    y 0.000000 3.462260 0.000000 
#    z 0.000000 0.000000 4.113420 
# 
# 
# High freq. dielectric constant tensor:
#      x y z
#    x 1.821460 0.000000 0.000000 
#    y 0.000000 1.808310 0.000000 
#    z 0.000000 0.000000 1.834310 
# 
# From -- ./inp_files/59091.got.cif
#   From: 2010.03.12/outbox.cif.g09.slc.cpg/sg63_30_cif.got.tgz:59091.got - 2010.04.10 19:34:48.
