data_PCOD8259390
_publ_section_title
;
Structure prediction by ZEFSAII (Michael W. Deem and Ramdas Pophale) SiO2 
 PCOD8259390
Probable space group: C M C M
;
_chemical_formula_sum "Si O2"
_cell_formula_units_Z 88
_cell_length_a 12.919631
_cell_length_b 35.410986
_cell_length_c 10.827758
_cell_angle_alpha 90.000000
_cell_angle_beta 90.000000
_cell_angle_gamma 90.000000
_cell_volume 4953.665421
_symmetry_space_group_name_H-M "C M C M"
_symmetry_group_IT_number 63
_symmetry_cell_setting 'orthorhombic'
loop_
_space_group_symop_operation_xyz
x,y,z
-x,-y,1/2+z
x,-y,-z
-x,y,1/2-z
-x,-y,-z
x,y,1/2-z
-x,y,z
x,-y,1/2+z
1/2+x,1/2+y,z
1/2-x,1/2-y,1/2+z
1/2+x,1/2-y,-z
1/2-x,1/2+y,1/2-z
1/2-x,1/2-y,-z
1/2+x,1/2+y,1/2-z
1/2-x,1/2+y,z
1/2+x,1/2-y,1/2+z
loop_
_atom_site_type_symbol
_atom_site_label
_atom_site_fract_x
_atom_site_fract_y
_atom_site_fract_z
Si Si1 0.735542 0.647907 0.958931
Si Si2 0.377308 0.603677 0.750000
Si Si3 0.111445 0.711279 0.609788
Si Si4 0.378488 0.708079 0.113773
Si Si5 0.619337 0.918347 0.509391
Si Si6 0.695124 0.049427 0.750000
Si Si7 0.380018 0.967955 0.750000
O O1 0.654890 0.627817 0.868524
O O2 0.809373 0.677149 0.889504
O O3 0.807420 0.617687 0.028347
O O4 0.669776 0.671560 0.053123
O O5 0.500000 0.595280 0.750000
O O6 0.313924 0.564139 0.750000
O O7 0.091418 0.723157 0.750000
O O8 0.148840 0.751235 0.547916
O O9 0.000000 0.698718 0.551870
O O10 0.331081 0.707511 0.250000
O O11 0.500000 0.702142 0.111660
O O12 0.500000 0.905796 0.517343
O O13 0.637817 0.936431 0.374218
O O14 0.645825 0.945776 0.623845
O O15 0.694188 0.004293 0.750000
O O16 0.500000 0.980637 0.750000
#
# Coordination Sequence:
#
# PCOD8259390 Si02
#       7
#    16   8  16  16  16   8   8
#     4  11  19  32  53  75 104 139 169 210 262 313
#     4  10  22  36  52  79 105 130 170 218 264 301
#     4   9  17  31  50  75 102 131 174 218 255 300
#     4   9  19  33  50  70  96 137 183 220 251 292
#     4  10  21  33  53  85 113 138 170 210 260 316
#     4  10  20  36  60  80 100 142 178 208 250 314
#     4  10  20  36  56  81 115 140 162 206 260 315
#
# _framework density 17.764624000000001
#
# number of rings (size 3 to 8) (size 9 to 14) (size 15 to 20)
#    0.000    2.182    0.909    4.091    1.273    1.455 
#    0.000    0.000    0.000    9.818    0.000    0.000 
#    0.000    0.000    0.000    0.000    0.000    0.000 
#
# Total GULP energy -545106.463846 kJ/mol
# GULP energy per Si atom -12388.783269 kJ/mol
# Density = 1.772419 g / cm^3
# Si number density = 17.764624 Si / 1000 Ang^3
#
#
#
# Elastic Constant Matrix: (Units=GPa)
#
#
# Indices 1 2 3 4 5 6 
#
# 1 104.2940 62.3691 32.5522 0.0000 0.0000 0.0000
# 2 62.3691 133.6331 41.4816 0.0000 0.0000 0.0000
# 3 32.5522 41.4816 76.5098 0.0000 0.0000 0.0000
# 4 0.0000 0.0000 0.0000 27.2533 0.0000 0.0000
# 5 0.0000 0.0000 0.0000 0.0000 17.6723 0.0000
# 6 0.0000 0.0000 0.0000 0.0000 0.0000 33.8508
#
#
#
# Elastic Compliance Matrix: (Units=1/GPa)
#
#
# Indices 1 2 3 4 5 6 
#
# 1 0.013803 -0.005554 -0.002861 0.000000 0.000000 0.000000
# 2 -0.005554 0.011232 -0.003727 0.000000 0.000000 0.000000
# 3 -0.002861 -0.003727 0.016308 0.000000 0.000000 0.000000
# 4 0.000000 0.000000 0.000000 0.036693 0.000000 0.000000
# 5 0.000000 0.000000 0.000000 0.000000 0.056586 0.000000
# 6 0.000000 0.000000 0.000000 0.000000 0.000000 0.029541
#
#
# Mechanical properties :
#
#
# Convention : Reuss Voigt Hill
#
# Bulk Modulus (GPa) = 58.62020 65.24919 61.93470
# Shear Modulus (GPa) = 25.75554 27.62422 26.68988
#
# Velocity S-wave (km/s) = 3.81178 3.94764 3.88031
# Velocity P-wave (km/s) = 7.24174 7.58868 7.41724
#
# Compressibility (1/GPa) = 0.01705896
#
# Stress axis : x y z
#
# Youngs Moduli (GPa) = 72.45029 89.03094 61.31868
#
# Poissons Ratio (x) = 0.49445 0.17546
# Poissons Ratio (y) = 0.40237 0.22852
# Poissons Ratio (z) = 0.20731 0.33180
#
# Static dielectric constant tensor:
#      x y z
#    x 3.205710 0.000000 0.000000 
#    y 0.000000 3.370830 0.000000 
#    z 0.000000 0.000000 3.234100 
# 
# 
# High freq. dielectric constant tensor:
#      x y z
#    x 1.680860 0.000000 0.000000 
#    y 0.000000 1.696330 0.000000 
#    z 0.000000 0.000000 1.675840 
# 
# From -- ./inp_files/18052.got.cif
#   From: 2010.03.12/outbox.cif.g09.slc.cpg/sg63_10_cif.got.tgz:18052.got - 2010.04.10 19:34:48.
