data_PCOD8259315
_publ_section_title
;
Structure prediction by ZEFSAII (Michael W. Deem and Ramdas Pophale) SiO2 
 PCOD8259315
Probable space group: C M C M
;
_chemical_formula_sum "Si O2"
_cell_formula_units_Z 48
_cell_length_a 10.848841
_cell_length_b 13.667690
_cell_length_c 13.737337
_cell_angle_alpha 90.000000
_cell_angle_beta 90.000000
_cell_angle_gamma 90.000000
_cell_volume 2036.953038
_symmetry_space_group_name_H-M "C M C M"
_symmetry_group_IT_number 63
_symmetry_cell_setting 'orthorhombic'
loop_
_space_group_symop_operation_xyz
x,y,z
-x,-y,1/2+z
x,-y,-z
-x,y,1/2-z
-x,-y,-z
x,y,1/2-z
-x,y,z
x,-y,1/2+z
1/2+x,1/2+y,z
1/2-x,1/2-y,1/2+z
1/2+x,1/2-y,-z
1/2-x,1/2+y,1/2-z
1/2-x,1/2-y,-z
1/2+x,1/2+y,1/2-z
1/2-x,1/2+y,z
1/2+x,1/2-y,1/2+z
loop_
_atom_site_type_symbol
_atom_site_label
_atom_site_fract_x
_atom_site_fract_y
_atom_site_fract_z
Si Si1 0.000000 0.948615 0.750000
Si Si2 0.000000 0.719627 0.250000
Si Si3 0.754685 0.639063 0.537743
Si Si4 0.500000 0.142681 0.458119
Si Si5 0.302411 0.384074 0.250000
Si Si6 0.500000 0.359633 0.958486
O O1 0.000000 0.877494 0.656831
O O2 0.121007 0.015698 0.750000
O O3 0.000000 0.650686 0.157239
O O4 0.117677 0.787000 0.250000
O O5 0.750000 0.750000 0.500000
O O6 0.873209 0.586854 0.487402
O O7 0.778655 0.624691 0.652713
O O8 0.622359 0.591356 0.507759
O O9 0.500000 0.244887 0.517362
#
# Coordination Sequence:
#
# PCOD8259315 Si02
#       6
#     4   4  16   8   8   8
#     4  11  26  36  60  88 124 164 207 240 274 361
#     4  11  16  34  54  84 118 152 183 228 314 341
#     4  10  20  35  59  87 119 151 195 250 303 350
#     4  10  21  35  62  93 122 150 189 254 310 358
#     4  11  20  36  55  81 119 161 193 243 296 344
#     4  10  20  37  56  88 117 153 198 239 287 345
#
# _framework density 23.564608
#
# number of rings (size 3 to 8) (size 9 to 14) (size 15 to 20)
#    0.000    1.667    6.667    1.000    0.000   10.000 
#    0.000    0.000    0.000    6.000    0.000    0.000 
#    0.000    0.000    0.000    0.000    0.000    0.000 
#
# Total GULP energy -297347.578642 kJ/mol
# GULP energy per Si atom -12389.482443 kJ/mol
# Density = 2.351097 g / cm^3
# Si number density = 23.564608 Si / 1000 Ang^3
#
#
#
# Elastic Constant Matrix: (Units=GPa)
#
#
# Indices 1 2 3 4 5 6 
#
# 1 221.6282 -11.8494 70.1575 0.0000 0.0000 0.0000
# 2 -11.8494 58.9044 36.6657 0.0000 0.0000 0.0000
# 3 70.1575 36.6657 254.1786 0.0000 0.0000 0.0000
# 4 0.0000 0.0000 0.0000 15.9802 0.0000 0.0000
# 5 0.0000 0.0000 0.0000 0.0000 49.0040 0.0000
# 6 0.0000 0.0000 0.0000 0.0000 0.0000 -13.6921
#
#
#
# Elastic Compliance Matrix: (Units=1/GPa)
#
#
# Indices 1 2 3 4 5 6 
#
# 1 0.005174 0.002120 -0.001734 0.000000 0.000000 0.000000
# 2 0.002120 0.019520 -0.003401 0.000000 0.000000 0.000000
# 3 -0.001734 -0.003401 0.004903 0.000000 0.000000 0.000000
# 4 0.000000 0.000000 0.000000 0.062577 0.000000 0.000000
# 5 0.000000 0.000000 0.000000 0.000000 0.020406 0.000000
# 6 0.000000 0.000000 0.000000 0.000000 0.000000 -0.073035
#
#
# Mechanical properties :
#
#
# Convention : Reuss Voigt Hill
#
# Bulk Modulus (GPa) = 42.42977 80.51765 61.47371
# Shear Modulus (GPa) = 93.57574 39.57426 66.57500
#
# Velocity S-wave (km/s) = 6.30845 4.10249 5.32104
# Velocity P-wave (km/s) = 8.43249 7.52885 7.99345
#
# Compressibility (1/GPa) = 0.02356836
#
# Stress axis : x y z
#
# Youngs Moduli (GPa) = 193.26116 51.22893 203.93679
#
# Poissons Ratio (x) = -0.10862 0.35364
# Poissons Ratio (y) = -0.40977 0.69360
# Poissons Ratio (z) = 0.33513 0.17423
#
# Static dielectric constant tensor:
#      x y z
#    x 6.181550 0.000000 0.000000 
#    y 0.000000 3.670430 0.000000 
#    z 0.000000 0.000000 -1.318530 
# 
# 
# High freq. dielectric constant tensor:
#      x y z
#    x 1.942410 0.000000 0.000000 
#    y 0.000000 1.905710 0.000000 
#    z 0.000000 0.000000 1.939710 
# 
# From -- ./inp_files/16903.got.cif
#   From: 2010.03.12/outbox.cif.g09.slc.cpg/sg63_9_cif.got.tgz:16903.got - 2010.04.10 19:34:48.
