data_PCOD8259836
_publ_section_title
;
Structure prediction by ZEFSAII (Michael W. Deem and Ramdas Pophale) SiO2 
 PCOD8259836
Probable space group: C M C M
;
_chemical_formula_sum "Si O2"
_cell_formula_units_Z 112
_cell_length_a 13.857146
_cell_length_b 28.174171
_cell_length_c 14.206093
_cell_angle_alpha 90.000000
_cell_angle_beta 90.000000
_cell_angle_gamma 90.000000
_cell_volume 5546.251924
_symmetry_space_group_name_H-M "C M C M"
_symmetry_group_IT_number 63
_symmetry_cell_setting 'orthorhombic'
loop_
_space_group_symop_operation_xyz
x,y,z
-x,-y,1/2+z
x,-y,-z
-x,y,1/2-z
-x,-y,-z
x,y,1/2-z
-x,y,z
x,-y,1/2+z
1/2+x,1/2+y,z
1/2-x,1/2-y,1/2+z
1/2+x,1/2-y,-z
1/2-x,1/2+y,1/2-z
1/2-x,1/2-y,-z
1/2+x,1/2+y,1/2-z
1/2-x,1/2+y,z
1/2+x,1/2-y,1/2+z
loop_
_atom_site_type_symbol
_atom_site_label
_atom_site_fract_x
_atom_site_fract_y
_atom_site_fract_z
Si Si1 0.782626 0.615421 0.859173
Si Si2 0.612134 0.843908 0.521957
Si Si3 0.889993 0.482449 0.105527
Si Si4 0.805878 0.578227 0.350730
Si Si5 0.610066 0.659018 0.948001
Si Si6 0.385418 0.757019 0.856298
Si Si7 0.392683 0.618854 0.355587
O O1 0.788355 0.628977 0.750000
O O2 0.826560 0.563886 0.877632
O O3 0.672468 0.617771 0.897067
O O4 0.840497 0.655400 0.918639
O O5 0.500000 0.836973 0.507195
O O6 0.633369 0.894651 0.570094
O O7 0.656663 0.802000 0.585999
O O8 0.840616 0.524547 0.163137
O O9 0.000000 0.472819 0.139166
O O10 0.887505 0.500000 0.000000
O O11 0.825366 0.603626 0.250000
O O12 0.690352 0.579276 0.371331
O O13 0.500000 0.649863 0.917927
O O14 0.646819 0.709777 0.910833
O O15 0.622267 0.658106 0.062019
O O16 0.343328 0.756896 0.750000
O O17 0.500000 0.761106 0.852569
O O18 0.384048 0.641554 0.250000
O O19 0.500000 0.595853 0.367115
#
# Coordination Sequence:
#
# PCOD8259836 Si02
#       7
#    16  16  16  16  16  16  16
#     4  12  25  40  58  86 121 159 201 244 296 357
#     4  11  22  38  58  84 118 154 196 247 297 347
#     4  11  22  39  61  85 119 161 200 243 294 351
#     4  11  21  36  60  89 117 152 199 244 290 351
#     4  10  20  40  65  87 117 157 199 245 298 355
#     4   9  19  36  60  89 118 152 198 251 300 345
#     4   9  18  35  60  89 121 156 194 244 303 353
#
# _framework density 20.193816999999999
#
# number of rings (size 3 to 8) (size 9 to 14) (size 15 to 20)
#    0.000    1.571    2.857    2.143    0.000    4.857 
#    0.000    1.429    0.000    6.857    0.000    0.000 
#    0.000    0.000    0.000    0.000    0.000    0.000 
#
# Total GULP energy -694022.590292 kJ/mol
# GULP energy per Si atom -12393.260541 kJ/mol
# Density = 2.014786 g / cm^3
# Si number density = 20.193817 Si / 1000 Ang^3
#
#
#
# Elastic Constant Matrix: (Units=GPa)
#
#
# Indices 1 2 3 4 5 6 
#
# 1 99.0476 53.3436 53.5352 0.0000 0.0000 0.0000
# 2 53.3436 110.1757 55.1907 0.0000 0.0000 0.0000
# 3 53.5352 55.1907 161.8872 0.0000 0.0000 0.0000
# 4 0.0000 0.0000 0.0000 27.1974 0.0000 0.0000
# 5 0.0000 0.0000 0.0000 0.0000 21.6519 0.0000
# 6 0.0000 0.0000 0.0000 0.0000 0.0000 26.1533
#
#
#
# Elastic Compliance Matrix: (Units=1/GPa)
#
#
# Indices 1 2 3 4 5 6 
#
# 1 0.014735 -0.005660 -0.002943 0.000000 0.000000 0.000000
# 2 -0.005660 0.013120 -0.002601 0.000000 0.000000 0.000000
# 3 -0.002943 -0.002601 0.008037 0.000000 0.000000 0.000000
# 4 0.000000 0.000000 0.000000 0.036768 0.000000 0.000000
# 5 0.000000 0.000000 0.000000 0.000000 0.046185 0.000000
# 6 0.000000 0.000000 0.000000 0.000000 0.000000 0.038236
#
#
# Mechanical properties :
#
#
# Convention : Reuss Voigt Hill
#
# Bulk Modulus (GPa) = 74.16411 77.24996 75.70704
# Shear Modulus (GPa) = 27.17612 28.93658 28.05635
#
# Velocity S-wave (km/s) = 3.67245 3.78953 3.73145
# Velocity P-wave (km/s) = 7.40192 7.58187 7.49243
#
# Compressibility (1/GPa) = 0.01348361
#
# Stress axis : x y z
#
# Youngs Moduli (GPa) = 67.86450 76.22099 124.42103
#
# Poissons Ratio (x) = 0.43141 0.36620
# Poissons Ratio (y) = 0.38411 0.32363
# Poissons Ratio (z) = 0.19974 0.19826
#
# Static dielectric constant tensor:
#      x y z
#    x 3.803340 0.000000 0.000000 
#    y 0.000000 3.573500 0.000000 
#    z 0.000000 0.000000 4.126340 
# 
# 
# High freq. dielectric constant tensor:
#      x y z
#    x 1.790470 0.000000 0.000000 
#    y 0.000000 1.756090 0.000000 
#    z 0.000000 0.000000 1.810500 
# 
# From -- ./inp_files/32539.got.cif
#   From: 2010.03.12/outbox.cif.g09.slc.cpg/sg63_17_cif.got.tgz:32539.got - 2010.04.10 19:34:48.
