data_PCOD8259844
_publ_section_title
;
Structure prediction by ZEFSAII (Michael W. Deem and Ramdas Pophale) SiO2 
 PCOD8259844
Probable space group: C M C M
;
_chemical_formula_sum "Si O2"
_cell_formula_units_Z 88
_cell_length_a 11.929984
_cell_length_b 13.841454
_cell_length_c 27.735230
_cell_angle_alpha 90.000000
_cell_angle_beta 90.000000
_cell_angle_gamma 90.000000
_cell_volume 4579.872067
_symmetry_space_group_name_H-M "C M C M"
_symmetry_group_IT_number 63
_symmetry_cell_setting 'orthorhombic'
loop_
_space_group_symop_operation_xyz
x,y,z
-x,-y,1/2+z
x,-y,-z
-x,y,1/2-z
-x,-y,-z
x,y,1/2-z
-x,y,z
x,-y,1/2+z
1/2+x,1/2+y,z
1/2-x,1/2-y,1/2+z
1/2+x,1/2-y,-z
1/2-x,1/2+y,1/2-z
1/2-x,1/2-y,-z
1/2+x,1/2+y,1/2-z
1/2-x,1/2+y,z
1/2+x,1/2-y,1/2+z
loop_
_atom_site_type_symbol
_atom_site_label
_atom_site_fract_x
_atom_site_fract_y
_atom_site_fract_z
Si Si1 0.263491 0.519434 0.443497
Si Si2 0.000000 0.042005 0.553356
Si Si3 0.761957 0.971372 0.804754
Si Si4 0.366216 0.109558 0.872625
Si Si5 0.000000 0.937775 0.197030
Si Si6 0.500000 0.713931 0.888012
Si Si7 0.234844 0.692541 0.381151
O O1 0.256995 0.500000 0.500000
O O2 0.385552 0.492516 0.421161
O O3 0.168221 0.454030 0.419005
O O4 0.252724 0.632186 0.430576
O O5 0.000000 0.158307 0.560040
O O6 0.000000 0.000000 0.500000
O O7 0.722812 0.953843 0.750000
O O8 0.686713 0.059173 0.825555
O O9 0.892255 0.995162 0.808012
O O10 0.746803 0.872900 0.833992
O O11 0.500000 0.113744 0.868391
O O12 0.319373 0.217782 0.878629
O O13 0.000000 0.887186 0.250000
O O14 0.000000 0.859962 0.155714
O O15 0.393185 0.779367 0.883570
#
# Coordination Sequence:
#
# PCOD8259844 Si02
#       7
#    16   8  16  16   8   8  16
#     4  10  23  43  62  88 123 161 202 252 302 359
#     4  10  20  42  66  86 117 161 208 256 302 350
#     4  10  23  42  63  90 124 162 202 249 301 359
#     4  11  24  41  60  90 125 161 198 246 309 362
#     4  10  20  40  68  88 116 163 208 253 301 350
#     4  12  20  42  63  90 121 159 208 264 290 358
#     4  11  24  38  65  89 122 160 207 247 304 360
#
# _framework density 19.214511000000002
#
# number of rings (size 3 to 8) (size 9 to 14) (size 15 to 20)
#    0.000    1.455    3.636    1.091    7.636    2.909 
#    0.000    0.000    0.000    0.000    0.000    0.000 
#    0.000    0.000    0.000    0.000    0.000    0.000 
#
# Total GULP energy -545401.851916 kJ/mol
# GULP energy per Si atom -12395.496634 kJ/mol
# Density = 1.917078 g / cm^3
# Si number density = 19.214511 Si / 1000 Ang^3
#
#
#
# Elastic Constant Matrix: (Units=GPa)
#
#
# Indices 1 2 3 4 5 6 
#
# 1 177.6892 62.4043 36.8387 0.0000 0.0000 0.0000
# 2 62.4043 136.9772 52.4313 0.0000 0.0000 0.0000
# 3 36.8387 52.4313 129.6745 0.0000 0.0000 0.0000
# 4 0.0000 0.0000 0.0000 15.2515 0.0000 0.0000
# 5 0.0000 0.0000 0.0000 0.0000 28.0212 0.0000
# 6 0.0000 0.0000 0.0000 0.0000 0.0000 36.4421
#
#
#
# Elastic Compliance Matrix: (Units=1/GPa)
#
#
# Indices 1 2 3 4 5 6 
#
# 1 0.006769 -0.002778 -0.000800 0.000000 0.000000 0.000000
# 2 -0.002778 0.009777 -0.003164 0.000000 0.000000 0.000000
# 3 -0.000800 -0.003164 0.009218 0.000000 0.000000 0.000000
# 4 0.000000 0.000000 0.000000 0.065567 0.000000 0.000000
# 5 0.000000 0.000000 0.000000 0.000000 0.035687 0.000000
# 6 0.000000 0.000000 0.000000 0.000000 0.000000 0.027441
#
#
# Mechanical properties :
#
#
# Convention : Reuss Voigt Hill
#
# Bulk Modulus (GPa) = 81.42623 83.07664 82.25143
# Shear Modulus (GPa) = 29.06356 35.45407 32.25881
#
# Velocity S-wave (km/s) = 3.89341 4.30021 4.10186
# Velocity P-wave (km/s) = 7.91714 8.24536 8.08291
#
# Compressibility (1/GPa) = 0.01228105
#
# Stress axis : x y z
#
# Youngs Moduli (GPa) = 147.72837 102.27996 108.48124
#
# Poissons Ratio (x) = 0.28411 0.08678
# Poissons Ratio (y) = 0.41035 0.34324
# Poissons Ratio (z) = 0.11817 0.32362
#
# Static dielectric constant tensor:
#      x y z
#    x 3.829720 0.000000 0.000000 
#    y 0.000000 3.604080 0.000000 
#    z 0.000000 0.000000 3.626090 
# 
# 
# High freq. dielectric constant tensor:
#      x y z
#    x 1.766010 0.000000 0.000000 
#    y 0.000000 1.748510 0.000000 
#    z 0.000000 0.000000 1.750640 
# 
# From -- ./inp_files/72637.got.cif
#   From: 2010.03.12/outbox.cif.g09.slc.cpg/sg63_37_cif.got.tgz:72637.got - 2010.04.10 19:34:48.
