data_PCOD8259950
_publ_section_title
;
Structure prediction by ZEFSAII (Michael W. Deem and Ramdas Pophale) SiO2 
 PCOD8259950
Probable space group: C M C M
;
_chemical_formula_sum "Si O2"
_cell_formula_units_Z 96
_cell_length_a 8.763434
_cell_length_b 25.167243
_cell_length_c 23.212911
_cell_angle_alpha 90.000000
_cell_angle_beta 90.000000
_cell_angle_gamma 90.000000
_cell_volume 5119.641713
_symmetry_space_group_name_H-M "C M C M"
_symmetry_group_IT_number 63
_symmetry_cell_setting 'orthorhombic'
loop_
_space_group_symop_operation_xyz
x,y,z
-x,-y,1/2+z
x,-y,-z
-x,y,1/2-z
-x,-y,-z
x,y,1/2-z
-x,y,z
x,-y,1/2+z
1/2+x,1/2+y,z
1/2-x,1/2-y,1/2+z
1/2+x,1/2-y,-z
1/2-x,1/2+y,1/2-z
1/2-x,1/2-y,-z
1/2+x,1/2+y,1/2-z
1/2-x,1/2+y,z
1/2+x,1/2-y,1/2+z
loop_
_atom_site_type_symbol
_atom_site_label
_atom_site_fract_x
_atom_site_fract_y
_atom_site_fract_z
Si Si1 0.322977 0.945417 0.816021
Si Si2 0.679103 0.691843 0.996596
Si Si3 0.324528 0.744377 0.316093
Si Si4 0.822148 0.944352 0.183515
Si Si5 0.178606 0.655195 0.109883
Si Si6 0.324294 0.849795 0.382802
O O1 0.292282 0.928945 0.750000
O O2 0.500000 0.959205 0.825769
O O3 0.268538 0.896746 0.855420
O O4 0.222594 0.995917 0.833914
O O5 0.500000 0.699093 0.999764
O O6 0.733830 0.655705 0.049542
O O7 0.750000 0.750000 0.000000
O O8 0.723938 0.662107 0.938516
O O9 0.275567 0.739198 0.250000
O O10 0.500000 0.727478 0.325733
O O11 0.216499 0.707311 0.353531
O O12 0.297708 0.804855 0.334899
O O13 0.779011 0.934044 0.250000
O O14 0.725605 0.905392 0.143859
O O15 0.000000 0.935400 0.172113
O O16 0.000000 0.654659 0.097446
O O17 0.500000 0.852925 0.401749
#
# Coordination Sequence:
#
# PCOD8259950 Si02
#       6
#    16  16  16  16  16  16
#     4   9  19  37  60  86 117 154 194 236 287 345
#     4  12  24  40  60  84 115 155 197 240 289 346
#     4  10  21  35  54  83 117 151 188 234 289 347
#     4  10  21  37  59  88 120 155 194 238 290 345
#     4  11  22  37  59  86 116 153 195 240 290 346
#     4  11  22  38  60  85 115 154 196 240 290 345
#
# _framework density 18.751311999999999
#
# number of rings (size 3 to 8) (size 9 to 14) (size 15 to 20)
#    0.000    1.500    1.667    4.000    0.000    4.667 
#    0.000    2.500    0.000    5.000    0.000    0.000 
#    0.000    0.000    0.000    0.000    0.000    0.000 
#
# Total GULP energy -595492.942399 kJ/mol
# GULP energy per Si atom -12406.102967 kJ/mol
# Density = 1.870863 g / cm^3
# Si number density = 18.751312 Si / 1000 Ang^3
#
#
#
# Elastic Constant Matrix: (Units=GPa)
#
#
# Indices 1 2 3 4 5 6 
#
# 1 90.6855 37.9970 36.7720 0.0000 0.0000 0.0000
# 2 37.9970 99.5434 39.1653 0.0000 0.0000 0.0000
# 3 36.7720 39.1653 94.2372 0.0000 0.0000 0.0000
# 4 0.0000 0.0000 0.0000 25.8963 0.0000 0.0000
# 5 0.0000 0.0000 0.0000 0.0000 33.2576 0.0000
# 6 0.0000 0.0000 0.0000 0.0000 0.0000 26.8503
#
#
#
# Elastic Compliance Matrix: (Units=1/GPa)
#
#
# Indices 1 2 3 4 5 6 
#
# 1 0.014257 -0.003889 -0.003947 0.000000 0.000000 0.000000
# 2 -0.003889 0.013071 -0.003915 0.000000 0.000000 0.000000
# 3 -0.003947 -0.003915 0.013779 0.000000 0.000000 0.000000
# 4 0.000000 0.000000 0.000000 0.038616 0.000000 0.000000
# 5 0.000000 0.000000 0.000000 0.000000 0.030068 0.000000
# 6 0.000000 0.000000 0.000000 0.000000 0.000000 0.037243
#
#
# Mechanical properties :
#
#
# Convention : Reuss Voigt Hill
#
# Bulk Modulus (GPa) = 56.80229 56.92607 56.86418
# Shear Modulus (GPa) = 28.34415 28.56964 28.45689
#
# Velocity S-wave (km/s) = 3.89212 3.90758 3.89986
# Velocity P-wave (km/s) = 7.11030 7.12623 7.11827
#
# Compressibility (1/GPa) = 0.01760493
#
# Stress axis : x y z
#
# Youngs Moduli (GPa) = 70.14054 76.50741 72.57675
#
# Poissons Ratio (x) = 0.29755 0.28645
# Poissons Ratio (y) = 0.27279 0.28411
# Poissons Ratio (z) = 0.27683 0.29950
#
# Static dielectric constant tensor:
#      x y z
#    x 3.480670 0.000000 0.000000 
#    y 0.000000 3.396950 0.000000 
#    z 0.000000 0.000000 3.710950 
# 
# 
# High freq. dielectric constant tensor:
#      x y z
#    x 1.736310 0.000000 0.000000 
#    y 0.000000 1.727020 0.000000 
#    z 0.000000 0.000000 1.730920 
# 
# From -- ./inp_files/51420.got.cif
#   From: 2010.03.12/outbox.cif.g09.slc.cpg/sg63_26_cif.got.tgz:51420.got - 2010.04.10 19:34:48.
