data_PCOD8259574
_publ_section_title
;
Structure prediction by ZEFSAII (Michael W. Deem and Ramdas Pophale) SiO2 
 PCOD8259574
Probable space group: C M C M
;
_chemical_formula_sum "Si O2"
_cell_formula_units_Z 96
_cell_length_a 20.486307
_cell_length_b 8.865529
_cell_length_c 25.717478
_cell_angle_alpha 90.000000
_cell_angle_beta 90.000000
_cell_angle_gamma 90.000000
_cell_volume 4670.858473
_symmetry_space_group_name_H-M "C M C M"
_symmetry_group_IT_number 63
_symmetry_cell_setting 'orthorhombic'
loop_
_space_group_symop_operation_xyz
x,y,z
-x,-y,1/2+z
x,-y,-z
-x,y,1/2-z
-x,-y,-z
x,y,1/2-z
-x,y,z
x,-y,1/2+z
1/2+x,1/2+y,z
1/2-x,1/2-y,1/2+z
1/2+x,1/2-y,-z
1/2-x,1/2+y,1/2-z
1/2-x,1/2-y,-z
1/2+x,1/2+y,1/2-z
1/2-x,1/2+y,z
1/2+x,1/2-y,1/2+z
loop_
_atom_site_type_symbol
_atom_site_label
_atom_site_fract_x
_atom_site_fract_y
_atom_site_fract_z
Si Si1 0.575296 0.530266 0.843789
Si Si2 0.655575 0.526383 0.560416
Si Si3 0.071927 0.298718 0.190536
Si Si4 0.689857 0.736643 0.690244
Si Si5 0.306092 0.053017 0.643834
Si Si6 0.756598 0.249751 0.061083
O O1 0.500000 0.579198 0.838318
O O2 0.591552 0.501866 0.904980
O O3 0.591277 0.376525 0.813788
O O4 0.620103 0.658107 0.818364
O O5 0.637543 0.500000 0.500000
O O6 0.682755 0.693645 0.576274
O O7 0.714682 0.412215 0.578516
O O8 0.071292 0.346122 0.250000
O O9 0.121894 0.407844 0.162715
O O10 0.000000 0.323199 0.165688
O O11 0.693166 0.793707 0.750000
O O12 0.749862 0.624914 0.679783
O O13 0.700635 0.872511 0.648814
O O14 0.303256 0.118475 0.584733
O O15 0.750000 0.250000 0.000000
#
# Coordination Sequence:
#
# PCOD8259574 Si02
#       6
#    16  16  16  16  16  16
#     4  11  23  40  60  84 120 165 208 253 307 365
#     4  10  20  37  61  92 119 154 197 251 314 369
#     4  10  21  38  60  85 117 160 205 249 302 363
#     4  12  25  38  59  90 122 159 203 253 303 360
#     4  12  22  40  63  90 123 159 201 254 306 367
#     4  10  20  36  61  93 121 148 193 249 312 370
#
# _framework density 20.552966000000001
#
# number of rings (size 3 to 8) (size 9 to 14) (size 15 to 20)
#    0.000    1.167    3.333    4.000    0.000    2.000 
#    0.000    0.000    0.000    0.000    0.000    2.333 
#    0.000    0.000    0.000    0.000    0.000    0.000 
#
# Total GULP energy -594706.868583 kJ/mol
# GULP energy per Si atom -12389.726429 kJ/mol
# Density = 2.050619 g / cm^3
# Si number density = 20.552966 Si / 1000 Ang^3
#
#
#
# Elastic Constant Matrix: (Units=GPa)
#
#
# Indices 1 2 3 4 5 6 
#
# 1 99.2469 30.8753 21.3135 0.0000 0.0000 0.0000
# 2 30.8753 93.0091 20.6760 0.0000 0.0000 0.0000
# 3 21.3135 20.6760 84.6512 0.0000 0.0000 0.0000
# 4 0.0000 0.0000 0.0000 28.8115 0.0000 0.0000
# 5 0.0000 0.0000 0.0000 0.0000 32.6859 0.0000
# 6 0.0000 0.0000 0.0000 0.0000 0.0000 30.8466
#
#
#
# Elastic Compliance Matrix: (Units=1/GPa)
#
#
# Indices 1 2 3 4 5 6 
#
# 1 0.011576 -0.003378 -0.002089 0.000000 0.000000 0.000000
# 2 -0.003378 0.012355 -0.002167 0.000000 0.000000 0.000000
# 3 -0.002089 -0.002167 0.012869 0.000000 0.000000 0.000000
# 4 0.000000 0.000000 0.000000 0.034708 0.000000 0.000000
# 5 0.000000 0.000000 0.000000 0.000000 0.030594 0.000000
# 6 0.000000 0.000000 0.000000 0.000000 0.000000 0.032418
#
#
# Mechanical properties :
#
#
# Convention : Reuss Voigt Hill
#
# Bulk Modulus (GPa) = 46.44764 46.95966 46.70365
# Shear Modulus (GPa) = 31.85409 32.07163 31.96286
#
# Velocity S-wave (km/s) = 3.94109 3.95452 3.94781
# Velocity P-wave (km/s) = 6.58465 6.61428 6.59948
#
# Compressibility (1/GPa) = 0.02152962
#
# Stress axis : x y z
#
# Youngs Moduli (GPa) = 86.38935 80.94028 77.70883
#
# Poissons Ratio (x) = 0.27343 0.16236
# Poissons Ratio (y) = 0.29184 0.16840
# Poissons Ratio (z) = 0.18050 0.17541
#
# Static dielectric constant tensor:
#      x y z
#    x 3.697170 0.000000 0.000000 
#    y 0.000000 3.107990 0.000000 
#    z 0.000000 0.000000 4.150270 
# 
# 
# High freq. dielectric constant tensor:
#      x y z
#    x 1.789490 0.000000 0.000000 
#    y 0.000000 1.804980 0.000000 
#    z 0.000000 0.000000 1.818880 
# 
# From -- ./inp_files/70300.got.cif
#   From: 2010.03.12/outbox.cif.g09.slc.cpg/sg63_36_cif.got.tgz:70300.got - 2010.04.10 19:34:48.
