data_PCOD8259126
_publ_section_title
;
Structure prediction by ZEFSAII (Michael W. Deem and Ramdas Pophale) SiO2 
 PCOD8259126
Probable space group: C M C M
;
_chemical_formula_sum "Si O2"
_cell_formula_units_Z 72
_cell_length_a 14.495897
_cell_length_b 30.520019
_cell_length_c 8.960514
_cell_angle_alpha 90.000000
_cell_angle_beta 90.000000
_cell_angle_gamma 90.000000
_cell_volume 3964.266266
_symmetry_space_group_name_H-M "C M C M"
_symmetry_group_IT_number 63
_symmetry_cell_setting 'orthorhombic'
loop_
_space_group_symop_operation_xyz
x,y,z
-x,-y,1/2+z
x,-y,-z
-x,y,1/2-z
-x,-y,-z
x,y,1/2-z
-x,y,z
x,-y,1/2+z
1/2+x,1/2+y,z
1/2-x,1/2-y,1/2+z
1/2+x,1/2-y,-z
1/2-x,1/2+y,1/2-z
1/2-x,1/2-y,-z
1/2+x,1/2+y,1/2-z
1/2-x,1/2+y,z
1/2+x,1/2-y,1/2+z
loop_
_atom_site_type_symbol
_atom_site_label
_atom_site_fract_x
_atom_site_fract_y
_atom_site_fract_z
Si Si1 0.500000 0.738133 0.425657
Si Si2 0.198234 0.790554 0.927187
Si Si3 0.000000 0.663995 0.573217
Si Si4 0.199570 0.953407 0.424705
Si Si5 0.695940 0.868736 0.426647
Si Si6 0.500000 0.545823 0.576686
O O1 0.500000 0.744338 0.250000
O O2 0.409178 0.711810 0.475996
O O3 0.500000 0.787096 0.496251
O O4 0.210307 0.788021 0.750000
O O5 0.250000 0.750000 0.000000
O O6 0.237200 0.835667 0.988758
O O7 0.091024 0.638335 0.518683
O O8 0.000000 0.666482 0.750000
O O9 0.204989 0.962240 0.250000
O O10 0.275821 0.917959 0.473599
O O11 0.098279 0.932201 0.468397
O O12 0.219986 0.000000 0.500000
O O13 0.707116 0.860894 0.250000
O O14 0.500000 0.500000 0.500000
O O15 0.500000 0.537101 0.750000
#
# Coordination Sequence:
#
# PCOD8259126 Si02
#       6
#     8  16   8  16  16   8
#     4   9  18  33  53  74 104 142 172 204 255 319
#     4  11  21  35  54  77 104 136 173 214 257 306
#     4   9  16  32  54  72 100 141 177 205 254 324
#     4   9  18  32  52  75 102 134 170 211 258 308
#     4  10  20  35  55  78 103 138 178 216 260 310
#     4   8  14  27  46  70  97 127 160 202 253 306
#
# _framework density 18.162251000000001
#
# number of rings (size 3 to 8) (size 9 to 14) (size 15 to 20)
#    0.000    2.444    2.222    0.667    0.000    1.778 
#    0.000    5.556    0.000    4.000    0.000    0.000 
#    0.000    0.000    0.000    0.000    0.000    0.000 
#
# Total GULP energy -446073.952169 kJ/mol
# GULP energy per Si atom -12390.943116 kJ/mol
# Density = 1.812091 g / cm^3
# Si number density = 18.162251 Si / 1000 Ang^3
#
#
#
# Elastic Constant Matrix: (Units=GPa)
#
#
# Indices 1 2 3 4 5 6 
#
# 1 183.3020 89.2275 37.0808 0.0000 0.0000 0.0000
# 2 89.2275 130.7861 33.7583 0.0000 0.0000 0.0000
# 3 37.0808 33.7583 37.2412 0.0000 0.0000 0.0000
# 4 0.0000 0.0000 0.0000 27.7832 0.0000 0.0000
# 5 0.0000 0.0000 0.0000 0.0000 20.6691 0.0000
# 6 0.0000 0.0000 0.0000 0.0000 0.0000 30.4796
#
#
#
# Elastic Compliance Matrix: (Units=1/GPa)
#
#
# Indices 1 2 3 4 5 6 
#
# 1 0.008657 -0.004806 -0.004264 0.000000 0.000000 0.000000
# 2 -0.004806 0.012649 -0.006681 0.000000 0.000000 0.000000
# 3 -0.004264 -0.006681 0.037154 0.000000 0.000000 0.000000
# 4 0.000000 0.000000 0.000000 0.035993 0.000000 0.000000
# 5 0.000000 0.000000 0.000000 0.000000 0.048381 0.000000
# 6 0.000000 0.000000 0.000000 0.000000 0.000000 0.032809
#
#
# Mechanical properties :
#
#
# Convention : Reuss Voigt Hill
#
# Bulk Modulus (GPa) = 37.09345 74.60693 55.85019
# Shear Modulus (GPa) = 23.13406 28.53722 25.83564
#
# Velocity S-wave (km/s) = 3.57283 3.96818 3.77568
# Velocity P-wave (km/s) = 6.12273 7.88432 7.05870
#
# Compressibility (1/GPa) = 0.02695894
#
# Stress axis : x y z
#
# Youngs Moduli (GPa) = 115.50821 79.05532 26.91523
#
# Poissons Ratio (x) = 0.37993 0.11476
# Poissons Ratio (y) = 0.55512 0.17983
# Poissons Ratio (z) = 0.49249 0.52818
#
# Static dielectric constant tensor:
#      x y z
#    x 8.723580 0.000000 0.000000 
#    y 0.000000 3.304540 0.000000 
#    z 0.000000 0.000000 3.143130 
# 
# 
# High freq. dielectric constant tensor:
#      x y z
#    x 1.719570 0.000000 0.000000 
#    y 0.000000 1.688830 0.000000 
#    z 0.000000 0.000000 1.680980 
# 
# From -- ./inp_files/4956.got.cif
#   From: 2010.03.12/outbox.cif.g09.slc.cpg/sg63_3_cif.got.tgz:4956.got - 2010.04.10 19:34:48.
