data_PCOD8259496
_publ_section_title
;
Structure prediction by ZEFSAII (Michael W. Deem and Ramdas Pophale) SiO2 
 PCOD8259496
Probable space group: C M C M
;
_chemical_formula_sum "Si O2"
_cell_formula_units_Z 96
_cell_length_a 9.002438
_cell_length_b 24.852522
_cell_length_c 23.458308
_cell_angle_alpha 90.000000
_cell_angle_beta 90.000000
_cell_angle_gamma 90.000000
_cell_volume 5248.404390
_symmetry_space_group_name_H-M "C M C M"
_symmetry_group_IT_number 63
_symmetry_cell_setting 'orthorhombic'
loop_
_space_group_symop_operation_xyz
x,y,z
-x,-y,1/2+z
x,-y,-z
-x,y,1/2-z
-x,-y,-z
x,y,1/2-z
-x,y,z
x,-y,1/2+z
1/2+x,1/2+y,z
1/2-x,1/2-y,1/2+z
1/2+x,1/2-y,-z
1/2-x,1/2+y,1/2-z
1/2-x,1/2-y,-z
1/2+x,1/2+y,1/2-z
1/2-x,1/2+y,z
1/2+x,1/2-y,1/2+z
loop_
_atom_site_type_symbol
_atom_site_label
_atom_site_fract_x
_atom_site_fract_y
_atom_site_fract_z
Si Si1 0.324072 0.103526 0.250000
Si Si2 0.171227 0.973788 0.057063
Si Si3 0.327765 0.428575 0.862830
Si Si4 0.326886 0.836926 0.933414
Si Si5 0.671870 0.759067 0.127422
Si Si6 0.670417 0.136868 0.561478
Si Si7 0.670059 0.283020 0.750000
O O1 0.500000 0.101172 0.250000
O O2 0.262638 0.072453 0.304572
O O3 0.275099 0.165406 0.250000
O O4 0.240157 0.917022 0.073214
O O5 0.000000 0.963154 0.044125
O O6 0.196017 0.012878 0.110387
O O7 0.244119 0.000000 0.000000
O O8 0.500000 0.416152 0.850780
O O9 0.268188 0.384208 0.906010
O O10 0.500000 0.845913 0.919575
O O11 0.276130 0.780319 0.908220
O O12 0.293439 0.836839 0.000449
O O13 0.500000 0.746498 0.112687
O O14 0.713172 0.819809 0.109843
O O15 0.703648 0.753006 0.194642
O O16 0.500000 0.120306 0.565287
O O17 0.500000 0.303400 0.750000
#
# Coordination Sequence:
#
# PCOD8259496 Si02
#       7
#     8  16  16  16  16  16   8
#     4  12  24  38  59  88 119 145 190 242 288 339
#     4  10  21  38  60  85 112 150 196 237 283 344
#     4  11  22  38  60  85 116 152 192 234 286 345
#     4  11  21  33  54  86 118 149 188 241 292 337
#     4  10  21  37  56  81 114 154 194 234 289 353
#     4  10  22  37  55  83 119 156 193 236 292 347
#     4  10  20  36  59  80 109 153 194 230 282 345
#
# _framework density 18.291273
#
# number of rings (size 3 to 8) (size 9 to 14) (size 15 to 20)
#    0.000    1.500    3.333    2.250    0.000    3.000 
#    0.000    0.833    0.000    1.000    0.000    0.000 
#    0.000    0.000    0.000    0.000    0.000    0.000 
#
# Total GULP energy -595395.086076 kJ/mol
# GULP energy per Si atom -12404.064293 kJ/mol
# Density = 1.824964 g / cm^3
# Si number density = 18.291273 Si / 1000 Ang^3
#
#
#
# Elastic Constant Matrix: (Units=GPa)
#
#
# Indices 1 2 3 4 5 6 
#
# 1 99.8540 62.9163 61.8105 0.0000 0.0000 0.0000
# 2 62.9163 134.5642 65.8501 0.0000 0.0000 0.0000
# 3 61.8105 65.8501 125.0339 0.0000 0.0000 0.0000
# 4 0.0000 0.0000 0.0000 4.8039 0.0000 0.0000
# 5 0.0000 0.0000 0.0000 0.0000 23.4543 0.0000
# 6 0.0000 0.0000 0.0000 0.0000 0.0000 33.5125
#
#
#
# Elastic Compliance Matrix: (Units=1/GPa)
#
#
# Indices 1 2 3 4 5 6 
#
# 1 0.016648 -0.005061 -0.005565 0.000000 0.000000 0.000000
# 2 -0.005061 0.011550 -0.003581 0.000000 0.000000 0.000000
# 3 -0.005565 -0.003581 0.012635 0.000000 0.000000 0.000000
# 4 0.000000 0.000000 0.000000 0.208163 0.000000 0.000000
# 5 0.000000 0.000000 0.000000 0.000000 0.042636 0.000000
# 6 0.000000 0.000000 0.000000 0.000000 0.000000 0.029840
#
#
# Mechanical properties :
#
#
# Convention : Reuss Voigt Hill
#
# Bulk Modulus (GPa) = 80.51739 82.28954 81.40347
# Shear Modulus (GPa) = 14.12333 23.61249 18.86791
#
# Velocity S-wave (km/s) = 2.78175 3.59683 3.21522
# Velocity P-wave (km/s) = 7.37785 7.89529 7.64095
#
# Compressibility (1/GPa) = 0.01241968
#
# Stress axis : x y z
#
# Youngs Moduli (GPa) = 60.06799 86.57989 79.14703
#
# Poissons Ratio (x) = 0.43816 0.44042
# Poissons Ratio (y) = 0.30399 0.28344
# Poissons Ratio (z) = 0.33425 0.31006
#
# Static dielectric constant tensor:
#      x y z
#    x 3.420900 0.000000 0.000000 
#    y 0.000000 3.310270 0.000000 
#    z 0.000000 0.000000 3.615900 
# 
# 
# High freq. dielectric constant tensor:
#      x y z
#    x 1.711630 0.000000 0.000000 
#    y 0.000000 1.704720 0.000000 
#    z 0.000000 0.000000 1.714090 
# 
# From -- ./inp_files/60087.got.cif
#   From: 2010.03.12/outbox.cif.g09.slc.cpg/sg63_31_cif.got.tgz:60087.got - 2010.04.10 19:34:48.
