data_PCOD8259021
_publ_section_title
;
Structure prediction by ZEFSAII (Michael W. Deem and Ramdas Pophale) SiO2 
 PCOD8259021
Probable space group: C M C M
;
_chemical_formula_sum "Si O2"
_cell_formula_units_Z 80
_cell_length_a 26.339986
_cell_length_b 16.429112
_cell_length_c 9.518750
_cell_angle_alpha 90.000000
_cell_angle_beta 90.000000
_cell_angle_gamma 90.000000
_cell_volume 4119.168434
_symmetry_space_group_name_H-M "C M C M"
_symmetry_group_IT_number 63
_symmetry_cell_setting 'orthorhombic'
loop_
_space_group_symop_operation_xyz
x,y,z
-x,-y,1/2+z
x,-y,-z
-x,y,1/2-z
-x,-y,-z
x,y,1/2-z
-x,y,z
x,-y,1/2+z
1/2+x,1/2+y,z
1/2-x,1/2-y,1/2+z
1/2+x,1/2-y,-z
1/2-x,1/2+y,1/2-z
1/2-x,1/2-y,-z
1/2+x,1/2+y,1/2-z
1/2-x,1/2+y,z
1/2+x,1/2-y,1/2+z
loop_
_atom_site_type_symbol
_atom_site_label
_atom_site_fract_x
_atom_site_fract_y
_atom_site_fract_z
Si Si1 0.144137 0.074079 0.911649
Si Si2 0.561655 0.065339 0.750000
Si Si3 0.441890 0.355703 0.907210
Si Si4 0.900454 0.315112 0.023906
Si Si5 0.057984 0.382928 0.750000
Si Si6 0.698775 0.743880 0.913681
O O1 0.136384 0.048635 0.750000
O O2 0.180391 0.151290 0.924197
O O3 0.089443 0.092541 0.980135
O O4 0.169164 0.000000 0.000000
O O5 0.500000 0.075036 0.750000
O O6 0.587501 0.105481 0.614591
O O7 0.582673 0.972857 0.750000
O O8 0.435024 0.391796 0.750000
O O9 0.500000 0.359121 0.955716
O O10 0.423168 0.262962 0.899495
O O11 0.928434 0.325818 0.878056
O O12 0.840666 0.304213 0.991214
O O13 0.000000 0.404558 0.750000
O O14 0.705975 0.769141 0.750000
O O15 0.750000 0.750000 0.000000
#
# Coordination Sequence:
#
# PCOD8259021 Si02
#       6
#    16   8  16  16   8  16
#     4  10  22  40  61  89 120 151 192 238 294 354
#     4  11  22  36  57  88 125 171 212 245 304 364
#     4  10  20  34  56  85 117 158 201 240 288 348
#     4  11  21  38  58  88 121 158 208 253 297 364
#     4  11  22  36  57  84 127 171 204 255 306 360
#     4  10  23  42  67  91 114 153 202 251 308 361
#
# _framework density 19.421396000000001
#
# number of rings (size 3 to 8) (size 9 to 14) (size 15 to 20)
#    0.000    1.600    2.000    3.000    2.800    4.000 
#    0.000    2.000    0.000    0.000    0.000    0.000 
#    0.000    0.000    0.000    0.000    0.000    0.000 
#
# Total GULP energy -495964.696030 kJ/mol
# GULP energy per Si atom -12399.117401 kJ/mol
# Density = 1.937719 g / cm^3
# Si number density = 19.421396 Si / 1000 Ang^3
#
#
#
# Elastic Constant Matrix: (Units=GPa)
#
#
# Indices 1 2 3 4 5 6 
#
# 1 120.5720 27.3185 58.9750 0.0000 0.0000 0.0000
# 2 27.3185 51.7486 19.7222 0.0000 0.0000 0.0000
# 3 58.9750 19.7222 135.3042 0.0000 0.0000 0.0000
# 4 0.0000 0.0000 0.0000 34.2677 0.0000 0.0000
# 5 0.0000 0.0000 0.0000 0.0000 34.9532 0.0000
# 6 0.0000 0.0000 0.0000 0.0000 0.0000 18.0683
#
#
#
# Elastic Compliance Matrix: (Units=1/GPa)
#
#
# Indices 1 2 3 4 5 6 
#
# 1 0.011403 -0.004368 -0.004334 0.000000 0.000000 0.000000
# 2 -0.004368 0.022134 -0.001322 0.000000 0.000000 0.000000
# 3 -0.004334 -0.001322 0.009472 0.000000 0.000000 0.000000
# 4 0.000000 0.000000 0.000000 0.029182 0.000000 0.000000
# 5 0.000000 0.000000 0.000000 0.000000 0.028610 0.000000
# 6 0.000000 0.000000 0.000000 0.000000 0.000000 0.055346
#
#
# Mechanical properties :
#
#
# Convention : Reuss Voigt Hill
#
# Bulk Modulus (GPa) = 43.55129 57.73956 50.64542
# Shear Modulus (GPa) = 27.19620 30.89844 29.04732
#
# Velocity S-wave (km/s) = 3.74615 3.99300 3.87154
# Velocity P-wave (km/s) = 6.41752 7.14515 6.79108
#
# Compressibility (1/GPa) = 0.02296143
#
# Stress axis : x y z
#
# Youngs Moduli (GPa) = 87.69470 45.17904 105.57013
#
# Poissons Ratio (x) = 0.19735 0.45750
# Poissons Ratio (y) = 0.38307 0.13960
# Poissons Ratio (z) = 0.38003 0.05974
#
# Static dielectric constant tensor:
#      x y z
#    x 3.405400 0.000000 0.000000 
#    y 0.000000 3.702860 0.000000 
#    z 0.000000 0.000000 3.820520 
# 
# 
# High freq. dielectric constant tensor:
#      x y z
#    x 1.738260 0.000000 0.000000 
#    y 0.000000 1.757930 0.000000 
#    z 0.000000 0.000000 1.775920 
# 
# From -- ./inp_files/12133.got.cif
#   From: 2010.03.12/outbox.cif.g09.slc.cpg/sg63_7_cif.got.tgz:12133.got - 2010.04.10 19:34:48.
