data_PCOD8259210
_publ_section_title
;
Structure prediction by ZEFSAII (Michael W. Deem and Ramdas Pophale) SiO2 
 PCOD8259210
Probable space group: C M C M
;
_chemical_formula_sum "Si O2"
_cell_formula_units_Z 64
_cell_length_a 14.517567
_cell_length_b 14.573629
_cell_length_c 14.985178
_cell_angle_alpha 90.000000
_cell_angle_beta 90.000000
_cell_angle_gamma 90.000000
_cell_volume 3170.468587
_symmetry_space_group_name_H-M "C M C M"
_symmetry_group_IT_number 63
_symmetry_cell_setting 'orthorhombic'
loop_
_space_group_symop_operation_xyz
x,y,z
-x,-y,1/2+z
x,-y,-z
-x,y,1/2-z
-x,-y,-z
x,y,1/2-z
-x,y,z
x,-y,1/2+z
1/2+x,1/2+y,z
1/2-x,1/2-y,1/2+z
1/2+x,1/2-y,-z
1/2-x,1/2+y,1/2-z
1/2-x,1/2-y,-z
1/2+x,1/2+y,1/2-z
1/2-x,1/2+y,z
1/2+x,1/2-y,1/2+z
loop_
_atom_site_type_symbol
_atom_site_label
_atom_site_fract_x
_atom_site_fract_y
_atom_site_fract_z
Si Si1 0.603532 0.587692 0.149250
Si Si2 0.706990 0.594206 0.647107
Si Si3 0.354222 0.275112 0.005267
Si Si4 0.398786 0.910508 0.444028
O O1 0.622885 0.622777 0.250000
O O2 0.500000 0.547898 0.141875
O O3 0.676143 0.508958 0.123174
O O4 0.614057 0.672568 0.083359
O O5 0.690790 0.617039 0.750000
O O6 0.637486 0.661614 0.593176
O O7 0.815940 0.605620 0.625988
O O8 0.408335 0.178473 0.009490
O O9 0.250000 0.250000 0.000000
O O10 0.500000 0.923708 0.397924
O O11 0.373101 0.000000 0.500000
#
# Coordination Sequence:
#
# PCOD8259210 Si02
#       4
#    16  16  16  16
#     4  10  21  37  60  89 116 145 186 237 292 346
#     4  10  21  37  58  86 118 149 186 233 286 345
#     4  10  20  35  56  82 113 149 187 230 280 333
#     4  10  21  38  58  80 111 153 198 239 281 333
#
# _framework density 20.186291000000001
#
# number of rings (size 3 to 8) (size 9 to 14) (size 15 to 20)
#    0.000    2.000    0.000    4.500    0.000    7.500 
#    0.000    1.250    0.000    1.500    0.000    0.000 
#    0.000    0.000    0.000    0.000    0.000    0.000 
#
# Total GULP energy -396520.198630 kJ/mol
# GULP energy per Si atom -12391.256207 kJ/mol
# Density = 2.014035 g / cm^3
# Si number density = 20.186291 Si / 1000 Ang^3
#
#
#
# Elastic Constant Matrix: (Units=GPa)
#
#
# Indices 1 2 3 4 5 6 
#
# 1 96.4512 22.3302 26.2475 0.0000 0.0000 0.0000
# 2 22.3302 144.0972 69.8585 0.0000 0.0000 0.0000
# 3 26.2475 69.8585 106.0904 0.0000 0.0000 0.0000
# 4 0.0000 0.0000 0.0000 19.4309 0.0000 0.0000
# 5 0.0000 0.0000 0.0000 0.0000 26.8298 0.0000
# 6 0.0000 0.0000 0.0000 0.0000 0.0000 14.5903
#
#
#
# Elastic Compliance Matrix: (Units=1/GPa)
#
#
# Indices 1 2 3 4 5 6 
#
# 1 0.011149 -0.000574 -0.002381 0.000000 0.000000 0.000000
# 2 -0.000574 0.010224 -0.006590 0.000000 0.000000 0.000000
# 3 -0.002381 -0.006590 0.014354 0.000000 0.000000 0.000000
# 4 0.000000 0.000000 0.000000 0.051464 0.000000 0.000000
# 5 0.000000 0.000000 0.000000 0.000000 0.037272 0.000000
# 6 0.000000 0.000000 0.000000 0.000000 0.000000 0.068539
#
#
# Mechanical properties :
#
#
# Convention : Reuss Voigt Hill
#
# Bulk Modulus (GPa) = 60.10335 64.83458 62.46896
# Shear Modulus (GPa) = 22.97414 27.38370 25.17892
#
# Velocity S-wave (km/s) = 3.37724 3.68713 3.53558
# Velocity P-wave (km/s) = 6.71168 7.09327 6.90511
#
# Compressibility (1/GPa) = 0.01663801
#
# Stress axis : x y z
#
# Youngs Moduli (GPa) = 89.69775 97.81359 69.66536
#
# Poissons Ratio (x) = 0.05610 0.16584
# Poissons Ratio (y) = 0.05145 0.45910
# Poissons Ratio (z) = 0.21353 0.64460
#
# Static dielectric constant tensor:
#      x y z
#    x 4.168430 0.000000 0.000000 
#    y 0.000000 4.387030 0.000000 
#    z 0.000000 0.000000 3.776730 
# 
# 
# High freq. dielectric constant tensor:
#      x y z
#    x 1.799560 0.000000 0.000000 
#    y 0.000000 1.799240 0.000000 
#    z 0.000000 0.000000 1.764150 
# 
# From -- ./inp_files/31096.got.cif
#   From: 2010.03.12/outbox.cif.g09.slc.cpg/sg63_16_cif.got.tgz:31096.got - 2010.04.10 19:34:48.
