data_PCOD8259612
_publ_section_title
;
Structure prediction by ZEFSAII (Michael W. Deem and Ramdas Pophale) SiO2 
 PCOD8259612
Probable space group: C M C M
;
_chemical_formula_sum "Si O2"
_cell_formula_units_Z 96
_cell_length_a 9.043016
_cell_length_b 19.841849
_cell_length_c 28.018676
_cell_angle_alpha 90.000000
_cell_angle_beta 90.000000
_cell_angle_gamma 90.000000
_cell_volume 5027.395461
_symmetry_space_group_name_H-M "C M C M"
_symmetry_group_IT_number 63
_symmetry_cell_setting 'orthorhombic'
loop_
_space_group_symop_operation_xyz
x,y,z
-x,-y,1/2+z
x,-y,-z
-x,y,1/2-z
-x,-y,-z
x,y,1/2-z
-x,y,z
x,-y,1/2+z
1/2+x,1/2+y,z
1/2-x,1/2-y,1/2+z
1/2+x,1/2-y,-z
1/2-x,1/2+y,1/2-z
1/2-x,1/2-y,-z
1/2+x,1/2+y,1/2-z
1/2-x,1/2+y,z
1/2+x,1/2-y,1/2+z
loop_
_atom_site_type_symbol
_atom_site_label
_atom_site_fract_x
_atom_site_fract_y
_atom_site_fract_z
Si Si1 0.829945 0.197200 0.467691
Si Si2 0.672663 0.500327 0.693962
Si Si3 0.326683 0.258670 0.865268
Si Si4 0.825083 0.397040 0.375573
Si Si5 0.666751 0.134830 0.193642
Si Si6 0.171661 0.067178 0.973522
O O1 0.750000 0.250000 0.500000
O O2 0.775389 0.203530 0.413455
O O3 0.796541 0.123404 0.486959
O O4 0.000000 0.216962 0.469913
O O5 0.701764 0.511009 0.750000
O O6 0.500000 0.499581 0.681604
O O7 0.750434 0.561350 0.666766
O O8 0.740339 0.429703 0.675638
O O9 0.500000 0.266285 0.855404
O O10 0.280224 0.180633 0.867896
O O11 0.239103 0.295368 0.823227
O O12 0.768484 0.421874 0.426697
O O13 0.000000 0.407248 0.373541
O O14 0.668039 0.137305 0.250000
O O15 0.500000 0.128466 0.173947
O O16 0.000000 0.065067 0.958174
O O17 0.222513 0.000000 0.000000
#
# Coordination Sequence:
#
# PCOD8259612 Si02
#       6
#    16  16  16  16  16  16
#     4  10  20  37  58  82 116 154 193 238 288 346
#     4  10  22  41  64  87 115 153 194 239 296 357
#     4  10  22  38  58  86 120 158 197 237 289 348
#     4  11  23  39  59  87 121 156 198 246 292 345
#     4  10  22  40  62  90 120 150 192 242 291 348
#     4  10  22  38  58  85 116 155 199 246 294 345
#
# _framework density 19.095375000000001
#
# number of rings (size 3 to 8) (size 9 to 14) (size 15 to 20)
#    0.000    1.833    1.667    1.500    2.333    5.000 
#    0.000    3.333    0.000    0.000    0.000    0.000 
#    0.000    0.000    0.000    0.000    0.000    0.000 
#
# Total GULP energy -595361.692265 kJ/mol
# GULP energy per Si atom -12403.368589 kJ/mol
# Density = 1.905191 g / cm^3
# Si number density = 19.095375 Si / 1000 Ang^3
#
#
#
# Elastic Constant Matrix: (Units=GPa)
#
#
# Indices 1 2 3 4 5 6 
#
# 1 99.0776 73.9807 48.8926 0.0000 0.0000 0.0000
# 2 73.9807 154.7280 60.4543 0.0000 0.0000 0.0000
# 3 48.8926 60.4543 60.0987 0.0000 0.0000 0.0000
# 4 0.0000 0.0000 0.0000 40.4659 0.0000 0.0000
# 5 0.0000 0.0000 0.0000 0.0000 35.3690 0.0000
# 6 0.0000 0.0000 0.0000 0.0000 0.0000 35.6029
#
#
#
# Elastic Compliance Matrix: (Units=1/GPa)
#
#
# Indices 1 2 3 4 5 6 
#
# 1 0.018956 -0.005005 -0.010386 0.000000 0.000000 0.000000
# 2 -0.005005 0.011970 -0.007968 0.000000 0.000000 0.000000
# 3 -0.010386 -0.007968 0.033104 0.000000 0.000000 0.000000
# 4 0.000000 0.000000 0.000000 0.024712 0.000000 0.000000
# 5 0.000000 0.000000 0.000000 0.000000 0.028273 0.000000
# 6 0.000000 0.000000 0.000000 0.000000 0.000000 0.028088
#
#
# Mechanical properties :
#
#
# Convention : Reuss Voigt Hill
#
# Bulk Modulus (GPa) = 57.77065 75.61771 66.69418
# Shear Modulus (GPa) = 25.30448 30.99267 28.14858
#
# Velocity S-wave (km/s) = 3.64423 4.03308 3.84357
# Velocity P-wave (km/s) = 6.93012 7.83413 7.39595
#
# Compressibility (1/GPa) = 0.01730983
#
# Stress axis : x y z
#
# Youngs Moduli (GPa) = 52.75341 83.54562 30.20739
#
# Poissons Ratio (x) = 0.41818 0.31375
# Poissons Ratio (y) = 0.26405 0.24070
# Poissons Ratio (z) = 0.54792 0.66571
#
# Static dielectric constant tensor:
#      x y z
#    x 3.334680 0.000000 0.000000 
#    y 0.000000 3.581820 0.000000 
#    z 0.000000 0.000000 3.505410 
# 
# 
# High freq. dielectric constant tensor:
#      x y z
#    x 1.746520 0.000000 0.000000 
#    y 0.000000 1.754470 0.000000 
#    z 0.000000 0.000000 1.745010 
# 
# From -- ./inp_files/66950.got.cif
#   From: 2010.03.12/outbox.cif.g09.slc.cpg/sg63_34_cif.got.tgz:66950.got - 2010.04.10 19:34:48.
