data_PCOD8259588
_publ_section_title
;
Structure prediction by ZEFSAII (Michael W. Deem and Ramdas Pophale) SiO2 
 PCOD8259588
Probable space group: C M C M
;
_chemical_formula_sum "Si O2"
_cell_formula_units_Z 112
_cell_length_a 14.378064
_cell_length_b 21.466436
_cell_length_c 17.221244
_cell_angle_alpha 90.000000
_cell_angle_beta 90.000000
_cell_angle_gamma 90.000000
_cell_volume 5315.264471
_symmetry_space_group_name_H-M "C M C M"
_symmetry_group_IT_number 63
_symmetry_cell_setting 'orthorhombic'
loop_
_space_group_symop_operation_xyz
x,y,z
-x,-y,1/2+z
x,-y,-z
-x,y,1/2-z
-x,-y,-z
x,y,1/2-z
-x,y,z
x,-y,1/2+z
1/2+x,1/2+y,z
1/2-x,1/2-y,1/2+z
1/2+x,1/2-y,-z
1/2-x,1/2+y,1/2-z
1/2-x,1/2-y,-z
1/2+x,1/2+y,1/2-z
1/2-x,1/2+y,z
1/2+x,1/2-y,1/2+z
loop_
_atom_site_type_symbol
_atom_site_label
_atom_site_fract_x
_atom_site_fract_y
_atom_site_fract_z
Si Si1 0.224426 0.477095 0.841803
Si Si2 0.396893 0.864931 0.842182
Si Si3 0.895688 0.407240 0.160386
Si Si4 0.106315 0.179574 0.527794
Si Si5 0.797200 0.240064 0.837248
Si Si6 0.103853 0.944759 0.939523
Si Si7 0.896729 0.727627 0.607705
O O1 0.227203 0.474013 0.750000
O O2 0.159489 0.422946 0.876830
O O3 0.179706 0.542524 0.868932
O O4 0.328582 0.466456 0.871052
O O5 0.400944 0.870003 0.750000
O O6 0.500000 0.865377 0.878232
O O7 0.347562 0.801658 0.867571
O O8 0.875347 0.387428 0.250000
O O9 0.887555 0.347321 0.104521
O O10 0.000000 0.435792 0.154982
O O11 0.171774 0.185162 0.603941
O O12 0.138794 0.119381 0.478942
O O13 0.116890 0.242470 0.477063
O O14 0.000000 0.170596 0.555541
O O15 0.828020 0.222084 0.750000
O O16 0.686096 0.252448 0.837542
O O17 0.000000 0.934493 0.905051
O O18 0.102558 0.000000 0.000000
O O19 0.000000 0.745770 0.640512
#
# Coordination Sequence:
#
# PCOD8259588 Si02
#       7
#    16  16  16  16  16  16  16
#     4  10  20  36  63  92 118 155 203 251 302 360
#     4   9  18  34  56  86 123 156 188 237 299 355
#     4   9  18  34  58  91 128 162 199 248 305 362
#     4  10  22  41  63  86 118 163 205 249 312 374
#     4  11  22  36  61  92 122 159 206 254 304 362
#     4  10  23  43  63  85 118 159 201 250 310 369
#     4  10  21  37  58  88 126 163 200 246 303 369
#
# _framework density 21.071387999999999
#
# number of rings (size 3 to 8) (size 9 to 14) (size 15 to 20)
#    0.000    2.143    0.000    2.571    2.000    3.714 
#    0.000    0.714    0.000   12.000    0.000    0.000 
#    0.000    0.000    0.000    0.000    0.000    0.000 
#
# Total GULP energy -694235.148188 kJ/mol
# GULP energy per Si atom -12397.056218 kJ/mol
# Density = 2.102343 g / cm^3
# Si number density = 21.071388 Si / 1000 Ang^3
#
#
#
# Elastic Constant Matrix: (Units=GPa)
#
#
# Indices 1 2 3 4 5 6 
#
# 1 136.7903 56.8223 33.9110 0.0000 0.0000 0.0000
# 2 56.8223 114.7219 41.8244 0.0000 0.0000 0.0000
# 3 33.9110 41.8244 54.9580 0.0000 0.0000 0.0000
# 4 0.0000 0.0000 0.0000 26.7332 0.0000 0.0000
# 5 0.0000 0.0000 0.0000 0.0000 22.2807 0.0000
# 6 0.0000 0.0000 0.0000 0.0000 0.0000 24.1175
#
#
#
# Elastic Compliance Matrix: (Units=1/GPa)
#
#
# Indices 1 2 3 4 5 6 
#
# 1 0.009591 -0.003589 -0.003187 0.000000 0.000000 0.000000
# 2 -0.003589 0.013407 -0.007988 0.000000 0.000000 0.000000
# 3 -0.003187 -0.007988 0.026242 0.000000 0.000000 0.000000
# 4 0.000000 0.000000 0.000000 0.037407 0.000000 0.000000
# 5 0.000000 0.000000 0.000000 0.000000 0.044882 0.000000
# 6 0.000000 0.000000 0.000000 0.000000 0.000000 0.041464
#
#
# Mechanical properties :
#
#
# Convention : Reuss Voigt Hill
#
# Bulk Modulus (GPa) = 50.73266 63.50951 57.12109
# Shear Modulus (GPa) = 23.91309 26.22044 25.06677
#
# Velocity S-wave (km/s) = 3.37242 3.53138 3.45282
# Velocity P-wave (km/s) = 6.26843 6.84347 6.56225
#
# Compressibility (1/GPa) = 0.01971117
#
# Stress axis : x y z
#
# Youngs Moduli (GPa) = 104.26131 74.59025 38.10737
#
# Poissons Ratio (x) = 0.26768 0.12145
# Poissons Ratio (y) = 0.37416 0.30442
# Poissons Ratio (z) = 0.33229 0.59586
#
# Static dielectric constant tensor:
#      x y z
#    x 4.161590 0.000000 0.000000 
#    y 0.000000 3.867890 0.000000 
#    z 0.000000 0.000000 3.363990 
# 
# 
# High freq. dielectric constant tensor:
#      x y z
#    x 1.841070 0.000000 0.000000 
#    y 0.000000 1.827170 0.000000 
#    z 0.000000 0.000000 1.790480 
# 
# From -- ./inp_files/32322.got.cif
#   From: 2010.03.12/outbox.cif.g09.slc.cpg/sg63_17_cif.got.tgz:32322.got - 2010.04.10 19:34:48.
