data_PCOD8259709
_publ_section_title
;
Structure prediction by ZEFSAII (Michael W. Deem and Ramdas Pophale) SiO2 
 PCOD8259709
Probable space group: C M C M
;
_chemical_formula_sum "Si O2"
_cell_formula_units_Z 96
_cell_length_a 23.309919
_cell_length_b 9.179648
_cell_length_c 23.934163
_cell_angle_alpha 90.000000
_cell_angle_beta 90.000000
_cell_angle_gamma 90.000000
_cell_volume 5121.356838
_symmetry_space_group_name_H-M "C M C M"
_symmetry_group_IT_number 63
_symmetry_cell_setting 'orthorhombic'
loop_
_space_group_symop_operation_xyz
x,y,z
-x,-y,1/2+z
x,-y,-z
-x,y,1/2-z
-x,-y,-z
x,y,1/2-z
-x,y,z
x,-y,1/2+z
1/2+x,1/2+y,z
1/2-x,1/2-y,1/2+z
1/2+x,1/2-y,-z
1/2-x,1/2+y,1/2-z
1/2-x,1/2-y,-z
1/2+x,1/2+y,1/2-z
1/2-x,1/2+y,z
1/2+x,1/2-y,1/2+z
loop_
_atom_site_type_symbol
_atom_site_label
_atom_site_fract_x
_atom_site_fract_y
_atom_site_fract_z
Si Si1 0.310636 0.719974 0.250000
Si Si2 0.500000 0.221443 0.188118
Si Si3 0.811835 0.429526 0.750000
Si Si4 0.807384 0.885842 0.956607
Si Si5 0.122961 0.720533 0.149706
Si Si6 0.876062 0.935916 0.652347
Si Si7 0.000000 0.062748 0.188007
Si Si8 0.180062 0.374767 0.963422
O O1 0.248759 0.648419 0.250000
O O2 0.344122 0.662858 0.303250
O O3 0.306184 0.895474 0.250000
O O4 0.500000 0.148187 0.250000
O O5 0.556306 0.175444 0.153752
O O6 0.500000 0.392099 0.196968
O O7 0.843806 0.377911 0.694125
O O8 0.850998 0.885489 0.905899
O O9 0.741910 0.925395 0.937770
O O10 0.807242 0.733985 0.986798
O O11 0.832698 0.000000 0.000000
O O12 0.141370 0.685524 0.086487
O O13 0.133563 0.891342 0.163231
O O14 0.943258 0.892490 0.653764
O O15 0.000000 0.135637 0.250000
O O16 0.148982 0.500000 0.000000
#
# Coordination Sequence:
#
# PCOD8259709 Si02
#       8
#     8   8   8  16  16  16   8  16
#     4  12  26  39  60  93 123 158 192 260 309 366
#     4   9  18  36  62  86 116 165 208 248 300 364
#     4  12  26  39  60  91 125 154 202 248 315 364
#     4  10  20  38  58  87 116 159 204 247 308 364
#     4  11  21  40  63  89 119 163 208 250 300 368
#     4  11  21  39  65  87 122 158 209 253 301 361
#     4   9  18  36  60  89 118 162 204 249 309 356
#     4  10  22  36  60  84 123 161 199 251 312 371
#
# _framework density 18.745031999999998
#
# number of rings (size 3 to 8) (size 9 to 14) (size 15 to 20)
#    0.000    1.500    3.333    2.500    2.333    0.000 
#    0.000    3.333    0.000    0.000    0.000    0.000 
#    0.000    0.000    0.000    0.000    0.000    0.000 
#
# Total GULP energy -594901.374445 kJ/mol
# GULP energy per Si atom -12393.778634 kJ/mol
# Density = 1.870237 g / cm^3
# Si number density = 18.745032 Si / 1000 Ang^3
#
#
#
# Elastic Constant Matrix: (Units=GPa)
#
#
# Indices 1 2 3 4 5 6 
#
# 1 158.2143 40.8785 76.9398 0.0000 0.0000 0.0000
# 2 40.8785 103.5190 34.7306 0.0000 0.0000 0.0000
# 3 76.9398 34.7306 123.4193 0.0000 0.0000 0.0000
# 4 0.0000 0.0000 0.0000 33.3982 0.0000 0.0000
# 5 0.0000 0.0000 0.0000 0.0000 27.9528 0.0000
# 6 0.0000 0.0000 0.0000 0.0000 0.0000 20.9369
#
#
#
# Elastic Compliance Matrix: (Units=1/GPa)
#
#
# Indices 1 2 3 4 5 6 
#
# 1 0.009407 -0.001929 -0.005321 0.000000 0.000000 0.000000
# 2 -0.001929 0.011063 -0.001910 0.000000 0.000000 0.000000
# 3 -0.005321 -0.001910 0.011957 0.000000 0.000000 0.000000
# 4 0.000000 0.000000 0.000000 0.029942 0.000000 0.000000
# 5 0.000000 0.000000 0.000000 0.000000 0.035775 0.000000
# 6 0.000000 0.000000 0.000000 0.000000 0.000000 0.047763
#
#
# Mechanical properties :
#
#
# Convention : Reuss Voigt Hill
#
# Bulk Modulus (GPa) = 70.89685 76.69451 73.79568
# Shear Modulus (GPa) = 29.59814 31.96450 30.78132
#
# Velocity S-wave (km/s) = 3.97796 4.13392 4.05669
# Velocity P-wave (km/s) = 7.68132 7.98681 7.83555
#
# Compressibility (1/GPa) = 0.01410500
#
# Stress axis : x y z
#
# Youngs Moduli (GPa) = 106.30630 90.39244 83.63069
#
# Poissons Ratio (x) = 0.17440 0.44502
# Poissons Ratio (y) = 0.20510 0.15977
# Poissons Ratio (z) = 0.56569 0.17268
#
# Static dielectric constant tensor:
#      x y z
#    x 3.883730 0.000000 0.000000 
#    y 0.000000 3.423630 0.000000 
#    z 0.000000 0.000000 3.322030 
# 
# 
# High freq. dielectric constant tensor:
#      x y z
#    x 1.727610 0.000000 0.000000 
#    y 0.000000 1.721970 0.000000 
#    z 0.000000 0.000000 1.731240 
# 
# From -- ./inp_files/65043.got.cif
#   From: 2010.03.12/outbox.cif.g09.slc.cpg/sg63_33_cif.got.tgz:65043.got - 2010.04.10 19:34:48.
