data_PCOD8259507
_publ_section_title
;
Structure prediction by ZEFSAII (Michael W. Deem and Ramdas Pophale) SiO2 
 PCOD8259507
Probable space group: C M C M
;
_chemical_formula_sum "Si O2"
_cell_formula_units_Z 80
_cell_length_a 11.818928
_cell_length_b 20.117795
_cell_length_c 16.907934
_cell_angle_alpha 90.000000
_cell_angle_beta 90.000000
_cell_angle_gamma 90.000000
_cell_volume 4020.212497
_symmetry_space_group_name_H-M "C M C M"
_symmetry_group_IT_number 63
_symmetry_cell_setting 'orthorhombic'
loop_
_space_group_symop_operation_xyz
x,y,z
-x,-y,1/2+z
x,-y,-z
-x,y,1/2-z
-x,-y,-z
x,y,1/2-z
-x,y,z
x,-y,1/2+z
1/2+x,1/2+y,z
1/2-x,1/2-y,1/2+z
1/2+x,1/2-y,-z
1/2-x,1/2+y,1/2-z
1/2-x,1/2-y,-z
1/2+x,1/2+y,1/2-z
1/2-x,1/2+y,z
1/2+x,1/2-y,1/2+z
loop_
_atom_site_type_symbol
_atom_site_label
_atom_site_fract_x
_atom_site_fract_y
_atom_site_fract_z
Si Si1 0.500000 0.689449 0.160085
Si Si2 0.000000 0.967634 0.838133
Si Si3 0.720958 0.248037 0.591303
Si Si4 0.745048 0.516012 0.155429
Si Si5 0.125602 0.355560 0.656964
Si Si6 0.129977 0.383917 0.156399
O O1 0.500000 0.719617 0.250000
O O2 0.500000 0.611303 0.165578
O O3 0.392902 0.713163 0.111182
O O4 0.116857 0.991806 0.879792
O O5 0.000000 0.997377 0.750000
O O6 0.750000 0.250000 0.500000
O O7 0.822485 0.283867 0.637403
O O8 0.709148 0.171946 0.618038
O O9 0.738129 0.520814 0.250000
O O10 0.800411 0.583734 0.121297
O O11 0.821662 0.454590 0.127517
O O12 0.118914 0.364046 0.750000
O O13 0.000000 0.359310 0.619984
O O14 0.137586 0.377713 0.250000
O O15 0.000000 0.376703 0.127888
#
# Coordination Sequence:
#
# PCOD8259507 Si02
#       6
#     8   8  16  16  16  16
#     4  11  20  40  71  91 111 162 227 261 288 367
#     4   9  16  30  59  91 115 144 199 259 301 347
#     4  12  25  38  59  87 126 157 203 256 311 356
#     4   9  17  32  57  91 119 147 197 261 306 351
#     4  10  20  36  59  85 116 155 202 252 305 365
#     4  10  20  37  63  90 117 154 205 254 301 363
#
# _framework density 19.899446000000001
#
# number of rings (size 3 to 8) (size 9 to 14) (size 15 to 20)
#    0.000    1.800    3.000    2.400    1.400    2.400 
#    1.800    1.000    0.000    3.600    0.000    0.000 
#    0.000    0.000    0.000    0.000    0.000    0.000 
#
# Total GULP energy -495891.034954 kJ/mol
# GULP energy per Si atom -12397.275874 kJ/mol
# Density = 1.985415 g / cm^3
# Si number density = 19.899446 Si / 1000 Ang^3
#
#
#
# Elastic Constant Matrix: (Units=GPa)
#
#
# Indices 1 2 3 4 5 6 
#
# 1 174.4118 68.0983 33.7801 0.0000 0.0000 0.0000
# 2 68.0983 122.0380 21.2154 0.0000 0.0000 0.0000
# 3 33.7801 21.2154 43.7472 0.0000 0.0000 0.0000
# 4 0.0000 0.0000 0.0000 0.8997 0.0000 0.0000
# 5 0.0000 0.0000 0.0000 0.0000 41.9605 0.0000
# 6 0.0000 0.0000 0.0000 0.0000 0.0000 42.4311
#
#
#
# Elastic Compliance Matrix: (Units=1/GPa)
#
#
# Indices 1 2 3 4 5 6 
#
# 1 0.008039 -0.003720 -0.004403 0.000000 0.000000 0.000000
# 2 -0.003720 0.010670 -0.002302 0.000000 0.000000 0.000000
# 3 -0.004403 -0.002302 0.027375 0.000000 0.000000 0.000000
# 4 0.000000 0.000000 0.000000 1.111428 0.000000 0.000000
# 5 0.000000 0.000000 0.000000 0.000000 0.023832 0.000000
# 6 0.000000 0.000000 0.000000 0.000000 0.000000 0.023568
#
#
# Mechanical properties :
#
#
# Convention : Reuss Voigt Hill
#
# Bulk Modulus (GPa) = 39.63014 65.15383 52.39199
# Shear Modulus (GPa) = 4.05129 31.53183 17.79156
#
# Velocity S-wave (km/s) = 1.42839 3.98497 2.99335
# Velocity P-wave (km/s) = 4.76223 7.34751 6.19131
#
# Compressibility (1/GPa) = 0.02523332
#
# Stress axis : x y z
#
# Youngs Moduli (GPa) = 124.39418 93.71795 36.52974
#
# Poissons Ratio (x) = 0.34866 0.16085
# Poissons Ratio (y) = 0.46279 0.08409
# Poissons Ratio (z) = 0.54773 0.21573
#
# Static dielectric constant tensor:
#      x y z
#    x 4.034450 0.000000 0.000000 
#    y 0.000000 4.072500 0.000000 
#    z 0.000000 0.000000 3.099380 
# 
# 
# High freq. dielectric constant tensor:
#      x y z
#    x 1.794660 0.000000 0.000000 
#    y 0.000000 1.781620 0.000000 
#    z 0.000000 0.000000 1.726980 
# 
# From -- ./inp_files/42194.got.cif
#   From: 2010.03.12/outbox.cif.g09.slc.cpg/sg63_22_cif.got.tgz:42194.got - 2010.04.10 19:34:48.
