data_PCOD8259577
_publ_section_title
;
Structure prediction by ZEFSAII (Michael W. Deem and Ramdas Pophale) SiO2 
 PCOD8259577
Probable space group: C M C M
;
_chemical_formula_sum "Si O2"
_cell_formula_units_Z 88
_cell_length_a 33.610964
_cell_length_b 5.145685
_cell_length_c 25.717810
_cell_angle_alpha 90.000000
_cell_angle_beta 90.000000
_cell_angle_gamma 90.000000
_cell_volume 4447.932101
_symmetry_space_group_name_H-M "C M C M"
_symmetry_group_IT_number 63
_symmetry_cell_setting 'orthorhombic'
loop_
_space_group_symop_operation_xyz
x,y,z
-x,-y,1/2+z
x,-y,-z
-x,y,1/2-z
-x,-y,-z
x,y,1/2-z
-x,y,z
x,-y,1/2+z
1/2+x,1/2+y,z
1/2-x,1/2-y,1/2+z
1/2+x,1/2-y,-z
1/2-x,1/2+y,1/2-z
1/2-x,1/2-y,-z
1/2+x,1/2+y,1/2-z
1/2-x,1/2+y,z
1/2+x,1/2-y,1/2+z
loop_
_atom_site_type_symbol
_atom_site_label
_atom_site_fract_x
_atom_site_fract_y
_atom_site_fract_z
Si Si1 0.224098 0.451844 0.645587
Si Si2 0.603607 0.380213 0.637759
Si Si3 0.675266 0.946437 0.750000
Si Si4 0.144813 0.637109 0.402909
Si Si5 0.044768 0.840033 0.553157
Si Si6 0.377755 0.444470 0.750000
Si Si7 0.104804 0.500000 0.500000
O O1 0.241540 0.739358 0.639932
O O2 0.202689 0.408020 0.700261
O O3 0.191656 0.420898 0.599762
O O4 0.637502 0.590821 0.625598
O O5 0.563609 0.467960 0.605236
O O6 0.594448 0.398458 0.699287
O O7 0.620403 0.095064 0.624863
O O8 0.640119 0.734317 0.750000
O O9 0.657945 0.236892 0.750000
O O10 0.132978 0.678835 0.464027
O O11 0.075736 0.613703 0.543377
O O12 0.000000 0.743288 0.565261
O O13 0.044792 0.000000 0.500000
#
# Coordination Sequence:
#
# PCOD8259577 Si02
#       7
#    16  16   8  16  16   8   8
#     4  12  23  38  55  84 119 149 194 254 302 346
#     4  11  21  38  58  88 119 161 193 243 286 359
#     4  12  22  37  58  86 111 153 198 255 289 350
#     4  11  22  39  60  85 116 154 205 236 300 351
#     4  10  20  36  61  94 122 148 192 248 301 339
#     4  12  20  37  61  84 120 155 208 233 288 354
#     4  10  21  38  64  88 118 158 196 252 288 358
#
# _framework density 19.784475
#
# number of rings (size 3 to 8) (size 9 to 14) (size 15 to 20)
#    0.000    0.909    5.455    3.000    0.000    0.000 
#    0.000    1.364    0.000    0.000    0.000    3.818 
#    0.000    0.000    0.000    0.000    0.000    0.000 
#
# Total GULP energy -545209.012629 kJ/mol
# GULP energy per Si atom -12391.113923 kJ/mol
# Density = 1.973944 g / cm^3
# Si number density = 19.784475 Si / 1000 Ang^3
#
#
#
# Elastic Constant Matrix: (Units=GPa)
#
#
# Indices 1 2 3 4 5 6 
#
# 1 97.2698 -0.4112 61.7581 0.0000 0.0000 0.0000
# 2 -0.4112 66.6468 12.1875 0.0000 0.0000 0.0000
# 3 61.7581 12.1875 119.2112 0.0000 0.0000 0.0000
# 4 0.0000 0.0000 0.0000 20.9391 0.0000 0.0000
# 5 0.0000 0.0000 0.0000 0.0000 29.5297 0.0000
# 6 0.0000 0.0000 0.0000 0.0000 0.0000 100.7556
#
#
#
# Elastic Compliance Matrix: (Units=1/GPa)
#
#
# Indices 1 2 3 4 5 6 
#
# 1 0.015484 0.001592 -0.008184 0.000000 0.000000 0.000000
# 2 0.001592 0.015454 -0.002405 0.000000 0.000000 0.000000
# 3 -0.008184 -0.002405 0.012874 0.000000 0.000000 0.000000
# 4 0.000000 0.000000 0.000000 0.047758 0.000000 0.000000
# 5 0.000000 0.000000 0.000000 0.000000 0.033864 0.000000
# 6 0.000000 0.000000 0.000000 0.000000 0.000000 0.009925
#
#
# Mechanical properties :
#
#
# Convention : Reuss Voigt Hill
#
# Bulk Modulus (GPa) = 38.73218 47.79963 43.26590
# Shear Modulus (GPa) = 30.87213 44.21778 37.54495
#
# Velocity S-wave (km/s) = 3.95450 4.73268 4.36098
# Velocity P-wave (km/s) = 6.36163 7.35370 6.87558
#
# Compressibility (1/GPa) = 0.02581832
#
# Stress axis : x y z
#
# Youngs Moduli (GPa) = 64.58414 64.70796 77.67480
#
# Poissons Ratio (x) = -0.10303 0.63570
# Poissons Ratio (y) = -0.10283 0.18679
# Poissons Ratio (z) = 0.52857 0.15561
#
# Static dielectric constant tensor:
#      x y z
#    x 3.671360 0.000000 0.000000 
#    y 0.000000 3.716880 0.000000 
#    z 0.000000 0.000000 5.298600 
# 
# 
# High freq. dielectric constant tensor:
#      x y z
#    x 1.753620 0.000000 0.000000 
#    y 0.000000 1.771780 0.000000 
#    z 0.000000 0.000000 1.778060 
# 
# From -- ./inp_files/71059.got.cif
#   From: 2010.03.12/outbox.cif.g09.slc.cpg/sg63_36_cif.got.tgz:71059.got - 2010.04.10 19:34:48.
