data_PCOD8259829
_publ_section_title
;
Structure prediction by ZEFSAII (Michael W. Deem and Ramdas Pophale) SiO2 
 PCOD8259829
Probable space group: C M C M
;
_chemical_formula_sum "Si O2"
_cell_formula_units_Z 72
_cell_length_a 22.840343
_cell_length_b 9.084498
_cell_length_c 18.077997
_cell_angle_alpha 90.000000
_cell_angle_beta 90.000000
_cell_angle_gamma 90.000000
_cell_volume 3751.058741
_symmetry_space_group_name_H-M "C M C M"
_symmetry_group_IT_number 63
_symmetry_cell_setting 'orthorhombic'
loop_
_space_group_symop_operation_xyz
x,y,z
-x,-y,1/2+z
x,-y,-z
-x,y,1/2-z
-x,-y,-z
x,y,1/2-z
-x,y,z
x,-y,1/2+z
1/2+x,1/2+y,z
1/2-x,1/2-y,1/2+z
1/2+x,1/2-y,-z
1/2-x,1/2+y,1/2-z
1/2-x,1/2-y,-z
1/2+x,1/2+y,1/2-z
1/2-x,1/2+y,z
1/2+x,1/2-y,1/2+z
loop_
_atom_site_type_symbol
_atom_site_label
_atom_site_fract_x
_atom_site_fract_y
_atom_site_fract_z
Si Si1 0.090742 0.717703 0.750000
Si Si2 0.500000 0.279056 0.374277
Si Si3 0.112222 0.839893 0.468428
Si Si4 0.223085 0.963142 0.084758
Si Si5 0.671943 0.762488 0.387740
Si Si6 0.500000 0.037134 0.250000
Si Si7 0.000000 0.975555 0.750000
O O1 0.127703 0.710897 0.676894
O O2 0.055353 0.567585 0.750000
O O3 0.056051 0.870976 0.750000
O O4 0.556943 0.270723 0.426746
O O5 0.500000 0.135995 0.323305
O O6 0.500000 0.426109 0.324255
O O7 0.166509 0.854757 0.410834
O O8 0.134683 0.737651 0.535979
O O9 0.094381 0.000000 0.500000
O O10 0.281302 0.893441 0.117391
O O11 0.207717 0.112667 0.127384
O O12 0.235210 0.000000 0.000000
#
# Coordination Sequence:
#
# PCOD8259829 Si02
#       7
#     8   8  16  16  16   4   4
#     4  11  24  42  54  78 120 159 188 230 290 341
#     4  11  21  39  65  87 107 147 197 237 278 344
#     4   9  18  34  60  91 115 143 191 239 282 336
#     4   9  18  35  56  86 114 142 182 235 286 327
#     4  10  21  36  58  82 114 151 187 229 280 336
#     4  10  28  42  52  82 124 148 178 238 300 328
#     4  10  20  40  62  78 114 154 186 242 288 324
#
# _framework density 19.194580999999999
#
# number of rings (size 3 to 8) (size 9 to 14) (size 15 to 20)
#    0.000    2.667    0.000    5.667    0.000    6.222 
#    0.000    3.333    0.000    0.000    0.000    0.000 
#    0.000    0.000    0.000    0.000    0.000    0.000 
#
# Total GULP energy -446261.366986 kJ/mol
# GULP energy per Si atom -12396.149083 kJ/mol
# Density = 1.915089 g / cm^3
# Si number density = 19.194581 Si / 1000 Ang^3
#
#
#
# Elastic Constant Matrix: (Units=GPa)
#
#
# Indices 1 2 3 4 5 6 
#
# 1 161.6076 78.4621 75.2204 0.0000 0.0000 0.0000
# 2 78.4621 109.8248 55.6065 0.0000 0.0000 0.0000
# 3 75.2204 55.6065 78.6046 0.0000 0.0000 0.0000
# 4 0.0000 0.0000 0.0000 26.0780 0.0000 0.0000
# 5 0.0000 0.0000 0.0000 0.0000 165.5803 0.0000
# 6 0.0000 0.0000 0.0000 0.0000 0.0000 -23.6613
#
#
#
# Elastic Compliance Matrix: (Units=1/GPa)
#
#
# Indices 1 2 3 4 5 6 
#
# 1 0.012410 -0.004445 -0.008731 0.000000 0.000000 0.000000
# 2 -0.004445 0.015779 -0.006909 0.000000 0.000000 0.000000
# 3 -0.008731 -0.006909 0.025964 0.000000 0.000000 0.000000
# 4 0.000000 0.000000 0.000000 0.038347 0.000000 0.000000
# 5 0.000000 0.000000 0.000000 0.000000 0.006039 0.000000
# 6 0.000000 0.000000 0.000000 0.000000 0.000000 -0.042263
#
#
# Mechanical properties :
#
#
# Convention : Reuss Voigt Hill
#
# Bulk Modulus (GPa) = 71.51203 85.40168 78.45685
# Shear Modulus (GPa) = 49.45253 42.98259 46.21756
#
# Velocity S-wave (km/s) = 5.08131 4.73727 4.91230
# Velocity P-wave (km/s) = 8.47134 8.63200 8.55205
#
# Compressibility (1/GPa) = 0.01398366
#
# Stress axis : x y z
#
# Youngs Moduli (GPa) = 80.58089 63.37422 38.51462
#
# Poissons Ratio (x) = 0.28172 0.33627
# Poissons Ratio (y) = 0.35821 0.26608
# Poissons Ratio (z) = 0.70354 0.43783
#
# Static dielectric constant tensor:
#      x y z
#    x 3.694600 0.000000 0.000000 
#    y 0.000000 3.608930 0.000000 
#    z 0.000000 0.000000 3.327240 
# 
# 
# High freq. dielectric constant tensor:
#      x y z
#    x 1.759950 0.000000 0.000000 
#    y 0.000000 1.739620 0.000000 
#    z 0.000000 0.000000 1.729420 
# 
# From -- ./inp_files/47848.got.cif
#   From: 2010.03.12/outbox.cif.g09.slc.cpg/sg63_24_cif.got.tgz:47848.got - 2010.04.10 19:34:48.
