data_PCOD8259095
_publ_section_title
;
Structure prediction by ZEFSAII (Michael W. Deem and Ramdas Pophale) SiO2 
 PCOD8259095
Probable space group: C M C M
;
_chemical_formula_sum "Si O2"
_cell_formula_units_Z 64
_cell_length_a 9.084433
_cell_length_b 35.750277
_cell_length_c 10.339050
_cell_angle_alpha 90.000000
_cell_angle_beta 90.000000
_cell_angle_gamma 90.000000
_cell_volume 3357.823568
_symmetry_space_group_name_H-M "C M C M"
_symmetry_group_IT_number 63
_symmetry_cell_setting 'orthorhombic'
loop_
_space_group_symop_operation_xyz
x,y,z
-x,-y,1/2+z
x,-y,-z
-x,y,1/2-z
-x,-y,-z
x,y,1/2-z
-x,y,z
x,-y,1/2+z
1/2+x,1/2+y,z
1/2-x,1/2-y,1/2+z
1/2+x,1/2-y,-z
1/2-x,1/2+y,1/2-z
1/2-x,1/2-y,-z
1/2+x,1/2+y,1/2-z
1/2-x,1/2+y,z
1/2+x,1/2-y,1/2+z
loop_
_atom_site_type_symbol
_atom_site_label
_atom_site_fract_x
_atom_site_fract_y
_atom_site_fract_z
Si Si1 0.328545 0.413998 0.250000
Si Si2 0.674407 0.210204 0.000697
Si Si3 0.824953 0.580991 0.250000
Si Si4 0.828816 0.956595 0.510008
Si Si5 0.173245 0.335103 0.250000
Si Si6 0.674500 0.165602 0.250000
O O1 0.500000 0.404900 0.250000
O O2 0.283303 0.437651 0.375402
O O3 0.243118 0.375535 0.250000
O O4 0.500000 0.215913 0.003958
O O5 0.726166 0.187642 0.874940
O O6 0.750000 0.250000 0.000000
O O7 0.732762 0.187148 0.123884
O O8 0.767723 0.560848 0.122657
O O9 0.764326 0.623455 0.250000
O O10 0.000000 0.579801 0.250000
O O11 0.000000 0.950464 0.542733
O O12 0.790370 0.000000 0.500000
O O13 0.000000 0.340812 0.250000
O O14 0.500000 0.164618 0.250000
#
# Coordination Sequence:
#
# PCOD8259095 Si02
#       6
#     8  16   8  16   8   8
#     4  10  21  36  58  85 109 144 193 233 271 329
#     4  10  20  35  54  76 103 138 177 217 267 323
#     4  11  22  37  59  86 114 147 188 231 277 331
#     4  10  21  39  60  82 113 151 187 228 281 334
#     4  10  21  36  54  77 109 144 175 219 281 333
#     4   9  19  35  53  74 106 143 172 209 269 327
#
# _framework density 19.059965999999999
#
# number of rings (size 3 to 8) (size 9 to 14) (size 15 to 20)
#    0.000    2.000    0.000    3.375    0.000    6.500 
#    0.000    3.750    0.000    0.000    0.000    0.000 
#    0.000    0.000    0.000    0.000    0.000    0.000 
#
# Total GULP energy -396932.965822 kJ/mol
# GULP energy per Si atom -12404.155182 kJ/mol
# Density = 1.901658 g / cm^3
# Si number density = 19.059966 Si / 1000 Ang^3
#
#
#
# Elastic Constant Matrix: (Units=GPa)
#
#
# Indices 1 2 3 4 5 6 
#
# 1 43.4423 57.2799 50.5350 0.0000 0.0000 0.0000
# 2 57.2799 201.8228 107.7145 0.0000 0.0000 0.0000
# 3 50.5350 107.7145 198.8627 0.0000 0.0000 0.0000
# 4 0.0000 0.0000 0.0000 39.9722 0.0000 0.0000
# 5 0.0000 0.0000 0.0000 0.0000 20.3290 0.0000
# 6 0.0000 0.0000 0.0000 0.0000 0.0000 37.9642
#
#
#
# Elastic Compliance Matrix: (Units=1/GPa)
#
#
# Indices 1 2 3 4 5 6 
#
# 1 0.041040 -0.008555 -0.005796 0.000000 0.000000 0.000000
# 2 -0.008555 0.008753 -0.002567 0.000000 0.000000 0.000000
# 3 -0.005796 -0.002567 0.007892 0.000000 0.000000 0.000000
# 4 0.000000 0.000000 0.000000 0.025017 0.000000 0.000000
# 5 0.000000 0.000000 0.000000 0.000000 0.049191 0.000000
# 6 0.000000 0.000000 0.000000 0.000000 0.000000 0.026341
#
#
# Mechanical properties :
#
#
# Convention : Reuss Voigt Hill
#
# Bulk Modulus (GPa) = 41.92792 97.24296 69.58544
# Shear Modulus (GPa) = 24.99768 34.89297 29.94533
#
# Velocity S-wave (km/s) = 3.62543 4.28330 3.96802
# Velocity P-wave (km/s) = 6.29052 8.69439 7.58825
#
# Compressibility (1/GPa) = 0.02385046
#
# Stress axis : x y z
#
# Youngs Moduli (GPa) = 24.36627 114.24863 126.71344
#
# Poissons Ratio (x) = 0.97736 0.73437
# Poissons Ratio (y) = 0.20845 0.32528
# Poissons Ratio (z) = 0.14122 0.29329
#
# Static dielectric constant tensor:
#      x y z
#    x 3.268940 0.000000 0.000000 
#    y 0.000000 3.605440 0.000000 
#    z 0.000000 0.000000 3.615860 
# 
# 
# High freq. dielectric constant tensor:
#      x y z
#    x 1.720090 0.000000 0.000000 
#    y 0.000000 1.759690 0.000000 
#    z 0.000000 0.000000 1.763610 
# 
# From -- ./inp_files/16288.got.cif
#   From: 2010.03.12/outbox.cif.g09.slc.cpg/sg63_9_cif.got.tgz:16288.got - 2010.04.10 19:34:48.
