data_PCOD8259492
_publ_section_title
;
Structure prediction by ZEFSAII (Michael W. Deem and Ramdas Pophale) SiO2 
 PCOD8259492
Probable space group: C M C M
;
_chemical_formula_sum "Si O2"
_cell_formula_units_Z 96
_cell_length_a 14.241387
_cell_length_b 32.091499
_cell_length_c 10.744263
_cell_angle_alpha 90.000000
_cell_angle_beta 90.000000
_cell_angle_gamma 90.000000
_cell_volume 4910.423193
_symmetry_space_group_name_H-M "C M C M"
_symmetry_group_IT_number 63
_symmetry_cell_setting 'orthorhombic'
loop_
_space_group_symop_operation_xyz
x,y,z
-x,-y,1/2+z
x,-y,-z
-x,y,1/2-z
-x,-y,-z
x,y,1/2-z
-x,y,z
x,-y,1/2+z
1/2+x,1/2+y,z
1/2-x,1/2-y,1/2+z
1/2+x,1/2-y,-z
1/2-x,1/2+y,1/2-z
1/2-x,1/2-y,-z
1/2+x,1/2+y,1/2-z
1/2-x,1/2+y,z
1/2+x,1/2-y,1/2+z
loop_
_atom_site_type_symbol
_atom_site_label
_atom_site_fract_x
_atom_site_fract_y
_atom_site_fract_z
Si Si1 0.104878 0.087662 0.985798
Si Si2 0.110534 0.031988 0.750000
Si Si3 0.607210 0.303293 0.750000
Si Si4 0.607468 0.828002 0.525288
Si Si5 0.838233 0.941493 0.750000
Si Si6 0.281060 0.864993 0.750000
Si Si7 0.280676 0.340890 0.387294
Si Si8 0.895162 0.768278 0.484941
O O1 0.137397 0.056444 0.876359
O O2 0.171969 0.128068 0.986929
O O3 0.000000 0.102959 0.955341
O O4 0.105298 0.067849 0.122743
O O5 0.000000 0.019880 0.750000
O O6 0.176875 0.991171 0.750000
O O7 0.500000 0.321551 0.750000
O O8 0.680694 0.341281 0.750000
O O9 0.624061 0.273586 0.631799
O O10 0.500000 0.841395 0.503415
O O11 0.654011 0.854318 0.634141
O O12 0.668168 0.838936 0.402987
O O13 0.616564 0.779312 0.556404
O O14 0.741672 0.914671 0.750000
O O15 0.304544 0.357105 0.250000
O O16 0.321155 0.294668 0.406382
O O17 0.000000 0.783687 0.452126
#
# Coordination Sequence:
#
# PCOD8259492 Si02
#       8
#    16   8   8  16   8   8  16  16
#     4  11  22  39  61  92 133 165 194 233 288 364
#     4  10  22  39  61  95 133 164 190 231 287 368
#     4  10  20  36  58  87 117 149 193 243 301 358
#     4  11  25  42  58  83 114 155 211 261 304 346
#     4  12  22  38  62  92 121 163 201 232 291 355
#     4  12  23  39  61  84 117 156 198 250 299 351
#     4  12  24  38  60  86 119 160 204 245 304 357
#     4  10  22  37  58  85 118 158 199 248 300 359
#
# _framework density 19.550249999999998
#
# number of rings (size 3 to 8) (size 9 to 14) (size 15 to 20)
#    0.000    1.000    4.167    2.500    2.333    5.000 
#    0.000    0.000    0.000    0.000    0.000    3.500 
#    0.000    0.000    0.000    0.000    0.000    0.000 
#
# Total GULP energy -595176.502991 kJ/mol
# GULP energy per Si atom -12399.510479 kJ/mol
# Density = 1.950575 g / cm^3
# Si number density = 19.550250 Si / 1000 Ang^3
#
#
#
# Elastic Constant Matrix: (Units=GPa)
#
#
# Indices 1 2 3 4 5 6 
#
# 1 129.4589 46.8880 33.9429 0.0000 0.0000 0.0000
# 2 46.8880 92.8134 26.5433 0.0000 0.0000 0.0000
# 3 33.9429 26.5433 111.2171 0.0000 0.0000 0.0000
# 4 0.0000 0.0000 0.0000 25.2148 0.0000 0.0000
# 5 0.0000 0.0000 0.0000 0.0000 22.9424 0.0000
# 6 0.0000 0.0000 0.0000 0.0000 0.0000 27.9811
#
#
#
# Elastic Compliance Matrix: (Units=1/GPa)
#
#
# Indices 1 2 3 4 5 6 
#
# 1 0.009833 -0.004410 -0.001948 0.000000 0.000000 0.000000
# 2 -0.004410 0.013542 -0.001886 0.000000 0.000000 0.000000
# 3 -0.001948 -0.001886 0.010036 0.000000 0.000000 0.000000
# 4 0.000000 0.000000 0.000000 0.039659 0.000000 0.000000
# 5 0.000000 0.000000 0.000000 0.000000 0.043587 0.000000
# 6 0.000000 0.000000 0.000000 0.000000 0.000000 0.035738
#
#
# Mechanical properties :
#
#
# Convention : Reuss Voigt Hill
#
# Bulk Modulus (GPa) = 59.09605 60.91531 60.00568
# Shear Modulus (GPa) = 28.64926 30.30200 29.47563
#
# Velocity S-wave (km/s) = 3.83223 3.94122 3.88711
# Velocity P-wave (km/s) = 7.06220 7.20673 7.13483
#
# Compressibility (1/GPa) = 0.01692160
#
# Stress axis : x y z
#
# Youngs Moduli (GPa) = 101.70300 73.84680 99.63985
#
# Poissons Ratio (x) = 0.32567 0.19413
# Poissons Ratio (y) = 0.44852 0.18791
# Poissons Ratio (z) = 0.19815 0.13927
#
# Static dielectric constant tensor:
#      x y z
#    x 3.590610 0.000000 0.000000 
#    y 0.000000 3.389910 0.000000 
#    z 0.000000 0.000000 3.693080 
# 
# 
# High freq. dielectric constant tensor:
#      x y z
#    x 1.745770 0.000000 0.000000 
#    y 0.000000 1.740770 0.000000 
#    z 0.000000 0.000000 1.777560 
# 
# From -- ./inp_files/20044.got.cif
#   From: 2010.03.12/outbox.cif.g09.slc.cpg/sg63_11_cif.got.tgz:20044.got - 2010.04.10 19:34:48.
