data_PCOD8259986
_publ_section_title
;
Structure prediction by ZEFSAII (Michael W. Deem and Ramdas Pophale) SiO2 
 PCOD8259986
Probable space group: C M C M
;
_chemical_formula_sum "Si O2"
_cell_formula_units_Z 88
_cell_length_a 22.124027
_cell_length_b 13.051800
_cell_length_c 15.540444
_cell_angle_alpha 90.000000
_cell_angle_beta 90.000000
_cell_angle_gamma 90.000000
_cell_volume 4487.433366
_symmetry_space_group_name_H-M "C M C M"
_symmetry_group_IT_number 63
_symmetry_cell_setting 'orthorhombic'
loop_
_space_group_symop_operation_xyz
x,y,z
-x,-y,1/2+z
x,-y,-z
-x,y,1/2-z
-x,-y,-z
x,y,1/2-z
-x,y,z
x,-y,1/2+z
1/2+x,1/2+y,z
1/2-x,1/2-y,1/2+z
1/2+x,1/2-y,-z
1/2-x,1/2+y,1/2-z
1/2-x,1/2-y,-z
1/2+x,1/2+y,1/2-z
1/2-x,1/2+y,z
1/2+x,1/2-y,1/2+z
loop_
_atom_site_type_symbol
_atom_site_label
_atom_site_fract_x
_atom_site_fract_y
_atom_site_fract_z
Si Si1 0.071056 0.453548 0.591843
Si Si2 0.722940 0.450650 0.750000
Si Si3 0.847083 0.251276 0.250000
Si Si4 0.647924 0.977248 0.250000
Si Si5 0.143674 0.024152 0.597347
Si Si6 0.432745 0.718905 0.920637
Si Si7 0.066211 0.167794 0.116053
O O1 0.091418 0.500000 0.500000
O O2 0.107084 0.511617 0.665878
O O3 0.087693 0.333729 0.602206
O O4 0.000000 0.472017 0.605460
O O5 0.706268 0.331040 0.750000
O O6 0.795224 0.446888 0.750000
O O7 0.698061 0.506646 0.664188
O O8 0.820829 0.365141 0.250000
O O9 0.888476 0.239720 0.333413
O O10 0.117746 0.138692 0.611794
O O11 0.166983 0.000000 0.500000
O O12 0.088085 0.949400 0.617863
O O13 0.500000 0.695812 0.881951
O O14 0.437200 0.713694 0.022255
O O15 0.000000 0.169439 0.158839
#
# Coordination Sequence:
#
# PCOD8259986 Si02
#       7
#    16   8   8   8  16  16  16
#     4  10  22  39  58  84 114 141 177 224 272 327
#     4  10  24  40  55  79 109 142 187 231 264 311
#     4  10  21  36  53  77 106 142 187 229 268 313
#     4  12  25  40  60  80 105 144 186 224 268 322
#     4   9  18  34  55  81 113 146 182 224 269 318
#     4   9  17  31  54  82 113 147 178 217 275 331
#     4   9  16  29  53  84 114 143 177 221 272 324
#
# _framework density 19.610319
#
# number of rings (size 3 to 8) (size 9 to 14) (size 15 to 20)
#    0.000    2.364    0.000    2.182    0.000    8.000 
#    0.000    2.273    0.000    8.727    0.000    0.000 
#    0.000    0.000    0.000    0.000    0.000    0.000 
#
# Total GULP energy -545493.930828 kJ/mol
# GULP energy per Si atom -12397.589337 kJ/mol
# Density = 1.956569 g / cm^3
# Si number density = 19.610319 Si / 1000 Ang^3
#
#
#
# Elastic Constant Matrix: (Units=GPa)
#
#
# Indices 1 2 3 4 5 6 
#
# 1 84.5533 33.8400 44.2309 0.0000 0.0000 0.0000
# 2 33.8400 117.1459 36.5364 0.0000 0.0000 0.0000
# 3 44.2309 36.5364 94.0094 0.0000 0.0000 0.0000
# 4 0.0000 0.0000 0.0000 19.2276 0.0000 0.0000
# 5 0.0000 0.0000 0.0000 0.0000 11.3694 0.0000
# 6 0.0000 0.0000 0.0000 0.0000 0.0000 18.3661
#
#
#
# Elastic Compliance Matrix: (Units=1/GPa)
#
#
# Indices 1 2 3 4 5 6 
#
# 1 0.016380 -0.002649 -0.006677 0.000000 0.000000 0.000000
# 2 -0.002649 0.010142 -0.002695 0.000000 0.000000 0.000000
# 3 -0.006677 -0.002695 0.014826 0.000000 0.000000 0.000000
# 4 0.000000 0.000000 0.000000 0.052009 0.000000 0.000000
# 5 0.000000 0.000000 0.000000 0.000000 0.087955 0.000000
# 6 0.000000 0.000000 0.000000 0.000000 0.000000 0.054448
#
#
# Mechanical properties :
#
#
# Convention : Reuss Voigt Hill
#
# Bulk Modulus (GPa) = 57.78564 58.32481 58.05523
# Shear Modulus (GPa) = 18.82726 21.86604 20.34665
#
# Velocity S-wave (km/s) = 3.10186 3.34282 3.22459
# Velocity P-wave (km/s) = 6.50843 6.68624 6.59793
#
# Compressibility (1/GPa) = 0.01730534
#
# Stress axis : x y z
#
# Youngs Moduli (GPa) = 61.05004 98.59714 67.44770
#
# Poissons Ratio (x) = 0.26120 0.45035
# Poissons Ratio (y) = 0.16173 0.18179
# Poissons Ratio (z) = 0.40764 0.26575
#
# Static dielectric constant tensor:
#      x y z
#    x 3.300590 0.000000 0.000000 
#    y 0.000000 3.621050 0.000000 
#    z 0.000000 0.000000 4.600660 
# 
# 
# High freq. dielectric constant tensor:
#      x y z
#    x 1.740240 0.000000 0.000000 
#    y 0.000000 1.770790 0.000000 
#    z 0.000000 0.000000 1.765620 
# 
# From -- ./inp_files/36645.got.cif
#   From: 2010.03.12/outbox.cif.g09.slc.cpg/sg63_19_cif.got.tgz:36645.got - 2010.04.10 19:34:48.
