data_PCOD8259771
_publ_section_title
;
Structure prediction by ZEFSAII (Michael W. Deem and Ramdas Pophale) SiO2 
 PCOD8259771
Probable space group: C M C M
;
_chemical_formula_sum "Si O2"
_cell_formula_units_Z 96
_cell_length_a 18.993421
_cell_length_b 14.463605
_cell_length_c 17.483024
_cell_angle_alpha 90.000000
_cell_angle_beta 90.000000
_cell_angle_gamma 90.000000
_cell_volume 4802.819898
_symmetry_space_group_name_H-M "C M C M"
_symmetry_group_IT_number 63
_symmetry_cell_setting 'orthorhombic'
loop_
_space_group_symop_operation_xyz
x,y,z
-x,-y,1/2+z
x,-y,-z
-x,y,1/2-z
-x,-y,-z
x,y,1/2-z
-x,y,z
x,-y,1/2+z
1/2+x,1/2+y,z
1/2-x,1/2-y,1/2+z
1/2+x,1/2-y,-z
1/2-x,1/2+y,1/2-z
1/2-x,1/2-y,-z
1/2+x,1/2+y,1/2-z
1/2-x,1/2+y,z
1/2+x,1/2-y,1/2+z
loop_
_atom_site_type_symbol
_atom_site_label
_atom_site_fract_x
_atom_site_fract_y
_atom_site_fract_z
Si Si1 0.279930 0.971663 0.589207
Si Si2 0.421150 0.258677 0.902792
Si Si3 0.812451 0.119040 0.837331
Si Si4 0.920083 0.095121 0.535346
Si Si5 0.575751 0.955704 0.082128
Si Si6 0.776405 0.798065 0.836418
O O1 0.260199 0.864778 0.601284
O O2 0.274725 0.000000 0.500000
O O3 0.224513 0.023591 0.641945
O O4 0.358308 0.993785 0.622774
O O5 0.500000 0.271472 0.867222
O O6 0.408205 0.152900 0.926735
O O7 0.361158 0.290971 0.843768
O O8 0.413320 0.320828 0.977356
O O9 0.837623 0.117982 0.750000
O O10 0.881426 0.128806 0.888631
O O11 0.756584 0.198967 0.854283
O O12 0.000000 0.074296 0.558890
O O13 0.887196 0.000000 0.500000
O O14 0.500000 0.970239 0.125598
O O15 0.567988 0.000000 0.000000
O O16 0.759418 0.830479 0.750000
#
# Coordination Sequence:
#
# PCOD8259771 Si02
#       6
#    16  16  16  16  16  16
#     4  11  22  37  62  88 114 156 198 252 296 347
#     4  10  20  38  64  90 119 153 198 254 299 344
#     4  11  23  38  57  84 121 160 194 236 297 359
#     4  10  22  39  60  88 117 151 200 251 297 346
#     4   9  19  35  57  89 118 148 193 246 302 348
#     4  11  24  39  57  86 125 159 195 240 295 363
#
# _framework density 19.988257999999998
#
# number of rings (size 3 to 8) (size 9 to 14) (size 15 to 20)
#    0.000    1.667    1.667    3.000    4.667    2.000 
#    0.000    0.000    0.000    8.000    0.000    0.000 
#    0.000    0.000    0.000    0.000    0.000    0.000 
#
# Total GULP energy -595013.766750 kJ/mol
# GULP energy per Si atom -12396.120141 kJ/mol
# Density = 1.994276 g / cm^3
# Si number density = 19.988258 Si / 1000 Ang^3
#
#
#
# Elastic Constant Matrix: (Units=GPa)
#
#
# Indices 1 2 3 4 5 6 
#
# 1 127.5112 33.5601 43.4560 0.0000 0.0000 0.0000
# 2 33.5601 82.3408 21.9728 0.0000 0.0000 0.0000
# 3 43.4560 21.9728 79.1356 0.0000 0.0000 0.0000
# 4 0.0000 0.0000 0.0000 24.7499 0.0000 0.0000
# 5 0.0000 0.0000 0.0000 0.0000 25.1104 0.0000
# 6 0.0000 0.0000 0.0000 0.0000 0.0000 41.1574
#
#
#
# Elastic Compliance Matrix: (Units=1/GPa)
#
#
# Indices 1 2 3 4 5 6 
#
# 1 0.010247 -0.002889 -0.004825 0.000000 0.000000 0.000000
# 2 -0.002889 0.013931 -0.002282 0.000000 0.000000 0.000000
# 3 -0.004825 -0.002282 0.015920 0.000000 0.000000 0.000000
# 4 0.000000 0.000000 0.000000 0.040404 0.000000 0.000000
# 5 0.000000 0.000000 0.000000 0.000000 0.039824 0.000000
# 6 0.000000 0.000000 0.000000 0.000000 0.000000 0.024297
#
#
# Mechanical properties :
#
#
# Convention : Reuss Voigt Hill
#
# Bulk Modulus (GPa) = 49.73472 54.10725 51.92099
# Shear Modulus (GPa) = 29.18580 30.87012 30.02796
#
# Velocity S-wave (km/s) = 3.82533 3.93417 3.88013
# Velocity P-wave (km/s) = 6.66685 6.91123 6.79014
#
# Compressibility (1/GPa) = 0.02010668
#
# Stress axis : x y z
#
# Youngs Moduli (GPa) = 97.58834 71.78245 62.81573
#
# Poissons Ratio (x) = 0.20738 0.30308
# Poissons Ratio (y) = 0.28193 0.14332
# Poissons Ratio (z) = 0.47085 0.16378
#
# Static dielectric constant tensor:
#      x y z
#    x 4.318180 0.000000 0.000000 
#    y 0.000000 3.716470 0.000000 
#    z 0.000000 0.000000 3.277840 
# 
# 
# High freq. dielectric constant tensor:
#      x y z
#    x 1.799600 0.000000 0.000000 
#    y 0.000000 1.790630 0.000000 
#    z 0.000000 0.000000 1.746900 
# 
# From -- ./inp_files/35325.got.cif
#   From: 2010.03.12/outbox.cif.g09.slc.cpg/sg63_18_cif.got.tgz:35325.got - 2010.04.10 19:34:48.
