data_PCOD8259678
_publ_section_title
;
Structure prediction by ZEFSAII (Michael W. Deem and Ramdas Pophale) SiO2 
 PCOD8259678
Probable space group: C M C M
;
_chemical_formula_sum "Si O2"
_cell_formula_units_Z 72
_cell_length_a 15.978536
_cell_length_b 24.614387
_cell_length_c 9.033206
_cell_angle_alpha 90.000000
_cell_angle_beta 90.000000
_cell_angle_gamma 90.000000
_cell_volume 3552.776801
_symmetry_space_group_name_H-M "C M C M"
_symmetry_group_IT_number 63
_symmetry_cell_setting 'orthorhombic'
loop_
_space_group_symop_operation_xyz
x,y,z
-x,-y,1/2+z
x,-y,-z
-x,y,1/2-z
-x,-y,-z
x,y,1/2-z
-x,y,z
x,-y,1/2+z
1/2+x,1/2+y,z
1/2-x,1/2-y,1/2+z
1/2+x,1/2-y,-z
1/2-x,1/2+y,1/2-z
1/2-x,1/2-y,-z
1/2+x,1/2+y,1/2-z
1/2-x,1/2+y,z
1/2+x,1/2-y,1/2+z
loop_
_atom_site_type_symbol
_atom_site_label
_atom_site_fract_x
_atom_site_fract_y
_atom_site_fract_z
Si Si1 0.401635 0.551245 0.586121
Si Si2 0.500000 0.941106 0.073309
Si Si3 0.905230 0.243258 0.920363
Si Si4 0.370040 0.865138 0.577924
Si Si5 0.822687 0.851928 0.578162
O O1 0.361521 0.500000 0.500000
O O2 0.361682 0.553383 0.750000
O O3 0.500000 0.543484 0.598413
O O4 0.384071 0.606621 0.501650
O O5 0.500000 0.946518 0.250000
O O6 0.582974 0.909377 0.021239
O O7 0.500000 0.000000 0.000000
O O8 0.877242 0.238264 0.750000
O O9 0.900215 0.305586 0.971322
O O10 0.000000 0.222198 0.943003
O O11 0.840806 0.208147 0.016582
O O12 0.391784 0.875397 0.750000
O O13 0.271756 0.870099 0.547014
O O14 0.843828 0.851838 0.750000
#
# Coordination Sequence:
#
# PCOD8259678 Si02
#       5
#    16   8  16  16  16
#     4  10  21  38  59  82 114 156 199 245 301 359
#     4  12  26  44  70  96 120 158 207 258 311 370
#     4  10  20  37  62  87 121 166 203 245 304 361
#     4  10  22  43  64  86 122 162 200 249 308 362
#     4  11  23  36  58  91 124 159 201 250 300 360
#
# _framework density 20.265837999999999
#
# number of rings (size 3 to 8) (size 9 to 14) (size 15 to 20)
#    0.000    1.556    1.111    3.667    0.000    8.000 
#    0.000    0.000    0.000    0.000    0.000    0.000 
#    0.000    0.000    0.000    0.000    0.000    0.000 
#
# Total GULP energy -446555.175762 kJ/mol
# GULP energy per Si atom -12404.310438 kJ/mol
# Density = 2.021971 g / cm^3
# Si number density = 20.265838 Si / 1000 Ang^3
#
#
#
# Elastic Constant Matrix: (Units=GPa)
#
#
# Indices 1 2 3 4 5 6 
#
# 1 48.8299 39.0194 46.0403 0.0000 0.0000 0.0000
# 2 39.0194 146.9130 83.6030 0.0000 0.0000 0.0000
# 3 46.0403 83.6030 151.1125 0.0000 0.0000 0.0000
# 4 0.0000 0.0000 0.0000 37.5280 0.0000 0.0000
# 5 0.0000 0.0000 0.0000 0.0000 27.2982 0.0000
# 6 0.0000 0.0000 0.0000 0.0000 0.0000 -132.7876
#
#
#
# Elastic Compliance Matrix: (Units=1/GPa)
#
#
# Indices 1 2 3 4 5 6 
#
# 1 0.030322 -0.004081 -0.006981 0.000000 0.000000 0.000000
# 2 -0.004081 0.010484 -0.004557 0.000000 0.000000 0.000000
# 3 -0.006981 -0.004557 0.011265 0.000000 0.000000 0.000000
# 4 0.000000 0.000000 0.000000 0.026647 0.000000 0.000000
# 5 0.000000 0.000000 0.000000 0.000000 0.036632 0.000000
# 6 0.000000 0.000000 0.000000 0.000000 0.000000 -0.007531
#
#
# Mechanical properties :
#
#
# Convention : Reuss Voigt Hill
#
# Bulk Modulus (GPa) = 47.99710 76.02010 62.00860
# Shear Modulus (GPa) = 34.24629 -1.71277 16.26676
#
# Velocity S-wave (km/s) = 4.11524 -0.92032 2.83621
# Velocity P-wave (km/s) = 6.80555 6.03851 6.43347
#
# Compressibility (1/GPa) = 0.02083459
#
# Stress axis : x y z
#
# Youngs Moduli (GPa) = 32.97923 95.38587 88.76726
#
# Poissons Ratio (x) = 0.38927 0.61965
# Poissons Ratio (y) = 0.13459 0.40449
# Poissons Ratio (z) = 0.23021 0.43465
#
# Static dielectric constant tensor:
#      x y z
#    x 3.597910 0.000000 0.000000 
#    y 0.000000 3.683140 0.000000 
#    z 0.000000 0.000000 3.821710 
# 
# 
# High freq. dielectric constant tensor:
#      x y z
#    x 1.787830 0.000000 0.000000 
#    y 0.000000 1.799620 0.000000 
#    z 0.000000 0.000000 1.793680 
# 
# From -- ./inp_files/4667.got.cif
#   From: 2010.03.12/outbox.cif.g09.slc.cpg/sg63_3_cif.got.tgz:4667.got - 2010.04.10 19:34:48.
