data_PCOD8259827
_publ_section_title
;
Structure prediction by ZEFSAII (Michael W. Deem and Ramdas Pophale) SiO2 
 PCOD8259827
Probable space group: C M C M
;
_chemical_formula_sum "Si O2"
_cell_formula_units_Z 96
_cell_length_a 8.912771
_cell_length_b 19.879793
_cell_length_c 28.339581
_cell_angle_alpha 90.000000
_cell_angle_beta 90.000000
_cell_angle_gamma 90.000000
_cell_volume 5021.321525
_symmetry_space_group_name_H-M "C M C M"
_symmetry_group_IT_number 63
_symmetry_cell_setting 'orthorhombic'
loop_
_space_group_symop_operation_xyz
x,y,z
-x,-y,1/2+z
x,-y,-z
-x,y,1/2-z
-x,-y,-z
x,y,1/2-z
-x,y,z
x,-y,1/2+z
1/2+x,1/2+y,z
1/2-x,1/2-y,1/2+z
1/2+x,1/2-y,-z
1/2-x,1/2+y,1/2-z
1/2-x,1/2-y,-z
1/2+x,1/2+y,1/2-z
1/2-x,1/2+y,z
1/2+x,1/2-y,1/2+z
loop_
_atom_site_type_symbol
_atom_site_label
_atom_site_fract_x
_atom_site_fract_y
_atom_site_fract_z
Si Si1 0.824546 0.254142 0.304946
Si Si2 0.667737 0.442561 0.961675
Si Si3 0.673201 0.882497 0.804249
Si Si4 0.177984 0.142832 0.624561
Si Si5 0.322816 0.684350 0.521058
Si Si6 0.675003 0.999509 0.873756
O O1 0.784570 0.264468 0.250000
O O2 0.769172 0.181037 0.322306
O O3 0.741741 0.311655 0.333869
O O4 0.000000 0.259790 0.314558
O O5 0.500000 0.432682 0.940336
O O6 0.785963 0.461479 0.921874
O O7 0.661156 0.500000 0.000000
O O8 0.727224 0.375637 0.986822
O O9 0.707678 0.897679 0.750000
O O10 0.500000 0.864434 0.813208
O O11 0.720411 0.949536 0.831632
O O12 0.236330 0.169951 0.573998
O O13 0.231100 0.066967 0.632559
O O14 0.000000 0.143639 0.626551
O O15 0.500000 0.692566 0.521877
O O16 0.250000 0.750000 0.500000
O O17 0.500000 0.017523 0.873075
#
# Coordination Sequence:
#
# PCOD8259827 Si02
#       6
#    16  16  16  16  16  16
#     4  10  22  40  62  89 119 151 192 242 292 345
#     4  10  20  40  61  80 114 158 195 235 290 345
#     4   9  20  40  62  85 117 154 190 233 289 349
#     4  11  23  41  61  85 119 157 198 240 290 352
#     4  10  23  40  59  84 116 154 195 242 291 345
#     4  11  23  37  59  91 119 152 197 245 293 345
#
# _framework density 19.118473000000002
#
# number of rings (size 3 to 8) (size 9 to 14) (size 15 to 20)
#    0.000    1.833    1.667    1.500    2.333    5.333 
#    0.000    1.667    0.000    0.000    0.000    0.000 
#    0.000    0.000    0.000    0.000    0.000    0.000 
#
# Total GULP energy -595368.898379 kJ/mol
# GULP energy per Si atom -12403.518716 kJ/mol
# Density = 1.907496 g / cm^3
# Si number density = 19.118473 Si / 1000 Ang^3
#
#
#
# Elastic Constant Matrix: (Units=GPa)
#
#
# Indices 1 2 3 4 5 6 
#
# 1 66.7885 56.0195 46.7733 0.0000 0.0000 0.0000
# 2 56.0195 170.1354 77.0401 0.0000 0.0000 0.0000
# 3 46.7733 77.0401 98.8436 0.0000 0.0000 0.0000
# 4 0.0000 0.0000 0.0000 38.6876 0.0000 0.0000
# 5 0.0000 0.0000 0.0000 0.0000 36.4569 0.0000
# 6 0.0000 0.0000 0.0000 0.0000 0.0000 29.5280
#
#
#
# Elastic Compliance Matrix: (Units=1/GPa)
#
#
# Indices 1 2 3 4 5 6 
#
# 1 0.024285 -0.004316 -0.008128 0.000000 0.000000 0.000000
# 2 -0.004316 0.009850 -0.005635 0.000000 0.000000 0.000000
# 3 -0.008128 -0.005635 0.018355 0.000000 0.000000 0.000000
# 4 0.000000 0.000000 0.000000 0.025848 0.000000 0.000000
# 5 0.000000 0.000000 0.000000 0.000000 0.027430 0.000000
# 6 0.000000 0.000000 0.000000 0.000000 0.000000 0.033866
#
#
# Mechanical properties :
#
#
# Convention : Reuss Voigt Hill
#
# Bulk Modulus (GPa) = 61.22725 77.27037 69.24881
# Shear Modulus (GPa) = 27.58828 31.33015 29.45922
#
# Velocity S-wave (km/s) = 3.80283 4.05252 3.92966
# Velocity P-wave (km/s) = 7.16775 7.89947 7.54249
#
# Compressibility (1/GPa) = 0.01633260
#
# Stress axis : x y z
#
# Youngs Moduli (GPa) = 41.17851 101.51834 54.47960
#
# Poissons Ratio (x) = 0.43811 0.44281
# Poissons Ratio (y) = 0.17771 0.30702
# Poissons Ratio (z) = 0.33470 0.57210
#
# Static dielectric constant tensor:
#      x y z
#    x 3.517210 0.000000 0.000000 
#    y 0.000000 3.718080 0.000000 
#    z 0.000000 0.000000 3.833900 
# 
# 
# High freq. dielectric constant tensor:
#      x y z
#    x 1.744110 0.000000 0.000000 
#    y 0.000000 1.756230 0.000000 
#    z 0.000000 0.000000 1.747840 
# 
# From -- ./inp_files/66976.got.cif
#   From: 2010.03.12/outbox.cif.g09.slc.cpg/sg63_34_cif.got.tgz:66976.got - 2010.04.10 19:34:48.
