data_PCOD8259807
_publ_section_title
;
Structure prediction by ZEFSAII (Michael W. Deem and Ramdas Pophale) SiO2 
 PCOD8259807
Probable space group: C M C M
;
_chemical_formula_sum "Si O2"
_cell_formula_units_Z 72
_cell_length_a 14.434519
_cell_length_b 8.657413
_cell_length_c 26.374615
_cell_angle_alpha 90.000000
_cell_angle_beta 90.000000
_cell_angle_gamma 90.000000
_cell_volume 3295.919389
_symmetry_space_group_name_H-M "C M C M"
_symmetry_group_IT_number 63
_symmetry_cell_setting 'orthorhombic'
loop_
_space_group_symop_operation_xyz
x,y,z
-x,-y,1/2+z
x,-y,-z
-x,y,1/2-z
-x,-y,-z
x,y,1/2-z
-x,y,z
x,-y,1/2+z
1/2+x,1/2+y,z
1/2-x,1/2-y,1/2+z
1/2+x,1/2-y,-z
1/2-x,1/2+y,1/2-z
1/2-x,1/2-y,-z
1/2+x,1/2+y,1/2-z
1/2-x,1/2+y,z
1/2+x,1/2-y,1/2+z
loop_
_atom_site_type_symbol
_atom_site_label
_atom_site_fract_x
_atom_site_fract_y
_atom_site_fract_z
Si Si1 0.667881 0.306915 0.310058
Si Si2 0.180603 0.872272 0.864984
Si Si3 0.500000 0.823617 0.128783
Si Si4 0.303098 0.139197 0.463467
Si Si5 0.000000 0.402242 0.950050
Si Si6 0.500000 0.098491 0.308573
O O1 0.664820 0.337450 0.250000
O O2 0.766760 0.235573 0.324756
O O3 0.652269 0.468064 0.338801
O O4 0.591061 0.185550 0.329880
O O5 0.242196 0.906011 0.914694
O O6 0.088753 0.781524 0.881472
O O7 0.500000 0.977086 0.095388
O O8 0.500000 0.911852 0.183103
O O9 0.250000 0.250000 0.500000
O O10 0.405582 0.201726 0.446449
O O11 0.325227 0.000000 0.500000
O O12 0.000000 0.500000 0.000000
O O13 0.500000 0.128140 0.250000
#
# Coordination Sequence:
#
# PCOD8259807 Si02
#       6
#    16  16   8  16   8   8
#     4  11  23  41  64  94 129 167 210 264 323 384
#     4  12  24  41  64  94 129 169 215 263 317 381
#     4  12  25  41  64  91 124 171 218 263 316 374
#     4  11  23  41  65  93 125 165 210 260 316 378
#     4  10  20  39  63  88 121 158 203 256 310 368
#     4  10  23  42  65  91 123 163 212 267 325 380
#
# _framework density 21.845192999999998
#
# number of rings (size 3 to 8) (size 9 to 14) (size 15 to 20)
#    0.000    0.889    0.000    9.333    0.000    3.556 
#    0.000    4.444    0.000    0.000    0.000    0.000 
#    0.000    0.000    0.000    0.000    0.000    0.000 
#
# Total GULP energy -446179.641765 kJ/mol
# GULP energy per Si atom -12393.878938 kJ/mol
# Density = 2.179547 g / cm^3
# Si number density = 21.845193 Si / 1000 Ang^3
#
#
#
# Elastic Constant Matrix: (Units=GPa)
#
#
# Indices 1 2 3 4 5 6 
#
# 1 192.3324 44.6014 38.6647 0.0000 0.0000 0.0000
# 2 44.6014 82.0791 13.7189 0.0000 0.0000 0.0000
# 3 38.6647 13.7189 98.9016 0.0000 0.0000 0.0000
# 4 0.0000 0.0000 0.0000 44.8393 0.0000 0.0000
# 5 0.0000 0.0000 0.0000 0.0000 21.7799 0.0000
# 6 0.0000 0.0000 0.0000 0.0000 0.0000 40.6248
#
#
#
# Elastic Compliance Matrix: (Units=1/GPa)
#
#
# Indices 1 2 3 4 5 6 
#
# 1 0.006329 -0.003097 -0.002044 0.000000 0.000000 0.000000
# 2 -0.003097 0.013988 -0.000730 0.000000 0.000000 0.000000
# 3 -0.002044 -0.000730 0.011012 0.000000 0.000000 0.000000
# 4 0.000000 0.000000 0.000000 0.022302 0.000000 0.000000
# 5 0.000000 0.000000 0.000000 0.000000 0.045914 0.000000
# 6 0.000000 0.000000 0.000000 0.000000 0.000000 0.024615
#
#
# Mechanical properties :
#
#
# Convention : Reuss Voigt Hill
#
# Bulk Modulus (GPa) = 51.05692 63.03146 57.04419
# Shear Modulus (GPa) = 35.10480 39.87069 37.48775
#
# Velocity S-wave (km/s) = 4.01307 4.27681 4.14703
# Velocity P-wave (km/s) = 6.70043 7.30099 7.00715
#
# Compressibility (1/GPa) = 0.01958598
#
# Stress axis : x y z
#
# Youngs Moduli (GPa) = 158.01365 71.48824 90.81392
#
# Poissons Ratio (x) = 0.22141 0.18567
# Poissons Ratio (y) = 0.48940 0.06625
# Poissons Ratio (z) = 0.32305 0.05215
#
# Static dielectric constant tensor:
#      x y z
#    x 3.148110 0.000000 0.000000 
#    y 0.000000 3.681540 0.000000 
#    z 0.000000 0.000000 4.196380 
# 
# 
# High freq. dielectric constant tensor:
#      x y z
#    x 1.881450 0.000000 0.000000 
#    y 0.000000 1.844170 0.000000 
#    z 0.000000 0.000000 1.878360 
# 
# From -- ./inp_files/69093.got.cif
#   From: 2010.03.12/outbox.cif.g09.slc.cpg/sg63_35_cif.got.tgz:69093.got - 2010.04.10 19:34:48.
