data_PCOD8259501
_publ_section_title
;
Structure prediction by ZEFSAII (Michael W. Deem and Ramdas Pophale) SiO2 
 PCOD8259501
Probable space group: C M C M
;
_chemical_formula_sum "Si O2"
_cell_formula_units_Z 72
_cell_length_a 12.430995
_cell_length_b 32.337797
_cell_length_c 8.912524
_cell_angle_alpha 90.000000
_cell_angle_beta 90.000000
_cell_angle_gamma 90.000000
_cell_volume 3582.754371
_symmetry_space_group_name_H-M "C M C M"
_symmetry_group_IT_number 63
_symmetry_cell_setting 'orthorhombic'
loop_
_space_group_symop_operation_xyz
x,y,z
-x,-y,1/2+z
x,-y,-z
-x,y,1/2-z
-x,-y,-z
x,y,1/2-z
-x,y,z
x,-y,1/2+z
1/2+x,1/2+y,z
1/2-x,1/2-y,1/2+z
1/2+x,1/2-y,-z
1/2-x,1/2+y,1/2-z
1/2-x,1/2-y,-z
1/2+x,1/2+y,1/2-z
1/2-x,1/2+y,z
1/2+x,1/2-y,1/2+z
loop_
_atom_site_type_symbol
_atom_site_label
_atom_site_fract_x
_atom_site_fract_y
_atom_site_fract_z
Si Si1 0.125188 0.227676 0.425495
Si Si2 0.875466 0.857371 0.426846
Si Si3 0.500000 0.955406 0.571677
Si Si4 0.810068 0.603756 0.071692
Si Si5 0.375994 0.191969 0.415117
O O1 0.144285 0.229826 0.250000
O O2 0.171882 0.184204 0.491783
O O3 0.178718 0.269540 0.496627
O O4 0.000000 0.226856 0.467074
O O5 0.860132 0.852385 0.250000
O O6 0.806948 0.896859 0.489582
O O7 0.000000 0.865216 0.468560
O O8 0.500000 0.958285 0.750000
O O9 0.608875 0.932195 0.517194
O O10 0.500000 0.000000 0.500000
O O11 0.795140 0.601275 0.250000
O O12 0.862568 0.646636 0.014177
O O13 0.323316 0.192389 0.250000
O O14 0.500000 0.202050 0.406338
#
# Coordination Sequence:
#
# PCOD8259501 Si02
#       5
#    16  16   8  16  16
#     4   9  17  29  46  71 105 147 193 238 279 324
#     4  10  21  36  53  77 111 151 195 237 277 324
#     4  10  22  42  66  94 122 146 176 222 286 354
#     4  10  20  36  59  84 111 145 184 227 280 340
#     4   9  16  29  49  73 105 144 185 231 281 331
#
# _framework density 20.096270000000001
#
# number of rings (size 3 to 8) (size 9 to 14) (size 15 to 20)
#    0.000    2.444    1.111    1.333    0.000    6.667 
#    0.000    0.000    0.000    0.667    0.000    0.000 
#    0.000    0.000    0.000    0.000    0.000    0.000 
#
# Total GULP energy -446179.837295 kJ/mol
# GULP energy per Si atom -12393.884369 kJ/mol
# Density = 2.005053 g / cm^3
# Si number density = 20.096270 Si / 1000 Ang^3
#
#
#
# Elastic Constant Matrix: (Units=GPa)
#
#
# Indices 1 2 3 4 5 6 
#
# 1 93.5354 73.8681 23.6600 0.0000 0.0000 0.0000
# 2 73.8681 134.7875 45.6414 0.0000 0.0000 0.0000
# 3 23.6600 45.6414 71.0868 0.0000 0.0000 0.0000
# 4 0.0000 0.0000 0.0000 31.1365 0.0000 0.0000
# 5 0.0000 0.0000 0.0000 0.0000 18.9192 0.0000
# 6 0.0000 0.0000 0.0000 0.0000 0.0000 19.0454
#
#
#
# Elastic Compliance Matrix: (Units=1/GPa)
#
#
# Indices 1 2 3 4 5 6 
#
# 1 0.018861 -0.010492 0.000459 0.000000 0.000000 0.000000
# 2 -0.010492 0.015316 -0.006342 0.000000 0.000000 0.000000
# 3 0.000459 -0.006342 0.017986 0.000000 0.000000 0.000000
# 4 0.000000 0.000000 0.000000 0.032117 0.000000 0.000000
# 5 0.000000 0.000000 0.000000 0.000000 0.052856 0.000000
# 6 0.000000 0.000000 0.000000 0.000000 0.000000 0.052506
#
#
# Mechanical properties :
#
#
# Convention : Reuss Voigt Hill
#
# Bulk Modulus (GPa) = 51.50963 65.08318 58.29641
# Shear Modulus (GPa) = 21.84707 24.23624 23.04166
#
# Velocity S-wave (km/s) = 3.30073 3.47653 3.38977
# Velocity P-wave (km/s) = 6.34141 6.96929 6.66275
#
# Compressibility (1/GPa) = 0.01941385
#
# Stress axis : x y z
#
# Youngs Moduli (GPa) = 53.02021 65.28964 55.59731
#
# Poissons Ratio (x) = 0.68500 -0.02550
# Poissons Ratio (y) = 0.55627 0.35259
# Poissons Ratio (z) = -0.02432 0.41406
#
# Static dielectric constant tensor:
#      x y z
#    x 4.080060 0.000000 0.000000 
#    y 0.000000 3.473400 0.000000 
#    z 0.000000 0.000000 3.612190 
# 
# 
# High freq. dielectric constant tensor:
#      x y z
#    x 1.826510 0.000000 0.000000 
#    y 0.000000 1.743300 0.000000 
#    z 0.000000 0.000000 1.771450 
# 
# From -- ./inp_files/4654.got.cif
#   From: 2010.03.12/outbox.cif.g09.slc.cpg/sg63_3_cif.got.tgz:4654.got - 2010.04.10 19:34:48.
