data_PCOD8259567
_publ_section_title
;
Structure prediction by ZEFSAII (Michael W. Deem and Ramdas Pophale) SiO2 
 PCOD8259567
Probable space group: C M C M
;
_chemical_formula_sum "Si O2"
_cell_formula_units_Z 80
_cell_length_a 22.966596
_cell_length_b 19.734199
_cell_length_c 8.710871
_cell_angle_alpha 90.000000
_cell_angle_beta 90.000000
_cell_angle_gamma 90.000000
_cell_volume 3948.005204
_symmetry_space_group_name_H-M "C M C M"
_symmetry_group_IT_number 63
_symmetry_cell_setting 'orthorhombic'
loop_
_space_group_symop_operation_xyz
x,y,z
-x,-y,1/2+z
x,-y,-z
-x,y,1/2-z
-x,-y,-z
x,y,1/2-z
-x,y,z
x,-y,1/2+z
1/2+x,1/2+y,z
1/2-x,1/2-y,1/2+z
1/2+x,1/2-y,-z
1/2-x,1/2+y,1/2-z
1/2-x,1/2-y,-z
1/2+x,1/2+y,1/2-z
1/2-x,1/2+y,z
1/2+x,1/2-y,1/2+z
loop_
_atom_site_type_symbol
_atom_site_label
_atom_site_fract_x
_atom_site_fract_y
_atom_site_fract_z
Si Si1 0.433149 0.438061 0.913964
Si Si2 0.335318 0.074597 0.067146
Si Si3 0.432414 0.835977 0.067600
Si Si4 0.120665 0.193575 0.068681
Si Si5 0.240565 0.176401 0.931636
O O1 0.401502 0.437120 0.750000
O O2 0.500000 0.456864 0.897703
O O3 0.427880 0.361970 0.978970
O O4 0.401299 0.500000 0.000000
O O5 0.333814 0.071827 0.250000
O O6 0.398097 0.102554 0.011945
O O7 0.283863 0.122546 0.007008
O O8 0.325867 0.000000 0.000000
O O9 0.427646 0.842958 0.250000
O O10 0.500000 0.837481 0.016050
O O11 0.402095 0.766230 0.010400
O O12 0.133952 0.198896 0.250000
O O13 0.174424 0.161547 0.975734
O O14 0.251150 0.175997 0.750000
O O15 0.250000 0.250000 0.000000
#
# Coordination Sequence:
#
# PCOD8259567 Si02
#       5
#    16  16  16  16  16
#     4   9  18  33  53  80 117 161 204 248 299 354
#     4  12  26  45  68  95 128 167 211 265 321 380
#     4  10  21  39  65  95 127 167 214 264 319 379
#     4  10  20  36  61  90 124 163 209 258 309 370
#     4  12  24  41  65  93 125 163 205 254 311 373
#
# _framework density 20.263399
#
# number of rings (size 3 to 8) (size 9 to 14) (size 15 to 20)
#    0.000    1.400    2.000    4.200    0.000    4.800 
#    0.000    2.000    0.000    3.600    0.000    0.000 
#    0.000    0.000    0.000    0.000    0.000    0.000 
#
# Total GULP energy -495645.349326 kJ/mol
# GULP energy per Si atom -12391.133733 kJ/mol
# Density = 2.021728 g / cm^3
# Si number density = 20.263399 Si / 1000 Ang^3
#
#
#
# Elastic Constant Matrix: (Units=GPa)
#
#
# Indices 1 2 3 4 5 6 
#
# 1 119.2383 56.1795 49.1412 0.0000 0.0000 0.0000
# 2 56.1795 168.6786 56.7809 0.0000 0.0000 0.0000
# 3 49.1412 56.7809 104.4939 0.0000 0.0000 0.0000
# 4 0.0000 0.0000 0.0000 33.3948 0.0000 0.0000
# 5 0.0000 0.0000 0.0000 0.0000 26.3566 0.0000
# 6 0.0000 0.0000 0.0000 0.0000 0.0000 36.4801
#
#
#
# Elastic Compliance Matrix: (Units=1/GPa)
#
#
# Indices 1 2 3 4 5 6 
#
# 1 0.011133 -0.002381 -0.003942 0.000000 0.000000 0.000000
# 2 -0.002381 0.007765 -0.003100 0.000000 0.000000 0.000000
# 3 -0.003942 -0.003100 0.013108 0.000000 0.000000 0.000000
# 4 0.000000 0.000000 0.000000 0.029945 0.000000 0.000000
# 5 0.000000 0.000000 0.000000 0.000000 0.037941 0.000000
# 6 0.000000 0.000000 0.000000 0.000000 0.000000 0.027412
#
#
# Mechanical properties :
#
#
# Convention : Reuss Voigt Hill
#
# Bulk Modulus (GPa) = 75.98222 79.62380 77.80301
# Shear Modulus (GPa) = 33.21478 34.60026 33.90752
#
# Velocity S-wave (km/s) = 4.05304 4.13670 4.09508
# Velocity P-wave (km/s) = 7.71242 7.88645 7.79992
#
# Compressibility (1/GPa) = 0.01316097
#
# Stress axis : x y z
#
# Youngs Moduli (GPa) = 89.82399 128.78573 76.28963
#
# Poissons Ratio (x) = 0.30664 0.30071
# Poissons Ratio (y) = 0.21387 0.23647
# Poissons Ratio (z) = 0.35406 0.39918
#
# Static dielectric constant tensor:
#      x y z
#    x 6.074860 0.000000 0.000000 
#    y 0.000000 3.880430 0.000000 
#    z 0.000000 0.000000 3.138410 
# 
# 
# High freq. dielectric constant tensor:
#      x y z
#    x 1.790950 0.000000 0.000000 
#    y 0.000000 1.806360 0.000000 
#    z 0.000000 0.000000 1.784500 
# 
# From -- ./inp_files/12063.got.cif
#   From: 2010.03.12/outbox.cif.g09.slc.cpg/sg63_7_cif.got.tgz:12063.got - 2010.04.10 19:34:48.
