data_PCOD8259796
_publ_section_title
;
Structure prediction by ZEFSAII (Michael W. Deem and Ramdas Pophale) SiO2 
 PCOD8259796
Probable space group: C M C M
;
_chemical_formula_sum "Si O2"
_cell_formula_units_Z 96
_cell_length_a 27.821879
_cell_length_b 9.978890
_cell_length_c 18.494859
_cell_angle_alpha 90.000000
_cell_angle_beta 90.000000
_cell_angle_gamma 90.000000
_cell_volume 5134.754894
_symmetry_space_group_name_H-M "C M C M"
_symmetry_group_IT_number 63
_symmetry_cell_setting 'orthorhombic'
loop_
_space_group_symop_operation_xyz
x,y,z
-x,-y,1/2+z
x,-y,-z
-x,y,1/2-z
-x,-y,-z
x,y,1/2-z
-x,y,z
x,-y,1/2+z
1/2+x,1/2+y,z
1/2-x,1/2-y,1/2+z
1/2+x,1/2-y,-z
1/2-x,1/2+y,1/2-z
1/2-x,1/2-y,-z
1/2+x,1/2+y,1/2-z
1/2-x,1/2+y,z
1/2+x,1/2-y,1/2+z
loop_
_atom_site_type_symbol
_atom_site_label
_atom_site_fract_x
_atom_site_fract_y
_atom_site_fract_z
Si Si1 0.639755 0.043512 0.334723
Si Si2 0.707317 0.715762 0.665679
Si Si3 0.318566 0.758730 0.165737
Si Si4 0.150102 0.002487 0.413360
Si Si5 0.445414 0.095569 0.436042
Si Si6 0.551975 0.401263 0.066939
O O1 0.633161 0.050354 0.250000
O O2 0.676440 0.157867 0.361050
O O3 0.587371 0.067339 0.367103
O O4 0.661592 0.902199 0.358812
O O5 0.699576 0.683174 0.750000
O O6 0.762267 0.748862 0.649147
O O7 0.692556 0.585538 0.620411
O O8 0.328951 0.729706 0.250000
O O9 0.345915 0.652365 0.116059
O O10 0.098282 0.944173 0.385703
O O11 0.153732 0.000000 0.500000
O O12 0.500000 0.059460 0.414333
O O13 0.440755 0.249636 0.461167
O O14 0.427213 0.000000 0.500000
O O15 0.500000 0.411235 0.108699
O O16 0.549948 0.500000 0.000000
#
# Coordination Sequence:
#
# PCOD8259796 Si02
#       6
#    16  16  16  16  16  16
#     4  10  21  36  57  84 112 146 187 236 279 319
#     4  10  20  39  61  80 109 154 196 226 270 335
#     4  10  22  39  59  80 111 153 192 227 273 339
#     4  11  22  35  57  89 115 145 182 234 287 321
#     4  10  21  37  60  85 110 148 188 226 278 339
#     4   9  19  36  56  82 113 147 185 222 275 338
#
# _framework density 18.696121999999999
#
# number of rings (size 3 to 8) (size 9 to 14) (size 15 to 20)
#    0.000    2.000    1.667    1.500    4.667    3.667 
#    0.000    1.667    0.000    3.000    0.000    0.000 
#    0.000    0.000    0.000    0.000    0.000    0.000 
#
# Total GULP energy -595146.878525 kJ/mol
# GULP energy per Si atom -12398.893303 kJ/mol
# Density = 1.865357 g / cm^3
# Si number density = 18.696122 Si / 1000 Ang^3
#
#
#
# Elastic Constant Matrix: (Units=GPa)
#
#
# Indices 1 2 3 4 5 6 
#
# 1 103.9038 41.6903 30.4062 0.0000 0.0000 0.0000
# 2 41.6903 129.9370 38.4169 0.0000 0.0000 0.0000
# 3 30.4062 38.4169 42.2079 0.0000 0.0000 0.0000
# 4 0.0000 0.0000 0.0000 32.5541 0.0000 0.0000
# 5 0.0000 0.0000 0.0000 0.0000 21.7408 0.0000
# 6 0.0000 0.0000 0.0000 0.0000 0.0000 31.4317
#
#
#
# Elastic Compliance Matrix: (Units=1/GPa)
#
#
# Indices 1 2 3 4 5 6 
#
# 1 0.012511 -0.001846 -0.007332 0.000000 0.000000 0.000000
# 2 -0.001846 0.010802 -0.008502 0.000000 0.000000 0.000000
# 3 -0.007332 -0.008502 0.036712 0.000000 0.000000 0.000000
# 4 0.000000 0.000000 0.000000 0.030718 0.000000 0.000000
# 5 0.000000 0.000000 0.000000 0.000000 0.045996 0.000000
# 6 0.000000 0.000000 0.000000 0.000000 0.000000 0.031815
#
#
# Mechanical properties :
#
#
# Convention : Reuss Voigt Hill
#
# Bulk Modulus (GPa) = 40.54369 55.23060 47.88714
# Shear Modulus (GPa) = 23.56969 28.18101 25.87535
#
# Velocity S-wave (km/s) = 3.55445 3.88663 3.72425
# Velocity P-wave (km/s) = 6.21113 7.05312 6.64548
#
# Compressibility (1/GPa) = 0.02466475
#
# Stress axis : x y z
#
# Youngs Moduli (GPa) = 79.93121 92.57523 27.23874
#
# Poissons Ratio (x) = 0.17092 0.19972
# Poissons Ratio (y) = 0.14757 0.23158
# Poissons Ratio (z) = 0.58607 0.78705
#
# Static dielectric constant tensor:
#      x y z
#    x 3.903060 0.000000 0.000000 
#    y 0.000000 3.649600 0.000000 
#    z 0.000000 0.000000 3.105480 
# 
# 
# High freq. dielectric constant tensor:
#      x y z
#    x 1.741980 0.000000 0.000000 
#    y 0.000000 1.746260 0.000000 
#    z 0.000000 0.000000 1.691310 
# 
# From -- ./inp_files/58064.got.cif
#   From: 2010.03.12/outbox.cif.g09.slc.cpg/sg63_30_cif.got.tgz:58064.got - 2010.04.10 19:34:48.
