data_PCOD8259246
_publ_section_title
;
Structure prediction by ZEFSAII (Michael W. Deem and Ramdas Pophale) SiO2 
 PCOD8259246
Probable space group: C M C M
;
_chemical_formula_sum "Si O2"
_cell_formula_units_Z 96
_cell_length_a 8.839779
_cell_length_b 30.199984
_cell_length_c 18.983856
_cell_angle_alpha 90.000000
_cell_angle_beta 90.000000
_cell_angle_gamma 90.000000
_cell_volume 5067.952682
_symmetry_space_group_name_H-M "C M C M"
_symmetry_group_IT_number 63
_symmetry_cell_setting 'orthorhombic'
loop_
_space_group_symop_operation_xyz
x,y,z
-x,-y,1/2+z
x,-y,-z
-x,y,1/2-z
-x,-y,-z
x,y,1/2-z
-x,y,z
x,-y,1/2+z
1/2+x,1/2+y,z
1/2-x,1/2-y,1/2+z
1/2+x,1/2-y,-z
1/2-x,1/2+y,1/2-z
1/2-x,1/2-y,-z
1/2+x,1/2+y,1/2-z
1/2-x,1/2+y,z
1/2+x,1/2-y,1/2+z
loop_
_atom_site_type_symbol
_atom_site_label
_atom_site_fract_x
_atom_site_fract_y
_atom_site_fract_z
Si Si1 0.678746 0.864065 0.583321
Si Si2 0.324468 0.778119 0.668884
Si Si3 0.674207 0.187564 0.667418
Si Si4 0.820915 0.879666 0.064824
Si Si5 0.678700 0.521091 0.928821
Si Si6 0.821568 0.056670 0.330499
O O1 0.500000 0.867798 0.578178
O O2 0.729495 0.819827 0.623609
O O3 0.747969 0.861178 0.506104
O O4 0.739186 0.905900 0.625523
O O5 0.290591 0.789548 0.750000
O O6 0.500000 0.767171 0.656969
O O7 0.228706 0.736011 0.643252
O O8 0.701508 0.181400 0.750000
O O9 0.500000 0.182066 0.646184
O O10 0.773007 0.150464 0.629793
O O11 0.759274 0.929187 0.080699
O O12 0.000000 0.878922 0.056114
O O13 0.500000 0.523056 0.936586
O O14 0.725185 0.491109 0.862058
O O15 0.748575 0.500000 0.000000
O O16 0.766658 0.058114 0.250000
O O17 0.000000 0.064445 0.337173
#
# Coordination Sequence:
#
# PCOD8259246 Si02
#       6
#    16  16  16  16  16  16
#     4  11  22  36  56  84 119 152 185 231 289 344
#     4   9  19  37  59  81 109 149 193 233 277 335
#     4  10  22  40  60  84 115 147 184 235 289 339
#     4  11  22  37  61  86 112 150 194 236 280 334
#     4   9  17  34  57  80 109 145 189 236 279 327
#     4  10  20  35  57  84 112 146 192 241 285 336
#
# _framework density 18.94256
#
# number of rings (size 3 to 8) (size 9 to 14) (size 15 to 20)
#    0.000    2.000    1.667    2.000    0.000    4.667 
#    0.000    5.833    0.000    0.000    0.000    0.000 
#    0.000    0.000    0.000    0.000    0.000    0.000 
#
# Total GULP energy -595333.212771 kJ/mol
# GULP energy per Si atom -12402.775266 kJ/mol
# Density = 1.889945 g / cm^3
# Si number density = 18.942560 Si / 1000 Ang^3
#
#
#
# Elastic Constant Matrix: (Units=GPa)
#
#
# Indices 1 2 3 4 5 6 
#
# 1 8.3779 11.0403 26.9847 0.0000 0.0000 0.0000
# 2 11.0403 131.4422 55.8445 0.0000 0.0000 0.0000
# 3 26.9847 55.8445 81.3920 0.0000 0.0000 0.0000
# 4 0.0000 0.0000 0.0000 36.2612 0.0000 0.0000
# 5 0.0000 0.0000 0.0000 0.0000 30.4557 0.0000
# 6 0.0000 0.0000 0.0000 0.0000 0.0000 23.5632
#
#
#
# Elastic Compliance Matrix: (Units=1/GPa)
#
#
# Indices 1 2 3 4 5 6 
#
# 1 -0.855832 -0.068689 0.330871 0.000000 0.000000 0.000000
# 2 -0.068689 0.005225 0.019188 0.000000 0.000000 0.000000
# 3 0.330871 0.019188 -0.110576 0.000000 0.000000 0.000000
# 4 0.000000 0.000000 0.000000 0.027578 0.000000 0.000000
# 5 0.000000 0.000000 0.000000 0.000000 0.032835 0.000000
# 6 0.000000 0.000000 0.000000 0.000000 0.000000 0.042439
#
#
# Mechanical properties :
#
#
# Convention : Reuss Voigt Hill
#
# Bulk Modulus (GPa) = -2.50977 45.43903 21.46463
# Shear Modulus (GPa) = -3.21774 26.54554 11.66390
#
# Velocity S-wave (km/s) = -1.30475 3.74755 2.48413
# Velocity P-wave (km/s) = 1.89674 6.53952 4.42537
#
# Compressibility (1/GPa) = -0.39844251
#
# Stress axis : x y z
#
# Youngs Moduli (GPa) = -1.16845 191.38409 -9.04354
#
# Poissons Ratio (x) = 13.14603 2.99225
# Poissons Ratio (y) = -0.08026 0.17353
# Poissons Ratio (z) = 0.38661 -3.67231
#
# Static dielectric constant tensor:
#      x y z
#    x 3.330370 0.000000 0.000000 
#    y 0.000000 3.689210 0.000000 
#    z 0.000000 0.000000 3.544730 
# 
# 
# High freq. dielectric constant tensor:
#      x y z
#    x 1.722430 0.000000 0.000000 
#    y 0.000000 1.749080 0.000000 
#    z 0.000000 0.000000 1.739890 
# 
# From -- ./inp_files/51393.got.cif
#   From: 2010.03.12/outbox.cif.g09.slc.cpg/sg63_26_cif.got.tgz:51393.got - 2010.04.10 19:34:48.
