data_PCOD8259385
_publ_section_title
;
Structure prediction by ZEFSAII (Michael W. Deem and Ramdas Pophale) SiO2 
 PCOD8259385
Probable space group: C M C M
;
_chemical_formula_sum "Si O2"
_cell_formula_units_Z 72
_cell_length_a 17.846363
_cell_length_b 23.818450
_cell_length_c 8.972466
_cell_angle_alpha 90.000000
_cell_angle_beta 90.000000
_cell_angle_gamma 90.000000
_cell_volume 3813.950391
_symmetry_space_group_name_H-M "C M C M"
_symmetry_group_IT_number 63
_symmetry_cell_setting 'orthorhombic'
loop_
_space_group_symop_operation_xyz
x,y,z
-x,-y,1/2+z
x,-y,-z
-x,y,1/2-z
-x,-y,-z
x,y,1/2-z
-x,y,z
x,-y,1/2+z
1/2+x,1/2+y,z
1/2-x,1/2-y,1/2+z
1/2+x,1/2-y,-z
1/2-x,1/2+y,1/2-z
1/2-x,1/2-y,-z
1/2+x,1/2+y,1/2-z
1/2-x,1/2+y,z
1/2+x,1/2-y,1/2+z
loop_
_atom_site_type_symbol
_atom_site_label
_atom_site_fract_x
_atom_site_fract_y
_atom_site_fract_z
Si Si1 0.913433 0.154137 0.922972
Si Si2 0.829989 0.254253 0.425924
Si Si3 0.203652 0.939885 0.425978
Si Si4 0.500000 0.940426 0.427620
Si Si5 0.147104 0.379669 0.425890
O O1 0.899732 0.167961 0.750000
O O2 0.866628 0.099209 0.970033
O O3 0.000000 0.141718 0.958336
O O4 0.887352 0.207785 0.016173
O O5 0.821143 0.247928 0.250000
O O6 0.750000 0.250000 0.500000
O O7 0.860645 0.315067 0.473081
O O8 0.208778 0.948665 0.250000
O O9 0.278453 0.909763 0.490568
O O10 0.192242 0.000000 0.500000
O O11 0.500000 0.944194 0.250000
O O12 0.573426 0.909369 0.489380
O O13 0.500000 0.000000 0.500000
O O14 0.151336 0.384745 0.250000
#
# Coordination Sequence:
#
# PCOD8259385 Si02
#       5
#    16  16  16   8  16
#     4  10  22  40  59  83 119 156 189 237 296 344
#     4  11  21  37  61  87 115 150 192 237 287 348
#     4  10  20  37  57  80 110 149 191 235 287 344
#     4  10  20  36  56  80 112 150 185 228 279 332
#     4   9  19  35  56  80 112 149 185 227 285 341
#
# _framework density 18.878064999999999
#
# number of rings (size 3 to 8) (size 9 to 14) (size 15 to 20)
#    0.000    2.000    2.222    1.333    1.556    1.778 
#    0.000    2.222    0.000    0.000    0.000    0.000 
#    0.000    0.000    0.000    0.000    0.000    0.000 
#
# Total GULP energy -446428.687042 kJ/mol
# GULP energy per Si atom -12400.796862 kJ/mol
# Density = 1.883510 g / cm^3
# Si number density = 18.878065 Si / 1000 Ang^3
#
#
#
# Elastic Constant Matrix: (Units=GPa)
#
#
# Indices 1 2 3 4 5 6 
#
# 1 181.8150 100.7943 42.4506 0.0000 0.0000 0.0000
# 2 100.7943 195.2622 54.2295 0.0000 0.0000 0.0000
# 3 42.4506 54.2295 47.2670 0.0000 0.0000 0.0000
# 4 0.0000 0.0000 0.0000 36.4344 0.0000 0.0000
# 5 0.0000 0.0000 0.0000 0.0000 19.4671 0.0000
# 6 0.0000 0.0000 0.0000 0.0000 0.0000 37.8314
#
#
#
# Elastic Compliance Matrix: (Units=1/GPa)
#
#
# Indices 1 2 3 4 5 6 
#
# 1 0.008111 -0.003176 -0.003641 0.000000 0.000000 0.000000
# 2 -0.003176 0.008760 -0.007198 0.000000 0.000000 0.000000
# 3 -0.003641 -0.007198 0.032685 0.000000 0.000000 0.000000
# 4 0.000000 0.000000 0.000000 0.027447 0.000000 0.000000
# 5 0.000000 0.000000 0.000000 0.000000 0.051369 0.000000
# 6 0.000000 0.000000 0.000000 0.000000 0.000000 0.026433
#
#
# Mechanical properties :
#
#
# Convention : Reuss Voigt Hill
#
# Bulk Modulus (GPa) = 46.45539 91.03254 68.74396
# Shear Modulus (GPa) = 26.31478 33.87120 30.09299
#
# Velocity S-wave (km/s) = 3.73759 4.24041 3.99691
# Velocity P-wave (km/s) = 6.57934 8.50298 7.60225
#
# Compressibility (1/GPa) = 0.02152603
#
# Stress axis : x y z
#
# Youngs Moduli (GPa) = 123.29497 114.16064 30.59554
#
# Poissons Ratio (x) = 0.36252 0.11139
# Poissons Ratio (y) = 0.39153 0.22022
# Poissons Ratio (z) = 0.44890 0.82172
#
# Static dielectric constant tensor:
#      x y z
#    x 7.040630 0.000000 0.000000 
#    y 0.000000 -25.789280 0.000000 
#    z 0.000000 0.000000 3.278650 
# 
# 
# High freq. dielectric constant tensor:
#      x y z
#    x 1.747010 0.000000 0.000000 
#    y 0.000000 1.747570 0.000000 
#    z 0.000000 0.000000 1.708100 
# 
# From -- ./inp_files/6097.got.cif
#   From: 2010.03.12/outbox.cif.g09.slc.cpg/sg63_4_cif.got.tgz:6097.got - 2010.04.10 19:34:48.
