data_PCOD8259484
_publ_section_title
;
Structure prediction by ZEFSAII (Michael W. Deem and Ramdas Pophale) SiO2 
 PCOD8259484
Probable space group: C M C M
;
_chemical_formula_sum "Si O2"
_cell_formula_units_Z 72
_cell_length_a 28.782009
_cell_length_b 13.893078
_cell_length_c 9.107443
_cell_angle_alpha 90.000000
_cell_angle_beta 90.000000
_cell_angle_gamma 90.000000
_cell_volume 3641.799571
_symmetry_space_group_name_H-M "C M C M"
_symmetry_group_IT_number 63
_symmetry_cell_setting 'orthorhombic'
loop_
_space_group_symop_operation_xyz
x,y,z
-x,-y,1/2+z
x,-y,-z
-x,y,1/2-z
-x,-y,-z
x,y,1/2-z
-x,y,z
x,-y,1/2+z
1/2+x,1/2+y,z
1/2-x,1/2-y,1/2+z
1/2+x,1/2-y,-z
1/2-x,1/2+y,1/2-z
1/2-x,1/2-y,-z
1/2+x,1/2+y,1/2-z
1/2-x,1/2+y,z
1/2+x,1/2-y,1/2+z
loop_
_atom_site_type_symbol
_atom_site_label
_atom_site_fract_x
_atom_site_fract_y
_atom_site_fract_z
Si Si1 0.082660 0.203292 0.581795
Si Si2 0.947716 0.590107 0.081818
Si Si3 0.268802 0.098749 0.077579
Si Si4 0.312055 0.700599 0.580338
Si Si5 0.500000 0.601444 0.423709
O O1 0.067308 0.181729 0.750000
O O2 0.083284 0.317049 0.552325
O O3 0.134899 0.168858 0.551017
O O4 0.046838 0.154912 0.471400
O O5 0.948918 0.561669 0.250000
O O6 0.000000 0.609975 0.023119
O O7 0.924466 0.500000 0.000000
O O8 0.265807 0.078675 0.250000
O O9 0.304065 0.186540 0.040479
O O10 0.218106 0.129815 0.019738
O O11 0.285520 0.000000 0.000000
O O12 0.298373 0.684426 0.750000
O O13 0.500000 0.500000 0.500000
O O14 0.500000 0.590020 0.250000
#
# Coordination Sequence:
#
# PCOD8259484 Si02
#       5
#    16  16  16  16   8
#     4  10  20  39  61  82 113 150 190 237 285 329
#     4   9  17  30  50  76 107 142 178 219 269 322
#     4  10  20  36  58  85 117 150 186 230 284 340
#     4   9  20  37  59  85 112 148 191 234 282 336
#     4  12  26  42  61  84 111 148 193 236 284 334
#
# _framework density 19.770444999999999
#
# number of rings (size 3 to 8) (size 9 to 14) (size 15 to 20)
#    0.000    2.222    1.111    1.667    0.000    4.444 
#    0.000    0.000    0.000    0.000    0.000    0.000 
#    0.000    0.000    0.000    0.000    0.000    0.000 
#
# Total GULP energy -446372.561449 kJ/mol
# GULP energy per Si atom -12399.237818 kJ/mol
# Density = 1.972545 g / cm^3
# Si number density = 19.770445 Si / 1000 Ang^3
#
#
#
# Elastic Constant Matrix: (Units=GPa)
#
#
# Indices 1 2 3 4 5 6 
#
# 1 83.6465 18.1558 39.2181 0.0000 0.0000 0.0000
# 2 18.1558 76.2392 46.3037 0.0000 0.0000 0.0000
# 3 39.2181 46.3037 100.5227 0.0000 0.0000 0.0000
# 4 0.0000 0.0000 0.0000 40.2322 0.0000 0.0000
# 5 0.0000 0.0000 0.0000 0.0000 23.0045 0.0000
# 6 0.0000 0.0000 0.0000 0.0000 0.0000 14.7876
#
#
#
# Elastic Compliance Matrix: (Units=1/GPa)
#
#
# Indices 1 2 3 4 5 6 
#
# 1 0.014631 -0.000024 -0.005697 0.000000 0.000000 0.000000
# 2 -0.000024 0.018212 -0.008379 0.000000 0.000000 0.000000
# 3 -0.005697 -0.008379 0.016030 0.000000 0.000000 0.000000
# 4 0.000000 0.000000 0.000000 0.024856 0.000000 0.000000
# 5 0.000000 0.000000 0.000000 0.000000 0.043470 0.000000
# 6 0.000000 0.000000 0.000000 0.000000 0.000000 0.067624
#
#
# Mechanical properties :
#
#
# Convention : Reuss Voigt Hill
#
# Bulk Modulus (GPa) = 48.37450 51.97373 50.17412
# Shear Modulus (GPa) = 22.73600 26.05357 24.39478
#
# Velocity S-wave (km/s) = 3.39484 3.63409 3.51650
# Velocity P-wave (km/s) = 6.31568 6.62982 6.47466
#
# Compressibility (1/GPa) = 0.02067205
#
# Stress axis : x y z
#
# Youngs Moduli (GPa) = 68.34576 54.91016 62.38110
#
# Poissons Ratio (x) = 0.00133 0.35540
# Poissons Ratio (y) = 0.00165 0.52271
# Poissons Ratio (z) = 0.38938 0.46011
#
# Static dielectric constant tensor:
#      x y z
#    x 3.437150 0.000000 0.000000 
#    y 0.000000 3.662390 0.000000 
#    z 0.000000 0.000000 3.548740 
# 
# 
# High freq. dielectric constant tensor:
#      x y z
#    x 1.762100 0.000000 0.000000 
#    y 0.000000 1.772200 0.000000 
#    z 0.000000 0.000000 1.765390 
# 
# From -- ./inp_files/13935.got.cif
#   From: 2010.03.12/outbox.cif.g09.slc.cpg/sg63_7_cif.got.tgz:13935.got - 2010.04.10 19:34:48.
