data_PCOD8259805
_publ_section_title
;
Structure prediction by ZEFSAII (Michael W. Deem and Ramdas Pophale) SiO2 
 PCOD8259805
Probable space group: C M C M
;
_chemical_formula_sum "Si O2"
_cell_formula_units_Z 88
_cell_length_a 17.374510
_cell_length_b 8.720556
_cell_length_c 28.924190
_cell_angle_alpha 90.000000
_cell_angle_beta 90.000000
_cell_angle_gamma 90.000000
_cell_volume 4382.459854
_symmetry_space_group_name_H-M "C M C M"
_symmetry_group_IT_number 63
_symmetry_cell_setting 'orthorhombic'
loop_
_space_group_symop_operation_xyz
x,y,z
-x,-y,1/2+z
x,-y,-z
-x,y,1/2-z
-x,-y,-z
x,y,1/2-z
-x,y,z
x,-y,1/2+z
1/2+x,1/2+y,z
1/2-x,1/2-y,1/2+z
1/2+x,1/2-y,-z
1/2-x,1/2+y,1/2-z
1/2-x,1/2-y,-z
1/2+x,1/2+y,1/2-z
1/2-x,1/2+y,z
1/2+x,1/2-y,1/2+z
loop_
_atom_site_type_symbol
_atom_site_label
_atom_site_fract_x
_atom_site_fract_y
_atom_site_fract_z
Si Si1 0.359006 0.014699 0.250000
Si Si2 0.696145 0.666051 0.250000
Si Si3 0.500000 0.292283 0.619505
Si Si4 0.500000 0.967992 0.446042
Si Si5 0.344719 0.430139 0.848266
Si Si6 0.000000 0.556981 0.799024
Si Si7 0.735166 0.306942 0.104357
Si Si8 0.162454 0.548806 0.053131
O O1 0.289282 0.136778 0.250000
O O2 0.317867 0.847981 0.250000
O O3 0.417471 0.035850 0.294865
O O4 0.653138 0.585745 0.293136
O O5 0.500000 0.213879 0.568358
O O6 0.574596 0.395354 0.627011
O O7 0.500000 0.151668 0.654919
O O8 0.500000 0.000000 0.500000
O O9 0.423804 0.047431 0.426262
O O10 0.324779 0.603493 0.863000
O O11 0.279432 0.312555 0.864072
O O12 0.000000 0.657130 0.750000
O O13 0.792435 0.426144 0.082439
O O14 0.693769 0.219538 0.061765
O O15 0.166527 0.500000 0.000000
#
# Coordination Sequence:
#
# PCOD8259805 Si02
#       8
#     8   8   8   8  16   8  16  16
#     4   9  20  34  58  81 120 142 214 231 298 338
#     4  12  20  36  56  90 112 164 188 258 278 354
#     4  12  20  39  61  82 121 164 199 253 296 369
#     4  10  22  37  62  88 117 157 202 243 315 368
#     4  11  23  36  60  85 122 155 206 242 302 354
#     4   8  18  36  53  87 105 163 193 235 282 376
#     4  10  22  38  57  93 115 154 202 247 301 360
#     4  10  20  39  63  85 120 152 198 248 309 362
#
# _framework density 20.080048000000001
#
# number of rings (size 3 to 8) (size 9 to 14) (size 15 to 20)
#    0.545    1.091    3.636    1.636    0.000    0.727 
#    0.000    0.000    0.000   13.091    0.000    0.000 
#    0.000    0.000    0.000    0.000    0.000    0.000 
#
# Total GULP energy -545083.199133 kJ/mol
# GULP energy per Si atom -12388.254526 kJ/mol
# Density = 2.003434 g / cm^3
# Si number density = 20.080048 Si / 1000 Ang^3
#
#
#
# Elastic Constant Matrix: (Units=GPa)
#
#
# Indices 1 2 3 4 5 6 
#
# 1 142.1285 49.4432 30.6028 0.0000 0.0000 0.0000
# 2 49.4432 78.2258 41.9267 0.0000 0.0000 0.0000
# 3 30.6028 41.9267 94.2756 0.0000 0.0000 0.0000
# 4 0.0000 0.0000 0.0000 23.4760 0.0000 0.0000
# 5 0.0000 0.0000 0.0000 0.0000 23.6528 0.0000
# 6 0.0000 0.0000 0.0000 0.0000 0.0000 33.6221
#
#
#
# Elastic Compliance Matrix: (Units=1/GPa)
#
#
# Indices 1 2 3 4 5 6 
#
# 1 0.009038 -0.005436 -0.000516 0.000000 0.000000 0.000000
# 2 -0.005436 0.020053 -0.007154 0.000000 0.000000 0.000000
# 3 -0.000516 -0.007154 0.013956 0.000000 0.000000 0.000000
# 4 0.000000 0.000000 0.000000 0.042597 0.000000 0.000000
# 5 0.000000 0.000000 0.000000 0.000000 0.042278 0.000000
# 6 0.000000 0.000000 0.000000 0.000000 0.000000 0.029742
#
#
# Mechanical properties :
#
#
# Convention : Reuss Voigt Hill
#
# Bulk Modulus (GPa) = 59.39697 62.06390 60.73044
# Shear Modulus (GPa) = 26.38676 28.99399 27.69037
#
# Velocity S-wave (km/s) = 3.62895 3.80402 3.71752
# Velocity P-wave (km/s) = 6.87047 7.09009 6.98115
#
# Compressibility (1/GPa) = 0.01683588
#
# Stress axis : x y z
#
# Youngs Moduli (GPa) = 110.64310 49.86676 71.65231
#
# Poissons Ratio (x) = 0.27107 0.03700
# Poissons Ratio (y) = 0.60143 0.51258
# Poissons Ratio (z) = 0.05714 0.35673
#
# Static dielectric constant tensor:
#      x y z
#    x 4.270190 0.000000 0.000000 
#    y 0.000000 3.575950 0.000000 
#    z 0.000000 0.000000 3.739820 
# 
# 
# High freq. dielectric constant tensor:
#      x y z
#    x 1.803280 0.000000 0.000000 
#    y 0.000000 1.755730 0.000000 
#    z 0.000000 0.000000 1.782330 
# 
# From -- ./inp_files/73862.got.cif
#   From: 2010.03.12/outbox.cif.g09.slc.cpg/sg63_37_cif.got.tgz:73862.got - 2010.04.10 19:34:48.
