data_PCOD8259776
_publ_section_title
;
Structure prediction by ZEFSAII (Michael W. Deem and Ramdas Pophale) SiO2 
 PCOD8259776
Probable space group: C M C M
;
_chemical_formula_sum "Si O2"
_cell_formula_units_Z 96
_cell_length_a 8.435227
_cell_length_b 24.753112
_cell_length_c 21.601334
_cell_angle_alpha 90.000000
_cell_angle_beta 90.000000
_cell_angle_gamma 90.000000
_cell_volume 4510.317900
_symmetry_space_group_name_H-M "C M C M"
_symmetry_group_IT_number 63
_symmetry_cell_setting 'orthorhombic'
loop_
_space_group_symop_operation_xyz
x,y,z
-x,-y,1/2+z
x,-y,-z
-x,y,1/2-z
-x,-y,-z
x,y,1/2-z
-x,y,z
x,-y,1/2+z
1/2+x,1/2+y,z
1/2-x,1/2-y,1/2+z
1/2+x,1/2-y,-z
1/2-x,1/2+y,1/2-z
1/2-x,1/2-y,-z
1/2+x,1/2+y,1/2-z
1/2-x,1/2+y,z
1/2+x,1/2-y,1/2+z
loop_
_atom_site_type_symbol
_atom_site_label
_atom_site_fract_x
_atom_site_fract_y
_atom_site_fract_z
Si Si1 0.815423 0.093063 0.509880
Si Si2 0.686765 0.124859 0.750000
Si Si3 0.682940 0.055338 0.634541
Si Si4 0.817208 0.245443 0.750000
Si Si5 0.818159 0.171495 0.156145
Si Si6 0.183050 0.696595 0.472347
Si Si7 0.317564 0.064807 0.120584
O O1 0.782219 0.058996 0.571380
O O2 0.711760 0.147641 0.519849
O O3 0.764742 0.062308 0.447051
O O4 0.000000 0.106666 0.505543
O O5 0.500000 0.117261 0.750000
O O6 0.752923 0.094511 0.688415
O O7 0.726335 0.188340 0.750000
O O8 0.500000 0.069432 0.621108
O O9 0.700428 0.992639 0.655055
O O10 0.777539 0.281921 0.690983
O O11 0.000000 0.230102 0.750000
O O12 0.796264 0.182751 0.084460
O O13 0.755258 0.110342 0.166790
O O14 0.000000 0.175075 0.176850
O O15 0.250000 0.750000 0.500000
O O16 0.000000 0.702493 0.453585
O O17 0.500000 0.080192 0.108722
#
# Coordination Sequence:
#
# PCOD8259776 Si02
#       7
#    16   8  16   8  16  16  16
#     4  11  22  36  58  90 126 164 205 254 310 367
#     4  10  24  45  64  87 119 160 210 254 305 372
#     4  10  22  40  63  89 124 167 208 255 310 371
#     4  12  26  45  66  89 123 164 210 260 309 372
#     4  11  23  41  64  92 123 160 203 255 310 367
#     4  11  22  38  60  88 122 160 204 254 309 370
#     4  10  20  38  64  95 127 160 205 256 311 375
#
# _framework density 21.284531999999999
#
# number of rings (size 3 to 8) (size 9 to 14) (size 15 to 20)
#    0.000    1.333    0.000    8.250    2.333    4.667 
#    0.000    1.667    0.000    0.000    0.000    0.000 
#    0.000    0.000    0.000    0.000    0.000    0.000 
#
# Total GULP energy -595095.142293 kJ/mol
# GULP energy per Si atom -12397.815464 kJ/mol
# Density = 2.123609 g / cm^3
# Si number density = 21.284532 Si / 1000 Ang^3
#
#
#
# Elastic Constant Matrix: (Units=GPa)
#
#
# Indices 1 2 3 4 5 6 
#
# 1 89.8093 16.8122 22.2421 0.0000 0.0000 0.0000
# 2 16.8122 148.1725 43.4193 0.0000 0.0000 0.0000
# 3 22.2421 43.4193 63.3442 0.0000 0.0000 0.0000
# 4 0.0000 0.0000 0.0000 32.7403 0.0000 0.0000
# 5 0.0000 0.0000 0.0000 0.0000 22.1222 0.0000
# 6 0.0000 0.0000 0.0000 0.0000 0.0000 36.2466
#
#
#
# Elastic Compliance Matrix: (Units=1/GPa)
#
#
# Indices 1 2 3 4 5 6 
#
# 1 0.012198 -0.000161 -0.004173 0.000000 0.000000 0.000000
# 2 -0.000161 0.008447 -0.005734 0.000000 0.000000 0.000000
# 3 -0.004173 -0.005734 0.021182 0.000000 0.000000 0.000000
# 4 0.000000 0.000000 0.000000 0.030543 0.000000 0.000000
# 5 0.000000 0.000000 0.000000 0.000000 0.045203 0.000000
# 6 0.000000 0.000000 0.000000 0.000000 0.000000 0.027589
#
#
# Mechanical properties :
#
#
# Convention : Reuss Voigt Hill
#
# Bulk Modulus (GPa) = 46.09878 51.80813 48.95345
# Shear Modulus (GPa) = 28.98062 32.81198 30.89630
#
# Velocity S-wave (km/s) = 3.69396 3.93057 3.81410
# Velocity P-wave (km/s) = 6.31658 6.70766 6.51506
#
# Compressibility (1/GPa) = 0.02169255
#
# Stress axis : x y z
#
# Youngs Moduli (GPa) = 81.97864 118.38079 47.20994
#
# Poissons Ratio (x) = 0.01910 0.19699
# Poissons Ratio (y) = 0.01323 0.27068
# Poissons Ratio (z) = 0.34206 0.67874
#
# Static dielectric constant tensor:
#      x y z
#    x 3.729510 0.000000 0.000000 
#    y 0.000000 4.846170 0.000000 
#    z 0.000000 0.000000 3.722830 
# 
# 
# High freq. dielectric constant tensor:
#      x y z
#    x 1.836420 0.000000 0.000000 
#    y 0.000000 1.852770 0.000000 
#    z 0.000000 0.000000 1.818860 
# 
# From -- ./inp_files/60027.got.cif
#   From: 2010.03.12/outbox.cif.g09.slc.cpg/sg63_31_cif.got.tgz:60027.got - 2010.04.10 19:34:48.
