data_PCOD8259942
_publ_section_title
;
Structure prediction by ZEFSAII (Michael W. Deem and Ramdas Pophale) SiO2 
 PCOD8259942
Probable space group: C M C M
;
_chemical_formula_sum "Si O2"
_cell_formula_units_Z 72
_cell_length_a 13.083032
_cell_length_b 31.626990
_cell_length_c 9.322851
_cell_angle_alpha 90.000000
_cell_angle_beta 90.000000
_cell_angle_gamma 90.000000
_cell_volume 3857.580593
_symmetry_space_group_name_H-M "C M C M"
_symmetry_group_IT_number 63
_symmetry_cell_setting 'orthorhombic'
loop_
_space_group_symop_operation_xyz
x,y,z
-x,-y,1/2+z
x,-y,-z
-x,y,1/2-z
-x,-y,-z
x,y,1/2-z
-x,y,z
x,-y,1/2+z
1/2+x,1/2+y,z
1/2-x,1/2-y,1/2+z
1/2+x,1/2-y,-z
1/2-x,1/2+y,1/2-z
1/2-x,1/2-y,-z
1/2+x,1/2+y,1/2-z
1/2-x,1/2+y,z
1/2+x,1/2-y,1/2+z
loop_
_atom_site_type_symbol
_atom_site_label
_atom_site_fract_x
_atom_site_fract_y
_atom_site_fract_z
Si Si1 0.198118 0.685689 0.417939
Si Si2 0.500000 0.043402 0.916734
Si Si3 0.195136 0.400770 0.082351
Si Si4 0.115642 0.957486 0.083353
Si Si5 0.613100 0.740297 0.411691
O O1 0.177148 0.680678 0.250000
O O2 0.180362 0.641317 0.492407
O O3 0.312020 0.702125 0.453943
O O4 0.120375 0.720020 0.482004
O O5 0.500000 0.032560 0.750000
O O6 0.601514 0.068976 0.959420
O O7 0.500000 0.000000 0.000000
O O8 0.193207 0.389401 0.250000
O O9 0.303098 0.421840 0.037661
O O10 0.127611 0.968210 0.250000
O O11 0.000000 0.941896 0.047608
O O12 0.142478 0.000000 0.000000
O O13 0.637580 0.756072 0.250000
O O14 0.500000 0.721223 0.423571
#
# Coordination Sequence:
#
# PCOD8259942 Si02
#       5
#    16   8  16  16  16
#     4  10  21  35  53  82 109 134 178 225 264 311
#     4  10  22  38  56  78 106 144 184 222 268 320
#     4  10  21  36  53  76 108 143 177 215 266 326
#     4   9  18  33  53  76 102 134 173 217 266 318
#     4   9  19  37  58  76 104 144 177 214 268 325
#
# _framework density 18.664549999999998
#
# number of rings (size 3 to 8) (size 9 to 14) (size 15 to 20)
#    0.000    2.444    0.000    1.333    1.556    4.000 
#    0.000    0.000    0.000    0.000    0.000    0.000 
#    0.000    0.000    0.000    0.000    0.000    0.000 
#
# Total GULP energy -446433.305687 kJ/mol
# GULP energy per Si atom -12400.925158 kJ/mol
# Density = 1.862207 g / cm^3
# Si number density = 18.664550 Si / 1000 Ang^3
#
#
#
# Elastic Constant Matrix: (Units=GPa)
#
#
# Indices 1 2 3 4 5 6 
#
# 1 109.6212 47.3230 34.2608 0.0000 0.0000 0.0000
# 2 47.3230 122.8180 60.0972 0.0000 0.0000 0.0000
# 3 34.2608 60.0972 68.1959 0.0000 0.0000 0.0000
# 4 0.0000 0.0000 0.0000 35.9785 0.0000 0.0000
# 5 0.0000 0.0000 0.0000 0.0000 19.7446 0.0000
# 6 0.0000 0.0000 0.0000 0.0000 0.0000 9.8644
#
#
#
# Elastic Compliance Matrix: (Units=1/GPa)
#
#
# Indices 1 2 3 4 5 6 
#
# 1 0.011337 -0.002780 -0.003246 0.000000 0.000000 0.000000
# 2 -0.002780 0.014997 -0.011819 0.000000 0.000000 0.000000
# 3 -0.003246 -0.011819 0.026709 0.000000 0.000000 0.000000
# 4 0.000000 0.000000 0.000000 0.027794 0.000000 0.000000
# 5 0.000000 0.000000 0.000000 0.000000 0.050647 0.000000
# 6 0.000000 0.000000 0.000000 0.000000 0.000000 0.101375
#
#
# Mechanical properties :
#
#
# Convention : Reuss Voigt Hill
#
# Bulk Modulus (GPa) = 57.62439 64.88855 61.25647
# Shear Modulus (GPa) = 18.22607 23.71444 20.97025
#
# Velocity S-wave (km/s) = 3.12830 3.56836 3.35555
# Velocity P-wave (km/s) = 6.63243 7.19852 6.92126
#
# Compressibility (1/GPa) = 0.01735376
#
# Stress axis : x y z
#
# Youngs Moduli (GPa) = 88.20809 66.68208 37.43987
#
# Poissons Ratio (x) = 0.18538 0.12151
# Poissons Ratio (y) = 0.24523 0.44250
# Poissons Ratio (z) = 0.28628 0.78811
#
# Static dielectric constant tensor:
#      x y z
#    x 3.664760 0.000000 0.000000 
#    y 0.000000 3.204190 0.000000 
#    z 0.000000 0.000000 3.397680 
# 
# 
# High freq. dielectric constant tensor:
#      x y z
#    x 1.739230 0.000000 0.000000 
#    y 0.000000 1.712680 0.000000 
#    z 0.000000 0.000000 1.724610 
# 
# From -- ./inp_files/4637.got.cif
#   From: 2010.03.12/outbox.cif.g09.slc.cpg/sg63_3_cif.got.tgz:4637.got - 2010.04.10 19:34:48.
