data_PCOD8259425
_publ_section_title
;
Structure prediction by ZEFSAII (Michael W. Deem and Ramdas Pophale) SiO2 
 PCOD8259425
Probable space group: C M C M
;
_chemical_formula_sum "Si O2"
_cell_formula_units_Z 96
_cell_length_a 8.821402
_cell_length_b 24.840150
_cell_length_c 23.656865
_cell_angle_alpha 90.000000
_cell_angle_beta 90.000000
_cell_angle_gamma 90.000000
_cell_volume 5183.809334
_symmetry_space_group_name_H-M "C M C M"
_symmetry_group_IT_number 63
_symmetry_cell_setting 'orthorhombic'
loop_
_space_group_symop_operation_xyz
x,y,z
-x,-y,1/2+z
x,-y,-z
-x,y,1/2-z
-x,-y,-z
x,y,1/2-z
-x,y,z
x,-y,1/2+z
1/2+x,1/2+y,z
1/2-x,1/2-y,1/2+z
1/2+x,1/2-y,-z
1/2-x,1/2+y,1/2-z
1/2-x,1/2-y,-z
1/2+x,1/2+y,1/2-z
1/2-x,1/2+y,z
1/2+x,1/2-y,1/2+z
loop_
_atom_site_type_symbol
_atom_site_label
_atom_site_fract_x
_atom_site_fract_y
_atom_site_fract_z
Si Si1 0.821682 0.232057 0.558465
Si Si2 0.319781 0.146292 0.250000
Si Si3 0.320055 0.976122 0.750000
Si Si4 0.179109 0.482801 0.369489
Si Si5 0.179615 0.818317 0.635761
Si Si6 0.323522 0.607357 0.562807
Si Si7 0.821595 0.078729 0.437021
O O1 0.750000 0.250000 0.500000
O O2 0.744337 0.264102 0.609044
O O3 0.785836 0.169837 0.569455
O O4 0.000000 0.243315 0.556149
O O5 0.500000 0.149007 0.250000
O O6 0.259651 0.085007 0.250000
O O7 0.254778 0.177060 0.303548
O O8 0.500000 0.976014 0.750000
O O9 0.257909 0.005689 0.806216
O O10 0.233457 0.424027 0.388477
O O11 0.239367 0.526616 0.413335
O O12 0.000000 0.485486 0.369651
O O13 0.229311 0.868932 0.597791
O O14 0.000000 0.814138 0.640992
O O15 0.500000 0.595687 0.570841
O O16 0.269781 0.586923 0.501434
O O17 0.000000 0.069570 0.432452
#
# Coordination Sequence:
#
# PCOD8259425 Si02
#       7
#    16   8   8  16  16  16  16
#     4  11  22  39  62  87 118 156 198 245 297 355
#     4  11  21  39  62  87 120 157 194 248 301 345
#     4   9  20  37  56  81 116 149 188 240 293 341
#     4  11  22  37  57  85 115 151 197 244 291 348
#     4  11  22  38  60  91 121 154 198 243 294 354
#     4  10  22  40  57  82 119 158 191 233 294 355
#     4  10  20  36  57  83 120 155 185 234 295 352
#
# _framework density 18.519197999999999
#
# number of rings (size 3 to 8) (size 9 to 14) (size 15 to 20)
#    0.000    1.500    3.333    2.250    0.000    4.667 
#    0.000    2.500    0.000    4.000    0.000    0.000 
#    0.000    0.000    0.000    0.000    0.000    0.000 
#
# Total GULP energy -595421.598940 kJ/mol
# GULP energy per Si atom -12404.616645 kJ/mol
# Density = 1.847705 g / cm^3
# Si number density = 18.519198 Si / 1000 Ang^3
#
#
#
# Elastic Constant Matrix: (Units=GPa)
#
#
# Indices 1 2 3 4 5 6 
#
# 1 55.8956 39.2113 38.3557 0.0000 0.0000 0.0000
# 2 39.2113 105.9721 68.0999 0.0000 0.0000 0.0000
# 3 38.3557 68.0999 150.0023 0.0000 0.0000 0.0000
# 4 0.0000 0.0000 0.0000 33.5835 0.0000 0.0000
# 5 0.0000 0.0000 0.0000 0.0000 31.2177 0.0000
# 6 0.0000 0.0000 0.0000 0.0000 0.0000 34.2243
#
#
#
# Elastic Compliance Matrix: (Units=1/GPa)
#
#
# Indices 1 2 3 4 5 6 
#
# 1 0.025153 -0.007305 -0.003115 0.000000 0.000000 0.000000
# 2 -0.007305 0.015445 -0.005144 0.000000 0.000000 0.000000
# 3 -0.003115 -0.005144 0.009798 0.000000 0.000000 0.000000
# 4 0.000000 0.000000 0.000000 0.029777 0.000000 0.000000
# 5 0.000000 0.000000 0.000000 0.000000 0.032033 0.000000
# 6 0.000000 0.000000 0.000000 0.000000 0.000000 0.029219
#
#
# Mechanical properties :
#
#
# Convention : Reuss Voigt Hill
#
# Bulk Modulus (GPa) = 51.90002 67.02264 59.46133
# Shear Modulus (GPa) = 27.93674 30.88531 29.41102
#
# Velocity S-wave (km/s) = 3.88819 4.08823 3.98947
# Velocity P-wave (km/s) = 6.94573 7.65208 7.30745
#
# Compressibility (1/GPa) = 0.01926781
#
# Stress axis : x y z
#
# Youngs Moduli (GPa) = 39.75726 64.74551 102.05676
#
# Poissons Ratio (x) = 0.47297 0.31792
# Poissons Ratio (y) = 0.29043 0.52499
# Poissons Ratio (z) = 0.12385 0.33305
#
# Static dielectric constant tensor:
#      x y z
#    x 3.360470 0.000000 0.000000 
#    y 0.000000 3.540540 0.000000 
#    z 0.000000 0.000000 3.583720 
# 
# 
# High freq. dielectric constant tensor:
#      x y z
#    x 1.717250 0.000000 0.000000 
#    y 0.000000 1.721120 0.000000 
#    z 0.000000 0.000000 1.724600 
# 
# From -- ./inp_files/60037.got.cif
#   From: 2010.03.12/outbox.cif.g09.slc.cpg/sg63_31_cif.got.tgz:60037.got - 2010.04.10 19:34:48.
