data_PCOD8259287
_publ_section_title
;
Structure prediction by ZEFSAII (Michael W. Deem and Ramdas Pophale) SiO2 
 PCOD8259287
Probable space group: C M C M
;
_chemical_formula_sum "Si O2"
_cell_formula_units_Z 96
_cell_length_a 8.929211
_cell_length_b 20.263012
_cell_length_c 27.858469
_cell_angle_alpha 90.000000
_cell_angle_beta 90.000000
_cell_angle_gamma 90.000000
_cell_volume 5040.508283
_symmetry_space_group_name_H-M "C M C M"
_symmetry_group_IT_number 63
_symmetry_cell_setting 'orthorhombic'
loop_
_space_group_symop_operation_xyz
x,y,z
-x,-y,1/2+z
x,-y,-z
-x,y,1/2-z
-x,-y,-z
x,y,1/2-z
-x,y,z
x,-y,1/2+z
1/2+x,1/2+y,z
1/2-x,1/2-y,1/2+z
1/2+x,1/2-y,-z
1/2-x,1/2+y,1/2-z
1/2-x,1/2-y,-z
1/2+x,1/2+y,1/2-z
1/2-x,1/2+y,z
1/2+x,1/2-y,1/2+z
loop_
_atom_site_type_symbol
_atom_site_label
_atom_site_fract_x
_atom_site_fract_y
_atom_site_fract_z
Si Si1 0.829441 0.686561 0.196695
Si Si2 0.673049 0.254887 0.399124
Si Si3 0.676401 0.012670 0.395559
Si Si4 0.673028 0.391489 0.056412
Si Si5 0.324713 0.449874 0.804045
Si Si6 0.674417 0.634586 0.053837
O O1 0.800552 0.716098 0.250000
O O2 0.797594 0.743147 0.157542
O O3 0.720328 0.625746 0.186491
O O4 0.000000 0.660569 0.192101
O O5 0.500000 0.242475 0.413055
O O6 0.718085 0.329992 0.410090
O O7 0.775072 0.207468 0.431185
O O8 0.500000 0.013986 0.393312
O O9 0.740731 0.002739 0.341728
O O10 0.732973 0.081940 0.415922
O O11 0.727847 0.953714 0.429550
O O12 0.500000 0.410968 0.062969
O O13 0.709978 0.373479 0.001967
O O14 0.279627 0.471158 0.750000
O O15 0.500000 0.456865 0.812560
O O16 0.500000 0.624742 0.065018
#
# Coordination Sequence:
#
# PCOD8259287 Si02
#       6
#    16  16  16  16  16  16
#     4   9  17  31  54  84 114 144 180 224 275 332
#     4  10  20  36  58  84 115 150 188 232 283 340
#     4  12  24  38  58  84 114 150 192 238 286 339
#     4  10  23  40  56  80 117 155 192 236 286 341
#     4  10  20  35  58  86 113 144 184 231 281 335
#     4  11  22  37  59  83 111 150 195 242 286 333
#
# _framework density 19.045698000000002
#
# number of rings (size 3 to 8) (size 9 to 14) (size 15 to 20)
#    0.000    1.667    1.667    3.500    0.000    5.000 
#    0.000    0.833    0.000    3.000    0.000    0.000 
#    0.000    0.000    0.000    0.000    0.000    0.000 
#
# Total GULP energy -595363.911455 kJ/mol
# GULP energy per Si atom -12403.414822 kJ/mol
# Density = 1.900235 g / cm^3
# Si number density = 19.045698 Si / 1000 Ang^3
#
#
#
# Elastic Constant Matrix: (Units=GPa)
#
#
# Indices 1 2 3 4 5 6 
#
# 1 88.5546 21.6560 41.0666 0.0000 0.0000 0.0000
# 2 21.6560 45.1274 17.0548 0.0000 0.0000 0.0000
# 3 41.0666 17.0548 105.6306 0.0000 0.0000 0.0000
# 4 0.0000 0.0000 0.0000 12.5895 0.0000 0.0000
# 5 0.0000 0.0000 0.0000 0.0000 28.2723 0.0000
# 6 0.0000 0.0000 0.0000 0.0000 0.0000 27.6039
#
#
#
# Elastic Compliance Matrix: (Units=1/GPa)
#
#
# Indices 1 2 3 4 5 6 
#
# 1 0.014867 -0.005272 -0.004929 0.000000 0.000000 0.000000
# 2 -0.005272 0.025469 -0.002063 0.000000 0.000000 0.000000
# 3 -0.004929 -0.002063 0.011716 0.000000 0.000000 0.000000
# 4 0.000000 0.000000 0.000000 0.079431 0.000000 0.000000
# 5 0.000000 0.000000 0.000000 0.000000 0.035370 0.000000
# 6 0.000000 0.000000 0.000000 0.000000 0.000000 0.036227
#
#
# Mechanical properties :
#
#
# Convention : Reuss Voigt Hill
#
# Bulk Modulus (GPa) = 36.32954 44.31859 40.32407
# Shear Modulus (GPa) = 21.11642 24.32884 22.72263
#
# Velocity S-wave (km/s) = 3.33336 3.57794 3.45781
# Velocity P-wave (km/s) = 5.82507 6.35523 6.09592
#
# Compressibility (1/GPa) = 0.02752581
#
# Stress axis : x y z
#
# Youngs Moduli (GPa) = 67.26102 39.26362 85.35191
#
# Poissons Ratio (x) = 0.20699 0.42069
# Poissons Ratio (y) = 0.35459 0.17604
# Poissons Ratio (z) = 0.33152 0.08098
#
# Static dielectric constant tensor:
#      x y z
#    x 3.490200 0.000000 0.000000 
#    y 0.000000 3.257920 0.000000 
#    z 0.000000 0.000000 3.869840 
# 
# 
# High freq. dielectric constant tensor:
#      x y z
#    x 1.742130 0.000000 0.000000 
#    y 0.000000 1.715290 0.000000 
#    z 0.000000 0.000000 1.761260 
# 
# From -- ./inp_files/66913.got.cif
#   From: 2010.03.12/outbox.cif.g09.slc.cpg/sg63_34_cif.got.tgz:66913.got - 2010.04.10 19:34:48.
