data_PCOD8259637
_publ_section_title
;
Structure prediction by ZEFSAII (Michael W. Deem and Ramdas Pophale) SiO2 
 PCOD8259637
Probable space group: C M C M
;
_chemical_formula_sum "Si O2"
_cell_formula_units_Z 88
_cell_length_a 21.294046
_cell_length_b 22.856474
_cell_length_c 9.393562
_cell_angle_alpha 90.000000
_cell_angle_beta 90.000000
_cell_angle_gamma 90.000000
_cell_volume 4571.910584
_symmetry_space_group_name_H-M "C M C M"
_symmetry_group_IT_number 63
_symmetry_cell_setting 'orthorhombic'
loop_
_space_group_symop_operation_xyz
x,y,z
-x,-y,1/2+z
x,-y,-z
-x,y,1/2-z
-x,-y,-z
x,y,1/2-z
-x,y,z
x,-y,1/2+z
1/2+x,1/2+y,z
1/2-x,1/2-y,1/2+z
1/2+x,1/2-y,-z
1/2-x,1/2+y,1/2-z
1/2-x,1/2-y,-z
1/2+x,1/2+y,1/2-z
1/2-x,1/2+y,z
1/2+x,1/2-y,1/2+z
loop_
_atom_site_type_symbol
_atom_site_label
_atom_site_fract_x
_atom_site_fract_y
_atom_site_fract_z
Si Si1 0.500000 0.439609 0.414944
Si Si2 0.074026 0.446975 0.092509
Si Si3 0.143651 0.637419 0.090474
Si Si4 0.259112 0.443823 0.916782
Si Si5 0.132678 0.885802 0.416708
Si Si6 0.311737 0.262667 0.088164
O O1 0.500000 0.500000 0.500000
O O2 0.500000 0.456977 0.250000
O O3 0.560411 0.399921 0.452878
O O4 0.103604 0.450869 0.250000
O O5 0.000000 0.451114 0.101258
O O6 0.102365 0.500000 0.000000
O O7 0.092628 0.386238 0.019874
O O8 0.122891 0.619746 0.250000
O O9 0.212273 0.610518 0.058136
O O10 0.143048 0.706927 0.071713
O O11 0.268615 0.457573 0.750000
O O12 0.231390 0.500000 0.000000
O O13 0.325636 0.428828 0.987930
O O14 0.147099 0.896334 0.250000
O O15 0.148739 0.819091 0.462124
O O16 0.289442 0.270626 0.250000
O O17 0.250000 0.250000 0.000000
#
# Coordination Sequence:
#
# PCOD8259637 Si02
#       6
#     8  16  16  16  16  16
#     4  10  22  40  60  86 116 152 197 244 291 348
#     4  10  21  37  57  81 111 147 187 232 282 336
#     4  10  21  36  55  83 114 147 188 230 279 343
#     4  11  22  35  54  83 116 145 185 233 283 341
#     4  10  21  38  60  84 114 150 191 237 291 344
#     4  10  20  37  59  85 114 148 186 229 282 340
#
# _framework density 19.247971
#
# number of rings (size 3 to 8) (size 9 to 14) (size 15 to 20)
#    0.000    1.818    1.818    2.182    0.000    6.909 
#    1.636    0.000    0.000    0.000    0.000    0.000 
#    0.000    0.000    0.000    0.000    0.000    0.000 
#
# Total GULP energy -545674.180463 kJ/mol
# GULP energy per Si atom -12401.685920 kJ/mol
# Density = 1.920416 g / cm^3
# Si number density = 19.247971 Si / 1000 Ang^3
#
#
#
# Elastic Constant Matrix: (Units=GPa)
#
#
# Indices 1 2 3 4 5 6 
#
# 1 54.9036 40.8129 35.7195 0.0000 0.0000 0.0000
# 2 40.8129 122.0548 53.5683 0.0000 0.0000 0.0000
# 3 35.7195 53.5683 108.7182 0.0000 0.0000 0.0000
# 4 0.0000 0.0000 0.0000 29.9902 0.0000 0.0000
# 5 0.0000 0.0000 0.0000 0.0000 31.4912 0.0000
# 6 0.0000 0.0000 0.0000 0.0000 0.0000 31.0076
#
#
#
# Elastic Compliance Matrix: (Units=1/GPa)
#
#
# Indices 1 2 3 4 5 6 
#
# 1 0.026642 -0.006465 -0.005568 0.000000 0.000000 0.000000
# 2 -0.006465 0.012022 -0.003800 0.000000 0.000000 0.000000
# 3 -0.005568 -0.003800 0.012900 0.000000 0.000000 0.000000
# 4 0.000000 0.000000 0.000000 0.033344 0.000000 0.000000
# 5 0.000000 0.000000 0.000000 0.000000 0.031755 0.000000
# 6 0.000000 0.000000 0.000000 0.000000 0.000000 0.032250
#
#
# Mechanical properties :
#
#
# Convention : Reuss Voigt Hill
#
# Bulk Modulus (GPa) = 50.25362 60.65310 55.45336
# Shear Modulus (GPa) = 26.70785 28.86953 27.78869
#
# Velocity S-wave (km/s) = 3.72905 3.87702 3.80375
# Velocity P-wave (km/s) = 6.68627 7.18482 6.94002
#
# Compressibility (1/GPa) = 0.01989906
#
# Stress axis : x y z
#
# Youngs Moduli (GPa) = 37.53502 83.17784 77.52175
#
# Poissons Ratio (x) = 0.53774 0.43162
# Poissons Ratio (y) = 0.24266 0.29456
# Poissons Ratio (z) = 0.20899 0.31605
#
# Static dielectric constant tensor:
#      x y z
#    x 3.311480 0.000000 0.000000 
#    y 0.000000 3.714670 0.000000 
#    z 0.000000 0.000000 3.682090 
# 
# 
# High freq. dielectric constant tensor:
#      x y z
#    x 1.736150 0.000000 0.000000 
#    y 0.000000 1.755000 0.000000 
#    z 0.000000 0.000000 1.754050 
# 
# From -- ./inp_files/8204.got.cif
#   From: 2010.03.12/outbox.cif.g09.slc.cpg/sg63_5_cif.got.tgz:8204.got - 2010.04.10 19:34:48.
