data_PCOD8259710
_publ_section_title
;
Structure prediction by ZEFSAII (Michael W. Deem and Ramdas Pophale) SiO2 
 PCOD8259710
Probable space group: C M C M
;
_chemical_formula_sum "Si O2"
_cell_formula_units_Z 64
_cell_length_a 10.434768
_cell_length_b 10.320830
_cell_length_c 29.434076
_cell_angle_alpha 90.000000
_cell_angle_beta 90.000000
_cell_angle_gamma 90.000000
_cell_volume 3169.916549
_symmetry_space_group_name_H-M "C M C M"
_symmetry_group_IT_number 63
_symmetry_cell_setting 'orthorhombic'
loop_
_space_group_symop_operation_xyz
x,y,z
-x,-y,1/2+z
x,-y,-z
-x,y,1/2-z
-x,-y,-z
x,y,1/2-z
-x,y,z
x,-y,1/2+z
1/2+x,1/2+y,z
1/2-x,1/2-y,1/2+z
1/2+x,1/2-y,-z
1/2-x,1/2+y,1/2-z
1/2-x,1/2-y,-z
1/2+x,1/2+y,1/2-z
1/2-x,1/2+y,z
1/2+x,1/2-y,1/2+z
loop_
_atom_site_type_symbol
_atom_site_label
_atom_site_fract_x
_atom_site_fract_y
_atom_site_fract_z
Si Si1 0.247629 0.398260 0.151501
Si Si2 0.500000 0.289402 0.162613
Si Si3 0.500000 0.203871 0.434033
Si Si4 0.000000 0.864647 0.523532
Si Si5 0.729606 0.645125 0.407702
Si Si6 0.000000 0.500723 0.303087
O O1 0.370499 0.354225 0.182353
O O2 0.294115 0.529009 0.127131
O O3 0.216022 0.283797 0.116531
O O4 0.125896 0.419755 0.183708
O O5 0.500000 0.309778 0.107273
O O6 0.500000 0.135904 0.170550
O O7 0.500000 0.259067 0.484291
O O8 0.370773 0.119464 0.428752
O O9 0.127289 0.851739 0.552676
O O10 0.000000 0.000000 0.500000
O O11 0.000000 0.528536 0.250000
#
# Coordination Sequence:
#
# PCOD8259710 Si02
#       6
#    16   8   8   8  16   8
#     4  11  21  45  70  97 131 180 221 269 346 401
#     4  10  22  44  70  93 140 175 215 268 345 393
#     4  10  20  38  58  91 131 173 213 271 320 372
#     4  12  23  36  57  99 135 174 237 276 313 380
#     4  11  22  40  67  93 131 181 222 270 331 395
#     4  12  25  44  71 103 133 165 219 286 338 412
#
# _framework density 20.189805
#
# number of rings (size 3 to 8) (size 9 to 14) (size 15 to 20)
#    0.000    1.000    5.000    5.250    0.000    1.000 
#    0.000    1.875    0.000    0.000    0.000    0.000 
#    0.000    0.000    0.000    0.000    0.000    0.000 
#
# Total GULP energy -396694.822710 kJ/mol
# GULP energy per Si atom -12396.713210 kJ/mol
# Density = 2.014385 g / cm^3
# Si number density = 20.189805 Si / 1000 Ang^3
#
#
#
# Elastic Constant Matrix: (Units=GPa)
#
#
# Indices 1 2 3 4 5 6 
#
# 1 201.2206 41.0945 42.6416 0.0000 0.0000 0.0000
# 2 41.0945 84.0388 19.1096 0.0000 0.0000 0.0000
# 3 42.6416 19.1096 77.3742 0.0000 0.0000 0.0000
# 4 0.0000 0.0000 0.0000 10.9261 0.0000 0.0000
# 5 0.0000 0.0000 0.0000 0.0000 6.9553 0.0000
# 6 0.0000 0.0000 0.0000 0.0000 0.0000 20.6778
#
#
#
# Elastic Compliance Matrix: (Units=1/GPa)
#
#
# Indices 1 2 3 4 5 6 
#
# 1 0.006026 -0.002322 -0.002748 0.000000 0.000000 0.000000
# 2 -0.002322 0.013502 -0.002055 0.000000 0.000000 0.000000
# 3 -0.002748 -0.002055 0.014946 0.000000 0.000000 0.000000
# 4 0.000000 0.000000 0.000000 0.091524 0.000000 0.000000
# 5 0.000000 0.000000 0.000000 0.000000 0.143776 0.000000
# 6 0.000000 0.000000 0.000000 0.000000 0.000000 0.048361
#
#
# Mechanical properties :
#
#
# Convention : Reuss Voigt Hill
#
# Bulk Modulus (GPa) = 49.44390 63.14724 56.29557
# Shear Modulus (GPa) = 14.74380 25.03102 19.88741
#
# Velocity S-wave (km/s) = 2.70526 3.52488 3.14191
# Velocity P-wave (km/s) = 5.85667 6.92178 6.41138
#
# Compressibility (1/GPa) = 0.02022494
#
# Stress axis : x y z
#
# Youngs Moduli (GPa) = 165.94392 74.06312 66.90771
#
# Poissons Ratio (x) = 0.17197 0.18383
# Poissons Ratio (y) = 0.38532 0.13750
# Poissons Ratio (z) = 0.45594 0.15220
#
# Static dielectric constant tensor:
#      x y z
#    x 4.249820 0.000000 0.000000 
#    y 0.000000 3.586260 0.000000 
#    z 0.000000 0.000000 3.343210 
# 
# 
# High freq. dielectric constant tensor:
#      x y z
#    x 1.820480 0.000000 0.000000 
#    y 0.000000 1.787540 0.000000 
#    z 0.000000 0.000000 1.762670 
# 
# From -- ./inp_files/72403.got.cif
#   From: 2010.03.12/outbox.cif.g09.slc.cpg/sg63_37_cif.got.tgz:72403.got - 2010.04.10 19:34:48.
