data_PCOD8259913
_publ_section_title
;
Structure prediction by ZEFSAII (Michael W. Deem and Ramdas Pophale) SiO2 
 PCOD8259913
Probable space group: C M C M
;
_chemical_formula_sum "Si O2"
_cell_formula_units_Z 80
_cell_length_a 7.728052
_cell_length_b 20.496397
_cell_length_c 28.015921
_cell_angle_alpha 90.000000
_cell_angle_beta 90.000000
_cell_angle_gamma 90.000000
_cell_volume 4437.644053
_symmetry_space_group_name_H-M "C M C M"
_symmetry_group_IT_number 63
_symmetry_cell_setting 'orthorhombic'
loop_
_space_group_symop_operation_xyz
x,y,z
-x,-y,1/2+z
x,-y,-z
-x,y,1/2-z
-x,-y,-z
x,y,1/2-z
-x,y,z
x,-y,1/2+z
1/2+x,1/2+y,z
1/2-x,1/2-y,1/2+z
1/2+x,1/2-y,-z
1/2-x,1/2+y,1/2-z
1/2-x,1/2-y,-z
1/2+x,1/2+y,1/2-z
1/2-x,1/2+y,z
1/2+x,1/2-y,1/2+z
loop_
_atom_site_type_symbol
_atom_site_label
_atom_site_fract_x
_atom_site_fract_y
_atom_site_fract_z
Si Si1 0.695672 0.561669 0.474165
Si Si2 0.301639 0.814603 0.472686
Si Si3 0.000000 0.609567 0.196516
Si Si4 0.304612 0.235852 0.630119
Si Si5 0.500000 0.264294 0.197159
Si Si6 0.701114 0.611283 0.126319
O O1 0.790603 0.500000 0.500000
O O2 0.500000 0.541248 0.463962
O O3 0.694463 0.624256 0.508436
O O4 0.774113 0.577642 0.422030
O O5 0.500000 0.830283 0.482708
O O6 0.250000 0.750000 0.500000
O O7 0.263763 0.805798 0.416869
O O8 0.000000 0.686895 0.200093
O O9 0.175007 0.586786 0.169226
O O10 0.000000 0.579325 0.250000
O O11 0.500000 0.223366 0.648325
O O12 0.277914 0.311657 0.617885
O O13 0.172711 0.211328 0.670502
O O14 0.500000 0.295018 0.250000
O O15 0.500000 0.594169 0.137925
#
# Coordination Sequence:
#
# PCOD8259913 Si02
#       6
#    16  16   8  16   8  16
#     4  10  21  35  50  74 110 143 175 214 263 313
#     4  11  21  31  51  77 104 142 177 211 254 309
#     4   9  18  30  47  73  99 128 171 214 260 313
#     4   9  18  30  46  73 102 130 172 211 251 311
#     4   9  18  30  48  71 100 134 164 210 271 309
#     4   9  17  31  48  69 102 137 165 208 262 308
#
# _framework density 18.027584999999998
#
# number of rings (size 3 to 8) (size 9 to 14) (size 15 to 20)
#    0.000    2.400    2.000    0.600    4.200    1.200 
#    0.000    4.000    0.000    0.000    0.000    1.400 
#    0.000    0.000    0.000    0.000    0.000    0.000 
#
# Total GULP energy -495835.235375 kJ/mol
# GULP energy per Si atom -12395.880884 kJ/mol
# Density = 1.798655 g / cm^3
# Si number density = 18.027585 Si / 1000 Ang^3
#
#
#
# Elastic Constant Matrix: (Units=GPa)
#
#
# Indices 1 2 3 4 5 6 
#
# 1 94.8312 13.0069 73.2468 0.0000 0.0000 0.0000
# 2 13.0069 64.7216 39.1640 0.0000 0.0000 0.0000
# 3 73.2468 39.1640 157.3096 0.0000 0.0000 0.0000
# 4 0.0000 0.0000 0.0000 12.9366 0.0000 0.0000
# 5 0.0000 0.0000 0.0000 0.0000 32.6611 0.0000
# 6 0.0000 0.0000 0.0000 0.0000 0.0000 10.3457
#
#
#
# Elastic Compliance Matrix: (Units=1/GPa)
#
#
# Indices 1 2 3 4 5 6 
#
# 1 0.016603 0.001579 -0.008124 0.000000 0.000000 0.000000
# 2 0.001579 0.018342 -0.005302 0.000000 0.000000 0.000000
# 3 -0.008124 -0.005302 0.011460 0.000000 0.000000 0.000000
# 4 0.000000 0.000000 0.000000 0.077300 0.000000 0.000000
# 5 0.000000 0.000000 0.000000 0.000000 0.030617 0.000000
# 6 0.000000 0.000000 0.000000 0.000000 0.000000 0.096659
#
#
# Mechanical properties :
#
#
# Convention : Reuss Voigt Hill
#
# Bulk Modulus (GPa) = 44.03053 63.07753 53.55403
# Shear Modulus (GPa) = 17.71518 23.95167 20.83343
#
# Velocity S-wave (km/s) = 3.13816 3.64897 3.40316
# Velocity P-wave (km/s) = 6.13251 7.26765 6.72408
#
# Compressibility (1/GPa) = 0.02271151
#
# Stress axis : x y z
#
# Youngs Moduli (GPa) = 60.22853 54.52108 87.26347
#
# Poissons Ratio (x) = -0.08610 0.70894
# Poissons Ratio (y) = -0.09512 0.46264
# Poissons Ratio (z) = 0.48930 0.28905
#
# Static dielectric constant tensor:
#      x y z
#    x 3.458110 0.000000 0.000000 
#    y 0.000000 3.012190 0.000000 
#    z 0.000000 0.000000 3.627660 
# 
# 
# High freq. dielectric constant tensor:
#      x y z
#    x 1.706590 0.000000 0.000000 
#    y 0.000000 1.646550 0.000000 
#    z 0.000000 0.000000 1.696400 
# 
# From -- ./inp_files/59553.got.cif
#   From: 2010.03.12/outbox.cif.g09.slc.cpg/sg63_30_cif.got.tgz:59553.got - 2010.04.10 19:34:48.
