data_PCOD8259260
_publ_section_title
;
Structure prediction by ZEFSAII (Michael W. Deem and Ramdas Pophale) SiO2 
 PCOD8259260
Probable space group: C M C M
;
_chemical_formula_sum "Si O2"
_cell_formula_units_Z 96
_cell_length_a 18.133962
_cell_length_b 14.992836
_cell_length_c 18.920967
_cell_angle_alpha 90.000000
_cell_angle_beta 90.000000
_cell_angle_gamma 90.000000
_cell_volume 5144.223394
_symmetry_space_group_name_H-M "C M C M"
_symmetry_group_IT_number 63
_symmetry_cell_setting 'orthorhombic'
loop_
_space_group_symop_operation_xyz
x,y,z
-x,-y,1/2+z
x,-y,-z
-x,y,1/2-z
-x,-y,-z
x,y,1/2-z
-x,y,z
x,-y,1/2+z
1/2+x,1/2+y,z
1/2-x,1/2-y,1/2+z
1/2+x,1/2-y,-z
1/2-x,1/2+y,1/2-z
1/2-x,1/2-y,-z
1/2+x,1/2+y,1/2-z
1/2-x,1/2+y,z
1/2+x,1/2-y,1/2+z
loop_
_atom_site_type_symbol
_atom_site_label
_atom_site_fract_x
_atom_site_fract_y
_atom_site_fract_z
Si Si1 0.000000 0.804347 0.670651
Si Si2 0.286944 0.672450 0.832776
Si Si3 0.245720 0.376433 0.669326
Si Si4 0.417221 0.606118 0.574476
Si Si5 0.343592 0.046168 0.668527
Si Si6 0.000000 0.405790 0.170614
Si Si7 0.115126 0.094676 0.082593
O O1 0.926966 0.835449 0.631276
O O2 0.000000 0.843112 0.750000
O O3 0.000000 0.699423 0.671437
O O4 0.296048 0.654680 0.750000
O O5 0.273419 0.775619 0.850318
O O6 0.364702 0.648205 0.867154
O O7 0.220104 0.611260 0.863824
O O8 0.275774 0.382647 0.750000
O O9 0.175694 0.441717 0.660229
O O10 0.303385 0.414272 0.613221
O O11 0.500000 0.645841 0.581757
O O12 0.424146 0.500437 0.585450
O O13 0.383802 0.629898 0.497696
O O14 0.350634 0.075150 0.750000
O O15 0.424185 0.061096 0.632211
O O16 0.000000 0.445160 0.250000
#
# Coordination Sequence:
#
# PCOD8259260 Si02
#       7
#     8  16  16  16  16   8  16
#     4  11  20  31  55  87 110 139 187 243 293 334
#     4  10  21  37  58  86 114 146 191 234 277 339
#     4  10  20  35  57  86 114 147 193 234 277 341
#     4  11  22  39  56  79 119 155 187 234 285 349
#     4   9  17  33  54  79 114 145 176 231 285 328
#     4   9  18  32  53  81 111 142 179 232 293 331
#     4  11  20  36  57  81 113 151 188 234 290 341
#
# _framework density 18.661708000000001
#
# number of rings (size 3 to 8) (size 9 to 14) (size 15 to 20)
#    0.000    1.833    3.333    2.000    0.000    4.333 
#    1.500    0.000    0.000    0.000    0.000    2.333 
#    0.000    0.000    0.000    0.000    0.000    0.000 
#
# Total GULP energy -595101.894058 kJ/mol
# GULP energy per Si atom -12397.956126 kJ/mol
# Density = 1.861923 g / cm^3
# Si number density = 18.661708 Si / 1000 Ang^3
#
#
#
# Elastic Constant Matrix: (Units=GPa)
#
#
# Indices 1 2 3 4 5 6 
#
# 1 147.6635 42.2692 46.3920 0.0000 0.0000 0.0000
# 2 42.2692 92.2019 20.5212 0.0000 0.0000 0.0000
# 3 46.3920 20.5212 56.3903 0.0000 0.0000 0.0000
# 4 0.0000 0.0000 0.0000 13.4587 0.0000 0.0000
# 5 0.0000 0.0000 0.0000 0.0000 189.4565 0.0000
# 6 0.0000 0.0000 0.0000 0.0000 0.0000 8.2905
#
#
#
# Elastic Compliance Matrix: (Units=1/GPa)
#
#
# Indices 1 2 3 4 5 6 
#
# 1 0.009814 -0.002940 -0.007004 0.000000 0.000000 0.000000
# 2 -0.002940 0.012683 -0.002196 0.000000 0.000000 0.000000
# 3 -0.007004 -0.002196 0.024295 0.000000 0.000000 0.000000
# 4 0.000000 0.000000 0.000000 0.074301 0.000000 0.000000
# 5 0.000000 0.000000 0.000000 0.000000 0.005278 0.000000
# 6 0.000000 0.000000 0.000000 0.000000 0.000000 0.120620
#
#
# Mechanical properties :
#
#
# Convention : Reuss Voigt Hill
#
# Bulk Modulus (GPa) = 44.42410 57.18003 50.80206
# Shear Modulus (GPa) = 17.93547 54.71268 36.32408
#
# Velocity S-wave (km/s) = 3.10350 5.42050 4.41665
# Velocity P-wave (km/s) = 6.05796 8.35958 7.30005
#
# Compressibility (1/GPa) = 0.02251031
#
# Stress axis : x y z
#
# Youngs Moduli (GPa) = 101.89118 78.84816 41.16049
#
# Poissons Ratio (x) = 0.23185 0.28830
# Poissons Ratio (y) = 0.29960 0.09040
# Poissons Ratio (z) = 0.71367 0.17317
#
# Static dielectric constant tensor:
#      x y z
#    x 3.581330 0.000000 0.000000 
#    y 0.000000 3.351210 0.000000 
#    z 0.000000 0.000000 3.268370 
# 
# 
# High freq. dielectric constant tensor:
#      x y z
#    x 1.731920 0.000000 0.000000 
#    y 0.000000 1.719910 0.000000 
#    z 0.000000 0.000000 1.694540 
# 
# From -- ./inp_files/54263.got.cif
#   From: 2010.03.12/outbox.cif.g09.slc.cpg/sg63_28_cif.got.tgz:54263.got - 2010.04.10 19:34:48.
