data_PCOD8259437
_publ_section_title
;
Structure prediction by ZEFSAII (Michael W. Deem and Ramdas Pophale) SiO2 
 PCOD8259437
Probable space group: C M C M
;
_chemical_formula_sum "Si O2"
_cell_formula_units_Z 96
_cell_length_a 17.095676
_cell_length_b 13.441596
_cell_length_c 22.463341
_cell_angle_alpha 90.000000
_cell_angle_beta 90.000000
_cell_angle_gamma 90.000000
_cell_volume 5161.922340
_symmetry_space_group_name_H-M "C M C M"
_symmetry_group_IT_number 63
_symmetry_cell_setting 'orthorhombic'
loop_
_space_group_symop_operation_xyz
x,y,z
-x,-y,1/2+z
x,-y,-z
-x,y,1/2-z
-x,-y,-z
x,y,1/2-z
-x,y,z
x,-y,1/2+z
1/2+x,1/2+y,z
1/2-x,1/2-y,1/2+z
1/2+x,1/2-y,-z
1/2-x,1/2+y,1/2-z
1/2-x,1/2-y,-z
1/2+x,1/2+y,1/2-z
1/2-x,1/2+y,z
1/2+x,1/2-y,1/2+z
loop_
_atom_site_type_symbol
_atom_site_label
_atom_site_fract_x
_atom_site_fract_y
_atom_site_fract_z
Si Si1 0.862569 0.807387 0.389171
Si Si2 0.204449 0.019656 0.817044
Si Si3 0.138769 0.357220 0.315971
Si Si4 0.411190 0.615056 0.012469
Si Si5 0.500000 0.015224 0.678857
Si Si6 0.296105 0.317072 0.614380
Si Si7 0.000000 0.293445 0.820858
O O1 0.850340 0.916848 0.360794
O O2 0.903440 0.821232 0.452464
O O3 0.784817 0.740754 0.398475
O O4 0.920767 0.754860 0.343912
O O5 0.169084 0.009108 0.750000
O O6 0.283676 0.079498 0.812900
O O7 0.220814 0.911416 0.844031
O O8 0.111605 0.326388 0.250000
O O9 0.145405 0.256258 0.352153
O O10 0.074633 0.426950 0.346924
O O11 0.500000 0.630759 0.037572
O O12 0.342020 0.651294 0.055384
O O13 0.395797 0.500000 0.000000
O O14 0.500000 0.009935 0.750000
O O15 0.500000 0.904743 0.653416
O O16 0.000000 0.287366 0.750000
#
# Coordination Sequence:
#
# PCOD8259437 Si02
#       7
#    16  16  16  16   8  16   8
#     4  11  22  40  60  89 120 155 203 249 295 358
#     4  10  20  36  57  88 122 151 193 246 296 358
#     4   9  19  34  55  85 120 154 190 236 297 361
#     4  11  23  42  63  82 116 159 205 254 304 348
#     4   9  18  34  54  81 118 154 184 223 284 361
#     4  11  22  36  64  87 116 160 199 245 303 355
#     4  11  22  38  65  93 123 160 196 243 306 359
#
# _framework density 18.597722000000001
#
# number of rings (size 3 to 8) (size 9 to 14) (size 15 to 20)
#    0.000    1.667    2.500    2.500    1.167    3.333 
#    0.000    0.000    0.000    1.000    0.000    0.000 
#    0.000    0.000    0.000    0.000    0.000    0.000 
#
# Total GULP energy -595058.450734 kJ/mol
# GULP energy per Si atom -12397.051057 kJ/mol
# Density = 1.855539 g / cm^3
# Si number density = 18.597722 Si / 1000 Ang^3
#
#
#
# Elastic Constant Matrix: (Units=GPa)
#
#
# Indices 1 2 3 4 5 6 
#
# 1 70.3421 21.5153 25.0538 0.0000 0.0000 0.0000
# 2 21.5153 112.4406 29.7254 0.0000 0.0000 0.0000
# 3 25.0538 29.7254 87.2506 0.0000 0.0000 0.0000
# 4 0.0000 0.0000 0.0000 27.4437 0.0000 0.0000
# 5 0.0000 0.0000 0.0000 0.0000 60.1041 0.0000
# 6 0.0000 0.0000 0.0000 0.0000 0.0000 -17.2912
#
#
#
# Elastic Compliance Matrix: (Units=1/GPa)
#
#
# Indices 1 2 3 4 5 6 
#
# 1 0.016260 -0.002063 -0.003966 0.000000 0.000000 0.000000
# 2 -0.002063 0.010036 -0.002827 0.000000 0.000000 0.000000
# 3 -0.003966 -0.002827 0.013563 0.000000 0.000000 0.000000
# 4 0.000000 0.000000 0.000000 0.036438 0.000000 0.000000
# 5 0.000000 0.000000 0.000000 0.000000 0.016638 0.000000
# 6 0.000000 0.000000 0.000000 0.000000 0.000000 -0.057833
#
#
# Mechanical properties :
#
#
# Convention : Reuss Voigt Hill
#
# Bulk Modulus (GPa) = 45.15241 46.95802 46.05522
# Shear Modulus (GPa) = 83.06316 26.96727 55.01521
#
# Velocity S-wave (km/s) = 6.69029 3.81206 5.44481
# Velocity P-wave (km/s) = 9.16576 6.68430 8.02157
#
# Compressibility (1/GPa) = 0.02214721
#
# Stress axis : x y z
#
# Youngs Moduli (GPa) = 61.50135 99.64554 73.72924
#
# Poissons Ratio (x) = 0.20555 0.29242
# Poissons Ratio (y) = 0.12686 0.20841
# Poissons Ratio (z) = 0.24393 0.28167
#
# Static dielectric constant tensor:
#      x y z
#    x 3.427130 0.000000 0.000000 
#    y 0.000000 3.585980 0.000000 
#    z 0.000000 0.000000 3.477230 
# 
# 
# High freq. dielectric constant tensor:
#      x y z
#    x 1.725840 0.000000 0.000000 
#    y 0.000000 1.735390 0.000000 
#    z 0.000000 0.000000 1.712540 
# 
# From -- ./inp_files/63747.got.cif
#   From: 2010.03.12/outbox.cif.g09.slc.cpg/sg63_32_cif.got.tgz:63747.got - 2010.04.10 19:34:48.
