data_PCOD8259743
_publ_section_title
;
Structure prediction by ZEFSAII (Michael W. Deem and Ramdas Pophale) SiO2 
 PCOD8259743
Probable space group: C M C M
;
_chemical_formula_sum "Si O2"
_cell_formula_units_Z 112
_cell_length_a 14.390161
_cell_length_b 14.702260
_cell_length_c 27.117102
_cell_angle_alpha 90.000000
_cell_angle_beta 90.000000
_cell_angle_gamma 90.000000
_cell_volume 5737.108011
_symmetry_space_group_name_H-M "C M C M"
_symmetry_group_IT_number 63
_symmetry_cell_setting 'orthorhombic'
loop_
_space_group_symop_operation_xyz
x,y,z
-x,-y,1/2+z
x,-y,-z
-x,y,1/2-z
-x,-y,-z
x,y,1/2-z
-x,y,z
x,-y,1/2+z
1/2+x,1/2+y,z
1/2-x,1/2-y,1/2+z
1/2+x,1/2-y,-z
1/2-x,1/2+y,1/2-z
1/2-x,1/2-y,-z
1/2+x,1/2+y,1/2-z
1/2-x,1/2+y,z
1/2+x,1/2-y,1/2+z
loop_
_atom_site_type_symbol
_atom_site_label
_atom_site_fract_x
_atom_site_fract_y
_atom_site_fract_z
Si Si1 0.247091 0.036357 0.379762
Si Si2 0.893859 0.437738 0.957200
Si Si3 0.605676 0.584951 0.035822
Si Si4 0.500000 0.404918 0.308538
Si Si5 0.000000 0.886684 0.692022
Si Si6 0.198453 0.816476 0.808164
Si Si7 0.106985 0.770777 0.042171
Si Si8 0.315320 0.337924 0.143114
O O1 0.346235 0.040739 0.405686
O O2 0.167499 0.073308 0.416127
O O3 0.254242 0.099430 0.331680
O O4 0.230793 0.935080 0.362548
O O5 0.880975 0.333548 0.972778
O O6 0.000000 0.464996 0.949540
O O7 0.848554 0.500000 0.000000
O O8 0.500000 0.597728 0.054231
O O9 0.614838 0.500000 0.000000
O O10 0.641399 0.672246 0.005131
O O11 0.500000 0.404624 0.250000
O O12 0.500000 0.509258 0.329727
O O13 0.589153 0.349043 0.327103
O O14 0.909650 0.828837 0.675833
O O15 0.000000 0.900047 0.750000
O O16 0.211331 0.821527 0.750000
O O17 0.240604 0.722285 0.827530
O O18 0.167574 0.793066 0.090005
O O19 0.000000 0.796449 0.053904
#
# Coordination Sequence:
#
# PCOD8259743 Si02
#       8
#    16  16  16   8   8  16  16  16
#     4  12  24  38  66  96 123 171 216 271 323 391
#     4  10  23  43  62  83 123 173 219 261 313 389
#     4  10  21  34  58  97 136 160 195 258 329 394
#     4  11  22  38  68  99 128 166 219 276 332 389
#     4   9  20  42  68  90 126 170 210 270 332 384
#     4  11  25  44  65  95 132 170 216 273 333 390
#     4  10  20  38  61  91 127 163 201 257 322 386
#     4  12  23  38  64 100 129 167 216 270 327 395
#
# _framework density 19.522030000000001
#
# number of rings (size 3 to 8) (size 9 to 14) (size 15 to 20)
#    0.000    1.286    5.000    0.857    2.000    2.286 
#    1.286    0.000    0.000    0.000    0.000    0.000 
#    0.000    0.000    0.000    0.000    0.000    0.000 
#
# Total GULP energy -694566.802543 kJ/mol
# GULP energy per Si atom -12402.978617 kJ/mol
# Density = 1.947760 g / cm^3
# Si number density = 19.522030 Si / 1000 Ang^3
#
#
#
# Elastic Constant Matrix: (Units=GPa)
#
#
# Indices 1 2 3 4 5 6 
#
# 1 90.4882 54.2231 39.5788 0.0000 0.0000 0.0000
# 2 54.2231 130.1467 68.3741 0.0000 0.0000 0.0000
# 3 39.5788 68.3741 101.6892 0.0000 0.0000 0.0000
# 4 0.0000 0.0000 0.0000 38.3438 0.0000 0.0000
# 5 0.0000 0.0000 0.0000 0.0000 18.1674 0.0000
# 6 0.0000 0.0000 0.0000 0.0000 0.0000 -17.4709
#
#
#
# Elastic Compliance Matrix: (Units=1/GPa)
#
#
# Indices 1 2 3 4 5 6 
#
# 1 0.015145 -0.004968 -0.002554 0.000000 0.000000 0.000000
# 2 -0.004968 0.013510 -0.007150 0.000000 0.000000 0.000000
# 3 -0.002554 -0.007150 0.015636 0.000000 0.000000 0.000000
# 4 0.000000 0.000000 0.000000 0.026080 0.000000 0.000000
# 5 0.000000 0.000000 0.000000 0.000000 0.055044 0.000000
# 6 0.000000 0.000000 0.000000 0.000000 0.000000 -0.057238
#
#
# Mechanical properties :
#
#
# Convention : Reuss Voigt Hill
#
# Bulk Modulus (GPa) = 66.90830 71.85290 69.38060
# Shear Modulus (GPa) = 48.77863 18.48459 33.63161
#
# Velocity S-wave (km/s) = 5.00407 3.08044 4.15511
# Velocity P-wave (km/s) = 8.23014 7.03833 7.65746
#
# Compressibility (1/GPa) = 0.01494583
#
# Stress axis : x y z
#
# Youngs Moduli (GPa) = 66.02651 74.01954 63.95597
#
# Poissons Ratio (x) = 0.36774 0.16337
# Poissons Ratio (y) = 0.32803 0.45730
# Poissons Ratio (z) = 0.16865 0.52926
#
# Static dielectric constant tensor:
#      x y z
#    x 3.716510 0.000000 0.000000 
#    y 0.000000 3.668450 0.000000 
#    z 0.000000 0.000000 3.583960 
# 
# 
# High freq. dielectric constant tensor:
#      x y z
#    x 1.761290 0.000000 0.000000 
#    y 0.000000 1.766210 0.000000 
#    z 0.000000 0.000000 1.760080 
# 
# From -- ./inp_files/69456.got.cif
#   From: 2010.03.12/outbox.cif.g09.slc.cpg/sg63_35_cif.got.tgz:69456.got - 2010.04.10 19:34:48.
