data_PCOD8259381
_publ_section_title
;
Structure prediction by ZEFSAII (Michael W. Deem and Ramdas Pophale) SiO2 
 PCOD8259381
Probable space group: C M C M
;
_chemical_formula_sum "Si O2"
_cell_formula_units_Z 112
_cell_length_a 13.020401
_cell_length_b 14.142452
_cell_length_c 30.903201
_cell_angle_alpha 90.000000
_cell_angle_beta 90.000000
_cell_angle_gamma 90.000000
_cell_volume 5690.527675
_symmetry_space_group_name_H-M "C M C M"
_symmetry_group_IT_number 63
_symmetry_cell_setting 'orthorhombic'
loop_
_space_group_symop_operation_xyz
x,y,z
-x,-y,1/2+z
x,-y,-z
-x,y,1/2-z
-x,-y,-z
x,y,1/2-z
-x,y,z
x,-y,1/2+z
1/2+x,1/2+y,z
1/2-x,1/2-y,1/2+z
1/2+x,1/2-y,-z
1/2-x,1/2+y,1/2-z
1/2-x,1/2-y,-z
1/2+x,1/2+y,1/2-z
1/2-x,1/2+y,z
1/2+x,1/2-y,1/2+z
loop_
_atom_site_type_symbol
_atom_site_label
_atom_site_fract_x
_atom_site_fract_y
_atom_site_fract_z
Si Si1 0.618316 0.812391 0.200007
Si Si2 0.118505 0.145895 0.612522
Si Si3 0.681237 0.401013 0.483656
Si Si4 0.254890 0.180550 0.142868
Si Si5 0.299038 0.975432 0.144321
Si Si6 0.614807 0.306178 0.932920
Si Si7 0.613628 0.090227 0.558751
O O1 0.648267 0.819412 0.250000
O O2 0.500000 0.784548 0.193255
O O3 0.686614 0.730602 0.179018
O O4 0.638671 0.914188 0.178884
O O5 0.131691 0.132630 0.561102
O O6 0.155000 0.250840 0.626009
O O7 0.184710 0.067768 0.638113
O O8 0.000000 0.133660 0.625527
O O9 0.631978 0.500000 0.500000
O O10 0.659239 0.320966 0.519072
O O11 0.804049 0.416855 0.479695
O O12 0.185599 0.143874 0.102558
O O13 0.298439 0.082686 0.162334
O O14 0.357739 0.978084 0.098296
O O15 0.500000 0.347653 0.930054
O O16 0.617201 0.195566 0.921333
O O17 0.500000 0.066615 0.540529
#
# Coordination Sequence:
#
# PCOD8259381 Si02
#       7
#    16  16  16  16  16  16  16
#     4  10  21  40  66  93 121 150 186 235 289 351
#     4  10  22  39  55  80 116 155 198 242 292 342
#     4  11  22  36  52  77 114 153 201 255 296 342
#     4  11  22  38  62  88 117 154 193 243 287 350
#     4  10  21  38  61  86 119 150 191 238 292 349
#     4  11  20  34  58  79 109 157 200 242 291 342
#     4  10  20  36  56  78 111 153 196 247 296 342
#
# _framework density 19.681830000000001
#
# number of rings (size 3 to 8) (size 9 to 14) (size 15 to 20)
#    0.000    1.571    4.286    3.429    0.000    5.429 
#    0.000    0.000    0.000    6.857    0.000    0.000 
#    0.000    0.000    0.000    0.000    0.000    0.000 
#
# Total GULP energy -694482.085092 kJ/mol
# GULP energy per Si atom -12401.465805 kJ/mol
# Density = 1.963703 g / cm^3
# Si number density = 19.681830 Si / 1000 Ang^3
#
#
#
# Elastic Constant Matrix: (Units=GPa)
#
#
# Indices 1 2 3 4 5 6 
#
# 1 105.7309 19.9770 22.2489 0.0000 0.0000 0.0000
# 2 19.9770 119.1856 20.5253 0.0000 0.0000 0.0000
# 3 22.2489 20.5253 68.4908 0.0000 0.0000 0.0000
# 4 0.0000 0.0000 0.0000 12.5261 0.0000 0.0000
# 5 0.0000 0.0000 0.0000 0.0000 22.1879 0.0000
# 6 0.0000 0.0000 0.0000 0.0000 0.0000 12.3900
#
#
#
# Elastic Compliance Matrix: (Units=1/GPa)
#
#
# Indices 1 2 3 4 5 6 
#
# 1 0.010316 -0.001215 -0.002987 0.000000 0.000000 0.000000
# 2 -0.001215 0.008990 -0.002300 0.000000 0.000000 0.000000
# 3 -0.002987 -0.002300 0.016260 0.000000 0.000000 0.000000
# 4 0.000000 0.000000 0.000000 0.079834 0.000000 0.000000
# 5 0.000000 0.000000 0.000000 0.000000 0.045070 0.000000
# 6 0.000000 0.000000 0.000000 0.000000 0.000000 0.080711
#
#
# Mechanical properties :
#
#
# Convention : Reuss Voigt Hill
#
# Bulk Modulus (GPa) = 44.31973 46.54552 45.43263
# Shear Modulus (GPa) = 19.10561 24.79786 21.95173
#
# Velocity S-wave (km/s) = 3.11902 3.55341 3.34328
# Velocity P-wave (km/s) = 5.96138 6.36678 6.16741
#
# Compressibility (1/GPa) = 0.02256331
#
# Stress axis : x y z
#
# Youngs Moduli (GPa) = 96.93636 111.23621 61.50080
#
# Poissons Ratio (x) = 0.13512 0.18371
# Poissons Ratio (y) = 0.11775 0.14142
# Poissons Ratio (z) = 0.28956 0.25579
#
# Static dielectric constant tensor:
#      x y z
#    x 3.736660 0.000000 0.000000 
#    y 0.000000 3.497960 0.000000 
#    z 0.000000 0.000000 3.326950 
# 
# 
# High freq. dielectric constant tensor:
#      x y z
#    x 1.771370 0.000000 0.000000 
#    y 0.000000 1.765990 0.000000 
#    z 0.000000 0.000000 1.742210 
# 
# From -- ./inp_files/73547.got.cif
#   From: 2010.03.12/outbox.cif.g09.slc.cpg/sg63_37_cif.got.tgz:73547.got - 2010.04.10 19:34:48.
