data_PCOD8259129
_publ_section_title
;
Structure prediction by ZEFSAII (Michael W. Deem and Ramdas Pophale) SiO2 
 PCOD8259129
Probable space group: C M C M
;
_chemical_formula_sum "Si O2"
_cell_formula_units_Z 72
_cell_length_a 29.274125
_cell_length_b 14.257798
_cell_length_c 9.122698
_cell_angle_alpha 90.000000
_cell_angle_beta 90.000000
_cell_angle_gamma 90.000000
_cell_volume 3807.673299
_symmetry_space_group_name_H-M "C M C M"
_symmetry_group_IT_number 63
_symmetry_cell_setting 'orthorhombic'
loop_
_space_group_symop_operation_xyz
x,y,z
-x,-y,1/2+z
x,-y,-z
-x,y,1/2-z
-x,-y,-z
x,y,1/2-z
-x,y,z
x,-y,1/2+z
1/2+x,1/2+y,z
1/2-x,1/2-y,1/2+z
1/2+x,1/2-y,-z
1/2-x,1/2+y,1/2-z
1/2-x,1/2-y,-z
1/2+x,1/2+y,1/2-z
1/2-x,1/2+y,z
1/2+x,1/2-y,1/2+z
loop_
_atom_site_type_symbol
_atom_site_label
_atom_site_fract_x
_atom_site_fract_y
_atom_site_fract_z
Si Si1 0.187780 0.709128 0.920931
Si Si2 0.734872 0.401539 0.922539
Si Si3 0.000000 0.402072 0.424532
Si Si4 0.445942 0.588943 0.084022
Si Si5 0.915057 0.283168 0.423040
O O1 0.197611 0.689736 0.750000
O O2 0.197851 0.819234 0.955737
O O3 0.135773 0.684118 0.964457
O O4 0.217160 0.637170 0.016564
O O5 0.739430 0.420739 0.750000
O O6 0.721178 0.500000 0.000000
O O7 0.000000 0.500000 0.500000
O O8 0.954092 0.351844 0.483719
O O9 0.000000 0.411274 0.250000
O O10 0.429922 0.577049 0.250000
O O11 0.500000 0.598158 0.070624
O O12 0.423549 0.680215 0.010057
O O13 0.426273 0.500000 0.000000
O O14 0.921477 0.275043 0.250000
#
# Coordination Sequence:
#
# PCOD8259129 Si02
#       5
#    16  16   8  16  16
#     4   9  19  35  55  79 104 135 176 217 258 309
#     4  10  20  35  55  78 106 137 171 213 263 315
#     4  10  20  36  55  74 100 136 175 214 253 296
#     4   9  16  28  47  71  98 131 167 201 244 297
#     4   9  17  33  55  75 101 138 174 208 253 307
#
# _framework density 18.909185000000001
#
# number of rings (size 3 to 8) (size 9 to 14) (size 15 to 20)
#    0.000    2.667    1.111    0.667    0.000    2.667 
#    0.000    5.556    0.000    0.000    0.000    0.000 
#    0.000    0.000    0.000    0.000    0.000    0.000 
#
# Total GULP energy -446224.769307 kJ/mol
# GULP energy per Si atom -12395.132481 kJ/mol
# Density = 1.886615 g / cm^3
# Si number density = 18.909185 Si / 1000 Ang^3
#
#
#
# Elastic Constant Matrix: (Units=GPa)
#
#
# Indices 1 2 3 4 5 6 
#
# 1 114.3747 47.3012 28.8147 0.0000 0.0000 0.0000
# 2 47.3012 99.4175 28.6748 0.0000 0.0000 0.0000
# 3 28.8147 28.6748 51.9329 0.0000 0.0000 0.0000
# 4 0.0000 0.0000 0.0000 36.1517 0.0000 0.0000
# 5 0.0000 0.0000 0.0000 0.0000 18.2275 0.0000
# 6 0.0000 0.0000 0.0000 0.0000 0.0000 15.8944
#
#
#
# Elastic Compliance Matrix: (Units=1/GPa)
#
#
# Indices 1 2 3 4 5 6 
#
# 1 0.011548 -0.004337 -0.004013 0.000000 0.000000 0.000000
# 2 -0.004337 0.013593 -0.005099 0.000000 0.000000 0.000000
# 3 -0.004013 -0.005099 0.024297 0.000000 0.000000 0.000000
# 4 0.000000 0.000000 0.000000 0.027661 0.000000 0.000000
# 5 0.000000 0.000000 0.000000 0.000000 0.054862 0.000000
# 6 0.000000 0.000000 0.000000 0.000000 0.000000 0.062915
#
#
# Mechanical properties :
#
#
# Convention : Reuss Voigt Hill
#
# Bulk Modulus (GPa) = 44.36359 52.81182 48.58771
# Shear Modulus (GPa) = 21.80678 24.78370 23.29524
#
# Velocity S-wave (km/s) = 3.39962 3.62424 3.51373
# Velocity P-wave (km/s) = 6.23877 6.74562 6.49714
#
# Compressibility (1/GPa) = 0.02254101
#
# Stress axis : x y z
#
# Youngs Moduli (GPa) = 86.59777 73.56911 41.15674
#
# Poissons Ratio (x) = 0.31906 0.16514
# Poissons Ratio (y) = 0.37556 0.20986
# Poissons Ratio (z) = 0.34748 0.37512
#
# Static dielectric constant tensor:
#      x y z
#    x 3.505650 0.000000 0.000000 
#    y 0.000000 3.567090 0.000000 
#    z 0.000000 0.000000 3.248130 
# 
# 
# High freq. dielectric constant tensor:
#      x y z
#    x 1.731900 0.000000 0.000000 
#    y 0.000000 1.741350 0.000000 
#    z 0.000000 0.000000 1.706470 
# 
# From -- ./inp_files/11678.got.cif
#   From: 2010.03.12/outbox.cif.g09.slc.cpg/sg63_6_cif.got.tgz:11678.got - 2010.04.10 19:34:48.
