data_PCOD8259051
_publ_section_title
;
Structure prediction by ZEFSAII (Michael W. Deem and Ramdas Pophale) SiO2 
 PCOD8259051
Probable space group: C M C M
;
_chemical_formula_sum "Si O2"
_cell_formula_units_Z 104
_cell_length_a 31.103020
_cell_length_b 18.703513
_cell_length_c 9.122318
_cell_angle_alpha 90.000000
_cell_angle_beta 90.000000
_cell_angle_gamma 90.000000
_cell_volume 5306.778402
_symmetry_space_group_name_H-M "C M C M"
_symmetry_group_IT_number 63
_symmetry_cell_setting 'orthorhombic'
loop_
_space_group_symop_operation_xyz
x,y,z
-x,-y,1/2+z
x,-y,-z
-x,y,1/2-z
-x,-y,-z
x,y,1/2-z
-x,y,z
x,-y,1/2+z
1/2+x,1/2+y,z
1/2-x,1/2-y,1/2+z
1/2+x,1/2-y,-z
1/2-x,1/2+y,1/2-z
1/2-x,1/2-y,-z
1/2+x,1/2+y,1/2-z
1/2-x,1/2+y,z
1/2+x,1/2-y,1/2+z
loop_
_atom_site_type_symbol
_atom_site_label
_atom_site_fract_x
_atom_site_fract_y
_atom_site_fract_z
Si Si1 0.586705 0.346995 0.082164
Si Si2 0.000000 0.924783 0.423013
Si Si3 0.092480 0.318718 0.583494
Si Si4 0.173937 0.146294 0.078022
Si Si5 0.178172 0.689311 0.580705
Si Si6 0.050009 0.434931 0.089455
Si Si7 0.749509 0.072793 0.576778
O O1 0.597612 0.368127 0.250000
O O2 0.542838 0.383205 0.026436
O O3 0.579376 0.263007 0.068423
O O4 0.625800 0.370125 0.977726
O O5 0.000000 0.934908 0.250000
O O6 0.000000 0.000000 0.500000
O O7 0.092715 0.344739 0.750000
O O8 0.138858 0.336804 0.517323
O O9 0.056401 0.361308 0.495773
O O10 0.176360 0.129341 0.250000
O O11 0.188508 0.227835 0.043869
O O12 0.204500 0.092687 0.990529
O O13 0.165076 0.681902 0.750000
O O14 0.217987 0.638721 0.540421
O O15 0.071709 0.431057 0.250000
O O16 0.000000 0.449586 0.107018
O O17 0.071855 0.500000 0.000000
O O18 0.753679 0.060200 0.750000
O O19 0.732729 0.000000 0.500000
#
# Coordination Sequence:
#
# PCOD8259051 Si02
#       7
#    16   8  16  16  16  16  16
#     4   9  20  38  59  84 114 150 190 232 280 339
#     4  10  22  40  60  84 115 150 187 230 281 334
#     4  10  20  34  58  85 111 147 188 233 283 336
#     4  10  20  37  61  86 113 147 188 236 285 337
#     4   9  20  38  58  81 113 149 188 234 280 333
#     4  10  21  36  53  76 108 146 187 232 282 337
#     4  11  23  38  57  83 114 150 189 233 283 337
#
# _framework density 19.597577000000001
#
# number of rings (size 3 to 8) (size 9 to 14) (size 15 to 20)
#    0.000    2.154    0.000    2.308    1.077    5.231 
#    0.000    3.077    0.000    0.000    0.000    0.000 
#    0.000    0.000    0.000    0.000    0.000    0.000 
#
# Total GULP energy -644895.497526 kJ/mol
# GULP energy per Si atom -12401.836491 kJ/mol
# Density = 1.955297 g / cm^3
# Si number density = 19.597577 Si / 1000 Ang^3
#
#
#
# Elastic Constant Matrix: (Units=GPa)
#
#
# Indices 1 2 3 4 5 6 
#
# 1 99.2315 55.1985 50.2114 0.0000 0.0000 0.0000
# 2 55.1985 80.7224 49.6258 0.0000 0.0000 0.0000
# 3 50.2114 49.6258 114.0609 0.0000 0.0000 0.0000
# 4 0.0000 0.0000 0.0000 34.5747 0.0000 0.0000
# 5 0.0000 0.0000 0.0000 0.0000 33.0547 0.0000
# 6 0.0000 0.0000 0.0000 0.0000 0.0000 21.8276
#
#
#
# Elastic Compliance Matrix: (Units=1/GPa)
#
#
# Indices 1 2 3 4 5 6 
#
# 1 0.017148 -0.009672 -0.003341 0.000000 0.000000 0.000000
# 2 -0.009672 0.022367 -0.005474 0.000000 0.000000 0.000000
# 3 -0.003341 -0.005474 0.012619 0.000000 0.000000 0.000000
# 4 0.000000 0.000000 0.000000 0.028923 0.000000 0.000000
# 5 0.000000 0.000000 0.000000 0.000000 0.030253 0.000000
# 6 0.000000 0.000000 0.000000 0.000000 0.000000 0.045814
#
#
# Mechanical properties :
#
#
# Convention : Reuss Voigt Hill
#
# Bulk Modulus (GPa) = 65.95666 67.12069 66.53867
# Shear Modulus (GPa) = 25.10660 27.15666 26.13163
#
# Velocity S-wave (km/s) = 3.58314 3.72656 3.65555
# Velocity P-wave (km/s) = 7.13071 7.26912 7.20025
#
# Compressibility (1/GPa) = 0.01516147
#
# Stress axis : x y z
#
# Youngs Moduli (GPa) = 58.31547 44.70850 79.24348
#
# Poissons Ratio (x) = 0.43243 0.26472
# Poissons Ratio (y) = 0.56404 0.43375
# Poissons Ratio (z) = 0.19481 0.24472
#
# Static dielectric constant tensor:
#      x y z
#    x 3.446010 0.000000 0.000000 
#    y 0.000000 3.592830 0.000000 
#    z 0.000000 0.000000 3.762760 
# 
# 
# High freq. dielectric constant tensor:
#      x y z
#    x 1.755720 0.000000 0.000000 
#    y 0.000000 1.763990 0.000000 
#    z 0.000000 0.000000 1.773570 
# 
# From -- ./inp_files/12570.got.cif
#   From: 2010.03.12/outbox.cif.g09.slc.cpg/sg63_7_cif.got.tgz:12570.got - 2010.04.10 19:34:48.
