data_PCOD8259448
_publ_section_title
;
Structure prediction by ZEFSAII (Michael W. Deem and Ramdas Pophale) SiO2 
 PCOD8259448
Probable space group: C M C M
;
_chemical_formula_sum "Si O2"
_cell_formula_units_Z 64
_cell_length_a 8.709886
_cell_length_b 17.913754
_cell_length_c 20.732312
_cell_angle_alpha 90.000000
_cell_angle_beta 90.000000
_cell_angle_gamma 90.000000
_cell_volume 3234.795369
_symmetry_space_group_name_H-M "C M C M"
_symmetry_group_IT_number 63
_symmetry_cell_setting 'orthorhombic'
loop_
_space_group_symop_operation_xyz
x,y,z
-x,-y,1/2+z
x,-y,-z
-x,y,1/2-z
-x,-y,-z
x,y,1/2-z
-x,y,z
x,-y,1/2+z
1/2+x,1/2+y,z
1/2-x,1/2-y,1/2+z
1/2+x,1/2-y,-z
1/2-x,1/2+y,1/2-z
1/2-x,1/2-y,-z
1/2+x,1/2+y,1/2-z
1/2-x,1/2+y,z
1/2+x,1/2-y,1/2+z
loop_
_atom_site_type_symbol
_atom_site_label
_atom_site_fract_x
_atom_site_fract_y
_atom_site_fract_z
Si Si1 0.821950 0.587660 0.505032
Si Si2 0.318636 0.917494 0.250000
Si Si3 0.817860 0.331278 0.876515
Si Si4 0.180426 0.161918 0.627322
Si Si5 0.683338 0.913801 0.750000
O O1 0.796798 0.500000 0.500000
O O2 0.759305 0.625631 0.439820
O O3 0.719822 0.617936 0.562814
O O4 0.000000 0.607199 0.517763
O O5 0.500000 0.919134 0.250000
O O6 0.263012 0.875742 0.313049
O O7 0.253958 0.001800 0.250000
O O8 0.758376 0.246511 0.878692
O O9 0.751060 0.371939 0.813120
O O10 0.000000 0.334145 0.874409
O O11 0.000000 0.160233 0.639793
O O12 0.500000 0.912463 0.750000
#
# Coordination Sequence:
#
# PCOD8259448 Si02
#       5
#    16   8  16  16   8
#     4  10  20  36  58  82 109 145 189 230 267 318
#     4  11  22  37  59  83 108 143 186 228 268 321
#     4   9  18  33  55  82 110 142 180 222 273 327
#     4  11  22  36  56  82 113 145 177 223 280 331
#     4   9  17  33  57  81 104 137 184 230 268 315
#
# _framework density 19.784867999999999
#
# number of rings (size 3 to 8) (size 9 to 14) (size 15 to 20)
#    0.000    2.000    0.000    4.125    0.000    6.500 
#    0.000    1.250    0.000   12.000    0.000    0.000 
#    0.000    0.000    0.000    0.000    0.000    0.000 
#
# Total GULP energy -396907.935464 kJ/mol
# GULP energy per Si atom -12403.372983 kJ/mol
# Density = 1.973984 g / cm^3
# Si number density = 19.784868 Si / 1000 Ang^3
#
#
#
# Elastic Constant Matrix: (Units=GPa)
#
#
# Indices 1 2 3 4 5 6 
#
# 1 34.9261 29.0842 21.8702 0.0000 0.0000 0.0000
# 2 29.0842 152.3425 72.7640 0.0000 0.0000 0.0000
# 3 21.8702 72.7640 173.7410 0.0000 0.0000 0.0000
# 4 0.0000 0.0000 0.0000 45.8640 0.0000 0.0000
# 5 0.0000 0.0000 0.0000 0.0000 275.2953 0.0000
# 6 0.0000 0.0000 0.0000 0.0000 0.0000 24.6888
#
#
#
# Elastic Compliance Matrix: (Units=1/GPa)
#
#
# Indices 1 2 3 4 5 6 
#
# 1 0.034583 -0.005654 -0.001985 0.000000 0.000000 0.000000
# 2 -0.005654 0.009130 -0.003112 0.000000 0.000000 0.000000
# 3 -0.001985 -0.003112 0.007309 0.000000 0.000000 0.000000
# 4 0.000000 0.000000 0.000000 0.021804 0.000000 0.000000
# 5 0.000000 0.000000 0.000000 0.000000 0.003632 0.000000
# 6 0.000000 0.000000 0.000000 0.000000 0.000000 0.040504
#
#
# Mechanical properties :
#
#
# Convention : Reuss Voigt Hill
#
# Bulk Modulus (GPa) = 33.87595 67.60516 50.74055
# Shear Modulus (GPa) = 33.71422 84.98903 59.35163
#
# Velocity S-wave (km/s) = 4.13248 6.56124 5.48303
# Velocity P-wave (km/s) = 6.31895 9.57309 8.11090
#
# Compressibility (1/GPa) = 0.02951947
#
# Stress axis : x y z
#
# Youngs Moduli (GPa) = 28.91557 109.52902 136.81922
#
# Poissons Ratio (x) = 0.61930 0.27162
# Poissons Ratio (y) = 0.16349 0.42578
# Poissons Ratio (z) = 0.05741 0.34085
#
# Static dielectric constant tensor:
#      x y z
#    x 3.217430 0.000000 0.000000 
#    y 0.000000 3.899390 0.000000 
#    z 0.000000 0.000000 3.589750 
# 
# 
# High freq. dielectric constant tensor:
#      x y z
#    x 1.731630 0.000000 0.000000 
#    y 0.000000 1.792230 0.000000 
#    z 0.000000 0.000000 1.792100 
# 
# From -- ./inp_files/50363.got.cif
#   From: 2010.03.12/outbox.cif.g09.slc.cpg/sg63_26_cif.got.tgz:50363.got - 2010.04.10 19:34:48.
