data_PCOD8259617
_publ_section_title
;
Structure prediction by ZEFSAII (Michael W. Deem and Ramdas Pophale) SiO2 
 PCOD8259617
Probable space group: C M C M
;
_chemical_formula_sum "Si O2"
_cell_formula_units_Z 96
_cell_length_a 8.839224
_cell_length_b 22.883040
_cell_length_c 23.613634
_cell_angle_alpha 90.000000
_cell_angle_beta 90.000000
_cell_angle_gamma 90.000000
_cell_volume 4776.289992
_symmetry_space_group_name_H-M "C M C M"
_symmetry_group_IT_number 63
_symmetry_cell_setting 'orthorhombic'
loop_
_space_group_symop_operation_xyz
x,y,z
-x,-y,1/2+z
x,-y,-z
-x,y,1/2-z
-x,-y,-z
x,y,1/2-z
-x,y,z
x,-y,1/2+z
1/2+x,1/2+y,z
1/2-x,1/2-y,1/2+z
1/2+x,1/2-y,-z
1/2-x,1/2+y,1/2-z
1/2-x,1/2-y,-z
1/2+x,1/2+y,1/2-z
1/2-x,1/2+y,z
1/2+x,1/2-y,1/2+z
loop_
_atom_site_type_symbol
_atom_site_label
_atom_site_fract_x
_atom_site_fract_y
_atom_site_fract_z
Si Si1 0.320277 0.146251 0.750000
Si Si2 0.678608 0.214199 0.860692
Si Si3 0.333302 0.956318 0.449276
Si Si4 0.823796 0.159071 0.529797
Si Si5 0.170133 0.979093 0.250000
Si Si6 0.679018 0.335119 0.903105
Si Si7 0.175237 0.038823 0.365722
O O1 0.500000 0.149842 0.750000
O O2 0.254826 0.179550 0.693890
O O3 0.274681 0.078384 0.750000
O O4 0.500000 0.209103 0.858970
O O5 0.732511 0.189013 0.920188
O O6 0.729302 0.282579 0.860961
O O7 0.500000 0.928857 0.435869
O O8 0.207768 0.909530 0.466213
O O9 0.350094 0.000000 0.500000
O O10 0.275579 0.990104 0.395001
O O11 0.764791 0.178918 0.467436
O O12 0.000000 0.171997 0.538134
O O13 0.000000 0.954072 0.250000
O O14 0.198480 0.023800 0.300634
O O15 0.500000 0.340014 0.905313
O O16 0.742276 0.396568 0.879232
O O17 0.000000 0.034377 0.384663
#
# Coordination Sequence:
#
# PCOD8259617 Si02
#       7
#     8  16  16  16   8  16  16
#     4  10  22  39  59  79 107 146 189 232 277 328
#     4  10  21  38  58  82 111 148 189 232 276 328
#     4  11  22  35  54  82 113 147 186 231 279 332
#     4  11  21  35  57  85 114 149 185 229 283 336
#     4  10  22  37  59  85 111 144 187 234 279 330
#     4   9  19  35  57  83 114 146 184 228 278 333
#     4  10  20  37  58  84 115 149 186 230 281 336
#
# _framework density 20.099281999999999
#
# number of rings (size 3 to 8) (size 9 to 14) (size 15 to 20)
#    0.000    1.833    1.667    2.500    0.000    5.333 
#    0.000    5.000    0.000    0.000    0.000    3.500 
#    0.000    0.000    0.000    0.000    0.000    0.000 
#
# Total GULP energy -594948.111331 kJ/mol
# GULP energy per Si atom -12394.752319 kJ/mol
# Density = 2.005354 g / cm^3
# Si number density = 20.099282 Si / 1000 Ang^3
#
#
#
# Elastic Constant Matrix: (Units=GPa)
#
#
# Indices 1 2 3 4 5 6 
#
# 1 23.5658 3.7600 16.8586 0.0000 0.0000 0.0000
# 2 3.7600 88.6721 42.4654 0.0000 0.0000 0.0000
# 3 16.8586 42.4654 125.5966 0.0000 0.0000 0.0000
# 4 0.0000 0.0000 0.0000 28.6625 0.0000 0.0000
# 5 0.0000 0.0000 0.0000 0.0000 26.6674 0.0000
# 6 0.0000 0.0000 0.0000 0.0000 0.0000 27.9914
#
#
#
# Elastic Compliance Matrix: (Units=1/GPa)
#
#
# Indices 1 2 3 4 5 6 
#
# 1 0.047054 0.001228 -0.006731 0.000000 0.000000 0.000000
# 2 0.001228 0.013488 -0.004725 0.000000 0.000000 0.000000
# 3 -0.006731 -0.004725 0.010463 0.000000 0.000000 0.000000
# 4 0.000000 0.000000 0.000000 0.034889 0.000000 0.000000
# 5 0.000000 0.000000 0.000000 0.000000 0.037499 0.000000
# 6 0.000000 0.000000 0.000000 0.000000 0.000000 0.035725
#
#
# Mechanical properties :
#
#
# Convention : Reuss Voigt Hill
#
# Bulk Modulus (GPa) = 19.78285 40.44475 30.11380
# Shear Modulus (GPa) = 23.10270 28.31429 25.70849
#
# Velocity S-wave (km/s) = 3.39400 3.75737 3.58030
# Velocity P-wave (km/s) = 5.02224 6.24419 5.66625
#
# Compressibility (1/GPa) = 0.05054883
#
# Stress axis : x y z
#
# Youngs Moduli (GPa) = 21.25224 74.13747 95.57262
#
# Poissons Ratio (x) = -0.09107 0.64333
# Poissons Ratio (y) = -0.02611 0.45162
# Poissons Ratio (z) = 0.14305 0.35033
#
# Static dielectric constant tensor:
#      x y z
#    x 3.592170 0.000000 0.000000 
#    y 0.000000 3.806060 0.000000 
#    z 0.000000 0.000000 3.849070 
# 
# 
# High freq. dielectric constant tensor:
#      x y z
#    x 1.758300 0.000000 0.000000 
#    y 0.000000 1.794840 0.000000 
#    z 0.000000 0.000000 1.791300 
# 
# From -- ./inp_files/60016.got.cif
#   From: 2010.03.12/outbox.cif.g09.slc.cpg/sg63_31_cif.got.tgz:60016.got - 2010.04.10 19:34:48.
