data_PCOD8259220
_publ_section_title
;
Structure prediction by ZEFSAII (Michael W. Deem and Ramdas Pophale) SiO2 
 PCOD8259220
Probable space group: C M C M
;
_chemical_formula_sum "Si O2"
_cell_formula_units_Z 64
_cell_length_a 8.877412
_cell_length_b 15.101933
_cell_length_c 24.589872
_cell_angle_alpha 90.000000
_cell_angle_beta 90.000000
_cell_angle_gamma 90.000000
_cell_volume 3296.667777
_symmetry_space_group_name_H-M "C M C M"
_symmetry_group_IT_number 63
_symmetry_cell_setting 'orthorhombic'
loop_
_space_group_symop_operation_xyz
x,y,z
-x,-y,1/2+z
x,-y,-z
-x,y,1/2-z
-x,-y,-z
x,y,1/2-z
-x,y,z
x,-y,1/2+z
1/2+x,1/2+y,z
1/2-x,1/2-y,1/2+z
1/2+x,1/2-y,-z
1/2-x,1/2+y,1/2-z
1/2-x,1/2-y,-z
1/2+x,1/2+y,1/2-z
1/2-x,1/2+y,z
1/2+x,1/2-y,1/2+z
loop_
_atom_site_type_symbol
_atom_site_label
_atom_site_fract_x
_atom_site_fract_y
_atom_site_fract_z
Si Si1 0.336471 0.099941 0.250000
Si Si2 0.819184 0.413332 0.633853
Si Si3 0.321991 0.398807 0.139527
Si Si4 0.676816 0.755385 0.558302
Si Si5 0.166525 0.390646 0.250000
O O1 0.500000 0.146207 0.250000
O O2 0.256132 0.123979 0.307362
O O3 0.352591 0.994851 0.250000
O O4 0.748011 0.508123 0.620667
O O5 0.767215 0.344916 0.587884
O O6 0.000000 0.423321 0.637497
O O7 0.500000 0.408917 0.145678
O O8 0.275309 0.329407 0.093269
O O9 0.257298 0.361536 0.196323
O O10 0.500000 0.758954 0.550650
O O11 0.750000 0.750000 0.500000
O O12 0.000000 0.346412 0.250000
#
# Coordination Sequence:
#
# PCOD8259220 Si02
#       5
#     8  16  16  16   8
#     4   7  12  26  51  77 100 126 166 211 251 307
#     4   9  18  35  57  80 106 143 181 216 268 334
#     4  10  20  35  56  84 112 139 175 227 278 317
#     4  10  23  39  55  77 108 146 189 230 271 319
#     4   9  17  32  55  83 112 144 176 211 263 333
#
# _framework density 19.413543000000001
#
# number of rings (size 3 to 8) (size 9 to 14) (size 15 to 20)
#    0.000    2.750    0.000    2.625    0.000    5.000 
#    0.000    8.750    0.000    0.000    0.000    0.000 
#    0.000    0.000    0.000    0.000    0.000    0.000 
#
# Total GULP energy -396571.119044 kJ/mol
# GULP energy per Si atom -12392.847470 kJ/mol
# Density = 1.936936 g / cm^3
# Si number density = 19.413543 Si / 1000 Ang^3
#
#
#
# Elastic Constant Matrix: (Units=GPa)
#
#
# Indices 1 2 3 4 5 6 
#
# 1 63.0625 46.7086 55.7995 0.0000 0.0000 0.0000
# 2 46.7086 116.8023 92.7393 0.0000 0.0000 0.0000
# 3 55.7995 92.7393 202.6881 0.0000 0.0000 0.0000
# 4 0.0000 0.0000 0.0000 5.8159 0.0000 0.0000
# 5 0.0000 0.0000 0.0000 0.0000 35.3399 0.0000
# 6 0.0000 0.0000 0.0000 0.0000 0.0000 25.5492
#
#
#
# Elastic Compliance Matrix: (Units=1/GPa)
#
#
# Indices 1 2 3 4 5 6 
#
# 1 0.023998 -0.006834 -0.003480 0.000000 0.000000 0.000000
# 2 -0.006834 0.015392 -0.005161 0.000000 0.000000 0.000000
# 3 -0.003480 -0.005161 0.008253 0.000000 0.000000 0.000000
# 4 0.000000 0.000000 0.000000 0.171942 0.000000 0.000000
# 5 0.000000 0.000000 0.000000 0.000000 0.028297 0.000000
# 6 0.000000 0.000000 0.000000 0.000000 0.000000 0.039140
#
#
# Mechanical properties :
#
#
# Convention : Reuss Voigt Hill
#
# Bulk Modulus (GPa) = 59.90316 85.89417 72.89867
# Shear Modulus (GPa) = 15.45421 25.82805 20.64113
#
# Velocity S-wave (km/s) = 2.82450 3.65144 3.26426
# Velocity P-wave (km/s) = 6.44674 7.88149 7.19994
#
# Compressibility (1/GPa) = 0.01669361
#
# Stress axis : x y z
#
# Youngs Moduli (GPa) = 41.67040 64.96756 121.16438
#
# Poissons Ratio (x) = 0.44397 0.42163
# Poissons Ratio (y) = 0.28476 0.62538
# Poissons Ratio (z) = 0.14501 0.33532
#
# Static dielectric constant tensor:
#      x y z
#    x 3.399040 0.000000 0.000000 
#    y 0.000000 3.446960 0.000000 
#    z 0.000000 0.000000 4.023260 
# 
# 
# High freq. dielectric constant tensor:
#      x y z
#    x 1.738510 0.000000 0.000000 
#    y 0.000000 1.746550 0.000000 
#    z 0.000000 0.000000 1.766140 
# 
# From -- ./inp_files/59099.got.cif
#   From: 2010.03.12/outbox.cif.g09.slc.cpg/sg63_30_cif.got.tgz:59099.got - 2010.04.10 19:34:48.
