data_PCOD8259481
_publ_section_title
;
Structure prediction by ZEFSAII (Michael W. Deem and Ramdas Pophale) SiO2 
 PCOD8259481
Probable space group: C M C M
;
_chemical_formula_sum "Si O2"
_cell_formula_units_Z 88
_cell_length_a 23.889578
_cell_length_b 20.224751
_cell_length_c 8.939840
_cell_angle_alpha 90.000000
_cell_angle_beta 90.000000
_cell_angle_gamma 90.000000
_cell_volume 4319.379947
_symmetry_space_group_name_H-M "C M C M"
_symmetry_group_IT_number 63
_symmetry_cell_setting 'orthorhombic'
loop_
_space_group_symop_operation_xyz
x,y,z
-x,-y,1/2+z
x,-y,-z
-x,y,1/2-z
-x,-y,-z
x,y,1/2-z
-x,y,z
x,-y,1/2+z
1/2+x,1/2+y,z
1/2-x,1/2-y,1/2+z
1/2+x,1/2-y,-z
1/2-x,1/2+y,1/2-z
1/2-x,1/2-y,-z
1/2+x,1/2+y,1/2-z
1/2-x,1/2+y,z
1/2+x,1/2-y,1/2+z
loop_
_atom_site_type_symbol
_atom_site_label
_atom_site_fract_x
_atom_site_fract_y
_atom_site_fract_z
Si Si1 0.937457 0.312432 0.081687
Si Si2 0.213985 0.807603 0.571606
Si Si3 0.592488 0.319180 0.427653
Si Si4 0.000000 0.073177 0.926084
Si Si5 0.263486 0.939921 0.587730
Si Si6 0.894343 0.436700 0.915953
O O1 0.914740 0.298121 0.250000
O O2 0.000000 0.340512 0.089039
O O3 0.938814 0.246395 0.983006
O O4 0.900338 0.369083 0.006940
O O5 0.212544 0.798335 0.750000
O O6 0.250000 0.750000 0.500000
O O7 0.151895 0.817142 0.509308
O O8 0.248129 0.870874 0.513192
O O9 0.600572 0.315705 0.250000
O O10 0.555349 0.383929 0.471948
O O11 0.000000 0.061518 0.750000
O O12 0.000000 0.000000 0.000000
O O13 0.235198 0.941395 0.750000
O O14 0.329185 0.950092 0.599973
O O15 0.235131 0.000000 0.500000
O O16 0.921288 0.430188 0.750000
O O17 0.921918 0.500000 0.000000
#
# Coordination Sequence:
#
# PCOD8259481 Si02
#       6
#    16  16  16   8  16  16
#     4  11  23  38  59  86 115 152 198 249 304 361
#     4  11  23  39  61  93 127 163 206 257 313 377
#     4  11  23  42  64  90 123 163 208 258 318 382
#     4  10  24  44  68  94 125 166 215 270 332 392
#     4   9  20  37  57  82 114 151 193 237 290 351
#     4  10  20  36  58  84 117 158 200 246 296 353
#
# _framework density 20.373293
#
# number of rings (size 3 to 8) (size 9 to 14) (size 15 to 20)
#    0.000    1.636    0.909    3.273    0.000    7.273 
#    0.000    3.636    0.000    0.000    0.000    0.000 
#    0.000    0.000    0.000    0.000    0.000    0.000 
#
# Total GULP energy -545328.568261 kJ/mol
# GULP energy per Si atom -12393.831097 kJ/mol
# Density = 2.032692 g / cm^3
# Si number density = 20.373293 Si / 1000 Ang^3
#
#
#
# Elastic Constant Matrix: (Units=GPa)
#
#
# Indices 1 2 3 4 5 6 
#
# 1 79.0043 46.1637 43.7766 0.0000 0.0000 0.0000
# 2 46.1637 188.4142 72.9740 0.0000 0.0000 0.0000
# 3 43.7766 72.9740 118.4253 0.0000 0.0000 0.0000
# 4 0.0000 0.0000 0.0000 40.0705 0.0000 0.0000
# 5 0.0000 0.0000 0.0000 0.0000 23.9513 0.0000
# 6 0.0000 0.0000 0.0000 0.0000 0.0000 33.7758
#
#
#
# Elastic Compliance Matrix: (Units=1/GPa)
#
#
# Indices 1 2 3 4 5 6 
#
# 1 0.016596 -0.002220 -0.004767 0.000000 0.000000 0.000000
# 2 -0.002220 0.007268 -0.003658 0.000000 0.000000 0.000000
# 3 -0.004767 -0.003658 0.012460 0.000000 0.000000 0.000000
# 4 0.000000 0.000000 0.000000 0.024956 0.000000 0.000000
# 5 0.000000 0.000000 0.000000 0.000000 0.041751 0.000000
# 6 0.000000 0.000000 0.000000 0.000000 0.000000 0.029607
#
#
# Mechanical properties :
#
#
# Convention : Reuss Voigt Hill
#
# Bulk Modulus (GPa) = 66.51245 79.07472 72.79358
# Shear Modulus (GPa) = 31.45835 34.42148 32.93992
#
# Velocity S-wave (km/s) = 3.93376 4.11486 4.02533
# Velocity P-wave (km/s) = 7.30414 7.84049 7.57706
#
# Compressibility (1/GPa) = 0.01503478
#
# Stress axis : x y z
#
# Youngs Moduli (GPa) = 60.25520 137.58639 80.25465
#
# Poissons Ratio (x) = 0.30544 0.38256
# Poissons Ratio (y) = 0.13377 0.29357
# Poissons Ratio (z) = 0.28723 0.50329
#
# Static dielectric constant tensor:
#      x y z
#    x 3.552030 0.000000 0.000000 
#    y 0.000000 3.811580 0.000000 
#    z 0.000000 0.000000 4.106000 
# 
# 
# High freq. dielectric constant tensor:
#      x y z
#    x 1.785570 0.000000 0.000000 
#    y 0.000000 1.808370 0.000000 
#    z 0.000000 0.000000 1.807490 
# 
# From -- ./inp_files/10194.got.cif
#   From: 2010.03.12/outbox.cif.g09.slc.cpg/sg63_6_cif.got.tgz:10194.got - 2010.04.10 19:34:48.
