data_PCOD8259845
_publ_section_title
;
Structure prediction by ZEFSAII (Michael W. Deem and Ramdas Pophale) SiO2 
 PCOD8259845
Probable space group: C M C M
;
_chemical_formula_sum "Si O2"
_cell_formula_units_Z 88
_cell_length_a 21.375592
_cell_length_b 21.977635
_cell_length_c 9.655320
_cell_angle_alpha 90.000000
_cell_angle_beta 90.000000
_cell_angle_gamma 90.000000
_cell_volume 4535.924109
_symmetry_space_group_name_H-M "C M C M"
_symmetry_group_IT_number 63
_symmetry_cell_setting 'orthorhombic'
loop_
_space_group_symop_operation_xyz
x,y,z
-x,-y,1/2+z
x,-y,-z
-x,y,1/2-z
-x,-y,-z
x,y,1/2-z
-x,y,z
x,-y,1/2+z
1/2+x,1/2+y,z
1/2-x,1/2-y,1/2+z
1/2+x,1/2-y,-z
1/2-x,1/2+y,1/2-z
1/2-x,1/2-y,-z
1/2+x,1/2+y,1/2-z
1/2-x,1/2+y,z
1/2+x,1/2-y,1/2+z
loop_
_atom_site_type_symbol
_atom_site_label
_atom_site_fract_x
_atom_site_fract_y
_atom_site_fract_z
Si Si1 0.312358 0.746416 0.090825
Si Si2 0.072547 0.098347 0.750000
Si Si3 0.426600 0.455547 0.750000
Si Si4 0.500000 0.936257 0.418292
Si Si5 0.616224 0.859625 0.096031
Si Si6 0.142783 0.116852 0.483243
Si Si7 0.734153 0.945092 0.406285
O O1 0.295378 0.764077 0.250000
O O2 0.364478 0.794126 0.030330
O O3 0.250000 0.750000 0.000000
O O4 0.342292 0.679948 0.091240
O O5 0.102227 0.131038 0.618011
O O6 0.000000 0.111936 0.750000
O O7 0.087781 0.026854 0.750000
O O8 0.500000 0.441899 0.750000
O O9 0.396807 0.427188 0.613862
O O10 0.500000 0.947681 0.250000
O O11 0.440093 0.897511 0.474171
O O12 0.500000 0.000000 0.500000
O O13 0.591656 0.847044 0.250000
O O14 0.679552 0.897009 0.095477
O O15 0.206071 0.083461 0.522103
O O16 0.750153 0.966872 0.250000
O O17 0.710100 0.000000 0.500000
#
# Coordination Sequence:
#
# PCOD8259845 Si02
#       7
#    16   8   8   8  16  16  16
#     4  11  23  42  64  89 126 163 209 261 314 376
#     4  11  24  42  63  86 128 171 202 253 321 379
#     4  11  24  44  63  92 124 161 214 263 311 369
#     4  10  20  40  68  92 126 164 203 251 310 372
#     4   9  20  39  61  90 120 163 202 248 315 366
#     4  12  23  39  62  92 121 162 213 257 313 373
#     4  11  22  36  59  89 122 154 203 261 313 373
#
# _framework density 19.400677999999999
#
# number of rings (size 3 to 8) (size 9 to 14) (size 15 to 20)
#    0.000    1.273    3.636    2.727    2.545    1.455 
#    3.273    0.909    0.000    0.000    0.000    0.000 
#    0.000    0.000    0.000    0.000    0.000    0.000 
#
# Total GULP energy -545516.297531 kJ/mol
# GULP energy per Si atom -12398.097671 kJ/mol
# Density = 1.935652 g / cm^3
# Si number density = 19.400678 Si / 1000 Ang^3
#
#
#
# Elastic Constant Matrix: (Units=GPa)
#
#
# Indices 1 2 3 4 5 6 
#
# 1 97.6049 4.8298 30.7046 0.0000 0.0000 0.0000
# 2 4.8298 39.6809 23.3806 0.0000 0.0000 0.0000
# 3 30.7046 23.3806 87.4152 0.0000 0.0000 0.0000
# 4 0.0000 0.0000 0.0000 29.3242 0.0000 0.0000
# 5 0.0000 0.0000 0.0000 0.0000 38.0279 0.0000
# 6 0.0000 0.0000 0.0000 0.0000 0.0000 -166.1719
#
#
#
# Elastic Compliance Matrix: (Units=1/GPa)
#
#
# Indices 1 2 3 4 5 6 
#
# 1 0.011564 0.001170 -0.004375 0.000000 0.000000 0.000000
# 2 0.001170 0.030034 -0.008444 0.000000 0.000000 0.000000
# 3 -0.004375 -0.008444 0.015235 0.000000 0.000000 0.000000
# 4 0.000000 0.000000 0.000000 0.034102 0.000000 0.000000
# 5 0.000000 0.000000 0.000000 0.000000 0.026297 0.000000
# 6 0.000000 0.000000 0.000000 0.000000 0.000000 -0.006018
#
#
# Mechanical properties :
#
#
# Convention : Reuss Voigt Hill
#
# Bulk Modulus (GPa) = 29.81943 38.05900 33.93922
# Shear Modulus (GPa) = 34.31983 -8.71156 12.80413
#
# Velocity S-wave (km/s) = 4.21051 -2.12134 2.57180
# Velocity P-wave (km/s) = 6.24832 3.69592 5.13329
#
# Compressibility (1/GPa) = 0.03353518
#
# Stress axis : x y z
#
# Youngs Moduli (GPa) = 86.47763 33.29557 65.63921
#
# Poissons Ratio (x) = -0.03896 0.28715
# Poissons Ratio (y) = -0.10119 0.55426
# Poissons Ratio (z) = 0.37832 0.28115
#
# Static dielectric constant tensor:
#      x y z
#    x 3.699900 0.000000 0.000000 
#    y 0.000000 3.669540 0.000000 
#    z 0.000000 0.000000 3.553600 
# 
# 
# High freq. dielectric constant tensor:
#      x y z
#    x 1.764840 0.000000 0.000000 
#    y 0.000000 1.761930 0.000000 
#    z 0.000000 0.000000 1.745510 
# 
# From -- ./inp_files/10260.got.cif
#   From: 2010.03.12/outbox.cif.g09.slc.cpg/sg63_6_cif.got.tgz:10260.got - 2010.04.10 19:34:48.
