data_PCOD8259741
_publ_section_title
;
Structure prediction by ZEFSAII (Michael W. Deem and Ramdas Pophale) SiO2 
 PCOD8259741
Probable space group: C M C M
;
_chemical_formula_sum "Si O2"
_cell_formula_units_Z 80
_cell_length_a 8.680341
_cell_length_b 23.018636
_cell_length_c 20.492654
_cell_angle_alpha 90.000000
_cell_angle_beta 90.000000
_cell_angle_gamma 90.000000
_cell_volume 4094.629200
_symmetry_space_group_name_H-M "C M C M"
_symmetry_group_IT_number 63
_symmetry_cell_setting 'orthorhombic'
loop_
_space_group_symop_operation_xyz
x,y,z
-x,-y,1/2+z
x,-y,-z
-x,y,1/2-z
-x,-y,-z
x,y,1/2-z
-x,y,z
x,-y,1/2+z
1/2+x,1/2+y,z
1/2-x,1/2-y,1/2+z
1/2+x,1/2-y,-z
1/2-x,1/2+y,1/2-z
1/2-x,1/2-y,-z
1/2+x,1/2+y,1/2-z
1/2-x,1/2+y,z
1/2+x,1/2-y,1/2+z
loop_
_atom_site_type_symbol
_atom_site_label
_atom_site_fract_x
_atom_site_fract_y
_atom_site_fract_z
Si Si1 0.317331 0.817091 0.750000
Si Si2 0.682783 0.614987 0.877061
Si Si3 0.817484 0.881495 0.626112
Si Si4 0.317545 0.315441 0.250000
Si Si5 0.818244 0.497801 0.575609
Si Si6 0.180891 0.812631 0.999171
O O1 0.500000 0.815837 0.750000
O O2 0.259747 0.851979 0.812181
O O3 0.251873 0.750671 0.750000
O O4 0.500000 0.603536 0.876438
O O5 0.740031 0.648880 0.812848
O O6 0.771682 0.554742 0.884239
O O7 0.737072 0.653971 0.937166
O O8 0.757651 0.846231 0.563697
O O9 0.000000 0.880027 0.634604
O O10 0.763678 0.947154 0.616066
O O11 0.500000 0.311569 0.250000
O O12 0.759845 0.500000 0.500000
O O13 0.000000 0.488497 0.577443
O O14 0.000000 0.807350 0.997853
O O15 0.250000 0.750000 0.000000
#
# Coordination Sequence:
#
# PCOD8259741 Si02
#       6
#     8  16  16   8  16  16
#     4  11  23  42  65  90 125 162 200 251 304 363
#     4  10  20  38  61  87 119 160 204 248 303 364
#     4  11  23  40  62  89 121 162 206 251 306 367
#     4   9  20  38  63  90 121 160 200 245 300 361
#     4  11  23  39  61  90 122 158 204 259 312 360
#     4  10  21  35  57  86 118 157 204 254 304 360
#
# _framework density 19.537790000000001
#
# number of rings (size 3 to 8) (size 9 to 14) (size 15 to 20)
#    0.000    1.600    2.000    2.700    0.000    5.600 
#    0.000    5.500    0.000    0.000    0.000    0.000 
#    0.000    0.000    0.000    0.000    0.000    0.000 
#
# Total GULP energy -496100.339151 kJ/mol
# GULP energy per Si atom -12402.508479 kJ/mol
# Density = 1.949332 g / cm^3
# Si number density = 19.537790 Si / 1000 Ang^3
#
#
#
# Elastic Constant Matrix: (Units=GPa)
#
#
# Indices 1 2 3 4 5 6 
#
# 1 43.3956 30.4394 34.7201 0.0000 0.0000 0.0000
# 2 30.4394 171.9403 87.4955 0.0000 0.0000 0.0000
# 3 34.7201 87.4955 180.8865 0.0000 0.0000 0.0000
# 4 0.0000 0.0000 0.0000 93.9851 0.0000 0.0000
# 5 0.0000 0.0000 0.0000 0.0000 -21.8020 0.0000
# 6 0.0000 0.0000 0.0000 0.0000 0.0000 37.1492
#
#
#
# Elastic Compliance Matrix: (Units=1/GPa)
#
#
# Indices 1 2 3 4 5 6 
#
# 1 0.028333 -0.002983 -0.003996 0.000000 0.000000 0.000000
# 2 -0.002983 0.008029 -0.003311 0.000000 0.000000 0.000000
# 3 -0.003996 -0.003311 0.007897 0.000000 0.000000 0.000000
# 4 0.000000 0.000000 0.000000 0.010640 0.000000 0.000000
# 5 0.000000 0.000000 0.000000 0.000000 -0.045867 0.000000
# 6 0.000000 0.000000 0.000000 0.000000 0.000000 0.026919
#
#
# Mechanical properties :
#
#
# Convention : Reuss Voigt Hill
#
# Bulk Modulus (GPa) = 42.23004 77.94805 60.08905
# Shear Modulus (GPa) = 77.61365 38.10427 57.85896
#
# Velocity S-wave (km/s) = 6.30961 4.42099 5.44777
# Velocity P-wave (km/s) = 8.64540 8.12668 8.39005
#
# Compressibility (1/GPa) = 0.02367983
#
# Stress axis : x y z
#
# Youngs Moduli (GPa) = 35.29486 124.54937 126.63250
#
# Poissons Ratio (x) = 0.37149 0.50597
# Poissons Ratio (y) = 0.10527 0.41930
# Poissons Ratio (z) = 0.14102 0.41240
#
# Static dielectric constant tensor:
#      x y z
#    x 3.355980 0.000000 0.000000 
#    y 0.000000 3.691120 0.000000 
#    z 0.000000 0.000000 3.953890 
# 
# 
# High freq. dielectric constant tensor:
#      x y z
#    x 1.749110 0.000000 0.000000 
#    y 0.000000 1.779690 0.000000 
#    z 0.000000 0.000000 1.771500 
# 
# From -- ./inp_files/50971.got.cif
#   From: 2010.03.12/outbox.cif.g09.slc.cpg/sg63_26_cif.got.tgz:50971.got - 2010.04.10 19:34:48.
