data_PCOD8259668
_publ_section_title
;
Structure prediction by ZEFSAII (Michael W. Deem and Ramdas Pophale) SiO2 
 PCOD8259668
Probable space group: C M C M
;
_chemical_formula_sum "Si O2"
_cell_formula_units_Z 80
_cell_length_a 17.915569
_cell_length_b 23.382969
_cell_length_c 9.515346
_cell_angle_alpha 90.000000
_cell_angle_beta 90.000000
_cell_angle_gamma 90.000000
_cell_volume 3986.161082
_symmetry_space_group_name_H-M "C M C M"
_symmetry_group_IT_number 63
_symmetry_cell_setting 'orthorhombic'
loop_
_space_group_symop_operation_xyz
x,y,z
-x,-y,1/2+z
x,-y,-z
-x,y,1/2-z
-x,-y,-z
x,y,1/2-z
-x,y,z
x,-y,1/2+z
1/2+x,1/2+y,z
1/2-x,1/2-y,1/2+z
1/2+x,1/2-y,-z
1/2-x,1/2+y,1/2-z
1/2-x,1/2-y,-z
1/2+x,1/2+y,1/2-z
1/2-x,1/2+y,z
1/2+x,1/2-y,1/2+z
loop_
_atom_site_type_symbol
_atom_site_label
_atom_site_fract_x
_atom_site_fract_y
_atom_site_fract_z
Si Si1 0.678925 0.242525 0.594385
Si Si2 0.800721 0.558339 0.417106
Si Si3 0.846613 0.871294 0.904325
Si Si4 0.586012 0.547584 0.902051
Si Si5 0.412568 0.867428 0.085062
O O1 0.706782 0.226027 0.750000
O O2 0.750000 0.250000 0.500000
O O3 0.640140 0.303961 0.595378
O O4 0.621361 0.194397 0.541356
O O5 0.780251 0.500000 0.500000
O O6 0.813226 0.547144 0.250000
O O7 0.736447 0.606166 0.442427
O O8 0.875402 0.583834 0.488357
O O9 0.867827 0.895714 0.750000
O O10 0.904557 0.892167 0.021514
O O11 0.625912 0.547869 0.750000
O O12 0.500000 0.532963 0.881731
O O13 0.625702 0.500000 0.000000
O O14 0.398745 0.880694 0.250000
O O15 0.500000 0.866160 0.050419
#
# Coordination Sequence:
#
# PCOD8259668 Si02
#       5
#    16  16  16  16  16
#     4  10  20  37  61  88 117 151 189 233 285 343
#     4  11  23  39  60  88 119 155 200 246 296 351
#     4  10  21  36  58  88 118 151 194 237 286 349
#     4  10  21  36  54  79 113 153 195 239 289 341
#     4  10  22  40  62  89 120 156 197 241 293 350
#
# _framework density 20.069434999999999
#
# number of rings (size 3 to 8) (size 9 to 14) (size 15 to 20)
#    0.000    1.800    2.000    1.800    0.000    6.800 
#    0.000    2.000    0.000    0.000    0.000    0.000 
#    0.000    0.000    0.000    0.000    0.000    0.000 
#
# Total GULP energy -495795.128265 kJ/mol
# GULP energy per Si atom -12394.878207 kJ/mol
# Density = 2.002376 g / cm^3
# Si number density = 20.069435 Si / 1000 Ang^3
#
#
#
# Elastic Constant Matrix: (Units=GPa)
#
#
# Indices 1 2 3 4 5 6 
#
# 1 49.2307 18.3605 27.8497 0.0000 0.0000 0.0000
# 2 18.3605 86.2417 41.2648 0.0000 0.0000 0.0000
# 3 27.8497 41.2648 129.3378 0.0000 0.0000 0.0000
# 4 0.0000 0.0000 0.0000 32.5530 0.0000 0.0000
# 5 0.0000 0.0000 0.0000 0.0000 30.7418 0.0000
# 6 0.0000 0.0000 0.0000 0.0000 0.0000 31.5605
#
#
#
# Elastic Compliance Matrix: (Units=1/GPa)
#
#
# Indices 1 2 3 4 5 6 
#
# 1 0.023806 -0.003087 -0.004141 0.000000 0.000000 0.000000
# 2 -0.003087 0.014085 -0.003829 0.000000 0.000000 0.000000
# 3 -0.004141 -0.003829 0.009845 0.000000 0.000000 0.000000
# 4 0.000000 0.000000 0.000000 0.030719 0.000000 0.000000
# 5 0.000000 0.000000 0.000000 0.000000 0.032529 0.000000
# 6 0.000000 0.000000 0.000000 0.000000 0.000000 0.031685
#
#
# Mechanical properties :
#
#
# Convention : Reuss Voigt Hill
#
# Bulk Modulus (GPa) = 39.02902 48.86224 43.94563
# Shear Modulus (GPa) = 28.84768 30.79341 29.82054
#
# Velocity S-wave (km/s) = 3.79541 3.92132 3.85888
# Velocity P-wave (km/s) = 6.22062 6.70088 6.46521
#
# Compressibility (1/GPa) = 0.02562196
#
# Stress axis : x y z
#
# Youngs Moduli (GPa) = 42.00537 70.99976 101.57393
#
# Poissons Ratio (x) = 0.21916 0.42065
# Poissons Ratio (y) = 0.12966 0.38892
# Poissons Ratio (z) = 0.17396 0.27186
#
# Static dielectric constant tensor:
#      x y z
#    x 3.350160 0.000000 0.000000 
#    y 0.000000 4.025420 0.000000 
#    z 0.000000 0.000000 3.988380 
# 
# 
# High freq. dielectric constant tensor:
#      x y z
#    x 1.762950 0.000000 0.000000 
#    y 0.000000 1.787470 0.000000 
#    z 0.000000 0.000000 1.795190 
# 
# From -- ./inp_files/6448.got.cif
#   From: 2010.03.12/outbox.cif.g09.slc.cpg/sg63_4_cif.got.tgz:6448.got - 2010.04.10 19:34:48.
