data_PCOD8259793
_publ_section_title
;
Structure prediction by ZEFSAII (Michael W. Deem and Ramdas Pophale) SiO2 
 PCOD8259793
Probable space group: C M C M
;
_chemical_formula_sum "Si O2"
_cell_formula_units_Z 96
_cell_length_a 17.176277
_cell_length_b 12.717447
_cell_length_c 23.633348
_cell_angle_alpha 90.000000
_cell_angle_beta 90.000000
_cell_angle_gamma 90.000000
_cell_volume 5162.430544
_symmetry_space_group_name_H-M "C M C M"
_symmetry_group_IT_number 63
_symmetry_cell_setting 'orthorhombic'
loop_
_space_group_symop_operation_xyz
x,y,z
-x,-y,1/2+z
x,-y,-z
-x,y,1/2-z
-x,-y,-z
x,y,1/2-z
-x,y,z
x,-y,1/2+z
1/2+x,1/2+y,z
1/2-x,1/2-y,1/2+z
1/2+x,1/2-y,-z
1/2-x,1/2+y,1/2-z
1/2-x,1/2-y,-z
1/2+x,1/2+y,1/2-z
1/2-x,1/2+y,z
1/2+x,1/2-y,1/2+z
loop_
_atom_site_type_symbol
_atom_site_label
_atom_site_fract_x
_atom_site_fract_y
_atom_site_fract_z
Si Si1 0.316642 0.466756 0.862052
Si Si2 0.850648 0.365279 0.860182
Si Si3 0.910297 0.257687 0.750000
Si Si4 0.650517 0.296870 0.550043
Si Si5 0.090661 0.991237 0.250000
Si Si6 0.000000 0.458622 0.589768
Si Si7 0.000000 0.668774 0.975083
Si Si8 0.203749 0.822486 0.071141
O O1 0.227207 0.433746 0.852747
O O2 0.361089 0.388501 0.904345
O O3 0.365153 0.462747 0.804352
O O4 0.318712 0.583055 0.887849
O O5 0.865139 0.301492 0.803507
O O6 0.843689 0.282084 0.911289
O O7 0.922979 0.441231 0.872942
O O8 0.903589 0.133328 0.750000
O O9 0.000000 0.294118 0.750000
O O10 0.571014 0.245456 0.532940
O O11 0.704904 0.205054 0.575976
O O12 0.686961 0.350701 0.494035
O O13 0.000000 0.027106 0.250000
O O14 0.000000 0.380627 0.536935
O O15 0.000000 0.579266 0.572072
#
# Coordination Sequence:
#
# PCOD8259793 Si02
#       8
#    16  16   8  16   8   8   8  16
#     4  11  23  40  63  86 121 163 202 250 305 357
#     4  11  21  38  63  89 119 158 199 256 301 361
#     4  11  21  38  64  86 121 149 199 260 301 351
#     4  10  22  37  61  89 125 159 198 244 301 365
#     4  11  25  42  62  87 116 166 208 252 301 357
#     4  11  22  37  63  91 123 155 200 244 308 357
#     4  11  22  38  58  90 124 163 192 246 299 371
#     4  10  20  39  58  91 122 156 202 243 299 362
#
# _framework density 18.595891000000002
#
# number of rings (size 3 to 8) (size 9 to 14) (size 15 to 20)
#    0.000    1.333    4.167    2.000    1.167    0.000 
#    1.500    0.833    0.000    1.000    0.000    0.000 
#    0.000    0.000    0.000    0.000    0.000    0.000 
#
# Total GULP energy -595298.964934 kJ/mol
# GULP energy per Si atom -12402.061769 kJ/mol
# Density = 1.855357 g / cm^3
# Si number density = 18.595891 Si / 1000 Ang^3
#
#
#
# Elastic Constant Matrix: (Units=GPa)
#
#
# Indices 1 2 3 4 5 6 
#
# 1 92.8288 40.0394 25.9786 0.0000 0.0000 0.0000
# 2 40.0394 75.6951 32.2446 0.0000 0.0000 0.0000
# 3 25.9786 32.2446 109.4230 0.0000 0.0000 0.0000
# 4 0.0000 0.0000 0.0000 30.3518 0.0000 0.0000
# 5 0.0000 0.0000 0.0000 0.0000 24.2261 0.0000
# 6 0.0000 0.0000 0.0000 0.0000 0.0000 18.7633
#
#
#
# Elastic Compliance Matrix: (Units=1/GPa)
#
#
# Indices 1 2 3 4 5 6 
#
# 1 0.014121 -0.006908 -0.001317 0.000000 0.000000 0.000000
# 2 -0.006908 0.018487 -0.003808 0.000000 0.000000 0.000000
# 3 -0.001317 -0.003808 0.010573 0.000000 0.000000 0.000000
# 4 0.000000 0.000000 0.000000 0.032947 0.000000 0.000000
# 5 0.000000 0.000000 0.000000 0.000000 0.041278 0.000000
# 6 0.000000 0.000000 0.000000 0.000000 0.000000 0.053296
#
#
# Mechanical properties :
#
#
# Convention : Reuss Voigt Hill
#
# Bulk Modulus (GPa) = 52.31239 52.71913 52.51576
# Shear Modulus (GPa) = 24.85842 26.64719 25.75280
#
# Velocity S-wave (km/s) = 3.66015 3.78955 3.72542
# Velocity P-wave (km/s) = 6.78635 6.89631 6.84155
#
# Compressibility (1/GPa) = 0.01911593
#
# Stress axis : x y z
#
# Youngs Moduli (GPa) = 70.81766 54.09183 94.57628
#
# Poissons Ratio (x) = 0.37369 0.12453
# Poissons Ratio (y) = 0.48923 0.36011
# Poissons Ratio (z) = 0.09325 0.20596
#
# Static dielectric constant tensor:
#      x y z
#    x 3.573440 0.000000 0.000000 
#    y 0.000000 3.294550 0.000000 
#    z 0.000000 0.000000 3.464070 
# 
# 
# High freq. dielectric constant tensor:
#      x y z
#    x 1.729450 0.000000 0.000000 
#    y 0.000000 1.717780 0.000000 
#    z 0.000000 0.000000 1.728000 
# 
# From -- ./inp_files/63781.got.cif
#   From: 2010.03.12/outbox.cif.g09.slc.cpg/sg63_32_cif.got.tgz:63781.got - 2010.04.10 19:34:48.
