data_PCOD8259432
_publ_section_title
;
Structure prediction by ZEFSAII (Michael W. Deem and Ramdas Pophale) SiO2 
 PCOD8259432
Probable space group: C M C M
;
_chemical_formula_sum "Si O2"
_cell_formula_units_Z 96
_cell_length_a 22.686222
_cell_length_b 13.968295
_cell_length_c 13.873510
_cell_angle_alpha 90.000000
_cell_angle_beta 90.000000
_cell_angle_gamma 90.000000
_cell_volume 4396.346636
_symmetry_space_group_name_H-M "C M C M"
_symmetry_group_IT_number 63
_symmetry_cell_setting 'orthorhombic'
loop_
_space_group_symop_operation_xyz
x,y,z
-x,-y,1/2+z
x,-y,-z
-x,y,1/2-z
-x,-y,-z
x,y,1/2-z
-x,y,z
x,-y,1/2+z
1/2+x,1/2+y,z
1/2-x,1/2-y,1/2+z
1/2+x,1/2-y,-z
1/2-x,1/2+y,1/2-z
1/2-x,1/2-y,-z
1/2+x,1/2+y,1/2-z
1/2-x,1/2+y,z
1/2+x,1/2-y,1/2+z
loop_
_atom_site_type_symbol
_atom_site_label
_atom_site_fract_x
_atom_site_fract_y
_atom_site_fract_z
Si Si1 0.214827 0.764601 0.136065
Si Si2 0.568367 0.452935 0.640517
Si Si3 0.334210 0.144369 0.639086
Si Si4 0.105322 0.143144 0.953064
Si Si5 0.433750 0.158159 0.491634
Si Si6 0.345288 0.069986 0.360223
O O1 0.208860 0.783841 0.250000
O O2 0.281042 0.788798 0.100682
O O3 0.171913 0.836731 0.080169
O O4 0.200300 0.653970 0.109670
O O5 0.590122 0.433274 0.750000
O O6 0.500000 0.425247 0.629087
O O7 0.576207 0.564342 0.615600
O O8 0.605964 0.389647 0.565439
O O9 0.346384 0.164147 0.750000
O O10 0.394893 0.170755 0.587487
O O11 0.316292 0.033313 0.619861
O O12 0.066668 0.239003 0.938612
O O13 0.500000 0.126799 0.517496
O O14 0.405163 0.078166 0.422214
O O15 0.364295 0.081215 0.250000
#
# Coordination Sequence:
#
# PCOD8259432 Si02
#       6
#    16  16  16  16  16  16
#     4   9  19  39  63  88 122 158 202 253 302 366
#     4  10  20  36  57  85 124 164 204 252 305 363
#     4  10  22  41  62  89 125 162 200 252 314 369
#     4  10  20  37  59  86 119 159 206 251 304 364
#     4  11  23  39  60  87 120 159 208 257 306 364
#     4   9  20  39  62  88 120 158 204 254 305 364
#
# _framework density 21.836314000000002
#
# number of rings (size 3 to 8) (size 9 to 14) (size 15 to 20)
#    0.000    2.167    0.000    3.000    0.000    6.000 
#   12.000    1.667    0.000    0.000    0.000    0.000 
#    0.000    0.000    0.000    0.000    0.000    0.000 
#
# Total GULP energy -595232.075884 kJ/mol
# GULP energy per Si atom -12400.668248 kJ/mol
# Density = 2.178661 g / cm^3
# Si number density = 21.836314 Si / 1000 Ang^3
#
#
#
# Elastic Constant Matrix: (Units=GPa)
#
#
# Indices 1 2 3 4 5 6 
#
# 1 165.2677 41.3032 52.5167 0.0000 0.0000 0.0000
# 2 41.3032 71.2854 13.3000 0.0000 0.0000 0.0000
# 3 52.5167 13.3000 69.8157 0.0000 0.0000 0.0000
# 4 0.0000 0.0000 0.0000 26.6421 0.0000 0.0000
# 5 0.0000 0.0000 0.0000 0.0000 32.2268 0.0000
# 6 0.0000 0.0000 0.0000 0.0000 0.0000 22.6967
#
#
#
# Elastic Compliance Matrix: (Units=1/GPa)
#
#
# Indices 1 2 3 4 5 6 
#
# 1 0.008967 -0.004082 -0.005968 0.000000 0.000000 0.000000
# 2 -0.004082 0.016404 -0.000054 0.000000 0.000000 0.000000
# 3 -0.005968 -0.000054 0.018823 0.000000 0.000000 0.000000
# 4 0.000000 0.000000 0.000000 0.037535 0.000000 0.000000
# 5 0.000000 0.000000 0.000000 0.000000 0.031030 0.000000
# 6 0.000000 0.000000 0.000000 0.000000 0.000000 0.044059
#
#
# Mechanical properties :
#
#
# Convention : Reuss Voigt Hill
#
# Bulk Modulus (GPa) = 41.69210 57.84541 49.76875
# Shear Modulus (GPa) = 27.02395 29.59639 28.31017
#
# Velocity S-wave (km/s) = 3.52173 3.68554 3.60456
# Velocity P-wave (km/s) = 5.97254 6.68273 6.33759
#
# Compressibility (1/GPa) = 0.02398536
#
# Stress axis : x y z
#
# Youngs Moduli (GPa) = 111.51511 60.96244 53.12713
#
# Poissons Ratio (x) = 0.24887 0.31705
# Poissons Ratio (y) = 0.45524 0.00287
# Poissons Ratio (z) = 0.66549 0.00330
#
# Static dielectric constant tensor:
#      x y z
#    x 3.715580 0.000000 0.000000 
#    y 0.000000 4.139700 0.000000 
#    z 0.000000 0.000000 4.074550 
# 
# 
# High freq. dielectric constant tensor:
#      x y z
#    x 1.835100 0.000000 0.000000 
#    y 0.000000 1.866940 0.000000 
#    z 0.000000 0.000000 1.869520 
# 
# From -- ./inp_files/35333.got.cif
#   From: 2010.03.12/outbox.cif.g09.slc.cpg/sg63_18_cif.got.tgz:35333.got - 2010.04.10 19:34:48.
