data_PCOD8259200
_publ_section_title
;
Structure prediction by ZEFSAII (Michael W. Deem and Ramdas Pophale) SiO2 
 PCOD8259200
Probable space group: C M C M
;
_chemical_formula_sum "Si O2"
_cell_formula_units_Z 80
_cell_length_a 14.970898
_cell_length_b 29.678414
_cell_length_c 8.945204
_cell_angle_alpha 90.000000
_cell_angle_beta 90.000000
_cell_angle_gamma 90.000000
_cell_volume 3974.466031
_symmetry_space_group_name_H-M "C M C M"
_symmetry_group_IT_number 63
_symmetry_cell_setting 'orthorhombic'
loop_
_space_group_symop_operation_xyz
x,y,z
-x,-y,1/2+z
x,-y,-z
-x,y,1/2-z
-x,-y,-z
x,y,1/2-z
-x,y,z
x,-y,1/2+z
1/2+x,1/2+y,z
1/2-x,1/2-y,1/2+z
1/2+x,1/2-y,-z
1/2-x,1/2+y,1/2-z
1/2-x,1/2-y,-z
1/2+x,1/2+y,1/2-z
1/2-x,1/2+y,z
1/2+x,1/2-y,1/2+z
loop_
_atom_site_type_symbol
_atom_site_label
_atom_site_fract_x
_atom_site_fract_y
_atom_site_fract_z
Si Si1 0.000000 0.798709 0.573144
Si Si2 0.500000 0.196847 0.571479
Si Si3 0.349967 0.634244 0.074587
Si Si4 0.355392 0.864258 0.926618
Si Si5 0.142656 0.455841 0.418665
Si Si6 0.145133 0.956256 0.417020
O O1 0.000000 0.748096 0.511466
O O2 0.089081 0.824479 0.517203
O O3 0.000000 0.797314 0.750000
O O4 0.500000 0.193392 0.750000
O O5 0.588963 0.174553 0.506559
O O6 0.359239 0.626461 0.250000
O O7 0.247752 0.644604 0.030976
O O8 0.386638 0.588913 0.998843
O O9 0.371962 0.863228 0.750000
O O10 0.388775 0.912245 0.988998
O O11 0.102922 0.500000 0.500000
O O12 0.104761 0.453049 0.250000
O O13 0.248626 0.458666 0.416472
O O14 0.106624 0.955790 0.250000
O O15 0.105452 0.000000 0.500000
#
# Coordination Sequence:
#
# PCOD8259200 Si02
#       6
#     8   8  16  16  16  16
#     4   9  20  39  60  81 106 139 180 226 277 329
#     4  11  23  39  58  79 106 141 181 226 276 329
#     4   9  18  35  58  81 108 143 181 222 269 321
#     4  10  20  35  56  82 111 143 180 223 270 319
#     4   9  16  28  49  78 111 146 181 217 261 315
#     4   9  16  27  47  77 111 145 181 219 261 313
#
# _framework density 20.128489999999999
#
# number of rings (size 3 to 8) (size 9 to 14) (size 15 to 20)
#    0.000    2.600    0.000    2.100    0.000    6.400 
#    0.000    3.500    0.000    0.000    0.000    0.000 
#    0.000    0.000    0.000    0.000    0.000    0.000 
#
# Total GULP energy -496000.386243 kJ/mol
# GULP energy per Si atom -12400.009656 kJ/mol
# Density = 2.008268 g / cm^3
# Si number density = 20.128490 Si / 1000 Ang^3
#
#
#
# Elastic Constant Matrix: (Units=GPa)
#
#
# Indices 1 2 3 4 5 6 
#
# 1 83.3181 70.3257 37.4997 0.0000 0.0000 0.0000
# 2 70.3257 212.5071 74.8653 0.0000 0.0000 0.0000
# 3 37.4997 74.8653 112.0358 0.0000 0.0000 0.0000
# 4 0.0000 0.0000 0.0000 32.8447 0.0000 0.0000
# 5 0.0000 0.0000 0.0000 0.0000 6.6032 0.0000
# 6 0.0000 0.0000 0.0000 0.0000 0.0000 90.7111
#
#
#
# Elastic Compliance Matrix: (Units=1/GPa)
#
#
# Indices 1 2 3 4 5 6 
#
# 1 0.017195 -0.004791 -0.002554 0.000000 0.000000 0.000000
# 2 -0.004791 0.007489 -0.003401 0.000000 0.000000 0.000000
# 3 -0.002554 -0.003401 0.012053 0.000000 0.000000 0.000000
# 4 0.000000 0.000000 0.000000 0.030446 0.000000 0.000000
# 5 0.000000 0.000000 0.000000 0.000000 0.151442 0.000000
# 6 0.000000 0.000000 0.000000 0.000000 0.000000 0.011024
#
#
# Mechanical properties :
#
#
# Convention : Reuss Voigt Hill
#
# Bulk Modulus (GPa) = 65.59057 85.91584 75.75320
# Shear Modulus (GPa) = 19.51410 41.04315 30.27862
#
# Velocity S-wave (km/s) = 3.11702 4.52049 3.88270
# Velocity P-wave (km/s) = 6.75360 8.36796 7.60375
#
# Compressibility (1/GPa) = 0.01524609
#
# Stress axis : x y z
#
# Youngs Moduli (GPa) = 58.15487 133.52370 82.96469
#
# Poissons Ratio (x) = 0.63967 0.21191
# Poissons Ratio (y) = 0.27860 0.28217
# Poissons Ratio (z) = 0.14854 0.45412
#
# Static dielectric constant tensor:
#      x y z
#    x 3.475550 0.000000 0.000000 
#    y 0.000000 3.847460 0.000000 
#    z 0.000000 0.000000 3.678880 
# 
# 
# High freq. dielectric constant tensor:
#      x y z
#    x 1.774460 0.000000 0.000000 
#    y 0.000000 1.786440 0.000000 
#    z 0.000000 0.000000 1.783530 
# 
# From -- ./inp_files/6515.got.cif
#   From: 2010.03.12/outbox.cif.g09.slc.cpg/sg63_4_cif.got.tgz:6515.got - 2010.04.10 19:34:48.
