data_PCOD8259012
_publ_section_title
;
Structure prediction by ZEFSAII (Michael W. Deem and Ramdas Pophale) SiO2 
 PCOD8259012
Probable space group: C M C M
;
_chemical_formula_sum "Si O2"
_cell_formula_units_Z 80
_cell_length_a 22.773144
_cell_length_b 19.107480
_cell_length_c 9.836374
_cell_angle_alpha 90.000000
_cell_angle_beta 90.000000
_cell_angle_gamma 90.000000
_cell_volume 4280.174144
_symmetry_space_group_name_H-M "C M C M"
_symmetry_group_IT_number 63
_symmetry_cell_setting 'orthorhombic'
loop_
_space_group_symop_operation_xyz
x,y,z
-x,-y,1/2+z
x,-y,-z
-x,y,1/2-z
-x,-y,-z
x,y,1/2-z
-x,y,z
x,-y,1/2+z
1/2+x,1/2+y,z
1/2-x,1/2-y,1/2+z
1/2+x,1/2-y,-z
1/2-x,1/2+y,1/2-z
1/2-x,1/2-y,-z
1/2+x,1/2+y,1/2-z
1/2-x,1/2+y,z
1/2+x,1/2-y,1/2+z
loop_
_atom_site_type_symbol
_atom_site_label
_atom_site_fract_x
_atom_site_fract_y
_atom_site_fract_z
Si Si1 0.891619 0.300963 0.403795
Si Si2 0.333849 0.568048 0.907307
Si Si3 0.067595 0.177093 0.906954
Si Si4 0.741575 0.815128 0.096510
Si Si5 0.933153 0.554095 0.602095
O O1 0.906238 0.275722 0.250000
O O2 0.902199 0.237156 0.504447
O O3 0.826686 0.333771 0.411190
O O4 0.932077 0.365836 0.450147
O O5 0.327088 0.545813 0.750000
O O6 0.396479 0.605822 0.931801
O O7 0.280890 0.619477 0.952105
O O8 0.330986 0.500000 0.000000
O O9 0.072008 0.200158 0.750000
O O10 0.000000 0.164965 0.950689
O O11 0.760697 0.794558 0.250000
O O12 0.750000 0.750000 0.000000
O O13 0.900892 0.500000 0.500000
O O14 0.901817 0.549702 0.750000
O O15 0.000000 0.529995 0.617277
#
# Coordination Sequence:
#
# PCOD8259012 Si02
#       5
#    16  16  16  16  16
#     4  10  20  34  56  83 110 141 183 230 276 331
#     4  10  22  39  57  82 115 148 187 232 278 331
#     4  10  21  37  57  82 113 149 189 233 280 331
#     4  10  20  36  58  82 109 142 180 223 273 328
#     4   9  18  32  48  70 104 141 176 217 263 313
#
# _framework density 18.690828
#
# number of rings (size 3 to 8) (size 9 to 14) (size 15 to 20)
#    0.000    2.200    2.000    0.600    0.000    4.800 
#    0.000    2.000    0.000    0.000    0.000    0.000 
#    0.000    0.000    0.000    0.000    0.000    0.000 
#
# Total GULP energy -495856.884977 kJ/mol
# GULP energy per Si atom -12396.422124 kJ/mol
# Density = 1.864829 g / cm^3
# Si number density = 18.690828 Si / 1000 Ang^3
#
#
#
# Elastic Constant Matrix: (Units=GPa)
#
#
# Indices 1 2 3 4 5 6 
#
# 1 97.8826 42.2939 33.7424 0.0000 0.0000 0.0000
# 2 42.2939 140.5096 86.3597 0.0000 0.0000 0.0000
# 3 33.7424 86.3597 94.2181 0.0000 0.0000 0.0000
# 4 0.0000 0.0000 0.0000 42.9557 0.0000 0.0000
# 5 0.0000 0.0000 0.0000 0.0000 22.8101 0.0000
# 6 0.0000 0.0000 0.0000 0.0000 0.0000 28.6408
#
#
#
# Elastic Compliance Matrix: (Units=1/GPa)
#
#
# Indices 1 2 3 4 5 6 
#
# 1 0.011948 -0.002213 -0.002250 0.000000 0.000000 0.000000
# 2 -0.002213 0.016709 -0.014523 0.000000 0.000000 0.000000
# 3 -0.002250 -0.014523 0.024731 0.000000 0.000000 0.000000
# 4 0.000000 0.000000 0.000000 0.023280 0.000000 0.000000
# 5 0.000000 0.000000 0.000000 0.000000 0.043840 0.000000
# 6 0.000000 0.000000 0.000000 0.000000 0.000000 0.034915
#
#
# Mechanical properties :
#
#
# Convention : Reuss Voigt Hill
#
# Bulk Modulus (GPa) = 64.86925 73.04469 68.95697
# Shear Modulus (GPa) = 25.18438 30.22893 27.70665
#
# Velocity S-wave (km/s) = 3.67470 4.02595 3.85433
# Velocity P-wave (km/s) = 7.26542 7.79592 7.53534
#
# Compressibility (1/GPa) = 0.01541562
#
# Stress axis : x y z
#
# Youngs Moduli (GPa) = 83.69284 59.84719 40.43493
#
# Poissons Ratio (x) = 0.13247 0.09099
# Poissons Ratio (y) = 0.18525 0.58723
# Poissons Ratio (z) = 0.18833 0.86915
#
# Static dielectric constant tensor:
#      x y z
#    x 3.725680 0.000000 0.000000 
#    y 0.000000 3.226970 0.000000 
#    z 0.000000 0.000000 3.640680 
# 
# 
# High freq. dielectric constant tensor:
#      x y z
#    x 1.729170 0.000000 0.000000 
#    y 0.000000 1.713970 0.000000 
#    z 0.000000 0.000000 1.727310 
# 
# From -- ./inp_files/12021.got.cif
#   From: 2010.03.12/outbox.cif.g09.slc.cpg/sg63_7_cif.got.tgz:12021.got - 2010.04.10 19:34:48.
