data_PCOD8259731
_publ_section_title
;
Structure prediction by ZEFSAII (Michael W. Deem and Ramdas Pophale) SiO2 
 PCOD8259731
Probable space group: C M C M
;
_chemical_formula_sum "Si O2"
_cell_formula_units_Z 96
_cell_length_a 21.923652
_cell_length_b 10.844593
_cell_length_c 21.964618
_cell_angle_alpha 90.000000
_cell_angle_beta 90.000000
_cell_angle_gamma 90.000000
_cell_volume 5222.155647
_symmetry_space_group_name_H-M "C M C M"
_symmetry_group_IT_number 63
_symmetry_cell_setting 'orthorhombic'
loop_
_space_group_symop_operation_xyz
x,y,z
-x,-y,1/2+z
x,-y,-z
-x,y,1/2-z
-x,-y,-z
x,y,1/2-z
-x,y,z
x,-y,1/2+z
1/2+x,1/2+y,z
1/2-x,1/2-y,1/2+z
1/2+x,1/2-y,-z
1/2-x,1/2+y,1/2-z
1/2-x,1/2-y,-z
1/2+x,1/2+y,1/2-z
1/2-x,1/2+y,z
1/2+x,1/2-y,1/2+z
loop_
_atom_site_type_symbol
_atom_site_label
_atom_site_fract_x
_atom_site_fract_y
_atom_site_fract_z
Si Si1 0.864871 0.533479 0.875899
Si Si2 0.202381 0.471579 0.250000
Si Si3 0.500000 0.971764 0.096148
Si Si4 0.799687 0.246587 0.750000
Si Si5 0.790963 0.257873 0.060580
Si Si6 0.386218 0.364364 0.488780
Si Si7 0.000000 0.308461 0.980155
Si Si8 0.328466 0.764640 0.619626
O O1 0.838938 0.549859 0.808783
O O2 0.825984 0.614038 0.924420
O O3 0.859137 0.393261 0.900170
O O4 0.937003 0.567577 0.870404
O O5 0.228866 0.612921 0.250000
O O6 0.253125 0.366444 0.250000
O O7 0.500000 0.120043 0.084616
O O8 0.500000 0.908529 0.031729
O O9 0.842586 0.232777 0.690155
O O10 0.745867 0.222335 0.115830
O O11 0.750000 0.250000 0.000000
O O12 0.844024 0.159223 0.048079
O O13 0.411491 0.500000 0.500000
O O14 0.441583 0.273773 0.486981
O O15 0.350060 0.345468 0.424814
#
# Coordination Sequence:
#
# PCOD8259731 Si02
#       8
#    16   8   8   8  16  16   8  16
#     4  11  21  40  60  85 118 158 202 248 295 359
#     4  10  22  37  62  88 120 155 206 246 304 356
#     4  11  22  37  62  80 118 153 208 242 293 351
#     4  10  20  38  60  88 118 160 194 248 294 366
#     4  10  22  32  54  86 119 148 188 240 300 352
#     4  11  23  36  55  85 118 155 192 243 300 359
#     4  11  21  38  56  84 109 159 196 245 289 358
#     4  10  22  37  58  86 120 150 196 242 302 353
#
# _framework density 18.383212
#
# number of rings (size 3 to 8) (size 9 to 14) (size 15 to 20)
#    0.000    1.500    5.000    0.250    4.667    2.333 
#    0.000    0.000    0.000    0.500    0.000    0.000 
#    0.000    1.333    0.000    0.000    0.000    0.000 
#
# Total GULP energy -594627.676705 kJ/mol
# GULP energy per Si atom -12388.076598 kJ/mol
# Density = 1.834137 g / cm^3
# Si number density = 18.383212 Si / 1000 Ang^3
#
#
#
# Elastic Constant Matrix: (Units=GPa)
#
#
# Indices 1 2 3 4 5 6 
#
# 1 96.4084 28.8461 19.1327 0.0000 0.0000 0.0000
# 2 28.8461 95.3477 33.1086 0.0000 0.0000 0.0000
# 3 19.1327 33.1086 81.4468 0.0000 0.0000 0.0000
# 4 0.0000 0.0000 0.0000 26.3140 0.0000 0.0000
# 5 0.0000 0.0000 0.0000 0.0000 20.7826 0.0000
# 6 0.0000 0.0000 0.0000 0.0000 0.0000 35.2149
#
#
#
# Elastic Compliance Matrix: (Units=1/GPa)
#
#
# Indices 1 2 3 4 5 6 
#
# 1 0.011562 -0.002975 -0.001507 0.000000 0.000000 0.000000
# 2 -0.002975 0.012977 -0.004576 0.000000 0.000000 0.000000
# 3 -0.001507 -0.004576 0.014492 0.000000 0.000000 0.000000
# 4 0.000000 0.000000 0.000000 0.038003 0.000000 0.000000
# 5 0.000000 0.000000 0.000000 0.000000 0.048117 0.000000
# 6 0.000000 0.000000 0.000000 0.000000 0.000000 0.028397
#
#
# Mechanical properties :
#
#
# Convention : Reuss Voigt Hill
#
# Bulk Modulus (GPa) = 47.81204 48.37530 48.09367
# Shear Modulus (GPa) = 27.99005 29.27000 28.63003
#
# Velocity S-wave (km/s) = 3.90627 3.99458 3.95067
# Velocity P-wave (km/s) = 6.81251 6.90273 6.85777
#
# Compressibility (1/GPa) = 0.02091523
#
# Stress axis : x y z
#
# Youngs Moduli (GPa) = 86.49332 77.05956 69.00239
#
# Poissons Ratio (x) = 0.22922 0.10397
# Poissons Ratio (y) = 0.25728 0.31579
# Poissons Ratio (z) = 0.13032 0.35266
#
# Static dielectric constant tensor:
#      x y z
#    x 3.672130 0.000000 0.000000 
#    y 0.000000 3.405550 0.000000 
#    z 0.000000 0.000000 3.484990 
# 
# 
# High freq. dielectric constant tensor:
#      x y z
#    x 1.709780 0.000000 0.000000 
#    y 0.000000 1.707840 0.000000 
#    z 0.000000 0.000000 1.708010 
# 
# From -- ./inp_files/56622.got.cif
#   From: 2010.03.12/outbox.cif.g09.slc.cpg/sg63_29_cif.got.tgz:56622.got - 2010.04.10 19:34:48.
