data_PCOD8259089
_publ_section_title
;
Structure prediction by ZEFSAII (Michael W. Deem and Ramdas Pophale) SiO2 
 PCOD8259089
Probable space group: C M C M
;
_chemical_formula_sum "Si O2"
_cell_formula_units_Z 128
_cell_length_a 22.895001
_cell_length_b 18.681656
_cell_length_c 17.821862
_cell_angle_alpha 90.000000
_cell_angle_beta 90.000000
_cell_angle_gamma 90.000000
_cell_volume 7622.705023
_symmetry_space_group_name_H-M "C M C M"
_symmetry_group_IT_number 63
_symmetry_cell_setting 'orthorhombic'
loop_
_space_group_symop_operation_xyz
x,y,z
-x,-y,1/2+z
x,-y,-z
-x,y,1/2-z
-x,-y,-z
x,y,1/2-z
-x,y,z
x,-y,1/2+z
1/2+x,1/2+y,z
1/2-x,1/2-y,1/2+z
1/2+x,1/2-y,-z
1/2-x,1/2+y,1/2-z
1/2-x,1/2-y,-z
1/2+x,1/2+y,1/2-z
1/2-x,1/2+y,z
1/2+x,1/2-y,1/2+z
loop_
_atom_site_type_symbol
_atom_site_label
_atom_site_fract_x
_atom_site_fract_y
_atom_site_fract_z
Si Si1 0.268741 0.024496 0.582137
Si Si2 0.784296 0.765965 0.334925
Si Si3 0.169672 0.353988 0.164495
Si Si4 0.260659 0.615746 0.337122
Si Si5 0.932498 0.984051 0.164069
Si Si6 0.348901 0.385220 0.416661
Si Si7 0.066235 0.254744 0.163842
Si Si8 0.616501 0.621237 0.414831
O O1 0.317493 0.079235 0.610984
O O2 0.204920 0.059749 0.580081
O O3 0.287650 0.000000 0.500000
O O4 0.269773 0.957295 0.637958
O O5 0.805324 0.780541 0.250000
O O6 0.718349 0.793158 0.345824
O O7 0.783924 0.681299 0.353145
O O8 0.827835 0.806668 0.390948
O O9 0.168297 0.381621 0.250000
O O10 0.107917 0.320232 0.140075
O O11 0.277441 0.611922 0.250000
O O12 0.318730 0.629177 0.383807
O O13 0.919973 0.005676 0.250000
O O14 0.895286 0.913939 0.143681
O O15 0.000000 0.965910 0.151056
O O16 0.913557 0.048297 0.110551
O O17 0.380820 0.378446 0.495663
O O18 0.079239 0.232575 0.250000
O O19 0.076543 0.186346 0.111946
O O20 0.000000 0.281106 0.153439
#
# Coordination Sequence:
#
# PCOD8259089 Si02
#       8
#    16  16  16  16  16  16  16  16
#     4  11  20  33  49  75 105 135 169 203 256 305
#     4   9  19  34  53  75 102 134 170 209 253 302
#     4   9  18  32  51  75 100 131 166 207 252 299
#     4  11  20  32  51  74 102 136 168 204 248 303
#     4  11  23  37  53  72  99 141 185 217 248 293
#     4  11  22  35  51  74 105 139 171 211 255 303
#     4  10  20  35  54  75 100 132 170 209 253 303
#     4  12  21  32  49  77 107 135 165 206 253 306
#
# _framework density 16.791938999999999
#
# number of rings (size 3 to 8) (size 9 to 14) (size 15 to 20)
#    0.000    1.500    3.750    2.625    0.000    5.000 
#    0.000    0.000    0.000    0.375    0.000    0.875 
#    0.000    3.000    0.000    0.000    0.000    0.000 
#
# Total GULP energy -793850.714985 kJ/mol
# GULP energy per Si atom -12403.917422 kJ/mol
# Density = 1.675372 g / cm^3
# Si number density = 16.791939 Si / 1000 Ang^3
#
#
#
# Elastic Constant Matrix: (Units=GPa)
#
#
# Indices 1 2 3 4 5 6 
#
# 1 83.4388 37.6577 30.8662 0.0000 0.0000 0.0000
# 2 37.6577 87.9274 29.6757 0.0000 0.0000 0.0000
# 3 30.8662 29.6757 68.8478 0.0000 0.0000 0.0000
# 4 0.0000 0.0000 0.0000 23.5337 0.0000 0.0000
# 5 0.0000 0.0000 0.0000 0.0000 18.7433 0.0000
# 6 0.0000 0.0000 0.0000 0.0000 0.0000 24.2330
#
#
#
# Elastic Compliance Matrix: (Units=1/GPa)
#
#
# Indices 1 2 3 4 5 6 
#
# 1 0.016206 -0.005253 -0.005001 0.000000 0.000000 0.000000
# 2 -0.005253 0.015012 -0.004116 0.000000 0.000000 0.000000
# 3 -0.005001 -0.004116 0.018541 0.000000 0.000000 0.000000
# 4 0.000000 0.000000 0.000000 0.042492 0.000000 0.000000
# 5 0.000000 0.000000 0.000000 0.000000 0.053352 0.000000
# 6 0.000000 0.000000 0.000000 0.000000 0.000000 0.041266
#
#
# Mechanical properties :
#
#
# Convention : Reuss Voigt Hill
#
# Bulk Modulus (GPa) = 47.57581 48.51257 48.04419
# Shear Modulus (GPa) = 22.46038 22.76964 22.61501
#
# Velocity S-wave (km/s) = 3.66125 3.68637 3.67383
# Velocity P-wave (km/s) = 6.80199 6.86092 6.83151
#
# Compressibility (1/GPa) = 0.02101908
#
# Stress axis : x y z
#
# Youngs Moduli (GPa) = 61.70725 66.61494 53.93458
#
# Poissons Ratio (x) = 0.34990 0.26974
# Poissons Ratio (y) = 0.32412 0.22198
# Poissons Ratio (z) = 0.30862 0.27416
#
# Static dielectric constant tensor:
#      x y z
#    x 2.997410 0.000000 0.000000 
#    y 0.000000 3.184940 0.000000 
#    z 0.000000 0.000000 3.247570 
# 
# 
# High freq. dielectric constant tensor:
#      x y z
#    x 1.622490 0.000000 0.000000 
#    y 0.000000 1.644800 0.000000 
#    z 0.000000 0.000000 1.652950 
# 
# From -- ./inp_files/48451.got.cif
#   From: 2010.03.12/outbox.cif.g09.slc.cpg/sg63_25_cif.got.tgz:48451.got - 2010.04.10 19:34:48.
