data_PCOD8259729
_publ_section_title
;
Structure prediction by ZEFSAII (Michael W. Deem and Ramdas Pophale) SiO2 
 PCOD8259729
Probable space group: C M C M
;
_chemical_formula_sum "Si O2"
_cell_formula_units_Z 96
_cell_length_a 8.806123
_cell_length_b 19.613725
_cell_length_c 29.141202
_cell_angle_alpha 90.000000
_cell_angle_beta 90.000000
_cell_angle_gamma 90.000000
_cell_volume 5033.293903
_symmetry_space_group_name_H-M "C M C M"
_symmetry_group_IT_number 63
_symmetry_cell_setting 'orthorhombic'
loop_
_space_group_symop_operation_xyz
x,y,z
-x,-y,1/2+z
x,-y,-z
-x,y,1/2-z
-x,-y,-z
x,y,1/2-z
-x,y,z
x,-y,1/2+z
1/2+x,1/2+y,z
1/2-x,1/2-y,1/2+z
1/2+x,1/2-y,-z
1/2-x,1/2+y,1/2-z
1/2-x,1/2-y,-z
1/2+x,1/2+y,1/2-z
1/2-x,1/2+y,z
1/2+x,1/2-y,1/2+z
loop_
_atom_site_type_symbol
_atom_site_label
_atom_site_fract_x
_atom_site_fract_y
_atom_site_fract_z
Si Si1 0.321363 0.185021 0.976340
Si Si2 0.820933 0.991173 0.874777
Si Si3 0.328336 0.567148 0.469936
Si Si4 0.180630 0.243323 0.800874
Si Si5 0.818792 0.144926 0.880938
Si Si6 0.326748 0.104258 0.303496
O O1 0.500000 0.194116 0.971477
O O2 0.249386 0.177358 0.926418
O O3 0.250000 0.250000 0.000000
O O4 0.285954 0.120407 0.007957
O O5 0.756255 0.068203 0.874297
O O6 0.000000 0.996343 0.876468
O O7 0.763368 0.950889 0.919656
O O8 0.771708 0.951599 0.829565
O O9 0.329970 0.500000 0.500000
O O10 0.500000 0.597240 0.467620
O O11 0.241962 0.223568 0.750000
O O12 0.241243 0.189123 0.837790
O O13 0.235743 0.319624 0.814156
O O14 0.000000 0.244009 0.799493
O O15 0.000000 0.147078 0.884804
O O16 0.311428 0.088199 0.250000
O O17 0.500000 0.097588 0.319927
#
# Coordination Sequence:
#
# PCOD8259729 Si02
#       6
#    16  16  16  16  16  16
#     4  12  26  41  59  85 117 154 196 239 284 344
#     4  10  21  35  57  86 116 148 184 235 292 341
#     4  10  20  40  62  83 118 154 186 234 291 342
#     4   8  16  33  58  84 109 143 189 236 280 334
#     4  10  20  38  60  85 115 149 190 238 289 339
#     4   9  19  36  56  81 114 149 189 238 285 334
#
# _framework density 19.072997999999998
#
# number of rings (size 3 to 8) (size 9 to 14) (size 15 to 20)
#    0.000    2.167    1.667    2.500    2.333    2.667 
#    0.000    1.667    0.000    1.500    0.000    0.000 
#    0.000    0.000    0.000    0.000    0.000    0.000 
#
# Total GULP energy -595212.545292 kJ/mol
# GULP energy per Si atom -12400.261360 kJ/mol
# Density = 1.902959 g / cm^3
# Si number density = 19.072998 Si / 1000 Ang^3
#
#
#
# Elastic Constant Matrix: (Units=GPa)
#
#
# Indices 1 2 3 4 5 6 
#
# 1 29.2025 28.1650 27.1276 0.0000 0.0000 0.0000
# 2 28.1650 121.6868 85.6790 0.0000 0.0000 0.0000
# 3 27.1276 85.6790 136.6602 0.0000 0.0000 0.0000
# 4 0.0000 0.0000 0.0000 38.9617 0.0000 0.0000
# 5 0.0000 0.0000 0.0000 0.0000 16.3249 0.0000
# 6 0.0000 0.0000 0.0000 0.0000 0.0000 23.1067
#
#
#
# Elastic Compliance Matrix: (Units=1/GPa)
#
#
# Indices 1 2 3 4 5 6 
#
# 1 0.045483 -0.007466 -0.004348 0.000000 0.000000 0.000000
# 2 -0.007466 0.015938 -0.008510 0.000000 0.000000 0.000000
# 3 -0.004348 -0.008510 0.013516 0.000000 0.000000 0.000000
# 4 0.000000 0.000000 0.000000 0.025666 0.000000 0.000000
# 5 0.000000 0.000000 0.000000 0.000000 0.061256 0.000000
# 6 0.000000 0.000000 0.000000 0.000000 0.000000 0.043277
#
#
# Mechanical properties :
#
#
# Convention : Reuss Voigt Hill
#
# Bulk Modulus (GPa) = 29.16386 63.27697 46.22042
# Shear Modulus (GPa) = 19.43903 25.45053 22.44478
#
# Velocity S-wave (km/s) = 3.19594 3.65687 3.43415
# Velocity P-wave (km/s) = 5.37983 7.14692 6.32539
#
# Compressibility (1/GPa) = 0.03428901
#
# Stress axis : x y z
#
# Youngs Moduli (GPa) = 21.98609 62.74372 73.98679
#
# Poissons Ratio (x) = 0.46845 0.32168
# Poissons Ratio (y) = 0.16415 0.62964
# Poissons Ratio (z) = 0.09559 0.53396
#
# Static dielectric constant tensor:
#      x y z
#    x 3.238020 0.000000 0.000000 
#    y 0.000000 3.609910 0.000000 
#    z 0.000000 0.000000 3.711820 
# 
# 
# High freq. dielectric constant tensor:
#      x y z
#    x 1.711390 0.000000 0.000000 
#    y 0.000000 1.750300 0.000000 
#    z 0.000000 0.000000 1.753950 
# 
# From -- ./inp_files/66893.got.cif
#   From: 2010.03.12/outbox.cif.g09.slc.cpg/sg63_34_cif.got.tgz:66893.got - 2010.04.10 19:34:48.
