data_PCOD8259254
_publ_section_title
;
Structure prediction by ZEFSAII (Michael W. Deem and Ramdas Pophale) SiO2 
 PCOD8259254
Probable space group: C M C M
;
_chemical_formula_sum "Si O2"
_cell_formula_units_Z 72
_cell_length_a 16.758444
_cell_length_b 24.467948
_cell_length_c 8.959856
_cell_angle_alpha 90.000000
_cell_angle_beta 90.000000
_cell_angle_gamma 90.000000
_cell_volume 3673.941791
_symmetry_space_group_name_H-M "C M C M"
_symmetry_group_IT_number 63
_symmetry_cell_setting 'orthorhombic'
loop_
_space_group_symop_operation_xyz
x,y,z
-x,-y,1/2+z
x,-y,-z
-x,y,1/2-z
-x,-y,-z
x,y,1/2-z
-x,y,z
x,-y,1/2+z
1/2+x,1/2+y,z
1/2-x,1/2-y,1/2+z
1/2+x,1/2-y,-z
1/2-x,1/2+y,1/2-z
1/2-x,1/2-y,-z
1/2+x,1/2+y,1/2-z
1/2-x,1/2+y,z
1/2+x,1/2-y,1/2+z
loop_
_atom_site_type_symbol
_atom_site_label
_atom_site_fract_x
_atom_site_fract_y
_atom_site_fract_z
Si Si1 0.909110 0.054353 0.574328
Si Si2 0.587999 0.739113 0.422405
Si Si3 0.000000 0.559977 0.071527
Si Si4 0.694986 0.345746 0.073688
Si Si5 0.875116 0.361833 0.424634
O O1 0.900574 0.048287 0.750000
O O2 0.859573 0.105292 0.512936
O O3 0.000000 0.063372 0.523872
O O4 0.873534 0.000000 0.500000
O O5 0.606550 0.728631 0.250000
O O6 0.500000 0.716071 0.466376
O O7 0.659072 0.710704 0.512617
O O8 0.585565 0.803407 0.456204
O O9 0.000000 0.555358 0.250000
O O10 0.000000 0.500000 0.000000
O O11 0.920919 0.592019 0.018066
O O12 0.693344 0.340793 0.250000
O O13 0.784116 0.357809 0.018121
O O14 0.880182 0.377456 0.250000
#
# Coordination Sequence:
#
# PCOD8259254 Si02
#       5
#    16  16   8  16  16
#     4   9  18  33  51  74 107 145 186 231 280 336
#     4  10  20  35  57  84 120 161 195 238 296 355
#     4  12  26  44  68  92 116 156 205 252 305 364
#     4  10  21  35  57  87 117 152 193 244 299 355
#     4  10  21  41  62  84 120 155 191 246 306 356
#
# _framework density 19.597479
#
# number of rings (size 3 to 8) (size 9 to 14) (size 15 to 20)
#    0.000    2.000    1.111    2.333    0.000    4.889 
#    0.000    4.444    0.000    0.000    0.000    0.000 
#    0.000    0.000    0.000    0.000    0.000    0.000 
#
# Total GULP energy -446422.591112 kJ/mol
# GULP energy per Si atom -12400.627531 kJ/mol
# Density = 1.955287 g / cm^3
# Si number density = 19.597479 Si / 1000 Ang^3
#
#
#
# Elastic Constant Matrix: (Units=GPa)
#
#
# Indices 1 2 3 4 5 6 
#
# 1 139.5531 64.9106 45.8099 0.0000 0.0000 0.0000
# 2 64.9106 105.2146 45.6177 0.0000 0.0000 0.0000
# 3 45.8099 45.6177 58.4582 0.0000 0.0000 0.0000
# 4 0.0000 0.0000 0.0000 34.3571 0.0000 0.0000
# 5 0.0000 0.0000 0.0000 0.0000 27.6346 0.0000
# 6 0.0000 0.0000 0.0000 0.0000 0.0000 19.0157
#
#
#
# Elastic Compliance Matrix: (Units=1/GPa)
#
#
# Indices 1 2 3 4 5 6 
#
# 1 0.010936 -0.004581 -0.004995 0.000000 0.000000 0.000000
# 2 -0.004581 0.016283 -0.009117 0.000000 0.000000 0.000000
# 3 -0.004995 -0.009117 0.028135 0.000000 0.000000 0.000000
# 4 0.000000 0.000000 0.000000 0.029106 0.000000 0.000000
# 5 0.000000 0.000000 0.000000 0.000000 0.036186 0.000000
# 6 0.000000 0.000000 0.000000 0.000000 0.000000 0.052588
#
#
# Mechanical properties :
#
#
# Convention : Reuss Voigt Hill
#
# Bulk Modulus (GPa) = 55.65331 68.43358 62.04345
# Shear Modulus (GPa) = 23.08289 25.99400 24.53845
#
# Velocity S-wave (km/s) = 3.43571 3.64592 3.54237
# Velocity P-wave (km/s) = 6.64820 7.26079 6.96124
#
# Compressibility (1/GPa) = 0.01796838
#
# Stress axis : x y z
#
# Youngs Moduli (GPa) = 91.43829 61.41202 35.54330
#
# Poissons Ratio (x) = 0.28135 0.17754
# Poissons Ratio (y) = 0.41891 0.32404
# Poissons Ratio (z) = 0.45674 0.55987
#
# Static dielectric constant tensor:
#      x y z
#    x 3.831290 0.000000 0.000000 
#    y 0.000000 3.640960 0.000000 
#    z 0.000000 0.000000 3.364840 
# 
# 
# High freq. dielectric constant tensor:
#      x y z
#    x 1.775810 0.000000 0.000000 
#    y 0.000000 1.767460 0.000000 
#    z 0.000000 0.000000 1.745660 
# 
# From -- ./inp_files/6091.got.cif
#   From: 2010.03.12/outbox.cif.g09.slc.cpg/sg63_4_cif.got.tgz:6091.got - 2010.04.10 19:34:48.
