data_PCOD8259358
_publ_section_title
;
Structure prediction by ZEFSAII (Michael W. Deem and Ramdas Pophale) SiO2 
 PCOD8259358
Probable space group: C M C M
;
_chemical_formula_sum "Si O2"
_cell_formula_units_Z 96
_cell_length_a 21.434205
_cell_length_b 16.112196
_cell_length_c 15.656455
_cell_angle_alpha 90.000000
_cell_angle_beta 90.000000
_cell_angle_gamma 90.000000
_cell_volume 5406.989802
_symmetry_space_group_name_H-M "C M C M"
_symmetry_group_IT_number 63
_symmetry_cell_setting 'orthorhombic'
loop_
_space_group_symop_operation_xyz
x,y,z
-x,-y,1/2+z
x,-y,-z
-x,y,1/2-z
-x,-y,-z
x,y,1/2-z
-x,y,z
x,-y,1/2+z
1/2+x,1/2+y,z
1/2-x,1/2-y,1/2+z
1/2+x,1/2-y,-z
1/2-x,1/2+y,1/2-z
1/2-x,1/2-y,-z
1/2+x,1/2+y,1/2-z
1/2-x,1/2+y,z
1/2+x,1/2-y,1/2+z
loop_
_atom_site_type_symbol
_atom_site_label
_atom_site_fract_x
_atom_site_fract_y
_atom_site_fract_z
Si Si1 0.213710 0.096548 0.503229
Si Si2 0.650497 0.860036 0.062968
Si Si3 0.072477 0.679630 0.405097
Si Si4 0.570034 0.004378 0.848343
Si Si5 0.795125 0.790257 0.653531
Si Si6 0.168848 0.199909 0.655724
O O1 0.286620 0.114968 0.514427
O O2 0.189404 0.138309 0.415306
O O3 0.174255 0.130037 0.583506
O O4 0.199821 0.000000 0.500000
O O5 0.664134 0.792448 0.136221
O O6 0.620630 0.943069 0.100828
O O7 0.602127 0.818225 0.998763
O O8 0.085698 0.591935 0.360032
O O9 0.103195 0.752475 0.349545
O O10 0.000000 0.699504 0.412230
O O11 0.574900 0.028437 0.750000
O O12 0.500000 0.023393 0.882845
O O13 0.809798 0.821315 0.750000
O O14 0.722612 0.768267 0.642624
O O15 0.174521 0.158664 0.750000
#
# Coordination Sequence:
#
# PCOD8259358 Si02
#       6
#    16  16  16  16  16  16
#     4  11  21  36  56  80 109 138 178 229 275 324
#     4  11  19  35  53  80 110 146 177 218 266 326
#     4  11  20  33  54  78 110 150 185 217 262 314
#     4  10  21  33  47  77 116 150 187 220 251 311
#     4  10  20  36  57  78 106 143 179 221 276 326
#     4  10  20  36  54  78 111 142 177 222 266 318
#
# _framework density 17.754795000000001
#
# number of rings (size 3 to 8) (size 9 to 14) (size 15 to 20)
#    0.000    1.500    3.333    4.000    0.000    3.667 
#    0.000    0.000    0.000    0.500    0.000    0.000 
#    0.000    0.000    0.000    0.000    0.000    0.000 
#
# Total GULP energy -595274.230722 kJ/mol
# GULP energy per Si atom -12401.546473 kJ/mol
# Density = 1.771438 g / cm^3
# Si number density = 17.754795 Si / 1000 Ang^3
#
#
#
# Elastic Constant Matrix: (Units=GPa)
#
#
# Indices 1 2 3 4 5 6 
#
# 1 81.4609 39.2215 29.6652 0.0000 0.0000 0.0000
# 2 39.2215 101.4183 58.3211 0.0000 0.0000 0.0000
# 3 29.6652 58.3211 124.7700 0.0000 0.0000 0.0000
# 4 0.0000 0.0000 0.0000 20.1200 0.0000 0.0000
# 5 0.0000 0.0000 0.0000 0.0000 18.8224 0.0000
# 6 0.0000 0.0000 0.0000 0.0000 0.0000 29.4072
#
#
#
# Elastic Compliance Matrix: (Units=1/GPa)
#
#
# Indices 1 2 3 4 5 6 
#
# 1 0.015212 -0.005201 -0.001186 0.000000 0.000000 0.000000
# 2 -0.005201 0.015263 -0.005898 0.000000 0.000000 0.000000
# 3 -0.001186 -0.005898 0.011053 0.000000 0.000000 0.000000
# 4 0.000000 0.000000 0.000000 0.049702 0.000000 0.000000
# 5 0.000000 0.000000 0.000000 0.000000 0.053128 0.000000
# 6 0.000000 0.000000 0.000000 0.000000 0.000000 0.034005
#
#
# Mechanical properties :
#
#
# Convention : Reuss Voigt Hill
#
# Bulk Modulus (GPa) = 58.96448 62.45165 60.70807
# Shear Modulus (GPa) = 23.97098 25.69936 24.83517
#
# Velocity S-wave (km/s) = 3.67837 3.80868 3.74409
# Velocity P-wave (km/s) = 7.16402 7.38866 7.27720
#
# Compressibility (1/GPa) = 0.01695936
#
# Stress axis : x y z
#
# Youngs Moduli (GPa) = 65.73854 65.51740 90.46945
#
# Poissons Ratio (x) = 0.34076 0.10726
# Poissons Ratio (y) = 0.34191 0.53357
# Poissons Ratio (z) = 0.07794 0.38641
#
# Static dielectric constant tensor:
#      x y z
#    x 3.267110 0.000000 0.000000 
#    y 0.000000 3.107350 0.000000 
#    z 0.000000 0.000000 3.485860 
# 
# 
# High freq. dielectric constant tensor:
#      x y z
#    x 1.669380 0.000000 0.000000 
#    y 0.000000 1.665740 0.000000 
#    z 0.000000 0.000000 1.703430 
# 
# From -- ./inp_files/35296.got.cif
#   From: 2010.03.12/outbox.cif.g09.slc.cpg/sg63_18_cif.got.tgz:35296.got - 2010.04.10 19:34:48.
