data_PCOD8259008
_publ_section_title
;
Structure prediction by ZEFSAII (Michael W. Deem and Ramdas Pophale) SiO2 
 PCOD8259008
Probable space group: C M C M
;
_chemical_formula_sum "Si O2"
_cell_formula_units_Z 88
_cell_length_a 27.120346
_cell_length_b 19.159460
_cell_length_c 9.189172
_cell_angle_alpha 90.000000
_cell_angle_beta 90.000000
_cell_angle_gamma 90.000000
_cell_volume 4774.796546
_symmetry_space_group_name_H-M "C M C M"
_symmetry_group_IT_number 63
_symmetry_cell_setting 'orthorhombic'
loop_
_space_group_symop_operation_xyz
x,y,z
-x,-y,1/2+z
x,-y,-z
-x,y,1/2-z
-x,-y,-z
x,y,1/2-z
-x,y,z
x,-y,1/2+z
1/2+x,1/2+y,z
1/2-x,1/2-y,1/2+z
1/2+x,1/2-y,-z
1/2-x,1/2+y,1/2-z
1/2-x,1/2-y,-z
1/2+x,1/2+y,1/2-z
1/2-x,1/2+y,z
1/2+x,1/2-y,1/2+z
loop_
_atom_site_type_symbol
_atom_site_label
_atom_site_fract_x
_atom_site_fract_y
_atom_site_fract_z
Si Si1 0.875321 0.305764 0.921474
Si Si2 0.556111 0.066987 0.419060
Si Si3 0.598665 0.651724 0.577599
Si Si4 0.225076 0.686331 0.580639
Si Si5 0.305950 0.570933 0.581866
Si Si6 0.000000 0.074582 0.923616
O O1 0.862855 0.303318 0.750000
O O2 0.916064 0.362623 0.961278
O O3 0.896051 0.231334 0.977089
O O4 0.827346 0.328620 0.009322
O O5 0.560458 0.051069 0.250000
O O6 0.500000 0.078259 0.469240
O O7 0.579368 0.000000 0.500000
O O8 0.599456 0.651808 0.750000
O O9 0.645055 0.607797 0.517010
O O10 0.547791 0.617642 0.522011
O O11 0.219226 0.704721 0.750000
O O12 0.250000 0.750000 0.500000
O O13 0.258601 0.618828 0.557491
O O14 0.295358 0.500000 0.500000
O O15 0.314411 0.553894 0.750000
O O16 0.000000 0.064241 0.750000
O O17 0.000000 0.000000 0.000000
#
# Coordination Sequence:
#
# PCOD8259008 Si02
#       6
#    16  16  16  16  16   8
#     4  10  20  36  58  83 112 144 187 233 276 330
#     4   9  19  35  57  83 112 149 187 228 279 334
#     4   9  18  34  55  81 110 142 181 226 271 318
#     4  11  22  38  58  81 111 146 185 228 279 329
#     4  10  21  37  56  80 110 143 181 223 269 325
#     4  10  20  34  56  80 109 146 180 224 273 320
#
# _framework density 18.430105999999999
#
# number of rings (size 3 to 8) (size 9 to 14) (size 15 to 20)
#    0.000    2.182    1.818    1.091    1.273    2.909 
#    0.000    4.545    0.000    0.000    0.000    0.000 
#    0.000    0.000    0.000    0.000    0.000    0.000 
#
# Total GULP energy -545661.265122 kJ/mol
# GULP energy per Si atom -12401.392389 kJ/mol
# Density = 1.838816 g / cm^3
# Si number density = 18.430106 Si / 1000 Ang^3
#
#
#
# Elastic Constant Matrix: (Units=GPa)
#
#
# Indices 1 2 3 4 5 6 
#
# 1 133.6588 74.6659 49.3650 0.0000 0.0000 0.0000
# 2 74.6659 160.0243 61.4799 0.0000 0.0000 0.0000
# 3 49.3650 61.4799 56.3402 0.0000 0.0000 0.0000
# 4 0.0000 0.0000 0.0000 33.1471 0.0000 0.0000
# 5 0.0000 0.0000 0.0000 0.0000 27.4076 0.0000
# 6 0.0000 0.0000 0.0000 0.0000 0.0000 25.3316
#
#
#
# Elastic Compliance Matrix: (Units=1/GPa)
#
#
# Indices 1 2 3 4 5 6 
#
# 1 0.011662 -0.002610 -0.007370 0.000000 0.000000 0.000000
# 2 -0.002610 0.011344 -0.010092 0.000000 0.000000 0.000000
# 3 -0.007370 -0.010092 0.035220 0.000000 0.000000 0.000000
# 4 0.000000 0.000000 0.000000 0.030169 0.000000 0.000000
# 5 0.000000 0.000000 0.000000 0.000000 0.036486 0.000000
# 6 0.000000 0.000000 0.000000 0.000000 0.000000 0.039476
#
#
# Mechanical properties :
#
#
# Convention : Reuss Voigt Hill
#
# Bulk Modulus (GPa) = 55.30542 80.11609 67.71075
# Shear Modulus (GPa) = 23.74976 28.14475 25.94726
#
# Velocity S-wave (km/s) = 3.59366 3.91206 3.75623
# Velocity P-wave (km/s) = 6.87695 7.99814 7.45864
#
# Compressibility (1/GPa) = 0.01808141
#
# Stress axis : x y z
#
# Youngs Moduli (GPa) = 85.75131 88.15146 28.39295
#
# Poissons Ratio (x) = 0.23005 0.20926
# Poissons Ratio (y) = 0.22378 0.28655
# Poissons Ratio (z) = 0.63200 0.88966
#
# Static dielectric constant tensor:
#      x y z
#    x 3.610470 0.000000 0.000000 
#    y 0.000000 3.284520 0.000000 
#    z 0.000000 0.000000 3.150740 
# 
# 
# High freq. dielectric constant tensor:
#      x y z
#    x 1.724620 0.000000 0.000000 
#    y 0.000000 1.726510 0.000000 
#    z 0.000000 0.000000 1.692080 
# 
# From -- ./inp_files/14241.got.cif
#   From: 2010.03.12/outbox.cif.g09.slc.cpg/sg63_8_cif.got.tgz:14241.got - 2010.04.10 19:34:48.
