data_PCOD8259004
_publ_section_title
;
Structure prediction by ZEFSAII (Michael W. Deem and Ramdas Pophale) SiO2 
 PCOD8259004
Probable space group: C M C M
;
_chemical_formula_sum "Si O2"
_cell_formula_units_Z 96
_cell_length_a 21.761194
_cell_length_b 8.831258
_cell_length_c 24.294477
_cell_angle_alpha 90.000000
_cell_angle_beta 90.000000
_cell_angle_gamma 90.000000
_cell_volume 4668.881459
_symmetry_space_group_name_H-M "C M C M"
_symmetry_group_IT_number 63
_symmetry_cell_setting 'orthorhombic'
loop_
_space_group_symop_operation_xyz
x,y,z
-x,-y,1/2+z
x,-y,-z
-x,y,1/2-z
-x,-y,-z
x,y,1/2-z
-x,y,z
x,-y,1/2+z
1/2+x,1/2+y,z
1/2-x,1/2-y,1/2+z
1/2+x,1/2-y,-z
1/2-x,1/2+y,1/2-z
1/2-x,1/2-y,-z
1/2+x,1/2+y,1/2-z
1/2-x,1/2+y,z
1/2+x,1/2-y,1/2+z
loop_
_atom_site_type_symbol
_atom_site_label
_atom_site_fract_x
_atom_site_fract_y
_atom_site_fract_z
Si Si1 0.303009 0.669812 0.187723
Si Si2 0.430564 0.326914 0.996176
Si Si3 0.430060 0.169226 0.386234
Si Si4 0.738016 0.618524 0.541142
Si Si5 0.681672 0.327827 0.152240
Si Si6 0.137285 0.363740 0.094612
O O1 0.320082 0.713168 0.250000
O O2 0.312250 0.490241 0.180683
O O3 0.231891 0.711687 0.176490
O O4 0.348250 0.762096 0.148086
O O5 0.500000 0.319312 0.973959
O O6 0.388224 0.244333 0.952269
O O7 0.408928 0.500000 0.000000
O O8 0.424968 0.243548 0.054130
O O9 0.500000 0.177508 0.364335
O O10 0.386529 0.255902 0.341613
O O11 0.410389 0.993893 0.389812
O O12 0.707799 0.500000 0.500000
O O13 0.750000 0.750000 0.500000
O O14 0.688328 0.660612 0.586470
O O15 0.799793 0.560585 0.571940
#
# Coordination Sequence:
#
# PCOD8259004 Si02
#       6
#    16  16  16  16  16  16
#     4  11  24  42  67  92 118 157 205 266 325 373
#     4  10  20  34  55  86 126 168 205 242 292 365
#     4  11  23  39  61  90 127 169 208 248 302 375
#     4  11  20  31  52  85 122 152 185 238 300 364
#     4  11  22  39  62  91 123 159 203 252 312 377
#     4  11  21  36  59  87 121 162 207 252 307 367
#
# _framework density 20.561668999999998
#
# number of rings (size 3 to 8) (size 9 to 14) (size 15 to 20)
#    0.000    1.167    0.000    9.500    0.000    2.667 
#    0.000    1.667    0.000    8.000    0.000    0.000 
#    0.000    0.000    0.000    0.000    0.000    0.000 
#
# Total GULP energy -595115.074592 kJ/mol
# GULP energy per Si atom -12398.230721 kJ/mol
# Density = 2.051487 g / cm^3
# Si number density = 20.561669 Si / 1000 Ang^3
#
#
#
# Elastic Constant Matrix: (Units=GPa)
#
#
# Indices 1 2 3 4 5 6 
#
# 1 134.2388 49.0752 15.1871 0.0000 0.0000 0.0000
# 2 49.0752 124.3575 16.8263 0.0000 0.0000 0.0000
# 3 15.1871 16.8263 53.8137 0.0000 0.0000 0.0000
# 4 0.0000 0.0000 0.0000 23.9383 0.0000 0.0000
# 5 0.0000 0.0000 0.0000 0.0000 -7.1991 0.0000
# 6 0.0000 0.0000 0.0000 0.0000 0.0000 32.9465
#
#
#
# Elastic Compliance Matrix: (Units=1/GPa)
#
#
# Indices 1 2 3 4 5 6 
#
# 1 0.008814 -0.003281 -0.001462 0.000000 0.000000 0.000000
# 2 -0.003281 0.009618 -0.002081 0.000000 0.000000 0.000000
# 3 -0.001462 -0.002081 0.019646 0.000000 0.000000 0.000000
# 4 0.000000 0.000000 0.000000 0.041774 0.000000 0.000000
# 5 0.000000 0.000000 0.000000 0.000000 -0.138907 0.000000
# 6 0.000000 0.000000 0.000000 0.000000 0.000000 0.030352
#
#
# Mechanical properties :
#
#
# Convention : Reuss Voigt Hill
#
# Bulk Modulus (GPa) = 40.93274 52.73192 46.83233
# Shear Modulus (GPa) = -723.36465 25.35858 -349.00304
#
# Velocity S-wave (km/s) = -18.77675 3.51564 -13.04236
# Velocity P-wave (km/s) = 21.21645 6.49469 14.28210
#
# Compressibility (1/GPa) = 0.02443032
#
# Stress axis : x y z
#
# Youngs Moduli (GPa) = 113.45485 103.97667 50.90108
#
# Poissons Ratio (x) = 0.34110 0.07440
# Poissons Ratio (y) = 0.37219 0.10594
# Poissons Ratio (z) = 0.16584 0.21641
#
# Static dielectric constant tensor:
#      x y z
#    x 4.030210 0.000000 0.000000 
#    y 0.000000 3.727350 0.000000 
#    z 0.000000 0.000000 3.553110 
# 
# 
# High freq. dielectric constant tensor:
#      x y z
#    x 1.809300 0.000000 0.000000 
#    y 0.000000 1.819760 0.000000 
#    z 0.000000 0.000000 1.782200 
# 
# From -- ./inp_files/64985.got.cif
#   From: 2010.03.12/outbox.cif.g09.slc.cpg/sg63_33_cif.got.tgz:64985.got - 2010.04.10 19:34:48.
