data_PCOD8259303
_publ_section_title
;
Structure prediction by ZEFSAII (Michael W. Deem and Ramdas Pophale) SiO2 
 PCOD8259303
Probable space group: C M C M
;
_chemical_formula_sum "Si O2"
_cell_formula_units_Z 112
_cell_length_a 23.957523
_cell_length_b 15.442576
_cell_length_c 13.031365
_cell_angle_alpha 90.000000
_cell_angle_beta 90.000000
_cell_angle_gamma 90.000000
_cell_volume 4821.160286
_symmetry_space_group_name_H-M "C M C M"
_symmetry_group_IT_number 63
_symmetry_cell_setting 'orthorhombic'
loop_
_space_group_symop_operation_xyz
x,y,z
-x,-y,1/2+z
x,-y,-z
-x,y,1/2-z
-x,-y,-z
x,y,1/2-z
-x,y,z
x,-y,1/2+z
1/2+x,1/2+y,z
1/2-x,1/2-y,1/2+z
1/2+x,1/2-y,-z
1/2-x,1/2+y,1/2-z
1/2-x,1/2-y,-z
1/2+x,1/2+y,1/2-z
1/2-x,1/2+y,z
1/2+x,1/2-y,1/2+z
loop_
_atom_site_type_symbol
_atom_site_label
_atom_site_fract_x
_atom_site_fract_y
_atom_site_fract_z
Si Si1 0.438336 0.093574 0.458336
Si Si2 0.175507 0.560825 0.368394
Si Si3 0.860187 0.060919 0.636898
Si Si4 0.064425 0.289027 0.138986
Si Si5 0.235648 0.603816 0.632834
Si Si6 0.759658 0.796710 0.870293
Si Si7 0.621846 0.627806 0.426346
O O1 0.500000 0.128476 0.418740
O O2 0.389892 0.086782 0.373324
O O3 0.410896 0.152351 0.548320
O O4 0.450574 0.000000 0.500000
O O5 0.192977 0.553814 0.250000
O O6 0.189493 0.463681 0.415810
O O7 0.214261 0.636082 0.419707
O O8 0.876459 0.096568 0.750000
O O9 0.793704 0.051841 0.624841
O O10 0.882650 0.126372 0.550503
O O11 0.886910 0.966826 0.620741
O O12 0.092273 0.311743 0.250000
O O13 0.072409 0.188007 0.114253
O O14 0.000000 0.310555 0.146447
O O15 0.218861 0.623488 0.750000
O O16 0.242892 0.699244 0.579063
O O17 0.745741 0.788179 0.750000
O O18 0.820701 0.833149 0.887378
#
# Coordination Sequence:
#
# PCOD8259303 Si02
#       7
#    16  16  16  16  16  16  16
#     4  10  24  43  61  87 125 167 217 272 325 385
#     4  10  21  38  62  94 133 172 214 268 324 395
#     4  10  21  39  59  90 135 170 204 257 327 395
#     4  10  23  45  70  94 122 162 219 280 327 379
#     4   9  19  35  56  87 128 170 210 256 316 385
#     4  10  20  35  58  92 130 166 214 267 318 385
#     4  11  22  37  67  95 121 168 217 267 320 388
#
# _framework density 23.230922
#
# number of rings (size 3 to 8) (size 9 to 14) (size 15 to 20)
#    0.000    2.000    1.429    1.286    4.000    2.571 
#    0.000    2.857    0.000    2.143    0.000    0.000 
#    0.000    0.000    0.000    0.000    0.000    0.000 
#
# Total GULP energy -694061.409409 kJ/mol
# GULP energy per Si atom -12393.953739 kJ/mol
# Density = 2.317805 g / cm^3
# Si number density = 23.230922 Si / 1000 Ang^3
#
#
#
# Elastic Constant Matrix: (Units=GPa)
#
#
# Indices 1 2 3 4 5 6 
#
# 1 46.6502 41.8521 17.1023 0.0000 0.0000 0.0000
# 2 41.8521 143.3685 31.4114 0.0000 0.0000 0.0000
# 3 17.1023 31.4114 43.8963 0.0000 0.0000 0.0000
# 4 0.0000 0.0000 0.0000 -24.4985 0.0000 0.0000
# 5 0.0000 0.0000 0.0000 0.0000 27.4713 0.0000
# 6 0.0000 0.0000 0.0000 0.0000 0.0000 36.7670
#
#
#
# Elastic Compliance Matrix: (Units=1/GPa)
#
#
# Indices 1 2 3 4 5 6 
#
# 1 0.030551 -0.007484 -0.006547 0.000000 0.000000 0.000000
# 2 -0.007484 0.010105 -0.004315 0.000000 0.000000 0.000000
# 3 -0.006547 -0.004315 0.028420 0.000000 0.000000 0.000000
# 4 0.000000 0.000000 0.000000 -0.040819 0.000000 0.000000
# 5 0.000000 0.000000 0.000000 0.000000 0.036402 0.000000
# 6 0.000000 0.000000 0.000000 0.000000 0.000000 0.027198
#
#
# Mechanical properties :
#
#
# Convention : Reuss Voigt Hill
#
# Bulk Modulus (GPa) = 30.88096 46.07185 38.47641
# Shear Modulus (GPa) = 35.88244 17.51792 26.70018
#
# Velocity S-wave (km/s) = 3.93440 2.74903 3.39387
# Velocity P-wave (km/s) = 5.82763 5.47278 5.65299
#
# Compressibility (1/GPa) = 0.03238241
#
# Stress axis : x y z
#
# Youngs Moduli (GPa) = 32.73265 98.95932 35.18666
#
# Poissons Ratio (x) = 0.74059 0.23038
# Poissons Ratio (y) = 0.24496 0.15184
# Poissons Ratio (z) = 0.21432 0.42704
#
# Static dielectric constant tensor:
#      x y z
#    x 3.899620 0.000000 0.000000 
#    y 0.000000 4.498970 0.000000 
#    z 0.000000 0.000000 4.484710 
# 
# 
# High freq. dielectric constant tensor:
#      x y z
#    x 1.884070 0.000000 0.000000 
#    y 0.000000 1.926310 0.000000 
#    z 0.000000 0.000000 1.932110 
# 
# From -- ./inp_files/36857.got.cif
#   From: 2010.03.12/outbox.cif.g09.slc.cpg/sg63_19_cif.got.tgz:36857.got - 2010.04.10 19:34:48.
