data_PCOD8259773
_publ_section_title
;
Structure prediction by ZEFSAII (Michael W. Deem and Ramdas Pophale) SiO2 
 PCOD8259773
Probable space group: C M C M
;
_chemical_formula_sum "Si O2"
_cell_formula_units_Z 112
_cell_length_a 14.044916
_cell_length_b 28.045607
_cell_length_c 13.841672
_cell_angle_alpha 90.000000
_cell_angle_beta 90.000000
_cell_angle_gamma 90.000000
_cell_volume 5452.209609
_symmetry_space_group_name_H-M "C M C M"
_symmetry_group_IT_number 63
_symmetry_cell_setting 'orthorhombic'
loop_
_space_group_symop_operation_xyz
x,y,z
-x,-y,1/2+z
x,-y,-z
-x,y,1/2-z
-x,-y,-z
x,y,1/2-z
-x,y,z
x,-y,1/2+z
1/2+x,1/2+y,z
1/2-x,1/2-y,1/2+z
1/2+x,1/2-y,-z
1/2-x,1/2+y,1/2-z
1/2-x,1/2-y,-z
1/2+x,1/2+y,1/2-z
1/2-x,1/2+y,z
1/2+x,1/2-y,1/2+z
loop_
_atom_site_type_symbol
_atom_site_label
_atom_site_fract_x
_atom_site_fract_y
_atom_site_fract_z
Si Si1 0.387510 0.479627 0.644482
Si Si2 0.389714 0.425189 0.037317
Si Si3 0.789379 0.276201 0.357586
Si Si4 0.387898 0.233406 0.050849
Si Si5 0.768738 0.384301 0.357522
Si Si6 0.612498 0.054242 0.507193
Si Si7 0.612078 0.132489 0.141972
O O1 0.341250 0.471148 0.750000
O O2 0.500000 0.482707 0.651922
O O3 0.362034 0.435623 0.574075
O O4 0.354426 0.529525 0.599710
O O5 0.500000 0.412694 0.050461
O O6 0.326455 0.381878 0.075991
O O7 0.812091 0.255405 0.250000
O O8 0.677770 0.266608 0.381292
O O9 0.859569 0.254779 0.439415
O O10 0.812363 0.332003 0.356787
O O11 0.500000 0.244449 0.067484
O O12 0.360741 0.178979 0.078910
O O13 0.740943 0.400653 0.250000
O O14 0.845462 0.421728 0.397279
O O15 0.500000 0.055012 0.517957
O O16 0.646914 0.084809 0.413771
O O17 0.650589 0.000000 0.500000
O O18 0.657880 0.134420 0.250000
O O19 0.500000 0.130579 0.153327
#
# Coordination Sequence:
#
# PCOD8259773 Si02
#       7
#    16  16  16  16  16  16  16
#     4   8  14  27  48  71  94 130 184 239 287 334
#     4   9  18  31  48  72 106 144 185 235 285 343
#     4  10  22  38  59  91 125 156 196 246 301 363
#     4  10  20  38  64  91 122 158 198 246 300 364
#     4  11  23  37  55  82 117 156 196 239 294 356
#     4  10  22  39  57  81 117 156 200 253 299 345
#     4   9  17  33  59  86 111 147 196 244 296 355
#
# _framework density 20.54213
#
# number of rings (size 3 to 8) (size 9 to 14) (size 15 to 20)
#    0.000    2.429    1.429    1.714    2.000    3.429 
#    0.000    5.000    0.000    0.000    0.000    2.000 
#    0.000    0.000    0.000    0.000    0.000    0.000 
#
# Total GULP energy -694036.042747 kJ/mol
# GULP energy per Si atom -12393.500763 kJ/mol
# Density = 2.049538 g / cm^3
# Si number density = 20.542130 Si / 1000 Ang^3
#
#
#
# Elastic Constant Matrix: (Units=GPa)
#
#
# Indices 1 2 3 4 5 6 
#
# 1 53.7183 11.9350 14.4688 0.0000 0.0000 0.0000
# 2 11.9350 68.2734 20.8123 0.0000 0.0000 0.0000
# 3 14.4688 20.8123 147.7379 0.0000 0.0000 0.0000
# 4 0.0000 0.0000 0.0000 44.8389 0.0000 0.0000
# 5 0.0000 0.0000 0.0000 0.0000 25.5084 0.0000
# 6 0.0000 0.0000 0.0000 0.0000 0.0000 20.6344
#
#
#
# Elastic Compliance Matrix: (Units=1/GPa)
#
#
# Indices 1 2 3 4 5 6 
#
# 1 0.019684 -0.002981 -0.001508 0.000000 0.000000 0.000000
# 2 -0.002981 0.015756 -0.001928 0.000000 0.000000 0.000000
# 3 -0.001508 -0.001928 0.007188 0.000000 0.000000 0.000000
# 4 0.000000 0.000000 0.000000 0.022302 0.000000 0.000000
# 5 0.000000 0.000000 0.000000 0.000000 0.039203 0.000000
# 6 0.000000 0.000000 0.000000 0.000000 0.000000 0.048463
#
#
# Mechanical properties :
#
#
# Convention : Reuss Voigt Hill
#
# Bulk Modulus (GPa) = 33.56341 40.46244 37.01293
# Shear Modulus (GPa) = 28.51272 33.03058 30.77165
#
# Velocity S-wave (km/s) = 3.72964 4.01427 3.87457
# Velocity P-wave (km/s) = 5.90942 6.42074 6.17038
#
# Compressibility (1/GPa) = 0.02979435
#
# Stress axis : x y z
#
# Youngs Moduli (GPa) = 50.80232 63.46881 139.12164
#
# Poissons Ratio (x) = 0.18923 0.20977
# Poissons Ratio (y) = 0.15146 0.26817
# Poissons Ratio (z) = 0.07660 0.12234
#
# Static dielectric constant tensor:
#      x y z
#    x 3.449220 0.000000 0.000000 
#    y 0.000000 3.564810 0.000000 
#    z 0.000000 0.000000 4.479710 
# 
# 
# High freq. dielectric constant tensor:
#      x y z
#    x 1.785860 0.000000 0.000000 
#    y 0.000000 1.779380 0.000000 
#    z 0.000000 0.000000 1.816750 
# 
# From -- ./inp_files/32554.got.cif
#   From: 2010.03.12/outbox.cif.g09.slc.cpg/sg63_17_cif.got.tgz:32554.got - 2010.04.10 19:34:48.
