data_PCOD8259049
_publ_section_title
;
Structure prediction by ZEFSAII (Michael W. Deem and Ramdas Pophale) SiO2 
 PCOD8259049
Probable space group: C M C M
;
_chemical_formula_sum "Si O2"
_cell_formula_units_Z 64
_cell_length_a 30.924311
_cell_length_b 10.983088
_cell_length_c 9.922938
_cell_angle_alpha 90.000000
_cell_angle_beta 90.000000
_cell_angle_gamma 90.000000
_cell_volume 3370.270612
_symmetry_space_group_name_H-M "C M C M"
_symmetry_group_IT_number 63
_symmetry_cell_setting 'orthorhombic'
loop_
_space_group_symop_operation_xyz
x,y,z
-x,-y,1/2+z
x,-y,-z
-x,y,1/2-z
-x,-y,-z
x,y,1/2-z
-x,y,z
x,-y,1/2+z
1/2+x,1/2+y,z
1/2-x,1/2-y,1/2+z
1/2+x,1/2-y,-z
1/2-x,1/2+y,1/2-z
1/2-x,1/2-y,-z
1/2+x,1/2+y,1/2-z
1/2-x,1/2+y,z
1/2+x,1/2-y,1/2+z
loop_
_atom_site_type_symbol
_atom_site_label
_atom_site_fract_x
_atom_site_fract_y
_atom_site_fract_z
Si Si1 0.500000 0.605758 0.103009
Si Si2 0.287567 0.282072 0.397885
Si Si3 0.153874 0.000000 0.000000
Si Si4 0.093737 0.199723 0.101426
Si Si5 0.866133 0.615297 0.404122
O O1 0.500000 0.544888 0.250000
O O2 0.542687 0.685116 0.084038
O O3 0.500000 0.500000 0.000000
O O4 0.266664 0.297857 0.250000
O O5 0.250000 0.250000 0.500000
O O6 0.314649 0.404527 0.426099
O O7 0.317469 0.163283 0.399621
O O8 0.121655 0.074452 0.098343
O O9 0.103267 0.257479 0.250000
O O10 0.104813 0.282908 0.974621
O O11 0.868676 0.500000 0.500000
O O12 0.882239 0.589234 0.250000
#
# Coordination Sequence:
#
# PCOD8259049 Si02
#       5
#     8  16   8  16  16
#     4  10  20  34  57  90 121 152 189 231 283 341
#     4  10  23  38  56  83 111 147 190 238 288 340
#     4  10  20  37  60  84 114 150 194 235 284 342
#     4  10  20  36  60  88 119 152 188 235 286 339
#     4  10  22  40  60  83 112 150 195 237 287 343
#
# _framework density 18.989573
#
# number of rings (size 3 to 8) (size 9 to 14) (size 15 to 20)
#    0.000    2.000    1.250    1.500    1.750    8.000 
#    0.000    0.625    0.000    0.000    0.000    0.000 
#    0.000    0.000    0.000    0.000    0.000    0.000 
#
# Total GULP energy -396486.853702 kJ/mol
# GULP energy per Si atom -12390.214178 kJ/mol
# Density = 1.894635 g / cm^3
# Si number density = 18.989573 Si / 1000 Ang^3
#
#
#
# Elastic Constant Matrix: (Units=GPa)
#
#
# Indices 1 2 3 4 5 6 
#
# 1 119.9686 39.0341 71.8716 0.0000 0.0000 0.0000
# 2 39.0341 93.8632 62.1214 0.0000 0.0000 0.0000
# 3 71.8716 62.1214 190.8508 0.0000 0.0000 0.0000
# 4 0.0000 0.0000 0.0000 31.4597 0.0000 0.0000
# 5 0.0000 0.0000 0.0000 0.0000 29.6241 0.0000
# 6 0.0000 0.0000 0.0000 0.0000 0.0000 10.6763
#
#
#
# Elastic Compliance Matrix: (Units=1/GPa)
#
#
# Indices 1 2 3 4 5 6 
#
# 1 0.011163 -0.002371 -0.003432 0.000000 0.000000 0.000000
# 2 -0.002371 0.014083 -0.003691 0.000000 0.000000 0.000000
# 3 -0.003432 -0.003691 0.007734 0.000000 0.000000 0.000000
# 4 0.000000 0.000000 0.000000 0.031787 0.000000 0.000000
# 5 0.000000 0.000000 0.000000 0.000000 0.033756 0.000000
# 6 0.000000 0.000000 0.000000 0.000000 0.000000 0.093665
#
#
# Mechanical properties :
#
#
# Convention : Reuss Voigt Hill
#
# Bulk Modulus (GPa) = 71.47310 83.41521 77.44415
# Shear Modulus (GPa) = 23.16541 29.79571 26.48056
#
# Velocity S-wave (km/s) = 3.49650 3.96543 3.73832
# Velocity P-wave (km/s) = 7.34986 8.06154 7.71391
#
# Compressibility (1/GPa) = 0.01399128
#
# Stress axis : x y z
#
# Youngs Moduli (GPa) = 89.58115 71.00984 129.30558
#
# Poissons Ratio (x) = 0.16835 0.44380
# Poissons Ratio (y) = 0.21238 0.47727
# Poissons Ratio (z) = 0.30746 0.26210
#
# Static dielectric constant tensor:
#      x y z
#    x 3.462670 0.000000 0.000000 
#    y 0.000000 3.486250 0.000000 
#    z 0.000000 0.000000 3.783390 
# 
# 
# High freq. dielectric constant tensor:
#      x y z
#    x 1.736100 0.000000 0.000000 
#    y 0.000000 1.727330 0.000000 
#    z 0.000000 0.000000 1.757840 
# 
# From -- ./inp_files/13750.got.cif
#   From: 2010.03.12/outbox.cif.g09.slc.cpg/sg63_7_cif.got.tgz:13750.got - 2010.04.10 19:34:48.
