data_PCOD8259478
_publ_section_title
;
Structure prediction by ZEFSAII (Michael W. Deem and Ramdas Pophale) SiO2 
 PCOD8259478
Probable space group: C M C M
;
_chemical_formula_sum "Si O2"
_cell_formula_units_Z 88
_cell_length_a 22.290428
_cell_length_b 24.391065
_cell_length_c 8.432101
_cell_angle_alpha 90.000000
_cell_angle_beta 90.000000
_cell_angle_gamma 90.000000
_cell_volume 4584.426042
_symmetry_space_group_name_H-M "C M C M"
_symmetry_group_IT_number 63
_symmetry_cell_setting 'orthorhombic'
loop_
_space_group_symop_operation_xyz
x,y,z
-x,-y,1/2+z
x,-y,-z
-x,y,1/2-z
-x,-y,-z
x,y,1/2-z
-x,y,z
x,-y,1/2+z
1/2+x,1/2+y,z
1/2-x,1/2-y,1/2+z
1/2+x,1/2-y,-z
1/2-x,1/2+y,1/2-z
1/2-x,1/2-y,-z
1/2+x,1/2+y,1/2-z
1/2-x,1/2+y,z
1/2+x,1/2-y,1/2+z
loop_
_atom_site_type_symbol
_atom_site_label
_atom_site_fract_x
_atom_site_fract_y
_atom_site_fract_z
Si Si1 0.430584 0.144432 0.432855
Si Si2 0.843362 0.442463 0.434344
Si Si3 0.285494 0.559879 0.063943
Si Si4 0.500000 0.561125 0.062860
Si Si5 0.068974 0.240203 0.433616
Si Si6 0.889628 0.870369 0.435424
O O1 0.418391 0.130788 0.250000
O O2 0.500000 0.136796 0.478516
O O3 0.393357 0.103463 0.542125
O O4 0.410683 0.206609 0.467885
O O5 0.868754 0.500000 0.500000
O O6 0.827359 0.448642 0.250000
O O7 0.783550 0.425994 0.529168
O O8 0.298665 0.562795 0.250000
O O9 0.302542 0.500000 0.000000
O O10 0.325135 0.604299 0.972821
O O11 0.500000 0.560793 0.250000
O O12 0.500000 0.500000 0.000000
O O13 0.559236 0.591148 0.005046
O O14 0.079054 0.253257 0.250000
O O15 0.109475 0.189415 0.485741
O O16 0.000000 0.225004 0.470092
O O17 0.899738 0.864007 0.250000
#
# Coordination Sequence:
#
# PCOD8259478 Si02
#       6
#    16  16  16   8  16  16
#     4  10  21  38  61  89 120 153 191 234 285 343
#     4  11  22  39  62  88 118 152 191 234 287 345
#     4  11  22  39  60  83 114 152 194 238 289 346
#     4  12  24  38  54  80 114 150 193 246 297 342
#     4  10  20  36  58  84 116 153 194 238 288 343
#     4  12  23  37  57  83 114 152 196 240 290 343
#
# _framework density 19.195423000000002
#
# number of rings (size 3 to 8) (size 9 to 14) (size 15 to 20)
#    0.000    1.091    0.909    8.455    0.000    2.182 
#    0.000    0.909    0.000    0.000    0.000    0.000 
#    0.000    0.000    0.000    0.000    0.000    0.000 
#
# Total GULP energy -545917.976326 kJ/mol
# GULP energy per Si atom -12407.226735 kJ/mol
# Density = 1.915173 g / cm^3
# Si number density = 19.195423 Si / 1000 Ang^3
#
#
#
# Elastic Constant Matrix: (Units=GPa)
#
#
# Indices 1 2 3 4 5 6 
#
# 1 69.0087 56.3565 8.5027 0.0000 0.0000 0.0000
# 2 56.3565 114.2275 8.1629 0.0000 0.0000 0.0000
# 3 8.5027 8.1629 78.9176 0.0000 0.0000 0.0000
# 4 0.0000 0.0000 0.0000 36.7661 0.0000 0.0000
# 5 0.0000 0.0000 0.0000 0.0000 30.7800 0.0000
# 6 0.0000 0.0000 0.0000 0.0000 0.0000 23.6146
#
#
#
# Elastic Compliance Matrix: (Units=1/GPa)
#
#
# Indices 1 2 3 4 5 6 
#
# 1 0.024421 -0.011949 -0.001395 0.000000 0.000000 0.000000
# 2 -0.011949 0.014666 -0.000230 0.000000 0.000000 0.000000
# 3 -0.001395 -0.000230 0.012846 0.000000 0.000000 0.000000
# 4 0.000000 0.000000 0.000000 0.027199 0.000000 0.000000
# 5 0.000000 0.000000 0.000000 0.000000 0.032489 0.000000
# 6 0.000000 0.000000 0.000000 0.000000 0.000000 0.042347
#
#
# Mechanical properties :
#
#
# Convention : Reuss Voigt Hill
#
# Bulk Modulus (GPa) = 40.34668 45.35533 42.85101
# Shear Modulus (GPa) = 26.40249 30.84091 28.62170
#
# Velocity S-wave (km/s) = 3.71274 4.01269 3.86563
# Velocity P-wave (km/s) = 6.28043 6.71926 6.50354
#
# Compressibility (1/GPa) = 0.02478518
#
# Stress axis : x y z
#
# Youngs Moduli (GPa) = 40.94845 68.18453 77.84821
#
# Poissons Ratio (x) = 0.81473 0.10861
# Poissons Ratio (y) = 0.48929 0.01788
# Poissons Ratio (z) = 0.05713 0.01566
#
# Static dielectric constant tensor:
#      x y z
#    x 3.475940 0.000000 0.000000 
#    y 0.000000 3.550720 0.000000 
#    z 0.000000 0.000000 3.637310 
# 
# 
# High freq. dielectric constant tensor:
#      x y z
#    x 1.733460 0.000000 0.000000 
#    y 0.000000 1.752400 0.000000 
#    z 0.000000 0.000000 1.768580 
# 
# From -- ./inp_files/10231.got.cif
#   From: 2010.03.12/outbox.cif.g09.slc.cpg/sg63_6_cif.got.tgz:10231.got - 2010.04.10 19:34:48.
