data_PCOD8259104
_publ_section_title
;
Structure prediction by ZEFSAII (Michael W. Deem and Ramdas Pophale) SiO2 
 PCOD8259104
Probable space group: C M C M
;
_chemical_formula_sum "Si O2"
_cell_formula_units_Z 96
_cell_length_a 24.069744
_cell_length_b 23.606616
_cell_length_c 8.732002
_cell_angle_alpha 90.000000
_cell_angle_beta 90.000000
_cell_angle_gamma 90.000000
_cell_volume 4961.568976
_symmetry_space_group_name_H-M "C M C M"
_symmetry_group_IT_number 63
_symmetry_cell_setting 'orthorhombic'
loop_
_space_group_symop_operation_xyz
x,y,z
-x,-y,1/2+z
x,-y,-z
-x,y,1/2-z
-x,-y,-z
x,y,1/2-z
-x,y,z
x,-y,1/2+z
1/2+x,1/2+y,z
1/2-x,1/2-y,1/2+z
1/2+x,1/2-y,-z
1/2-x,1/2+y,1/2-z
1/2-x,1/2-y,-z
1/2+x,1/2+y,1/2-z
1/2-x,1/2+y,z
1/2+x,1/2-y,1/2+z
loop_
_atom_site_type_symbol
_atom_site_label
_atom_site_fract_x
_atom_site_fract_y
_atom_site_fract_z
Si Si1 0.363430 0.941998 0.073562
Si Si2 0.656388 0.768919 0.929698
Si Si3 0.937355 0.663366 0.574777
Si Si4 0.269444 0.129029 0.068837
Si Si5 0.345021 0.641448 0.568337
Si Si6 0.435926 0.560249 0.069733
O O1 0.345734 0.949192 0.250000
O O2 0.415056 0.899994 0.055892
O O3 0.311106 0.920712 0.976181
O O4 0.384227 0.000000 0.000000
O O5 0.662299 0.766441 0.750000
O O6 0.705215 0.810630 0.992796
O O7 0.659323 0.705646 0.997161
O O8 0.596439 0.793133 0.971575
O O9 0.932587 0.683454 0.750000
O O10 0.000000 0.664465 0.514997
O O11 0.260503 0.130015 0.250000
O O12 0.212110 0.112924 0.985704
O O13 0.350826 0.639311 0.750000
O O14 0.398048 0.610032 0.497753
O O15 0.426997 0.557046 0.250000
O O16 0.500000 0.573740 0.027393
O O17 0.417706 0.500000 0.000000
#
# Coordination Sequence:
#
# PCOD8259104 Si02
#       6
#    16  16  16  16  16  16
#     4  10  20  35  54  77 107 142 181 225 273 321
#     4   9  20  36  54  79 111 145 179 220 268 316
#     4   9  19  35  54  77 107 143 182 225 271 317
#     4  10  20  36  56  79 109 143 181 223 268 316
#     4  11  22  36  57  85 113 142 178 217 263 320
#     4  10  22  41  62  83 109 141 177 219 267 316
#
# _framework density 19.348718999999999
#
# number of rings (size 3 to 8) (size 9 to 14) (size 15 to 20)
#    0.000    2.167    0.000    2.500    0.000    5.667 
#    0.000    6.667    0.000    0.000    0.000    0.000 
#    0.000    0.000    0.000    0.000    0.000    0.000 
#
# Total GULP energy -595256.079253 kJ/mol
# GULP energy per Si atom -12401.168318 kJ/mol
# Density = 1.930468 g / cm^3
# Si number density = 19.348719 Si / 1000 Ang^3
#
#
#
# Elastic Constant Matrix: (Units=GPa)
#
#
# Indices 1 2 3 4 5 6 
#
# 1 105.8792 19.7433 23.5686 0.0000 0.0000 0.0000
# 2 19.7433 56.0756 22.8411 0.0000 0.0000 0.0000
# 3 23.5686 22.8411 57.1071 0.0000 0.0000 0.0000
# 4 0.0000 0.0000 0.0000 32.0578 0.0000 0.0000
# 5 0.0000 0.0000 0.0000 0.0000 33.8110 0.0000
# 6 0.0000 0.0000 0.0000 0.0000 0.0000 18.4572
#
#
#
# Elastic Compliance Matrix: (Units=1/GPa)
#
#
# Indices 1 2 3 4 5 6 
#
# 1 0.010651 -0.002341 -0.003460 0.000000 0.000000 0.000000
# 2 -0.002341 0.021818 -0.007761 0.000000 0.000000 0.000000
# 3 -0.003460 -0.007761 0.022043 0.000000 0.000000 0.000000
# 4 0.000000 0.000000 0.000000 0.031194 0.000000 0.000000
# 5 0.000000 0.000000 0.000000 0.000000 0.029576 0.000000
# 6 0.000000 0.000000 0.000000 0.000000 0.000000 0.054179
#
#
# Mechanical properties :
#
#
# Convention : Reuss Voigt Hill
#
# Bulk Modulus (GPa) = 36.50936 39.04089 37.77512
# Shear Modulus (GPa) = 24.30558 27.05912 25.68235
#
# Velocity S-wave (km/s) = 3.54812 3.74370 3.64722
# Velocity P-wave (km/s) = 5.97458 6.23766 6.10754
#
# Compressibility (1/GPa) = 0.02739024
#
# Stress axis : x y z
#
# Youngs Moduli (GPa) = 93.88487 45.83289 45.36638
#
# Poissons Ratio (x) = 0.10729 0.15695
# Poissons Ratio (y) = 0.21978 0.35207
# Poissons Ratio (z) = 0.32480 0.35569
#
# Static dielectric constant tensor:
#      x y z
#    x 3.510180 0.000000 0.000000 
#    y 0.000000 3.652300 0.000000 
#    z 0.000000 0.000000 3.492890 
# 
# 
# High freq. dielectric constant tensor:
#      x y z
#    x 1.754890 0.000000 0.000000 
#    y 0.000000 1.752060 0.000000 
#    z 0.000000 0.000000 1.755960 
# 
# From -- ./inp_files/10480.got.cif
#   From: 2010.03.12/outbox.cif.g09.slc.cpg/sg63_6_cif.got.tgz:10480.got - 2010.04.10 19:34:48.
