data_PCOD8259213
_publ_section_title
;
Structure prediction by ZEFSAII (Michael W. Deem and Ramdas Pophale) SiO2 
 PCOD8259213
Probable space group: C M C M
;
_chemical_formula_sum "Si O2"
_cell_formula_units_Z 96
_cell_length_a 9.247145
_cell_length_b 29.709686
_cell_length_c 19.004919
_cell_angle_alpha 90.000000
_cell_angle_beta 90.000000
_cell_angle_gamma 90.000000
_cell_volume 5221.217108
_symmetry_space_group_name_H-M "C M C M"
_symmetry_group_IT_number 63
_symmetry_cell_setting 'orthorhombic'
loop_
_space_group_symop_operation_xyz
x,y,z
-x,-y,1/2+z
x,-y,-z
-x,y,1/2-z
-x,-y,-z
x,y,1/2-z
-x,y,z
x,-y,1/2+z
1/2+x,1/2+y,z
1/2-x,1/2-y,1/2+z
1/2+x,1/2-y,-z
1/2-x,1/2+y,1/2-z
1/2-x,1/2-y,-z
1/2+x,1/2+y,1/2-z
1/2-x,1/2+y,z
1/2+x,1/2-y,1/2+z
loop_
_atom_site_type_symbol
_atom_site_label
_atom_site_fract_x
_atom_site_fract_y
_atom_site_fract_z
Si Si1 0.167804 0.259654 0.071818
Si Si2 0.170058 0.932917 0.169843
Si Si3 0.667486 0.192302 0.167728
Si Si4 0.170149 0.016243 0.076567
Si Si5 0.669144 0.893056 0.923271
Si Si6 0.334222 0.136116 0.922357
O O1 0.234588 0.231334 0.135376
O O2 0.187000 0.311435 0.092226
O O3 0.000000 0.247140 0.061586
O O4 0.250000 0.250000 0.000000
O O5 0.221221 0.936253 0.250000
O O6 0.241889 0.889659 0.135281
O O7 0.000000 0.926383 0.162783
O O8 0.219769 0.978513 0.131714
O O9 0.700025 0.189218 0.250000
O O10 0.500000 0.203499 0.151925
O O11 0.710127 0.144798 0.133369
O O12 0.247538 0.062074 0.098502
O O13 0.000000 0.024958 0.078037
O O14 0.221958 0.000000 0.000000
O O15 0.500000 0.903523 0.922780
O O16 0.721424 0.876011 0.999588
O O17 0.500000 0.121604 0.914102
#
# Coordination Sequence:
#
# PCOD8259213 Si02
#       6
#    16  16  16  16  16  16
#     4  11  22  38  61  88 118 152 195 242 290 344
#     4  10  22  39  57  81 115 150 187 234 286 340
#     4  10  22  41  61  85 121 157 190 236 293 347
#     4  10  20  35  56  83 111 145 188 233 283 336
#     4  10  20  36  58  85 114 148 191 234 281 337
#     4  10  21  37  58  84 114 147 188 236 281 335
#
# _framework density 18.386517999999999
#
# number of rings (size 3 to 8) (size 9 to 14) (size 15 to 20)
#    0.000    1.833    3.333    0.500    0.000    5.000 
#    0.000    3.333    0.000    0.000    0.000    0.000 
#    0.000    0.000    0.000    0.000    0.000    0.000 
#
# Total GULP energy -595441.163451 kJ/mol
# GULP energy per Si atom -12405.024239 kJ/mol
# Density = 1.834467 g / cm^3
# Si number density = 18.386518 Si / 1000 Ang^3
#
#
#
# Elastic Constant Matrix: (Units=GPa)
#
#
# Indices 1 2 3 4 5 6 
#
# 1 63.7361 62.6434 56.1199 0.0000 0.0000 0.0000
# 2 62.6434 136.1748 76.5781 0.0000 0.0000 0.0000
# 3 56.1199 76.5781 155.7532 0.0000 0.0000 0.0000
# 4 0.0000 0.0000 0.0000 35.0023 0.0000 0.0000
# 5 0.0000 0.0000 0.0000 0.0000 27.4408 0.0000
# 6 0.0000 0.0000 0.0000 0.0000 0.0000 40.2275
#
#
#
# Elastic Compliance Matrix: (Units=1/GPa)
#
#
# Indices 1 2 3 4 5 6 
#
# 1 0.032211 -0.011459 -0.005972 0.000000 0.000000 0.000000
# 2 -0.011459 0.014227 -0.002866 0.000000 0.000000 0.000000
# 3 -0.005972 -0.002866 0.009981 0.000000 0.000000 0.000000
# 4 0.000000 0.000000 0.000000 0.028570 0.000000 0.000000
# 5 0.000000 0.000000 0.000000 0.000000 0.036442 0.000000
# 6 0.000000 0.000000 0.000000 0.000000 0.000000 0.024859
#
#
# Mechanical properties :
#
#
# Convention : Reuss Voigt Hill
#
# Bulk Modulus (GPa) = 63.19255 82.92744 73.06000
# Shear Modulus (GPa) = 26.02028 31.22230 28.62129
#
# Velocity S-wave (km/s) = 3.76597 4.12528 3.94971
# Velocity P-wave (km/s) = 7.30436 8.23959 7.78603
#
# Compressibility (1/GPa) = 0.01582465
#
# Stress axis : x y z
#
# Youngs Moduli (GPa) = 31.04542 70.29059 100.18931
#
# Poissons Ratio (x) = 0.80549 0.59831
# Poissons Ratio (y) = 0.35576 0.28712
# Poissons Ratio (z) = 0.18540 0.20143
#
# Static dielectric constant tensor:
#      x y z
#    x 3.398920 0.000000 0.000000 
#    y 0.000000 3.472660 0.000000 
#    z 0.000000 0.000000 3.432560 
# 
# 
# High freq. dielectric constant tensor:
#      x y z
#    x 1.708930 0.000000 0.000000 
#    y 0.000000 1.723820 0.000000 
#    z 0.000000 0.000000 1.714880 
# 
# From -- ./inp_files/51256.got.cif
#   From: 2010.03.12/outbox.cif.g09.slc.cpg/sg63_26_cif.got.tgz:51256.got - 2010.04.10 19:34:48.
