data_PCOD8259581
_publ_section_title
;
Structure prediction by ZEFSAII (Michael W. Deem and Ramdas Pophale) SiO2 
 PCOD8259581
Probable space group: C M C M
;
_chemical_formula_sum "Si O2"
_cell_formula_units_Z 92
_cell_length_a 21.907120
_cell_length_b 12.945175
_cell_length_c 15.958658
_cell_angle_alpha 90.000000
_cell_angle_beta 90.000000
_cell_angle_gamma 90.000000
_cell_volume 4525.739794
_symmetry_space_group_name_H-M "C M C M"
_symmetry_group_IT_number 63
_symmetry_cell_setting 'orthorhombic'
loop_
_space_group_symop_operation_xyz
x,y,z
-x,-y,1/2+z
x,-y,-z
-x,y,1/2-z
-x,-y,-z
x,y,1/2-z
-x,y,z
x,-y,1/2+z
1/2+x,1/2+y,z
1/2-x,1/2-y,1/2+z
1/2+x,1/2-y,-z
1/2-x,1/2+y,1/2-z
1/2-x,1/2-y,-z
1/2+x,1/2+y,1/2-z
1/2-x,1/2+y,z
1/2+x,1/2-y,1/2+z
loop_
_atom_site_type_symbol
_atom_site_label
_atom_site_fract_x
_atom_site_fract_y
_atom_site_fract_z
Si Si1 0.283119 0.038055 0.848197
Si Si2 0.631518 0.858089 0.591285
Si Si3 0.571233 0.527411 0.750000
Si Si4 0.500000 0.928233 0.750000
Si Si5 0.308241 0.236649 0.558639
Si Si6 0.106254 0.261203 0.750000
Si Si7 0.153623 0.036185 0.093576
Si Si8 0.500000 0.933895 0.580170
O O1 0.285973 0.013973 0.750000
O O2 0.298270 0.157746 0.864663
O O3 0.331543 0.964794 0.896255
O O4 0.215615 0.022612 0.883992
O O5 0.641496 0.810940 0.501058
O O6 0.648071 0.777693 0.666615
O O7 0.559038 0.864531 0.585866
O O8 0.500000 0.494122 0.750000
O O9 0.574730 0.650905 0.750000
O O10 0.602714 0.486008 0.835461
O O11 0.559186 0.855590 0.750000
O O12 0.500000 0.001053 0.667438
O O13 0.250000 0.250000 0.500000
O O14 0.332084 0.342632 0.597285
O O15 0.132027 0.000000 0.000000
O O16 0.500000 0.000000 0.500000
#
# Coordination Sequence:
#
# PCOD8259581 Si02
#       8
#    16  16   8   4  16   8  16   8
#     4  12  24  41  67 102 137 176 222 288 353 413
#     4  11  22  42  66  98 137 173 230 282 344 412
#     4  12  28  47  71 101 143 180 233 290 339 405
#     4   8  18  34  56  92 118 156 230 264 316 396
#     4  12  24  41  68  95 139 178 223 285 348 414
#     4  10  20  39  68  93 123 178 221 282 335 393
#     4  12  25  46  70 102 134 182 233 282 344 410
#     4  10  20  36  62  91 130 175 217 274 335 400
#
# _framework density 20.328168000000002
#
# number of rings (size 3 to 8) (size 9 to 14) (size 15 to 20)
#    0.000    0.696    5.652    2.609    1.217    0.348 
#    1.565    0.000    0.000    0.000    0.000    0.000 
#    0.000    0.000    0.000    0.000    0.000    0.000 
#
# Total GULP energy -569989.860473 kJ/mol
# GULP energy per Si atom -12391.083923 kJ/mol
# Density = 2.028190 g / cm^3
# Si number density = 20.328168 Si / 1000 Ang^3
#
#
#
# Elastic Constant Matrix: (Units=GPa)
#
#
# Indices 1 2 3 4 5 6 
#
# 1 117.9459 31.3370 41.1530 0.0000 0.0000 0.0000
# 2 31.3370 109.6100 50.7119 0.0000 0.0000 0.0000
# 3 41.1530 50.7119 151.3091 0.0000 0.0000 0.0000
# 4 0.0000 0.0000 0.0000 37.7770 0.0000 0.0000
# 5 0.0000 0.0000 0.0000 0.0000 27.2513 0.0000
# 6 0.0000 0.0000 0.0000 0.0000 0.0000 12.2065
#
#
#
# Elastic Compliance Matrix: (Units=1/GPa)
#
#
# Indices 1 2 3 4 5 6 
#
# 1 0.009668 -0.001832 -0.002016 0.000000 0.000000 0.000000
# 2 -0.001832 0.011145 -0.003237 0.000000 0.000000 0.000000
# 3 -0.002016 -0.003237 0.008242 0.000000 0.000000 0.000000
# 4 0.000000 0.000000 0.000000 0.026471 0.000000 0.000000
# 5 0.000000 0.000000 0.000000 0.000000 0.036696 0.000000
# 6 0.000000 0.000000 0.000000 0.000000 0.000000 0.081924
#
#
# Mechanical properties :
#
#
# Convention : Reuss Voigt Hill
#
# Bulk Modulus (GPa) = 67.17519 69.47432 68.32475
# Shear Modulus (GPa) = 25.86975 32.49116 29.18045
#
# Velocity S-wave (km/s) = 3.57123 4.00225 3.79287
# Velocity P-wave (km/s) = 7.07969 7.45707 7.27083
#
# Compressibility (1/GPa) = 0.01488645
#
# Stress axis : x y z
#
# Youngs Moduli (GPa) = 103.42959 89.73035 121.32792
#
# Poissons Ratio (x) = 0.16435 0.24457
# Poissons Ratio (y) = 0.18944 0.39274
# Poissons Ratio (z) = 0.20849 0.29046
#
# Static dielectric constant tensor:
#      x y z
#    x 3.730920 0.000000 0.000000 
#    y 0.000000 3.752050 0.000000 
#    z 0.000000 0.000000 10.571500 
# 
# 
# High freq. dielectric constant tensor:
#      x y z
#    x 1.790400 0.000000 0.000000 
#    y 0.000000 1.780960 0.000000 
#    z 0.000000 0.000000 1.821970 
# 
# From -- ./inp_files/46984.got.cif
#   From: 2010.03.12/outbox.cif.g09.slc.cpg/sg63_24_cif.got.tgz:46984.got - 2010.04.10 19:34:48.
