data_PCOD8259981
_publ_section_title
;
Structure prediction by ZEFSAII (Michael W. Deem and Ramdas Pophale) SiO2 
 PCOD8259981
Probable space group: C M C M
;
_chemical_formula_sum "Si O2"
_cell_formula_units_Z 96
_cell_length_a 9.187931
_cell_length_b 19.929542
_cell_length_c 29.454583
_cell_angle_alpha 90.000000
_cell_angle_beta 90.000000
_cell_angle_gamma 90.000000
_cell_volume 5393.465710
_symmetry_space_group_name_H-M "C M C M"
_symmetry_group_IT_number 63
_symmetry_cell_setting 'orthorhombic'
loop_
_space_group_symop_operation_xyz
x,y,z
-x,-y,1/2+z
x,-y,-z
-x,y,1/2-z
-x,-y,-z
x,y,1/2-z
-x,y,z
x,-y,1/2+z
1/2+x,1/2+y,z
1/2-x,1/2-y,1/2+z
1/2+x,1/2-y,-z
1/2-x,1/2+y,1/2-z
1/2-x,1/2-y,-z
1/2+x,1/2+y,1/2-z
1/2-x,1/2+y,z
1/2+x,1/2-y,1/2+z
loop_
_atom_site_type_symbol
_atom_site_label
_atom_site_fract_x
_atom_site_fract_y
_atom_site_fract_z
Si Si1 0.166138 0.795351 0.862171
Si Si2 0.668640 0.942516 0.196988
Si Si3 0.672957 0.551791 0.463550
Si Si4 0.331866 0.452101 0.861800
Si Si5 0.169876 0.808988 0.302654
Si Si6 0.669829 0.701267 0.033852
O O1 0.192837 0.873619 0.852987
O O2 0.274393 0.754688 0.830326
O O3 0.200125 0.777190 0.914365
O O4 0.000000 0.776401 0.850298
O O5 0.695810 0.953482 0.250000
O O6 0.500000 0.934512 0.185074
O O7 0.749967 0.875810 0.179773
O O8 0.731369 0.007491 0.172402
O O9 0.740126 0.500000 0.500000
O O10 0.500000 0.553811 0.466388
O O11 0.717739 0.529325 0.412950
O O12 0.731677 0.626246 0.474313
O O13 0.500000 0.471394 0.853793
O O14 0.204854 0.795927 0.250000
O O15 0.000000 0.818611 0.311584
O O16 0.500000 0.704090 0.022999
O O17 0.750000 0.750000 0.000000
#
# Coordination Sequence:
#
# PCOD8259981 Si02
#       6
#    16  16  16  16  16  16
#     4   9  19  35  52  73 105 140 171 207 254 306
#     4  10  21  36  53  74 103 136 166 203 255 308
#     4   8  15  30  51  73  98 129 165 203 243 289
#     4   9  18  33  53  76 102 134 171 208 246 294
#     4  10  21  36  54  76 100 128 169 217 257 301
#     4   9  18  32  50  74 103 133 167 207 249 296
#
# _framework density 17.799315
#
# number of rings (size 3 to 8) (size 9 to 14) (size 15 to 20)
#    0.000    2.833    0.000    3.000    0.000    5.333 
#    0.000    7.500    0.000    1.000    0.000    0.000 
#    0.000    0.000    0.000    0.000    0.000    0.000 
#
# Total GULP energy -595205.724250 kJ/mol
# GULP energy per Si atom -12400.119255 kJ/mol
# Density = 1.775880 g / cm^3
# Si number density = 17.799315 Si / 1000 Ang^3
#
#
#
# Elastic Constant Matrix: (Units=GPa)
#
#
# Indices 1 2 3 4 5 6 
#
# 1 82.7027 57.1208 56.8323 0.0000 0.0000 0.0000
# 2 57.1208 99.7308 67.6928 0.0000 0.0000 0.0000
# 3 56.8323 67.6928 85.2483 0.0000 0.0000 0.0000
# 4 0.0000 0.0000 0.0000 38.8724 0.0000 0.0000
# 5 0.0000 0.0000 0.0000 0.0000 29.9083 0.0000
# 6 0.0000 0.0000 0.0000 0.0000 0.0000 34.1764
#
#
#
# Elastic Compliance Matrix: (Units=1/GPa)
#
#
# Indices 1 2 3 4 5 6 
#
# 1 0.023989 -0.006257 -0.011024 0.000000 0.000000 0.000000
# 2 -0.006257 0.023381 -0.014395 0.000000 0.000000 0.000000
# 3 -0.011024 -0.014395 0.030510 0.000000 0.000000 0.000000
# 4 0.000000 0.000000 0.000000 0.025725 0.000000 0.000000
# 5 0.000000 0.000000 0.000000 0.000000 0.033436 0.000000
# 6 0.000000 0.000000 0.000000 0.000000 0.000000 0.029260
#
#
# Mechanical properties :
#
#
# Convention : Reuss Voigt Hill
#
# Bulk Modulus (GPa) = 68.83071 70.10818 69.46945
# Shear Modulus (GPa) = 21.32235 26.32714 23.82475
#
# Velocity S-wave (km/s) = 3.46487 3.85009 3.66255
# Velocity P-wave (km/s) = 7.40010 7.69662 7.54981
#
# Compressibility (1/GPa) = 0.01452840
#
# Stress axis : x y z
#
# Youngs Moduli (GPa) = 41.68657 42.76925 32.77562
#
# Poissons Ratio (x) = 0.26760 0.36132
# Poissons Ratio (y) = 0.26082 0.47181
# Poissons Ratio (z) = 0.45956 0.61567
#
# Static dielectric constant tensor:
#      x y z
#    x 3.105930 0.000000 0.000000 
#    y 0.000000 3.413900 0.000000 
#    z 0.000000 0.000000 3.920680 
# 
# 
# High freq. dielectric constant tensor:
#      x y z
#    x 1.673010 0.000000 0.000000 
#    y 0.000000 1.693800 0.000000 
#    z 0.000000 0.000000 1.689330 
# 
# From -- ./inp_files/66958.got.cif
#   From: 2010.03.12/outbox.cif.g09.slc.cpg/sg63_34_cif.got.tgz:66958.got - 2010.04.10 19:34:48.
