data_PCOD8259474
_publ_section_title
;
Structure prediction by ZEFSAII (Michael W. Deem and Ramdas Pophale) SiO2 
 PCOD8259474
Probable space group: C M C M
;
_chemical_formula_sum "Si O2"
_cell_formula_units_Z 96
_cell_length_a 18.902847
_cell_length_b 15.977786
_cell_length_c 17.393159
_cell_angle_alpha 90.000000
_cell_angle_beta 90.000000
_cell_angle_gamma 90.000000
_cell_volume 5253.180051
_symmetry_space_group_name_H-M "C M C M"
_symmetry_group_IT_number 63
_symmetry_cell_setting 'orthorhombic'
loop_
_space_group_symop_operation_xyz
x,y,z
-x,-y,1/2+z
x,-y,-z
-x,y,1/2-z
-x,-y,-z
x,y,1/2-z
-x,y,z
x,-y,1/2+z
1/2+x,1/2+y,z
1/2-x,1/2-y,1/2+z
1/2+x,1/2-y,-z
1/2-x,1/2+y,1/2-z
1/2-x,1/2-y,-z
1/2+x,1/2+y,1/2-z
1/2-x,1/2+y,z
1/2+x,1/2-y,1/2+z
loop_
_atom_site_type_symbol
_atom_site_label
_atom_site_fract_x
_atom_site_fract_y
_atom_site_fract_z
Si Si1 0.721209 0.318840 0.336265
Si Si2 0.920357 0.773217 0.529471
Si Si3 0.612675 0.839548 0.163705
Si Si4 0.420128 0.014509 0.088952
Si Si5 0.174719 0.338319 0.921941
Si Si6 0.689501 0.402085 0.488395
O O1 0.693335 0.338471 0.250000
O O2 0.803849 0.332867 0.341682
O O3 0.704233 0.222287 0.355986
O O4 0.684281 0.380787 0.397472
O O5 0.923310 0.733070 0.613953
O O6 0.884203 0.707328 0.472655
O O7 0.876689 0.859679 0.531523
O O8 0.000000 0.791876 0.501463
O O9 0.585332 0.826943 0.250000
O O10 0.588652 0.930269 0.135985
O O11 0.500000 0.048356 0.099373
O O12 0.363321 0.082849 0.119025
O O13 0.402565 0.000000 0.000000
O O14 0.237902 0.365582 0.978091
O O15 0.684587 0.500000 0.500000
#
# Coordination Sequence:
#
# PCOD8259474 Si02
#       6
#    16  16  16  16  16  16
#     4  10  20  36  58  84 114 148 191 237 285 328
#     4  11  21  36  57  82 110 147 187 230 279 340
#     4  11  21  36  54  81 117 150 185 229 281 337
#     4  11  21  33  54  84 117 151 185 225 278 342
#     4  11  19  36  59  83 110 148 188 232 276 340
#     4  11  21  38  61  83 111 148 191 240 279 333
#
# _framework density 18.274645
#
# number of rings (size 3 to 8) (size 9 to 14) (size 15 to 20)
#    0.000    1.167    5.000    3.500    0.000    2.333 
#    0.000    1.667    0.000   12.000    0.000    0.000 
#    0.000    0.000    0.000    0.000    0.000    0.000 
#
# Total GULP energy -595272.885335 kJ/mol
# GULP energy per Si atom -12401.518444 kJ/mol
# Density = 1.823305 g / cm^3
# Si number density = 18.274645 Si / 1000 Ang^3
#
#
#
# Elastic Constant Matrix: (Units=GPa)
#
#
# Indices 1 2 3 4 5 6 
#
# 1 101.6783 47.1208 28.3279 0.0000 0.0000 0.0000
# 2 47.1208 117.6901 44.6751 0.0000 0.0000 0.0000
# 3 28.3279 44.6751 95.9198 0.0000 0.0000 0.0000
# 4 0.0000 0.0000 0.0000 21.0903 0.0000 0.0000
# 5 0.0000 0.0000 0.0000 0.0000 14.1493 0.0000
# 6 0.0000 0.0000 0.0000 0.0000 0.0000 47.2996
#
#
#
# Elastic Compliance Matrix: (Units=1/GPa)
#
#
# Indices 1 2 3 4 5 6 
#
# 1 0.012280 -0.004300 -0.001624 0.000000 0.000000 0.000000
# 2 -0.004300 0.011828 -0.004239 0.000000 0.000000 0.000000
# 3 -0.001624 -0.004239 0.012879 0.000000 0.000000 0.000000
# 4 0.000000 0.000000 0.000000 0.047415 0.000000 0.000000
# 5 0.000000 0.000000 0.000000 0.000000 0.070675 0.000000
# 6 0.000000 0.000000 0.000000 0.000000 0.000000 0.021142
#
#
# Mechanical properties :
#
#
# Convention : Reuss Voigt Hill
#
# Bulk Modulus (GPa) = 60.01963 61.72621 60.87292
# Shear Modulus (GPa) = 24.74041 29.51880 27.12961
#
# Velocity S-wave (km/s) = 3.68341 4.02342 3.85716
# Velocity P-wave (km/s) = 7.14174 7.44542 7.29516
#
# Compressibility (1/GPa) = 0.01666121
#
# Stress axis : x y z
#
# Youngs Moduli (GPa) = 81.43153 84.54713 77.64480
#
# Poissons Ratio (x) = 0.36359 0.12608
# Poissons Ratio (y) = 0.35019 0.32912
# Poissons Ratio (z) = 0.13223 0.35838
#
# Static dielectric constant tensor:
#      x y z
#    x 3.460790 0.000000 0.000000 
#    y 0.000000 3.479000 0.000000 
#    z 0.000000 0.000000 3.510330 
# 
# 
# High freq. dielectric constant tensor:
#      x y z
#    x 1.712450 0.000000 0.000000 
#    y 0.000000 1.703950 0.000000 
#    z 0.000000 0.000000 1.695930 
# 
# From -- ./inp_files/45749.got.cif
#   From: 2010.03.12/outbox.cif.g09.slc.cpg/sg63_23_cif.got.tgz:45749.got - 2010.04.10 19:34:48.
