data_PCOD8259653
_publ_section_title
;
Structure prediction by ZEFSAII (Michael W. Deem and Ramdas Pophale) SiO2 
 PCOD8259653
Probable space group: C M C M
;
_chemical_formula_sum "Si O2"
_cell_formula_units_Z 72
_cell_length_a 15.353994
_cell_length_b 26.710082
_cell_length_c 8.804231
_cell_angle_alpha 90.000000
_cell_angle_beta 90.000000
_cell_angle_gamma 90.000000
_cell_volume 3610.671821
_symmetry_space_group_name_H-M "C M C M"
_symmetry_group_IT_number 63
_symmetry_cell_setting 'orthorhombic'
loop_
_space_group_symop_operation_xyz
x,y,z
-x,-y,1/2+z
x,-y,-z
-x,y,1/2-z
-x,-y,-z
x,y,1/2-z
-x,y,z
x,-y,1/2+z
1/2+x,1/2+y,z
1/2-x,1/2-y,1/2+z
1/2+x,1/2-y,-z
1/2-x,1/2+y,1/2-z
1/2-x,1/2-y,-z
1/2+x,1/2+y,1/2-z
1/2-x,1/2+y,z
1/2+x,1/2-y,1/2+z
loop_
_atom_site_type_symbol
_atom_site_label
_atom_site_fract_x
_atom_site_fract_y
_atom_site_fract_z
Si Si1 0.671355 0.447770 0.427507
Si Si2 0.000000 0.098420 0.430688
Si Si3 0.500000 0.712050 0.069500
Si Si4 0.000000 0.554192 0.428280
Si Si5 0.656199 0.887249 0.073650
Si Si6 0.664887 0.227055 0.929569
O O1 0.701281 0.500000 0.500000
O O2 0.652943 0.454934 0.250000
O O3 0.584501 0.429282 0.508188
O O4 0.747576 0.408075 0.457921
O O5 0.000000 0.096145 0.250000
O O6 0.000000 0.155369 0.491622
O O7 0.500000 0.712833 0.250000
O O8 0.584195 0.740932 0.006634
O O9 0.000000 0.500000 0.500000
O O10 0.913576 0.583096 0.476272
O O11 0.000000 0.547668 0.250000
O O12 0.630726 0.892271 0.250000
O O13 0.653780 0.830081 0.018391
O O14 0.672002 0.230522 0.750000
O O15 0.750000 0.250000 0.000000
#
# Coordination Sequence:
#
# PCOD8259653 Si02
#       6
#    16   8   8   8  16  16
#     4  11  23  39  59  84 113 149 191 237 287 341
#     4  11  22  37  58  84 115 152 191 236 285 338
#     4   9  19  35  57  83 114 152 187 222 276 337
#     4  12  25  40  62  89 119 154 195 244 295 353
#     4  10  22  40  62  87 119 157 195 238 291 347
#     4  10  20  37  60  86 117 153 192 236 284 339
#
# _framework density 19.940887
#
# number of rings (size 3 to 8) (size 9 to 14) (size 15 to 20)
#    0.000    1.556    0.000    5.000    0.000    6.222 
#    0.000    1.667    0.000    0.000    0.000    0.000 
#    0.000    0.000    0.000    0.000    0.000    0.000 
#
# Total GULP energy -446599.101168 kJ/mol
# GULP energy per Si atom -12405.530588 kJ/mol
# Density = 1.989550 g / cm^3
# Si number density = 19.940887 Si / 1000 Ang^3
#
#
#
# Elastic Constant Matrix: (Units=GPa)
#
#
# Indices 1 2 3 4 5 6 
#
# 1 120.4722 35.4243 40.9083 0.0000 0.0000 0.0000
# 2 35.4243 129.1191 40.4399 0.0000 0.0000 0.0000
# 3 40.9083 40.4399 82.8959 0.0000 0.0000 0.0000
# 4 0.0000 0.0000 0.0000 25.6612 0.0000 0.0000
# 5 0.0000 0.0000 0.0000 0.0000 24.0286 0.0000
# 6 0.0000 0.0000 0.0000 0.0000 0.0000 43.5286
#
#
#
# Elastic Compliance Matrix: (Units=1/GPa)
#
#
# Indices 1 2 3 4 5 6 
#
# 1 0.010194 -0.001441 -0.004327 0.000000 0.000000 0.000000
# 2 -0.001441 0.009345 -0.003848 0.000000 0.000000 0.000000
# 3 -0.004327 -0.003848 0.016076 0.000000 0.000000 0.000000
# 4 0.000000 0.000000 0.000000 0.038969 0.000000 0.000000
# 5 0.000000 0.000000 0.000000 0.000000 0.041617 0.000000
# 6 0.000000 0.000000 0.000000 0.000000 0.000000 0.022973
#
#
# Mechanical properties :
#
#
# Convention : Reuss Voigt Hill
#
# Bulk Modulus (GPa) = 61.04215 62.89248 61.96731
# Shear Modulus (GPa) = 30.51219 33.02466 31.76843
#
# Velocity S-wave (km/s) = 3.91593 4.07397 3.99573
# Velocity P-wave (km/s) = 7.15011 7.33059 7.24091
#
# Compressibility (1/GPa) = 0.01638212
#
# Stress axis : x y z
#
# Youngs Moduli (GPa) = 98.09734 107.00516 62.20477
#
# Poissons Ratio (x) = 0.15424 0.26919
# Poissons Ratio (y) = 0.14140 0.23935
# Poissons Ratio (z) = 0.42451 0.41173
#
# Static dielectric constant tensor:
#      x y z
#    x 3.748370 0.000000 0.000000 
#    y 0.000000 5.336250 0.000000 
#    z 0.000000 0.000000 3.525660 
# 
# 
# High freq. dielectric constant tensor:
#      x y z
#    x 1.795520 0.000000 0.000000 
#    y 0.000000 1.799520 0.000000 
#    z 0.000000 0.000000 1.766400 
# 
# From -- ./inp_files/4726.got.cif
#   From: 2010.03.12/outbox.cif.g09.slc.cpg/sg63_3_cif.got.tgz:4726.got - 2010.04.10 19:34:48.
