data_PCOD8259964
_publ_section_title
;
Structure prediction by ZEFSAII (Michael W. Deem and Ramdas Pophale) SiO2 
 PCOD8259964
Probable space group: C M C M
;
_chemical_formula_sum "Si O2"
_cell_formula_units_Z 96
_cell_length_a 23.419439
_cell_length_b 11.877734
_cell_length_c 17.499618
_cell_angle_alpha 90.000000
_cell_angle_beta 90.000000
_cell_angle_gamma 90.000000
_cell_volume 4867.866409
_symmetry_space_group_name_H-M "C M C M"
_symmetry_group_IT_number 63
_symmetry_cell_setting 'orthorhombic'
loop_
_space_group_symop_operation_xyz
x,y,z
-x,-y,1/2+z
x,-y,-z
-x,y,1/2-z
-x,-y,-z
x,y,1/2-z
-x,y,z
x,-y,1/2+z
1/2+x,1/2+y,z
1/2-x,1/2-y,1/2+z
1/2+x,1/2-y,-z
1/2-x,1/2+y,1/2-z
1/2-x,1/2-y,-z
1/2+x,1/2+y,1/2-z
1/2-x,1/2+y,z
1/2+x,1/2-y,1/2+z
loop_
_atom_site_type_symbol
_atom_site_label
_atom_site_fract_x
_atom_site_fract_y
_atom_site_fract_z
Si Si1 0.340783 0.134960 0.420255
Si Si2 0.938613 0.211462 0.923870
Si Si3 0.277426 0.334295 0.161620
Si Si4 0.564893 0.705109 0.398090
Si Si5 0.864172 0.008527 0.909287
Si Si6 0.340329 0.119851 0.902011
O O1 0.405917 0.173098 0.409323
O O2 0.299228 0.220555 0.377930
O O3 0.324465 0.138801 0.509485
O O4 0.341162 0.012195 0.383547
O O5 0.907415 0.106785 0.885278
O O6 0.000000 0.223973 0.884991
O O7 0.944398 0.186406 0.013051
O O8 0.293119 0.329504 0.250000
O O9 0.303591 0.451114 0.126651
O O10 0.209547 0.329572 0.149914
O O11 0.500000 0.704598 0.360790
O O12 0.607948 0.603947 0.372065
O O13 0.598905 0.821420 0.380380
O O14 0.854155 0.000000 0.000000
#
# Coordination Sequence:
#
# PCOD8259964 Si02
#       6
#    16  16  16  16  16  16
#     4   9  20  36  55  81 114 150 193 233 283 346
#     4   8  14  28  52  83 114 146 186 233 282 330
#     4  11  24  38  57  82 113 152 196 245 287 337
#     4   9  17  31  54  86 116 142 186 240 287 337
#     4   9  18  32  56  86 115 154 188 235 285 339
#     4  10  21  35  57  84 113 153 190 232 290 347
#
# _framework density 19.721164999999999
#
# number of rings (size 3 to 8) (size 9 to 14) (size 15 to 20)
#    0.000    2.667    0.000    2.000    4.667    3.333 
#    0.000    3.333    0.000   14.000    0.000    4.667 
#    0.000    0.000    0.000    0.000    0.000    0.000 
#
# Total GULP energy -594762.180790 kJ/mol
# GULP energy per Si atom -12390.878766 kJ/mol
# Density = 1.967628 g / cm^3
# Si number density = 19.721165 Si / 1000 Ang^3
#
#
#
# Elastic Constant Matrix: (Units=GPa)
#
#
# Indices 1 2 3 4 5 6 
#
# 1 112.4215 43.6135 17.6807 0.0000 0.0000 0.0000
# 2 43.6135 133.4993 26.1144 0.0000 0.0000 0.0000
# 3 17.6807 26.1144 44.2262 0.0000 0.0000 0.0000
# 4 0.0000 0.0000 0.0000 9.8539 0.0000 0.0000
# 5 0.0000 0.0000 0.0000 0.0000 0.2201 0.0000
# 6 0.0000 0.0000 0.0000 0.0000 0.0000 24.1519
#
#
#
# Elastic Compliance Matrix: (Units=1/GPa)
#
#
# Indices 1 2 3 4 5 6 
#
# 1 0.010413 -0.002925 -0.002436 0.000000 0.000000 0.000000
# 2 -0.002925 0.009291 -0.004316 0.000000 0.000000 0.000000
# 3 -0.002436 -0.004316 0.026133 0.000000 0.000000 0.000000
# 4 0.000000 0.000000 0.000000 0.101483 0.000000 0.000000
# 5 0.000000 0.000000 0.000000 0.000000 4.542975 0.000000
# 6 0.000000 0.000000 0.000000 0.000000 0.000000 0.041405
#
#
# Mechanical properties :
#
#
# Convention : Reuss Voigt Hill
#
# Bulk Modulus (GPa) = 37.76080 51.66267 44.71173
# Shear Modulus (GPa) = 1.05045 20.36107 10.70576
#
# Velocity S-wave (km/s) = 0.73062 3.21666 2.33246
# Velocity P-wave (km/s) = 4.46101 6.32845 5.47494
#
# Compressibility (1/GPa) = 0.02648249
#
# Stress axis : x y z
#
# Youngs Moduli (GPa) = 96.03330 107.63386 38.26515
#
# Poissons Ratio (x) = 0.31488 0.09320
# Poissons Ratio (y) = 0.28094 0.16517
# Poissons Ratio (z) = 0.23389 0.46459
#
# Static dielectric constant tensor:
#      x y z
#    x 3.868840 0.000000 0.000000 
#    y 0.000000 3.711420 0.000000 
#    z 0.000000 0.000000 3.062910 
# 
# 
# High freq. dielectric constant tensor:
#      x y z
#    x 1.778210 0.000000 0.000000 
#    y 0.000000 1.774520 0.000000 
#    z 0.000000 0.000000 1.712220 
# 
# From -- ./inp_files/57495.got.cif
#   From: 2010.03.12/outbox.cif.g09.slc.cpg/sg63_29_cif.got.tgz:57495.got - 2010.04.10 19:34:48.
