data_PCOD8259990
_publ_section_title
;
Structure prediction by ZEFSAII (Michael W. Deem and Ramdas Pophale) SiO2 
 PCOD8259990
Probable space group: C M C M
;
_chemical_formula_sum "Si O2"
_cell_formula_units_Z 64
_cell_length_a 9.333726
_cell_length_b 41.222758
_cell_length_c 9.138614
_cell_angle_alpha 90.000000
_cell_angle_beta 90.000000
_cell_angle_gamma 90.000000
_cell_volume 3516.190743
_symmetry_space_group_name_H-M "C M C M"
_symmetry_group_IT_number 63
_symmetry_cell_setting 'orthorhombic'
loop_
_space_group_symop_operation_xyz
x,y,z
-x,-y,1/2+z
x,-y,-z
-x,y,1/2-z
-x,-y,-z
x,y,1/2-z
-x,y,z
x,-y,1/2+z
1/2+x,1/2+y,z
1/2-x,1/2-y,1/2+z
1/2+x,1/2-y,-z
1/2-x,1/2+y,1/2-z
1/2-x,1/2-y,-z
1/2+x,1/2+y,1/2-z
1/2-x,1/2+y,z
1/2+x,1/2-y,1/2+z
loop_
_atom_site_type_symbol
_atom_site_label
_atom_site_fract_x
_atom_site_fract_y
_atom_site_fract_z
Si Si1 0.161865 0.905745 0.575897
Si Si2 0.165119 0.532478 0.421548
Si Si3 0.666163 0.156492 0.080238
Si Si4 0.167694 0.721702 0.919235
O O1 0.165687 0.906082 0.750000
O O2 0.243016 0.873746 0.519338
O O3 0.000000 0.905542 0.515738
O O4 0.242319 0.937624 0.516275
O O5 0.219693 0.500000 0.500000
O O6 0.188369 0.527744 0.250000
O O7 0.000000 0.539635 0.459457
O O8 0.698793 0.163546 0.250000
O O9 0.500000 0.148173 0.055807
O O10 0.714929 0.187631 0.988672
O O11 0.211060 0.721559 0.750000
O O12 0.000000 0.727565 0.942173
O O13 0.250000 0.750000 0.000000
#
# Coordination Sequence:
#
# PCOD8259990 Si02
#       4
#    16  16  16  16
#     4   9  17  29  47  71  96 123 158 199 241 286
#     4   9  17  30  48  69  93 123 159 196 235 282
#     4   9  17  31  51  72  95 126 163 201 242 290
#     4  10  21  36  54  77 104 134 168 206 249 297
#
# _framework density 18.201516000000002
#
# number of rings (size 3 to 8) (size 9 to 14) (size 15 to 20)
#    0.000    2.750    0.000    1.500    0.000    6.000 
#    0.000    3.750    0.000    7.500    0.000    0.000 
#    0.000    0.000    0.000    0.000    0.000    0.000 
#
# Total GULP energy -396855.143614 kJ/mol
# GULP energy per Si atom -12401.723238 kJ/mol
# Density = 1.816009 g / cm^3
# Si number density = 18.201516 Si / 1000 Ang^3
#
#
#
# Elastic Constant Matrix: (Units=GPa)
#
#
# Indices 1 2 3 4 5 6 
#
# 1 97.4552 98.2420 39.5613 0.0000 0.0000 0.0000
# 2 98.2420 207.6213 68.0472 0.0000 0.0000 0.0000
# 3 39.5613 68.0472 62.1276 0.0000 0.0000 0.0000
# 4 0.0000 0.0000 0.0000 32.6905 0.0000 0.0000
# 5 0.0000 0.0000 0.0000 0.0000 17.8970 0.0000
# 6 0.0000 0.0000 0.0000 0.0000 0.0000 38.0207
#
#
#
# Elastic Compliance Matrix: (Units=1/GPa)
#
#
# Indices 1 2 3 4 5 6 
#
# 1 0.020158 -0.008317 -0.003727 0.000000 0.000000 0.000000
# 2 -0.008317 0.010945 -0.006692 0.000000 0.000000 0.000000
# 3 -0.003727 -0.006692 0.025799 0.000000 0.000000 0.000000
# 4 0.000000 0.000000 0.000000 0.030590 0.000000 0.000000
# 5 0.000000 0.000000 0.000000 0.000000 0.055875 0.000000
# 6 0.000000 0.000000 0.000000 0.000000 0.000000 0.026301
#
#
# Mechanical properties :
#
#
# Convention : Reuss Voigt Hill
#
# Bulk Modulus (GPa) = 51.46565 86.54503 69.00534
# Shear Modulus (GPa) = 23.40641 28.47855 25.94248
#
# Velocity S-wave (km/s) = 3.58992 3.95983 3.77940
# Velocity P-wave (km/s) = 6.74687 8.28000 7.55244
#
# Compressibility (1/GPa) = 0.01943044
#
# Stress axis : x y z
#
# Youngs Moduli (GPa) = 49.60794 91.36480 38.76180
#
# Poissons Ratio (x) = 0.75988 0.14446
# Poissons Ratio (y) = 0.41259 0.25939
# Poissons Ratio (z) = 0.18488 0.61141
#
# Static dielectric constant tensor:
#      x y z
#    x 3.402200 0.000000 0.000000 
#    y 0.000000 3.572020 0.000000 
#    z 0.000000 0.000000 3.088730 
# 
# 
# High freq. dielectric constant tensor:
#      x y z
#    x 1.701840 0.000000 0.000000 
#    y 0.000000 1.720230 0.000000 
#    z 0.000000 0.000000 1.675320 
# 
# From -- ./inp_files/16193.got.cif
#   From: 2010.03.12/outbox.cif.g09.slc.cpg/sg63_9_cif.got.tgz:16193.got - 2010.04.10 19:34:48.
