data_PCOD8259064
_publ_section_title
;
Structure prediction by ZEFSAII (Michael W. Deem and Ramdas Pophale) SiO2 
 PCOD8259064
Probable space group: C M C M
;
_chemical_formula_sum "Si O2"
_cell_formula_units_Z 80
_cell_length_a 13.123812
_cell_length_b 17.983734
_cell_length_c 18.652451
_cell_angle_alpha 90.000000
_cell_angle_beta 90.000000
_cell_angle_gamma 90.000000
_cell_volume 4402.260910
_symmetry_space_group_name_H-M "C M C M"
_symmetry_group_IT_number 63
_symmetry_cell_setting 'orthorhombic'
loop_
_space_group_symop_operation_xyz
x,y,z
-x,-y,1/2+z
x,-y,-z
-x,y,1/2-z
-x,-y,-z
x,y,1/2-z
-x,y,z
x,-y,1/2+z
1/2+x,1/2+y,z
1/2-x,1/2-y,1/2+z
1/2+x,1/2-y,-z
1/2-x,1/2+y,1/2-z
1/2-x,1/2-y,-z
1/2+x,1/2+y,1/2-z
1/2-x,1/2+y,z
1/2+x,1/2-y,1/2+z
loop_
_atom_site_type_symbol
_atom_site_label
_atom_site_fract_x
_atom_site_fract_y
_atom_site_fract_z
Si Si1 0.685904 0.788717 0.331962
Si Si2 0.192681 0.423883 0.912122
Si Si3 0.114924 0.124407 0.167697
Si Si4 0.612613 0.214815 0.332805
Si Si5 0.617812 0.080877 0.567564
O O1 0.679486 0.815645 0.250000
O O2 0.624548 0.712680 0.343532
O O3 0.803642 0.775759 0.356328
O O4 0.635080 0.850855 0.380064
O O5 0.309347 0.419301 0.885130
O O6 0.123696 0.362043 0.874571
O O7 0.148424 0.504796 0.892153
O O8 0.187915 0.410073 0.997358
O O9 0.141558 0.104192 0.250000
O O10 0.000000 0.100190 0.148667
O O11 0.631397 0.195138 0.250000
O O12 0.500000 0.248013 0.346719
O O13 0.500000 0.077616 0.544095
#
# Coordination Sequence:
#
# PCOD8259064 Si02
#       5
#    16  16  16  16  16
#     4   9  19  34  52  76 102 130 170 214 257 307
#     4  10  20  35  51  74 104 135 171 206 247 302
#     4   9  18  35  57  78 102 133 169 210 252 297
#     4   9  17  32  54  77 102 132 166 208 256 306
#     4  11  22  35  51  73 105 138 168 212 261 300
#
# _framework density 18.172481000000001
#
# number of rings (size 3 to 8) (size 9 to 14) (size 15 to 20)
#    0.000    2.400    0.000    4.800    0.000    6.000 
#    0.000    6.000    0.000    2.400    0.000    0.000 
#    0.000    0.000    0.000    0.000    0.000    0.000 
#
# Total GULP energy -495958.482995 kJ/mol
# GULP energy per Si atom -12398.962075 kJ/mol
# Density = 1.813112 g / cm^3
# Si number density = 18.172481 Si / 1000 Ang^3
#
#
#
# Elastic Constant Matrix: (Units=GPa)
#
#
# Indices 1 2 3 4 5 6 
#
# 1 140.6926 30.2690 48.8101 0.0000 0.0000 0.0000
# 2 30.2690 72.5257 43.7958 0.0000 0.0000 0.0000
# 3 48.8101 43.7958 77.0837 0.0000 0.0000 0.0000
# 4 0.0000 0.0000 0.0000 39.0176 0.0000 0.0000
# 5 0.0000 0.0000 0.0000 0.0000 31.1075 0.0000
# 6 0.0000 0.0000 0.0000 0.0000 0.0000 18.3435
#
#
#
# Elastic Compliance Matrix: (Units=1/GPa)
#
#
# Indices 1 2 3 4 5 6 
#
# 1 0.009120 -0.000486 -0.005499 0.000000 0.000000 0.000000
# 2 -0.000486 0.021015 -0.011633 0.000000 0.000000 0.000000
# 3 -0.005499 -0.011633 0.023064 0.000000 0.000000 0.000000
# 4 0.000000 0.000000 0.000000 0.025629 0.000000 0.000000
# 5 0.000000 0.000000 0.000000 0.000000 0.032147 0.000000
# 6 0.000000 0.000000 0.000000 0.000000 0.000000 0.054515
#
#
# Mechanical properties :
#
#
# Convention : Reuss Voigt Hill
#
# Bulk Modulus (GPa) = 55.66348 59.56131 57.61240
# Shear Modulus (GPa) = 24.18809 28.85552 26.52181
#
# Velocity S-wave (km/s) = 3.65228 3.98913 3.82442
# Velocity P-wave (km/s) = 6.96295 7.35284 7.16055
#
# Compressibility (1/GPa) = 0.01796510
#
# Stress axis : x y z
#
# Youngs Moduli (GPa) = 109.65047 47.58411 43.35762
#
# Poissons Ratio (x) = 0.02311 0.23842
# Poissons Ratio (y) = 0.05325 0.50436
# Poissons Ratio (z) = 0.60295 0.55353
#
# Static dielectric constant tensor:
#      x y z
#    x 3.608610 0.000000 0.000000 
#    y 0.000000 3.143020 0.000000 
#    z 0.000000 0.000000 3.250260 
# 
# 
# High freq. dielectric constant tensor:
#      x y z
#    x 1.716570 0.000000 0.000000 
#    y 0.000000 1.684290 0.000000 
#    z 0.000000 0.000000 1.697540 
# 
# From -- ./inp_files/31667.got.cif
#   From: 2010.03.12/outbox.cif.g09.slc.cpg/sg63_16_cif.got.tgz:31667.got - 2010.04.10 19:34:48.
