data_PCOD8259452
_publ_section_title
;
Structure prediction by ZEFSAII (Michael W. Deem and Ramdas Pophale) SiO2 
 PCOD8259452
Probable space group: C M C M
;
_chemical_formula_sum "Si O2"
_cell_formula_units_Z 96
_cell_length_a 29.611261
_cell_length_b 19.307615
_cell_length_c 8.994687
_cell_angle_alpha 90.000000
_cell_angle_beta 90.000000
_cell_angle_gamma 90.000000
_cell_volume 5142.467880
_symmetry_space_group_name_H-M "C M C M"
_symmetry_group_IT_number 63
_symmetry_cell_setting 'orthorhombic'
loop_
_space_group_symop_operation_xyz
x,y,z
-x,-y,1/2+z
x,-y,-z
-x,y,1/2-z
-x,-y,-z
x,y,1/2-z
-x,y,z
x,-y,1/2+z
1/2+x,1/2+y,z
1/2-x,1/2-y,1/2+z
1/2+x,1/2-y,-z
1/2-x,1/2+y,1/2-z
1/2-x,1/2-y,-z
1/2+x,1/2+y,1/2-z
1/2-x,1/2+y,z
1/2+x,1/2-y,1/2+z
loop_
_atom_site_type_symbol
_atom_site_label
_atom_site_fract_x
_atom_site_fract_y
_atom_site_fract_z
Si Si1 0.869248 0.676981 0.572729
Si Si2 0.798966 0.927282 0.919662
Si Si3 0.051431 0.426958 0.425199
Si Si4 0.550075 0.434192 0.923250
Si Si5 0.123198 0.830825 0.575772
Si Si6 0.775363 0.314749 0.578439
O O1 0.864720 0.673323 0.750000
O O2 0.910789 0.628150 0.519090
O O3 0.879016 0.753991 0.510775
O O4 0.821273 0.659438 0.499937
O O5 0.811835 0.943835 0.750000
O O6 0.837875 0.879300 0.994448
O O7 0.753305 0.884385 0.932559
O O8 0.793565 0.000000 0.000000
O O9 0.062756 0.500000 0.500000
O O10 0.055346 0.436986 0.250000
O O11 0.000000 0.402725 0.467080
O O12 0.550412 0.448886 0.750000
O O13 0.500000 0.425154 0.987926
O O14 0.575249 0.363877 0.963135
O O15 0.574122 0.500000 0.000000
O O16 0.133053 0.825496 0.750000
O O17 0.783615 0.293628 0.750000
O O18 0.750000 0.250000 0.500000
#
# Coordination Sequence:
#
# PCOD8259452 Si02
#       6
#    16  16  16  16  16  16
#     4  10  20  36  58  82 111 144 183 229 277 332
#     4  10  21  36  54  77 105 139 178 221 268 321
#     4   9  19  36  59  85 114 151 191 235 289 346
#     4   9  17  29  47  70  97 132 170 210 255 302
#     4   9  17  32  51  73 104 136 171 217 264 313
#     4  11  22  38  58  80 110 147 187 230 283 337
#
# _framework density 18.66808
#
# number of rings (size 3 to 8) (size 9 to 14) (size 15 to 20)
#    0.000    2.333    1.667    1.000    0.000    3.333 
#    0.000    7.500    0.000    0.000    0.000    4.667 
#    0.000    0.000    0.000    0.000    0.000    0.000 
#
# Total GULP energy -594881.772275 kJ/mol
# GULP energy per Si atom -12393.370256 kJ/mol
# Density = 1.862559 g / cm^3
# Si number density = 18.668080 Si / 1000 Ang^3
#
#
#
# Elastic Constant Matrix: (Units=GPa)
#
#
# Indices 1 2 3 4 5 6 
#
# 1 125.1743 68.7043 37.2351 0.0000 0.0000 0.0000
# 2 68.7043 141.1816 38.7312 0.0000 0.0000 0.0000
# 3 37.2351 38.7312 42.3014 0.0000 0.0000 0.0000
# 4 0.0000 0.0000 0.0000 28.8850 0.0000 0.0000
# 5 0.0000 0.0000 0.0000 0.0000 25.5326 0.0000
# 6 0.0000 0.0000 0.0000 0.0000 0.0000 27.9013
#
#
#
# Elastic Compliance Matrix: (Units=1/GPa)
#
#
# Indices 1 2 3 4 5 6 
#
# 1 0.012335 -0.004039 -0.007160 0.000000 0.000000 0.000000
# 2 -0.004039 0.010781 -0.006316 0.000000 0.000000 0.000000
# 3 -0.007160 -0.006316 0.035726 0.000000 0.000000 0.000000
# 4 0.000000 0.000000 0.000000 0.034620 0.000000 0.000000
# 5 0.000000 0.000000 0.000000 0.000000 0.039166 0.000000
# 6 0.000000 0.000000 0.000000 0.000000 0.000000 0.035841
#
#
# Mechanical properties :
#
#
# Convention : Reuss Voigt Hill
#
# Bulk Modulus (GPa) = 41.99570 66.44427 54.21998
# Shear Modulus (GPa) = 23.64770 27.39622 25.52196
#
# Velocity S-wave (km/s) = 3.56300 3.83501 3.70150
# Velocity P-wave (km/s) = 6.28263 7.43501 6.88298
#
# Compressibility (1/GPa) = 0.02381196
#
# Stress axis : x y z
#
# Youngs Moduli (GPa) = 81.06699 92.75403 27.99083
#
# Poissons Ratio (x) = 0.37459 0.20043
# Poissons Ratio (y) = 0.32739 0.17680
# Poissons Ratio (z) = 0.58047 0.58587
#
# Static dielectric constant tensor:
#      x y z
#    x 3.691420 0.000000 0.000000 
#    y 0.000000 3.553490 0.000000 
#    z 0.000000 0.000000 3.241470 
# 
# 
# High freq. dielectric constant tensor:
#      x y z
#    x 1.736030 0.000000 0.000000 
#    y 0.000000 1.728130 0.000000 
#    z 0.000000 0.000000 1.699970 
# 
# From -- ./inp_files/12309.got.cif
#   From: 2010.03.12/outbox.cif.g09.slc.cpg/sg63_7_cif.got.tgz:12309.got - 2010.04.10 19:34:48.
