data_PCOD8259442
_publ_section_title
;
Structure prediction by ZEFSAII (Michael W. Deem and Ramdas Pophale) SiO2 
 PCOD8259442
Probable space group: C M C M
;
_chemical_formula_sum "Si O2"
_cell_formula_units_Z 72
_cell_length_a 14.371039
_cell_length_b 30.357409
_cell_length_c 8.741639
_cell_angle_alpha 90.000000
_cell_angle_beta 90.000000
_cell_angle_gamma 90.000000
_cell_volume 3813.693068
_symmetry_space_group_name_H-M "C M C M"
_symmetry_group_IT_number 63
_symmetry_cell_setting 'orthorhombic'
loop_
_space_group_symop_operation_xyz
x,y,z
-x,-y,1/2+z
x,-y,-z
-x,y,1/2-z
-x,-y,-z
x,y,1/2-z
-x,y,z
x,-y,1/2+z
1/2+x,1/2+y,z
1/2-x,1/2-y,1/2+z
1/2+x,1/2-y,-z
1/2-x,1/2+y,1/2-z
1/2-x,1/2-y,-z
1/2+x,1/2+y,1/2-z
1/2-x,1/2+y,z
1/2+x,1/2-y,1/2+z
loop_
_atom_site_type_symbol
_atom_site_label
_atom_site_fract_x
_atom_site_fract_y
_atom_site_fract_z
Si Si1 0.500000 0.170823 0.925859
Si Si2 0.197720 0.366780 0.428104
Si Si3 0.000000 0.047250 0.570561
Si Si4 0.000000 0.765219 0.430490
Si Si5 0.308788 0.710585 0.430122
Si Si6 0.201023 0.047429 0.929315
O O1 0.500000 0.186886 0.750000
O O2 0.410650 0.141043 0.962653
O O3 0.500000 0.213556 0.031661
O O4 0.221362 0.358220 0.250000
O O5 0.259739 0.335123 0.531552
O O6 0.221193 0.416911 0.476641
O O7 0.099422 0.068098 0.518691
O O8 0.000000 0.043323 0.750000
O O9 0.000000 0.000000 0.500000
O O10 0.088776 0.789654 0.499619
O O11 0.000000 0.771271 0.250000
O O12 0.315114 0.717640 0.250000
O O13 0.250000 0.750000 0.500000
O O14 0.201461 0.039538 0.750000
O O15 0.224366 0.000000 0.000000
#
# Coordination Sequence:
#
# PCOD8259442 Si02
#       6
#     8  16   8   8  16  16
#     4  10  20  36  58  80 111 153 199 242 291 351
#     4  10  21  37  58  84 114 152 197 245 296 351
#     4   8  14  27  48  73 101 136 176 220 275 342
#     4  12  24  39  61  87 117 155 197 240 292 351
#     4  12  24  39  59  86 118 152 192 241 293 348
#     4   9  18  33  54  80 111 148 190 238 294 350
#
# _framework density 18.879338000000001
#
# number of rings (size 3 to 8) (size 9 to 14) (size 15 to 20)
#    0.000    1.778    2.222    3.000    0.000    1.778 
#    0.000    2.778    0.000    2.667    0.000    0.000 
#    0.000    0.000    0.000    0.000    0.000    0.000 
#
# Total GULP energy -446213.632728 kJ/mol
# GULP energy per Si atom -12394.823131 kJ/mol
# Density = 1.883637 g / cm^3
# Si number density = 18.879338 Si / 1000 Ang^3
#
#
#
# Elastic Constant Matrix: (Units=GPa)
#
#
# Indices 1 2 3 4 5 6 
#
# 1 162.3979 68.2136 54.7299 0.0000 0.0000 0.0000
# 2 68.2136 115.1105 38.7339 0.0000 0.0000 0.0000
# 3 54.7299 38.7339 94.3723 0.0000 0.0000 0.0000
# 4 0.0000 0.0000 0.0000 28.9097 0.0000 0.0000
# 5 0.0000 0.0000 0.0000 0.0000 25.2268 0.0000
# 6 0.0000 0.0000 0.0000 0.0000 0.0000 26.8856
#
#
#
# Elastic Compliance Matrix: (Units=1/GPa)
#
#
# Indices 1 2 3 4 5 6 
#
# 1 0.009127 -0.004209 -0.003566 0.000000 0.000000 0.000000
# 2 -0.004209 0.012020 -0.002493 0.000000 0.000000 0.000000
# 3 -0.003566 -0.002493 0.013687 0.000000 0.000000 0.000000
# 4 0.000000 0.000000 0.000000 0.034590 0.000000 0.000000
# 5 0.000000 0.000000 0.000000 0.000000 0.039640 0.000000
# 6 0.000000 0.000000 0.000000 0.000000 0.000000 0.037195
#
#
# Mechanical properties :
#
#
# Convention : Reuss Voigt Hill
#
# Bulk Modulus (GPa) = 69.92904 77.24840 73.58872
# Shear Modulus (GPa) = 29.14403 30.21799 29.68101
#
# Velocity S-wave (km/s) = 3.93326 4.00507 3.96933
# Velocity P-wave (km/s) = 7.59919 7.89894 7.75051
#
# Compressibility (1/GPa) = 0.01430021
#
# Stress axis : x y z
#
# Youngs Moduli (GPa) = 109.56098 83.19298 73.06029
#
# Poissons Ratio (x) = 0.35015 0.26052
# Poissons Ratio (y) = 0.46113 0.18211
# Poissons Ratio (z) = 0.39067 0.20737
#
# Static dielectric constant tensor:
#      x y z
#    x 4.956260 0.000000 0.000000 
#    y 0.000000 3.385940 0.000000 
#    z 0.000000 0.000000 3.436060 
# 
# 
# High freq. dielectric constant tensor:
#      x y z
#    x 1.748160 0.000000 0.000000 
#    y 0.000000 1.717220 0.000000 
#    z 0.000000 0.000000 1.730410 
# 
# From -- ./inp_files/4953.got.cif
#   From: 2010.03.12/outbox.cif.g09.slc.cpg/sg63_3_cif.got.tgz:4953.got - 2010.04.10 19:34:48.
