data_PCOD8259485
_publ_section_title
;
Structure prediction by ZEFSAII (Michael W. Deem and Ramdas Pophale) SiO2 
 PCOD8259485
Probable space group: C M C M
;
_chemical_formula_sum "Si O2"
_cell_formula_units_Z 96
_cell_length_a 28.100458
_cell_length_b 8.774050
_cell_length_c 18.655002
_cell_angle_alpha 90.000000
_cell_angle_beta 90.000000
_cell_angle_gamma 90.000000
_cell_volume 4599.480726
_symmetry_space_group_name_H-M "C M C M"
_symmetry_group_IT_number 63
_symmetry_cell_setting 'orthorhombic'
loop_
_space_group_symop_operation_xyz
x,y,z
-x,-y,1/2+z
x,-y,-z
-x,y,1/2-z
-x,-y,-z
x,y,1/2-z
-x,y,z
x,-y,1/2+z
1/2+x,1/2+y,z
1/2-x,1/2-y,1/2+z
1/2+x,1/2-y,-z
1/2-x,1/2+y,1/2-z
1/2-x,1/2-y,-z
1/2+x,1/2+y,1/2-z
1/2-x,1/2+y,z
1/2+x,1/2-y,1/2+z
loop_
_atom_site_type_symbol
_atom_site_label
_atom_site_fract_x
_atom_site_fract_y
_atom_site_fract_z
Si Si1 0.946636 0.829237 0.586910
Si Si2 0.784018 0.084903 0.164913
Si Si3 0.361329 0.440762 0.074914
Si Si4 0.192581 0.584530 0.665886
Si Si5 0.416353 0.044034 0.832564
Si Si6 0.589910 0.146054 0.457367
O O1 0.935632 0.713119 0.652116
O O2 0.943898 0.740759 0.510925
O O3 0.000000 0.893057 0.595635
O O4 0.910891 0.971061 0.591184
O O5 0.787258 0.080998 0.250000
O O6 0.823288 0.965962 0.137200
O O7 0.731376 0.036932 0.137848
O O8 0.796052 0.250072 0.131799
O O9 0.369221 0.259435 0.070715
O O10 0.339852 0.500000 0.000000
O O11 0.198054 0.603866 0.750000
O O12 0.139507 0.533966 0.646906
O O13 0.427016 0.001876 0.750000
O O14 0.439051 0.919263 0.887336
O O15 0.611759 0.000000 0.500000
#
# Coordination Sequence:
#
# PCOD8259485 Si02
#       6
#    16  16  16  16  16  16
#     4  10  21  40  63  83 112 156 199 240 292 353
#     4  10  20  36  58  85 117 155 197 238 287 350
#     4  10  21  38  58  86 118 151 199 246 291 340
#     4   9  19  34  55  83 116 153 192 231 282 348
#     4  10  20  37  59  87 120 152 192 242 290 345
#     4   9  21  37  57  84 114 152 191 235 288 352
#
# _framework density 20.871921
#
# number of rings (size 3 to 8) (size 9 to 14) (size 15 to 20)
#    0.000    2.333    1.667    0.000    2.333    7.000 
#    0.000    3.333    0.000    0.000    0.000    4.667 
#    0.000    0.000    0.000    0.000    0.000    0.000 
#
# Total GULP energy -594933.552952 kJ/mol
# GULP energy per Si atom -12394.449020 kJ/mol
# Density = 2.082442 g / cm^3
# Si number density = 20.871921 Si / 1000 Ang^3
#
#
#
# Elastic Constant Matrix: (Units=GPa)
#
#
# Indices 1 2 3 4 5 6 
#
# 1 96.5202 -1.9088 6.3194 0.0000 0.0000 0.0000
# 2 -1.9088 72.4901 13.9081 0.0000 0.0000 0.0000
# 3 6.3194 13.9081 80.5706 0.0000 0.0000 0.0000
# 4 0.0000 0.0000 0.0000 25.3555 0.0000 0.0000
# 5 0.0000 0.0000 0.0000 0.0000 17.5886 0.0000
# 6 0.0000 0.0000 0.0000 0.0000 0.0000 16.7019
#
#
#
# Elastic Compliance Matrix: (Units=1/GPa)
#
#
# Indices 1 2 3 4 5 6 
#
# 1 0.010428 0.000446 -0.000895 0.000000 0.000000 0.000000
# 2 0.000446 0.014287 -0.002501 0.000000 0.000000 0.000000
# 3 -0.000895 -0.002501 0.012913 0.000000 0.000000 0.000000
# 4 0.000000 0.000000 0.000000 0.039439 0.000000 0.000000
# 5 0.000000 0.000000 0.000000 0.000000 0.056855 0.000000
# 6 0.000000 0.000000 0.000000 0.000000 0.000000 0.059873
#
#
# Mechanical properties :
#
#
# Convention : Reuss Voigt Hill
#
# Bulk Modulus (GPa) = 31.51752 31.80202 31.65977
# Shear Modulus (GPa) = 23.77881 27.34669 25.56275
#
# Velocity S-wave (km/s) = 3.37897 3.62362 3.50343
# Velocity P-wave (km/s) = 5.50967 5.72514 5.61844
#
# Compressibility (1/GPa) = 0.03172839
#
# Stress axis : x y z
#
# Youngs Moduli (GPa) = 95.89618 69.99559 77.43883
#
# Poissons Ratio (x) = -0.03124 0.06930
# Poissons Ratio (y) = -0.04280 0.19369
# Poissons Ratio (z) = 0.08582 0.17507
#
# Static dielectric constant tensor:
#      x y z
#    x 3.613300 0.000000 0.000000 
#    y 0.000000 3.944520 0.000000 
#    z 0.000000 0.000000 3.717830 
# 
# 
# High freq. dielectric constant tensor:
#      x y z
#    x 1.795250 0.000000 0.000000 
#    y 0.000000 1.820650 0.000000 
#    z 0.000000 0.000000 1.807110 
# 
# From -- ./inp_files/58070.got.cif
#   From: 2010.03.12/outbox.cif.g09.slc.cpg/sg63_30_cif.got.tgz:58070.got - 2010.04.10 19:34:48.
