data_PCOD8259642
_publ_section_title
;
Structure prediction by ZEFSAII (Michael W. Deem and Ramdas Pophale) SiO2 
 PCOD8259642
Probable space group: C M C M
;
_chemical_formula_sum "Si O2"
_cell_formula_units_Z 104
_cell_length_a 31.850936
_cell_length_b 19.620086
_cell_length_c 8.707710
_cell_angle_alpha 90.000000
_cell_angle_beta 90.000000
_cell_angle_gamma 90.000000
_cell_volume 5441.605619
_symmetry_space_group_name_H-M "C M C M"
_symmetry_group_IT_number 63
_symmetry_cell_setting 'orthorhombic'
loop_
_space_group_symop_operation_xyz
x,y,z
-x,-y,1/2+z
x,-y,-z
-x,y,1/2-z
-x,-y,-z
x,y,1/2-z
-x,y,z
x,-y,1/2+z
1/2+x,1/2+y,z
1/2-x,1/2-y,1/2+z
1/2+x,1/2-y,-z
1/2-x,1/2+y,1/2-z
1/2-x,1/2-y,-z
1/2+x,1/2+y,1/2-z
1/2-x,1/2+y,z
1/2+x,1/2-y,1/2+z
loop_
_atom_site_type_symbol
_atom_site_label
_atom_site_fract_x
_atom_site_fract_y
_atom_site_fract_z
Si Si1 0.500000 0.424464 0.432837
Si Si2 0.769840 0.845523 0.071296
Si Si3 0.150996 0.072874 0.569100
Si Si4 0.402567 0.201317 0.067089
Si Si5 0.691972 0.795776 0.930722
Si Si6 0.047565 0.569324 0.430993
Si Si7 0.577671 0.342661 0.932113
O O1 0.500000 0.500000 0.500000
O O2 0.500000 0.428419 0.250000
O O3 0.458960 0.385351 0.489058
O O4 0.761361 0.838788 0.250000
O O5 0.800291 0.909141 0.034391
O O6 0.792735 0.777640 0.008410
O O7 0.724400 0.853746 0.990798
O O8 0.141619 0.073987 0.750000
O O9 0.122272 0.128702 0.487543
O O10 0.140116 0.000000 0.500000
O O11 0.404994 0.212481 0.250000
O O12 0.354898 0.192350 0.007466
O O13 0.426193 0.133777 0.010971
O O14 0.425296 0.264476 0.984979
O O15 0.691330 0.799106 0.750000
O O16 0.067060 0.500000 0.500000
O O17 0.049763 0.563785 0.250000
O O18 0.000000 0.578805 0.489749
O O19 0.573276 0.348388 0.750000
#
# Coordination Sequence:
#
# PCOD8259642 Si02
#       7
#     8  16  16  16  16  16  16
#     4  12  26  46  66  84 117 160 199 244 294 348
#     4   9  18  33  53  78 109 145 188 234 282 339
#     4  11  22  39  59  83 116 156 199 244 293 348
#     4  10  20  37  59  87 118 154 196 240 292 349
#     4   9  17  32  54  79 110 145 185 233 285 340
#     4   9  19  36  59  85 113 149 189 228 283 346
#     4  12  25  40  60  90 120 152 197 244 291 347
#
# _framework density 19.112006999999998
#
# number of rings (size 3 to 8) (size 9 to 14) (size 15 to 20)
#    0.000    1.846    1.538    3.000    1.077    2.462 
#    0.000    0.769    0.000    3.692    0.000    0.000 
#    0.000    0.000    0.000    0.000    0.000    0.000 
#
# Total GULP energy -644846.167128 kJ/mol
# GULP energy per Si atom -12400.887829 kJ/mol
# Density = 1.906851 g / cm^3
# Si number density = 19.112007 Si / 1000 Ang^3
#
#
#
# Elastic Constant Matrix: (Units=GPa)
#
#
# Indices 1 2 3 4 5 6 
#
# 1 115.8418 63.8832 39.6186 0.0000 0.0000 0.0000
# 2 63.8832 138.6711 44.7029 0.0000 0.0000 0.0000
# 3 39.6186 44.7029 78.5499 0.0000 0.0000 0.0000
# 4 0.0000 0.0000 0.0000 31.8958 0.0000 0.0000
# 5 0.0000 0.0000 0.0000 0.0000 30.7966 0.0000
# 6 0.0000 0.0000 0.0000 0.0000 0.0000 28.2739
#
#
#
# Elastic Compliance Matrix: (Units=1/GPa)
#
#
# Indices 1 2 3 4 5 6 
#
# 1 0.012381 -0.004520 -0.003672 0.000000 0.000000 0.000000
# 2 -0.004520 0.010482 -0.003685 0.000000 0.000000 0.000000
# 3 -0.003672 -0.003685 0.016680 0.000000 0.000000 0.000000
# 4 0.000000 0.000000 0.000000 0.031352 0.000000 0.000000
# 5 0.000000 0.000000 0.000000 0.000000 0.032471 0.000000
# 6 0.000000 0.000000 0.000000 0.000000 0.000000 0.035368
#
#
# Mechanical properties :
#
#
# Convention : Reuss Voigt Hill
#
# Bulk Modulus (GPa) = 63.34054 69.94136 66.64095
# Shear Modulus (GPa) = 29.80584 30.51712 30.16148
#
# Velocity S-wave (km/s) = 3.95338 4.00027 3.97689
# Velocity P-wave (km/s) = 7.35205 7.61651 7.48545
#
# Compressibility (1/GPa) = 0.01578768
#
# Stress axis : x y z
#
# Youngs Moduli (GPa) = 80.76892 95.40573 59.95064
#
# Poissons Ratio (x) = 0.43122 0.22016
# Poissons Ratio (y) = 0.36506 0.22094
# Poissons Ratio (z) = 0.29662 0.35161
#
# Static dielectric constant tensor:
#      x y z
#    x 3.734080 0.000000 0.000000 
#    y 0.000000 3.495620 0.000000 
#    z 0.000000 0.000000 3.407880 
# 
# 
# High freq. dielectric constant tensor:
#      x y z
#    x 1.750740 0.000000 0.000000 
#    y 0.000000 1.734060 0.000000 
#    z 0.000000 0.000000 1.738680 
# 
# From -- ./inp_files/14483.got.cif
#   From: 2010.03.12/outbox.cif.g09.slc.cpg/sg63_8_cif.got.tgz:14483.got - 2010.04.10 19:34:48.
