data_PCOD8259927
_publ_section_title
;
Structure prediction by ZEFSAII (Michael W. Deem and Ramdas Pophale) SiO2 
 PCOD8259927
Probable space group: C M C M
;
_chemical_formula_sum "Si O2"
_cell_formula_units_Z 112
_cell_length_a 15.600273
_cell_length_b 23.903177
_cell_length_c 14.522980
_cell_angle_alpha 90.000000
_cell_angle_beta 90.000000
_cell_angle_gamma 90.000000
_cell_volume 5415.562410
_symmetry_space_group_name_H-M "C M C M"
_symmetry_group_IT_number 63
_symmetry_cell_setting 'orthorhombic'
loop_
_space_group_symop_operation_xyz
x,y,z
-x,-y,1/2+z
x,-y,-z
-x,y,1/2-z
-x,-y,-z
x,y,1/2-z
-x,y,z
x,-y,1/2+z
1/2+x,1/2+y,z
1/2-x,1/2-y,1/2+z
1/2+x,1/2-y,-z
1/2-x,1/2+y,1/2-z
1/2-x,1/2-y,-z
1/2+x,1/2+y,1/2-z
1/2-x,1/2+y,z
1/2+x,1/2-y,1/2+z
loop_
_atom_site_type_symbol
_atom_site_label
_atom_site_fract_x
_atom_site_fract_y
_atom_site_fract_z
Si Si1 0.407318 0.575646 0.855407
Si Si2 0.592238 0.755601 0.419477
Si Si3 0.096288 0.546078 0.144852
Si Si4 0.760628 0.289089 0.650853
Si Si5 0.342517 0.136810 0.492580
Si Si6 0.724478 0.947257 0.141061
Si Si7 0.095251 0.797344 0.393229
O O1 0.422820 0.562304 0.750000
O O2 0.500000 0.562426 0.905723
O O3 0.324146 0.539202 0.886780
O O4 0.379499 0.639770 0.867876
O O5 0.500000 0.751748 0.367439
O O6 0.671931 0.745576 0.352704
O O7 0.594906 0.816056 0.468302
O O8 0.596415 0.707691 0.496776
O O9 0.112642 0.565513 0.250000
O O10 0.104126 0.598130 0.076728
O O11 0.165583 0.499838 0.115099
O O12 0.000000 0.521124 0.135128
O O13 0.762416 0.320212 0.750000
O O14 0.767242 0.333368 0.567433
O O15 0.837525 0.244799 0.651420
O O16 0.304730 0.104879 0.580000
O O17 0.715979 0.932403 0.250000
O O18 0.000000 0.783615 0.354566
#
# Coordination Sequence:
#
# PCOD8259927 Si02
#       7
#    16  16  16  16  16  16  16
#     4   9  16  28  50  78 105 135 173 220 274 327
#     4  10  21  35  52  76 107 146 188 226 269 328
#     4  10  22  40  61  85 113 146 187 236 290 345
#     4  11  22  35  53  80 116 153 187 226 275 333
#     4  11  21  37  58  82 112 148 190 237 283 331
#     4  10  21  36  56  82 111 144 186 238 291 339
#     4   9  17  31  51  75 104 136 176 230 284 328
#
# _framework density 20.681139000000002
#
# number of rings (size 3 to 8) (size 9 to 14) (size 15 to 20)
#    0.000    2.000    0.000    5.143    0.000    5.143 
#    0.000    0.000    0.000    2.571    0.000    2.000 
#    0.000    0.000    0.000    0.000    0.000    0.000 
#
# Total GULP energy -693866.917336 kJ/mol
# GULP energy per Si atom -12390.480667 kJ/mol
# Density = 2.063407 g / cm^3
# Si number density = 20.681139 Si / 1000 Ang^3
#
#
#
# Elastic Constant Matrix: (Units=GPa)
#
#
# Indices 1 2 3 4 5 6 
#
# 1 165.5198 51.3432 28.9572 0.0000 0.0000 0.0000
# 2 51.3432 60.6219 19.9397 0.0000 0.0000 0.0000
# 3 28.9572 19.9397 60.8546 0.0000 0.0000 0.0000
# 4 0.0000 0.0000 0.0000 24.5497 0.0000 0.0000
# 5 0.0000 0.0000 0.0000 0.0000 9.3911 0.0000
# 6 0.0000 0.0000 0.0000 0.0000 0.0000 -25.1171
#
#
#
# Elastic Compliance Matrix: (Units=1/GPa)
#
#
# Indices 1 2 3 4 5 6 
#
# 1 0.008379 -0.006484 -0.001862 0.000000 0.000000 0.000000
# 2 -0.006484 0.023505 -0.004617 0.000000 0.000000 0.000000
# 3 -0.001862 -0.004617 0.018832 0.000000 0.000000 0.000000
# 4 0.000000 0.000000 0.000000 0.040734 0.000000 0.000000
# 5 0.000000 0.000000 0.000000 0.000000 0.106484 0.000000
# 6 0.000000 0.000000 0.000000 0.000000 0.000000 -0.039814
#
#
# Mechanical properties :
#
#
# Convention : Reuss Voigt Hill
#
# Bulk Modulus (GPa) = 40.33861 54.16407 47.25134
# Shear Modulus (GPa) = 25.99992 14.21516 20.10754
#
# Velocity S-wave (km/s) = 3.54952 2.62458 3.12150
# Velocity P-wave (km/s) = 6.02878 5.95244 5.99073
#
# Compressibility (1/GPa) = 0.02479015
#
# Stress axis : x y z
#
# Youngs Moduli (GPa) = 119.35218 42.54348 53.10243
#
# Poissons Ratio (x) = 0.27583 0.09890
# Poissons Ratio (y) = 0.77383 0.24515
# Poissons Ratio (z) = 0.22229 0.19641
#
# Static dielectric constant tensor:
#      x y z
#    x 4.260750 0.000000 0.000000 
#    y 0.000000 3.433650 0.000000 
#    z 0.000000 0.000000 3.650630 
# 
# 
# High freq. dielectric constant tensor:
#      x y z
#    x 1.829080 0.000000 0.000000 
#    y 0.000000 1.775840 0.000000 
#    z 0.000000 0.000000 1.799660 
# 
# From -- ./inp_files/32326.got.cif
#   From: 2010.03.12/outbox.cif.g09.slc.cpg/sg63_17_cif.got.tgz:32326.got - 2010.04.10 19:34:48.
