data_PCOD8259208
_publ_section_title
;
Structure prediction by ZEFSAII (Michael W. Deem and Ramdas Pophale) SiO2 
 PCOD8259208
Probable space group: C M C M
;
_chemical_formula_sum "Si O2"
_cell_formula_units_Z 96
_cell_length_a 8.746972
_cell_length_b 29.048615
_cell_length_c 20.275468
_cell_angle_alpha 90.000000
_cell_angle_beta 90.000000
_cell_angle_gamma 90.000000
_cell_volume 5151.741395
_symmetry_space_group_name_H-M "C M C M"
_symmetry_group_IT_number 63
_symmetry_cell_setting 'orthorhombic'
loop_
_space_group_symop_operation_xyz
x,y,z
-x,-y,1/2+z
x,-y,-z
-x,y,1/2-z
-x,-y,-z
x,y,1/2-z
-x,y,z
x,-y,1/2+z
1/2+x,1/2+y,z
1/2-x,1/2-y,1/2+z
1/2+x,1/2-y,-z
1/2-x,1/2+y,1/2-z
1/2-x,1/2-y,-z
1/2+x,1/2+y,1/2-z
1/2-x,1/2+y,z
1/2+x,1/2-y,1/2+z
loop_
_atom_site_type_symbol
_atom_site_label
_atom_site_fract_x
_atom_site_fract_y
_atom_site_fract_z
Si Si1 0.178749 0.222346 0.939648
Si Si2 0.680032 0.128877 0.975097
Si Si3 0.823699 0.875131 0.616026
Si Si4 0.675765 0.277254 0.825355
Si Si5 0.680672 0.029252 0.560764
Si Si6 0.823079 0.463075 0.674901
O O1 0.237697 0.170263 0.937600
O O2 0.217734 0.245867 0.870536
O O3 0.000000 0.222177 0.951235
O O4 0.250000 0.250000 0.000000
O O5 0.500000 0.135104 0.966696
O O6 0.741309 0.081575 0.942098
O O7 0.718181 0.128487 0.052180
O O8 0.793888 0.830801 0.661000
O O9 0.778748 0.918918 0.659411
O O10 0.000000 0.878691 0.594197
O O11 0.719135 0.266826 0.750000
O O12 0.500000 0.264752 0.840169
O O13 0.500000 0.030628 0.552629
O O14 0.751184 0.000000 0.500000
O O15 0.729917 0.005762 0.629401
O O16 0.796257 0.478408 0.750000
O O17 0.000000 0.450719 0.661135
#
# Coordination Sequence:
#
# PCOD8259208 Si02
#       6
#    16  16  16  16  16  16
#     4  12  24  39  60  86 118 154 195 239 287 343
#     4  11  21  36  60  86 114 149 193 242 288 336
#     4  11  21  34  56  86 120 151 183 233 293 347
#     4  10  22  40  60  84 117 155 193 236 290 349
#     4   9  17  33  56  81 111 145 186 234 280 329
#     4  10  20  35  56  82 112 149 192 234 279 337
#
# _framework density 18.634475999999999
#
# number of rings (size 3 to 8) (size 9 to 14) (size 15 to 20)
#    0.000    1.500    3.333    3.000    0.000    2.000 
#    0.000    3.333    0.000    3.000    0.000    0.000 
#    0.000    0.000    0.000    0.000    0.000    0.000 
#
# Total GULP energy -595366.754834 kJ/mol
# GULP energy per Si atom -12403.474059 kJ/mol
# Density = 1.859206 g / cm^3
# Si number density = 18.634476 Si / 1000 Ang^3
#
#
#
# Elastic Constant Matrix: (Units=GPa)
#
#
# Indices 1 2 3 4 5 6 
#
# 1 82.7812 54.3627 38.1375 0.0000 0.0000 0.0000
# 2 54.3627 155.2435 63.9588 0.0000 0.0000 0.0000
# 3 38.1375 63.9588 117.3428 0.0000 0.0000 0.0000
# 4 0.0000 0.0000 0.0000 31.1566 0.0000 0.0000
# 5 0.0000 0.0000 0.0000 0.0000 23.4644 0.0000
# 6 0.0000 0.0000 0.0000 0.0000 0.0000 28.8440
#
#
#
# Elastic Compliance Matrix: (Units=1/GPa)
#
#
# Indices 1 2 3 4 5 6 
#
# 1 0.016388 -0.004571 -0.002835 0.000000 0.000000 0.000000
# 2 -0.004571 0.009582 -0.003737 0.000000 0.000000 0.000000
# 3 -0.002835 -0.003737 0.011480 0.000000 0.000000 0.000000
# 4 0.000000 0.000000 0.000000 0.032096 0.000000 0.000000
# 5 0.000000 0.000000 0.000000 0.000000 0.042618 0.000000
# 6 0.000000 0.000000 0.000000 0.000000 0.000000 0.034669
#
#
# Mechanical properties :
#
#
# Convention : Reuss Voigt Hill
#
# Bulk Modulus (GPa) = 65.94364 74.25394 70.09879
# Shear Modulus (GPa) = 28.70718 29.95357 29.33037
#
# Velocity S-wave (km/s) = 3.92923 4.01362 3.97165
# Velocity P-wave (km/s) = 7.48665 7.83665 7.66365
#
# Compressibility (1/GPa) = 0.01516446
#
# Stress axis : x y z
#
# Youngs Moduli (GPa) = 61.02167 104.36596 87.10552
#
# Poissons Ratio (x) = 0.47702 0.24693
# Poissons Ratio (y) = 0.27891 0.32552
# Poissons Ratio (z) = 0.17299 0.39002
#
# Static dielectric constant tensor:
#      x y z
#    x 3.334570 0.000000 0.000000 
#    y 0.000000 3.690940 0.000000 
#    z 0.000000 0.000000 3.428430 
# 
# 
# High freq. dielectric constant tensor:
#      x y z
#    x 1.711540 0.000000 0.000000 
#    y 0.000000 1.729850 0.000000 
#    z 0.000000 0.000000 1.719560 
# 
# From -- ./inp_files/51275.got.cif
#   From: 2010.03.12/outbox.cif.g09.slc.cpg/sg63_26_cif.got.tgz:51275.got - 2010.04.10 19:34:48.
