data_PCOD8259237
_publ_section_title
;
Structure prediction by ZEFSAII (Michael W. Deem and Ramdas Pophale) SiO2 
 PCOD8259237
Probable space group: C M C M
;
_chemical_formula_sum "Si O2"
_cell_formula_units_Z 72
_cell_length_a 15.441818
_cell_length_b 26.652210
_cell_length_c 8.944718
_cell_angle_alpha 90.000000
_cell_angle_beta 90.000000
_cell_angle_gamma 90.000000
_cell_volume 3681.275404
_symmetry_space_group_name_H-M "C M C M"
_symmetry_group_IT_number 63
_symmetry_cell_setting 'orthorhombic'
loop_
_space_group_symop_operation_xyz
x,y,z
-x,-y,1/2+z
x,-y,-z
-x,y,1/2-z
-x,-y,-z
x,y,1/2-z
-x,y,z
x,-y,1/2+z
1/2+x,1/2+y,z
1/2-x,1/2-y,1/2+z
1/2+x,1/2-y,-z
1/2-x,1/2+y,1/2-z
1/2-x,1/2-y,-z
1/2+x,1/2+y,1/2-z
1/2-x,1/2+y,z
1/2+x,1/2-y,1/2+z
loop_
_atom_site_type_symbol
_atom_site_label
_atom_site_fract_x
_atom_site_fract_y
_atom_site_fract_z
Si Si1 0.500000 0.287757 0.428336
Si Si2 0.000000 0.446377 0.926023
Si Si3 0.179791 0.052888 0.927476
Si Si4 0.665771 0.228486 0.425021
Si Si5 0.829832 0.612659 0.074952
Si Si6 0.500000 0.400810 0.427206
O O1 0.500000 0.287307 0.250000
O O2 0.583986 0.258851 0.489880
O O3 0.500000 0.344372 0.492385
O O4 0.085004 0.416718 0.978528
O O5 0.000000 0.453114 0.750000
O O6 0.000000 0.500000 0.000000
O O7 0.183718 0.047962 0.750000
O O8 0.084839 0.069807 0.983984
O O9 0.248069 0.094176 0.980524
O O10 0.204273 0.000000 0.000000
O O11 0.674298 0.237173 0.250000
O O12 0.750000 0.250000 0.500000
O O13 0.653737 0.170375 0.463988
O O14 0.811159 0.604384 0.250000
O O15 0.500000 0.397709 0.250000
#
# Coordination Sequence:
#
# PCOD8259237 Si02
#       6
#     8   8  16  16  16   8
#     4   9  17  33  56  80 107 144 183 216 260 324
#     4  10  21  37  56  78 107 142 181 222 268 321
#     4  11  22  37  57  81 109 143 181 224 271 321
#     4  10  20  35  57  82 110 144 182 222 266 317
#     4  10  21  37  56  81 111 144 181 222 268 320
#     4   9  19  34  54  80 109 142 181 220 264 319
#
# _framework density 19.558439
#
# number of rings (size 3 to 8) (size 9 to 14) (size 15 to 20)
#    0.000    2.000    0.000    3.667    0.000    8.000 
#    0.000    2.222    0.000    8.000    0.000    0.000 
#    0.000    0.000    0.000    0.000    0.000    0.000 
#
# Total GULP energy -446544.704913 kJ/mol
# GULP energy per Si atom -12404.019581 kJ/mol
# Density = 1.951392 g / cm^3
# Si number density = 19.558439 Si / 1000 Ang^3
#
#
#
# Elastic Constant Matrix: (Units=GPa)
#
#
# Indices 1 2 3 4 5 6 
#
# 1 131.6383 33.5575 28.0716 0.0000 0.0000 0.0000
# 2 33.5575 112.2483 28.3729 0.0000 0.0000 0.0000
# 3 28.0716 28.3729 35.9338 0.0000 0.0000 0.0000
# 4 0.0000 0.0000 0.0000 25.2297 0.0000 0.0000
# 5 0.0000 0.0000 0.0000 0.0000 28.6977 0.0000
# 6 0.0000 0.0000 0.0000 0.0000 0.0000 45.4071
#
#
#
# Elastic Compliance Matrix: (Units=1/GPa)
#
#
# Indices 1 2 3 4 5 6 
#
# 1 0.009237 -0.001171 -0.006291 0.000000 0.000000 0.000000
# 2 -0.001171 0.011279 -0.007991 0.000000 0.000000 0.000000
# 3 -0.006291 -0.007991 0.039053 0.000000 0.000000 0.000000
# 4 0.000000 0.000000 0.000000 0.039636 0.000000 0.000000
# 5 0.000000 0.000000 0.000000 0.000000 0.034846 0.000000
# 6 0.000000 0.000000 0.000000 0.000000 0.000000 0.022023
#
#
# Mechanical properties :
#
#
# Convention : Reuss Voigt Hill
#
# Bulk Modulus (GPa) = 34.88860 51.09159 42.99010
# Shear Modulus (GPa) = 25.44105 32.52147 28.98126
#
# Velocity S-wave (km/s) = 3.61053 4.08215 3.85356
# Velocity P-wave (km/s) = 5.93786 6.95685 6.46746
#
# Compressibility (1/GPa) = 0.02866265
#
# Stress axis : x y z
#
# Youngs Moduli (GPa) = 108.26412 88.66235 25.60637
#
# Poissons Ratio (x) = 0.10384 0.16109
# Poissons Ratio (y) = 0.12680 0.20461
# Poissons Ratio (z) = 0.68108 0.70847
#
# Static dielectric constant tensor:
#      x y z
#    x 3.778070 0.000000 0.000000 
#    y 0.000000 3.568700 0.000000 
#    z 0.000000 0.000000 3.229940 
# 
# 
# High freq. dielectric constant tensor:
#      x y z
#    x 1.780470 0.000000 0.000000 
#    y 0.000000 1.780850 0.000000 
#    z 0.000000 0.000000 1.731490 
# 
# From -- ./inp_files/4691.got.cif
#   From: 2010.03.12/outbox.cif.g09.slc.cpg/sg63_3_cif.got.tgz:4691.got - 2010.04.10 19:34:48.
