data_PCOD8259957
_publ_section_title
;
Structure prediction by ZEFSAII (Michael W. Deem and Ramdas Pophale) SiO2 
 PCOD8259957
Probable space group: C M C M
;
_chemical_formula_sum "Si O2"
_cell_formula_units_Z 80
_cell_length_a 17.972390
_cell_length_b 15.330900
_cell_length_c 14.938611
_cell_angle_alpha 90.000000
_cell_angle_beta 90.000000
_cell_angle_gamma 90.000000
_cell_volume 4116.079018
_symmetry_space_group_name_H-M "C M C M"
_symmetry_group_IT_number 63
_symmetry_cell_setting 'orthorhombic'
loop_
_space_group_symop_operation_xyz
x,y,z
-x,-y,1/2+z
x,-y,-z
-x,y,1/2-z
-x,-y,-z
x,y,1/2-z
-x,y,z
x,-y,1/2+z
1/2+x,1/2+y,z
1/2-x,1/2-y,1/2+z
1/2+x,1/2-y,-z
1/2-x,1/2+y,1/2-z
1/2-x,1/2-y,-z
1/2+x,1/2+y,1/2-z
1/2-x,1/2+y,z
1/2+x,1/2-y,1/2+z
loop_
_atom_site_type_symbol
_atom_site_label
_atom_site_fract_x
_atom_site_fract_y
_atom_site_fract_z
Si Si1 0.236006 0.968598 0.148163
Si Si2 0.585084 0.232914 0.018781
Si Si3 0.581715 0.571100 0.576484
Si Si4 0.296786 0.149803 0.145561
Si Si5 0.821660 0.300646 0.146185
O O1 0.258592 0.974998 0.250000
O O2 0.147147 0.954942 0.143904
O O3 0.279651 0.886157 0.107972
O O4 0.263938 0.059224 0.104599
O O5 0.500000 0.205701 0.031749
O O6 0.598379 0.334754 0.035411
O O7 0.630885 0.175702 0.089580
O O8 0.606790 0.212982 0.916037
O O9 0.581914 0.500000 0.500000
O O10 0.500000 0.570888 0.624278
O O11 0.319497 0.143474 0.250000
O O12 0.233149 0.220455 0.131945
O O13 0.846531 0.308575 0.250000
#
# Coordination Sequence:
#
# PCOD8259957 Si02
#       5
#    16  16  16  16  16
#     4  10  21  36  58  85 112 152 196 239 292 346
#     4  11  23  38  59  87 119 158 196 240 302 350
#     4  10  21  35  55  87 120 149 187 238 298 360
#     4  10  21  38  60  88 118 152 198 244 290 351
#     4  10  21  38  58  84 116 153 201 245 289 350
#
# _framework density 19.435974000000002
#
# number of rings (size 3 to 8) (size 9 to 14) (size 15 to 20)
#    0.000    1.800    2.000    1.800    2.800    1.200 
#    0.000    4.000    0.000   10.800    0.000    0.000 
#    0.000    0.000    0.000    0.000    0.000    0.000 
#
# Total GULP energy -495874.259631 kJ/mol
# GULP energy per Si atom -12396.856491 kJ/mol
# Density = 1.939174 g / cm^3
# Si number density = 19.435974 Si / 1000 Ang^3
#
#
#
# Elastic Constant Matrix: (Units=GPa)
#
#
# Indices 1 2 3 4 5 6 
#
# 1 130.8725 63.7424 50.3792 0.0000 0.0000 0.0000
# 2 63.7424 158.3054 31.3680 0.0000 0.0000 0.0000
# 3 50.3792 31.3680 66.2796 0.0000 0.0000 0.0000
# 4 0.0000 0.0000 0.0000 15.0458 0.0000 0.0000
# 5 0.0000 0.0000 0.0000 0.0000 28.1359 0.0000
# 6 0.0000 0.0000 0.0000 0.0000 0.0000 33.3448
#
#
#
# Elastic Compliance Matrix: (Units=1/GPa)
#
#
# Indices 1 2 3 4 5 6 
#
# 1 0.012273 -0.003413 -0.007713 0.000000 0.000000 0.000000
# 2 -0.003413 0.007920 -0.001154 0.000000 0.000000 0.000000
# 3 -0.007713 -0.001154 0.021496 0.000000 0.000000 0.000000
# 4 0.000000 0.000000 0.000000 0.066464 0.000000 0.000000
# 5 0.000000 0.000000 0.000000 0.000000 0.035542 0.000000
# 6 0.000000 0.000000 0.000000 0.000000 0.000000 0.029990
#
#
# Mechanical properties :
#
#
# Convention : Reuss Voigt Hill
#
# Bulk Modulus (GPa) = 58.38179 71.82631 65.10405
# Shear Modulus (GPa) = 24.51535 29.30316 26.90926
#
# Velocity S-wave (km/s) = 3.55539 3.88709 3.72493
# Velocity P-wave (km/s) = 6.85256 7.56185 7.21592
#
# Compressibility (1/GPa) = 0.01712863
#
# Stress axis : x y z
#
# Youngs Moduli (GPa) = 81.48227 126.26417 46.51961
#
# Poissons Ratio (x) = 0.43098 0.35881
# Poissons Ratio (y) = 0.27812 0.05367
# Poissons Ratio (z) = 0.62847 0.14568
#
# Static dielectric constant tensor:
#      x y z
#    x 3.614230 0.000000 0.000000 
#    y 0.000000 4.020020 0.000000 
#    z 0.000000 0.000000 3.411320 
# 
# 
# High freq. dielectric constant tensor:
#      x y z
#    x 1.747660 0.000000 0.000000 
#    y 0.000000 1.774480 0.000000 
#    z 0.000000 0.000000 1.748330 
# 
# From -- ./inp_files/33858.got.cif
#   From: 2010.03.12/outbox.cif.g09.slc.cpg/sg63_17_cif.got.tgz:33858.got - 2010.04.10 19:34:48.
