data_PCOD8259178
_publ_section_title
;
Structure prediction by ZEFSAII (Michael W. Deem and Ramdas Pophale) SiO2 
 PCOD8259178
Probable space group: C M C M
;
_chemical_formula_sum "Si O2"
_cell_formula_units_Z 72
_cell_length_a 30.995477
_cell_length_b 9.510896
_cell_length_c 13.976904
_cell_angle_alpha 90.000000
_cell_angle_beta 90.000000
_cell_angle_gamma 90.000000
_cell_volume 4120.318035
_symmetry_space_group_name_H-M "C M C M"
_symmetry_group_IT_number 63
_symmetry_cell_setting 'orthorhombic'
loop_
_space_group_symop_operation_xyz
x,y,z
-x,-y,1/2+z
x,-y,-z
-x,y,1/2-z
-x,-y,-z
x,y,1/2-z
-x,y,z
x,-y,1/2+z
1/2+x,1/2+y,z
1/2-x,1/2-y,1/2+z
1/2+x,1/2-y,-z
1/2-x,1/2+y,1/2-z
1/2-x,1/2-y,-z
1/2+x,1/2+y,1/2-z
1/2-x,1/2+y,z
1/2+x,1/2-y,1/2+z
loop_
_atom_site_type_symbol
_atom_site_label
_atom_site_fract_x
_atom_site_fract_y
_atom_site_fract_z
Si Si1 0.571578 0.657914 0.750000
Si Si2 0.665876 0.774433 0.250000
Si Si3 0.797960 0.501704 0.614213
Si Si4 0.000000 0.171307 0.395741
Si Si5 0.500000 0.662095 0.605284
Si Si6 0.220385 0.001705 0.750000
Si Si7 0.334569 0.218732 0.250000
Si Si8 0.571155 0.674458 0.250000
O O1 0.543813 0.707026 0.658469
O O2 0.615837 0.740607 0.750000
O O3 0.580860 0.491638 0.750000
O O4 0.681024 0.854686 0.154105
O O5 0.685300 0.619752 0.250000
O O6 0.614446 0.764330 0.250000
O O7 0.797636 0.500000 0.500000
O O8 0.749331 0.489801 0.654440
O O9 0.825429 0.370634 0.654163
O O10 0.000000 0.235691 0.501861
O O11 0.043406 0.220113 0.342445
O O12 0.000000 0.004585 0.399769
O O13 0.196575 0.149012 0.750000
#
# Coordination Sequence:
#
# PCOD8259178 Si02
#       8
#     8   8  16   8   8   8   8   8
#     4   9  16  29  50  75 103 133 165 209 258 299
#     4  10  20  35  56  79 103 135 177 215 253 308
#     4  10  22  38  52  72 108 145 170 207 264 312
#     4   8  15  27  44  71 107 135 158 201 261 309
#     4   8  15  27  44  71 107 135 158 201 261 309
#     4  10  20  36  58  79 100 131 176 224 260 300
#     4  10  20  35  56  79 103 135 177 215 253 308
#     4   9  16  29  50  75 103 133 165 209 258 299
#
# _framework density 17.47438
#
# number of rings (size 3 to 8) (size 9 to 14) (size 15 to 20)
#    0.000    2.889    1.111    4.000    0.000    5.333 
#    0.000    0.000    0.000   10.667    0.000   12.444 
#    0.000    0.000    0.000    0.000    0.000    0.000 
#
# Total GULP energy -446241.947676 kJ/mol
# GULP energy per Si atom -12395.609658 kJ/mol
# Density = 1.743461 g / cm^3
# Si number density = 17.474380 Si / 1000 Ang^3
#
#
#
# Elastic Constant Matrix: (Units=GPa)
#
#
# Indices 1 2 3 4 5 6 
#
# 1 123.6229 18.3025 49.9978 0.0000 0.0000 0.0000
# 2 18.3025 53.5133 24.4056 0.0000 0.0000 0.0000
# 3 49.9978 24.4056 174.6270 0.0000 0.0000 0.0000
# 4 0.0000 0.0000 0.0000 5.4138 0.0000 0.0000
# 5 0.0000 0.0000 0.0000 0.0000 12.7103 0.0000
# 6 0.0000 0.0000 0.0000 0.0000 0.0000 4.6965
#
#
#
# Elastic Compliance Matrix: (Units=1/GPa)
#
#
# Indices 1 2 3 4 5 6 
#
# 1 0.009367 -0.002115 -0.002386 0.000000 0.000000 0.000000
# 2 -0.002115 0.020437 -0.002251 0.000000 0.000000 0.000000
# 3 -0.002386 -0.002251 0.006724 0.000000 0.000000 0.000000
# 4 0.000000 0.000000 0.000000 0.184712 0.000000 0.000000
# 5 0.000000 0.000000 0.000000 0.000000 0.078676 0.000000
# 6 0.000000 0.000000 0.000000 0.000000 0.000000 0.212923
#
#
# Mechanical properties :
#
#
# Convention : Reuss Voigt Hill
#
# Bulk Modulus (GPa) = 43.43326 59.68609 51.55968
# Shear Modulus (GPa) = 9.36297 21.83463 15.59880
#
# Velocity S-wave (km/s) = 2.31727 3.53869 2.99099
# Velocity P-wave (km/s) = 5.66295 7.13631 6.44189
#
# Compressibility (1/GPa) = 0.02302383
#
# Stress axis : x y z
#
# Youngs Moduli (GPa) = 106.75264 48.93115 148.71521
#
# Poissons Ratio (x) = 0.10351 0.35489
# Poissons Ratio (y) = 0.22583 0.33469
# Poissons Ratio (z) = 0.25475 0.11012
#
# Static dielectric constant tensor:
#      x y z
#    x 3.269280 0.000000 0.000000 
#    y 0.000000 3.052010 0.000000 
#    z 0.000000 0.000000 3.624420 
# 
# 
# High freq. dielectric constant tensor:
#      x y z
#    x 1.684150 0.000000 0.000000 
#    y 0.000000 1.655290 0.000000 
#    z 0.000000 0.000000 1.669070 
# 
# From -- ./inp_files/38379.got.cif
#   From: 2010.03.12/outbox.cif.g09.slc.cpg/sg63_20_cif.got.tgz:38379.got - 2010.04.10 19:34:48.
