data_PCOD8259263
_publ_section_title
;
Structure prediction by ZEFSAII (Michael W. Deem and Ramdas Pophale) SiO2 
 PCOD8259263
Probable space group: C M C M
;
_chemical_formula_sum "Si O2"
_cell_formula_units_Z 64
_cell_length_a 13.392077
_cell_length_b 26.948263
_cell_length_c 8.716812
_cell_angle_alpha 90.000000
_cell_angle_beta 90.000000
_cell_angle_gamma 90.000000
_cell_volume 3145.838291
_symmetry_space_group_name_H-M "C M C M"
_symmetry_group_IT_number 63
_symmetry_cell_setting 'orthorhombic'
loop_
_space_group_symop_operation_xyz
x,y,z
-x,-y,1/2+z
x,-y,-z
-x,y,1/2-z
-x,-y,-z
x,y,1/2-z
-x,y,z
x,-y,1/2+z
1/2+x,1/2+y,z
1/2-x,1/2-y,1/2+z
1/2+x,1/2-y,-z
1/2-x,1/2+y,1/2-z
1/2-x,1/2-y,-z
1/2+x,1/2+y,1/2-z
1/2-x,1/2+y,z
1/2+x,1/2-y,1/2+z
loop_
_atom_site_type_symbol
_atom_site_label
_atom_site_fract_x
_atom_site_fract_y
_atom_site_fract_z
Si Si1 0.342617 0.227521 0.077312
Si Si2 0.612296 0.118728 0.431933
Si Si3 0.210482 0.052908 0.567203
Si Si4 0.000000 0.810903 0.080382
Si Si5 0.500000 0.411916 0.929352
O O1 0.318139 0.213936 0.250000
O O2 0.383477 0.175900 0.007835
O O3 0.409939 0.274750 0.058053
O O4 0.250000 0.250000 0.000000
O O5 0.628883 0.113903 0.250000
O O6 0.500000 0.099019 0.473801
O O7 0.701268 0.089997 0.517041
O O8 0.205300 0.051566 0.750000
O O9 0.100790 0.066813 0.504623
O O10 0.241418 0.000000 0.500000
O O11 0.000000 0.836128 0.250000
O O12 0.000000 0.852841 0.951123
O O13 0.500000 0.425245 0.750000
#
# Coordination Sequence:
#
# PCOD8259263 Si02
#       5
#    16  16  16   8   8
#     4  10  20  35  57  86 123 165 206 252 304 361
#     4  10  21  41  66  93 130 173 216 265 319 377
#     4  12  26  45  68  95 126 165 213 269 328 389
#     4  10  20  37  59  88 125 165 205 246 302 366
#     4  12  25  43  66  96 131 167 211 266 325 388
#
# _framework density 20.344339000000002
#
# number of rings (size 3 to 8) (size 9 to 14) (size 15 to 20)
#    0.000    1.250    1.250    5.250    0.000    7.000 
#    0.000    0.000    0.000    0.000    0.000    0.000 
#    0.000    0.000    0.000    0.000    0.000    0.000 
#
# Total GULP energy -396427.311232 kJ/mol
# GULP energy per Si atom -12388.353476 kJ/mol
# Density = 2.029803 g / cm^3
# Si number density = 20.344339 Si / 1000 Ang^3
#
#
#
# Elastic Constant Matrix: (Units=GPa)
#
#
# Indices 1 2 3 4 5 6 
#
# 1 154.9924 32.8364 60.1866 0.0000 0.0000 0.0000
# 2 32.8364 101.8456 45.7886 0.0000 0.0000 0.0000
# 3 60.1866 45.7886 99.2752 0.0000 0.0000 0.0000
# 4 0.0000 0.0000 0.0000 34.1565 0.0000 0.0000
# 5 0.0000 0.0000 0.0000 0.0000 40.8443 0.0000
# 6 0.0000 0.0000 0.0000 0.0000 0.0000 48.6981
#
#
#
# Elastic Compliance Matrix: (Units=1/GPa)
#
#
# Indices 1 2 3 4 5 6 
#
# 1 0.008461 -0.000532 -0.004884 0.000000 0.000000 0.000000
# 2 -0.000532 0.012421 -0.005406 0.000000 0.000000 0.000000
# 3 -0.004884 -0.005406 0.015528 0.000000 0.000000 0.000000
# 4 0.000000 0.000000 0.000000 0.029277 0.000000 0.000000
# 5 0.000000 0.000000 0.000000 0.000000 0.024483 0.000000
# 6 0.000000 0.000000 0.000000 0.000000 0.000000 0.020535
#
#
# Mechanical properties :
#
#
# Convention : Reuss Voigt Hill
#
# Bulk Modulus (GPa) = 67.72998 70.41515 69.07257
# Shear Modulus (GPa) = 36.42403 39.22655 37.82529
#
# Velocity S-wave (km/s) = 4.23587 4.39581 4.31658
# Velocity P-wave (km/s) = 7.56886 7.77503 7.67263
#
# Compressibility (1/GPa) = 0.01476451
#
# Stress axis : x y z
#
# Youngs Moduli (GPa) = 118.18434 80.50904 64.40078
#
# Poissons Ratio (x) = 0.04284 0.31456
# Poissons Ratio (y) = 0.06289 0.34817
# Poissons Ratio (z) = 0.57726 0.43526
#
# Static dielectric constant tensor:
#      x y z
#    x 3.966880 0.000000 0.000000 
#    y 0.000000 3.741130 0.000000 
#    z 0.000000 0.000000 3.728190 
# 
# 
# High freq. dielectric constant tensor:
#      x y z
#    x 1.817270 0.000000 0.000000 
#    y 0.000000 1.807180 0.000000 
#    z 0.000000 0.000000 1.786550 
# 
# From -- ./inp_files/3201.got.cif
#   From: 2010.03.12/outbox.cif.g09.slc.cpg/sg63_2_cif.got.tgz:3201.got - 2010.04.10 19:34:48.
