data_PCOD8259883
_publ_section_title
;
Structure prediction by ZEFSAII (Michael W. Deem and Ramdas Pophale) SiO2 
 PCOD8259883
Probable space group: C M C M
;
_chemical_formula_sum "Si O2"
_cell_formula_units_Z 112
_cell_length_a 13.656838
_cell_length_b 28.997075
_cell_length_c 13.876054
_cell_angle_alpha 90.000000
_cell_angle_beta 90.000000
_cell_angle_gamma 90.000000
_cell_volume 5495.033329
_symmetry_space_group_name_H-M "C M C M"
_symmetry_group_IT_number 63
_symmetry_cell_setting 'orthorhombic'
loop_
_space_group_symop_operation_xyz
x,y,z
-x,-y,1/2+z
x,-y,-z
-x,y,1/2-z
-x,-y,-z
x,y,1/2-z
-x,y,z
x,-y,1/2+z
1/2+x,1/2+y,z
1/2-x,1/2-y,1/2+z
1/2+x,1/2-y,-z
1/2-x,1/2+y,1/2-z
1/2-x,1/2-y,-z
1/2+x,1/2+y,1/2-z
1/2-x,1/2+y,z
1/2+x,1/2-y,1/2+z
loop_
_atom_site_type_symbol
_atom_site_label
_atom_site_fract_x
_atom_site_fract_y
_atom_site_fract_z
Si Si1 0.615218 0.210983 0.976526
Si Si2 0.393637 0.064395 0.135544
Si Si3 0.204602 0.111177 0.361584
Si Si4 0.885621 0.619657 0.861002
Si Si5 0.699548 0.026504 0.856599
Si Si6 0.105278 0.980048 0.603094
Si Si7 0.725704 0.286399 0.863772
O O1 0.500000 0.215187 0.997763
O O2 0.643339 0.162721 0.927166
O O3 0.646286 0.249846 0.899532
O O4 0.672831 0.218158 0.076968
O O5 0.399161 0.058643 0.250000
O O6 0.500000 0.077270 0.092309
O O7 0.318847 0.105021 0.107787
O O8 0.356082 0.015742 0.090405
O O9 0.192914 0.098826 0.250000
O O10 0.136985 0.073339 0.412836
O O11 0.175856 0.163685 0.384067
O O12 0.856532 0.630813 0.750000
O O13 0.823914 0.576035 0.905647
O O14 0.000000 0.608049 0.868687
O O15 0.655709 0.032834 0.750000
O O16 0.813641 0.012310 0.846400
O O17 0.000000 0.981867 0.658392
O O18 0.088357 0.000000 0.500000
O O19 0.748878 0.280252 0.750000
#
# Coordination Sequence:
#
# PCOD8259883 Si02
#       7
#    16  16  16  16  16  16  16
#     4  10  22  39  61  90 120 151 192 243 295 355
#     4   8  13  24  44  72 105 136 170 213 263 326
#     4   9  19  34  54  79 106 143 187 232 282 338
#     4   9  17  31  55  85 114 146 185 230 284 347
#     4   9  17  29  49  74 103 142 182 226 279 332
#     4  10  21  34  49  72 104 146 190 236 284 329
#     4  10  22  40  62  88 119 155 194 242 301 359
#
# _framework density 20.382041999999998
#
# number of rings (size 3 to 8) (size 9 to 14) (size 15 to 20)
#    0.000    2.714    0.000    2.143    2.000    5.143 
#    0.000    2.857    0.000    2.143    0.000    2.000 
#    0.000    0.000    0.000    0.000    0.000    0.000 
#
# Total GULP energy -693893.556391 kJ/mol
# GULP energy per Si atom -12390.956364 kJ/mol
# Density = 2.033565 g / cm^3
# Si number density = 20.382042 Si / 1000 Ang^3
#
#
#
# Elastic Constant Matrix: (Units=GPa)
#
#
# Indices 1 2 3 4 5 6 
#
# 1 92.6993 43.5531 8.0216 0.0000 0.0000 0.0000
# 2 43.5531 143.0353 28.6183 0.0000 0.0000 0.0000
# 3 8.0216 28.6183 66.3672 0.0000 0.0000 0.0000
# 4 0.0000 0.0000 0.0000 25.0207 0.0000 0.0000
# 5 0.0000 0.0000 0.0000 0.0000 -6.0137 0.0000
# 6 0.0000 0.0000 0.0000 0.0000 0.0000 21.2810
#
#
#
# Elastic Compliance Matrix: (Units=1/GPa)
#
#
# Indices 1 2 3 4 5 6 
#
# 1 0.012590 -0.003862 0.000144 0.000000 0.000000 0.000000
# 2 -0.003862 0.008836 -0.003343 0.000000 0.000000 0.000000
# 3 0.000144 -0.003343 0.016492 0.000000 0.000000 0.000000
# 4 0.000000 0.000000 0.000000 0.039967 0.000000 0.000000
# 5 0.000000 0.000000 0.000000 0.000000 -0.166287 0.000000
# 6 0.000000 0.000000 0.000000 0.000000 0.000000 0.046990
#
#
# Mechanical properties :
#
#
# Convention : Reuss Voigt Hill
#
# Bulk Modulus (GPa) = 42.02717 51.38753 46.70735
# Shear Modulus (GPa) = -258.31326 22.85153 -117.73087
#
# Velocity S-wave (km/s) = -11.26991 3.35200 -7.60838
# Velocity P-wave (km/s) = 12.19358 6.34414 7.36326
#
# Compressibility (1/GPa) = 0.02379413
#
# Stress axis : x y z
#
# Youngs Moduli (GPa) = 79.42983 113.17010 60.63528
#
# Poissons Ratio (x) = 0.43709 -0.00872
# Poissons Ratio (y) = 0.30678 0.20273
# Poissons Ratio (z) = -0.01142 0.37838
#
# Static dielectric constant tensor:
#      x y z
#    x 4.028360 0.000000 0.000000 
#    y 0.000000 3.788160 0.000000 
#    z 0.000000 0.000000 3.719430 
# 
# 
# High freq. dielectric constant tensor:
#      x y z
#    x 1.782740 0.000000 0.000000 
#    y 0.000000 1.797280 0.000000 
#    z 0.000000 0.000000 1.795430 
# 
# From -- ./inp_files/32760.got.cif
#   From: 2010.03.12/outbox.cif.g09.slc.cpg/sg63_17_cif.got.tgz:32760.got - 2010.04.10 19:34:48.
