data_PCOD8259803
_publ_section_title
;
Structure prediction by ZEFSAII (Michael W. Deem and Ramdas Pophale) SiO2 
 PCOD8259803
Probable space group: C M C M
;
_chemical_formula_sum "Si O2"
_cell_formula_units_Z 72
_cell_length_a 13.980035
_cell_length_b 17.008378
_cell_length_c 15.438847
_cell_angle_alpha 90.000000
_cell_angle_beta 90.000000
_cell_angle_gamma 90.000000
_cell_volume 3671.013835
_symmetry_space_group_name_H-M "C M C M"
_symmetry_group_IT_number 63
_symmetry_cell_setting 'orthorhombic'
loop_
_space_group_symop_operation_xyz
x,y,z
-x,-y,1/2+z
x,-y,-z
-x,y,1/2-z
-x,-y,-z
x,y,1/2-z
-x,y,z
x,-y,1/2+z
1/2+x,1/2+y,z
1/2-x,1/2-y,1/2+z
1/2+x,1/2-y,-z
1/2-x,1/2+y,1/2-z
1/2-x,1/2-y,-z
1/2+x,1/2+y,1/2-z
1/2-x,1/2+y,z
1/2+x,1/2-y,1/2+z
loop_
_atom_site_type_symbol
_atom_site_label
_atom_site_fract_x
_atom_site_fract_y
_atom_site_fract_z
Si Si1 0.000000 0.447786 0.750000
Si Si2 0.000000 0.092314 0.347511
Si Si3 0.310877 0.342909 0.250000
Si Si4 0.000000 0.943022 0.250000
Si Si5 0.315955 0.839814 0.750000
Si Si6 0.000000 0.444717 0.417781
Si Si7 0.691663 0.155160 0.581569
Si Si8 0.809709 0.160692 0.085272
O O1 0.089916 0.390962 0.750000
O O2 0.000000 0.502658 0.832986
O O3 0.090692 0.116517 0.404043
O O4 0.000000 0.132034 0.250000
O O5 0.000000 0.997879 0.335838
O O6 0.407732 0.389966 0.250000
O O7 0.341186 0.252035 0.250000
O O8 0.248767 0.367235 0.332479
O O9 0.255954 0.862094 0.665879
O O10 0.000000 0.500000 0.500000
O O11 0.907569 0.390025 0.420118
O O12 0.756728 0.129936 0.500395
O O13 0.668158 0.247190 0.579013
#
# Coordination Sequence:
#
# PCOD8259803 Si02
#       8
#     4   8   8   4   8   8  16  16
#     4  12  25  38  61  88 122 166 204 248 309 370
#     4  10  21  37  64  90 119 151 195 249 296 355
#     4  10  22  41  61  85 120 163 203 254 301 356
#     4  10  23  38  57  88 122 150 200 246 299 370
#     4  10  20  39  63  85 114 159 207 250 303 356
#     4  12  25  40  57  91 127 162 200 251 311 370
#     4  10  23  39  62  88 122 159 204 250 300 356
#     4  10  20  40  64  91 116 155 205 254 296 354
#
# _framework density 19.613111
#
# number of rings (size 3 to 8) (size 9 to 14) (size 15 to 20)
#    0.333    1.333    1.111    3.000    0.000    6.222 
#    2.000    7.778    0.000    0.000    0.000    0.000 
#    0.000    0.000    0.000    0.000    0.000    0.000 
#
# Total GULP energy -446496.947772 kJ/mol
# GULP energy per Si atom -12402.692994 kJ/mol
# Density = 1.956847 g / cm^3
# Si number density = 19.613111 Si / 1000 Ang^3
#
#
#
# Elastic Constant Matrix: (Units=GPa)
#
#
# Indices 1 2 3 4 5 6 
#
# 1 217.7326 99.1624 98.0964 0.0000 0.0000 0.0000
# 2 99.1624 74.6368 55.0608 0.0000 0.0000 0.0000
# 3 98.0964 55.0608 181.9269 0.0000 0.0000 0.0000
# 4 0.0000 0.0000 0.0000 106.2697 0.0000 0.0000
# 5 0.0000 0.0000 0.0000 0.0000 81.7644 0.0000
# 6 0.0000 0.0000 0.0000 0.0000 0.0000 90.5211
#
#
#
# Elastic Compliance Matrix: (Units=1/GPa)
#
#
# Indices 1 2 3 4 5 6 
#
# 1 0.012257 -0.014689 -0.002164 0.000000 0.000000 0.000000
# 2 -0.014689 0.034853 -0.002628 0.000000 0.000000 0.000000
# 3 -0.002164 -0.002628 0.007459 0.000000 0.000000 0.000000
# 4 0.000000 0.000000 0.000000 0.009410 0.000000 0.000000
# 5 0.000000 0.000000 0.000000 0.000000 0.012230 0.000000
# 6 0.000000 0.000000 0.000000 0.000000 0.000000 0.011047
#
#
# Mechanical properties :
#
#
# Convention : Reuss Voigt Hill
#
# Bulk Modulus (GPa) = 64.07054 108.77060 86.42057
# Shear Modulus (GPa) = 38.04593 70.50949 54.27771
#
# Velocity S-wave (km/s) = 4.40912 6.00235 5.26633
# Velocity P-wave (km/s) = 7.65889 10.17920 9.00763
#
# Compressibility (1/GPa) = 0.01560780
#
# Stress axis : x y z
#
# Youngs Moduli (GPa) = 81.58284 28.69211 134.07232
#
# Poissons Ratio (x) = 0.42146 0.29008
# Poissons Ratio (y) = 1.19838 0.35232
# Poissons Ratio (z) = 0.17651 0.07540
#
# Static dielectric constant tensor:
#      x y z
#    x 3.459700 0.000000 0.000000 
#    y 0.000000 3.545750 0.000000 
#    z 0.000000 0.000000 3.745200 
# 
# 
# High freq. dielectric constant tensor:
#      x y z
#    x 1.778210 0.000000 0.000000 
#    y 0.000000 1.763060 0.000000 
#    z 0.000000 0.000000 1.776310 
# 
# From -- ./inp_files/41980.got.cif
#   From: 2010.03.12/outbox.cif.g09.slc.cpg/sg63_21_cif.got.tgz:41980.got - 2010.04.10 19:34:48.
