data_PCOD8259228
_publ_section_title
;
Structure prediction by ZEFSAII (Michael W. Deem and Ramdas Pophale) SiO2 
 PCOD8259228
Probable space group: C M C M
;
_chemical_formula_sum "Si O2"
_cell_formula_units_Z 72
_cell_length_a 28.388179
_cell_length_b 14.032194
_cell_length_c 8.551999
_cell_angle_alpha 90.000000
_cell_angle_beta 90.000000
_cell_angle_gamma 90.000000
_cell_volume 3406.675418
_symmetry_space_group_name_H-M "C M C M"
_symmetry_group_IT_number 63
_symmetry_cell_setting 'orthorhombic'
loop_
_space_group_symop_operation_xyz
x,y,z
-x,-y,1/2+z
x,-y,-z
-x,y,1/2-z
-x,-y,-z
x,y,1/2-z
-x,y,z
x,-y,1/2+z
1/2+x,1/2+y,z
1/2-x,1/2-y,1/2+z
1/2+x,1/2-y,-z
1/2-x,1/2+y,1/2-z
1/2-x,1/2-y,-z
1/2+x,1/2+y,1/2-z
1/2-x,1/2+y,z
1/2+x,1/2-y,1/2+z
loop_
_atom_site_type_symbol
_atom_site_label
_atom_site_fract_x
_atom_site_fract_y
_atom_site_fract_z
Si Si1 0.723402 0.604113 0.432055
Si Si2 0.587224 0.216924 0.932302
Si Si3 0.000000 0.394891 0.932610
Si Si4 0.672933 0.894096 0.566747
Si Si5 0.371968 0.605871 0.566571
O O1 0.729484 0.500000 0.500000
O O2 0.709758 0.599625 0.250000
O O3 0.774678 0.652542 0.457989
O O4 0.679507 0.651204 0.523987
O O5 0.577000 0.214220 0.750000
O O6 0.546168 0.161237 0.017788
O O7 0.637040 0.169635 0.970842
O O8 0.588338 0.326332 0.991104
O O9 0.000000 0.406102 0.750000
O O10 0.000000 0.500000 0.000000
O O11 0.659840 0.895618 0.750000
O O12 0.670146 0.000000 0.500000
O O13 0.377645 0.500000 0.500000
O O14 0.379063 0.604570 0.750000
#
# Coordination Sequence:
#
# PCOD8259228 Si02
#       5
#    16  16   8  16  16
#     4   9  17  31  53  82 119 162 205 249 299 355
#     4  12  25  42  64  91 121 158 204 251 303 362
#     4  12  26  48  73  98 127 158 194 242 302 362
#     4  10  20  35  56  86 123 163 206 253 305 361
#     4  11  22  39  62  89 123 163 205 251 302 356
#
# _framework density 21.134976000000002
#
# number of rings (size 3 to 8) (size 9 to 14) (size 15 to 20)
#    0.000    1.333    0.000    8.333    0.000    3.556 
#    0.000    0.556    0.000    0.000    0.000    0.000 
#    0.000    0.000    0.000    0.000    0.000    0.000 
#
# Total GULP energy -446324.231911 kJ/mol
# GULP energy per Si atom -12397.895331 kJ/mol
# Density = 2.108687 g / cm^3
# Si number density = 21.134976 Si / 1000 Ang^3
#
#
#
# Elastic Constant Matrix: (Units=GPa)
#
#
# Indices 1 2 3 4 5 6 
#
# 1 105.9119 65.0657 44.0212 0.0000 0.0000 0.0000
# 2 65.0657 105.0097 37.5640 0.0000 0.0000 0.0000
# 3 44.0212 37.5640 159.2337 0.0000 0.0000 0.0000
# 4 0.0000 0.0000 0.0000 34.6543 0.0000 0.0000
# 5 0.0000 0.0000 0.0000 0.0000 35.1329 0.0000
# 6 0.0000 0.0000 0.0000 0.0000 0.0000 42.6654
#
#
#
# Elastic Compliance Matrix: (Units=1/GPa)
#
#
# Indices 1 2 3 4 5 6 
#
# 1 0.015963 -0.009079 -0.002271 0.000000 0.000000 0.000000
# 2 -0.009079 0.015564 -0.001162 0.000000 0.000000 0.000000
# 3 -0.002271 -0.001162 0.007182 0.000000 0.000000 0.000000
# 4 0.000000 0.000000 0.000000 0.028856 0.000000 0.000000
# 5 0.000000 0.000000 0.000000 0.000000 0.028463 0.000000
# 6 0.000000 0.000000 0.000000 0.000000 0.000000 0.023438
#
#
# Mechanical properties :
#
#
# Convention : Reuss Voigt Hill
#
# Bulk Modulus (GPa) = 73.06968 73.71746 73.39357
# Shear Modulus (GPa) = 33.54528 37.39081 35.46804
#
# Velocity S-wave (km/s) = 3.98828 4.21068 4.10099
# Velocity P-wave (km/s) = 7.47372 7.65473 7.56476
#
# Compressibility (1/GPa) = 0.01368557
#
# Stress axis : x y z
#
# Youngs Moduli (GPa) = 62.64405 64.25210 139.23506
#
# Poissons Ratio (x) = 0.58331 0.31627
# Poissons Ratio (y) = 0.56871 0.16175
# Poissons Ratio (z) = 0.14229 0.07464
#
# Static dielectric constant tensor:
#      x y z
#    x 4.052030 0.000000 0.000000 
#    y 0.000000 3.807680 0.000000 
#    z 0.000000 0.000000 3.940590 
# 
# 
# High freq. dielectric constant tensor:
#      x y z
#    x 1.822580 0.000000 0.000000 
#    y 0.000000 1.828540 0.000000 
#    z 0.000000 0.000000 1.845700 
# 
# From -- ./inp_files/11737.got.cif
#   From: 2010.03.12/outbox.cif.g09.slc.cpg/sg63_6_cif.got.tgz:11737.got - 2010.04.10 19:34:48.
