data_PCOD8259954
_publ_section_title
;
Structure prediction by ZEFSAII (Michael W. Deem and Ramdas Pophale) SiO2 
 PCOD8259954
Probable space group: C M C M
;
_chemical_formula_sum "Si O2"
_cell_formula_units_Z 80
_cell_length_a 7.513713
_cell_length_b 29.490810
_cell_length_c 17.948443
_cell_angle_alpha 90.000000
_cell_angle_beta 90.000000
_cell_angle_gamma 90.000000
_cell_volume 3977.114402
_symmetry_space_group_name_H-M "C M C M"
_symmetry_group_IT_number 63
_symmetry_cell_setting 'orthorhombic'
loop_
_space_group_symop_operation_xyz
x,y,z
-x,-y,1/2+z
x,-y,-z
-x,y,1/2-z
-x,-y,-z
x,y,1/2-z
-x,y,z
x,-y,1/2+z
1/2+x,1/2+y,z
1/2-x,1/2-y,1/2+z
1/2+x,1/2-y,-z
1/2-x,1/2+y,1/2-z
1/2-x,1/2-y,-z
1/2+x,1/2+y,1/2-z
1/2-x,1/2+y,z
1/2+x,1/2-y,1/2+z
loop_
_atom_site_type_symbol
_atom_site_label
_atom_site_fract_x
_atom_site_fract_y
_atom_site_fract_z
Si Si1 0.000000 0.499733 0.837973
Si Si2 0.290755 0.243247 0.665836
Si Si3 0.000000 0.398225 0.661583
Si Si4 0.788138 0.836848 0.910075
Si Si5 0.298915 0.655452 0.576549
Si Si6 0.206293 0.068916 0.662899
O O1 0.822124 0.526069 0.864324
O O2 0.000000 0.496002 0.750000
O O3 0.000000 0.449264 0.871681
O O4 0.216918 0.245449 0.750000
O O5 0.500000 0.237181 0.665178
O O6 0.232534 0.288485 0.623359
O O7 0.206936 0.200748 0.624599
O O8 0.818054 0.375073 0.634428
O O9 0.000000 0.397780 0.750000
O O10 0.000000 0.845433 0.901743
O O11 0.714999 0.837242 0.994939
O O12 0.500000 0.641780 0.562480
O O13 0.214220 0.613092 0.620623
O O14 0.233757 0.078675 0.750000
O O15 0.000000 0.058714 0.644786
#
# Coordination Sequence:
#
# PCOD8259954 Si02
#       6
#     8  16   8  16  16  16
#     4   9  20  37  59  87 113 145 197 247 296 349
#     4  10  21  35  55  84 116 155 198 240 291 343
#     4  11  24  41  65  89 108 153 205 239 294 355
#     4  10  23  41  58  83 122 155 192 244 292 342
#     4  10  21  36  57  85 116 157 195 233 294 355
#     4   9  18  34  56  84 118 150 189 243 293 343
#
# _framework density 20.115086000000002
#
# number of rings (size 3 to 8) (size 9 to 14) (size 15 to 20)
#    0.000    2.200    0.000    1.800    4.200    3.200 
#    0.000    4.000    0.000    3.600    0.000    0.000 
#    0.000    0.000    0.000    0.000    0.000    0.000 
#
# Total GULP energy -495940.625296 kJ/mol
# GULP energy per Si atom -12398.515632 kJ/mol
# Density = 2.006930 g / cm^3
# Si number density = 20.115086 Si / 1000 Ang^3
#
#
#
# Elastic Constant Matrix: (Units=GPa)
#
#
# Indices 1 2 3 4 5 6 
#
# 1 74.6630 50.1454 24.1645 0.0000 0.0000 0.0000
# 2 50.1454 164.2229 40.2730 0.0000 0.0000 0.0000
# 3 24.1645 40.2730 91.1193 0.0000 0.0000 0.0000
# 4 0.0000 0.0000 0.0000 5.0323 0.0000 0.0000
# 5 0.0000 0.0000 0.0000 0.0000 16.1501 0.0000
# 6 0.0000 0.0000 0.0000 0.0000 0.0000 23.0704
#
#
#
# Elastic Compliance Matrix: (Units=1/GPa)
#
#
# Indices 1 2 3 4 5 6 
#
# 1 0.017356 -0.004678 -0.002535 0.000000 0.000000 0.000000
# 2 -0.004678 0.008090 -0.002335 0.000000 0.000000 0.000000
# 3 -0.002535 -0.002335 0.012679 0.000000 0.000000 0.000000
# 4 0.000000 0.000000 0.000000 0.198717 0.000000 0.000000
# 5 0.000000 0.000000 0.000000 0.000000 0.061919 0.000000
# 6 0.000000 0.000000 0.000000 0.000000 0.000000 0.043346
#
#
# Mechanical properties :
#
#
# Convention : Reuss Voigt Hill
#
# Bulk Modulus (GPa) = 52.55227 62.13012 57.34119
# Shear Modulus (GPa) = 13.60374 23.21204 18.40789
#
# Velocity S-wave (km/s) = 2.60339 3.40069 3.02839
# Velocity P-wave (km/s) = 5.93459 6.80984 6.38723
#
# Compressibility (1/GPa) = 0.01902868
#
# Stress axis : x y z
#
# Youngs Moduli (GPa) = 57.61771 123.60405 78.87022
#
# Poissons Ratio (x) = 0.57820 0.19995
# Poissons Ratio (y) = 0.26953 0.18418
# Poissons Ratio (z) = 0.14607 0.28864
#
# Static dielectric constant tensor:
#      x y z
#    x 3.686020 0.000000 0.000000 
#    y 0.000000 3.770300 0.000000 
#    z 0.000000 0.000000 3.853870 
# 
# 
# High freq. dielectric constant tensor:
#      x y z
#    x 1.786410 0.000000 0.000000 
#    y 0.000000 1.785420 0.000000 
#    z 0.000000 0.000000 1.783420 
# 
# From -- ./inp_files/40547.got.cif
#   From: 2010.03.12/outbox.cif.g09.slc.cpg/sg63_21_cif.got.tgz:40547.got - 2010.04.10 19:34:48.
