data_PCOD8259586
_publ_section_title
;
Structure prediction by ZEFSAII (Michael W. Deem and Ramdas Pophale) SiO2 
 PCOD8259586
Probable space group: C M C M
;
_chemical_formula_sum "Si O2"
_cell_formula_units_Z 112
_cell_length_a 26.250555
_cell_length_b 14.210259
_cell_length_c 14.516860
_cell_angle_alpha 90.000000
_cell_angle_beta 90.000000
_cell_angle_gamma 90.000000
_cell_volume 5415.183427
_symmetry_space_group_name_H-M "C M C M"
_symmetry_group_IT_number 63
_symmetry_cell_setting 'orthorhombic'
loop_
_space_group_symop_operation_xyz
x,y,z
-x,-y,1/2+z
x,-y,-z
-x,y,1/2-z
-x,-y,-z
x,y,1/2-z
-x,y,z
x,-y,1/2+z
1/2+x,1/2+y,z
1/2-x,1/2-y,1/2+z
1/2+x,1/2-y,-z
1/2-x,1/2+y,1/2-z
1/2-x,1/2-y,-z
1/2+x,1/2+y,1/2-z
1/2-x,1/2+y,z
1/2+x,1/2-y,1/2+z
loop_
_atom_site_type_symbol
_atom_site_label
_atom_site_fract_x
_atom_site_fract_y
_atom_site_fract_z
Si Si1 0.295519 0.792857 0.145433
Si Si2 0.260026 0.889864 0.858152
Si Si3 0.059795 0.120094 0.351496
Si Si4 0.406348 0.585469 0.858985
Si Si5 0.206321 0.072967 0.644063
Si Si6 0.645513 0.889404 0.987587
Si Si7 0.558622 0.746892 0.516386
O O1 0.313895 0.808418 0.250000
O O2 0.285708 0.683777 0.121773
O O3 0.239075 0.834179 0.129852
O O4 0.336870 0.844245 0.083598
O O5 0.273591 0.893723 0.750000
O O6 0.312503 0.867755 0.910127
O O7 0.237549 0.986275 0.900124
O O8 0.084747 0.137052 0.250000
O O9 0.079867 0.199210 0.421893
O O10 0.000000 0.129475 0.344012
O O11 0.072351 0.016091 0.388291
O O12 0.409718 0.600600 0.750000
O O13 0.348899 0.591124 0.899386
O O14 0.439037 0.668365 0.904104
O O15 0.197718 0.045443 0.750000
O O16 0.592952 0.837708 0.959258
O O17 0.634713 0.000000 0.000000
O O18 0.500000 0.780087 0.506955
#
# Coordination Sequence:
#
# PCOD8259586 Si02
#       7
#    16  16  16  16  16  16  16
#     4  10  21  39  61  86 120 159 199 243 299 360
#     4  10  21  39  62  89 124 159 196 243 295 360
#     4   9  19  38  62  87 119 157 199 251 309 367
#     4  10  20  36  62  94 127 160 192 233 303 380
#     4   9  18  34  56  88 123 155 187 231 289 355
#     4  12  25  41  62  87 115 161 214 256 303 348
#     4  11  25  42  60  87 120 158 209 262 308 354
#
# _framework density 20.682587000000002
#
# number of rings (size 3 to 8) (size 9 to 14) (size 15 to 20)
#    0.000    1.857    1.429    2.143    2.000    4.571 
#    2.571    0.000    0.000    0.000    0.000    4.000 
#    0.000    0.000    0.000    0.000    0.000    0.000 
#
# Total GULP energy -694394.399887 kJ/mol
# GULP energy per Si atom -12399.899998 kJ/mol
# Density = 2.063551 g / cm^3
# Si number density = 20.682587 Si / 1000 Ang^3
#
#
#
# Elastic Constant Matrix: (Units=GPa)
#
#
# Indices 1 2 3 4 5 6 
#
# 1 70.8601 23.9646 27.1821 0.0000 0.0000 0.0000
# 2 23.9646 73.2777 20.3166 0.0000 0.0000 0.0000
# 3 27.1821 20.3166 59.5783 0.0000 0.0000 0.0000
# 4 0.0000 0.0000 0.0000 20.3095 0.0000 0.0000
# 5 0.0000 0.0000 0.0000 0.0000 24.8012 0.0000
# 6 0.0000 0.0000 0.0000 0.0000 0.0000 33.4727
#
#
#
# Elastic Compliance Matrix: (Units=1/GPa)
#
#
# Indices 1 2 3 4 5 6 
#
# 1 0.018115 -0.004012 -0.006897 0.000000 0.000000 0.000000
# 2 -0.004012 0.015960 -0.003612 0.000000 0.000000 0.000000
# 3 -0.006897 -0.003612 0.021163 0.000000 0.000000 0.000000
# 4 0.000000 0.000000 0.000000 0.049238 0.000000 0.000000
# 5 0.000000 0.000000 0.000000 0.000000 0.040321 0.000000
# 6 0.000000 0.000000 0.000000 0.000000 0.000000 0.029875
#
#
# Mechanical properties :
#
#
# Convention : Reuss Voigt Hill
#
# Bulk Modulus (GPa) = 38.17312 38.51585 38.34449
# Shear Modulus (GPa) = 23.53547 24.53353 24.03450
#
# Velocity S-wave (km/s) = 3.37699 3.44785 3.41260
# Velocity P-wave (km/s) = 5.80535 5.87478 5.84017
#
# Compressibility (1/GPa) = 0.02619644
#
# Stress axis : x y z
#
# Youngs Moduli (GPa) = 55.20371 62.65546 47.25257
#
# Poissons Ratio (x) = 0.25138 0.32588
# Poissons Ratio (y) = 0.22148 0.17068
# Poissons Ratio (z) = 0.38071 0.22632
#
# Static dielectric constant tensor:
#      x y z
#    x 3.620150 0.000000 0.000000 
#    y 0.000000 3.745070 0.000000 
#    z 0.000000 0.000000 3.875890 
# 
# 
# High freq. dielectric constant tensor:
#      x y z
#    x 1.799740 0.000000 0.000000 
#    y 0.000000 1.805490 0.000000 
#    z 0.000000 0.000000 1.809620 
# 
# From -- ./inp_files/36863.got.cif
#   From: 2010.03.12/outbox.cif.g09.slc.cpg/sg63_19_cif.got.tgz:36863.got - 2010.04.10 19:34:48.
