data_PCOD8259582
_publ_section_title
;
Structure prediction by ZEFSAII (Michael W. Deem and Ramdas Pophale) SiO2 
 PCOD8259582
Probable space group: C M C M
;
_chemical_formula_sum "Si O2"
_cell_formula_units_Z 60
_cell_length_a 12.473534
_cell_length_b 23.457537
_cell_length_c 9.993956
_cell_angle_alpha 90.000000
_cell_angle_beta 90.000000
_cell_angle_gamma 90.000000
_cell_volume 2924.215389
_symmetry_space_group_name_H-M "C M C M"
_symmetry_group_IT_number 63
_symmetry_cell_setting 'orthorhombic'
loop_
_space_group_symop_operation_xyz
x,y,z
-x,-y,1/2+z
x,-y,-z
-x,y,1/2-z
-x,-y,-z
x,y,1/2-z
-x,y,z
x,-y,1/2+z
1/2+x,1/2+y,z
1/2-x,1/2-y,1/2+z
1/2+x,1/2-y,-z
1/2-x,1/2+y,1/2-z
1/2-x,1/2-y,-z
1/2+x,1/2+y,1/2-z
1/2-x,1/2+y,z
1/2+x,1/2-y,1/2+z
loop_
_atom_site_type_symbol
_atom_site_label
_atom_site_fract_x
_atom_site_fract_y
_atom_site_fract_z
Si Si1 0.726483 0.327647 0.250000
Si Si2 0.500000 0.351808 0.250000
Si Si3 0.706187 0.629681 0.457404
Si Si4 0.629802 0.718113 0.250000
Si Si5 0.620566 0.954411 0.897397
Si Si6 0.500000 0.567708 0.494415
O O1 0.600965 0.308181 0.250000
O O2 0.735482 0.364410 0.385743
O O3 0.817629 0.280261 0.250000
O O4 0.500000 0.396226 0.129703
O O5 0.673996 0.688656 0.385173
O O6 0.812533 0.603756 0.392710
O O7 0.609093 0.586422 0.421125
O O8 0.500000 0.722113 0.250000
O O9 0.620829 0.982148 0.750000
O O10 0.500000 0.938934 0.943213
O O11 0.671943 0.000000 0.000000
O O12 0.500000 0.500000 0.500000
#
# Coordination Sequence:
#
# PCOD8259582 Si02
#       6
#     8   4  16   8  16   8
#     4  10  24  42  65  87 120 171 204 261 318 364
#     4   8  20  42  58  88 128 158 214 254 298 376
#     4  11  22  42  62  92 128 158 209 262 310 383
#     4  12  24  43  64  89 124 160 213 271 320 367
#     4  10  22  40  62  90 126 166 205 253 311 373
#     4  10  20  36  62  92 126 163 195 245 319 378
#
# _framework density 20.518325000000001
#
# number of rings (size 3 to 8) (size 9 to 14) (size 15 to 20)
#    0.000    1.600    2.667    1.600    1.867    2.133 
#    7.200    0.000    0.000    0.000    0.000    0.000 
#    0.000    0.000    0.000    0.000    0.000    0.000 
#
# Total GULP energy -371694.558315 kJ/mol
# GULP energy per Si atom -12389.818611 kJ/mol
# Density = 2.047162 g / cm^3
# Si number density = 20.518325 Si / 1000 Ang^3
#
#
#
# Elastic Constant Matrix: (Units=GPa)
#
#
# Indices 1 2 3 4 5 6 
#
# 1 126.3210 57.8312 33.4466 0.0000 0.0000 0.0000
# 2 57.8312 88.8494 21.0475 0.0000 0.0000 0.0000
# 3 33.4466 21.0475 111.4579 0.0000 0.0000 0.0000
# 4 0.0000 0.0000 0.0000 -7.0198 0.0000 0.0000
# 5 0.0000 0.0000 0.0000 0.0000 17.9396 0.0000
# 6 0.0000 0.0000 0.0000 0.0000 0.0000 42.6493
#
#
#
# Elastic Compliance Matrix: (Units=1/GPa)
#
#
# Indices 1 2 3 4 5 6 
#
# 1 0.011762 -0.007139 -0.002182 0.000000 0.000000 0.000000
# 2 -0.007139 0.016115 -0.000901 0.000000 0.000000 0.000000
# 3 -0.002182 -0.000901 0.009797 0.000000 0.000000 0.000000
# 4 0.000000 0.000000 0.000000 -0.142454 0.000000 0.000000
# 5 0.000000 0.000000 0.000000 0.000000 0.055742 0.000000
# 6 0.000000 0.000000 0.000000 0.000000 0.000000 0.023447
#
#
# Mechanical properties :
#
#
# Convention : Reuss Voigt Hill
#
# Bulk Modulus (GPa) = 58.03419 61.25321 59.64370
# Shear Modulus (GPa) = 8375.70657 25.00068 4200.35362
#
# Velocity S-wave (km/s) = 63.96033 3.49443 45.29423
# Velocity P-wave (km/s) = 74.04667 6.79699 52.57903
#
# Compressibility (1/GPa) = 0.01723122
#
# Stress axis : x y z
#
# Youngs Moduli (GPa) = 85.01680 62.05305 102.07469
#
# Poissons Ratio (x) = 0.44301 0.22268
# Poissons Ratio (y) = 0.60695 0.09195
# Poissons Ratio (z) = 0.18547 0.05590
#
# Static dielectric constant tensor:
#      x y z
#    x 4.104030 0.000000 0.000000 
#    y 0.000000 3.277520 0.000000 
#    z 0.000000 0.000000 3.722700 
# 
# 
# High freq. dielectric constant tensor:
#      x y z
#    x 1.820550 0.000000 0.000000 
#    y 0.000000 1.767130 0.000000 
#    z 0.000000 0.000000 1.817630 
# 
# From -- ./inp_files/17175.got.cif
#   From: 2010.03.12/outbox.cif.g09.slc.cpg/sg63_9_cif.got.tgz:17175.got - 2010.04.10 19:34:48.
