data_PCOD8259619
_publ_section_title
;
Structure prediction by ZEFSAII (Michael W. Deem and Ramdas Pophale) SiO2 
 PCOD8259619
Probable space group: C M C M
;
_chemical_formula_sum "Si O2"
_cell_formula_units_Z 96
_cell_length_a 26.221658
_cell_length_b 11.171973
_cell_length_c 15.675019
_cell_angle_alpha 90.000000
_cell_angle_beta 90.000000
_cell_angle_gamma 90.000000
_cell_volume 4591.960061
_symmetry_space_group_name_H-M "C M C M"
_symmetry_group_IT_number 63
_symmetry_cell_setting 'orthorhombic'
loop_
_space_group_symop_operation_xyz
x,y,z
-x,-y,1/2+z
x,-y,-z
-x,y,1/2-z
-x,-y,-z
x,y,1/2-z
-x,y,z
x,-y,1/2+z
1/2+x,1/2+y,z
1/2-x,1/2-y,1/2+z
1/2+x,1/2-y,-z
1/2-x,1/2+y,1/2-z
1/2-x,1/2-y,-z
1/2+x,1/2+y,1/2-z
1/2-x,1/2+y,z
1/2+x,1/2-y,1/2+z
loop_
_atom_site_type_symbol
_atom_site_label
_atom_site_fract_x
_atom_site_fract_y
_atom_site_fract_z
Si Si1 0.442837 0.774465 0.975529
Si Si2 0.150837 0.575380 0.421525
Si Si3 0.184206 0.348672 0.154519
Si Si4 0.116090 0.949436 0.410374
Si Si5 0.408762 0.302668 0.848948
Si Si6 0.205251 0.798841 0.348812
O O1 0.500000 0.806094 0.945737
O O2 0.406693 0.883224 0.944014
O O3 0.425298 0.654170 0.927097
O O4 0.445071 0.755937 0.078869
O O5 0.174178 0.500000 0.500000
O O6 0.155230 0.477572 0.346384
O O7 0.186972 0.687103 0.404850
O O8 0.195901 0.314600 0.250000
O O9 0.146753 0.245364 0.119554
O O10 0.240410 0.342022 0.112058
O O11 0.164863 0.905554 0.357887
O O12 0.135936 0.000000 0.500000
O O13 0.089395 0.053708 0.354969
O O14 0.422122 0.265055 0.750000
O O15 0.207186 0.760522 0.250000
#
# Coordination Sequence:
#
# PCOD8259619 Si02
#       6
#    16  16  16  16  16  16
#     4  10  22  42  63  85 115 158 205 251 308 355
#     4  11  22  40  60  90 119 157 201 252 293 349
#     4  10  22  38  58  86 123 162 196 238 293 355
#     4   9  20  37  59  91 120 154 197 255 299 356
#     4  10  20  37  58  86 122 154 197 249 301 361
#     4  10  22  38  60  86 121 166 201 237 295 364
#
# _framework density 20.906105
#
# number of rings (size 3 to 8) (size 9 to 14) (size 15 to 20)
#    0.000    2.000    1.667    1.000    2.333    5.000 
#    0.000    0.000    0.000   17.500    0.000    0.000 
#    0.000    0.000    0.000    0.000    0.000    0.000 
#
# Total GULP energy -594741.036379 kJ/mol
# GULP energy per Si atom -12390.438258 kJ/mol
# Density = 2.085852 g / cm^3
# Si number density = 20.906105 Si / 1000 Ang^3
#
#
#
# Elastic Constant Matrix: (Units=GPa)
#
#
# Indices 1 2 3 4 5 6 
#
# 1 133.5414 53.8164 43.7720 0.0000 0.0000 0.0000
# 2 53.8164 104.1501 20.6810 0.0000 0.0000 0.0000
# 3 43.7720 20.6810 43.4626 0.0000 0.0000 0.0000
# 4 0.0000 0.0000 0.0000 34.5853 0.0000 0.0000
# 5 0.0000 0.0000 0.0000 0.0000 21.1565 0.0000
# 6 0.0000 0.0000 0.0000 0.0000 0.0000 15.6752
#
#
#
# Elastic Compliance Matrix: (Units=1/GPa)
#
#
# Indices 1 2 3 4 5 6 
#
# 1 0.012834 -0.004489 -0.010789 0.000000 0.000000 0.000000
# 2 -0.004489 0.012174 -0.001272 0.000000 0.000000 0.000000
# 3 -0.010789 -0.001272 0.034479 0.000000 0.000000 0.000000
# 4 0.000000 0.000000 0.000000 0.028914 0.000000 0.000000
# 5 0.000000 0.000000 0.000000 0.000000 0.047267 0.000000
# 6 0.000000 0.000000 0.000000 0.000000 0.000000 0.063795
#
#
# Mechanical properties :
#
#
# Convention : Reuss Voigt Hill
#
# Bulk Modulus (GPa) = 37.89724 57.52144 47.70934
# Shear Modulus (GPa) = 20.71611 25.14237 22.92924
#
# Velocity S-wave (km/s) = 3.15129 3.47166 3.31535
# Velocity P-wave (km/s) = 5.60424 6.60635 6.12582
#
# Compressibility (1/GPa) = 0.02638715
#
# Stress axis : x y z
#
# Youngs Moduli (GPa) = 77.91888 82.14474 29.00290
#
# Poissons Ratio (x) = 0.36876 0.31292
# Poissons Ratio (y) = 0.34979 0.03688
# Poissons Ratio (z) = 0.84068 0.10445
#
# Static dielectric constant tensor:
#      x y z
#    x 3.810390 0.000000 0.000000 
#    y 0.000000 4.050820 0.000000 
#    z 0.000000 0.000000 3.887520 
# 
# 
# High freq. dielectric constant tensor:
#      x y z
#    x 1.800930 0.000000 0.000000 
#    y 0.000000 1.822780 0.000000 
#    z 0.000000 0.000000 1.816040 
# 
# From -- ./inp_files/48042.got.cif
#   From: 2010.03.12/outbox.cif.g09.slc.cpg/sg63_25_cif.got.tgz:48042.got - 2010.04.10 19:34:48.
