data_PCOD8259351
_publ_section_title
;
Structure prediction by ZEFSAII (Michael W. Deem and Ramdas Pophale) SiO2 
 PCOD8259351
Probable space group: C M C M
;
_chemical_formula_sum "Si O2"
_cell_formula_units_Z 104
_cell_length_a 22.233407
_cell_length_b 30.053247
_cell_length_c 8.791323
_cell_angle_alpha 90.000000
_cell_angle_beta 90.000000
_cell_angle_gamma 90.000000
_cell_volume 5874.239585
_symmetry_space_group_name_H-M "C M C M"
_symmetry_group_IT_number 63
_symmetry_cell_setting 'orthorhombic'
loop_
_space_group_symop_operation_xyz
x,y,z
-x,-y,1/2+z
x,-y,-z
-x,y,1/2-z
-x,-y,-z
x,y,1/2-z
-x,y,z
x,-y,1/2+z
1/2+x,1/2+y,z
1/2-x,1/2-y,1/2+z
1/2+x,1/2-y,-z
1/2-x,1/2+y,1/2-z
1/2-x,1/2-y,-z
1/2+x,1/2+y,1/2-z
1/2-x,1/2+y,z
1/2+x,1/2-y,1/2+z
loop_
_atom_site_type_symbol
_atom_site_label
_atom_site_fract_x
_atom_site_fract_y
_atom_site_fract_z
Si Si1 0.288357 0.046640 0.929783
Si Si2 0.070036 0.688521 0.571611
Si Si3 0.500000 0.951205 0.431006
Si Si4 0.571465 0.713434 0.081334
Si Si5 0.567783 0.625009 0.929344
Si Si6 0.350049 0.454008 0.071501
Si Si7 0.389685 0.101655 0.070656
O O1 0.300196 0.046386 0.750000
O O2 0.218968 0.055488 0.970864
O O3 0.325274 0.085389 0.011336
O O4 0.310048 0.000000 0.000000
O O5 0.081773 0.680324 0.750000
O O6 0.093130 0.737946 0.523634
O O7 0.106785 0.653666 0.470520
O O8 0.000000 0.682401 0.534110
O O9 0.500000 0.954132 0.250000
O O10 0.558801 0.925358 0.484560
O O11 0.500000 0.000000 0.500000
O O12 0.596654 0.704581 0.250000
O O13 0.500000 0.715077 0.084509
O O14 0.594494 0.673178 0.976008
O O15 0.567781 0.622804 0.750000
O O16 0.500000 0.618687 0.993499
O O17 0.609741 0.586033 0.996589
O O18 0.358911 0.458104 0.250000
O O19 0.372874 0.500000 0.000000
O O20 0.396086 0.094491 0.250000
#
# Coordination Sequence:
#
# PCOD8259351 Si02
#       7
#    16  16   8  16  16  16  16
#     4  10  20  36  54  70  93 129 171 211 249 296
#     4   9  17  31  50  71  99 133 166 203 250 301
#     4  12  24  38  52  70 100 134 166 204 255 304
#     4   8  15  28  47  72 100 132 167 200 239 294
#     4   9  17  30  49  76 108 136 162 199 249 299
#     4   9  19  34  52  74 100 133 171 206 245 295
#     4  12  23  34  50  75 101 127 165 210 254 302
#
# _framework density 17.704419999999999
#
# number of rings (size 3 to 8) (size 9 to 14) (size 15 to 20)
#    0.000    2.308    0.769    3.923    0.000    2.154 
#    0.000    1.538    0.000    0.923    0.000    0.000 
#    0.000    0.000    0.000    0.000    0.000    0.000 
#
# Total GULP energy -644734.464625 kJ/mol
# GULP energy per Si atom -12398.739704 kJ/mol
# Density = 1.766412 g / cm^3
# Si number density = 17.704420 Si / 1000 Ang^3
#
#
#
# Elastic Constant Matrix: (Units=GPa)
#
#
# Indices 1 2 3 4 5 6 
#
# 1 61.6890 62.0365 31.4971 0.0000 0.0000 0.0000
# 2 62.0365 164.4282 48.3032 0.0000 0.0000 0.0000
# 3 31.4971 48.3032 71.6948 0.0000 0.0000 0.0000
# 4 0.0000 0.0000 0.0000 34.5930 0.0000 0.0000
# 5 0.0000 0.0000 0.0000 0.0000 17.7155 0.0000
# 6 0.0000 0.0000 0.0000 0.0000 0.0000 21.1192
#
#
#
# Elastic Compliance Matrix: (Units=1/GPa)
#
#
# Indices 1 2 3 4 5 6 
#
# 1 0.028393 -0.008787 -0.006554 0.000000 0.000000 0.000000
# 2 -0.008787 0.010302 -0.003080 0.000000 0.000000 0.000000
# 3 -0.006554 -0.003080 0.018902 0.000000 0.000000 0.000000
# 4 0.000000 0.000000 0.000000 0.028908 0.000000 0.000000
# 5 0.000000 0.000000 0.000000 0.000000 0.056448 0.000000
# 6 0.000000 0.000000 0.000000 0.000000 0.000000 0.047350
#
#
# Mechanical properties :
#
#
# Convention : Reuss Voigt Hill
#
# Bulk Modulus (GPa) = 48.18020 64.60953 56.39487
# Shear Modulus (GPa) = 21.36176 25.08390 23.22283
#
# Velocity S-wave (km/s) = 3.47735 3.76814 3.62566
# Velocity P-wave (km/s) = 6.58752 7.45014 7.03207
#
# Compressibility (1/GPa) = 0.02075541
#
# Stress axis : x y z
#
# Youngs Moduli (GPa) = 35.21991 97.07014 52.90325
#
# Poissons Ratio (x) = 0.85297 0.34670
# Poissons Ratio (y) = 0.30948 0.16296
# Poissons Ratio (z) = 0.23081 0.29901
#
# Static dielectric constant tensor:
#      x y z
#    x 3.175800 0.000000 0.000000 
#    y 0.000000 3.610960 0.000000 
#    z 0.000000 0.000000 3.259390 
# 
# 
# High freq. dielectric constant tensor:
#      x y z
#    x 1.651030 0.000000 0.000000 
#    y 0.000000 1.697660 0.000000 
#    z 0.000000 0.000000 1.683060 
# 
# From -- ./inp_files/10829.got.cif
#   From: 2010.03.12/outbox.cif.g09.slc.cpg/sg63_6_cif.got.tgz:10829.got - 2010.04.10 19:34:48.
