data_PCOD8259706
_publ_section_title
;
Structure prediction by ZEFSAII (Michael W. Deem and Ramdas Pophale) SiO2 
 PCOD8259706
Probable space group: C M C M
;
_chemical_formula_sum "Si O2"
_cell_formula_units_Z 52
_cell_length_a 11.264105
_cell_length_b 13.767943
_cell_length_c 19.031325
_cell_angle_alpha 90.000000
_cell_angle_beta 90.000000
_cell_angle_gamma 90.000000
_cell_volume 2951.445549
_symmetry_space_group_name_H-M "C M C M"
_symmetry_group_IT_number 63
_symmetry_cell_setting 'orthorhombic'
loop_
_space_group_symop_operation_xyz
x,y,z
-x,-y,1/2+z
x,-y,-z
-x,y,1/2-z
-x,-y,-z
x,y,1/2-z
-x,y,z
x,-y,1/2+z
1/2+x,1/2+y,z
1/2-x,1/2-y,1/2+z
1/2+x,1/2-y,-z
1/2-x,1/2+y,1/2-z
1/2-x,1/2-y,-z
1/2+x,1/2+y,1/2-z
1/2-x,1/2+y,z
1/2+x,1/2-y,1/2+z
loop_
_atom_site_type_symbol
_atom_site_label
_atom_site_fract_x
_atom_site_fract_y
_atom_site_fract_z
Si Si1 0.368591 0.292703 0.750000
Si Si2 0.000000 0.976517 0.750000
Si Si3 0.500000 0.340347 0.171042
Si Si4 0.640022 0.113033 0.003617
Si Si5 0.263970 0.261218 0.390246
O O1 0.500000 0.244061 0.750000
O O2 0.381896 0.409879 0.750000
O O3 0.298638 0.260766 0.817811
O O4 0.000000 0.042863 0.680104
O O5 0.500000 0.291746 0.250000
O O6 0.612192 0.312423 0.124988
O O7 0.500000 0.126867 0.015069
O O8 0.678861 0.165847 0.932220
O O9 0.712152 0.161453 0.067819
O O10 0.674538 0.000000 0.000000
#
# Coordination Sequence:
#
# PCOD8259706 Si02
#       5
#     8   4   8  16  16
#     4  10  21  36  61  85 111 141 190 237 285 331
#     4   8  22  34  56  90 110 140 192 236 282 336
#     4  10  20  38  57  85 115 146 187 235 283 341
#     4  10  23  39  57  83 116 153 194 233 281 342
#     4  11  21  39  60  82 116 153 186 236 289 334
#
# _framework density 17.618485
#
# number of rings (size 3 to 8) (size 9 to 14) (size 15 to 20)
#    0.923    0.923    3.077    0.923    4.308    0.000 
#    0.000    0.769    0.000    0.000    0.000    0.000 
#    0.000    0.000    0.000    0.000    0.000    0.000 
#
# Total GULP energy -322307.359603 kJ/mol
# GULP energy per Si atom -12396.436908 kJ/mol
# Density = 1.757838 g / cm^3
# Si number density = 17.618485 Si / 1000 Ang^3
#
#
#
# Elastic Constant Matrix: (Units=GPa)
#
#
# Indices 1 2 3 4 5 6 
#
# 1 92.3695 50.1858 45.7374 0.0000 0.0000 0.0000
# 2 50.1858 134.8414 61.6173 0.0000 0.0000 0.0000
# 3 45.7374 61.6173 134.0318 0.0000 0.0000 0.0000
# 4 0.0000 0.0000 0.0000 34.7267 0.0000 0.0000
# 5 0.0000 0.0000 0.0000 0.0000 -1.5376 0.0000
# 6 0.0000 0.0000 0.0000 0.0000 0.0000 24.1792
#
#
#
# Elastic Compliance Matrix: (Units=1/GPa)
#
#
# Indices 1 2 3 4 5 6 
#
# 1 0.014539 -0.003980 -0.003132 0.000000 0.000000 0.000000
# 2 -0.003980 0.010478 -0.003459 0.000000 0.000000 0.000000
# 3 -0.003132 -0.003459 0.010120 0.000000 0.000000 0.000000
# 4 0.000000 0.000000 0.000000 0.028796 0.000000 0.000000
# 5 0.000000 0.000000 0.000000 0.000000 -0.650355 0.000000
# 6 0.000000 0.000000 0.000000 0.000000 0.000000 0.041358
#
#
# Mechanical properties :
#
#
# Convention : Reuss Voigt Hill
#
# Bulk Modulus (GPa) = 71.45062 75.14709 73.29885
# Shear Modulus (GPa) = -9.62914 25.05381 7.71234
#
# Velocity S-wave (km/s) = -2.34035 3.77506 2.09450
# Velocity P-wave (km/s) = 5.77403 7.85789 6.89514
#
# Compressibility (1/GPa) = 0.01399568
#
# Stress axis : x y z
#
# Youngs Moduli (GPa) = 68.77929 95.43788 98.81807
#
# Poissons Ratio (x) = 0.37987 0.30946
# Poissons Ratio (y) = 0.27376 0.34179
# Poissons Ratio (z) = 0.21539 0.33009
#
# Static dielectric constant tensor:
#      x y z
#    x 3.290480 0.000000 0.000000 
#    y 0.000000 3.218350 0.000000 
#    z 0.000000 0.000000 3.172330 
# 
# 
# High freq. dielectric constant tensor:
#      x y z
#    x 1.689590 0.000000 0.000000 
#    y 0.000000 1.676780 0.000000 
#    z 0.000000 0.000000 1.687210 
# 
# From -- ./inp_files/41304.got.cif
#   From: 2010.03.12/outbox.cif.g09.slc.cpg/sg63_21_cif.got.tgz:41304.got - 2010.04.10 19:34:48.
