data_PCOD8259355
_publ_section_title
;
Structure prediction by ZEFSAII (Michael W. Deem and Ramdas Pophale) SiO2 
 PCOD8259355
Probable space group: C M C M
;
_chemical_formula_sum "Si O2"
_cell_formula_units_Z 80
_cell_length_a 25.609792
_cell_length_b 9.349802
_cell_length_c 17.579796
_cell_angle_alpha 90.000000
_cell_angle_beta 90.000000
_cell_angle_gamma 90.000000
_cell_volume 4209.420350
_symmetry_space_group_name_H-M "C M C M"
_symmetry_group_IT_number 63
_symmetry_cell_setting 'orthorhombic'
loop_
_space_group_symop_operation_xyz
x,y,z
-x,-y,1/2+z
x,-y,-z
-x,y,1/2-z
-x,-y,-z
x,y,1/2-z
-x,y,z
x,-y,1/2+z
1/2+x,1/2+y,z
1/2-x,1/2-y,1/2+z
1/2+x,1/2-y,-z
1/2-x,1/2+y,1/2-z
1/2-x,1/2-y,-z
1/2+x,1/2+y,1/2-z
1/2-x,1/2+y,z
1/2+x,1/2-y,1/2+z
loop_
_atom_site_type_symbol
_atom_site_label
_atom_site_fract_x
_atom_site_fract_y
_atom_site_fract_z
Si Si1 0.393512 0.406015 0.333682
Si Si2 0.208244 0.956216 0.412255
Si Si3 0.500000 0.369308 0.097690
Si Si4 0.406871 0.743012 0.333482
Si Si5 0.500000 0.707084 0.432481
Si Si6 0.790449 0.257883 0.338427
O O1 0.377700 0.348718 0.250000
O O2 0.346386 0.375595 0.392707
O O3 0.447136 0.327153 0.357870
O O4 0.403233 0.573394 0.330570
O O5 0.255091 0.848240 0.395467
O O6 0.208098 0.000000 0.500000
O O7 0.216136 0.091459 0.357742
O O8 0.500000 0.538255 0.082955
O O9 0.500000 0.271916 0.022389
O O10 0.424718 0.798153 0.250000
O O11 0.449384 0.785550 0.396657
O O12 0.350147 0.807292 0.353866
O O13 0.775137 0.280423 0.250000
#
# Coordination Sequence:
#
# PCOD8259355 Si02
#       6
#    16  16   8  16   8  16
#     4   9  17  29  44  65  97 134 169 206 256 315
#     4  11  22  34  53  79 107 139 177 225 266 310
#     4   9  17  23  41  65  95 132 162 206 254 311
#     4   8  15  26  44  66  96 130 166 207 254 309
#     4   9  15  23  39  67  97 124 159 208 262 299
#     4  10  20  36  54  75 105 142 178 214 264 321
#
# _framework density 19.004991
#
# number of rings (size 3 to 8) (size 9 to 14) (size 15 to 20)
#    0.000    2.600    0.000    4.200    8.400    2.400 
#    0.000    0.000    0.000    0.000    0.000    2.100 
#    0.000    3.200    0.000    0.000    0.000    0.000 
#
# Total GULP energy -495781.534294 kJ/mol
# GULP energy per Si atom -12394.538357 kJ/mol
# Density = 1.896174 g / cm^3
# Si number density = 19.004991 Si / 1000 Ang^3
#
#
#
# Elastic Constant Matrix: (Units=GPa)
#
#
# Indices 1 2 3 4 5 6 
#
# 1 161.4147 25.7105 78.8455 0.0000 0.0000 0.0000
# 2 25.7105 17.4383 11.3617 0.0000 0.0000 0.0000
# 3 78.8455 11.3617 131.8585 0.0000 0.0000 0.0000
# 4 0.0000 0.0000 0.0000 11.6869 0.0000 0.0000
# 5 0.0000 0.0000 0.0000 0.0000 34.1874 0.0000
# 6 0.0000 0.0000 0.0000 0.0000 0.0000 17.3961
#
#
#
# Elastic Compliance Matrix: (Units=1/GPa)
#
#
# Indices 1 2 3 4 5 6 
#
# 1 0.010808 -0.012421 -0.005392 0.000000 0.000000 0.000000
# 2 -0.012421 0.075032 0.000962 0.000000 0.000000 0.000000
# 3 -0.005392 0.000962 0.010725 0.000000 0.000000 0.000000
# 4 0.000000 0.000000 0.000000 0.085566 0.000000 0.000000
# 5 0.000000 0.000000 0.000000 0.000000 0.029251 0.000000
# 6 0.000000 0.000000 0.000000 0.000000 0.000000 0.057484
#
#
# Mechanical properties :
#
#
# Convention : Reuss Voigt Hill
#
# Bulk Modulus (GPa) = 15.90786 60.28299 38.09543
# Shear Modulus (GPa) = 15.45494 25.64034 20.54764
#
# Velocity S-wave (km/s) = 2.85477 3.67705 3.29168
# Velocity P-wave (km/s) = 4.38803 7.05804 5.87668
#
# Compressibility (1/GPa) = 0.06286200
#
# Stress axis : x y z
#
# Youngs Moduli (GPa) = 92.52757 13.32773 93.23783
#
# Poissons Ratio (x) = 0.16555 0.50275
# Poissons Ratio (y) = 1.14930 -0.08971
# Poissons Ratio (z) = 0.49893 -0.01282
#
# Static dielectric constant tensor:
#      x y z
#    x 3.857430 0.000000 0.000000 
#    y 0.000000 2.753240 0.000000 
#    z 0.000000 0.000000 3.653750 
# 
# 
# High freq. dielectric constant tensor:
#      x y z
#    x 1.756150 0.000000 0.000000 
#    y 0.000000 1.655310 0.000000 
#    z 0.000000 0.000000 1.749390 
# 
# From -- ./inp_files/47916.got.cif
#   From: 2010.03.12/outbox.cif.g09.slc.cpg/sg63_24_cif.got.tgz:47916.got - 2010.04.10 19:34:48.
