data_PCOD8259116
_publ_section_title
;
Structure prediction by ZEFSAII (Michael W. Deem and Ramdas Pophale) SiO2 
 PCOD8259116
Probable space group: C M C M
;
_chemical_formula_sum "Si O2"
_cell_formula_units_Z 72
_cell_length_a 21.974680
_cell_length_b 19.638327
_cell_length_c 8.679214
_cell_angle_alpha 90.000000
_cell_angle_beta 90.000000
_cell_angle_gamma 90.000000
_cell_volume 3745.479664
_symmetry_space_group_name_H-M "C M C M"
_symmetry_group_IT_number 63
_symmetry_cell_setting 'orthorhombic'
loop_
_space_group_symop_operation_xyz
x,y,z
-x,-y,1/2+z
x,-y,-z
-x,y,1/2-z
-x,-y,-z
x,y,1/2-z
-x,y,z
x,-y,1/2+z
1/2+x,1/2+y,z
1/2-x,1/2-y,1/2+z
1/2+x,1/2-y,-z
1/2-x,1/2+y,1/2-z
1/2-x,1/2-y,-z
1/2+x,1/2+y,1/2-z
1/2-x,1/2+y,z
1/2+x,1/2-y,1/2+z
loop_
_atom_site_type_symbol
_atom_site_label
_atom_site_fract_x
_atom_site_fract_y
_atom_site_fract_z
Si Si1 0.352970 0.570765 0.068420
Si Si2 0.000000 0.574388 0.068057
Si Si3 0.431528 0.304327 0.932904
Si Si4 0.110603 0.657158 0.932329
Si Si5 0.786555 0.571707 0.067776
O O1 0.359294 0.566580 0.250000
O O2 0.393710 0.631923 0.999989
O O3 0.283296 0.583685 0.019841
O O4 0.377409 0.500000 0.000000
O O5 0.000000 0.570071 0.250000
O O6 0.000000 0.500000 0.000000
O O7 0.059724 0.612394 0.012445
O O8 0.433902 0.308381 0.750000
O O9 0.500000 0.305924 0.000503
O O10 0.398037 0.235239 0.984256
O O11 0.104867 0.648766 0.750000
O O12 0.176339 0.633066 0.990749
O O13 0.796301 0.571622 0.250000
O O14 0.810099 0.500000 0.000000
#
# Coordination Sequence:
#
# PCOD8259116 Si02
#       5
#    16   8  16  16  16
#     4   9  19  36  58  82 110 144 184 228 277 330
#     4  12  24  38  56  80 111 146 185 228 271 320
#     4   9  18  35  58  81 109 147 185 223 275 335
#     4  11  21  36  57  81 109 147 187 224 271 328
#     4  10  20  35  54  80 112 146 184 230 276 324
#
# _framework density 19.223172999999999
#
# number of rings (size 3 to 8) (size 9 to 14) (size 15 to 20)
#    0.000    2.000    1.111    3.000    0.000    2.222 
#    0.000    2.222    0.000    0.000    0.000    0.000 
#    0.000    0.000    0.000    0.000    0.000    0.000 
#
# Total GULP energy -446497.394184 kJ/mol
# GULP energy per Si atom -12402.705394 kJ/mol
# Density = 1.917942 g / cm^3
# Si number density = 19.223173 Si / 1000 Ang^3
#
#
#
# Elastic Constant Matrix: (Units=GPa)
#
#
# Indices 1 2 3 4 5 6 
#
# 1 109.8798 95.1313 30.5378 0.0000 0.0000 0.0000
# 2 95.1313 197.1705 44.6941 0.0000 0.0000 0.0000
# 3 30.5378 44.6941 69.6836 0.0000 0.0000 0.0000
# 4 0.0000 0.0000 0.0000 25.7572 0.0000 0.0000
# 5 0.0000 0.0000 0.0000 0.0000 14.2485 0.0000
# 6 0.0000 0.0000 0.0000 0.0000 0.0000 33.1963
#
#
#
# Elastic Compliance Matrix: (Units=1/GPa)
#
#
# Indices 1 2 3 4 5 6 
#
# 1 0.015967 -0.007158 -0.002406 0.000000 0.000000 0.000000
# 2 -0.007158 0.009144 -0.002728 0.000000 0.000000 0.000000
# 3 -0.002406 -0.002728 0.017154 0.000000 0.000000 0.000000
# 4 0.000000 0.000000 0.000000 0.038824 0.000000 0.000000
# 5 0.000000 0.000000 0.000000 0.000000 0.070183 0.000000
# 6 0.000000 0.000000 0.000000 0.000000 0.000000 0.030124
#
#
# Mechanical properties :
#
#
# Convention : Reuss Voigt Hill
#
# Bulk Modulus (GPa) = 56.55730 79.71782 68.13756
# Shear Modulus (GPa) = 23.59891 28.39846 25.99868
#
# Velocity S-wave (km/s) = 3.50755 3.84774 3.68158
# Velocity P-wave (km/s) = 6.77416 7.82942 7.32083
#
# Compressibility (1/GPa) = 0.01768118
#
# Stress axis : x y z
#
# Youngs Moduli (GPa) = 62.62851 109.36258 58.29386
#
# Poissons Ratio (x) = 0.78287 0.14026
# Poissons Ratio (y) = 0.44833 0.15901
# Poissons Ratio (z) = 0.15069 0.29831
#
# Static dielectric constant tensor:
#      x y z
#    x 3.795800 0.000000 0.000000 
#    y 0.000000 3.751300 0.000000 
#    z 0.000000 0.000000 3.354460 
# 
# 
# High freq. dielectric constant tensor:
#      x y z
#    x 1.753100 0.000000 0.000000 
#    y 0.000000 1.756930 0.000000 
#    z 0.000000 0.000000 1.732290 
# 
# From -- ./inp_files/7793.got.cif
#   From: 2010.03.12/outbox.cif.g09.slc.cpg/sg63_4_cif.got.tgz:7793.got - 2010.04.10 19:34:48.
