data_PCOD8259770
_publ_section_title
;
Structure prediction by ZEFSAII (Michael W. Deem and Ramdas Pophale) SiO2 
 PCOD8259770
Probable space group: C M C M
;
_chemical_formula_sum "Si O2"
_cell_formula_units_Z 80
_cell_length_a 9.109290
_cell_length_b 20.201652
_cell_length_c 22.641081
_cell_angle_alpha 90.000000
_cell_angle_beta 90.000000
_cell_angle_gamma 90.000000
_cell_volume 4166.473005
_symmetry_space_group_name_H-M "C M C M"
_symmetry_group_IT_number 63
_symmetry_cell_setting 'orthorhombic'
loop_
_space_group_symop_operation_xyz
x,y,z
-x,-y,1/2+z
x,-y,-z
-x,y,1/2-z
-x,-y,-z
x,y,1/2-z
-x,y,z
x,-y,1/2+z
1/2+x,1/2+y,z
1/2-x,1/2-y,1/2+z
1/2+x,1/2-y,-z
1/2-x,1/2+y,1/2-z
1/2-x,1/2-y,-z
1/2+x,1/2+y,1/2-z
1/2-x,1/2+y,z
1/2+x,1/2-y,1/2+z
loop_
_atom_site_type_symbol
_atom_site_label
_atom_site_fract_x
_atom_site_fract_y
_atom_site_fract_z
Si Si1 0.329888 0.885927 0.551202
Si Si2 0.671363 0.628913 0.571813
Si Si3 0.169637 0.511244 0.870847
Si Si4 0.328985 0.765093 0.865809
Si Si5 0.325517 0.698719 0.250000
Si Si6 0.328441 0.058647 0.250000
O O1 0.500000 0.878690 0.534403
O O2 0.237043 0.879304 0.492622
O O3 0.283133 0.829732 0.597420
O O4 0.295488 0.956783 0.579572
O O5 0.500000 0.616678 0.567309
O O6 0.736008 0.576154 0.617476
O O7 0.709411 0.701651 0.595030
O O8 0.213539 0.484033 0.806890
O O9 0.000000 0.531323 0.872704
O O10 0.500000 0.767723 0.848204
O O11 0.232341 0.762065 0.806995
O O12 0.500000 0.698242 0.250000
O O13 0.266184 0.624484 0.250000
O O14 0.500000 0.078890 0.250000
#
# Coordination Sequence:
#
# PCOD8259770 Si02
#       6
#    16  16  16  16   8   8
#     4  10  20  38  64  86 113 159 207 241 281 353
#     4  11  24  38  57  88 125 157 191 247 302 341
#     4  10  21  38  63  88 115 158 201 238 288 353
#     4  10  22  42  63  84 118 163 199 234 292 357
#     4  12  24  37  62  95 119 145 191 253 298 340
#     4  10  20  41  66  85 113 157 201 239 286 356
#
# _framework density 19.200892
#
# number of rings (size 3 to 8) (size 9 to 14) (size 15 to 20)
#    0.000    1.600    2.000    2.700    0.000    7.200 
#    0.000    2.000    0.000    0.000    0.000    0.000 
#    0.000    0.000    0.000    0.000    0.000    0.000 
#
# Total GULP energy -496241.665301 kJ/mol
# GULP energy per Si atom -12406.041633 kJ/mol
# Density = 1.915719 g / cm^3
# Si number density = 19.200892 Si / 1000 Ang^3
#
#
#
# Elastic Constant Matrix: (Units=GPa)
#
#
# Indices 1 2 3 4 5 6 
#
# 1 75.7762 28.4743 46.1590 0.0000 0.0000 0.0000
# 2 28.4743 54.3290 -0.1981 0.0000 0.0000 0.0000
# 3 46.1590 -0.1981 98.3844 0.0000 0.0000 0.0000
# 4 0.0000 0.0000 0.0000 21.4907 0.0000 0.0000
# 5 0.0000 0.0000 0.0000 0.0000 6.8839 0.0000
# 6 0.0000 0.0000 0.0000 0.0000 0.0000 29.7119
#
#
#
# Elastic Compliance Matrix: (Units=1/GPa)
#
#
# Indices 1 2 3 4 5 6 
#
# 1 0.025576 -0.013449 -0.012027 0.000000 0.000000 0.000000
# 2 -0.013449 0.025478 0.006361 0.000000 0.000000 0.000000
# 3 -0.012027 0.006361 0.015820 0.000000 0.000000 0.000000
# 4 0.000000 0.000000 0.000000 0.046532 0.000000 0.000000
# 5 0.000000 0.000000 0.000000 0.000000 0.145267 0.000000
# 6 0.000000 0.000000 0.000000 0.000000 0.000000 0.033657
#
#
# Mechanical properties :
#
#
# Convention : Reuss Voigt Hill
#
# Bulk Modulus (GPa) = 34.90973 41.92890 38.41932
# Shear Modulus (GPa) = 14.70127 21.88760 18.29444
#
# Velocity S-wave (km/s) = 2.77005 3.37994 3.09008
# Velocity P-wave (km/s) = 5.33401 6.09232 5.72573
#
# Compressibility (1/GPa) = 0.02864531
#
# Stress axis : x y z
#
# Youngs Moduli (GPa) = 39.09842 39.24933 63.21254
#
# Poissons Ratio (x) = 0.52785 0.76025
# Poissons Ratio (y) = 0.52582 -0.40210
# Poissons Ratio (z) = 0.47023 -0.24967
#
# Static dielectric constant tensor:
#      x y z
#    x 3.451020 0.000000 0.000000 
#    y 0.000000 3.615940 0.000000 
#    z 0.000000 0.000000 3.673880 
# 
# 
# High freq. dielectric constant tensor:
#      x y z
#    x 1.739540 0.000000 0.000000 
#    y 0.000000 1.755240 0.000000 
#    z 0.000000 0.000000 1.762180 
# 
# From -- ./inp_files/59530.got.cif
#   From: 2010.03.12/outbox.cif.g09.slc.cpg/sg63_30_cif.got.tgz:59530.got - 2010.04.10 19:34:48.
