data_PCOD8259592
_publ_section_title
;
Structure prediction by ZEFSAII (Michael W. Deem and Ramdas Pophale) SiO2 
 PCOD8259592
Probable space group: C M C M
;
_chemical_formula_sum "Si O2"
_cell_formula_units_Z 64
_cell_length_a 15.038118
_cell_length_b 24.668312
_cell_length_c 8.663395
_cell_angle_alpha 90.000000
_cell_angle_beta 90.000000
_cell_angle_gamma 90.000000
_cell_volume 3213.816211
_symmetry_space_group_name_H-M "C M C M"
_symmetry_group_IT_number 63
_symmetry_cell_setting 'orthorhombic'
loop_
_space_group_symop_operation_xyz
x,y,z
-x,-y,1/2+z
x,-y,-z
-x,y,1/2-z
-x,-y,-z
x,y,1/2-z
-x,y,z
x,-y,1/2+z
1/2+x,1/2+y,z
1/2-x,1/2-y,1/2+z
1/2+x,1/2-y,-z
1/2-x,1/2+y,1/2-z
1/2-x,1/2-y,-z
1/2+x,1/2+y,1/2-z
1/2-x,1/2+y,z
1/2+x,1/2-y,1/2+z
loop_
_atom_site_type_symbol
_atom_site_label
_atom_site_fract_x
_atom_site_fract_y
_atom_site_fract_z
Si Si1 0.500000 0.940345 0.934348
Si Si2 0.653271 0.254942 0.068936
Si Si3 0.145262 0.135948 0.432865
Si Si4 0.000000 0.059514 0.932574
Si Si5 0.653012 0.863561 0.568989
O O1 0.500000 0.941278 0.750000
O O2 0.412650 0.909239 0.999049
O O3 0.500000 0.000000 0.000000
O O4 0.655859 0.267247 0.250000
O O5 0.609555 0.195959 0.035108
O O6 0.750000 0.250000 0.000000
O O7 0.605097 0.305375 0.984708
O O8 0.138332 0.131132 0.250000
O O9 0.088607 0.088910 0.509683
O O10 0.246646 0.130125 0.496697
O O11 0.000000 0.057263 0.750000
O O12 0.000000 0.000000 0.000000
O O13 0.661419 0.871484 0.750000
#
# Coordination Sequence:
#
# PCOD8259592 Si02
#       5
#     8  16  16   8  16
#     4  10  20  37  54  75 105 142 186 228 263 312
#     4   9  16  30  53  83 113 147 186 227 276 334
#     4  10  20  37  58  84 115 147 180 226 281 337
#     4  12  26  43  60  81 107 144 190 236 283 340
#     4   8  17  33  56  81 112 149 183 220 272 328
#
# _framework density 19.914021000000002
#
# number of rings (size 3 to 8) (size 9 to 14) (size 15 to 20)
#    0.000    2.500    0.000    4.125    0.000    2.000 
#    0.000   12.500    0.000    0.000    0.000    0.000 
#    0.000    0.000    0.000    0.000    0.000    0.000 
#
# Total GULP energy -396522.368359 kJ/mol
# GULP energy per Si atom -12391.324011 kJ/mol
# Density = 1.986870 g / cm^3
# Si number density = 19.914021 Si / 1000 Ang^3
#
#
#
# Elastic Constant Matrix: (Units=GPa)
#
#
# Indices 1 2 3 4 5 6 
#
# 1 109.4756 82.3743 32.6336 0.0000 0.0000 0.0000
# 2 82.3743 200.5581 55.9611 0.0000 0.0000 0.0000
# 3 32.6336 55.9611 90.8779 0.0000 0.0000 0.0000
# 4 0.0000 0.0000 0.0000 39.0933 0.0000 0.0000
# 5 0.0000 0.0000 0.0000 0.0000 21.1908 0.0000
# 6 0.0000 0.0000 0.0000 0.0000 0.0000 31.0944
#
#
#
# Elastic Compliance Matrix: (Units=1/GPa)
#
#
# Indices 1 2 3 4 5 6 
#
# 1 0.013440 -0.005039 -0.001723 0.000000 0.000000 0.000000
# 2 -0.005039 0.007910 -0.003061 0.000000 0.000000 0.000000
# 3 -0.001723 -0.003061 0.013508 0.000000 0.000000 0.000000
# 4 0.000000 0.000000 0.000000 0.025580 0.000000 0.000000
# 5 0.000000 0.000000 0.000000 0.000000 0.047190 0.000000
# 6 0.000000 0.000000 0.000000 0.000000 0.000000 0.032160
#
#
# Mechanical properties :
#
#
# Convention : Reuss Voigt Hill
#
# Bulk Modulus (GPa) = 65.74521 82.53883 74.14202
# Shear Modulus (GPa) = 30.39418 33.60521 31.99970
#
# Velocity S-wave (km/s) = 3.91099 4.11239 4.01296
# Velocity P-wave (km/s) = 7.31305 8.00541 7.66705
#
# Compressibility (1/GPa) = 0.01521023
#
# Stress axis : x y z
#
# Youngs Moduli (GPa) = 74.40535 126.42148 74.03241
#
# Poissons Ratio (x) = 0.63708 0.12756
# Poissons Ratio (y) = 0.37495 0.22663
# Poissons Ratio (z) = 0.12820 0.38701
#
# Static dielectric constant tensor:
#      x y z
#    x 3.789140 0.000000 0.000000 
#    y 0.000000 4.121370 0.000000 
#    z 0.000000 0.000000 3.682600 
# 
# 
# High freq. dielectric constant tensor:
#      x y z
#    x 1.767440 0.000000 0.000000 
#    y 0.000000 1.787810 0.000000 
#    z 0.000000 0.000000 1.759100 
# 
# From -- ./inp_files/4294.got.cif
#   From: 2010.03.12/outbox.cif.g09.slc.cpg/sg63_3_cif.got.tgz:4294.got - 2010.04.10 19:34:48.
