data_PCOD8259698
_publ_section_title
;
Structure prediction by ZEFSAII (Michael W. Deem and Ramdas Pophale) SiO2 
 PCOD8259698
Probable space group: C M C M
;
_chemical_formula_sum "Si O2"
_cell_formula_units_Z 56
_cell_length_a 7.790906
_cell_length_b 36.063531
_cell_length_c 10.240515
_cell_angle_alpha 90.000000
_cell_angle_beta 90.000000
_cell_angle_gamma 90.000000
_cell_volume 2877.252718
_symmetry_space_group_name_H-M "C M C M"
_symmetry_group_IT_number 63
_symmetry_cell_setting 'orthorhombic'
loop_
_space_group_symop_operation_xyz
x,y,z
-x,-y,1/2+z
x,-y,-z
-x,y,1/2-z
-x,-y,-z
x,y,1/2-z
-x,y,z
x,-y,1/2+z
1/2+x,1/2+y,z
1/2-x,1/2-y,1/2+z
1/2+x,1/2-y,-z
1/2-x,1/2+y,1/2-z
1/2-x,1/2-y,-z
1/2+x,1/2+y,1/2-z
1/2-x,1/2+y,z
1/2+x,1/2-y,1/2+z
loop_
_atom_site_type_symbol
_atom_site_label
_atom_site_fract_x
_atom_site_fract_y
_atom_site_fract_z
Si Si1 0.697780 0.664251 0.987502
Si Si2 0.000000 0.034485 0.596215
Si Si3 0.295981 0.712881 0.750000
Si Si4 0.691592 0.911977 0.100728
Si Si5 0.296197 0.203383 0.250000
O O1 0.500000 0.656236 0.957065
O O2 0.720733 0.682744 0.126251
O O3 0.774651 0.691836 0.877963
O O4 0.793986 0.624916 0.986219
O O5 0.829949 0.057469 0.558960
O O6 0.000000 0.022976 0.750000
O O7 0.000000 0.000000 0.500000
O O8 0.500000 0.714361 0.750000
O O9 0.224514 0.754699 0.750000
O O10 0.726254 0.900147 0.250000
O O11 0.500000 0.928650 0.082219
O O12 0.500000 0.201835 0.250000
#
# Coordination Sequence:
#
# PCOD8259698 Si02
#       5
#    16   8   8  16   8
#     4  11  20  37  60  84 115 161 209 255 305 364
#     4  10  22  42  66  94 126 156 196 248 302 364
#     4   9  20  35  59  81 113 157 210 261 308 365
#     4  10  20  37  64  93 119 160 207 243 292 363
#     4  11  23  37  49  83 125 160 201 261 319 362
#
# _framework density 19.463011000000002
#
# number of rings (size 3 to 8) (size 9 to 14) (size 15 to 20)
#    0.000    1.714    2.857    2.143    0.000    0.571 
#    2.571    4.286    0.000    0.000    0.000    0.000 
#    0.000    0.000    0.000    0.000    0.000    0.000 
#
# Total GULP energy -347275.839313 kJ/mol
# GULP energy per Si atom -12402.708547 kJ/mol
# Density = 1.941871 g / cm^3
# Si number density = 19.463011 Si / 1000 Ang^3
#
#
#
# Elastic Constant Matrix: (Units=GPa)
#
#
# Indices 1 2 3 4 5 6 
#
# 1 106.5177 53.5532 21.6552 0.0000 0.0000 0.0000
# 2 53.5532 155.8507 71.8553 0.0000 0.0000 0.0000
# 3 21.6552 71.8553 126.0102 0.0000 0.0000 0.0000
# 4 0.0000 0.0000 0.0000 54.0352 0.0000 0.0000
# 5 0.0000 0.0000 0.0000 0.0000 -28.0951 0.0000
# 6 0.0000 0.0000 0.0000 0.0000 0.0000 23.6111
#
#
#
# Elastic Compliance Matrix: (Units=1/GPa)
#
#
# Indices 1 2 3 4 5 6 
#
# 1 0.011361 -0.004075 0.000371 0.000000 0.000000 0.000000
# 2 -0.004075 0.010167 -0.005097 0.000000 0.000000 0.000000
# 3 0.000371 -0.005097 0.010779 0.000000 0.000000 0.000000
# 4 0.000000 0.000000 0.000000 0.018506 0.000000 0.000000
# 5 0.000000 0.000000 0.000000 0.000000 -0.035593 0.000000
# 6 0.000000 0.000000 0.000000 0.000000 0.000000 0.042353
#
#
# Mechanical properties :
#
#
# Convention : Reuss Voigt Hill
#
# Bulk Modulus (GPa) = 68.00474 75.83401 71.91937
# Shear Modulus (GPa) = 62.44033 25.99790 44.21911
#
# Velocity S-wave (km/s) = 5.67020 3.65877 4.77168
# Velocity P-wave (km/s) = 8.82522 7.54298 8.20918
#
# Compressibility (1/GPa) = 0.01470486
#
# Stress axis : x y z
#
# Youngs Moduli (GPa) = 88.01659 98.35997 92.77660
#
# Poissons Ratio (x) = 0.40084 -0.03445
# Poissons Ratio (y) = 0.35869 0.47289
# Poissons Ratio (z) = -0.03268 0.50135
#
# Static dielectric constant tensor:
#      x y z
#    x 3.587860 0.000000 0.000000 
#    y 0.000000 3.427500 0.000000 
#    z 0.000000 0.000000 3.405200 
# 
# 
# High freq. dielectric constant tensor:
#      x y z
#    x 1.764730 0.000000 0.000000 
#    y 0.000000 1.749660 0.000000 
#    z 0.000000 0.000000 1.747510 
# 
# From -- ./inp_files/16138.got.cif
#   From: 2010.03.12/outbox.cif.g09.slc.cpg/sg63_9_cif.got.tgz:16138.got - 2010.04.10 19:34:48.
