data_PCOD8259215
_publ_section_title
;
Structure prediction by ZEFSAII (Michael W. Deem and Ramdas Pophale) SiO2 
 PCOD8259215
Probable space group: C M C M
;
_chemical_formula_sum "Si O2"
_cell_formula_units_Z 80
_cell_length_a 8.659720
_cell_length_b 19.141878
_cell_length_c 25.419787
_cell_angle_alpha 90.000000
_cell_angle_beta 90.000000
_cell_angle_gamma 90.000000
_cell_volume 4213.667874
_symmetry_space_group_name_H-M "C M C M"
_symmetry_group_IT_number 63
_symmetry_cell_setting 'orthorhombic'
loop_
_space_group_symop_operation_xyz
x,y,z
-x,-y,1/2+z
x,-y,-z
-x,y,1/2-z
-x,-y,-z
x,y,1/2-z
-x,y,z
x,-y,1/2+z
1/2+x,1/2+y,z
1/2-x,1/2-y,1/2+z
1/2+x,1/2-y,-z
1/2-x,1/2+y,1/2-z
1/2-x,1/2-y,-z
1/2+x,1/2+y,1/2-z
1/2-x,1/2+y,z
1/2+x,1/2-y,1/2+z
loop_
_atom_site_type_symbol
_atom_site_label
_atom_site_fract_x
_atom_site_fract_y
_atom_site_fract_z
Si Si1 0.317632 0.702603 0.159853
Si Si2 0.818443 0.795373 0.250000
Si Si3 0.819339 0.446561 0.250000
Si Si4 0.182616 0.554556 0.339472
Si Si5 0.822934 0.453146 0.544890
Si Si6 0.177525 0.293222 0.546685
O O1 0.500000 0.704081 0.162960
O O2 0.252076 0.761716 0.197869
O O3 0.258789 0.626948 0.179154
O O4 0.265562 0.721141 0.100918
O O5 0.781354 0.877380 0.250000
O O6 0.000000 0.783785 0.250000
O O7 0.774145 0.492069 0.199210
O O8 0.000000 0.427478 0.250000
O O9 0.248949 0.534117 0.397151
O O10 0.000000 0.568944 0.341508
O O11 0.738835 0.500000 0.500000
O O12 0.805006 0.373024 0.528912
O O13 0.000000 0.476801 0.548233
O O14 0.250000 0.250000 0.500000
O O15 0.000000 0.272397 0.555001
#
# Coordination Sequence:
#
# PCOD8259215 Si02
#       6
#    16   8   8  16  16  16
#     4  11  22  38  60  83 110 148 194 236 279 337
#     4  12  25  40  57  81 115 147 183 236 291 338
#     4  10  21  36  55  81 111 143 181 224 277 338
#     4   9  18  34  56  80 109 145 183 224 272 330
#     4   8  15  29  50  76 104 138 179 218 260 315
#     4  10  20  35  56  83 114 148 187 232 282 332
#
# _framework density 18.985835000000002
#
# number of rings (size 3 to 8) (size 9 to 14) (size 15 to 20)
#    0.000    2.200    0.000    5.100    0.000    3.200 
#    0.000    4.000    0.000   15.000    0.000    0.000 
#    0.000    0.000    0.000    0.000    0.000    0.000 
#
# Total GULP energy -495988.723924 kJ/mol
# GULP energy per Si atom -12399.718098 kJ/mol
# Density = 1.894262 g / cm^3
# Si number density = 18.985835 Si / 1000 Ang^3
#
#
#
# Elastic Constant Matrix: (Units=GPa)
#
#
# Indices 1 2 3 4 5 6 
#
# 1 107.8070 52.5969 47.6430 0.0000 0.0000 0.0000
# 2 52.5969 114.1221 79.9905 0.0000 0.0000 0.0000
# 3 47.6430 79.9905 125.2283 0.0000 0.0000 0.0000
# 4 0.0000 0.0000 0.0000 -211.9959 0.0000 0.0000
# 5 0.0000 0.0000 0.0000 0.0000 26.7431 0.0000
# 6 0.0000 0.0000 0.0000 0.0000 0.0000 30.2856
#
#
#
# Elastic Compliance Matrix: (Units=1/GPa)
#
#
# Indices 1 2 3 4 5 6 
#
# 1 0.012212 -0.004295 -0.001903 0.000000 0.000000 0.000000
# 2 -0.004295 0.017376 -0.009465 0.000000 0.000000 0.000000
# 3 -0.001903 -0.009465 0.014755 0.000000 0.000000 0.000000
# 4 0.000000 0.000000 0.000000 -0.004717 0.000000 0.000000
# 5 0.000000 0.000000 0.000000 0.000000 0.037393 0.000000
# 6 0.000000 0.000000 0.000000 0.000000 0.000000 0.033019
#
#
# Mechanical properties :
#
#
# Convention : Reuss Voigt Hill
#
# Bulk Modulus (GPa) = 76.81584 78.62423 77.72004
# Shear Modulus (GPa) = 34.31629 -19.86497 7.22566
#
# Velocity S-wave (km/s) = 4.25604 -3.23817 1.95297
# Velocity P-wave (km/s) = 8.04359 5.24604 6.79044
#
# Compressibility (1/GPa) = 0.01301815
#
# Stress axis : x y z
#
# Youngs Moduli (GPa) = 81.88673 57.54970 67.77164
#
# Poissons Ratio (x) = 0.24715 0.12896
# Poissons Ratio (y) = 0.35166 0.64148
# Poissons Ratio (z) = 0.15582 0.54473
#
# Static dielectric constant tensor:
#      x y z
#    x 3.336350 0.000000 0.000000 
#    y 0.000000 3.442360 0.000000 
#    z 0.000000 0.000000 3.931340 
# 
# 
# High freq. dielectric constant tensor:
#      x y z
#    x 1.721450 0.000000 0.000000 
#    y 0.000000 1.734900 0.000000 
#    z 0.000000 0.000000 1.755220 
# 
# From -- ./inp_files/66686.got.cif
#   From: 2010.03.12/outbox.cif.g09.slc.cpg/sg63_34_cif.got.tgz:66686.got - 2010.04.10 19:34:48.
