data_PCOD8259294
_publ_section_title
;
Structure prediction by ZEFSAII (Michael W. Deem and Ramdas Pophale) SiO2 
 PCOD8259294
Probable space group: C M C M
;
_chemical_formula_sum "Si O2"
_cell_formula_units_Z 112
_cell_length_a 14.703312
_cell_length_b 14.739903
_cell_length_c 27.143286
_cell_angle_alpha 90.000000
_cell_angle_beta 90.000000
_cell_angle_gamma 90.000000
_cell_volume 5882.639316
_symmetry_space_group_name_H-M "C M C M"
_symmetry_group_IT_number 63
_symmetry_cell_setting 'orthorhombic'
loop_
_space_group_symop_operation_xyz
x,y,z
-x,-y,1/2+z
x,-y,-z
-x,y,1/2-z
-x,-y,-z
x,y,1/2-z
-x,y,z
x,-y,1/2+z
1/2+x,1/2+y,z
1/2-x,1/2-y,1/2+z
1/2+x,1/2-y,-z
1/2-x,1/2+y,1/2-z
1/2-x,1/2-y,-z
1/2+x,1/2+y,1/2-z
1/2-x,1/2+y,z
1/2+x,1/2-y,1/2+z
loop_
_atom_site_type_symbol
_atom_site_label
_atom_site_fract_x
_atom_site_fract_y
_atom_site_fract_z
Si Si1 0.106359 0.718638 0.806550
Si Si2 0.809864 0.707644 0.042381
Si Si3 0.000000 0.652532 0.492801
Si Si4 0.600323 0.590782 0.805650
Si Si5 0.692817 0.034459 0.396164
Si Si6 0.297013 0.593430 0.195303
Si Si7 0.756972 0.152418 0.624538
Si Si8 0.000000 0.517981 0.924691
O O1 0.123654 0.686165 0.750000
O O2 0.140623 0.820235 0.814256
O O3 0.161152 0.659152 0.846322
O O4 0.000000 0.711842 0.819638
O O5 0.913160 0.713436 0.022435
O O6 0.789560 0.602726 0.057688
O O7 0.785344 0.766950 0.089358
O O8 0.750000 0.750000 0.000000
O O9 0.000000 0.557551 0.466169
O O10 0.000000 0.619992 0.550591
O O11 0.600333 0.625666 0.750000
O O12 0.500000 0.595797 0.828674
O O13 0.633494 0.488427 0.809784
O O14 0.664490 0.658288 0.835044
O O15 0.716825 0.084757 0.344854
O O16 0.754971 0.944409 0.404141
O O17 0.589206 0.999647 0.391918
O O18 0.252493 0.595739 0.250000
#
# Coordination Sequence:
#
# PCOD8259294 Si02
#       8
#    16  16   8  16  16  16  16   8
#     4  10  20  35  58  88 122 159 200 244 298 359
#     4  11  23  41  61  86 115 151 198 254 301 355
#     4   9  20  38  62  85 110 150 196 241 298 359
#     4   9  18  33  56  83 113 154 199 238 288 354
#     4  10  21  38  59  88 114 154 198 243 297 359
#     4   9  17  34  57  84 119 155 193 243 295 353
#     4  11  22  35  60  85 119 156 195 251 300 353
#     4   9  18  36  61  82 110 154 199 238 284 359
#
# _framework density 19.039072999999998
#
# number of rings (size 3 to 8) (size 9 to 14) (size 15 to 20)
#    0.000    2.143    1.429    1.714    2.000    4.000 
#    1.286    0.357    1.571    0.857    0.000    0.000 
#    0.000    0.000    0.000    0.000    0.000    0.000 
#
# Total GULP energy -693959.147683 kJ/mol
# GULP energy per Si atom -12392.127637 kJ/mol
# Density = 1.899574 g / cm^3
# Si number density = 19.039073 Si / 1000 Ang^3
#
#
#
# Elastic Constant Matrix: (Units=GPa)
#
#
# Indices 1 2 3 4 5 6 
#
# 1 140.7270 37.4889 73.6957 0.0000 0.0000 0.0000
# 2 37.4889 79.1356 46.5070 0.0000 0.0000 0.0000
# 3 73.6957 46.5070 91.9232 0.0000 0.0000 0.0000
# 4 0.0000 0.0000 0.0000 23.7883 0.0000 0.0000
# 5 0.0000 0.0000 0.0000 0.0000 28.4820 0.0000
# 6 0.0000 0.0000 0.0000 0.0000 0.0000 20.3838
#
#
#
# Elastic Compliance Matrix: (Units=1/GPa)
#
#
# Indices 1 2 3 4 5 6 
#
# 1 0.012248 -0.000045 -0.009797 0.000000 0.000000 0.000000
# 2 -0.000045 0.017984 -0.009063 0.000000 0.000000 0.000000
# 3 -0.009797 -0.009063 0.023318 0.000000 0.000000 0.000000
# 4 0.000000 0.000000 0.000000 0.042038 0.000000 0.000000
# 5 0.000000 0.000000 0.000000 0.000000 0.035110 0.000000
# 6 0.000000 0.000000 0.000000 0.000000 0.000000 0.049059
#
#
# Mechanical properties :
#
#
# Convention : Reuss Voigt Hill
#
# Bulk Modulus (GPa) = 63.52708 69.68545 66.60627
# Shear Modulus (GPa) = 22.44045 24.80377 23.62211
#
# Velocity S-wave (km/s) = 3.43688 3.61332 3.52620
# Velocity P-wave (km/s) = 7.01346 7.35451 7.18601
#
# Compressibility (1/GPa) = 0.01574132
#
# Stress axis : x y z
#
# Youngs Moduli (GPa) = 81.64380 55.60568 42.88537
#
# Poissons Ratio (x) = 0.00250 0.42014
# Poissons Ratio (y) = 0.00366 0.38865
# Poissons Ratio (z) = 0.79986 0.50393
#
# Static dielectric constant tensor:
#      x y z
#    x 3.630040 0.000000 0.000000 
#    y 0.000000 3.500740 0.000000 
#    z 0.000000 0.000000 3.199010 
# 
# 
# High freq. dielectric constant tensor:
#      x y z
#    x 1.736320 0.000000 0.000000 
#    y 0.000000 1.738710 0.000000 
#    z 0.000000 0.000000 1.737530 
# 
# From -- ./inp_files/69433.got.cif
#   From: 2010.03.12/outbox.cif.g09.slc.cpg/sg63_35_cif.got.tgz:69433.got - 2010.04.10 19:34:48.
