data_PCOD8259281
_publ_section_title
;
Structure prediction by ZEFSAII (Michael W. Deem and Ramdas Pophale) SiO2 
 PCOD8259281
Probable space group: C M C M
;
_chemical_formula_sum "Si O2"
_cell_formula_units_Z 48
_cell_length_a 15.912759
_cell_length_b 8.696925
_cell_length_c 16.113513
_cell_angle_alpha 90.000000
_cell_angle_beta 90.000000
_cell_angle_gamma 90.000000
_cell_volume 2229.982444
_symmetry_space_group_name_H-M "C M C M"
_symmetry_group_IT_number 63
_symmetry_cell_setting 'orthorhombic'
loop_
_space_group_symop_operation_xyz
x,y,z
-x,-y,1/2+z
x,-y,-z
-x,y,1/2-z
-x,-y,-z
x,y,1/2-z
-x,y,z
x,-y,1/2+z
1/2+x,1/2+y,z
1/2-x,1/2-y,1/2+z
1/2+x,1/2-y,-z
1/2-x,1/2+y,1/2-z
1/2-x,1/2-y,-z
1/2+x,1/2+y,1/2-z
1/2-x,1/2+y,z
1/2+x,1/2-y,1/2+z
loop_
_atom_site_type_symbol
_atom_site_label
_atom_site_fract_x
_atom_site_fract_y
_atom_site_fract_z
Si Si1 0.673775 0.438868 0.408094
Si Si2 0.500000 0.933242 0.908443
Si Si3 0.328887 0.891206 0.656386
Si Si4 0.500000 0.593807 0.847244
O O1 0.687194 0.500000 0.500000
O O2 0.678036 0.253807 0.405593
O O3 0.748637 0.500570 0.351150
O O4 0.584195 0.499748 0.371956
O O5 0.586411 0.989295 0.864367
O O6 0.500000 0.747839 0.902878
O O7 0.500000 0.000000 0.000000
O O8 0.335454 0.828258 0.750000
O O9 0.500000 0.634315 0.750000
#
# Coordination Sequence:
#
# PCOD8259281 Si02
#       4
#    16   8  16   8
#     4  11  22  38  61  89 119 153 195 243 293 347
#     4  10  20  35  58  85 114 150 192 238 286 343
#     4  11  22  40  61  86 118 158 197 240 292 350
#     4  10  21  41  62  85 117 158 196 238 293 353
#
# _framework density 21.524833000000001
#
# number of rings (size 3 to 8) (size 9 to 14) (size 15 to 20)
#    0.000    1.333    0.000    9.000    0.000    2.667 
#    0.000    1.667    0.000    0.000    0.000    0.000 
#    0.000    0.000    0.000    0.000    0.000    0.000 
#
# Total GULP energy -297523.755018 kJ/mol
# GULP energy per Si atom -12396.823126 kJ/mol
# Density = 2.147584 g / cm^3
# Si number density = 21.524833 Si / 1000 Ang^3
#
#
#
# Elastic Constant Matrix: (Units=GPa)
#
#
# Indices 1 2 3 4 5 6 
#
# 1 223.2535 35.6597 34.3406 0.0000 0.0000 0.0000
# 2 35.6597 42.4006 34.0808 0.0000 0.0000 0.0000
# 3 34.3406 34.0808 141.1713 0.0000 0.0000 0.0000
# 4 0.0000 0.0000 0.0000 25.6131 0.0000 0.0000
# 5 0.0000 0.0000 0.0000 0.0000 37.5213 0.0000
# 6 0.0000 0.0000 0.0000 0.0000 0.0000 34.2901
#
#
#
# Elastic Compliance Matrix: (Units=1/GPa)
#
#
# Indices 1 2 3 4 5 6 
#
# 1 0.005182 -0.004150 -0.000259 0.000000 0.000000 0.000000
# 2 -0.004150 0.032587 -0.006857 0.000000 0.000000 0.000000
# 3 -0.000259 -0.006857 0.008802 0.000000 0.000000 0.000000
# 4 0.000000 0.000000 0.000000 0.039042 0.000000 0.000000
# 5 0.000000 0.000000 0.000000 0.000000 0.026652 0.000000
# 6 0.000000 0.000000 0.000000 0.000000 0.000000 0.029163
#
#
# Mechanical properties :
#
#
# Convention : Reuss Voigt Hill
#
# Bulk Modulus (GPa) = 41.60029 68.33195 54.96612
# Shear Modulus (GPa) = 29.07439 39.66785 34.37112
#
# Velocity S-wave (km/s) = 3.67922 4.29754 4.00035
# Velocity P-wave (km/s) = 6.11699 7.51264 6.85045
#
# Compressibility (1/GPa) = 0.02403829
#
# Stress axis : x y z
#
# Youngs Moduli (GPa) = 192.97971 30.68731 113.61104
#
# Poissons Ratio (x) = 0.12736 0.02938
# Poissons Ratio (y) = 0.80091 0.77907
# Poissons Ratio (z) = 0.04990 0.21043
#
# Static dielectric constant tensor:
#      x y z
#    x 4.843380 0.000000 0.000000 
#    y 0.000000 3.358440 0.000000 
#    z 0.000000 0.000000 3.739330 
# 
# 
# High freq. dielectric constant tensor:
#      x y z
#    x 1.887720 0.000000 0.000000 
#    y 0.000000 1.796550 0.000000 
#    z 0.000000 0.000000 1.846400 
# 
# From -- ./inp_files/33095.got.cif
#   From: 2010.03.12/outbox.cif.g09.slc.cpg/sg63_17_cif.got.tgz:33095.got - 2010.04.10 19:34:48.
