data_PCOD8259631
_publ_section_title
;
Structure prediction by ZEFSAII (Michael W. Deem and Ramdas Pophale) SiO2 
 PCOD8259631
Probable space group: C M C M
;
_chemical_formula_sum "Si O2"
_cell_formula_units_Z 80
_cell_length_a 27.247882
_cell_length_b 9.121760
_cell_length_c 14.130806
_cell_angle_alpha 90.000000
_cell_angle_beta 90.000000
_cell_angle_gamma 90.000000
_cell_volume 3512.192615
_symmetry_space_group_name_H-M "C M C M"
_symmetry_group_IT_number 63
_symmetry_cell_setting 'orthorhombic'
loop_
_space_group_symop_operation_xyz
x,y,z
-x,-y,1/2+z
x,-y,-z
-x,y,1/2-z
-x,-y,-z
x,y,1/2-z
-x,y,z
x,-y,1/2+z
1/2+x,1/2+y,z
1/2-x,1/2-y,1/2+z
1/2+x,1/2-y,-z
1/2-x,1/2+y,1/2-z
1/2-x,1/2-y,-z
1/2+x,1/2+y,1/2-z
1/2-x,1/2+y,z
1/2+x,1/2-y,1/2+z
loop_
_atom_site_type_symbol
_atom_site_label
_atom_site_fract_x
_atom_site_fract_y
_atom_site_fract_z
Si Si1 0.944455 0.787584 0.052860
Si Si2 0.351213 0.865188 0.570542
Si Si3 0.689519 0.328729 0.919716
Si Si4 0.085167 0.905346 0.858491
Si Si5 0.768854 0.524432 0.647723
O O1 0.908276 0.662572 0.095719
O O2 0.931378 0.934534 0.108820
O O3 0.000000 0.741072 0.075205
O O4 0.937963 0.797110 0.938089
O O5 0.330307 0.713994 0.524110
O O6 0.345742 0.000000 0.500000
O O7 0.316855 0.916887 0.656235
O O8 0.643820 0.385511 0.857690
O O9 0.729723 0.458300 0.926880
O O10 0.716205 0.189333 0.874812
O O11 0.066604 0.875074 0.750000
O O12 0.743444 0.522249 0.750000
#
# Coordination Sequence:
#
# PCOD8259631 Si02
#       5
#    16  16  16  16  16
#     4  10  22  38  59  88 115 148 201 249 292 350
#     4   9  21  40  57  79 115 156 193 238 298 347
#     4  10  22  38  57  83 118 158 198 236 287 353
#     4  10  20  37  59  83 117 153 189 242 298 348
#     4  11  21  35  56  85 117 154 197 239 286 350
#
# _framework density 22.777794
#
# number of rings (size 3 to 8) (size 9 to 14) (size 15 to 20)
#    0.000    2.000    0.000    3.600    2.800    2.800 
#    7.200    0.000    0.000    0.000    0.000    2.800 
#    0.000    0.000    0.000    0.000    0.000    0.000 
#
# Total GULP energy -495544.154649 kJ/mol
# GULP energy per Si atom -12388.603866 kJ/mol
# Density = 2.272595 g / cm^3
# Si number density = 22.777794 Si / 1000 Ang^3
#
#
#
# Elastic Constant Matrix: (Units=GPa)
#
#
# Indices 1 2 3 4 5 6 
#
# 1 158.8132 47.6166 6.6021 0.0000 0.0000 0.0000
# 2 47.6166 37.4626 22.1560 0.0000 0.0000 0.0000
# 3 6.6021 22.1560 59.3128 0.0000 0.0000 0.0000
# 4 0.0000 0.0000 0.0000 10.4208 0.0000 0.0000
# 5 0.0000 0.0000 0.0000 0.0000 18.0432 0.0000
# 6 0.0000 0.0000 0.0000 0.0000 0.0000 29.5866
#
#
#
# Elastic Compliance Matrix: (Units=1/GPa)
#
#
# Indices 1 2 3 4 5 6 
#
# 1 0.011334 -0.017533 0.005288 0.000000 0.000000 0.000000
# 2 -0.017533 0.061386 -0.020979 0.000000 0.000000 0.000000
# 3 0.005288 -0.020979 0.024108 0.000000 0.000000 0.000000
# 4 0.000000 0.000000 0.000000 0.095962 0.000000 0.000000
# 5 0.000000 0.000000 0.000000 0.000000 0.055423 0.000000
# 6 0.000000 0.000000 0.000000 0.000000 0.000000 0.033799
#
#
# Mechanical properties :
#
#
# Convention : Reuss Voigt Hill
#
# Bulk Modulus (GPa) = 32.91719 45.37089 39.14404
# Shear Modulus (GPa) = 13.94370 23.55771 18.75070
#
# Velocity S-wave (km/s) = 2.47687 3.21945 2.87226
# Velocity P-wave (km/s) = 4.76053 5.81223 5.31247
#
# Compressibility (1/GPa) = 0.03037926
#
# Stress axis : x y z
#
# Youngs Moduli (GPa) = 88.23201 16.29046 41.48058
#
# Poissons Ratio (x) = 0.28562 -0.21934
# Poissons Ratio (y) = 1.54697 0.87021
# Poissons Ratio (z) = -0.46655 0.34175
#
# Static dielectric constant tensor:
#      x y z
#    x 4.349810 0.000000 0.000000 
#    y 0.000000 4.045360 0.000000 
#    z 0.000000 0.000000 3.954280 
# 
# 
# High freq. dielectric constant tensor:
#      x y z
#    x 1.901170 0.000000 0.000000 
#    y 0.000000 1.887320 0.000000 
#    z 0.000000 0.000000 1.878600 
# 
# From -- ./inp_files/49415.got.cif
#   From: 2010.03.12/outbox.cif.g09.slc.cpg/sg63_25_cif.got.tgz:49415.got - 2010.04.10 19:34:48.
