data_PCOD8259274
_publ_section_title
;
Structure prediction by ZEFSAII (Michael W. Deem and Ramdas Pophale) SiO2 
 PCOD8259274
Probable space group: C M C M
;
_chemical_formula_sum "Si O2"
_cell_formula_units_Z 112
_cell_length_a 15.282952
_cell_length_b 14.838296
_cell_length_c 24.147937
_cell_angle_alpha 90.000000
_cell_angle_beta 90.000000
_cell_angle_gamma 90.000000
_cell_volume 5476.099285
_symmetry_space_group_name_H-M "C M C M"
_symmetry_group_IT_number 63
_symmetry_cell_setting 'orthorhombic'
loop_
_space_group_symop_operation_xyz
x,y,z
-x,-y,1/2+z
x,-y,-z
-x,y,1/2-z
-x,-y,-z
x,y,1/2-z
-x,y,z
x,-y,1/2+z
1/2+x,1/2+y,z
1/2-x,1/2-y,1/2+z
1/2+x,1/2-y,-z
1/2-x,1/2+y,1/2-z
1/2-x,1/2-y,-z
1/2+x,1/2+y,1/2-z
1/2-x,1/2+y,z
1/2+x,1/2-y,1/2+z
loop_
_atom_site_type_symbol
_atom_site_label
_atom_site_fract_x
_atom_site_fract_y
_atom_site_fract_z
Si Si1 0.599047 0.826897 0.088543
Si Si2 0.255628 0.101791 0.990307
Si Si3 0.398646 0.313945 0.187826
Si Si4 0.301361 0.865533 0.685338
Si Si5 0.896906 0.452853 0.187948
Si Si6 0.099164 0.062563 0.912176
Si Si7 0.661818 0.634978 0.402965
O O1 0.500000 0.857365 0.073927
O O2 0.663627 0.847815 0.038008
O O3 0.633537 0.877239 0.144037
O O4 0.597867 0.720240 0.099282
O O5 0.166235 0.106941 0.954997
O O6 0.235163 0.148383 0.049092
O O7 0.286299 0.000000 0.000000
O O8 0.368849 0.340560 0.250000
O O9 0.500000 0.288370 0.186969
O O10 0.348906 0.225689 0.165770
O O11 0.377857 0.398948 0.148648
O O12 0.283165 0.863332 0.750000
O O13 0.208669 0.873448 0.655798
O O14 0.359199 0.951525 0.668521
O O15 0.863896 0.426386 0.250000
O O16 0.000000 0.462593 0.188193
O O17 0.000000 0.089015 0.929396
O O18 0.105759 0.954732 0.913186
#
# Coordination Sequence:
#
# PCOD8259274 Si02
#       7
#    16  16  16  16  16  16  16
#     4  11  23  39  59  83 116 156 190 228 282 339
#     4  10  22  40  60  82 112 146 190 243 283 326
#     4   9  18  34  57  85 114 144 186 241 289 327
#     4  10  20  35  58  84 111 148 190 233 285 337
#     4   9  18  34  56  82 112 147 190 237 282 333
#     4  10  21  38  61  86 113 148 188 231 283 338
#     4  11  23  38  55  82 117 150 187 231 276 334
#
# _framework density 20.452514000000001
#
# number of rings (size 3 to 8) (size 9 to 14) (size 15 to 20)
#    0.000    2.000    0.000    3.857    0.000    6.286 
#    0.000    6.429    0.000    4.286    0.000    0.000 
#    0.000    0.000    0.000    0.000    0.000    0.000 
#
# Total GULP energy -694510.901148 kJ/mol
# GULP energy per Si atom -12401.980378 kJ/mol
# Density = 2.040596 g / cm^3
# Si number density = 20.452514 Si / 1000 Ang^3
#
#
#
# Elastic Constant Matrix: (Units=GPa)
#
#
# Indices 1 2 3 4 5 6 
#
# 1 63.4687 24.4103 32.8617 0.0000 0.0000 0.0000
# 2 24.4103 92.6078 43.5900 0.0000 0.0000 0.0000
# 3 32.8617 43.5900 68.7694 0.0000 0.0000 0.0000
# 4 0.0000 0.0000 0.0000 29.5885 0.0000 0.0000
# 5 0.0000 0.0000 0.0000 0.0000 25.1858 0.0000
# 6 0.0000 0.0000 0.0000 0.0000 0.0000 18.5227
#
#
#
# Elastic Compliance Matrix: (Units=1/GPa)
#
#
# Indices 1 2 3 4 5 6 
#
# 1 0.021022 -0.001158 -0.009311 0.000000 0.000000 0.000000
# 2 -0.001158 0.015454 -0.009242 0.000000 0.000000 0.000000
# 3 -0.009311 -0.009242 0.024849 0.000000 0.000000 0.000000
# 4 0.000000 0.000000 0.000000 0.033797 0.000000 0.000000
# 5 0.000000 0.000000 0.000000 0.000000 0.039705 0.000000
# 6 0.000000 0.000000 0.000000 0.000000 0.000000 0.053988
#
#
# Mechanical properties :
#
#
# Convention : Reuss Voigt Hill
#
# Bulk Modulus (GPa) = 45.65872 47.39664 46.52768
# Shear Modulus (GPa) = 21.22797 22.92500 22.07648
#
# Velocity S-wave (km/s) = 3.22516 3.35160 3.28899
# Velocity P-wave (km/s) = 6.02010 6.18077 6.10097
#
# Compressibility (1/GPa) = 0.02190162
#
# Stress axis : x y z
#
# Youngs Moduli (GPa) = 47.56829 64.70959 40.24335
#
# Poissons Ratio (x) = 0.07496 0.37472
# Poissons Ratio (y) = 0.05511 0.37192
# Poissons Ratio (z) = 0.44292 0.59804
#
# Static dielectric constant tensor:
#      x y z
#    x 3.497460 0.000000 0.000000 
#    y 0.000000 3.725270 0.000000 
#    z 0.000000 0.000000 3.898930 
# 
# 
# High freq. dielectric constant tensor:
#      x y z
#    x 1.792360 0.000000 0.000000 
#    y 0.000000 1.803020 0.000000 
#    z 0.000000 0.000000 1.802650 
# 
# From -- ./inp_files/62964.got.cif
#   From: 2010.03.12/outbox.cif.g09.slc.cpg/sg63_32_cif.got.tgz:62964.got - 2010.04.10 19:34:48.
