data_PCOD8259866
_publ_section_title
;
Structure prediction by ZEFSAII (Michael W. Deem and Ramdas Pophale) SiO2 
 PCOD8259866
Probable space group: C M C M
;
_chemical_formula_sum "Si O2"
_cell_formula_units_Z 80
_cell_length_a 21.437715
_cell_length_b 22.763223
_cell_length_c 9.660182
_cell_angle_alpha 90.000000
_cell_angle_beta 90.000000
_cell_angle_gamma 90.000000
_cell_volume 4714.086580
_symmetry_space_group_name_H-M "C M C M"
_symmetry_group_IT_number 63
_symmetry_cell_setting 'orthorhombic'
loop_
_space_group_symop_operation_xyz
x,y,z
-x,-y,1/2+z
x,-y,-z
-x,y,1/2-z
-x,-y,-z
x,y,1/2-z
-x,y,z
x,-y,1/2+z
1/2+x,1/2+y,z
1/2-x,1/2-y,1/2+z
1/2+x,1/2-y,-z
1/2-x,1/2+y,1/2-z
1/2-x,1/2-y,-z
1/2+x,1/2+y,1/2-z
1/2-x,1/2+y,z
1/2+x,1/2-y,1/2+z
loop_
_atom_site_type_symbol
_atom_site_label
_atom_site_fract_x
_atom_site_fract_y
_atom_site_fract_z
Si Si1 0.069148 0.097067 0.750000
Si Si2 0.870013 0.171774 0.968516
Si Si3 0.356531 0.521412 0.250000
Si Si4 0.803294 0.718201 0.410925
Si Si5 0.426075 0.638312 0.250000
Si Si6 0.734455 0.879538 0.090637
Si Si7 0.271651 0.500000 0.500000
O O1 0.077258 0.138043 0.616915
O O2 0.000000 0.070411 0.750000
O O3 0.117518 0.044148 0.750000
O O4 0.864213 0.240111 0.920719
O O5 0.805086 0.138922 0.941587
O O6 0.892312 0.170783 0.124776
O O7 0.412199 0.568592 0.250000
O O8 0.314727 0.530815 0.385071
O O9 0.784119 0.709028 0.250000
O O10 0.750000 0.750000 0.500000
O O11 0.812718 0.655142 0.486733
O O12 0.500000 0.648178 0.250000
O O13 0.717917 0.864931 0.250000
O O14 0.727864 0.949344 0.064774
#
# Coordination Sequence:
#
# PCOD8259866 Si02
#       7
#     8  16   8  16   8  16   8
#     4  12  21  36  54  67  95 139 181 226 261 294
#     4  11  20  36  49  69  99 126 169 221 261 306
#     4  12  21  36  48  68  98 140 178 226 255 290
#     4  10  21  32  53  76  93 124 165 211 265 319
#     4  12  25  34  48  73  97 135 185 222 259 290
#     4  11  21  34  52  76  98 132 171 206 260 313
#     4  12  20  32  53  70 106 136 169 210 258 298
#
# _framework density 16.970413000000001
#
# number of rings (size 3 to 8) (size 9 to 14) (size 15 to 20)
#    0.000    0.800    7.000    2.700    8.400    0.000 
#    0.000    3.000    0.000    0.000    0.000    0.000 
#    0.000    0.000    0.000    5.400    0.000    0.000 
#
# Total GULP energy -495891.825896 kJ/mol
# GULP energy per Si atom -12397.295647 kJ/mol
# Density = 1.693179 g / cm^3
# Si number density = 16.970413 Si / 1000 Ang^3
#
#
#
# Elastic Constant Matrix: (Units=GPa)
#
#
# Indices 1 2 3 4 5 6 
#
# 1 21.9282 24.0342 18.2291 0.0000 0.0000 0.0000
# 2 24.0342 96.6661 37.9093 0.0000 0.0000 0.0000
# 3 18.2291 37.9093 154.3400 0.0000 0.0000 0.0000
# 4 0.0000 0.0000 0.0000 31.0434 0.0000 0.0000
# 5 0.0000 0.0000 0.0000 0.0000 15.8802 0.0000
# 6 0.0000 0.0000 0.0000 0.0000 0.0000 14.4057
#
#
#
# Elastic Compliance Matrix: (Units=1/GPa)
#
#
# Indices 1 2 3 4 5 6 
#
# 1 0.064948 -0.014540 -0.004100 0.000000 0.000000 0.000000
# 2 -0.014540 0.014703 -0.001894 0.000000 0.000000 0.000000
# 3 -0.004100 -0.001894 0.007429 0.000000 0.000000 0.000000
# 4 0.000000 0.000000 0.000000 0.032213 0.000000 0.000000
# 5 0.000000 0.000000 0.000000 0.000000 0.062972 0.000000
# 6 0.000000 0.000000 0.000000 0.000000 0.000000 0.069417
#
#
# Mechanical properties :
#
#
# Convention : Reuss Voigt Hill
#
# Bulk Modulus (GPa) = 21.73354 48.14215 34.93785
# Shear Modulus (GPa) = 16.22921 25.11663 20.67292
#
# Velocity S-wave (km/s) = 3.09580 3.85128 3.49402
# Velocity P-wave (km/s) = 5.06095 6.94308 6.07534
#
# Compressibility (1/GPa) = 0.04601183
#
# Stress axis : x y z
#
# Youngs Moduli (GPa) = 15.39684 68.01402 134.61473
#
# Poissons Ratio (x) = 0.98895 0.55186
# Poissons Ratio (y) = 0.22388 0.25496
# Poissons Ratio (z) = 0.06312 0.12882
#
# Static dielectric constant tensor:
#      x y z
#    x 2.789150 0.000000 0.000000 
#    y 0.000000 3.691410 0.000000 
#    z 0.000000 0.000000 3.493460 
# 
# 
# High freq. dielectric constant tensor:
#      x y z
#    x 1.581770 0.000000 0.000000 
#    y 0.000000 1.657530 0.000000 
#    z 0.000000 0.000000 1.683330 
# 
# From -- ./inp_files/8499.got.cif
#   From: 2010.03.12/outbox.cif.g09.slc.cpg/sg63_5_cif.got.tgz:8499.got - 2010.04.10 19:34:48.
