data_PCOD8259172
_publ_section_title
;
Structure prediction by ZEFSAII (Michael W. Deem and Ramdas Pophale) SiO2 
 PCOD8259172
Probable space group: C M C M
;
_chemical_formula_sum "Si O2"
_cell_formula_units_Z 112
_cell_length_a 14.000896
_cell_length_b 14.482306
_cell_length_c 27.318695
_cell_angle_alpha 90.000000
_cell_angle_beta 90.000000
_cell_angle_gamma 90.000000
_cell_volume 5539.282299
_symmetry_space_group_name_H-M "C M C M"
_symmetry_group_IT_number 63
_symmetry_cell_setting 'orthorhombic'
loop_
_space_group_symop_operation_xyz
x,y,z
-x,-y,1/2+z
x,-y,-z
-x,y,1/2-z
-x,-y,-z
x,y,1/2-z
-x,y,z
x,-y,1/2+z
1/2+x,1/2+y,z
1/2-x,1/2-y,1/2+z
1/2+x,1/2-y,-z
1/2-x,1/2+y,1/2-z
1/2-x,1/2-y,-z
1/2+x,1/2+y,1/2-z
1/2-x,1/2+y,z
1/2+x,1/2-y,1/2+z
loop_
_atom_site_type_symbol
_atom_site_label
_atom_site_fract_x
_atom_site_fract_y
_atom_site_fract_z
Si Si1 0.108962 0.263375 0.942306
Si Si2 0.268260 0.603172 0.404458
Si Si3 0.108962 0.736625 0.557695
Si Si4 0.500000 0.102005 0.807272
Si Si5 0.731739 0.396829 0.095542
Si Si6 0.293389 0.149824 0.304350
Si Si7 0.000000 0.397984 0.692728
Si Si8 0.206610 0.350180 0.195650
O O1 0.171782 0.349069 0.923951
O O2 0.141804 0.166189 0.918906
O O3 0.000000 0.282741 0.926992
O O4 0.121236 0.254026 0.000000
O O5 0.358195 0.666190 0.418904
O O6 0.279195 0.500001 0.426677
O O7 0.263272 0.592390 0.345339
O O8 0.171782 0.650930 0.576050
O O9 0.000000 0.717259 0.573009
O O10 0.500000 0.088083 0.750000
O O11 0.595807 0.157297 0.821846
O O12 0.500000 0.999994 0.832176
O O13 0.736724 0.407610 0.154661
O O14 0.284457 0.103792 0.250000
O O15 0.404192 0.157308 0.321846
O O16 0.249995 0.250000 0.302932
O O17 0.000000 0.411907 0.750000
O O18 0.215545 0.396212 0.250000
#
# Coordination Sequence:
#
# PCOD8259172 Si02
#       8
#    16  16  16   8  16  16   8  16
#     4  10  23  43  62  84 117 152 191 242 297 351
#     4  11  22  37  61  90 119 151 193 241 287 344
#     4  10  23  43  62  84 117 152 191 242 297 351
#     4   9  18  32  52  80 110 146 193 234 274 330
#     4  11  22  37  61  90 119 151 193 241 287 344
#     4  10  20  35  55  84 121 158 192 234 284 336
#     4   9  18  32  52  80 110 146 193 234 274 330
#     4  10  20  35  55  84 121 158 192 234 284 336
#
# _framework density 20.219225000000002
#
# number of rings (size 3 to 8) (size 9 to 14) (size 15 to 20)
#    0.000    1.857    2.857    2.571    2.000    5.143 
#    0.000    2.857    0.000    0.000    0.000    2.000 
#    0.000    0.000    0.000    0.000    0.000    0.000 
#
# Total GULP energy -694016.767632 kJ/mol
# GULP energy per Si atom -12393.156565 kJ/mol
# Density = 2.017321 g / cm^3
# Si number density = 20.219225 Si / 1000 Ang^3
#
#
#
# Elastic Constant Matrix: (Units=GPa)
#
#
# Indices 1 2 3 4 5 6 
#
# 1 94.4206 32.7945 14.9989 0.0000 0.0000 0.0000
# 2 32.7945 122.3642 2.2244 0.0000 0.0000 0.0000
# 3 14.9989 2.2244 84.0299 0.0000 0.0000 0.0000
# 4 0.0000 0.0000 0.0000 19.0562 0.0000 0.0000
# 5 0.0000 0.0000 0.0000 0.0000 24.2608 0.0000
# 6 0.0000 0.0000 0.0000 0.0000 0.0000 -0.6483
#
#
#
# Elastic Compliance Matrix: (Units=1/GPa)
#
#
# Indices 1 2 3 4 5 6 
#
# 1 0.012025 -0.003185 -0.002062 0.000000 0.000000 0.000000
# 2 -0.003185 0.009020 0.000330 0.000000 0.000000 0.000000
# 3 -0.002062 0.000330 0.012260 0.000000 0.000000 0.000000
# 4 0.000000 0.000000 0.000000 0.052476 0.000000 0.000000
# 5 0.000000 0.000000 0.000000 0.000000 0.041219 0.000000
# 6 0.000000 0.000000 0.000000 0.000000 0.000000 -1.542424
#
#
# Mechanical properties :
#
#
# Convention : Reuss Voigt Hill
#
# Bulk Modulus (GPa) = 42.60829 44.53894 43.57361
# Shear Modulus (GPa) = -3.57714 25.25353 10.83819
#
# Velocity S-wave (km/s) = -1.33155 3.53793 2.31775
# Velocity P-wave (km/s) = 4.33069 6.22617 5.36284
#
# Compressibility (1/GPa) = 0.02346961
#
# Stress axis : x y z
#
# Youngs Moduli (GPa) = 83.16155 110.86475 81.56704
#
# Poissons Ratio (x) = 0.35313 0.16819
# Poissons Ratio (y) = 0.26489 -0.02690
# Poissons Ratio (z) = 0.17148 -0.03656
#
# Static dielectric constant tensor:
#      x y z
#    x 3.859670 0.000000 0.000000 
#    y 0.000000 3.440130 0.000000 
#    z 0.000000 0.000000 4.174750 
# 
# 
# High freq. dielectric constant tensor:
#      x y z
#    x 1.781880 0.000000 0.000000 
#    y 0.000000 1.775500 0.000000 
#    z 0.000000 0.000000 1.804580 
# 
# From -- ./inp_files/69446.got.cif
#   From: 2010.03.12/outbox.cif.g09.slc.cpg/sg63_35_cif.got.tgz:69446.got - 2010.04.10 19:34:48.
