data_PCOD8259106
_publ_section_title
;
Structure prediction by ZEFSAII (Michael W. Deem and Ramdas Pophale) SiO2 
 PCOD8259106
Probable space group: C M C M
;
_chemical_formula_sum "Si O2"
_cell_formula_units_Z 112
_cell_length_a 13.538984
_cell_length_b 13.532085
_cell_length_c 32.425901
_cell_angle_alpha 90.000000
_cell_angle_beta 90.000000
_cell_angle_gamma 90.000000
_cell_volume 5940.771446
_symmetry_space_group_name_H-M "C M C M"
_symmetry_group_IT_number 63
_symmetry_cell_setting 'orthorhombic'
loop_
_space_group_symop_operation_xyz
x,y,z
-x,-y,1/2+z
x,-y,-z
-x,y,1/2-z
-x,-y,-z
x,y,1/2-z
-x,y,z
x,-y,1/2+z
1/2+x,1/2+y,z
1/2-x,1/2-y,1/2+z
1/2+x,1/2-y,-z
1/2-x,1/2+y,1/2-z
1/2-x,1/2-y,-z
1/2+x,1/2+y,1/2-z
1/2-x,1/2+y,z
1/2+x,1/2-y,1/2+z
loop_
_atom_site_type_symbol
_atom_site_label
_atom_site_fract_x
_atom_site_fract_y
_atom_site_fract_z
Si Si1 0.114314 0.278801 0.333363
Si Si2 0.610761 0.222937 0.018281
Si Si3 0.616382 0.674569 0.250000
Si Si4 0.610922 0.758367 0.887558
Si Si5 0.381553 0.548532 0.750000
Si Si6 0.295241 0.598817 0.476001
Si Si7 0.791538 0.111721 0.380555
Si Si8 0.703102 0.408555 0.164060
O O1 0.151906 0.232120 0.290467
O O2 0.129762 0.197493 0.369285
O O3 0.182730 0.374563 0.340795
O O4 0.000000 0.312099 0.332617
O O5 0.500000 0.183182 0.011268
O O6 0.627503 0.263995 0.064248
O O7 0.684707 0.131488 0.010458
O O8 0.630138 0.313000 0.987203
O O9 0.500000 0.667191 0.250000
O O10 0.658435 0.563853 0.250000
O O11 0.500000 0.793589 0.878305
O O12 0.681798 0.846327 0.872591
O O13 0.632707 0.657260 0.864236
O O14 0.500000 0.556093 0.750000
O O15 0.336423 0.602922 0.710391
O O16 0.324719 0.500000 0.500000
O O17 0.305395 0.577811 0.427543
O O18 0.808345 0.020601 0.350376
#
# Coordination Sequence:
#
# PCOD8259106 Si02
#       8
#    16  16   8  16   8  16  16  16
#     4  10  21  37  57  81 109 142 178 220 266 315
#     4   9  19  36  55  77 105 139 177 220 270 321
#     4   9  17  34  56  76 104 138 170 211 263 307
#     4   9  19  36  56  77 106 140 176 221 271 319
#     4  11  21  34  57  84 110 142 179 219 262 313
#     4  10  20  35  54  77 108 141 177 223 267 316
#     4  10  21  35  53  79 109 141 179 220 269 317
#     4  11  21  35  57  83 106 141 182 220 261 316
#
# _framework density 18.85277
#
# number of rings (size 3 to 8) (size 9 to 14) (size 15 to 20)
#    0.000    2.143    1.429    1.714    0.000    3.429 
#    0.000    0.000    0.000    0.000    0.000    0.000 
#    0.000    0.000    0.000    0.000    0.000    0.000 
#
# Total GULP energy -694508.489245 kJ/mol
# GULP energy per Si atom -12401.937308 kJ/mol
# Density = 1.880986 g / cm^3
# Si number density = 18.852770 Si / 1000 Ang^3
#
#
#
# Elastic Constant Matrix: (Units=GPa)
#
#
# Indices 1 2 3 4 5 6 
#
# 1 68.0494 2.5047 24.8632 0.0000 0.0000 0.0000
# 2 2.5047 52.4772 21.7729 0.0000 0.0000 0.0000
# 3 24.8632 21.7729 70.2280 0.0000 0.0000 0.0000
# 4 0.0000 0.0000 0.0000 19.0243 0.0000 0.0000
# 5 0.0000 0.0000 0.0000 0.0000 26.8051 0.0000
# 6 0.0000 0.0000 0.0000 0.0000 0.0000 13.5785
#
#
#
# Elastic Compliance Matrix: (Units=1/GPa)
#
#
# Indices 1 2 3 4 5 6 
#
# 1 0.017049 0.001940 -0.006637 0.000000 0.000000 0.000000
# 2 0.001940 0.022090 -0.007535 0.000000 0.000000 0.000000
# 3 -0.006637 -0.007535 0.018925 0.000000 0.000000 0.000000
# 4 0.000000 0.000000 0.000000 0.052564 0.000000 0.000000
# 5 0.000000 0.000000 0.000000 0.000000 0.037306 0.000000
# 6 0.000000 0.000000 0.000000 0.000000 0.000000 0.073646
#
#
# Mechanical properties :
#
#
# Convention : Reuss Voigt Hill
#
# Bulk Modulus (GPa) = 29.76302 32.11514 30.93908
# Shear Modulus (GPa) = 19.43670 21.32252 20.37961
#
# Velocity S-wave (km/s) = 3.21436 3.36669 3.29140
# Velocity P-wave (km/s) = 5.44036 5.67313 5.55796
#
# Compressibility (1/GPa) = 0.03359874
#
# Stress axis : x y z
#
# Youngs Moduli (GPa) = 58.65473 45.26988 52.83896
#
# Poissons Ratio (x) = -0.08783 0.35072
# Poissons Ratio (y) = -0.11380 0.39816
# Poissons Ratio (z) = 0.38932 0.34113
#
# Static dielectric constant tensor:
#      x y z
#    x 3.427520 0.000000 0.000000 
#    y 0.000000 3.236860 0.000000 
#    z 0.000000 0.000000 3.590000 
# 
# 
# High freq. dielectric constant tensor:
#      x y z
#    x 1.728830 0.000000 0.000000 
#    y 0.000000 1.719250 0.000000 
#    z 0.000000 0.000000 1.741350 
# 
# From -- ./inp_files/69434.got.cif
#   From: 2010.03.12/outbox.cif.g09.slc.cpg/sg63_35_cif.got.tgz:69434.got - 2010.04.10 19:34:48.
