data_PCOD8259552
_publ_section_title
;
Structure prediction by ZEFSAII (Michael W. Deem and Ramdas Pophale) SiO2 
 PCOD8259552
Probable space group: C M C M
;
_chemical_formula_sum "Si O2"
_cell_formula_units_Z 100
_cell_length_a 23.978996
_cell_length_b 14.953989
_cell_length_c 13.909781
_cell_angle_alpha 90.000000
_cell_angle_beta 90.000000
_cell_angle_gamma 90.000000
_cell_volume 4987.792117
_symmetry_space_group_name_H-M "C M C M"
_symmetry_group_IT_number 63
_symmetry_cell_setting 'orthorhombic'
loop_
_space_group_symop_operation_xyz
x,y,z
-x,-y,1/2+z
x,-y,-z
-x,y,1/2-z
-x,-y,-z
x,y,1/2-z
-x,y,z
x,-y,1/2+z
1/2+x,1/2+y,z
1/2-x,1/2-y,1/2+z
1/2+x,1/2-y,-z
1/2-x,1/2+y,1/2-z
1/2-x,1/2-y,-z
1/2+x,1/2+y,1/2-z
1/2-x,1/2+y,z
1/2+x,1/2-y,1/2+z
loop_
_atom_site_type_symbol
_atom_site_label
_atom_site_fract_x
_atom_site_fract_y
_atom_site_fract_z
Si Si1 0.734825 0.953219 0.359077
Si Si2 0.000000 0.214141 0.358116
Si Si3 0.000000 0.384573 0.250000
Si Si4 0.137657 0.571344 0.429181
Si Si5 0.137835 0.047984 0.863173
Si Si6 0.693359 0.216112 0.954136
Si Si7 0.608900 0.637064 0.053138
Si Si8 0.562164 0.055774 0.250000
O O1 0.734202 0.980517 0.250000
O O2 0.797901 0.954983 0.396749
O O3 0.708029 0.855001 0.371342
O O4 0.698666 0.029381 0.409597
O O5 0.947506 0.186988 0.421035
O O6 0.000000 0.170674 0.250000
O O7 0.000000 0.322405 0.345372
O O8 0.055375 0.447414 0.250000
O O9 0.107053 0.500000 0.500000
O O10 0.150866 0.668907 0.471079
O O11 0.097084 0.587844 0.340789
O O12 0.130128 0.075384 0.750000
O O13 0.110921 0.951877 0.882446
O O14 0.109549 0.118220 0.937476
O O15 0.660533 0.301277 0.912783
O O16 0.750000 0.250000 0.000000
O O17 0.500000 0.100035 0.250000
#
# Coordination Sequence:
#
# PCOD8259552 Si02
#       8
#    16   8   4  16  16  16  16   8
#     4  10  20  36  60  89 128 165 211 258 325 398
#     4  10  24  41  65 103 124 162 221 282 308 373
#     4   8  24  40  70  86 136 150 236 278 308 350
#     4  10  22  36  63  91 127 169 215 259 324 394
#     4  10  22  40  62  91 124 170 211 265 332 410
#     4  11  22  38  61  96 128 165 208 267 327 391
#     4  11  23  41  65  88 130 166 216 269 334 375
#     4  10  22  44  62  93 127 179 221 267 314 382
#
# _framework density 20.048950999999999
#
# number of rings (size 3 to 8) (size 9 to 14) (size 15 to 20)
#    0.480    1.280    2.400    1.440    8.960    2.880 
#    4.320    1.200    0.000    0.000    0.000    0.000 
#    0.000    0.000    0.000    0.000    0.000    0.000 
#
# Total GULP energy -619722.512771 kJ/mol
# GULP energy per Si atom -12394.450255 kJ/mol
# Density = 2.000332 g / cm^3
# Si number density = 20.048951 Si / 1000 Ang^3
#
#
#
# Elastic Constant Matrix: (Units=GPa)
#
#
# Indices 1 2 3 4 5 6 
#
# 1 94.9058 4.4094 27.5718 0.0000 0.0000 0.0000
# 2 4.4094 57.4471 -3.6008 0.0000 0.0000 0.0000
# 3 27.5718 -3.6008 93.2778 0.0000 0.0000 0.0000
# 4 0.0000 0.0000 0.0000 21.8680 0.0000 0.0000
# 5 0.0000 0.0000 0.0000 0.0000 24.7711 0.0000
# 6 0.0000 0.0000 0.0000 0.0000 0.0000 15.4479
#
#
#
# Elastic Compliance Matrix: (Units=1/GPa)
#
#
# Indices 1 2 3 4 5 6 
#
# 1 0.011596 -0.001108 -0.003471 0.000000 0.000000 0.000000
# 2 -0.001108 0.017555 0.001005 0.000000 0.000000 0.000000
# 3 -0.003471 0.001005 0.011785 0.000000 0.000000 0.000000
# 4 0.000000 0.000000 0.000000 0.045729 0.000000 0.000000
# 5 0.000000 0.000000 0.000000 0.000000 0.040370 0.000000
# 6 0.000000 0.000000 0.000000 0.000000 0.000000 0.064734
#
#
# Mechanical properties :
#
#
# Convention : Reuss Voigt Hill
#
# Bulk Modulus (GPa) = 29.59370 33.59906 31.59638
# Shear Modulus (GPa) = 23.78922 26.90075 25.34499
#
# Velocity S-wave (km/s) = 3.44838 3.66697 3.55935
# Velocity P-wave (km/s) = 5.53605 5.89269 5.71715
#
# Compressibility (1/GPa) = 0.03379097
#
# Stress axis : x y z
#
# Youngs Moduli (GPa) = 86.23313 56.96271 84.85137
#
# Poissons Ratio (x) = 0.06309 0.29448
# Poissons Ratio (y) = 0.09551 -0.08528
# Poissons Ratio (z) = 0.29928 -0.05725
#
# Static dielectric constant tensor:
#      x y z
#    x 3.926580 0.000000 0.000000 
#    y 0.000000 3.972630 0.000000 
#    z 0.000000 0.000000 3.168050 
# 
# 
# High freq. dielectric constant tensor:
#      x y z
#    x 1.776500 0.000000 0.000000 
#    y 0.000000 1.776830 0.000000 
#    z 0.000000 0.000000 1.779700 
# 
# From -- ./inp_files/36835.got.cif
#   From: 2010.03.12/outbox.cif.g09.slc.cpg/sg63_19_cif.got.tgz:36835.got - 2010.04.10 19:34:48.
