data_PCOD8259943
_publ_section_title
;
Structure prediction by ZEFSAII (Michael W. Deem and Ramdas Pophale) SiO2 
 PCOD8259943
Probable space group: C M C M
;
_chemical_formula_sum "Si O2"
_cell_formula_units_Z 80
_cell_length_a 25.267311
_cell_length_b 11.531724
_cell_length_c 14.444125
_cell_angle_alpha 90.000000
_cell_angle_beta 90.000000
_cell_angle_gamma 90.000000
_cell_volume 4208.666407
_symmetry_space_group_name_H-M "C M C M"
_symmetry_group_IT_number 63
_symmetry_cell_setting 'orthorhombic'
loop_
_space_group_symop_operation_xyz
x,y,z
-x,-y,1/2+z
x,-y,-z
-x,y,1/2-z
-x,-y,-z
x,y,1/2-z
-x,y,z
x,-y,1/2+z
1/2+x,1/2+y,z
1/2-x,1/2-y,1/2+z
1/2+x,1/2-y,-z
1/2-x,1/2+y,1/2-z
1/2-x,1/2-y,-z
1/2+x,1/2+y,1/2-z
1/2-x,1/2+y,z
1/2+x,1/2-y,1/2+z
loop_
_atom_site_type_symbol
_atom_site_label
_atom_site_fract_x
_atom_site_fract_y
_atom_site_fract_z
Si Si1 0.649950 0.044710 0.857496
Si Si2 0.164006 0.709483 0.352857
Si Si3 0.629756 0.633762 0.478319
Si Si4 0.775598 0.747487 0.901724
Si Si5 0.439169 0.220235 0.857264
O O1 0.651451 0.020316 0.750000
O O2 0.701202 0.120271 0.882734
O O3 0.595756 0.108682 0.886085
O O4 0.652793 0.916038 0.901810
O O5 0.137929 0.723557 0.250000
O O6 0.139544 0.802215 0.423676
O O7 0.227366 0.722659 0.333641
O O8 0.624535 0.500000 0.500000
O O9 0.676769 0.658397 0.403434
O O10 0.576233 0.675272 0.426768
O O11 0.750000 0.750000 0.000000
O O12 0.428266 0.255279 0.750000
O O13 0.500000 0.187491 0.872795
#
# Coordination Sequence:
#
# PCOD8259943 Si02
#       5
#    16  16  16  16  16
#     4   9  18  34  53  78 106 137 184 232 270 327
#     4  10  21  35  54  78 113 153 184 224 279 333
#     4  10  22  36  53  83 115 145 186 234 274 332
#     4   9  19  30  49  74 106 144 182 217 265 320
#     4   9  19  38  62  83 105 141 187 236 289 336
#
# _framework density 19.008396000000001
#
# number of rings (size 3 to 8) (size 9 to 14) (size 15 to 20)
#    0.000    2.600    0.000    0.600    5.600    8.400 
#    0.000    2.000    0.000    1.800    0.000    0.000 
#    0.000    0.000    0.000    0.000    0.000    0.000 
#
# Total GULP energy -495628.863101 kJ/mol
# GULP energy per Si atom -12390.721578 kJ/mol
# Density = 1.896513 g / cm^3
# Si number density = 19.008396 Si / 1000 Ang^3
#
#
#
# Elastic Constant Matrix: (Units=GPa)
#
#
# Indices 1 2 3 4 5 6 
#
# 1 97.2312 51.3872 25.9063 0.0000 0.0000 0.0000
# 2 51.3872 171.9249 46.5630 0.0000 0.0000 0.0000
# 3 25.9063 46.5630 55.4072 0.0000 0.0000 0.0000
# 4 0.0000 0.0000 0.0000 27.0949 0.0000 0.0000
# 5 0.0000 0.0000 0.0000 0.0000 22.2476 0.0000
# 6 0.0000 0.0000 0.0000 0.0000 0.0000 13.4867
#
#
#
# Elastic Compliance Matrix: (Units=1/GPa)
#
#
# Indices 1 2 3 4 5 6 
#
# 1 0.012737 -0.002841 -0.003568 0.000000 0.000000 0.000000
# 2 -0.002841 0.008164 -0.005533 0.000000 0.000000 0.000000
# 3 -0.003568 -0.005533 0.024366 0.000000 0.000000 0.000000
# 4 0.000000 0.000000 0.000000 0.036907 0.000000 0.000000
# 5 0.000000 0.000000 0.000000 0.000000 0.044949 0.000000
# 6 0.000000 0.000000 0.000000 0.000000 0.000000 0.074147
#
#
# Mechanical properties :
#
#
# Convention : Reuss Voigt Hill
#
# Bulk Modulus (GPa) = 46.76371 63.58625 55.17498
# Shear Modulus (GPa) = 21.52573 25.94630 23.73601
#
# Velocity S-wave (km/s) = 3.36881 3.69859 3.53755
# Velocity P-wave (km/s) = 6.30769 7.19470 6.76574
#
# Compressibility (1/GPa) = 0.02138410
#
# Stress axis : x y z
#
# Youngs Moduli (GPa) = 78.51333 122.48970 41.04083
#
# Poissons Ratio (x) = 0.34794 0.14643
# Poissons Ratio (y) = 0.22302 0.22707
# Poissons Ratio (z) = 0.28014 0.67769
#
# Static dielectric constant tensor:
#      x y z
#    x 4.095230 0.000000 0.000000 
#    y 0.000000 3.434840 0.000000 
#    z 0.000000 0.000000 4.013370 
# 
# 
# High freq. dielectric constant tensor:
#      x y z
#    x 1.719860 0.000000 0.000000 
#    y 0.000000 1.728750 0.000000 
#    z 0.000000 0.000000 1.748330 
# 
# From -- ./inp_files/36442.got.cif
#   From: 2010.03.12/outbox.cif.g09.slc.cpg/sg63_19_cif.got.tgz:36442.got - 2010.04.10 19:34:48.
