data_PCOD8259320
_publ_section_title
;
Structure prediction by ZEFSAII (Michael W. Deem and Ramdas Pophale) SiO2 
 PCOD8259320
Probable space group: C M C M
;
_chemical_formula_sum "Si O2"
_cell_formula_units_Z 96
_cell_length_a 11.213428
_cell_length_b 18.232460
_cell_length_c 23.567052
_cell_angle_alpha 90.000000
_cell_angle_beta 90.000000
_cell_angle_gamma 90.000000
_cell_volume 4818.245543
_symmetry_space_group_name_H-M "C M C M"
_symmetry_group_IT_number 63
_symmetry_cell_setting 'orthorhombic'
loop_
_space_group_symop_operation_xyz
x,y,z
-x,-y,1/2+z
x,-y,-z
-x,y,1/2-z
-x,-y,-z
x,y,1/2-z
-x,y,z
x,-y,1/2+z
1/2+x,1/2+y,z
1/2-x,1/2-y,1/2+z
1/2+x,1/2-y,-z
1/2-x,1/2+y,1/2-z
1/2-x,1/2-y,-z
1/2+x,1/2+y,1/2-z
1/2-x,1/2+y,z
1/2+x,1/2-y,1/2+z
loop_
_atom_site_type_symbol
_atom_site_label
_atom_site_fract_x
_atom_site_fract_y
_atom_site_fract_z
Si Si1 0.771732 0.839893 0.110012
Si Si2 0.635910 0.815172 0.596719
Si Si3 0.862819 0.570299 0.812392
Si Si4 0.242741 0.419095 0.817829
Si Si5 0.862130 0.585107 0.988698
Si Si6 0.000000 0.112757 0.816635
Si Si7 0.000000 0.060629 0.186104
O O1 0.778573 0.755427 0.091383
O O2 0.660504 0.856187 0.151653
O O3 0.740290 0.888062 0.054580
O O4 0.887020 0.861771 0.146645
O O5 0.500000 0.787588 0.596697
O O6 0.661047 0.856051 0.655861
O O7 0.661877 0.870703 0.546126
O O8 0.810340 0.584535 0.750000
O O9 0.798917 0.499163 0.839417
O O10 0.000000 0.551160 0.810485
O O11 0.231659 0.414486 0.750000
O O12 0.378251 0.408150 0.841322
O O13 0.000000 0.597661 0.967602
O O14 0.840030 0.500000 0.000000
O O15 0.000000 0.141571 0.750000
O O16 0.000000 0.026271 0.815221
O O17 0.000000 0.088901 0.250000
#
# Coordination Sequence:
#
# PCOD8259320 Si02
#       7
#    16  16  16  16  16   8   8
#     4  12  22  40  62  89 125 165 202 253 317 382
#     4  11  24  41  60  90 125 161 208 262 318 380
#     4  10  20  35  59  89 119 156 209 260 306 372
#     4  10  20  37  61  89 124 165 211 263 315 374
#     4  10  23  44  69  91 117 159 210 269 320 369
#     4  11  22  38  64  94 129 166 205 250 311 380
#     4   9  18  36  59  85 121 163 203 250 302 362
#
# _framework density 19.924264999999998
#
# number of rings (size 3 to 8) (size 9 to 14) (size 15 to 20)
#    0.000    1.500    2.500    3.000    0.000    3.667 
#    3.000    1.250    0.000    0.000    0.000    0.000 
#    0.000    0.000    0.000    0.000    0.000    0.000 
#
# Total GULP energy -594816.649551 kJ/mol
# GULP energy per Si atom -12392.013532 kJ/mol
# Density = 1.987892 g / cm^3
# Si number density = 19.924265 Si / 1000 Ang^3
#
#
#
# Elastic Constant Matrix: (Units=GPa)
#
#
# Indices 1 2 3 4 5 6 
#
# 1 77.8653 44.2846 49.3279 0.0000 0.0000 0.0000
# 2 44.2846 128.4149 60.7196 0.0000 0.0000 0.0000
# 3 49.3279 60.7196 95.3598 0.0000 0.0000 0.0000
# 4 0.0000 0.0000 0.0000 23.6225 0.0000 0.0000
# 5 0.0000 0.0000 0.0000 0.0000 35.1649 0.0000
# 6 0.0000 0.0000 0.0000 0.0000 0.0000 28.6794
#
#
#
# Elastic Compliance Matrix: (Units=1/GPa)
#
#
# Indices 1 2 3 4 5 6 
#
# 1 0.019801 -0.002841 -0.008434 0.000000 0.000000 0.000000
# 2 -0.002841 0.011549 -0.005885 0.000000 0.000000 0.000000
# 3 -0.008434 -0.005885 0.018596 0.000000 0.000000 0.000000
# 4 0.000000 0.000000 0.000000 0.042333 0.000000 0.000000
# 5 0.000000 0.000000 0.000000 0.000000 0.028437 0.000000
# 6 0.000000 0.000000 0.000000 0.000000 0.000000 0.034868
#
#
# Mechanical properties :
#
#
# Convention : Reuss Voigt Hill
#
# Bulk Modulus (GPa) = 63.98598 67.81159 65.89878
# Shear Modulus (GPa) = 25.62615 27.31388 26.47002
#
# Velocity S-wave (km/s) = 3.59022 3.70656 3.64886
# Velocity P-wave (km/s) = 7.02642 7.24063 7.13433
#
# Compressibility (1/GPa) = 0.01562842
#
# Stress axis : x y z
#
# Youngs Moduli (GPa) = 50.50174 86.58540 53.77395
#
# Poissons Ratio (x) = 0.24595 0.45354
# Poissons Ratio (y) = 0.14345 0.31643
# Poissons Ratio (z) = 0.42594 0.50951
#
# Static dielectric constant tensor:
#      x y z
#    x 3.873340 0.000000 0.000000 
#    y 0.000000 3.513020 0.000000 
#    z 0.000000 0.000000 3.713850 
# 
# 
# High freq. dielectric constant tensor:
#      x y z
#    x 1.783860 0.000000 0.000000 
#    y 0.000000 1.765860 0.000000 
#    z 0.000000 0.000000 1.774760 
# 
# From -- ./inp_files/61510.got.cif
#   From: 2010.03.12/outbox.cif.g09.slc.cpg/sg63_31_cif.got.tgz:61510.got - 2010.04.10 19:34:48.
