data_PCOD8259823
_publ_section_title
;
Structure prediction by ZEFSAII (Michael W. Deem and Ramdas Pophale) SiO2 
 PCOD8259823
Probable space group: C M C M
;
_chemical_formula_sum "Si O2"
_cell_formula_units_Z 96
_cell_length_a 19.770149
_cell_length_b 8.919258
_cell_length_c 25.907948
_cell_angle_alpha 90.000000
_cell_angle_beta 90.000000
_cell_angle_gamma 90.000000
_cell_volume 4568.479555
_symmetry_space_group_name_H-M "C M C M"
_symmetry_group_IT_number 63
_symmetry_cell_setting 'orthorhombic'
loop_
_space_group_symop_operation_xyz
x,y,z
-x,-y,1/2+z
x,-y,-z
-x,y,1/2-z
-x,-y,-z
x,y,1/2-z
-x,y,z
x,-y,1/2+z
1/2+x,1/2+y,z
1/2-x,1/2-y,1/2+z
1/2+x,1/2-y,-z
1/2-x,1/2+y,1/2-z
1/2-x,1/2-y,-z
1/2+x,1/2+y,1/2-z
1/2-x,1/2+y,z
1/2+x,1/2-y,1/2+z
loop_
_atom_site_type_symbol
_atom_site_label
_atom_site_fract_x
_atom_site_fract_y
_atom_site_fract_z
Si Si1 0.422130 0.883688 0.545472
Si Si2 0.423762 0.712233 0.807689
Si Si3 0.694518 0.347950 0.470186
Si Si4 0.577296 0.027570 0.847555
Si Si5 0.199195 0.066240 0.856219
Si Si6 0.313122 0.249655 0.809573
O O1 0.500000 0.829707 0.550965
O O2 0.375673 0.740686 0.534737
O O3 0.397572 0.968650 0.596924
O O4 0.412836 0.000000 0.500000
O O5 0.410137 0.653072 0.750000
O O6 0.500000 0.676610 0.825631
O O7 0.411946 0.891072 0.807756
O O8 0.376321 0.627272 0.847735
O O9 0.678322 0.500000 0.500000
O O10 0.750000 0.250000 0.500000
O O11 0.723109 0.394110 0.413948
O O12 0.500000 0.081447 0.850224
O O13 0.619040 0.169480 0.828573
O O14 0.249671 0.139300 0.814903
O O15 0.200011 0.889385 0.846952
O O16 0.320643 0.298970 0.750000
#
# Coordination Sequence:
#
# PCOD8259823 Si02
#       6
#    16  16  16  16  16  16
#     4  10  23  44  70  98 130 170 220 274 331 396
#     4  10  20  39  68  97 128 169 216 266 322 388
#     4  12  27  44  69  99 134 174 223 278 336 399
#     4  10  22  42  67  96 131 172 217 269 326 392
#     4  12  26  44  65  95 133 175 218 273 333 395
#     4  12  26  42  65  95 132 175 220 270 327 396
#
# _framework density 21.013555
#
# number of rings (size 3 to 8) (size 9 to 14) (size 15 to 20)
#    0.000    1.000    1.667    4.500    7.000    2.000 
#    0.000    0.000    0.000    0.000    0.000    0.000 
#    0.000    0.000    0.000    0.000    0.000    0.000 
#
# Total GULP energy -595442.464439 kJ/mol
# GULP energy per Si atom -12405.051342 kJ/mol
# Density = 2.096573 g / cm^3
# Si number density = 21.013555 Si / 1000 Ang^3
#
#
#
# Elastic Constant Matrix: (Units=GPa)
#
#
# Indices 1 2 3 4 5 6 
#
# 1 106.0576 54.9304 39.4750 0.0000 0.0000 0.0000
# 2 54.9304 115.6535 40.5037 0.0000 0.0000 0.0000
# 3 39.4750 40.5037 128.2348 0.0000 0.0000 0.0000
# 4 0.0000 0.0000 0.0000 36.3069 0.0000 0.0000
# 5 0.0000 0.0000 0.0000 0.0000 29.5913 0.0000
# 6 0.0000 0.0000 0.0000 0.0000 0.0000 37.1654
#
#
#
# Elastic Compliance Matrix: (Units=1/GPa)
#
#
# Indices 1 2 3 4 5 6 
#
# 1 0.013093 -0.005405 -0.002323 0.000000 0.000000 0.000000
# 2 -0.005405 0.011953 -0.002112 0.000000 0.000000 0.000000
# 3 -0.002323 -0.002112 0.009180 0.000000 0.000000 0.000000
# 4 0.000000 0.000000 0.000000 0.027543 0.000000 0.000000
# 5 0.000000 0.000000 0.000000 0.000000 0.033794 0.000000
# 6 0.000000 0.000000 0.000000 0.000000 0.000000 0.026907
#
#
# Mechanical properties :
#
#
# Convention : Reuss Voigt Hill
#
# Bulk Modulus (GPa) = 68.74390 68.86267 68.80329
# Shear Modulus (GPa) = 34.01394 34.94850 34.48122
#
# Velocity S-wave (km/s) = 4.02763 4.08259 4.05520
# Velocity P-wave (km/s) = 7.37660 7.42059 7.39862
#
# Compressibility (1/GPa) = 0.01454674
#
# Stress axis : x y z
#
# Youngs Moduli (GPa) = 76.37701 83.65986 108.92829
#
# Poissons Ratio (x) = 0.45218 0.25307
# Poissons Ratio (y) = 0.41281 0.23002
# Poissons Ratio (z) = 0.17744 0.17666
#
# Static dielectric constant tensor:
#      x y z
#    x 3.865280 0.000000 0.000000 
#    y 0.000000 3.680280 0.000000 
#    z 0.000000 0.000000 3.966110 
# 
# 
# High freq. dielectric constant tensor:
#      x y z
#    x 1.831450 0.000000 0.000000 
#    y 0.000000 1.816910 0.000000 
#    z 0.000000 0.000000 1.838820 
# 
# From -- ./inp_files/70307.got.cif
#   From: 2010.03.12/outbox.cif.g09.slc.cpg/sg63_36_cif.got.tgz:70307.got - 2010.04.10 19:34:48.
