data_PCOD8259308
_publ_section_title
;
Structure prediction by ZEFSAII (Michael W. Deem and Ramdas Pophale) SiO2 
 PCOD8259308
Probable space group: C M C M
;
_chemical_formula_sum "Si O2"
_cell_formula_units_Z 80
_cell_length_a 9.016339
_cell_length_b 18.957320
_cell_length_c 24.408599
_cell_angle_alpha 90.000000
_cell_angle_beta 90.000000
_cell_angle_gamma 90.000000
_cell_volume 4172.055007
_symmetry_space_group_name_H-M "C M C M"
_symmetry_group_IT_number 63
_symmetry_cell_setting 'orthorhombic'
loop_
_space_group_symop_operation_xyz
x,y,z
-x,-y,1/2+z
x,-y,-z
-x,y,1/2-z
-x,-y,-z
x,y,1/2-z
-x,y,z
x,-y,1/2+z
1/2+x,1/2+y,z
1/2-x,1/2-y,1/2+z
1/2+x,1/2-y,-z
1/2-x,1/2+y,1/2-z
1/2-x,1/2-y,-z
1/2+x,1/2+y,1/2-z
1/2-x,1/2+y,z
1/2+x,1/2-y,1/2+z
loop_
_atom_site_type_symbol
_atom_site_label
_atom_site_fract_x
_atom_site_fract_y
_atom_site_fract_z
Si Si1 0.676062 0.764068 0.250000
Si Si2 0.175846 0.642046 0.648299
Si Si3 0.324140 0.394679 0.750000
Si Si4 0.163462 0.932565 0.536676
Si Si5 0.826040 0.316232 0.472810
Si Si6 0.175554 0.992021 0.848452
O O1 0.500000 0.760887 0.250000
O O2 0.731184 0.804394 0.304558
O O3 0.742672 0.684659 0.250000
O O4 0.229343 0.672507 0.589637
O O5 0.247067 0.566679 0.660324
O O6 0.000000 0.632577 0.649196
O O7 0.500000 0.389408 0.750000
O O8 0.268514 0.437611 0.697368
O O9 0.284161 0.882823 0.509455
O O10 0.000000 0.895853 0.542551
O O11 0.142884 0.000000 0.500000
O O12 0.226068 0.956423 0.595112
O O13 0.750000 0.250000 0.500000
O O14 0.000000 0.304767 0.474051
O O15 0.000000 0.004818 0.846585
#
# Coordination Sequence:
#
# PCOD8259308 Si02
#       6
#     8  16   8  16  16  16
#     4   9  19  36  57  81 110 145 186 230 277 328
#     4  10  21  37  59  83 110 148 187 228 276 332
#     4   9  19  34  57  85 108 141 190 236 277 326
#     4  10  20  36  58  84 115 149 184 227 280 334
#     4  11  24  38  57  85 116 150 190 232 280 337
#     4  10  20  35  59  85 111 146 187 232 278 331
#
# _framework density 19.175201999999999
#
# number of rings (size 3 to 8) (size 9 to 14) (size 15 to 20)
#    0.000    2.000    2.000    1.200    2.800    2.000 
#    0.000    0.000    0.000    1.200    0.000    0.000 
#    0.000    0.000    0.000    0.000    0.000    0.000 
#
# Total GULP energy -496007.906572 kJ/mol
# GULP energy per Si atom -12400.197664 kJ/mol
# Density = 1.913156 g / cm^3
# Si number density = 19.175202 Si / 1000 Ang^3
#
#
#
# Elastic Constant Matrix: (Units=GPa)
#
#
# Indices 1 2 3 4 5 6 
#
# 1 30.9915 38.5334 26.1184 0.0000 0.0000 0.0000
# 2 38.5334 161.9357 100.8914 0.0000 0.0000 0.0000
# 3 26.1184 100.8914 185.8843 0.0000 0.0000 0.0000
# 4 0.0000 0.0000 0.0000 36.5737 0.0000 0.0000
# 5 0.0000 0.0000 0.0000 0.0000 25.2537 0.0000
# 6 0.0000 0.0000 0.0000 0.0000 0.0000 31.3197
#
#
#
# Elastic Compliance Matrix: (Units=1/GPa)
#
#
# Indices 1 2 3 4 5 6 
#
# 1 0.045901 -0.010432 -0.000788 0.000000 0.000000 0.000000
# 2 -0.010432 0.011701 -0.004885 0.000000 0.000000 0.000000
# 3 -0.000788 -0.004885 0.008142 0.000000 0.000000 0.000000
# 4 0.000000 0.000000 0.000000 0.027342 0.000000 0.000000
# 5 0.000000 0.000000 0.000000 0.000000 0.039598 0.000000
# 6 0.000000 0.000000 0.000000 0.000000 0.000000 0.031929
#
#
# Mechanical properties :
#
#
# Convention : Reuss Voigt Hill
#
# Bulk Modulus (GPa) = 29.81950 78.87752 54.34851
# Shear Modulus (GPa) = 24.03840 32.84730 28.44285
#
# Velocity S-wave (km/s) = 3.54449 4.14334 3.85556
# Velocity P-wave (km/s) = 5.68648 8.00713 6.94443
#
# Compressibility (1/GPa) = 0.03353510
#
# Stress axis : x y z
#
# Youngs Moduli (GPa) = 21.78603 85.46087 122.82136
#
# Poissons Ratio (x) = 0.89150 0.09673
# Poissons Ratio (y) = 0.22727 0.60002
# Poissons Ratio (z) = 0.01716 0.41750
#
# Static dielectric constant tensor:
#      x y z
#    x 3.548830 0.000000 0.000000 
#    y 0.000000 3.529730 0.000000 
#    z 0.000000 0.000000 3.793410 
# 
# 
# High freq. dielectric constant tensor:
#      x y z
#    x 1.715840 0.000000 0.000000 
#    y 0.000000 1.753420 0.000000 
#    z 0.000000 0.000000 1.766250 
# 
# From -- ./inp_files/66659.got.cif
#   From: 2010.03.12/outbox.cif.g09.slc.cpg/sg63_34_cif.got.tgz:66659.got - 2010.04.10 19:34:48.
