data_PCOD8259568
_publ_section_title
;
Structure prediction by ZEFSAII (Michael W. Deem and Ramdas Pophale) SiO2 
 PCOD8259568
Probable space group: C M C M
;
_chemical_formula_sum "Si O2"
_cell_formula_units_Z 64
_cell_length_a 13.863511
_cell_length_b 12.023613
_cell_length_c 15.526419
_cell_angle_alpha 90.000000
_cell_angle_beta 90.000000
_cell_angle_gamma 90.000000
_cell_volume 2588.090881
_symmetry_space_group_name_H-M "C M C M"
_symmetry_group_IT_number 63
_symmetry_cell_setting 'orthorhombic'
loop_
_space_group_symop_operation_xyz
x,y,z
-x,-y,1/2+z
x,-y,-z
-x,y,1/2-z
-x,-y,-z
x,y,1/2-z
-x,y,z
x,-y,1/2+z
1/2+x,1/2+y,z
1/2-x,1/2-y,1/2+z
1/2+x,1/2-y,-z
1/2-x,1/2+y,1/2-z
1/2-x,1/2-y,-z
1/2+x,1/2+y,1/2-z
1/2-x,1/2+y,z
1/2+x,1/2-y,1/2+z
loop_
_atom_site_type_symbol
_atom_site_label
_atom_site_fract_x
_atom_site_fract_y
_atom_site_fract_z
Si Si1 0.608322 0.411670 0.423608
Si Si2 0.248228 0.062623 0.155305
Si Si3 0.389241 0.228999 0.844352
Si Si4 0.889128 0.661063 0.024131
O O1 0.617406 0.500000 0.500000
O O2 0.500000 0.412067 0.384888
O O3 0.687974 0.447471 0.353287
O O4 0.636269 0.288673 0.454402
O O5 0.297180 0.064204 0.250000
O O6 0.171917 0.160793 0.146868
O O7 0.328629 0.075797 0.081530
O O8 0.373848 0.171861 0.750000
O O9 0.500000 0.267431 0.856697
O O10 0.363972 0.143345 0.922105
O O11 0.000000 0.632973 0.043156
#
# Coordination Sequence:
#
# PCOD8259568 Si02
#       4
#    16  16  16  16
#     4  10  20  36  61  91 120 153 199 256 310 360
#     4  11  22  35  57  88 124 165 204 249 303 360
#     4   9  17  31  54  86 119 152 196 250 306 361
#     4  10  21  38  62  89 122 164 205 249 303 364
#
# _framework density 24.728650999999999
#
# number of rings (size 3 to 8) (size 9 to 14) (size 15 to 20)
#    0.000    2.000    2.500    1.500    0.000    3.000 
#    0.000    2.500    0.000    5.250    0.000    7.000 
#    0.000    0.000    0.000    0.000    0.000    0.500 
#
# Total GULP energy -396708.295489 kJ/mol
# GULP energy per Si atom -12397.134234 kJ/mol
# Density = 2.467237 g / cm^3
# Si number density = 24.728651 Si / 1000 Ang^3
#
#
#
# Elastic Constant Matrix: (Units=GPa)
#
#
# Indices 1 2 3 4 5 6 
#
# 1 96.1007 30.6497 78.6550 0.0000 0.0000 0.0000
# 2 30.6497 87.1848 24.0143 0.0000 0.0000 0.0000
# 3 78.6550 24.0143 207.1363 0.0000 0.0000 0.0000
# 4 0.0000 0.0000 0.0000 7.2204 0.0000 0.0000
# 5 0.0000 0.0000 0.0000 0.0000 34.7605 0.0000
# 6 0.0000 0.0000 0.0000 0.0000 0.0000 29.8862
#
#
#
# Elastic Compliance Matrix: (Units=1/GPa)
#
#
# Indices 1 2 3 4 5 6 
#
# 1 0.016463 -0.004200 -0.005765 0.000000 0.000000 0.000000
# 2 -0.004200 0.012920 0.000097 0.000000 0.000000 0.000000
# 3 -0.005765 0.000097 0.007005 0.000000 0.000000 0.000000
# 4 0.000000 0.000000 0.000000 0.138497 0.000000 0.000000
# 5 0.000000 0.000000 0.000000 0.000000 0.028768 0.000000
# 6 0.000000 0.000000 0.000000 0.000000 0.000000 0.033460
#
#
# Mechanical properties :
#
#
# Convention : Reuss Voigt Hill
#
# Bulk Modulus (GPa) = 60.04780 73.00663 66.52722
# Shear Modulus (GPa) = 19.05484 31.51362 25.28423
#
# Velocity S-wave (km/s) = 2.77890 3.57371 3.20107
# Velocity P-wave (km/s) = 5.88488 6.82757 6.37368
#
# Compressibility (1/GPa) = 0.01665340
#
# Stress axis : x y z
#
# Youngs Moduli (GPa) = 60.74088 77.40157 142.74527
#
# Poissons Ratio (x) = 0.32507 0.82288
# Poissons Ratio (y) = 0.25510 -0.01384
# Poissons Ratio (z) = 0.35015 -0.00750
#
# Static dielectric constant tensor:
#      x y z
#    x 4.554380 0.000000 0.000000 
#    y 0.000000 4.120400 0.000000 
#    z 0.000000 0.000000 4.874580 
# 
# 
# High freq. dielectric constant tensor:
#      x y z
#    x 1.994300 0.000000 0.000000 
#    y 0.000000 1.969600 0.000000 
#    z 0.000000 0.000000 1.980080 
# 
# From -- ./inp_files/31108.got.cif
#   From: 2010.03.12/outbox.cif.g09.slc.cpg/sg63_16_cif.got.tgz:31108.got - 2010.04.10 19:34:48.
