data_PCOD8259925
_publ_section_title
;
Structure prediction by ZEFSAII (Michael W. Deem and Ramdas Pophale) SiO2 
 PCOD8259925
Probable space group: C M C M
;
_chemical_formula_sum "Si O2"
_cell_formula_units_Z 80
_cell_length_a 26.224745
_cell_length_b 11.534476
_cell_length_c 13.793375
_cell_angle_alpha 90.000000
_cell_angle_beta 90.000000
_cell_angle_gamma 90.000000
_cell_volume 4172.339959
_symmetry_space_group_name_H-M "C M C M"
_symmetry_group_IT_number 63
_symmetry_cell_setting 'orthorhombic'
loop_
_space_group_symop_operation_xyz
x,y,z
-x,-y,1/2+z
x,-y,-z
-x,y,1/2-z
-x,-y,-z
x,y,1/2-z
-x,y,z
x,-y,1/2+z
1/2+x,1/2+y,z
1/2-x,1/2-y,1/2+z
1/2+x,1/2-y,-z
1/2-x,1/2+y,1/2-z
1/2-x,1/2-y,-z
1/2+x,1/2+y,1/2-z
1/2-x,1/2+y,z
1/2+x,1/2-y,1/2+z
loop_
_atom_site_type_symbol
_atom_site_label
_atom_site_fract_x
_atom_site_fract_y
_atom_site_fract_z
Si Si1 0.308827 0.952404 0.361054
Si Si2 0.844753 0.679847 0.039473
Si Si3 0.305671 0.598972 0.639536
Si Si4 0.057348 0.188052 0.977621
Si Si5 0.091558 0.977925 0.638783
O O1 0.321627 0.921124 0.250000
O O2 0.331705 0.851679 0.428492
O O3 0.248306 0.961778 0.379231
O O4 0.333085 0.075260 0.387871
O O5 0.811772 0.791513 0.069022
O O6 0.905041 0.706544 0.048857
O O7 0.310734 0.643893 0.750000
O O8 0.348633 0.502343 0.618450
O O9 0.000000 0.236825 0.984604
O O10 0.059313 0.089351 0.895197
O O11 0.074998 0.135233 0.080232
O O12 0.079494 0.953264 0.750000
#
# Coordination Sequence:
#
# PCOD8259925 Si02
#       5
#    16  16  16  16  16
#     4  10  21  36  54  78 106 138 175 213 254 306
#     4  10  21  36  54  75 104 139 174 215 258 307
#     4   9  18  33  55  82 110 137 165 202 255 317
#     4  10  21  35  52  76 104 137 176 216 260 305
#     4   9  18  33  54  82 110 132 162 209 262 317
#
# _framework density 19.173891999999999
#
# number of rings (size 3 to 8) (size 9 to 14) (size 15 to 20)
#    0.000    2.400    0.000    2.400    0.000   11.200 
#    0.000    6.000    0.000    1.200    0.000    0.000 
#    0.000    0.000    0.000    0.000    0.000    0.000 
#
# Total GULP energy -496072.274231 kJ/mol
# GULP energy per Si atom -12401.806856 kJ/mol
# Density = 1.913025 g / cm^3
# Si number density = 19.173892 Si / 1000 Ang^3
#
#
#
# Elastic Constant Matrix: (Units=GPa)
#
#
# Indices 1 2 3 4 5 6 
#
# 1 144.8599 61.2794 38.3795 0.0000 0.0000 0.0000
# 2 61.2794 71.7288 35.7426 0.0000 0.0000 0.0000
# 3 38.3795 35.7426 93.7583 0.0000 0.0000 0.0000
# 4 0.0000 0.0000 0.0000 23.0082 0.0000 0.0000
# 5 0.0000 0.0000 0.0000 0.0000 20.4736 0.0000
# 6 0.0000 0.0000 0.0000 0.0000 0.0000 19.4697
#
#
#
# Elastic Compliance Matrix: (Units=1/GPa)
#
#
# Indices 1 2 3 4 5 6 
#
# 1 0.010905 -0.008755 -0.001126 0.000000 0.000000 0.000000
# 2 -0.008755 0.024240 -0.005657 0.000000 0.000000 0.000000
# 3 -0.001126 -0.005657 0.013283 0.000000 0.000000 0.000000
# 4 0.000000 0.000000 0.000000 0.043463 0.000000 0.000000
# 5 0.000000 0.000000 0.000000 0.000000 0.048843 0.000000
# 6 0.000000 0.000000 0.000000 0.000000 0.000000 0.051362
#
#
# Mechanical properties :
#
#
# Convention : Reuss Voigt Hill
#
# Bulk Modulus (GPa) = 57.63151 64.57223 61.10187
# Shear Modulus (GPa) = 21.83808 24.25335 23.04571
#
# Velocity S-wave (km/s) = 3.37849 3.56042 3.47065
# Velocity P-wave (km/s) = 6.73361 7.11705 6.92798
#
# Compressibility (1/GPa) = 0.01735162
#
# Stress axis : x y z
#
# Youngs Moduli (GPa) = 91.69747 41.25377 75.28269
#
# Poissons Ratio (x) = 0.36120 0.08479
# Poissons Ratio (y) = 0.80286 0.42586
# Poissons Ratio (z) = 0.10328 0.23337
#
# Static dielectric constant tensor:
#      x y z
#    x 3.566190 0.000000 0.000000 
#    y 0.000000 3.191370 0.000000 
#    z 0.000000 0.000000 3.654460 
# 
# 
# High freq. dielectric constant tensor:
#      x y z
#    x 1.743200 0.000000 0.000000 
#    y 0.000000 1.717400 0.000000 
#    z 0.000000 0.000000 1.758630 
# 
# From -- ./inp_files/36428.got.cif
#   From: 2010.03.12/outbox.cif.g09.slc.cpg/sg63_19_cif.got.tgz:36428.got - 2010.04.10 19:34:48.
