data_PCOD8259030
_publ_section_title
;
Structure prediction by ZEFSAII (Michael W. Deem and Ramdas Pophale) SiO2 
 PCOD8259030
Probable space group: C M C M
;
_chemical_formula_sum "Si O2"
_cell_formula_units_Z 96
_cell_length_a 8.816069
_cell_length_b 20.184100
_cell_length_c 27.920853
_cell_angle_alpha 90.000000
_cell_angle_beta 90.000000
_cell_angle_gamma 90.000000
_cell_volume 4968.359946
_symmetry_space_group_name_H-M "C M C M"
_symmetry_group_IT_number 63
_symmetry_cell_setting 'orthorhombic'
loop_
_space_group_symop_operation_xyz
x,y,z
-x,-y,1/2+z
x,-y,-z
-x,y,1/2-z
-x,-y,-z
x,y,1/2-z
-x,y,z
x,-y,1/2+z
1/2+x,1/2+y,z
1/2-x,1/2-y,1/2+z
1/2+x,1/2-y,-z
1/2-x,1/2+y,1/2-z
1/2-x,1/2-y,-z
1/2+x,1/2+y,1/2-z
1/2-x,1/2+y,z
1/2+x,1/2-y,1/2+z
loop_
_atom_site_type_symbol
_atom_site_label
_atom_site_fract_x
_atom_site_fract_y
_atom_site_fract_z
Si Si1 0.677044 0.992291 0.054888
Si Si2 0.326662 0.316490 0.696780
Si Si3 0.676581 0.144001 0.895324
Si Si4 0.676287 0.385390 0.601115
Si Si5 0.676847 0.677769 0.803964
Si Si6 0.178674 0.263372 0.550890
O O1 0.500000 0.008283 0.060752
O O2 0.770966 0.040848 0.088906
O O3 0.716300 0.918266 0.071553
O O4 0.729293 0.000000 0.000000
O O5 0.298738 0.346445 0.750000
O O6 0.500000 0.291528 0.691467
O O7 0.290728 0.372701 0.657457
O O8 0.218020 0.254463 0.687667
O O9 0.500000 0.160856 0.897527
O O10 0.729015 0.131227 0.840510
O O11 0.769686 0.207486 0.912301
O O12 0.500000 0.376891 0.589055
O O13 0.770019 0.335089 0.568549
O O14 0.719758 0.656045 0.750000
O O15 0.500000 0.668517 0.813930
O O16 0.250000 0.250000 0.500000
O O17 0.000000 0.263100 0.545661
#
# Coordination Sequence:
#
# PCOD8259030 Si02
#       6
#    16  16  16  16  16  16
#     4  10  23  42  61  81 113 158 201 244 297 355
#     4   9  18  34  57  85 118 154 191 235 289 351
#     4  11  22  38  60  87 118 155 199 244 299 355
#     4  11  22  37  60  89 119 153 196 240 293 355
#     4  10  20  34  56  87 119 154 196 243 295 349
#     4  12  24  38  59  86 118 151 193 248 297 349
#
# _framework density 19.322272999999999
#
# number of rings (size 3 to 8) (size 9 to 14) (size 15 to 20)
#    0.000    1.500    1.667    4.000    0.000    4.667 
#    0.000    0.833    0.000    3.000    0.000    0.000 
#    0.000    0.000    0.000    0.000    0.000    0.000 
#
# Total GULP energy -595370.785750 kJ/mol
# GULP energy per Si atom -12403.558036 kJ/mol
# Density = 1.927829 g / cm^3
# Si number density = 19.322273 Si / 1000 Ang^3
#
#
#
# Elastic Constant Matrix: (Units=GPa)
#
#
# Indices 1 2 3 4 5 6 
#
# 1 94.9827 27.0867 34.8941 0.0000 0.0000 0.0000
# 2 27.0867 54.2761 23.2449 0.0000 0.0000 0.0000
# 3 34.8941 23.2449 120.1160 0.0000 0.0000 0.0000
# 4 0.0000 0.0000 0.0000 35.1683 0.0000 0.0000
# 5 0.0000 0.0000 0.0000 0.0000 32.7881 0.0000
# 6 0.0000 0.0000 0.0000 0.0000 0.0000 32.1518
#
#
#
# Elastic Compliance Matrix: (Units=1/GPa)
#
#
# Indices 1 2 3 4 5 6 
#
# 1 0.013065 -0.005337 -0.002763 0.000000 0.000000 0.000000
# 2 -0.005337 0.022269 -0.002759 0.000000 0.000000 0.000000
# 3 -0.002763 -0.002759 0.009662 0.000000 0.000000 0.000000
# 4 0.000000 0.000000 0.000000 0.028435 0.000000 0.000000
# 5 0.000000 0.000000 0.000000 0.000000 0.030499 0.000000
# 6 0.000000 0.000000 0.000000 0.000000 0.000000 0.031102
#
#
# Mechanical properties :
#
#
# Convention : Reuss Voigt Hill
#
# Bulk Modulus (GPa) = 42.95774 48.86959 45.91366
# Shear Modulus (GPa) = 30.39337 32.29827 31.34582
#
# Velocity S-wave (km/s) = 3.97037 4.09290 4.03210
# Velocity P-wave (km/s) = 6.58020 6.90526 6.74468
#
# Compressibility (1/GPa) = 0.02327869
#
# Stress axis : x y z
#
# Youngs Moduli (GPa) = 76.53957 44.90456 103.50043
#
# Poissons Ratio (x) = 0.23966 0.28593
# Poissons Ratio (y) = 0.40849 0.28557
# Poissons Ratio (z) = 0.21145 0.12390
#
# Static dielectric constant tensor:
#      x y z
#    x 3.570760 0.000000 0.000000 
#    y 0.000000 3.237440 0.000000 
#    z 0.000000 0.000000 4.074160 
# 
# 
# High freq. dielectric constant tensor:
#      x y z
#    x 1.759230 0.000000 0.000000 
#    y 0.000000 1.724950 0.000000 
#    z 0.000000 0.000000 1.773550 
# 
# From -- ./inp_files/66984.got.cif
#   From: 2010.03.12/outbox.cif.g09.slc.cpg/sg63_34_cif.got.tgz:66984.got - 2010.04.10 19:34:48.
