data_PCOD8259659
_publ_section_title
;
Structure prediction by ZEFSAII (Michael W. Deem and Ramdas Pophale) SiO2 
 PCOD8259659
Probable space group: C M C M
;
_chemical_formula_sum "Si O2"
_cell_formula_units_Z 96
_cell_length_a 11.189740
_cell_length_b 26.512035
_cell_length_c 15.736339
_cell_angle_alpha 90.000000
_cell_angle_beta 90.000000
_cell_angle_gamma 90.000000
_cell_volume 4668.386051
_symmetry_space_group_name_H-M "C M C M"
_symmetry_group_IT_number 63
_symmetry_cell_setting 'orthorhombic'
loop_
_space_group_symop_operation_xyz
x,y,z
-x,-y,1/2+z
x,-y,-z
-x,y,1/2-z
-x,-y,-z
x,y,1/2-z
-x,y,z
x,-y,1/2+z
1/2+x,1/2+y,z
1/2-x,1/2-y,1/2+z
1/2+x,1/2-y,-z
1/2-x,1/2+y,1/2-z
1/2-x,1/2-y,-z
1/2+x,1/2+y,1/2-z
1/2-x,1/2+y,z
1/2+x,1/2-y,1/2+z
loop_
_atom_site_type_symbol
_atom_site_label
_atom_site_fract_x
_atom_site_fract_y
_atom_site_fract_z
Si Si1 0.141563 0.759258 0.750000
Si Si2 0.000000 0.181707 0.649191
Si Si3 0.738153 0.482718 0.096735
Si Si4 0.000000 0.933019 0.150320
Si Si5 0.140541 0.337299 0.750000
Si Si6 0.368812 0.111132 0.937178
Si Si7 0.252160 0.285080 0.084107
Si Si8 0.130527 0.576521 0.126597
O O1 0.251678 0.798130 0.750000
O O2 0.161933 0.729612 0.838866
O O3 0.000000 0.777796 0.750000
O O4 0.000000 0.124177 0.612387
O O5 0.887326 0.213891 0.617386
O O6 0.000000 0.180339 0.750000
O O7 0.606025 0.467356 0.118465
O O8 0.817524 0.433579 0.121746
O O9 0.780412 0.530970 0.152013
O O10 0.747455 0.500000 0.000000
O O11 0.000000 0.927418 0.250000
O O12 0.167736 0.370751 0.832266
O O13 0.000000 0.316663 0.750000
O O14 0.500000 0.127547 0.904894
O O15 0.282273 0.158654 0.941965
O O16 0.374793 0.085339 0.027653
O O17 0.250000 0.250000 0.000000
O O18 0.000000 0.560652 0.160717
#
# Coordination Sequence:
#
# PCOD8259659 Si02
#       8
#     8   8  16   8   8  16  16  16
#     4  12  28  48  67 100 137 167 216 287 347 392
#     4  11  24  47  69  94 132 181 226 282 332 409
#     4  10  20  37  60  88 122 163 204 257 315 377
#     4  11  23  39  59  89 130 166 214 259 318 386
#     4  10  22  42  65  90 129 169 210 255 321 400
#     4  10  20  38  61  90 120 157 210 265 321 379
#     4  12  26  44  70  97 130 175 225 278 338 403
#     4   9  19  37  62  91 123 164 210 256 313 387
#
# _framework density 20.563853000000002
#
# number of rings (size 3 to 8) (size 9 to 14) (size 15 to 20)
#    0.000    1.500    2.500    2.250    4.667    2.000 
#    1.500    0.000    0.000    0.000    0.000    0.000 
#    0.000    0.000    0.000    0.000    0.000    0.000 
#
# Total GULP energy -594631.870512 kJ/mol
# GULP energy per Si atom -12388.163969 kJ/mol
# Density = 2.051705 g / cm^3
# Si number density = 20.563853 Si / 1000 Ang^3
#
#
#
# Elastic Constant Matrix: (Units=GPa)
#
#
# Indices 1 2 3 4 5 6 
#
# 1 154.9034 59.7833 27.6469 0.0000 0.0000 0.0000
# 2 59.7833 104.6362 28.0263 0.0000 0.0000 0.0000
# 3 27.6469 28.0263 64.1738 0.0000 0.0000 0.0000
# 4 0.0000 0.0000 0.0000 14.0267 0.0000 0.0000
# 5 0.0000 0.0000 0.0000 0.0000 18.6933 0.0000
# 6 0.0000 0.0000 0.0000 0.0000 0.0000 45.1771
#
#
#
# Elastic Compliance Matrix: (Units=1/GPa)
#
#
# Indices 1 2 3 4 5 6 
#
# 1 0.008449 -0.004363 -0.001735 0.000000 0.000000 0.000000
# 2 -0.004363 0.013076 -0.003831 0.000000 0.000000 0.000000
# 3 -0.001735 -0.003831 0.018003 0.000000 0.000000 0.000000
# 4 0.000000 0.000000 0.000000 0.071293 0.000000 0.000000
# 5 0.000000 0.000000 0.000000 0.000000 0.053495 0.000000
# 6 0.000000 0.000000 0.000000 0.000000 0.000000 0.022135
#
#
# Mechanical properties :
#
#
# Convention : Reuss Voigt Hill
#
# Bulk Modulus (GPa) = 50.83593 61.62516 56.23054
# Shear Modulus (GPa) = 23.48916 29.46321 26.47618
#
# Velocity S-wave (km/s) = 3.38339 3.78930 3.59208
# Velocity P-wave (km/s) = 6.32754 7.01269 6.67891
#
# Compressibility (1/GPa) = 0.01967113
#
# Stress axis : x y z
#
# Youngs Moduli (GPa) = 118.35799 76.47841 55.54610
#
# Poissons Ratio (x) = 0.33365 0.09635
# Poissons Ratio (y) = 0.51635 0.21279
# Poissons Ratio (z) = 0.20531 0.29299
#
# Static dielectric constant tensor:
#      x y z
#    x 4.127840 0.000000 0.000000 
#    y 0.000000 3.912010 0.000000 
#    z 0.000000 0.000000 3.975230 
# 
# 
# High freq. dielectric constant tensor:
#      x y z
#    x 1.811400 0.000000 0.000000 
#    y 0.000000 1.814600 0.000000 
#    z 0.000000 0.000000 1.795950 
# 
# From -- ./inp_files/42597.got.cif
#   From: 2010.03.12/outbox.cif.g09.slc.cpg/sg63_22_cif.got.tgz:42597.got - 2010.04.10 19:34:48.
