data_PCOD8259011
_publ_section_title
;
Structure prediction by ZEFSAII (Michael W. Deem and Ramdas Pophale) SiO2 
 PCOD8259011
Probable space group: C M C M
;
_chemical_formula_sum "Si O2"
_cell_formula_units_Z 88
_cell_length_a 12.932240
_cell_length_b 31.283313
_cell_length_c 11.071569
_cell_angle_alpha 90.000000
_cell_angle_beta 90.000000
_cell_angle_gamma 90.000000
_cell_volume 4479.150620
_symmetry_space_group_name_H-M "C M C M"
_symmetry_group_IT_number 63
_symmetry_cell_setting 'orthorhombic'
loop_
_space_group_symop_operation_xyz
x,y,z
-x,-y,1/2+z
x,-y,-z
-x,y,1/2-z
-x,-y,-z
x,y,1/2-z
-x,y,z
x,-y,1/2+z
1/2+x,1/2+y,z
1/2-x,1/2-y,1/2+z
1/2+x,1/2-y,-z
1/2-x,1/2+y,1/2-z
1/2-x,1/2-y,-z
1/2+x,1/2+y,1/2-z
1/2-x,1/2+y,z
1/2+x,1/2-y,1/2+z
loop_
_atom_site_type_symbol
_atom_site_label
_atom_site_fract_x
_atom_site_fract_y
_atom_site_fract_z
Si Si1 0.616596 0.771221 0.491918
Si Si2 0.877590 0.410286 0.250000
Si Si3 0.118626 0.449641 0.003139
Si Si4 0.198502 0.190324 0.390078
Si Si5 0.805380 0.094573 0.110998
Si Si6 0.122917 0.684481 0.750000
Si Si7 0.000000 0.037237 0.397711
O O1 0.500000 0.784729 0.520365
O O2 0.685227 0.790484 0.599696
O O3 0.624649 0.720000 0.473402
O O4 0.661973 0.791504 0.368628
O O5 0.838799 0.435455 0.366792
O O6 0.829874 0.363073 0.250000
O O7 0.000000 0.408780 0.250000
O O8 0.000000 0.434983 0.977952
O O9 0.127576 0.500000 0.000000
O O10 0.194390 0.427932 0.907386
O O11 0.164014 0.192141 0.250000
O O12 0.191867 0.142324 0.445715
O O13 0.819564 0.102818 0.250000
O O14 0.899216 0.064850 0.067026
O O15 0.000000 0.683227 0.750000
O O16 0.000000 0.024410 0.250000
O O17 0.000000 0.000000 0.500000
#
# Coordination Sequence:
#
# PCOD8259011 Si02
#       7
#    16   8  16  16  16   8   8
#     4  10  20  34  56  81 112 150 187 235 281 349
#     4   9  18  32  52  78 111 151 187 227 274 345
#     4  10  21  36  56  84 117 151 187 234 294 355
#     4  10  21  36  55  85 115 147 192 234 292 341
#     4  10  22  38  60  88 116 152 193 246 293 356
#     4   9  16  30  52  77 100 138 190 225 271 321
#     4  10  22  44  68  90 120 162 212 264 306 360
#
# _framework density 19.646581000000001
#
# number of rings (size 3 to 8) (size 9 to 14) (size 15 to 20)
#    0.000    2.182    0.909    1.636    2.545    2.909 
#    1.636    1.818    0.000    0.000    0.000    0.000 
#    0.000    0.000    0.000    0.000    0.000    0.000 
#
# Total GULP energy -545297.125211 kJ/mol
# GULP energy per Si atom -12393.116482 kJ/mol
# Density = 1.960186 g / cm^3
# Si number density = 19.646581 Si / 1000 Ang^3
#
#
#
# Elastic Constant Matrix: (Units=GPa)
#
#
# Indices 1 2 3 4 5 6 
#
# 1 86.6050 40.3538 17.9954 0.0000 0.0000 0.0000
# 2 40.3538 143.0369 29.8549 0.0000 0.0000 0.0000
# 3 17.9954 29.8549 37.1914 0.0000 0.0000 0.0000
# 4 0.0000 0.0000 0.0000 27.6988 0.0000 0.0000
# 5 0.0000 0.0000 0.0000 0.0000 23.4606 0.0000
# 6 0.0000 0.0000 0.0000 0.0000 0.0000 -19.0967
#
#
#
# Elastic Compliance Matrix: (Units=1/GPa)
#
#
# Indices 1 2 3 4 5 6 
#
# 1 0.013839 -0.003011 -0.004279 0.000000 0.000000 0.000000
# 2 -0.003011 0.009054 -0.005811 0.000000 0.000000 0.000000
# 3 -0.004279 -0.005811 0.033623 0.000000 0.000000 0.000000
# 4 0.000000 0.000000 0.000000 0.036103 0.000000 0.000000
# 5 0.000000 0.000000 0.000000 0.000000 0.042625 0.000000
# 6 0.000000 0.000000 0.000000 0.000000 0.000000 -0.052365
#
#
# Mechanical properties :
#
#
# Convention : Reuss Voigt Hill
#
# Bulk Modulus (GPa) = 32.98832 49.24905 41.11868
# Shear Modulus (GPa) = 41.95220 18.32114 30.13667
#
# Velocity S-wave (km/s) = 4.62599 3.05706 3.92080
# Velocity P-wave (km/s) = 6.73501 6.13047 6.43984
#
# Compressibility (1/GPa) = 0.03031376
#
# Stress axis : x y z
#
# Youngs Moduli (GPa) = 72.26055 110.45435 29.74178
#
# Poissons Ratio (x) = 0.33259 0.12726
# Poissons Ratio (y) = 0.21759 0.17282
# Poissons Ratio (z) = 0.30920 0.64181
#
# Static dielectric constant tensor:
#      x y z
#    x 3.469500 0.000000 0.000000 
#    y 0.000000 3.909810 0.000000 
#    z 0.000000 0.000000 3.531880 
# 
# 
# High freq. dielectric constant tensor:
#      x y z
#    x 1.749710 0.000000 0.000000 
#    y 0.000000 1.782230 0.000000 
#    z 0.000000 0.000000 1.747900 
# 
# From -- ./inp_files/19816.got.cif
#   From: 2010.03.12/outbox.cif.g09.slc.cpg/sg63_10_cif.got.tgz:19816.got - 2010.04.10 19:34:48.
