data_PCOD8259510
_publ_section_title
;
Structure prediction by ZEFSAII (Michael W. Deem and Ramdas Pophale) SiO2 
 PCOD8259510
Probable space group: C M C M
;
_chemical_formula_sum "Si O2"
_cell_formula_units_Z 64
_cell_length_a 20.688601
_cell_length_b 18.191699
_cell_length_c 8.854302
_cell_angle_alpha 90.000000
_cell_angle_beta 90.000000
_cell_angle_gamma 90.000000
_cell_volume 3332.412203
_symmetry_space_group_name_H-M "C M C M"
_symmetry_group_IT_number 63
_symmetry_cell_setting 'orthorhombic'
loop_
_space_group_symop_operation_xyz
x,y,z
-x,-y,1/2+z
x,-y,-z
-x,y,1/2-z
-x,-y,-z
x,y,1/2-z
-x,y,z
x,-y,1/2+z
1/2+x,1/2+y,z
1/2-x,1/2-y,1/2+z
1/2+x,1/2-y,-z
1/2-x,1/2+y,1/2-z
1/2-x,1/2-y,-z
1/2+x,1/2+y,1/2-z
1/2-x,1/2+y,z
1/2+x,1/2-y,1/2+z
loop_
_atom_site_type_symbol
_atom_site_label
_atom_site_fract_x
_atom_site_fract_y
_atom_site_fract_z
Si Si1 0.500000 0.079150 0.074025
Si Si2 0.887550 0.334959 0.078606
Si Si3 0.500000 0.579440 0.571591
Si Si4 0.244937 0.171404 0.574102
Si Si5 0.617905 0.661384 0.074413
O O1 0.500000 0.066558 0.250000
O O2 0.436084 0.124144 0.031673
O O3 0.500000 0.000000 0.000000
O O4 0.910108 0.349398 0.250000
O O5 0.814962 0.367452 0.053176
O O6 0.888197 0.248210 0.045507
O O7 0.500000 0.500000 0.500000
O O8 0.500000 0.572291 0.750000
O O9 0.437316 0.622708 0.519301
O O10 0.227907 0.179561 0.750000
O O11 0.250000 0.250000 0.500000
O O12 0.186537 0.129866 0.488263
O O13 0.611792 0.641376 0.250000
#
# Coordination Sequence:
#
# PCOD8259510 Si02
#       5
#     8  16   8  16  16
#     4  12  25  38  55  77 107 145 185 228 273 324
#     4   9  19  36  58  83 113 144 178 222 271 322
#     4  12  25  40  57  79 111 149 189 232 275 328
#     4   9  17  31  54  84 114 144 179 225 275 324
#     4  10  20  36  59  86 115 146 180 225 276 328
#
# _framework density 19.205307000000001
#
# number of rings (size 3 to 8) (size 9 to 14) (size 15 to 20)
#    0.000    2.000    0.000    6.000    0.000    9.000 
#    0.000    1.250    0.000    6.000    0.000    0.000 
#    0.000    0.000    0.000    0.000    0.000    0.000 
#
# Total GULP energy -396703.178824 kJ/mol
# GULP energy per Si atom -12396.974338 kJ/mol
# Density = 1.916160 g / cm^3
# Si number density = 19.205307 Si / 1000 Ang^3
#
#
#
# Elastic Constant Matrix: (Units=GPa)
#
#
# Indices 1 2 3 4 5 6 
#
# 1 166.0110 47.6803 79.5894 0.0000 0.0000 0.0000
# 2 47.6803 55.1545 48.4243 0.0000 0.0000 0.0000
# 3 79.5894 48.4243 162.1044 0.0000 0.0000 0.0000
# 4 0.0000 0.0000 0.0000 29.4077 0.0000 0.0000
# 5 0.0000 0.0000 0.0000 0.0000 40.8491 0.0000
# 6 0.0000 0.0000 0.0000 0.0000 0.0000 -18.0917
#
#
#
# Elastic Compliance Matrix: (Units=1/GPa)
#
#
# Indices 1 2 3 4 5 6 
#
# 1 0.008858 -0.005204 -0.002795 0.000000 0.000000 0.000000
# 2 -0.005204 0.027634 -0.005700 0.000000 0.000000 0.000000
# 3 -0.002795 -0.005700 0.009244 0.000000 0.000000 0.000000
# 4 0.000000 0.000000 0.000000 0.034005 0.000000 0.000000
# 5 0.000000 0.000000 0.000000 0.000000 0.024480 0.000000
# 6 0.000000 0.000000 0.000000 0.000000 0.000000 -0.055274
#
#
# Mechanical properties :
#
#
# Convention : Reuss Voigt Hill
#
# Bulk Modulus (GPa) = 54.52930 81.62867 68.07898
# Shear Modulus (GPa) = 60.63754 24.27140 42.45447
#
# Velocity S-wave (km/s) = 5.62511 3.55883 4.70676
# Velocity P-wave (km/s) = 8.40498 7.71249 8.06617
#
# Compressibility (1/GPa) = 0.01833876
#
# Stress axis : x y z
#
# Youngs Moduli (GPa) = 112.89003 36.18710 108.18322
#
# Poissons Ratio (x) = 0.18833 0.30232
# Poissons Ratio (y) = 0.58751 0.61662
# Poissons Ratio (z) = 0.31547 0.20626
#
# Static dielectric constant tensor:
#      x y z
#    x 4.262140 0.000000 0.000000 
#    y 0.000000 3.205650 0.000000 
#    z 0.000000 0.000000 3.950310 
# 
# 
# High freq. dielectric constant tensor:
#      x y z
#    x 1.774070 0.000000 0.000000 
#    y 0.000000 1.705590 0.000000 
#    z 0.000000 0.000000 1.760870 
# 
# From -- ./inp_files/7507.got.cif
#   From: 2010.03.12/outbox.cif.g09.slc.cpg/sg63_4_cif.got.tgz:7507.got - 2010.04.10 19:34:48.
