data_PCOD8259168
_publ_section_title
;
Structure prediction by ZEFSAII (Michael W. Deem and Ramdas Pophale) SiO2 
 PCOD8259168
Probable space group: C M C M
;
_chemical_formula_sum "Si O2"
_cell_formula_units_Z 88
_cell_length_a 16.609113
_cell_length_b 8.766093
_cell_length_c 32.353734
_cell_angle_alpha 90.000000
_cell_angle_beta 90.000000
_cell_angle_gamma 90.000000
_cell_volume 4710.607554
_symmetry_space_group_name_H-M "C M C M"
_symmetry_group_IT_number 63
_symmetry_cell_setting 'orthorhombic'
loop_
_space_group_symop_operation_xyz
x,y,z
-x,-y,1/2+z
x,-y,-z
-x,y,1/2-z
-x,-y,-z
x,y,1/2-z
-x,y,z
x,-y,1/2+z
1/2+x,1/2+y,z
1/2-x,1/2-y,1/2+z
1/2+x,1/2-y,-z
1/2-x,1/2+y,1/2-z
1/2-x,1/2-y,-z
1/2+x,1/2+y,1/2-z
1/2-x,1/2+y,z
1/2+x,1/2-y,1/2+z
loop_
_atom_site_type_symbol
_atom_site_label
_atom_site_fract_x
_atom_site_fract_y
_atom_site_fract_z
Si Si1 0.734961 0.142565 0.842393
Si Si2 0.000000 0.741756 0.116560
Si Si3 0.000000 0.840725 0.474893
Si Si4 0.329775 0.168911 0.017415
Si Si5 0.166243 0.621364 0.390375
Si Si6 0.163281 0.904489 0.703796
Si Si7 0.500000 0.578774 0.702850
O O1 0.806142 0.246485 0.859415
O O2 0.666996 0.251709 0.823378
O O3 0.696123 0.046819 0.879238
O O4 0.770585 0.029684 0.808296
O O5 0.000000 0.858101 0.076168
O O6 0.928941 0.622126 0.112020
O O7 0.000000 0.811810 0.162893
O O8 0.083728 0.755867 0.488386
O O9 0.000000 0.000000 0.500000
O O10 0.250000 0.250000 0.000000
O O11 0.302822 0.158722 0.064549
O O12 0.341907 0.000000 0.000000
O O13 0.183143 0.855240 0.750000
O O14 0.075491 0.970307 0.698430
O O15 0.500000 0.655484 0.750000
#
# Coordination Sequence:
#
# PCOD8259168 Si02
#       7
#    16   8   8  16  16  16   8
#     4  10  20  35  55  82 113 143 191 228 287 334
#     4  10  20  40  58  83 119 150 191 241 289 347
#     4  10  23  41  61  89 122 160 203 248 307 367
#     4  11  22  39  61  86 121 156 201 249 302 356
#     4  10  21  37  58  82 114 151 190 236 286 351
#     4  10  20  35  56  80 111 146 186 233 284 342
#     4  10  20  37  57  82 112 149 189 232 289 343
#
# _framework density 18.681242000000001
#
# number of rings (size 3 to 8) (size 9 to 14) (size 15 to 20)
#    0.000    1.818    1.818    2.455    0.000    2.182 
#    3.273    0.909    0.000    0.000    0.000    0.000 
#    0.000    0.000    0.000    0.000    0.000    0.000 
#
# Total GULP energy -545131.548848 kJ/mol
# GULP energy per Si atom -12389.353383 kJ/mol
# Density = 1.863872 g / cm^3
# Si number density = 18.681242 Si / 1000 Ang^3
#
#
#
# Elastic Constant Matrix: (Units=GPa)
#
#
# Indices 1 2 3 4 5 6 
#
# 1 112.6417 36.4704 39.4255 0.0000 0.0000 0.0000
# 2 36.4704 97.3229 31.0762 0.0000 0.0000 0.0000
# 3 39.4255 31.0762 96.5710 0.0000 0.0000 0.0000
# 4 0.0000 0.0000 0.0000 30.9705 0.0000 0.0000
# 5 0.0000 0.0000 0.0000 0.0000 30.1001 0.0000
# 6 0.0000 0.0000 0.0000 0.0000 0.0000 29.7974
#
#
#
# Elastic Compliance Matrix: (Units=1/GPa)
#
#
# Indices 1 2 3 4 5 6 
#
# 1 0.011103 -0.003024 -0.003560 0.000000 0.000000 0.000000
# 2 -0.003024 0.012275 -0.002716 0.000000 0.000000 0.000000
# 3 -0.003560 -0.002716 0.012682 0.000000 0.000000 0.000000
# 4 0.000000 0.000000 0.000000 0.032289 0.000000 0.000000
# 5 0.000000 0.000000 0.000000 0.000000 0.033222 0.000000
# 6 0.000000 0.000000 0.000000 0.000000 0.000000 0.033560
#
#
# Mechanical properties :
#
#
# Convention : Reuss Voigt Hill
#
# Bulk Modulus (GPa) = 57.26771 57.83108 57.54939
# Shear Modulus (GPa) = 31.33804 31.47784 31.40794
#
# Velocity S-wave (km/s) = 4.10019 4.10932 4.10476
# Velocity P-wave (km/s) = 7.28952 7.31706 7.30330
#
# Compressibility (1/GPa) = 0.01746185
#
# Stress axis : x y z
#
# Youngs Moduli (GPa) = 90.06830 81.46382 78.85075
#
# Poissons Ratio (x) = 0.24634 0.28068
# Poissons Ratio (y) = 0.27236 0.21413
# Poissons Ratio (z) = 0.32061 0.22123
#
# Static dielectric constant tensor:
#      x y z
#    x 2.806790 0.000000 0.000000 
#    y 0.000000 3.312810 0.000000 
#    z 0.000000 0.000000 3.780720 
# 
# 
# High freq. dielectric constant tensor:
#      x y z
#    x 1.737780 0.000000 0.000000 
#    y 0.000000 1.716940 0.000000 
#    z 0.000000 0.000000 1.740470 
# 
# From -- ./inp_files/73841.got.cif
#   From: 2010.03.12/outbox.cif.g09.slc.cpg/sg63_37_cif.got.tgz:73841.got - 2010.04.10 19:34:48.
