data_PCOD8259618
_publ_section_title
;
Structure prediction by ZEFSAII (Michael W. Deem and Ramdas Pophale) SiO2 
 PCOD8259618
Probable space group: C M C M
;
_chemical_formula_sum "Si O2"
_cell_formula_units_Z 56
_cell_length_a 12.141972
_cell_length_b 14.342315
_cell_length_c 17.433604
_cell_angle_alpha 90.000000
_cell_angle_beta 90.000000
_cell_angle_gamma 90.000000
_cell_volume 3035.957311
_symmetry_space_group_name_H-M "C M C M"
_symmetry_group_IT_number 63
_symmetry_cell_setting 'orthorhombic'
loop_
_space_group_symop_operation_xyz
x,y,z
-x,-y,1/2+z
x,-y,-z
-x,y,1/2-z
-x,-y,-z
x,y,1/2-z
-x,y,z
x,-y,1/2+z
1/2+x,1/2+y,z
1/2-x,1/2-y,1/2+z
1/2+x,1/2-y,-z
1/2-x,1/2+y,1/2-z
1/2-x,1/2-y,-z
1/2+x,1/2+y,1/2-z
1/2-x,1/2+y,z
1/2+x,1/2-y,1/2+z
loop_
_atom_site_type_symbol
_atom_site_label
_atom_site_fract_x
_atom_site_fract_y
_atom_site_fract_z
Si Si1 0.000000 0.271404 0.999828
Si Si2 0.826893 0.036784 0.336675
Si Si3 0.621601 0.932417 0.935191
Si Si4 0.000000 0.067382 0.571035
Si Si5 0.500000 0.696347 0.335686
O O1 0.000000 0.268352 0.093150
O O2 0.891342 0.328016 0.970963
O O3 0.000000 0.172001 0.959219
O O4 0.817454 0.002073 0.250000
O O5 0.888978 0.952926 0.380750
O O6 0.705163 0.061935 0.365210
O O7 0.893212 0.132368 0.344181
O O8 0.500000 0.968210 0.908162
O O9 0.670256 0.000000 0.000000
O O10 0.000000 0.000000 0.500000
O O11 0.500000 0.744130 0.250000
#
# Coordination Sequence:
#
# PCOD8259618 Si02
#       5
#     8  16  16   8   8
#     4  10  20  38  62  87 112 155 202 245 280 355
#     4  10  20  37  58  84 121 155 188 245 304 351
#     4   9  21  40  58  82 116 159 203 235 290 356
#     4  11  19  36  62  90 110 152 196 247 297 345
#     4   9  19  35  56  88 118 146 186 242 307 346
#
# _framework density 18.445582000000002
#
# number of rings (size 3 to 8) (size 9 to 14) (size 15 to 20)
#    0.857    1.429    2.857    2.143    0.000    1.714 
#    0.000    4.286    0.000    0.000    0.000    0.000 
#    0.000    0.000    0.000    0.000    0.000    0.000 
#
# Total GULP energy -346946.359027 kJ/mol
# GULP energy per Si atom -12390.941394 kJ/mol
# Density = 1.840360 g / cm^3
# Si number density = 18.445582 Si / 1000 Ang^3
#
#
#
# Elastic Constant Matrix: (Units=GPa)
#
#
# Indices 1 2 3 4 5 6 
#
# 1 103.1058 20.9952 62.6221 0.0000 0.0000 0.0000
# 2 20.9952 110.0521 58.0853 0.0000 0.0000 0.0000
# 3 62.6221 58.0853 154.3098 0.0000 0.0000 0.0000
# 4 0.0000 0.0000 0.0000 23.1964 0.0000 0.0000
# 5 0.0000 0.0000 0.0000 0.0000 35.5334 0.0000
# 6 0.0000 0.0000 0.0000 0.0000 0.0000 20.3335
#
#
#
# Elastic Compliance Matrix: (Units=1/GPa)
#
#
# Indices 1 2 3 4 5 6 
#
# 1 0.012884 0.000376 -0.005370 0.000000 0.000000 0.000000
# 2 0.000376 0.011350 -0.004425 0.000000 0.000000 0.000000
# 3 -0.005370 -0.004425 0.010326 0.000000 0.000000 0.000000
# 4 0.000000 0.000000 0.000000 0.043110 0.000000 0.000000
# 5 0.000000 0.000000 0.000000 0.000000 0.028143 0.000000
# 6 0.000000 0.000000 0.000000 0.000000 0.000000 0.049180
#
#
# Mechanical properties :
#
#
# Convention : Reuss Voigt Hill
#
# Bulk Modulus (GPa) = 63.60629 72.31918 67.96273
# Shear Modulus (GPa) = 27.92188 30.86367 29.39277
#
# Velocity S-wave (km/s) = 3.89491 4.09495 3.99618
# Velocity P-wave (km/s) = 7.40170 7.85175 7.63004
#
# Compressibility (1/GPa) = 0.01572172
#
# Stress axis : x y z
#
# Youngs Moduli (GPa) = 77.61717 88.10215 96.84676
#
# Poissons Ratio (x) = -0.03317 0.52009
# Poissons Ratio (y) = -0.02922 0.42858
# Poissons Ratio (z) = 0.41682 0.38988
#
# Static dielectric constant tensor:
#      x y z
#    x 3.307720 0.000000 0.000000 
#    y 0.000000 2.724220 0.000000 
#    z 0.000000 0.000000 3.274340 
# 
# 
# High freq. dielectric constant tensor:
#      x y z
#    x 1.712450 0.000000 0.000000 
#    y 0.000000 1.691080 0.000000 
#    z 0.000000 0.000000 1.720790 
# 
# From -- ./inp_files/41413.got.cif
#   From: 2010.03.12/outbox.cif.g09.slc.cpg/sg63_21_cif.got.tgz:41413.got - 2010.04.10 19:34:48.
