data_PCOD8259665
_publ_section_title
;
Structure prediction by ZEFSAII (Michael W. Deem and Ramdas Pophale) SiO2 
 PCOD8259665
Probable space group: C M C M
;
_chemical_formula_sum "Si O2"
_cell_formula_units_Z 104
_cell_length_a 26.082984
_cell_length_b 19.683325
_cell_length_c 10.271571
_cell_angle_alpha 90.000000
_cell_angle_beta 90.000000
_cell_angle_gamma 90.000000
_cell_volume 5273.423021
_symmetry_space_group_name_H-M "C M C M"
_symmetry_group_IT_number 63
_symmetry_cell_setting 'orthorhombic'
loop_
_space_group_symop_operation_xyz
x,y,z
-x,-y,1/2+z
x,-y,-z
-x,y,1/2-z
-x,-y,-z
x,y,1/2-z
-x,y,z
x,-y,1/2+z
1/2+x,1/2+y,z
1/2-x,1/2-y,1/2+z
1/2+x,1/2-y,-z
1/2-x,1/2+y,1/2-z
1/2-x,1/2-y,-z
1/2+x,1/2+y,1/2-z
1/2-x,1/2+y,z
1/2+x,1/2-y,1/2+z
loop_
_atom_site_type_symbol
_atom_site_label
_atom_site_fract_x
_atom_site_fract_y
_atom_site_fract_z
Si Si1 0.441267 0.302060 0.019751
Si Si2 0.900105 0.057520 0.897411
Si Si3 0.842494 0.767576 0.604991
Si Si4 0.386032 0.000000 0.500000
Si Si5 0.817223 0.387227 0.102159
Si Si6 0.439463 0.795194 0.750000
Si Si7 0.560611 0.948644 0.750000
Si Si8 0.297922 0.366027 0.399117
O O1 0.500000 0.290461 0.975344
O O2 0.435825 0.377024 0.080176
O O3 0.421640 0.246513 0.123853
O O4 0.402219 0.291059 0.900439
O O5 0.909147 0.030833 0.750000
O O6 0.840375 0.075691 0.918510
O O7 0.916413 0.000000 0.000000
O O8 0.822599 0.786174 0.750000
O O9 0.836900 0.688362 0.579319
O O10 0.808491 0.804311 0.496564
O O11 0.350089 0.934443 0.491258
O O12 0.421788 0.990538 0.624597
O O13 0.826342 0.410601 0.250000
O O14 0.757459 0.396073 0.066055
O O15 0.500000 0.797603 0.750000
O O16 0.416857 0.871547 0.750000
O O17 0.500000 0.945738 0.750000
O O18 0.298805 0.338477 0.250000
#
# Coordination Sequence:
#
# PCOD8259665 Si02
#       8
#    16  16  16   8  16   8   8  16
#     4  10  20  37  61  86 117 155 200 255 302 351
#     4  10  21  36  56  84 118 157 200 241 297 363
#     4  10  21  37  59  88 122 153 199 249 300 361
#     4  12  23  42  60  92 124 162 199 244 308 368
#     4  10  21  40  61  87 127 156 194 252 304 357
#     4   9  18  36  64  89 106 149 215 256 289 347
#     4  11  24  42  66  91 124 163 207 254 298 365
#     4   9  20  39  62  86 116 162 201 246 296 352
#
# _framework density 19.721534999999999
#
# number of rings (size 3 to 8) (size 9 to 14) (size 15 to 20)
#    0.000    2.000    1.538    1.615    2.154    3.077 
#    2.769    0.769    0.000    0.000    0.000    0.000 
#    0.000    0.000    0.000    0.000    0.000    0.000 
#
# Total GULP energy -644802.468349 kJ/mol
# GULP energy per Si atom -12400.047468 kJ/mol
# Density = 1.967665 g / cm^3
# Si number density = 19.721535 Si / 1000 Ang^3
#
#
#
# Elastic Constant Matrix: (Units=GPa)
#
#
# Indices 1 2 3 4 5 6 
#
# 1 78.6522 17.1945 20.5222 0.0000 0.0000 0.0000
# 2 17.1945 86.9476 50.5547 0.0000 0.0000 0.0000
# 3 20.5222 50.5547 108.2564 0.0000 0.0000 0.0000
# 4 0.0000 0.0000 0.0000 35.8726 0.0000 0.0000
# 5 0.0000 0.0000 0.0000 0.0000 -3.5100 0.0000
# 6 0.0000 0.0000 0.0000 0.0000 0.0000 25.1152
#
#
#
# Elastic Compliance Matrix: (Units=1/GPa)
#
#
# Indices 1 2 3 4 5 6 
#
# 1 0.013541 -0.001627 -0.001807 0.000000 0.000000 0.000000
# 2 -0.001627 0.015984 -0.007156 0.000000 0.000000 0.000000
# 3 -0.001807 -0.007156 0.012922 0.000000 0.000000 0.000000
# 4 0.000000 0.000000 0.000000 0.027876 0.000000 0.000000
# 5 0.000000 0.000000 0.000000 0.000000 -0.284900 0.000000
# 6 0.000000 0.000000 0.000000 0.000000 0.000000 0.039817
#
#
# Mechanical properties :
#
#
# Convention : Reuss Voigt Hill
#
# Bulk Modulus (GPa) = 47.02236 50.04435 48.53335
# Shear Modulus (GPa) = -34.13169 23.86789 -5.13190
#
# Velocity S-wave (km/s) = -4.16466 3.48263 -1.61488
# Velocity P-wave (km/s) = 0.87697 6.44998 4.60279
#
# Compressibility (1/GPa) = 0.02126648
#
# Stress axis : x y z
#
# Youngs Moduli (GPa) = 73.84730 62.56425 77.38999
#
# Poissons Ratio (x) = 0.10180 0.13986
# Poissons Ratio (y) = 0.12016 0.55378
# Poissons Ratio (z) = 0.13346 0.44769
#
# Static dielectric constant tensor:
#      x y z
#    x 3.563000 0.000000 0.000000 
#    y 0.000000 3.501270 0.000000 
#    z 0.000000 0.000000 3.616960 
# 
# 
# High freq. dielectric constant tensor:
#      x y z
#    x 1.770840 0.000000 0.000000 
#    y 0.000000 1.761600 0.000000 
#    z 0.000000 0.000000 1.766760 
# 
# From -- ./inp_files/12622.got.cif
#   From: 2010.03.12/outbox.cif.g09.slc.cpg/sg63_7_cif.got.tgz:12622.got - 2010.04.10 19:34:48.
