data_PCOD8259059
_publ_section_title
;
Structure prediction by ZEFSAII (Michael W. Deem and Ramdas Pophale) SiO2 
 PCOD8259059
Probable space group: C M C M
;
_chemical_formula_sum "Si O2"
_cell_formula_units_Z 56
_cell_length_a 17.338557
_cell_length_b 16.865490
_cell_length_c 9.058172
_cell_angle_alpha 90.000000
_cell_angle_beta 90.000000
_cell_angle_gamma 90.000000
_cell_volume 2648.820183
_symmetry_space_group_name_H-M "C M C M"
_symmetry_group_IT_number 63
_symmetry_cell_setting 'orthorhombic'
loop_
_space_group_symop_operation_xyz
x,y,z
-x,-y,1/2+z
x,-y,-z
-x,y,1/2-z
-x,-y,-z
x,y,1/2-z
-x,y,z
x,-y,1/2+z
1/2+x,1/2+y,z
1/2-x,1/2-y,1/2+z
1/2+x,1/2-y,-z
1/2-x,1/2+y,1/2-z
1/2-x,1/2-y,-z
1/2+x,1/2+y,1/2-z
1/2-x,1/2+y,z
1/2+x,1/2-y,1/2+z
loop_
_atom_site_type_symbol
_atom_site_label
_atom_site_fract_x
_atom_site_fract_y
_atom_site_fract_z
Si Si1 0.169076 0.267014 0.924803
Si Si2 0.413103 0.366583 0.587424
Si Si3 0.345755 0.926140 0.414903
Si Si4 0.196735 0.000000 0.000000
O O1 0.179515 0.274633 0.750000
O O2 0.250000 0.250000 0.000000
O O3 0.110489 0.196596 0.963250
O O4 0.135731 0.348672 0.989272
O O5 0.408200 0.326810 0.750000
O O6 0.500000 0.394601 0.551924
O O7 0.357846 0.442930 0.594515
O O8 0.379390 0.916143 0.250000
O O9 0.253209 0.943985 0.401456
O O10 0.386280 0.000000 0.500000
#
# Coordination Sequence:
#
# PCOD8259059 Si02
#       4
#    16  16  16   8
#     4  12  23  37  60  85 118 158 206 257 301 355
#     4  11  24  41  61  87 124 165 203 245 300 367
#     4  10  20  34  59  90 120 151 196 248 298 354
#     4  10  21  34  62  86 125 158 198 238 299 356
#
# _framework density 21.141487999999999
#
# number of rings (size 3 to 8) (size 9 to 14) (size 15 to 20)
#    0.857    0.286    2.857    4.714    0.000    1.714 
#    0.000    0.000    0.000    0.857    0.000    0.000 
#    0.000    0.000    0.000    0.000    0.000    0.000 
#
# Total GULP energy -347040.362635 kJ/mol
# GULP energy per Si atom -12394.298666 kJ/mol
# Density = 2.109337 g / cm^3
# Si number density = 21.141488 Si / 1000 Ang^3
#
#
#
# Elastic Constant Matrix: (Units=GPa)
#
#
# Indices 1 2 3 4 5 6 
#
# 1 39.8777 4.8453 3.0321 0.0000 0.0000 0.0000
# 2 4.8453 105.9234 39.4753 0.0000 0.0000 0.0000
# 3 3.0321 39.4753 172.4444 0.0000 0.0000 0.0000
# 4 0.0000 0.0000 0.0000 36.0553 0.0000 0.0000
# 5 0.0000 0.0000 0.0000 0.0000 20.1040 0.0000
# 6 0.0000 0.0000 0.0000 0.0000 0.0000 20.6506
#
#
#
# Elastic Compliance Matrix: (Units=1/GPa)
#
#
# Indices 1 2 3 4 5 6 
#
# 1 0.025223 -0.001081 -0.000196 0.000000 0.000000 0.000000
# 2 -0.001081 0.010368 -0.002354 0.000000 0.000000 0.000000
# 3 -0.000196 -0.002354 0.006341 0.000000 0.000000 0.000000
# 4 0.000000 0.000000 0.000000 0.027735 0.000000 0.000000
# 5 0.000000 0.000000 0.000000 0.000000 0.049741 0.000000
# 6 0.000000 0.000000 0.000000 0.000000 0.000000 0.048425
#
#
# Mechanical properties :
#
#
# Convention : Reuss Voigt Hill
#
# Bulk Modulus (GPa) = 28.84368 45.88343 37.36355
# Shear Modulus (GPa) = 26.78784 33.42151 30.10468
#
# Velocity S-wave (km/s) = 3.56346 3.98030 3.77764
# Velocity P-wave (km/s) = 5.53207 6.54782 6.06126
#
# Compressibility (1/GPa) = 0.03466964
#
# Stress axis : x y z
#
# Youngs Moduli (GPa) = 39.64655 96.45414 157.69491
#
# Poissons Ratio (x) = 0.10424 0.03092
# Poissons Ratio (y) = 0.04285 0.37126
# Poissons Ratio (z) = 0.00777 0.22708
#
# Static dielectric constant tensor:
#      x y z
#    x 3.472580 0.000000 0.000000 
#    y 0.000000 3.939450 0.000000 
#    z 0.000000 0.000000 3.731770 
# 
# 
# High freq. dielectric constant tensor:
#      x y z
#    x 1.791460 0.000000 0.000000 
#    y 0.000000 1.836760 0.000000 
#    z 0.000000 0.000000 1.829220 
# 
# From -- ./inp_files/7425.got.cif
#   From: 2010.03.12/outbox.cif.g09.slc.cpg/sg63_4_cif.got.tgz:7425.got - 2010.04.10 19:34:48.
