data_PCOD8259671
_publ_section_title
;
Structure prediction by ZEFSAII (Michael W. Deem and Ramdas Pophale) SiO2 
 PCOD8259671
Probable space group: C M C M
;
_chemical_formula_sum "Si O2"
_cell_formula_units_Z 112
_cell_length_a 24.411161
_cell_length_b 14.306429
_cell_length_c 14.491640
_cell_angle_alpha 90.000000
_cell_angle_beta 90.000000
_cell_angle_gamma 90.000000
_cell_volume 5061.010236
_symmetry_space_group_name_H-M "C M C M"
_symmetry_group_IT_number 63
_symmetry_cell_setting 'orthorhombic'
loop_
_space_group_symop_operation_xyz
x,y,z
-x,-y,1/2+z
x,-y,-z
-x,y,1/2-z
-x,-y,-z
x,y,1/2-z
-x,y,z
x,-y,1/2+z
1/2+x,1/2+y,z
1/2-x,1/2-y,1/2+z
1/2+x,1/2-y,-z
1/2-x,1/2+y,1/2-z
1/2-x,1/2-y,-z
1/2+x,1/2+y,1/2-z
1/2-x,1/2+y,z
1/2+x,1/2-y,1/2+z
loop_
_atom_site_type_symbol
_atom_site_label
_atom_site_fract_x
_atom_site_fract_y
_atom_site_fract_z
Si Si1 0.059294 0.370965 0.359410
Si Si2 0.937828 0.813715 0.970830
Si Si3 0.246101 0.233875 0.641170
Si Si4 0.623147 0.674761 0.853420
Si Si5 0.622151 0.459853 0.650088
Si Si6 0.739121 0.437490 0.911125
Si Si7 0.826139 0.573618 0.855896
O O1 0.059528 0.366706 0.250000
O O2 0.066155 0.266371 0.395197
O O3 0.111710 0.430273 0.396928
O O4 0.000000 0.412408 0.393211
O O5 0.902661 0.900823 0.933518
O O6 0.000000 0.846354 0.986644
O O7 0.913008 0.774904 0.067743
O O8 0.254691 0.257745 0.750000
O O9 0.186969 0.188436 0.625294
O O10 0.252993 0.325931 0.577280
O O11 0.289908 0.158269 0.601979
O O12 0.609065 0.712434 0.750000
O O13 0.606078 0.567086 0.862699
O O14 0.600039 0.424791 0.750000
O O15 0.687967 0.452342 0.655740
O O16 0.796777 0.474433 0.870101
O O17 0.725991 0.500000 0.000000
O O18 0.831198 0.597501 0.750000
#
# Coordination Sequence:
#
# PCOD8259671 Si02
#       7
#    16  16  16  16  16  16  16
#     4   9  19  36  59  88 120 154 197 256 317 363
#     4  11  23  38  61  89 121 161 212 260 306 371
#     4  10  21  38  59  84 121 164 204 256 312 371
#     4  10  22  39  59  82 122 168 204 252 315 375
#     4  11  22  39  58  84 125 164 205 259 313 367
#     4  12  24  35  59  93 125 163 207 260 312 379
#     4  10  20  37  61  88 120 163 206 249 311 376
#
# _framework density 22.129968999999999
#
# number of rings (size 3 to 8) (size 9 to 14) (size 15 to 20)
#    0.000    1.571    1.429    3.857    2.000    4.000 
#    0.000    1.429    0.000    1.286    0.000    2.000 
#    0.000    0.000    0.000    0.000    0.000    0.000 
#
# Total GULP energy -694036.749454 kJ/mol
# GULP energy per Si atom -12393.513383 kJ/mol
# Density = 2.207960 g / cm^3
# Si number density = 22.129969 Si / 1000 Ang^3
#
#
#
# Elastic Constant Matrix: (Units=GPa)
#
#
# Indices 1 2 3 4 5 6 
#
# 1 156.3511 23.8644 21.4097 0.0000 0.0000 0.0000
# 2 23.8644 59.4130 -5.8298 0.0000 0.0000 0.0000
# 3 21.4097 -5.8298 55.4302 0.0000 0.0000 0.0000
# 4 0.0000 0.0000 0.0000 16.3519 0.0000 0.0000
# 5 0.0000 0.0000 0.0000 0.0000 26.1040 0.0000
# 6 0.0000 0.0000 0.0000 0.0000 0.0000 32.6253
#
#
#
# Elastic Compliance Matrix: (Units=1/GPa)
#
#
# Indices 1 2 3 4 5 6 
#
# 1 0.007327 -0.003254 -0.003172 0.000000 0.000000 0.000000
# 2 -0.003254 0.018452 0.003198 0.000000 0.000000 0.000000
# 3 -0.003172 0.003198 0.019602 0.000000 0.000000 0.000000
# 4 0.000000 0.000000 0.000000 0.061155 0.000000 0.000000
# 5 0.000000 0.000000 0.000000 0.000000 0.038308 0.000000
# 6 0.000000 0.000000 0.000000 0.000000 0.000000 0.030651
#
#
# Mechanical properties :
#
#
# Convention : Reuss Voigt Hill
#
# Bulk Modulus (GPa) = 25.69133 38.89810 32.29471
# Shear Modulus (GPa) = 25.65045 30.46623 28.05834
#
# Velocity S-wave (km/s) = 3.40822 3.71441 3.56461
# Velocity P-wave (km/s) = 5.20792 6.00092 5.61843
#
# Compressibility (1/GPa) = 0.03892364
#
# Stress axis : x y z
#
# Youngs Moduli (GPa) = 136.48214 54.19393 51.01448
#
# Poissons Ratio (x) = 0.17636 0.16183
# Poissons Ratio (y) = 0.44415 -0.16313
# Poissons Ratio (z) = 0.43296 -0.17329
#
# Static dielectric constant tensor:
#      x y z
#    x 4.497600 0.000000 0.000000 
#    y 0.000000 3.652930 0.000000 
#    z 0.000000 0.000000 4.075350 
# 
# 
# High freq. dielectric constant tensor:
#      x y z
#    x 1.872160 0.000000 0.000000 
#    y 0.000000 1.842820 0.000000 
#    z 0.000000 0.000000 1.875270 
# 
# From -- ./inp_files/36880.got.cif
#   From: 2010.03.12/outbox.cif.g09.slc.cpg/sg63_19_cif.got.tgz:36880.got - 2010.04.10 19:34:48.
