data_PCOD8259045
_publ_section_title
;
Structure prediction by ZEFSAII (Michael W. Deem and Ramdas Pophale) SiO2 
 PCOD8259045
Probable space group: C M C M
;
_chemical_formula_sum "Si O2"
_cell_formula_units_Z 104
_cell_length_a 21.616989
_cell_length_b 28.448832
_cell_length_c 8.656581
_cell_angle_alpha 90.000000
_cell_angle_beta 90.000000
_cell_angle_gamma 90.000000
_cell_volume 5323.607636
_symmetry_space_group_name_H-M "C M C M"
_symmetry_group_IT_number 63
_symmetry_cell_setting 'orthorhombic'
loop_
_space_group_symop_operation_xyz
x,y,z
-x,-y,1/2+z
x,-y,-z
-x,y,1/2-z
-x,-y,-z
x,y,1/2-z
-x,y,z
x,-y,1/2+z
1/2+x,1/2+y,z
1/2-x,1/2-y,1/2+z
1/2+x,1/2-y,-z
1/2-x,1/2+y,1/2-z
1/2-x,1/2-y,-z
1/2+x,1/2+y,1/2-z
1/2-x,1/2+y,z
1/2+x,1/2-y,1/2+z
loop_
_atom_site_type_symbol
_atom_site_label
_atom_site_fract_x
_atom_site_fract_y
_atom_site_fract_z
Si Si1 0.647937 0.381901 0.427298
Si Si2 0.878348 0.600527 0.432417
Si Si3 0.072397 0.045732 0.420534
Si Si4 0.000000 0.552948 0.933674
Si Si5 0.690741 0.704464 0.427245
Si Si6 0.821622 0.308463 0.071128
Si Si7 0.238812 0.449959 0.431825
O O1 0.647345 0.367028 0.250000
O O2 0.586792 0.410689 0.469101
O O3 0.641658 0.335727 0.533845
O O4 0.707865 0.412709 0.471072
O O5 0.886839 0.596985 0.250000
O O6 0.940633 0.582542 0.512428
O O7 0.863093 0.654808 0.475817
O O8 0.823474 0.566794 0.486083
O O9 0.102025 0.051835 0.250000
O O10 0.000000 0.039752 0.405407
O O11 0.102247 0.000000 0.500000
O O12 0.000000 0.549141 0.750000
O O13 0.000000 0.500000 0.000000
O O14 0.712201 0.704116 0.250000
O O15 0.749039 0.690211 0.532472
O O16 0.658834 0.754607 0.467014
O O17 0.829883 0.321733 0.250000
O O18 0.258654 0.500000 0.500000
O O19 0.227116 0.453826 0.250000
#
# Coordination Sequence:
#
# PCOD8259045 Si02
#       7
#    16  16  16   8  16  16  16
#     4  11  22  35  56  84 117 152 191 239 288 345
#     4  12  24  40  63  89 118 156 200 246 298 358
#     4  10  21  37  57  80 110 149 193 237 282 340
#     4  12  26  46  68  90 122 160 204 256 305 364
#     4  10  20  34  57  87 120 154 191 236 287 345
#     4  10  20  36  58  87 119 153 192 236 289 347
#     4  11  23  37  54  82 118 154 191 237 291 348
#
# _framework density 19.535625
#
# number of rings (size 3 to 8) (size 9 to 14) (size 15 to 20)
#    0.000    1.231    1.538    5.308    0.000    5.846 
#    0.000    0.000    1.692    0.000    0.000    0.000 
#    0.000    0.000    0.000    0.000    0.000    0.000 
#
# Total GULP energy -644795.297810 kJ/mol
# GULP energy per Si atom -12399.909573 kJ/mol
# Density = 1.949116 g / cm^3
# Si number density = 19.535625 Si / 1000 Ang^3
#
#
#
# Elastic Constant Matrix: (Units=GPa)
#
#
# Indices 1 2 3 4 5 6 
#
# 1 40.3936 23.2357 33.4205 0.0000 0.0000 0.0000
# 2 23.2357 144.9700 55.1369 0.0000 0.0000 0.0000
# 3 33.4205 55.1369 117.7292 0.0000 0.0000 0.0000
# 4 0.0000 0.0000 0.0000 36.2316 0.0000 0.0000
# 5 0.0000 0.0000 0.0000 0.0000 28.5419 0.0000
# 6 0.0000 0.0000 0.0000 0.0000 0.0000 25.3679
#
#
#
# Elastic Compliance Matrix: (Units=1/GPa)
#
#
# Indices 1 2 3 4 5 6 
#
# 1 0.032869 -0.002092 -0.008351 0.000000 0.000000 0.000000
# 2 -0.002092 0.008526 -0.003399 0.000000 0.000000 0.000000
# 3 -0.008351 -0.003399 0.012457 0.000000 0.000000 0.000000
# 4 0.000000 0.000000 0.000000 0.027600 0.000000 0.000000
# 5 0.000000 0.000000 0.000000 0.000000 0.035036 0.000000
# 6 0.000000 0.000000 0.000000 0.000000 0.000000 0.039420
#
#
# Mechanical properties :
#
#
# Convention : Reuss Voigt Hill
#
# Bulk Modulus (GPa) = 38.21543 58.51988 48.36765
# Shear Modulus (GPa) = 25.99899 30.78161 28.39030
#
# Velocity S-wave (km/s) = 3.65204 3.97377 3.81630
# Velocity P-wave (km/s) = 6.11454 7.14668 6.65066
#
# Compressibility (1/GPa) = 0.02616744
#
# Stress axis : x y z
#
# Youngs Moduli (GPa) = 30.42369 117.28653 80.27832
#
# Poissons Ratio (x) = 0.24538 0.67040
# Poissons Ratio (y) = 0.06365 0.27288
# Poissons Ratio (z) = 0.25407 0.39868
#
# Static dielectric constant tensor:
#      x y z
#    x 3.291900 0.000000 0.000000 
#    y 0.000000 3.911820 0.000000 
#    z 0.000000 0.000000 3.793700 
# 
# 
# High freq. dielectric constant tensor:
#      x y z
#    x 1.730450 0.000000 0.000000 
#    y 0.000000 1.777540 0.000000 
#    z 0.000000 0.000000 1.779550 
# 
# From -- ./inp_files/8786.got.cif
#   From: 2010.03.12/outbox.cif.g09.slc.cpg/sg63_5_cif.got.tgz:8786.got - 2010.04.10 19:34:48.
