data_PCOD8259961
_publ_section_title
;
Structure prediction by ZEFSAII (Michael W. Deem and Ramdas Pophale) SiO2 
 PCOD8259961
Probable space group: C M C M
;
_chemical_formula_sum "Si O2"
_cell_formula_units_Z 112
_cell_length_a 26.048497
_cell_length_b 14.988151
_cell_length_c 13.830980
_cell_angle_alpha 90.000000
_cell_angle_beta 90.000000
_cell_angle_gamma 90.000000
_cell_volume 5399.874702
_symmetry_space_group_name_H-M "C M C M"
_symmetry_group_IT_number 63
_symmetry_cell_setting 'orthorhombic'
loop_
_space_group_symop_operation_xyz
x,y,z
-x,-y,1/2+z
x,-y,-z
-x,y,1/2-z
-x,-y,-z
x,y,1/2-z
-x,y,z
x,-y,1/2+z
1/2+x,1/2+y,z
1/2-x,1/2-y,1/2+z
1/2+x,1/2-y,-z
1/2-x,1/2+y,1/2-z
1/2-x,1/2-y,-z
1/2+x,1/2+y,1/2-z
1/2-x,1/2+y,z
1/2+x,1/2-y,1/2+z
loop_
_atom_site_type_symbol
_atom_site_label
_atom_site_fract_x
_atom_site_fract_y
_atom_site_fract_z
Si Si1 0.058083 0.471076 0.635202
Si Si2 0.940264 0.724472 0.143545
Si Si3 0.351465 0.901034 0.361105
Si Si4 0.270332 0.051579 0.358964
Si Si5 0.377767 0.639519 0.954100
Si Si6 0.194786 0.289118 0.517507
Si Si7 0.651923 0.459089 0.637530
O O1 0.058668 0.470623 0.750000
O O2 0.077886 0.372464 0.601541
O O3 0.098430 0.545837 0.597440
O O4 0.000000 0.493227 0.597702
O O5 0.915657 0.742807 0.250000
O O6 0.929757 0.806875 0.070653
O O7 0.000000 0.715134 0.156694
O O8 0.361203 0.873458 0.250000
O O9 0.338699 0.811666 0.421274
O O10 0.299614 0.958805 0.370629
O O11 0.270937 0.086461 0.250000
O O12 0.301565 0.122473 0.420078
O O13 0.211700 0.039059 0.393049
O O14 0.334249 0.711150 0.925462
O O15 0.372193 0.555323 0.883699
O O16 0.376011 0.612447 0.067601
O O17 0.250000 0.250000 0.500000
O O18 0.643277 0.433954 0.750000
#
# Coordination Sequence:
#
# PCOD8259961 Si02
#       7
#    16  16  16  16  16  16  16
#     4   8  15  32  58  88 122 157 194 236 284 340
#     4   9  18  35  61  93 124 151 189 243 292 337
#     4  10  21  35  56  85 117 158 198 236 289 353
#     4  10  21  37  55  76 111 154 194 233 283 346
#     4  11  22  36  60  84 110 149 192 240 291 353
#     4  12  23  35  55  83 119 149 193 245 288 339
#     4  10  22  40  57  77 110 152 193 239 296 353
#
# _framework density 20.741220999999999
#
# number of rings (size 3 to 8) (size 9 to 14) (size 15 to 20)
#    0.000    2.000    1.429    3.429    2.000    3.429 
#    0.000    2.143    0.000    4.714    0.000    0.000 
#    0.000    1.143    0.000    0.000    0.000    0.000 
#
# Total GULP energy -694101.743001 kJ/mol
# GULP energy per Si atom -12394.673982 kJ/mol
# Density = 2.069401 g / cm^3
# Si number density = 20.741221 Si / 1000 Ang^3
#
#
#
# Elastic Constant Matrix: (Units=GPa)
#
#
# Indices 1 2 3 4 5 6 
#
# 1 67.2710 39.1757 26.4092 0.0000 0.0000 0.0000
# 2 39.1757 86.5247 36.4402 0.0000 0.0000 0.0000
# 3 26.4092 36.4402 88.8504 0.0000 0.0000 0.0000
# 4 0.0000 0.0000 0.0000 26.7684 0.0000 0.0000
# 5 0.0000 0.0000 0.0000 0.0000 17.3699 0.0000
# 6 0.0000 0.0000 0.0000 0.0000 0.0000 39.0999
#
#
#
# Elastic Compliance Matrix: (Units=1/GPa)
#
#
# Indices 1 2 3 4 5 6 
#
# 1 0.020748 -0.008216 -0.002797 0.000000 0.000000 0.000000
# 2 -0.008216 0.017224 -0.004622 0.000000 0.000000 0.000000
# 3 -0.002797 -0.004622 0.013982 0.000000 0.000000 0.000000
# 4 0.000000 0.000000 0.000000 0.037357 0.000000 0.000000
# 5 0.000000 0.000000 0.000000 0.000000 0.057571 0.000000
# 6 0.000000 0.000000 0.000000 0.000000 0.000000 0.025575
#
#
# Mechanical properties :
#
#
# Convention : Reuss Voigt Hill
#
# Bulk Modulus (GPa) = 48.34827 49.63292 48.99060
# Shear Modulus (GPa) = 23.73913 26.02238 24.88075
#
# Velocity S-wave (km/s) = 3.38677 3.54591 3.46725
# Velocity P-wave (km/s) = 6.21727 6.38327 6.30082
#
# Compressibility (1/GPa) = 0.02068326
#
# Stress axis : x y z
#
# Youngs Moduli (GPa) = 48.19732 58.05896 71.52075
#
# Poissons Ratio (x) = 0.47701 0.20007
# Poissons Ratio (y) = 0.39599 0.33057
# Poissons Ratio (z) = 0.13483 0.26835
#
# Static dielectric constant tensor:
#      x y z
#    x 3.452800 0.000000 0.000000 
#    y 0.000000 3.972570 0.000000 
#    z 0.000000 0.000000 3.919070 
# 
# 
# High freq. dielectric constant tensor:
#      x y z
#    x 1.798880 0.000000 0.000000 
#    y 0.000000 1.807060 0.000000 
#    z 0.000000 0.000000 1.811340 
# 
# From -- ./inp_files/36888.got.cif
#   From: 2010.03.12/outbox.cif.g09.slc.cpg/sg63_19_cif.got.tgz:36888.got - 2010.04.10 19:34:48.
