data_PCOD8259362
_publ_section_title
;
Structure prediction by ZEFSAII (Michael W. Deem and Ramdas Pophale) SiO2 
 PCOD8259362
Probable space group: C M C M
;
_chemical_formula_sum "Si O2"
_cell_formula_units_Z 96
_cell_length_a 8.907743
_cell_length_b 19.950285
_cell_length_c 28.990722
_cell_angle_alpha 90.000000
_cell_angle_beta 90.000000
_cell_angle_gamma 90.000000
_cell_volume 5151.999523
_symmetry_space_group_name_H-M "C M C M"
_symmetry_group_IT_number 63
_symmetry_cell_setting 'orthorhombic'
loop_
_space_group_symop_operation_xyz
x,y,z
-x,-y,1/2+z
x,-y,-z
-x,y,1/2-z
-x,-y,-z
x,y,1/2-z
-x,y,z
x,-y,1/2+z
1/2+x,1/2+y,z
1/2-x,1/2-y,1/2+z
1/2+x,1/2-y,-z
1/2-x,1/2+y,1/2-z
1/2-x,1/2-y,-z
1/2+x,1/2+y,1/2-z
1/2-x,1/2+y,z
1/2+x,1/2-y,1/2+z
loop_
_atom_site_type_symbol
_atom_site_label
_atom_site_fract_x
_atom_site_fract_y
_atom_site_fract_z
Si Si1 0.678454 0.742771 0.301739
Si Si2 0.176867 0.502370 0.875261
Si Si3 0.168093 0.943093 0.037773
Si Si4 0.678720 0.641266 0.120810
Si Si5 0.821748 0.392226 0.301348
Si Si6 0.822927 0.184098 0.019933
O O1 0.733606 0.723244 0.250000
O O2 0.500000 0.741827 0.303004
O O3 0.741639 0.690422 0.339254
O O4 0.736474 0.817566 0.314606
O O5 0.213582 0.537326 0.923487
O O6 0.257801 0.431892 0.869413
O O7 0.241458 0.551900 0.835928
O O8 0.000000 0.491325 0.871280
O O9 0.225726 0.875436 0.013972
O O10 0.000000 0.934551 0.058547
O O11 0.164016 0.000000 0.000000
O O12 0.500000 0.636355 0.121133
O O13 0.736501 0.668656 0.071520
O O14 0.766272 0.410753 0.250000
O O15 0.000000 0.391683 0.303532
O O16 0.000000 0.193153 0.021223
O O17 0.750000 0.250000 0.000000
#
# Coordination Sequence:
#
# PCOD8259362 Si02
#       6
#    16  16  16  16  16  16
#     4   8  15  30  54  79 101 133 178 220 256 306
#     4  11  22  33  54  84 108 137 178 225 265 305
#     4  10  20  39  58  73 104 148 180 208 263 322
#     4  10  20  36  55  76 108 143 175 213 263 320
#     4   8  16  32  52  77 108 138 172 216 267 317
#     4  10  22  37  55  78 106 141 175 217 264 313
#
# _framework density 18.633541999999998
#
# number of rings (size 3 to 8) (size 9 to 14) (size 15 to 20)
#    0.000    2.500    1.667    1.500    2.333    2.333 
#    0.000    0.000    0.000    1.500    0.000    4.667 
#    0.000    0.000    0.000    0.000    0.000    0.000 
#
# Total GULP energy -595087.985170 kJ/mol
# GULP energy per Si atom -12397.666358 kJ/mol
# Density = 1.859113 g / cm^3
# Si number density = 18.633542 Si / 1000 Ang^3
#
#
#
# Elastic Constant Matrix: (Units=GPa)
#
#
# Indices 1 2 3 4 5 6 
#
# 1 18.3124 24.9767 21.9395 0.0000 0.0000 0.0000
# 2 24.9767 176.9716 96.7949 0.0000 0.0000 0.0000
# 3 21.9395 96.7949 136.3213 0.0000 0.0000 0.0000
# 4 0.0000 0.0000 0.0000 39.7595 0.0000 0.0000
# 5 0.0000 0.0000 0.0000 0.0000 -63.2534 0.0000
# 6 0.0000 0.0000 0.0000 0.0000 0.0000 21.2991
#
#
#
# Elastic Compliance Matrix: (Units=1/GPa)
#
#
# Indices 1 2 3 4 5 6 
#
# 1 0.071605 -0.006217 -0.007109 0.000000 0.000000 0.000000
# 2 -0.006217 0.009778 -0.005943 0.000000 0.000000 0.000000
# 3 -0.007109 -0.005943 0.012699 0.000000 0.000000 0.000000
# 4 0.000000 0.000000 0.000000 0.025151 0.000000 0.000000
# 5 0.000000 0.000000 0.000000 0.000000 -0.015809 0.000000
# 6 0.000000 0.000000 0.000000 0.000000 0.000000 0.046950
#
#
# Mechanical properties :
#
#
# Convention : Reuss Voigt Hill
#
# Bulk Modulus (GPa) = 18.00367 68.78084 43.39226
# Shear Modulus (GPa) = 24.10469 12.08732 18.09601
#
# Velocity S-wave (km/s) = 3.60059 2.54970 3.11971
# Velocity P-wave (km/s) = 5.19313 6.75725 6.02615
#
# Compressibility (1/GPa) = 0.05554422
#
# Stress axis : x y z
#
# Youngs Moduli (GPa) = 13.96545 102.26641 78.74462
#
# Poissons Ratio (x) = 0.63583 0.55983
# Poissons Ratio (y) = 0.08683 0.46794
# Poissons Ratio (z) = 0.09929 0.60772
#
# Static dielectric constant tensor:
#      x y z
#    x 3.030300 0.000000 0.000000 
#    y 0.000000 3.657960 0.000000 
#    z 0.000000 0.000000 3.722360 
# 
# 
# High freq. dielectric constant tensor:
#      x y z
#    x 1.682100 0.000000 0.000000 
#    y 0.000000 1.737090 0.000000 
#    z 0.000000 0.000000 1.732370 
# 
# From -- ./inp_files/59930.got.cif
#   From: 2010.03.12/outbox.cif.g09.slc.cpg/sg63_30_cif.got.tgz:59930.got - 2010.04.10 19:34:48.
