data_PCOD8259073
_publ_section_title
;
Structure prediction by ZEFSAII (Michael W. Deem and Ramdas Pophale) SiO2 
 PCOD8259073
Probable space group: C M C M
;
_chemical_formula_sum "Si O2"
_cell_formula_units_Z 96
_cell_length_a 22.267791
_cell_length_b 24.597010
_cell_length_c 9.478489
_cell_angle_alpha 90.000000
_cell_angle_beta 90.000000
_cell_angle_gamma 90.000000
_cell_volume 5191.568212
_symmetry_space_group_name_H-M "C M C M"
_symmetry_group_IT_number 63
_symmetry_cell_setting 'orthorhombic'
loop_
_space_group_symop_operation_xyz
x,y,z
-x,-y,1/2+z
x,-y,-z
-x,y,1/2-z
-x,-y,-z
x,y,1/2-z
-x,y,z
x,-y,1/2+z
1/2+x,1/2+y,z
1/2-x,1/2-y,1/2+z
1/2+x,1/2-y,-z
1/2-x,1/2+y,1/2-z
1/2-x,1/2-y,-z
1/2+x,1/2+y,1/2-z
1/2-x,1/2+y,z
1/2+x,1/2-y,1/2+z
loop_
_atom_site_type_symbol
_atom_site_label
_atom_site_fract_x
_atom_site_fract_y
_atom_site_fract_z
Si Si1 0.500000 0.744817 0.580097
Si Si2 0.398714 0.666031 0.906482
Si Si3 0.000000 0.358321 0.085731
Si Si4 0.097099 0.551688 0.584029
Si Si5 0.642610 0.551469 0.581363
Si Si6 0.736520 0.699822 0.906513
Si Si7 0.727302 0.914075 0.082782
O O1 0.500000 0.753890 0.750000
O O2 0.556397 0.709261 0.521286
O O3 0.500000 0.804006 0.507945
O O4 0.424246 0.657158 0.750000
O O5 0.393103 0.605327 0.973626
O O6 0.334145 0.692517 0.902316
O O7 0.941324 0.394498 0.049496
O O8 0.000000 0.341633 0.250000
O O9 0.070438 0.500000 0.500000
O O10 0.094150 0.538791 0.750000
O O11 0.165569 0.559446 0.528651
O O12 0.614194 0.500000 0.500000
O O13 0.636834 0.545226 0.750000
O O14 0.712902 0.554158 0.534565
O O15 0.761525 0.710824 0.750000
O O16 0.768986 0.647521 0.975012
O O17 0.750000 0.750000 0.000000
O O18 0.727621 0.910301 0.250000
#
# Coordination Sequence:
#
# PCOD8259073 Si02
#       7
#     8  16   8  16  16  16  16
#     4  10  20  37  58  73  94 134 179 212 241 292
#     4   8  17  33  51  72  99 132 167 205 249 292
#     4  10  23  37  51  73 101 130 164 210 261 300
#     4  10  20  35  52  72  99 131 165 203 248 297
#     4   9  16  30  51  74 100 129 162 200 244 297
#     4   9  17  30  48  71  99 130 163 201 246 297
#     4   8  16  30  48  69  98 133 160 191 247 302
#
# _framework density 18.491523000000001
#
# number of rings (size 3 to 8) (size 9 to 14) (size 15 to 20)
#    0.000    3.000    0.000    2.750    2.333    0.667 
#    0.000    5.417    0.000    0.000    0.000    0.000 
#    0.000    0.000    0.000    0.000    0.000    0.000 
#
# Total GULP energy -594683.369882 kJ/mol
# GULP energy per Si atom -12389.236873 kJ/mol
# Density = 1.844944 g / cm^3
# Si number density = 18.491523 Si / 1000 Ang^3
#
#
#
# Elastic Constant Matrix: (Units=GPa)
#
#
# Indices 1 2 3 4 5 6 
#
# 1 69.1346 48.6925 21.6140 0.0000 0.0000 0.0000
# 2 48.6925 172.7492 58.6355 0.0000 0.0000 0.0000
# 3 21.6140 58.6355 46.4783 0.0000 0.0000 0.0000
# 4 0.0000 0.0000 0.0000 36.4764 0.0000 0.0000
# 5 0.0000 0.0000 0.0000 0.0000 12.3031 0.0000
# 6 0.0000 0.0000 0.0000 0.0000 0.0000 18.0538
#
#
#
# Elastic Compliance Matrix: (Units=1/GPa)
#
#
# Indices 1 2 3 4 5 6 
#
# 1 0.018370 -0.003985 -0.003516 0.000000 0.000000 0.000000
# 2 -0.003985 0.010988 -0.012009 0.000000 0.000000 0.000000
# 3 -0.003516 -0.012009 0.038301 0.000000 0.000000 0.000000
# 4 0.000000 0.000000 0.000000 0.027415 0.000000 0.000000
# 5 0.000000 0.000000 0.000000 0.000000 0.081280 0.000000
# 6 0.000000 0.000000 0.000000 0.000000 0.000000 0.055390
#
#
# Mechanical properties :
#
#
# Convention : Reuss Voigt Hill
#
# Bulk Modulus (GPa) = 34.91661 60.69401 47.80531
# Shear Modulus (GPa) = 17.83734 23.99466 20.91600
#
# Velocity S-wave (km/s) = 3.10921 3.60613 3.36685
# Velocity P-wave (km/s) = 5.64031 7.08751 6.40491
#
# Compressibility (1/GPa) = 0.02863967
#
# Stress axis : x y z
#
# Youngs Moduli (GPa) = 54.43622 91.00728 26.10893
#
# Poissons Ratio (x) = 0.36262 0.09180
# Poissons Ratio (y) = 0.21690 0.31355
# Poissons Ratio (z) = 0.19139 1.09294
#
# Static dielectric constant tensor:
#      x y z
#    x 3.498190 0.000000 0.000000 
#    y 0.000000 3.476360 0.000000 
#    z 0.000000 0.000000 1.658450 
# 
# 
# High freq. dielectric constant tensor:
#      x y z
#    x 1.713630 0.000000 0.000000 
#    y 0.000000 1.731160 0.000000 
#    z 0.000000 0.000000 1.673090 
# 
# From -- ./inp_files/22815.got.cif
#   From: 2010.03.12/outbox.cif.g09.slc.cpg/sg63_12_cif.got.tgz:22815.got - 2010.04.10 19:34:48.
