data_PCOD8259914
_publ_section_title
;
Structure prediction by ZEFSAII (Michael W. Deem and Ramdas Pophale) SiO2 
 PCOD8259914
Probable space group: C M C M
;
_chemical_formula_sum "Si O2"
_cell_formula_units_Z 96
_cell_length_a 26.714136
_cell_length_b 13.089681
_cell_length_c 15.533129
_cell_angle_alpha 90.000000
_cell_angle_beta 90.000000
_cell_angle_gamma 90.000000
_cell_volume 5431.617068
_symmetry_space_group_name_H-M "C M C M"
_symmetry_group_IT_number 63
_symmetry_cell_setting 'orthorhombic'
loop_
_space_group_symop_operation_xyz
x,y,z
-x,-y,1/2+z
x,-y,-z
-x,y,1/2-z
-x,-y,-z
x,y,1/2-z
-x,y,z
x,-y,1/2+z
1/2+x,1/2+y,z
1/2-x,1/2-y,1/2+z
1/2+x,1/2-y,-z
1/2-x,1/2+y,1/2-z
1/2-x,1/2-y,-z
1/2+x,1/2+y,1/2-z
1/2-x,1/2+y,z
1/2+x,1/2-y,1/2+z
loop_
_atom_site_type_symbol
_atom_site_label
_atom_site_fract_x
_atom_site_fract_y
_atom_site_fract_z
Si Si1 0.894156 0.380345 0.001744
Si Si2 0.559291 0.750838 0.350026
Si Si3 0.192336 0.774110 0.492773
Si Si4 0.442794 0.772202 0.651769
Si Si5 0.855777 0.125228 0.656964
Si Si6 0.875849 0.073731 0.081517
O O1 0.919438 0.343021 0.091101
O O2 0.839572 0.329725 0.991963
O O3 0.885643 0.500000 0.000000
O O4 0.928726 0.357305 0.918545
O O5 0.576744 0.764055 0.250000
O O6 0.500000 0.752417 0.355773
O O7 0.577262 0.642471 0.389422
O O8 0.250000 0.750000 0.500000
O O9 0.187710 0.834095 0.403491
O O10 0.171168 0.850828 0.565464
O O11 0.433664 0.812236 0.750000
O O12 0.500000 0.739219 0.639258
O O13 0.409631 0.672574 0.630578
O O14 0.839476 0.163111 0.750000
O O15 0.860391 0.002581 0.657598
O O16 0.888855 0.000000 0.000000
#
# Coordination Sequence:
#
# PCOD8259914 Si02
#       6
#    16  16  16  16  16  16
#     4  10  21  35  52  73  99 134 175 216 253 295
#     4  10  21  35  50  74 110 145 173 204 247 299
#     4   9  19  36  54  71  96 129 164 206 257 303
#     4   9  18  32  51  76 104 133 167 208 251 296
#     4   9  17  31  51  76 103 126 157 202 249 299
#     4   9  18  32  53  77 100 131 165 204 253 304
#
# _framework density 17.674295000000001
#
# number of rings (size 3 to 8) (size 9 to 14) (size 15 to 20)
#    0.000    2.667    0.000    2.000    0.000    5.000 
#    0.000    7.500    0.000    4.000    0.000    0.000 
#    0.000    0.000    0.000    0.000    0.000    0.000 
#
# Total GULP energy -594851.903557 kJ/mol
# GULP energy per Si atom -12392.747991 kJ/mol
# Density = 1.763407 g / cm^3
# Si number density = 17.674295 Si / 1000 Ang^3
#
#
#
# Elastic Constant Matrix: (Units=GPa)
#
#
# Indices 1 2 3 4 5 6 
#
# 1 105.7623 39.4356 38.5448 0.0000 0.0000 0.0000
# 2 39.4356 129.2912 38.6015 0.0000 0.0000 0.0000
# 3 38.5448 38.6015 89.2083 0.0000 0.0000 0.0000
# 4 0.0000 0.0000 0.0000 16.4262 0.0000 0.0000
# 5 0.0000 0.0000 0.0000 0.0000 18.4161 0.0000
# 6 0.0000 0.0000 0.0000 0.0000 0.0000 15.0451
#
#
#
# Elastic Compliance Matrix: (Units=1/GPa)
#
#
# Indices 1 2 3 4 5 6 
#
# 1 0.011833 -0.002392 -0.004078 0.000000 0.000000 0.000000
# 2 -0.002392 0.009365 -0.003019 0.000000 0.000000 0.000000
# 3 -0.004078 -0.003019 0.014278 0.000000 0.000000 0.000000
# 4 0.000000 0.000000 0.000000 0.060878 0.000000 0.000000
# 5 0.000000 0.000000 0.000000 0.000000 0.054300 0.000000
# 6 0.000000 0.000000 0.000000 0.000000 0.000000 0.066467
#
#
# Mechanical properties :
#
#
# Convention : Reuss Voigt Hill
#
# Bulk Modulus (GPa) = 60.60925 61.93620 61.27272
# Shear Modulus (GPa) = 20.69544 23.82282 22.25913
#
# Velocity S-wave (km/s) = 3.42560 3.67533 3.55266
# Velocity P-wave (km/s) = 7.07199 7.28903 7.18133
#
# Compressibility (1/GPa) = 0.01649913
#
# Stress axis : x y z
#
# Youngs Moduli (GPa) = 84.50831 106.77611 70.03750
#
# Poissons Ratio (x) = 0.25538 0.28560
# Poissons Ratio (y) = 0.20213 0.21145
# Poissons Ratio (z) = 0.34461 0.32237
#
# Static dielectric constant tensor:
#      x y z
#    x 3.025440 0.000000 0.000000 
#    y 0.000000 3.257160 0.000000 
#    z 0.000000 0.000000 3.641430 
# 
# 
# High freq. dielectric constant tensor:
#      x y z
#    x 1.664060 0.000000 0.000000 
#    y 0.000000 1.679160 0.000000 
#    z 0.000000 0.000000 1.696850 
# 
# From -- ./inp_files/48959.got.cif
#   From: 2010.03.12/outbox.cif.g09.slc.cpg/sg63_25_cif.got.tgz:48959.got - 2010.04.10 19:34:48.
