data_PCOD8259415
_publ_section_title
;
Structure prediction by ZEFSAII (Michael W. Deem and Ramdas Pophale) SiO2 
 PCOD8259415
Probable space group: C M C M
;
_chemical_formula_sum "Si O2"
_cell_formula_units_Z 96
_cell_length_a 22.385504
_cell_length_b 24.794385
_cell_length_c 8.766060
_cell_angle_alpha 90.000000
_cell_angle_beta 90.000000
_cell_angle_gamma 90.000000
_cell_volume 4865.468399
_symmetry_space_group_name_H-M "C M C M"
_symmetry_group_IT_number 63
_symmetry_cell_setting 'orthorhombic'
loop_
_space_group_symop_operation_xyz
x,y,z
-x,-y,1/2+z
x,-y,-z
-x,y,1/2-z
-x,-y,-z
x,y,1/2-z
-x,y,z
x,-y,1/2+z
1/2+x,1/2+y,z
1/2-x,1/2-y,1/2+z
1/2+x,1/2-y,-z
1/2-x,1/2+y,1/2-z
1/2-x,1/2-y,-z
1/2+x,1/2+y,1/2-z
1/2-x,1/2+y,z
1/2+x,1/2-y,1/2+z
loop_
_atom_site_type_symbol
_atom_site_label
_atom_site_fract_x
_atom_site_fract_y
_atom_site_fract_z
Si Si1 0.897674 0.668152 0.571460
Si Si2 0.773729 0.696254 0.430205
Si Si3 0.099293 0.055796 0.928955
Si Si4 0.500000 0.361372 0.431065
Si Si5 0.643389 0.945622 0.072213
Si Si6 0.500000 0.761265 0.929610
Si Si7 0.228426 0.095622 0.570165
O O1 0.909401 0.676636 0.750000
O O2 0.832458 0.686198 0.527088
O O3 0.900346 0.604303 0.527918
O O4 0.942986 0.704830 0.479600
O O5 0.786022 0.699846 0.250000
O O6 0.750000 0.750000 0.500000
O O7 0.725944 0.650000 0.470305
O O8 0.091145 0.050673 0.750000
O O9 0.058871 0.105997 0.988023
O O10 0.168606 0.063604 0.974251
O O11 0.076056 0.000000 0.000000
O O12 0.500000 0.357270 0.250000
O O13 0.500000 0.299971 0.498433
O O14 0.643316 0.953947 0.250000
O O15 0.712150 0.936699 0.018400
O O16 0.617242 0.000000 0.000000
O O17 0.500000 0.756836 0.750000
O O18 0.230247 0.109562 0.750000
#
# Coordination Sequence:
#
# PCOD8259415 Si02
#       7
#    16  16  16   8  16   8  16
#     4  10  22  41  60  85 119 156 193 241 298 345
#     4  11  22  36  57  85 117 152 193 242 291 352
#     4  10  20  36  57  81 115 153 193 243 292 345
#     4   9  21  38  56  81 111 150 195 245 299 342
#     4   9  18  33  55  83 115 148 187 233 288 349
#     4  11  23  40  63  89 114 154 206 249 297 353
#     4   9  19  34  53  81 116 154 190 233 292 348
#
# _framework density 19.730886000000002
#
# number of rings (size 3 to 8) (size 9 to 14) (size 15 to 20)
#    0.000    2.167    0.000    4.000    2.333    4.000 
#    0.000    2.083    0.000    0.000    0.000    0.000 
#    0.000    0.000    0.000    0.000    0.000    0.000 
#
# Total GULP energy -594977.787688 kJ/mol
# GULP energy per Si atom -12395.370577 kJ/mol
# Density = 1.968598 g / cm^3
# Si number density = 19.730886 Si / 1000 Ang^3
#
#
#
# Elastic Constant Matrix: (Units=GPa)
#
#
# Indices 1 2 3 4 5 6 
#
# 1 68.0974 50.2805 16.2973 0.0000 0.0000 0.0000
# 2 50.2805 183.5984 43.3227 0.0000 0.0000 0.0000
# 3 16.2973 43.3227 24.7107 0.0000 0.0000 0.0000
# 4 0.0000 0.0000 0.0000 36.9261 0.0000 0.0000
# 5 0.0000 0.0000 0.0000 0.0000 26.8204 0.0000
# 6 0.0000 0.0000 0.0000 0.0000 0.0000 26.0462
#
#
#
# Elastic Compliance Matrix: (Units=1/GPa)
#
#
# Indices 1 2 3 4 5 6 
#
# 1 0.018878 -0.003807 -0.005776 0.000000 0.000000 0.000000
# 2 -0.003807 0.010058 -0.015122 0.000000 0.000000 0.000000
# 3 -0.005776 -0.015122 0.070790 0.000000 0.000000 0.000000
# 4 0.000000 0.000000 0.000000 0.027081 0.000000 0.000000
# 5 0.000000 0.000000 0.000000 0.000000 0.037285 0.000000
# 6 0.000000 0.000000 0.000000 0.000000 0.000000 0.038393
#
#
# Mechanical properties :
#
#
# Convention : Reuss Voigt Hill
#
# Bulk Modulus (GPa) = 19.87474 55.13419 37.50446
# Shear Modulus (GPa) = 18.61037 29.05891 23.83464
#
# Velocity S-wave (km/s) = 3.07450 3.84182 3.47938
# Velocity P-wave (km/s) = 4.76426 6.90530 5.93218
#
# Compressibility (1/GPa) = 0.05031512
#
# Stress axis : x y z
#
# Youngs Moduli (GPa) = 52.97112 99.42787 14.12631
#
# Poissons Ratio (x) = 0.37853 0.08160
# Poissons Ratio (y) = 0.20166 0.21362
# Poissons Ratio (z) = 0.30597 1.50355
#
# Static dielectric constant tensor:
#      x y z
#    x 3.741400 0.000000 0.000000 
#    y 0.000000 3.959690 0.000000 
#    z 0.000000 0.000000 4.038500 
# 
# 
# High freq. dielectric constant tensor:
#      x y z
#    x 1.759240 0.000000 0.000000 
#    y 0.000000 1.784660 0.000000 
#    z 0.000000 0.000000 1.755570 
# 
# From -- ./inp_files/10553.got.cif
#   From: 2010.03.12/outbox.cif.g09.slc.cpg/sg63_6_cif.got.tgz:10553.got - 2010.04.10 19:34:48.
