data_PCOD8259625
_publ_section_title
;
Structure prediction by ZEFSAII (Michael W. Deem and Ramdas Pophale) SiO2 
 PCOD8259625
Probable space group: C M C M
;
_chemical_formula_sum "Si O2"
_cell_formula_units_Z 80
_cell_length_a 18.526343
_cell_length_b 13.633823
_cell_length_c 17.270438
_cell_angle_alpha 90.000000
_cell_angle_beta 90.000000
_cell_angle_gamma 90.000000
_cell_volume 4362.251532
_symmetry_space_group_name_H-M "C M C M"
_symmetry_group_IT_number 63
_symmetry_cell_setting 'orthorhombic'
loop_
_space_group_symop_operation_xyz
x,y,z
-x,-y,1/2+z
x,-y,-z
-x,y,1/2-z
-x,-y,-z
x,y,1/2-z
-x,y,z
x,-y,1/2+z
1/2+x,1/2+y,z
1/2-x,1/2-y,1/2+z
1/2+x,1/2-y,-z
1/2-x,1/2+y,1/2-z
1/2-x,1/2-y,-z
1/2+x,1/2+y,1/2-z
1/2-x,1/2+y,z
1/2+x,1/2-y,1/2+z
loop_
_atom_site_type_symbol
_atom_site_label
_atom_site_fract_x
_atom_site_fract_y
_atom_site_fract_z
Si Si1 0.000000 0.885114 0.502252
Si Si2 0.780346 0.335321 0.665002
Si Si3 0.349855 0.306193 0.453500
Si Si4 0.230627 0.464513 0.418364
Si Si5 0.500000 0.711117 0.162339
Si Si6 0.652212 0.217375 0.620567
O O1 0.067070 0.837853 0.457367
O O2 0.000000 0.869762 0.595249
O O3 0.000000 0.000000 0.500000
O O4 0.816045 0.344944 0.750000
O O5 0.837462 0.279415 0.609684
O O6 0.756280 0.442251 0.635636
O O7 0.706523 0.274290 0.676679
O O8 0.304194 0.402864 0.431753
O O9 0.328185 0.262751 0.536533
O O10 0.199596 0.500000 0.500000
O O11 0.169611 0.397775 0.378950
O O12 0.500000 0.666800 0.250000
O O13 0.429356 0.777069 0.149853
#
# Coordination Sequence:
#
# PCOD8259625 Si02
#       6
#     8  16  16  16   8  16
#     4  10  22  38  63  87 112 156 200 220 285 356
#     4  11  22  35  56  86 116 147 191 240 288 333
#     4  10  20  37  59  84 115 152 189 239 279 350
#     4  11  18  34  61  83 111 148 193 235 280 337
#     4  10  22  38  56  82 117 145 184 243 283 324
#     4  10  20  37  59  81 110 152 190 231 288 346
#
# _framework density 18.339153
#
# number of rings (size 3 to 8) (size 9 to 14) (size 15 to 20)
#    0.000    1.600    4.000    2.400    2.800    4.000 
#    0.000    3.000    0.000    0.000    0.000    0.000 
#    0.000    0.000    0.000    0.000    0.000    0.000 
#
# Total GULP energy -495839.427225 kJ/mol
# GULP energy per Si atom -12395.985681 kJ/mol
# Density = 1.829741 g / cm^3
# Si number density = 18.339153 Si / 1000 Ang^3
#
#
#
# Elastic Constant Matrix: (Units=GPa)
#
#
# Indices 1 2 3 4 5 6 
#
# 1 108.8807 43.0103 34.7529 0.0000 0.0000 0.0000
# 2 43.0103 129.2189 44.8287 0.0000 0.0000 0.0000
# 3 34.7529 44.8287 124.9677 0.0000 0.0000 0.0000
# 4 0.0000 0.0000 0.0000 15.8253 0.0000 0.0000
# 5 0.0000 0.0000 0.0000 0.0000 18.8432 0.0000
# 6 0.0000 0.0000 0.0000 0.0000 0.0000 13.7629
#
#
#
# Elastic Compliance Matrix: (Units=1/GPa)
#
#
# Indices 1 2 3 4 5 6 
#
# 1 0.010993 -0.002968 -0.001992 0.000000 0.000000 0.000000
# 2 -0.002968 0.009640 -0.002633 0.000000 0.000000 0.000000
# 3 -0.001992 -0.002633 0.009501 0.000000 0.000000 0.000000
# 4 0.000000 0.000000 0.000000 0.063190 0.000000 0.000000
# 5 0.000000 0.000000 0.000000 0.000000 0.053070 0.000000
# 6 0.000000 0.000000 0.000000 0.000000 0.000000 0.072659
#
#
# Mechanical properties :
#
#
# Convention : Reuss Voigt Hill
#
# Bulk Modulus (GPa) = 66.90114 67.58345 67.24229
# Shear Modulus (GPa) = 20.90128 25.71798 23.30963
#
# Velocity S-wave (km/s) = 3.37962 3.74886 3.56902
# Velocity P-wave (km/s) = 7.19640 7.46128 7.33004
#
# Compressibility (1/GPa) = 0.01494743
#
# Stress axis : x y z
#
# Youngs Moduli (GPa) = 90.97032 103.73500 105.25671
#
# Poissons Ratio (x) = 0.30785 0.20972
# Poissons Ratio (y) = 0.26997 0.27712
# Poissons Ratio (z) = 0.18125 0.27311
#
# Static dielectric constant tensor:
#      x y z
#    x 3.406410 0.000000 0.000000 
#    y 0.000000 3.446530 0.000000 
#    z 0.000000 0.000000 3.448850 
# 
# 
# High freq. dielectric constant tensor:
#      x y z
#    x 1.697550 0.000000 0.000000 
#    y 0.000000 1.714540 0.000000 
#    z 0.000000 0.000000 1.714310 
# 
# From -- ./inp_files/46815.got.cif
#   From: 2010.03.12/outbox.cif.g09.slc.cpg/sg63_24_cif.got.tgz:46815.got - 2010.04.10 19:34:48.
