data_PCOD8259840
_publ_section_title
;
Structure prediction by ZEFSAII (Michael W. Deem and Ramdas Pophale) SiO2 
 PCOD8259840
Probable space group: C M C M
;
_chemical_formula_sum "Si O2"
_cell_formula_units_Z 88
_cell_length_a 11.599279
_cell_length_b 13.426702
_cell_length_c 28.400689
_cell_angle_alpha 90.000000
_cell_angle_beta 90.000000
_cell_angle_gamma 90.000000
_cell_volume 4423.125081
_symmetry_space_group_name_H-M "C M C M"
_symmetry_group_IT_number 63
_symmetry_cell_setting 'orthorhombic'
loop_
_space_group_symop_operation_xyz
x,y,z
-x,-y,1/2+z
x,-y,-z
-x,y,1/2-z
-x,-y,-z
x,y,1/2-z
-x,y,z
x,-y,1/2+z
1/2+x,1/2+y,z
1/2-x,1/2-y,1/2+z
1/2+x,1/2-y,-z
1/2-x,1/2+y,1/2-z
1/2-x,1/2-y,-z
1/2+x,1/2+y,1/2-z
1/2-x,1/2+y,z
1/2+x,1/2-y,1/2+z
loop_
_atom_site_type_symbol
_atom_site_label
_atom_site_fract_x
_atom_site_fract_y
_atom_site_fract_z
Si Si1 0.000000 0.073755 0.374955
Si Si2 0.500000 0.424354 0.042723
Si Si3 0.136096 0.418804 0.120103
Si Si4 0.231182 0.200163 0.805630
Si Si5 0.000000 0.911457 0.195117
Si Si6 0.248289 0.364900 0.625823
Si Si7 0.720474 0.292440 0.449631
O O1 0.886332 0.139194 0.383163
O O2 0.000000 0.979127 0.408194
O O3 0.000000 0.024689 0.323221
O O4 0.389414 0.357294 0.040248
O O5 0.500000 0.500000 0.000000
O O6 0.165708 0.355914 0.167040
O O7 0.198121 0.525110 0.124415
O O8 0.179804 0.361459 0.073402
O O9 0.000000 0.434575 0.116532
O O10 0.254219 0.197399 0.750000
O O11 0.223723 0.314713 0.823226
O O12 0.112907 0.147705 0.821466
O O13 0.000000 0.921979 0.250000
O O14 0.190215 0.298833 0.585055
O O15 0.750000 0.250000 0.500000
#
# Coordination Sequence:
#
# PCOD8259840 Si02
#       7
#     8   8  16  16   8  16  16
#     4  12  20  42  66  88 122 171 213 266 312 376
#     4  12  24  44  70  91 124 169 216 264 314 381
#     4  11  25  43  64  93 134 169 211 266 325 386
#     4  10  23  42  64  95 131 173 220 268 320 378
#     4  10  20  40  66  92 127 169 224 273 307 371
#     4  11  24  40  66  92 128 170 216 260 326 379
#     4  11  26  43  66  96 127 165 212 266 318 387
#
# _framework density 19.895436
#
# number of rings (size 3 to 8) (size 9 to 14) (size 15 to 20)
#    0.000    1.091    3.636    2.182    8.909    1.818 
#    0.000    0.909    0.000    0.000    0.000    0.000 
#    0.000    0.000    0.000    0.000    0.000    0.000 
#
# Total GULP energy -545640.427319 kJ/mol
# GULP energy per Si atom -12400.918803 kJ/mol
# Density = 1.985015 g / cm^3
# Si number density = 19.895436 Si / 1000 Ang^3
#
#
#
# Elastic Constant Matrix: (Units=GPa)
#
#
# Indices 1 2 3 4 5 6 
#
# 1 124.4138 31.2039 45.2378 0.0000 0.0000 0.0000
# 2 31.2039 117.5096 55.2647 0.0000 0.0000 0.0000
# 3 45.2378 55.2647 105.2025 0.0000 0.0000 0.0000
# 4 0.0000 0.0000 0.0000 41.5730 0.0000 0.0000
# 5 0.0000 0.0000 0.0000 0.0000 33.8581 0.0000
# 6 0.0000 0.0000 0.0000 0.0000 0.0000 39.7486
#
#
#
# Elastic Compliance Matrix: (Units=1/GPa)
#
#
# Indices 1 2 3 4 5 6 
#
# 1 0.009584 -0.000806 -0.003698 0.000000 0.000000 0.000000
# 2 -0.000806 0.011370 -0.005626 0.000000 0.000000 0.000000
# 3 -0.003698 -0.005626 0.014051 0.000000 0.000000 0.000000
# 4 0.000000 0.000000 0.000000 0.024054 0.000000 0.000000
# 5 0.000000 0.000000 0.000000 0.000000 0.029535 0.000000
# 6 0.000000 0.000000 0.000000 0.000000 0.000000 0.025158
#
#
# Mechanical properties :
#
#
# Convention : Reuss Voigt Hill
#
# Bulk Modulus (GPa) = 67.81864 67.83766 67.82815
# Shear Modulus (GPa) = 35.98974 37.39723 36.69348
#
# Velocity S-wave (km/s) = 4.25778 4.34024 4.29921
# Velocity P-wave (km/s) = 7.63761 7.69987 7.66881
#
# Compressibility (1/GPa) = 0.01474521
#
# Stress axis : x y z
#
# Youngs Moduli (GPa) = 104.33567 87.95081 71.16808
#
# Poissons Ratio (x) = 0.07088 0.26318
# Poissons Ratio (y) = 0.08409 0.40041
# Poissons Ratio (z) = 0.38584 0.49484
#
# Static dielectric constant tensor:
#      x y z
#    x 3.746690 0.000000 0.000000 
#    y 0.000000 3.750970 0.000000 
#    z 0.000000 0.000000 3.640570 
# 
# 
# High freq. dielectric constant tensor:
#      x y z
#    x 1.780140 0.000000 0.000000 
#    y 0.000000 1.790040 0.000000 
#    z 0.000000 0.000000 1.782330 
# 
# From -- ./inp_files/72632.got.cif
#   From: 2010.03.12/outbox.cif.g09.slc.cpg/sg63_37_cif.got.tgz:72632.got - 2010.04.10 19:34:48.
