data_PCOD8259469
_publ_section_title
;
Structure prediction by ZEFSAII (Michael W. Deem and Ramdas Pophale) SiO2 
 PCOD8259469
Probable space group: C M C M
;
_chemical_formula_sum "Si O2"
_cell_formula_units_Z 56
_cell_length_a 25.369410
_cell_length_b 14.499178
_cell_length_c 8.738095
_cell_angle_alpha 90.000000
_cell_angle_beta 90.000000
_cell_angle_gamma 90.000000
_cell_volume 3214.182342
_symmetry_space_group_name_H-M "C M C M"
_symmetry_group_IT_number 63
_symmetry_cell_setting 'orthorhombic'
loop_
_space_group_symop_operation_xyz
x,y,z
-x,-y,1/2+z
x,-y,-z
-x,y,1/2-z
-x,-y,-z
x,y,1/2-z
-x,y,z
x,-y,1/2+z
1/2+x,1/2+y,z
1/2-x,1/2-y,1/2+z
1/2+x,1/2-y,-z
1/2-x,1/2+y,1/2-z
1/2-x,1/2-y,-z
1/2+x,1/2+y,1/2-z
1/2-x,1/2+y,z
1/2+x,1/2-y,1/2+z
loop_
_atom_site_type_symbol
_atom_site_label
_atom_site_fract_x
_atom_site_fract_y
_atom_site_fract_z
Si Si1 0.887154 0.901608 0.422826
Si Si2 0.000000 0.600790 0.431186
Si Si3 0.909334 0.721775 0.569627
Si Si4 0.806142 0.756747 0.077074
O O1 0.908648 0.909145 0.250000
O O2 0.922711 0.826954 0.515528
O O3 0.826653 0.863394 0.423585
O O4 0.890178 0.000000 0.500000
O O5 0.000000 0.500000 0.500000
O O6 0.947985 0.652144 0.486937
O O7 0.000000 0.595373 0.250000
O O8 0.915861 0.712800 0.750000
O O9 0.849364 0.696432 0.517194
O O10 0.802476 0.718792 0.250000
O O11 0.750000 0.750000 0.000000
#
# Coordination Sequence:
#
# PCOD8259469 Si02
#       4
#    16   8  16  16
#     4   9  18  32  53  81 112 147 185 227 280 340
#     4  12  24  42  63  86 115 150 196 244 292 348
#     4  10  20  36  58  83 114 151 189 234 289 342
#     4   9  18  32  53  80 112 149 191 236 286 339
#
# _framework density 17.422782000000002
#
# number of rings (size 3 to 8) (size 9 to 14) (size 15 to 20)
#    1.714    0.571    0.000    4.714    0.000    0.000 
#    0.000    2.143    0.000    3.429    0.000    0.000 
#    0.000    0.000    0.000    0.000    0.000    0.000 
#
# Total GULP energy -346867.654148 kJ/mol
# GULP energy per Si atom -12388.130505 kJ/mol
# Density = 1.738313 g / cm^3
# Si number density = 17.422782 Si / 1000 Ang^3
#
#
#
# Elastic Constant Matrix: (Units=GPa)
#
#
# Indices 1 2 3 4 5 6 
#
# 1 113.0850 54.6665 57.3020 0.0000 0.0000 0.0000
# 2 54.6665 116.8067 61.9755 0.0000 0.0000 0.0000
# 3 57.3020 61.9755 184.2681 0.0000 0.0000 0.0000
# 4 0.0000 0.0000 0.0000 32.8296 0.0000 0.0000
# 5 0.0000 0.0000 0.0000 0.0000 33.0948 0.0000
# 6 0.0000 0.0000 0.0000 0.0000 0.0000 16.1216
#
#
#
# Elastic Compliance Matrix: (Units=1/GPa)
#
#
# Indices 1 2 3 4 5 6 
#
# 1 0.012164 -0.004486 -0.002274 0.000000 0.000000 0.000000
# 2 -0.004486 0.012075 -0.002666 0.000000 0.000000 0.000000
# 3 -0.002274 -0.002666 0.007031 0.000000 0.000000 0.000000
# 4 0.000000 0.000000 0.000000 0.030460 0.000000 0.000000
# 5 0.000000 0.000000 0.000000 0.000000 0.030216 0.000000
# 6 0.000000 0.000000 0.000000 0.000000 0.000000 0.062029
#
#
# Mechanical properties :
#
#
# Convention : Reuss Voigt Hill
#
# Bulk Modulus (GPa) = 80.53259 84.67197 82.60228
# Shear Modulus (GPa) = 28.25391 32.42360 30.33875
#
# Velocity S-wave (km/s) = 4.03136 4.31860 4.17745
# Velocity P-wave (km/s) = 8.24573 8.57735 8.41318
#
# Compressibility (1/GPa) = 0.01241733
#
# Stress axis : x y z
#
# Youngs Moduli (GPa) = 82.21130 82.81244 142.23404
#
# Poissons Ratio (x) = 0.37153 0.32339
# Poissons Ratio (y) = 0.36883 0.37923
# Poissons Ratio (z) = 0.18692 0.22080
#
# Static dielectric constant tensor:
#      x y z
#    x 3.065400 0.000000 0.000000 
#    y 0.000000 3.027420 0.000000 
#    z 0.000000 0.000000 3.485160 
# 
# 
# High freq. dielectric constant tensor:
#      x y z
#    x 1.658200 0.000000 0.000000 
#    y 0.000000 1.649000 0.000000 
#    z 0.000000 0.000000 1.698430 
# 
# From -- ./inp_files/11434.got.cif
#   From: 2010.03.12/outbox.cif.g09.slc.cpg/sg63_6_cif.got.tgz:11434.got - 2010.04.10 19:34:48.
