data_PCOD8259503
_publ_section_title
;
Structure prediction by ZEFSAII (Michael W. Deem and Ramdas Pophale) SiO2 
 PCOD8259503
Probable space group: C M C M
;
_chemical_formula_sum "Si O2"
_cell_formula_units_Z 96
_cell_length_a 8.956490
_cell_length_b 19.607268
_cell_length_c 29.174313
_cell_angle_alpha 90.000000
_cell_angle_beta 90.000000
_cell_angle_gamma 90.000000
_cell_volume 5123.368200
_symmetry_space_group_name_H-M "C M C M"
_symmetry_group_IT_number 63
_symmetry_cell_setting 'orthorhombic'
loop_
_space_group_symop_operation_xyz
x,y,z
-x,-y,1/2+z
x,-y,-z
-x,y,1/2-z
-x,-y,-z
x,y,1/2-z
-x,y,z
x,-y,1/2+z
1/2+x,1/2+y,z
1/2-x,1/2-y,1/2+z
1/2+x,1/2-y,-z
1/2-x,1/2+y,1/2-z
1/2-x,1/2-y,-z
1/2+x,1/2+y,1/2-z
1/2-x,1/2+y,z
1/2+x,1/2-y,1/2+z
loop_
_atom_site_type_symbol
_atom_site_label
_atom_site_fract_x
_atom_site_fract_y
_atom_site_fract_z
Si Si1 0.677009 0.388069 0.199605
Si Si2 0.831885 0.433540 0.469598
Si Si3 0.677186 0.513503 0.880255
Si Si4 0.825956 0.735844 0.303082
Si Si5 0.823587 0.184944 0.022474
Si Si6 0.676120 0.357391 0.877369
O O1 0.741524 0.405981 0.250000
O O2 0.500000 0.385751 0.202177
O O3 0.730527 0.446325 0.164996
O O4 0.731155 0.312334 0.184678
O O5 0.835133 0.500000 0.500000
O O6 0.762218 0.449633 0.420861
O O7 0.725537 0.380269 0.494130
O O8 0.000000 0.404445 0.463471
O O9 0.500000 0.518367 0.888519
O O10 0.731105 0.435633 0.875886
O O11 0.791423 0.719524 0.250000
O O12 0.741390 0.681888 0.334240
O O13 0.000000 0.728739 0.313568
O O14 0.770079 0.177145 0.075155
O O15 0.000000 0.191734 0.019570
O O16 0.750000 0.250000 0.000000
O O17 0.500000 0.355037 0.873424
#
# Coordination Sequence:
#
# PCOD8259503 Si02
#       6
#    16  16  16  16  16  16
#     4   8  16  33  57  84 109 138 183 230 275 337
#     4  11  23  39  59  84 116 155 192 232 284 343
#     4  10  20  36  59  85 111 148 189 234 288 337
#     4   9  19  36  57  81 111 147 187 231 280 338
#     4  11  24  41  59  84 118 153 193 241 287 342
#     4  10  22  37  55  83 116 145 185 239 288 334
#
# _framework density 18.737673000000001
#
# number of rings (size 3 to 8) (size 9 to 14) (size 15 to 20)
#    0.000    2.167    1.667    2.000    2.333    3.667 
#    0.000    1.667    0.000    1.500    0.000    0.000 
#    0.000    0.000    0.000    0.000    0.000    0.000 
#
# Total GULP energy -595178.456735 kJ/mol
# GULP energy per Si atom -12399.551182 kJ/mol
# Density = 1.869503 g / cm^3
# Si number density = 18.737673 Si / 1000 Ang^3
#
#
#
# Elastic Constant Matrix: (Units=GPa)
#
#
# Indices 1 2 3 4 5 6 
#
# 1 36.1384 33.5918 35.9137 0.0000 0.0000 0.0000
# 2 33.5918 105.0833 66.2391 0.0000 0.0000 0.0000
# 3 35.9137 66.2391 128.7193 0.0000 0.0000 0.0000
# 4 0.0000 0.0000 0.0000 40.3032 0.0000 0.0000
# 5 0.0000 0.0000 0.0000 0.0000 33.9395 0.0000
# 6 0.0000 0.0000 0.0000 0.0000 0.0000 31.0340
#
#
#
# Elastic Compliance Matrix: (Units=1/GPa)
#
#
# Indices 1 2 3 4 5 6 
#
# 1 0.043664 -0.009293 -0.007400 0.000000 0.000000 0.000000
# 2 -0.009293 0.016063 -0.005673 0.000000 0.000000 0.000000
# 3 -0.007400 -0.005673 0.012753 0.000000 0.000000 0.000000
# 4 0.000000 0.000000 0.000000 0.024812 0.000000 0.000000
# 5 0.000000 0.000000 0.000000 0.000000 0.029464 0.000000
# 6 0.000000 0.000000 0.000000 0.000000 0.000000 0.032223
#
#
# Mechanical properties :
#
#
# Convention : Reuss Voigt Hill
#
# Bulk Modulus (GPa) = 36.04030 60.15892 48.09961
# Shear Modulus (GPa) = 23.47840 30.00175 26.74008
#
# Velocity S-wave (km/s) = 3.54362 4.00577 3.78176
# Velocity P-wave (km/s) = 6.00157 7.31919 6.69289
#
# Compressibility (1/GPa) = 0.02774672
#
# Stress axis : x y z
#
# Youngs Moduli (GPa) = 22.90206 62.25445 78.41279
#
# Poissons Ratio (x) = 0.57855 0.58028
# Poissons Ratio (y) = 0.21284 0.44485
# Poissons Ratio (z) = 0.16948 0.35318
#
# Static dielectric constant tensor:
#      x y z
#    x 3.353110 0.000000 0.000000 
#    y 0.000000 3.613540 0.000000 
#    z 0.000000 0.000000 3.943900 
# 
# 
# High freq. dielectric constant tensor:
#      x y z
#    x 1.709120 0.000000 0.000000 
#    y 0.000000 1.736640 0.000000 
#    z 0.000000 0.000000 1.739460 
# 
# From -- ./inp_files/66877.got.cif
#   From: 2010.03.12/outbox.cif.g09.slc.cpg/sg63_34_cif.got.tgz:66877.got - 2010.04.10 19:34:48.
