data_PCOD8259319
_publ_section_title
;
Structure prediction by ZEFSAII (Michael W. Deem and Ramdas Pophale) SiO2 
 PCOD8259319
Probable space group: C M C M
;
_chemical_formula_sum "Si O2"
_cell_formula_units_Z 112
_cell_length_a 13.675944
_cell_length_b 14.936095
_cell_length_c 27.933513
_cell_angle_alpha 90.000000
_cell_angle_beta 90.000000
_cell_angle_gamma 90.000000
_cell_volume 5705.844586
_symmetry_space_group_name_H-M "C M C M"
_symmetry_group_IT_number 63
_symmetry_cell_setting 'orthorhombic'
loop_
_space_group_symop_operation_xyz
x,y,z
-x,-y,1/2+z
x,-y,-z
-x,y,1/2-z
-x,-y,-z
x,y,1/2-z
-x,y,z
x,-y,1/2+z
1/2+x,1/2+y,z
1/2-x,1/2-y,1/2+z
1/2+x,1/2-y,-z
1/2-x,1/2+y,1/2-z
1/2-x,1/2-y,-z
1/2+x,1/2+y,1/2-z
1/2-x,1/2+y,z
1/2+x,1/2-y,1/2+z
loop_
_atom_site_type_symbol
_atom_site_label
_atom_site_fract_x
_atom_site_fract_y
_atom_site_fract_z
Si Si1 0.111650 0.211433 0.196151
Si Si2 0.740331 0.966273 0.386041
Si Si3 0.608650 0.922386 0.304171
Si Si4 0.890502 0.222323 0.015902
Si Si5 0.611069 0.080145 0.531307
Si Si6 0.763227 0.169121 0.105818
Si Si7 0.384217 0.321307 0.089388
O O1 0.145053 0.182887 0.250000
O O2 0.121086 0.316970 0.190623
O O3 0.178303 0.166510 0.155801
O O4 0.000000 0.180771 0.187917
O O5 0.693751 0.970937 0.333489
O O6 0.669102 0.907461 0.419356
O O7 0.843857 0.912849 0.386101
O O8 0.741692 0.066286 0.406321
O O9 0.622956 0.953770 0.250000
O O10 0.500000 0.950435 0.321947
O O11 0.882059 0.327315 0.001961
O O12 0.823548 0.202993 0.060687
O O13 0.000000 0.197416 0.031699
O O14 0.861662 0.169666 0.967618
O O15 0.500000 0.056376 0.544928
O O16 0.656933 0.000000 0.500000
O O17 0.667771 0.232516 0.111264
O O18 0.500000 0.313225 0.099323
#
# Coordination Sequence:
#
# PCOD8259319 Si02
#       7
#    16  16  16  16  16  16  16
#     4   9  18  36  64  92 114 140 187 253 309 349
#     4  12  24  35  61  87 119 162 201 244 293 370
#     4   9  18  37  65  92 115 142 188 252 311 354
#     4  10  21  39  61  82 114 155 202 253 299 346
#     4  10  20  35  59  89 116 145 193 252 304 353
#     4  12  23  37  62  86 117 163 205 243 294 369
#     4  11  25  42  56  83 128 168 201 249 300 354
#
# _framework density 19.628996000000001
#
# number of rings (size 3 to 8) (size 9 to 14) (size 15 to 20)
#    0.000    1.571    2.857    3.000    2.000    6.286 
#    0.000    1.429    0.000    1.714    0.000    0.000 
#    0.000    0.000    0.000    0.000    0.000    0.000 
#
# Total GULP energy -694311.857329 kJ/mol
# GULP energy per Si atom -12398.426024 kJ/mol
# Density = 1.958432 g / cm^3
# Si number density = 19.628996 Si / 1000 Ang^3
#
#
#
# Elastic Constant Matrix: (Units=GPa)
#
#
# Indices 1 2 3 4 5 6 
#
# 1 104.4252 35.2201 53.0445 0.0000 0.0000 0.0000
# 2 35.2201 91.8563 21.3952 0.0000 0.0000 0.0000
# 3 53.0445 21.3952 88.0154 0.0000 0.0000 0.0000
# 4 0.0000 0.0000 0.0000 19.4600 0.0000 0.0000
# 5 0.0000 0.0000 0.0000 0.0000 34.9298 0.0000
# 6 0.0000 0.0000 0.0000 0.0000 0.0000 18.2282
#
#
#
# Elastic Compliance Matrix: (Units=1/GPa)
#
#
# Indices 1 2 3 4 5 6 
#
# 1 0.014991 -0.003862 -0.008096 0.000000 0.000000 0.000000
# 2 -0.003862 0.012535 -0.000719 0.000000 0.000000 0.000000
# 3 -0.008096 -0.000719 0.016416 0.000000 0.000000 0.000000
# 4 0.000000 0.000000 0.000000 0.051388 0.000000 0.000000
# 5 0.000000 0.000000 0.000000 0.000000 0.028629 0.000000
# 6 0.000000 0.000000 0.000000 0.000000 0.000000 0.054860
#
#
# Mechanical properties :
#
#
# Convention : Reuss Voigt Hill
#
# Bulk Modulus (GPa) = 53.80174 55.95737 54.87956
# Shear Modulus (GPa) = 23.76769 26.16608 24.96689
#
# Velocity S-wave (km/s) = 3.48350 3.65503 3.57029
# Velocity P-wave (km/s) = 6.60670 6.81041 6.70933
#
# Compressibility (1/GPa) = 0.01858676
#
# Stress axis : x y z
#
# Youngs Moduli (GPa) = 66.70477 79.77634 60.91703
#
# Poissons Ratio (x) = 0.30813 0.49319
# Poissons Ratio (y) = 0.25764 0.04382
# Poissons Ratio (z) = 0.54004 0.05739
#
# Static dielectric constant tensor:
#      x y z
#    x 3.683380 0.000000 0.000000 
#    y 0.000000 3.502260 0.000000 
#    z 0.000000 0.000000 3.668160 
# 
# 
# High freq. dielectric constant tensor:
#      x y z
#    x 1.765440 0.000000 0.000000 
#    y 0.000000 1.749940 0.000000 
#    z 0.000000 0.000000 1.759760 
# 
# From -- ./inp_files/69380.got.cif
#   From: 2010.03.12/outbox.cif.g09.slc.cpg/sg63_35_cif.got.tgz:69380.got - 2010.04.10 19:34:48.
