data_PCOD8259951
_publ_section_title
;
Structure prediction by ZEFSAII (Michael W. Deem and Ramdas Pophale) SiO2 
 PCOD8259951
Probable space group: C M C M
;
_chemical_formula_sum "Si O2"
_cell_formula_units_Z 96
_cell_length_a 23.210524
_cell_length_b 25.509936
_cell_length_c 8.670999
_cell_angle_alpha 90.000000
_cell_angle_beta 90.000000
_cell_angle_gamma 90.000000
_cell_volume 5134.089679
_symmetry_space_group_name_H-M "C M C M"
_symmetry_group_IT_number 63
_symmetry_cell_setting 'orthorhombic'
loop_
_space_group_symop_operation_xyz
x,y,z
-x,-y,1/2+z
x,-y,-z
-x,y,1/2-z
-x,-y,-z
x,y,1/2-z
-x,y,z
x,-y,1/2+z
1/2+x,1/2+y,z
1/2-x,1/2-y,1/2+z
1/2+x,1/2-y,-z
1/2-x,1/2+y,1/2-z
1/2-x,1/2-y,-z
1/2+x,1/2+y,1/2-z
1/2-x,1/2+y,z
1/2+x,1/2-y,1/2+z
loop_
_atom_site_type_symbol
_atom_site_label
_atom_site_fract_x
_atom_site_fract_y
_atom_site_fract_z
Si Si1 0.866864 0.344409 0.430572
Si Si2 0.863374 0.149728 0.931695
Si Si3 0.249674 0.692035 0.068577
Si Si4 0.433100 0.752269 0.572488
Si Si5 0.064943 0.446035 0.432084
Si Si6 0.565517 0.444502 0.568035
O O1 0.851702 0.344757 0.250000
O O2 0.810054 0.336045 0.530495
O O3 0.912968 0.299000 0.462990
O O4 0.894491 0.398866 0.487115
O O5 0.860575 0.142484 0.750000
O O6 0.900439 0.200076 0.979758
O O7 0.799444 0.156319 0.997064
O O8 0.891698 0.098824 0.004224
O O9 0.258203 0.696604 0.250000
O O10 0.250000 0.750000 0.000000
O O11 0.419004 0.766195 0.750000
O O12 0.500000 0.742042 0.545934
O O13 0.090169 0.500000 0.500000
O O14 0.064485 0.449833 0.250000
O O15 0.000000 0.436395 0.494683
O O16 0.585232 0.500000 0.500000
O O17 0.570798 0.446975 0.750000
O O18 0.500000 0.431552 0.516202
#
# Coordination Sequence:
#
# PCOD8259951 Si02
#       6
#    16  16  16  16  16  16
#     4  11  22  37  58  84 115 152 194 240 289 345
#     4  11  22  38  60  86 117 154 196 242 291 347
#     4  12  24  40  60  84 114 154 198 240 291 349
#     4  10  21  35  54  83 117 151 188 234 289 348
#     4   9  19  36  58  85 116 151 190 233 284 339
#     4  10  21  38  61  89 121 158 198 241 293 350
#
# _framework density 18.698544999999999
#
# number of rings (size 3 to 8) (size 9 to 14) (size 15 to 20)
#    0.000    1.500    1.667    4.000    0.000    4.667 
#    0.000    2.500    0.000    2.000    0.000    0.000 
#    0.000    0.000    0.000    0.000    0.000    0.000 
#
# Total GULP energy -595455.981289 kJ/mol
# GULP energy per Si atom -12405.332944 kJ/mol
# Density = 1.865599 g / cm^3
# Si number density = 18.698545 Si / 1000 Ang^3
#
#
#
# Elastic Constant Matrix: (Units=GPa)
#
#
# Indices 1 2 3 4 5 6 
#
# 1 83.6816 53.1833 5.0455 0.0000 0.0000 0.0000
# 2 53.1833 145.6924 31.5594 0.0000 0.0000 0.0000
# 3 5.0455 31.5594 41.6618 0.0000 0.0000 0.0000
# 4 0.0000 0.0000 0.0000 34.7595 0.0000 0.0000
# 5 0.0000 0.0000 0.0000 0.0000 32.0673 0.0000
# 6 0.0000 0.0000 0.0000 0.0000 0.0000 22.6690
#
#
#
# Elastic Compliance Matrix: (Units=1/GPa)
#
#
# Indices 1 2 3 4 5 6 
#
# 1 0.015857 -0.006427 0.002948 0.000000 0.000000 0.000000
# 2 -0.006427 0.010816 -0.007415 0.000000 0.000000 0.000000
# 3 0.002948 -0.007415 0.029263 0.000000 0.000000 0.000000
# 4 0.000000 0.000000 0.000000 0.028769 0.000000 0.000000
# 5 0.000000 0.000000 0.000000 0.000000 0.031184 0.000000
# 6 0.000000 0.000000 0.000000 0.000000 0.000000 0.044113
#
#
# Mechanical properties :
#
#
# Convention : Reuss Voigt Hill
#
# Bulk Modulus (GPa) = 29.28421 50.06805 39.67613
# Shear Modulus (GPa) = 25.88355 29.98231 27.93293
#
# Velocity S-wave (km/s) = 3.72459 4.00866 3.86924
# Velocity P-wave (km/s) = 5.84739 6.94697 6.42076
#
# Compressibility (1/GPa) = 0.03414810
#
# Stress axis : x y z
#
# Youngs Moduli (GPa) = 63.06380 92.45474 34.17315
#
# Poissons Ratio (x) = 0.59421 -0.10075
# Poissons Ratio (y) = 0.40531 0.25339
# Poissons Ratio (z) = -0.18592 0.68555
#
# Static dielectric constant tensor:
#      x y z
#    x 3.587710 0.000000 0.000000 
#    y 0.000000 3.541060 0.000000 
#    z 0.000000 0.000000 3.618210 
# 
# 
# High freq. dielectric constant tensor:
#      x y z
#    x 1.728670 0.000000 0.000000 
#    y 0.000000 1.728720 0.000000 
#    z 0.000000 0.000000 1.733810 
# 
# From -- ./inp_files/10437.got.cif
#   From: 2010.03.12/outbox.cif.g09.slc.cpg/sg63_6_cif.got.tgz:10437.got - 2010.04.10 19:34:48.
