data_PCOD8259196
_publ_section_title
;
Structure prediction by ZEFSAII (Michael W. Deem and Ramdas Pophale) SiO2 
 PCOD8259196
Probable space group: C M C M
;
_chemical_formula_sum "Si O2"
_cell_formula_units_Z 96
_cell_length_a 30.190962
_cell_length_b 8.153333
_cell_length_c 20.235048
_cell_angle_alpha 90.000000
_cell_angle_beta 90.000000
_cell_angle_gamma 90.000000
_cell_volume 4980.998038
_symmetry_space_group_name_H-M "C M C M"
_symmetry_group_IT_number 63
_symmetry_cell_setting 'orthorhombic'
loop_
_space_group_symop_operation_xyz
x,y,z
-x,-y,1/2+z
x,-y,-z
-x,y,1/2-z
-x,-y,-z
x,y,1/2-z
-x,y,z
x,-y,1/2+z
1/2+x,1/2+y,z
1/2-x,1/2-y,1/2+z
1/2+x,1/2-y,-z
1/2-x,1/2+y,1/2-z
1/2-x,1/2-y,-z
1/2+x,1/2+y,1/2-z
1/2-x,1/2+y,z
1/2+x,1/2-y,1/2+z
loop_
_atom_site_type_symbol
_atom_site_label
_atom_site_fract_x
_atom_site_fract_y
_atom_site_fract_z
Si Si1 0.951513 0.588272 0.431438
Si Si2 0.366749 0.277789 0.043490
Si Si3 0.104492 0.404644 0.323735
Si Si4 0.850705 0.880779 0.601278
Si Si5 0.312918 0.105880 0.356198
Si Si6 0.274771 0.458475 0.174652
O O1 0.958493 0.500000 0.500000
O O2 0.917750 0.730714 0.450284
O O3 0.932780 0.473794 0.372889
O O4 0.000000 0.655157 0.408531
O O5 0.369096 0.438648 0.088544
O O6 0.332445 0.142776 0.071236
O O7 0.348544 0.292943 0.969554
O O8 0.084476 0.383555 0.250000
O O9 0.118947 0.225357 0.349883
O O10 0.146080 0.528605 0.316259
O O11 0.802913 0.906641 0.634443
O O12 0.294198 0.274870 0.325646
O O13 0.274240 0.968994 0.357864
O O14 0.272097 0.519278 0.250000
#
# Coordination Sequence:
#
# PCOD8259196 Si02
#       6
#    16  16  16  16  16  16
#     4  10  20  38  63  87 112 148 187 232 283 343
#     4   9  20  39  57  82 113 146 191 234 287 344
#     4  11  21  36  59  85 114 149 188 237 292 343
#     4  10  20  35  56  81 115 148 188 236 284 338
#     4  10  22  35  55  78 109 153 194 239 281 337
#     4  11  20  33  50  76 112 150 195 237 283 340
#
# _framework density 19.273246
#
# number of rings (size 3 to 8) (size 9 to 14) (size 15 to 20)
#    0.000    1.833    1.667    3.000    0.000    1.000 
#    0.000    6.667    0.000    0.000    0.000    0.000 
#    0.000    0.000    0.000    0.000    0.000    0.000 
#
# Total GULP energy -594693.320134 kJ/mol
# GULP energy per Si atom -12389.444169 kJ/mol
# Density = 1.922938 g / cm^3
# Si number density = 19.273246 Si / 1000 Ang^3
#
#
#
# Elastic Constant Matrix: (Units=GPa)
#
#
# Indices 1 2 3 4 5 6 
#
# 1 129.7419 26.9601 49.5753 0.0000 0.0000 0.0000
# 2 26.9601 64.2800 34.3115 0.0000 0.0000 0.0000
# 3 49.5753 34.3115 94.8153 0.0000 0.0000 0.0000
# 4 0.0000 0.0000 0.0000 26.1546 0.0000 0.0000
# 5 0.0000 0.0000 0.0000 0.0000 20.1984 0.0000
# 6 0.0000 0.0000 0.0000 0.0000 0.0000 19.0939
#
#
#
# Elastic Compliance Matrix: (Units=1/GPa)
#
#
# Indices 1 2 3 4 5 6 
#
# 1 0.009780 -0.001701 -0.004498 0.000000 0.000000 0.000000
# 2 -0.001701 0.019577 -0.006195 0.000000 0.000000 0.000000
# 3 -0.004498 -0.006195 0.015141 0.000000 0.000000 0.000000
# 4 0.000000 0.000000 0.000000 0.038234 0.000000 0.000000
# 5 0.000000 0.000000 0.000000 0.000000 0.049509 0.000000
# 6 0.000000 0.000000 0.000000 0.000000 0.000000 0.052373
#
#
# Mechanical properties :
#
#
# Convention : Reuss Voigt Hill
#
# Bulk Modulus (GPa) = 50.73717 56.72565 53.73141
# Shear Modulus (GPa) = 23.15124 24.95540 24.05332
#
# Velocity S-wave (km/s) = 3.46961 3.60227 3.53656
# Velocity P-wave (km/s) = 6.51408 6.84090 6.67949
#
# Compressibility (1/GPa) = 0.01970942
#
# Stress axis : x y z
#
# Youngs Moduli (GPa) = 102.25209 51.07979 66.04786
#
# Poissons Ratio (x) = 0.08688 0.29708
# Poissons Ratio (y) = 0.17392 0.40918
# Poissons Ratio (z) = 0.45993 0.31645
#
# Static dielectric constant tensor:
#      x y z
#    x 3.754560 0.000000 0.000000 
#    y 0.000000 3.544210 0.000000 
#    z 0.000000 0.000000 3.766980 
# 
# 
# High freq. dielectric constant tensor:
#      x y z
#    x 1.738260 0.000000 0.000000 
#    y 0.000000 1.750520 0.000000 
#    z 0.000000 0.000000 1.757640 
# 
# From -- ./inp_files/58050.got.cif
#   From: 2010.03.12/outbox.cif.g09.slc.cpg/sg63_30_cif.got.tgz:58050.got - 2010.04.10 19:34:48.
