data_PCOD8259882
_publ_section_title
;
Structure prediction by ZEFSAII (Michael W. Deem and Ramdas Pophale) SiO2 
 PCOD8259882
Probable space group: C M C M
;
_chemical_formula_sum "Si O2"
_cell_formula_units_Z 64
_cell_length_a 12.968184
_cell_length_b 20.436691
_cell_length_c 13.285316
_cell_angle_alpha 90.000000
_cell_angle_beta 90.000000
_cell_angle_gamma 90.000000
_cell_volume 3520.964378
_symmetry_space_group_name_H-M "C M C M"
_symmetry_group_IT_number 63
_symmetry_cell_setting 'orthorhombic'
loop_
_space_group_symop_operation_xyz
x,y,z
-x,-y,1/2+z
x,-y,-z
-x,y,1/2-z
-x,-y,-z
x,y,1/2-z
-x,y,z
x,-y,1/2+z
1/2+x,1/2+y,z
1/2-x,1/2-y,1/2+z
1/2+x,1/2-y,-z
1/2-x,1/2+y,1/2-z
1/2-x,1/2-y,-z
1/2+x,1/2+y,1/2-z
1/2-x,1/2+y,z
1/2+x,1/2-y,1/2+z
loop_
_atom_site_type_symbol
_atom_site_label
_atom_site_fract_x
_atom_site_fract_y
_atom_site_fract_z
Si Si1 0.383557 0.492116 0.862997
Si Si2 0.619245 0.861693 0.864902
Si Si3 0.119740 0.790428 0.363347
Si Si4 0.206686 0.901091 0.492887
O O1 0.352980 0.476274 0.750000
O O2 0.500000 0.520375 0.871773
O O3 0.377514 0.423846 0.924131
O O4 0.300060 0.544484 0.904594
O O5 0.646761 0.882968 0.750000
O O6 0.500000 0.876044 0.886757
O O7 0.644797 0.785383 0.878052
O O8 0.683742 0.900891 0.949099
O O9 0.150683 0.812344 0.250000
O O10 0.183934 0.830349 0.446140
O O11 0.000000 0.804815 0.380713
#
# Coordination Sequence:
#
# PCOD8259882 Si02
#       4
#    16  16  16  16
#     4  10  21  34  48  72 104 131 158 198 245 291
#     4   9  19  34  50  71  99 129 163 202 241 284
#     4   9  17  30  50  76 103 129 158 194 238 290
#     4  11  18  30  52  73  94 127 168 202 235 283
#
# _framework density 18.176839000000001
#
# number of rings (size 3 to 8) (size 9 to 14) (size 15 to 20)
#    0.000    2.250    0.000    6.750    0.000    2.000 
#    0.000    2.500    0.000    4.500    0.000   17.500 
#    0.000    0.000    0.000    0.000    0.000    0.000 
#
# Total GULP energy -396539.007762 kJ/mol
# GULP energy per Si atom -12391.843993 kJ/mol
# Density = 1.813547 g / cm^3
# Si number density = 18.176839 Si / 1000 Ang^3
#
#
#
# Elastic Constant Matrix: (Units=GPa)
#
#
# Indices 1 2 3 4 5 6 
#
# 1 75.3850 27.9630 41.8789 0.0000 0.0000 0.0000
# 2 27.9630 47.3274 31.0329 0.0000 0.0000 0.0000
# 3 41.8789 31.0329 121.2004 0.0000 0.0000 0.0000
# 4 0.0000 0.0000 0.0000 31.0572 0.0000 0.0000
# 5 0.0000 0.0000 0.0000 0.0000 37.7307 0.0000
# 6 0.0000 0.0000 0.0000 0.0000 0.0000 24.8261
#
#
#
# Elastic Compliance Matrix: (Units=1/GPa)
#
#
# Indices 1 2 3 4 5 6 
#
# 1 0.018738 -0.008203 -0.004374 0.000000 0.000000 0.000000
# 2 -0.008203 0.028984 -0.004587 0.000000 0.000000 0.000000
# 3 -0.004374 -0.004587 0.010937 0.000000 0.000000 0.000000
# 4 0.000000 0.000000 0.000000 0.032199 0.000000 0.000000
# 5 0.000000 0.000000 0.000000 0.000000 0.026504 0.000000
# 6 0.000000 0.000000 0.000000 0.000000 0.000000 0.040280
#
#
# Mechanical properties :
#
#
# Convention : Reuss Voigt Hill
#
# Bulk Modulus (GPa) = 41.10094 49.51804 45.30949
# Shear Modulus (GPa) = 24.99013 28.25868 26.62441
#
# Velocity S-wave (km/s) = 3.71190 3.94719 3.83135
# Velocity P-wave (km/s) = 6.40560 6.93363 6.67484
#
# Compressibility (1/GPa) = 0.02433034
#
# Stress axis : x y z
#
# Youngs Moduli (GPa) = 53.36718 34.50225 91.43537
#
# Poissons Ratio (x) = 0.28302 0.39997
# Poissons Ratio (y) = 0.43777 0.41939
# Poissons Ratio (z) = 0.23344 0.15825
#
# Static dielectric constant tensor:
#      x y z
#    x 3.160650 0.000000 0.000000 
#    y 0.000000 3.250980 0.000000 
#    z 0.000000 0.000000 3.522800 
# 
# 
# High freq. dielectric constant tensor:
#      x y z
#    x 1.676750 0.000000 0.000000 
#    y 0.000000 1.693700 0.000000 
#    z 0.000000 0.000000 1.717920 
# 
# From -- ./inp_files/27492.got.cif
#   From: 2010.03.12/outbox.cif.g09.slc.cpg/sg63_14_cif.got.tgz:27492.got - 2010.04.10 19:34:48.
