data_PCOD8259749
_publ_section_title
;
Structure prediction by ZEFSAII (Michael W. Deem and Ramdas Pophale) SiO2 
 PCOD8259749
Probable space group: C M C M
;
_chemical_formula_sum "Si O2"
_cell_formula_units_Z 72
_cell_length_a 13.430690
_cell_length_b 27.816182
_cell_length_c 9.732155
_cell_angle_alpha 90.000000
_cell_angle_beta 90.000000
_cell_angle_gamma 90.000000
_cell_volume 3635.840822
_symmetry_space_group_name_H-M "C M C M"
_symmetry_group_IT_number 63
_symmetry_cell_setting 'orthorhombic'
loop_
_space_group_symop_operation_xyz
x,y,z
-x,-y,1/2+z
x,-y,-z
-x,y,1/2-z
-x,-y,-z
x,y,1/2-z
-x,y,z
x,-y,1/2+z
1/2+x,1/2+y,z
1/2-x,1/2-y,1/2+z
1/2+x,1/2-y,-z
1/2-x,1/2+y,1/2-z
1/2-x,1/2-y,-z
1/2+x,1/2+y,1/2-z
1/2-x,1/2+y,z
1/2+x,1/2-y,1/2+z
loop_
_atom_site_type_symbol
_atom_site_label
_atom_site_fract_x
_atom_site_fract_y
_atom_site_fract_z
Si Si1 0.500000 0.927492 0.398613
Si Si2 0.500000 0.837093 0.911299
Si Si3 0.000000 0.951321 0.908160
Si Si4 0.303910 0.391466 0.904449
Si Si5 0.788637 0.292238 0.594306
Si Si6 0.789606 0.540836 0.903572
O O1 0.500000 0.900190 0.250000
O O2 0.500000 0.888916 0.518697
O O3 0.592125 0.964275 0.402227
O O4 0.500000 0.847661 0.750000
O O5 0.600778 0.808848 0.953994
O O6 0.090583 0.915240 0.940643
O O7 0.000000 0.968320 0.750000
O O8 0.000000 0.000000 0.000000
O O9 0.270451 0.407331 0.750000
O O10 0.295921 0.333910 0.914469
O O11 0.229517 0.408546 0.023225
O O12 0.795965 0.273217 0.750000
O O13 0.750000 0.250000 0.500000
O O14 0.743366 0.537802 0.750000
O O15 0.739565 0.500000 0.000000
#
# Coordination Sequence:
#
# PCOD8259749 Si02
#       6
#     8   8   8  16  16  16
#     4  10  21  35  54  83 115 150 188 227 278 337
#     4  10  20  38  62  87 117 153 190 235 292 347
#     4  10  22  39  60  86 117 155 203 250 302 362
#     4  10  21  39  60  83 114 154 198 246 298 354
#     4  10  22  39  62  90 119 154 197 245 299 356
#     4  11  22  35  54  83 117 153 193 234 283 345
#
# _framework density 19.802847
#
# number of rings (size 3 to 8) (size 9 to 14) (size 15 to 20)
#    0.000    1.778    2.222    1.667    0.000    6.222 
#    0.000    1.111    0.000    0.000    0.000    0.000 
#    0.000    0.000    0.000    0.000    0.000    0.000 
#
# Total GULP energy -446087.445120 kJ/mol
# GULP energy per Si atom -12391.317920 kJ/mol
# Density = 1.975778 g / cm^3
# Si number density = 19.802847 Si / 1000 Ang^3
#
#
#
# Elastic Constant Matrix: (Units=GPa)
#
#
# Indices 1 2 3 4 5 6 
#
# 1 87.2244 36.6388 29.2256 0.0000 0.0000 0.0000
# 2 36.6388 103.3476 63.9070 0.0000 0.0000 0.0000
# 3 29.2256 63.9070 128.4867 0.0000 0.0000 0.0000
# 4 0.0000 0.0000 0.0000 41.8570 0.0000 0.0000
# 5 0.0000 0.0000 0.0000 0.0000 24.1931 0.0000
# 6 0.0000 0.0000 0.0000 0.0000 0.0000 30.5781
#
#
#
# Elastic Compliance Matrix: (Units=1/GPa)
#
#
# Indices 1 2 3 4 5 6 
#
# 1 0.013559 -0.004188 -0.001001 0.000000 0.000000 0.000000
# 2 -0.004188 0.015267 -0.006641 0.000000 0.000000 0.000000
# 3 -0.001001 -0.006641 0.011314 0.000000 0.000000 0.000000
# 4 0.000000 0.000000 0.000000 0.023891 0.000000 0.000000
# 5 0.000000 0.000000 0.000000 0.000000 0.041334 0.000000
# 6 0.000000 0.000000 0.000000 0.000000 0.000000 0.032703
#
#
# Mechanical properties :
#
#
# Convention : Reuss Voigt Hill
#
# Bulk Modulus (GPa) = 60.67964 64.28907 62.48435
# Shear Modulus (GPa) = 29.90024 31.94479 30.92251
#
# Velocity S-wave (km/s) = 3.88995 4.02075 3.95589
# Velocity P-wave (km/s) = 7.13331 7.35461 7.24480
#
# Compressibility (1/GPa) = 0.01647999
#
# Stress axis : x y z
#
# Youngs Moduli (GPa) = 73.75017 65.49865 88.38732
#
# Poissons Ratio (x) = 0.27430 0.08849
# Poissons Ratio (y) = 0.30886 0.58700
# Poissons Ratio (z) = 0.07384 0.43499
#
# Static dielectric constant tensor:
#      x y z
#    x 3.831540 0.000000 0.000000 
#    y 0.000000 3.330520 0.000000 
#    z 0.000000 0.000000 3.782380 
# 
# 
# High freq. dielectric constant tensor:
#      x y z
#    x 1.774880 0.000000 0.000000 
#    y 0.000000 1.753890 0.000000 
#    z 0.000000 0.000000 1.781560 
# 
# From -- ./inp_files/4711.got.cif
#   From: 2010.03.12/outbox.cif.g09.slc.cpg/sg63_3_cif.got.tgz:4711.got - 2010.04.10 19:34:48.
