data_PCOD8259579
_publ_section_title
;
Structure prediction by ZEFSAII (Michael W. Deem and Ramdas Pophale) SiO2 
 PCOD8259579
Probable space group: C M C M
;
_chemical_formula_sum "Si O2"
_cell_formula_units_Z 52
_cell_length_a 19.147000
_cell_length_b 11.721731
_cell_length_c 10.486545
_cell_angle_alpha 90.000000
_cell_angle_beta 90.000000
_cell_angle_gamma 90.000000
_cell_volume 2353.558040
_symmetry_space_group_name_H-M "C M C M"
_symmetry_group_IT_number 63
_symmetry_cell_setting 'orthorhombic'
loop_
_space_group_symop_operation_xyz
x,y,z
-x,-y,1/2+z
x,-y,-z
-x,y,1/2-z
-x,-y,-z
x,y,1/2-z
-x,y,z
x,-y,1/2+z
1/2+x,1/2+y,z
1/2-x,1/2-y,1/2+z
1/2+x,1/2-y,-z
1/2-x,1/2+y,1/2-z
1/2-x,1/2-y,-z
1/2+x,1/2+y,1/2-z
1/2-x,1/2+y,z
1/2+x,1/2-y,1/2+z
loop_
_atom_site_type_symbol
_atom_site_label
_atom_site_fract_x
_atom_site_fract_y
_atom_site_fract_z
Si Si1 0.138864 0.735276 0.986897
Si Si2 0.500000 0.864648 0.607729
Si Si3 0.764253 0.093298 0.895151
Si Si4 0.500000 0.082729 0.750000
Si Si5 0.423775 0.696001 0.250000
O O1 0.186965 0.637401 0.926538
O O2 0.119323 0.830300 0.878152
O O3 0.180423 0.802379 0.096869
O O4 0.068483 0.678435 0.036786
O O5 0.500000 0.811327 0.750000
O O6 0.500000 0.003742 0.622021
O O7 0.766452 0.044881 0.750000
O O8 0.785054 0.000000 0.000000
O O9 0.567564 0.164575 0.750000
O O10 0.500000 0.634013 0.250000
#
# Coordination Sequence:
#
# PCOD8259579 Si02
#       5
#    16   8  16   4   8
#     4  11  23  41  65  93 134 169 212 265 329 382
#     4  10  21  37  65  94 134 162 210 266 322 388
#     4  11  27  43  66  94 131 175 223 265 320 385
#     4   8  22  32  60 106 132 156 208 248 354 376
#     4  10  20  36  61  97 131 160 208 256 332 390
#
# _framework density 22.094207000000001
#
# number of rings (size 3 to 8) (size 9 to 14) (size 15 to 20)
#    0.923    0.615    3.077    0.923    6.462    3.692 
#    0.000    0.769    0.000    0.000    0.000    0.000 
#    0.000    0.000    0.000    0.000    0.000    0.000 
#
# Total GULP energy -322221.089010 kJ/mol
# GULP energy per Si atom -12393.118808 kJ/mol
# Density = 2.204392 g / cm^3
# Si number density = 22.094207 Si / 1000 Ang^3
#
#
#
# Elastic Constant Matrix: (Units=GPa)
#
#
# Indices 1 2 3 4 5 6 
#
# 1 138.0031 25.9563 29.4268 0.0000 0.0000 0.0000
# 2 25.9563 38.6029 23.7180 0.0000 0.0000 0.0000
# 3 29.4268 23.7180 141.0940 0.0000 0.0000 0.0000
# 4 0.0000 0.0000 0.0000 31.9796 0.0000 0.0000
# 5 0.0000 0.0000 0.0000 0.0000 28.8976 0.0000
# 6 0.0000 0.0000 0.0000 0.0000 0.0000 3.4707
#
#
#
# Elastic Compliance Matrix: (Units=1/GPa)
#
#
# Indices 1 2 3 4 5 6 
#
# 1 0.008395 -0.005095 -0.000894 0.000000 0.000000 0.000000
# 2 -0.005095 0.031981 -0.004313 0.000000 0.000000 0.000000
# 3 -0.000894 -0.004313 0.007999 0.000000 0.000000 0.000000
# 4 0.000000 0.000000 0.000000 0.031270 0.000000 0.000000
# 5 0.000000 0.000000 0.000000 0.000000 0.034605 0.000000
# 6 0.000000 0.000000 0.000000 0.000000 0.000000 0.288128
#
#
# Mechanical properties :
#
#
# Convention : Reuss Voigt Hill
#
# Bulk Modulus (GPa) = 36.01115 52.87802 44.44459
# Shear Modulus (GPa) = 11.56762 28.77615 20.17189
#
# Velocity S-wave (km/s) = 2.29062 3.61283 3.02486
# Velocity P-wave (km/s) = 4.83014 6.43338 5.68852
#
# Compressibility (1/GPa) = 0.02776918
#
# Stress axis : x y z
#
# Youngs Moduli (GPa) = 119.11435 31.26849 125.01423
#
# Poissons Ratio (x) = 0.15933 0.11181
# Poissons Ratio (y) = 0.60694 0.53923
# Poissons Ratio (z) = 0.10654 0.13487
#
# Static dielectric constant tensor:
#      x y z
#    x 3.944840 0.000000 0.000000 
#    y 0.000000 3.440260 0.000000 
#    z 0.000000 0.000000 4.303520 
# 
# 
# High freq. dielectric constant tensor:
#      x y z
#    x 1.882260 0.000000 0.000000 
#    y 0.000000 1.821540 0.000000 
#    z 0.000000 0.000000 1.890800 
# 
# From -- ./inp_files/22055.got.cif
#   From: 2010.03.12/outbox.cif.g09.slc.cpg/sg63_12_cif.got.tgz:22055.got - 2010.04.10 19:34:48.
