data_PCOD8259233
_publ_section_title
;
Structure prediction by ZEFSAII (Michael W. Deem and Ramdas Pophale) SiO2 
 PCOD8259233
Probable space group: C M C M
;
_chemical_formula_sum "Si O2"
_cell_formula_units_Z 80
_cell_length_a 11.339400
_cell_length_b 26.976451
_cell_length_c 13.722671
_cell_angle_alpha 90.000000
_cell_angle_beta 90.000000
_cell_angle_gamma 90.000000
_cell_volume 4197.720714
_symmetry_space_group_name_H-M "C M C M"
_symmetry_group_IT_number 63
_symmetry_cell_setting 'orthorhombic'
loop_
_space_group_symop_operation_xyz
x,y,z
-x,-y,1/2+z
x,-y,-z
-x,y,1/2-z
-x,-y,-z
x,y,1/2-z
-x,y,z
x,-y,1/2+z
1/2+x,1/2+y,z
1/2-x,1/2-y,1/2+z
1/2+x,1/2-y,-z
1/2-x,1/2+y,1/2-z
1/2-x,1/2-y,-z
1/2+x,1/2+y,1/2-z
1/2-x,1/2+y,z
1/2+x,1/2-y,1/2+z
loop_
_atom_site_type_symbol
_atom_site_label
_atom_site_fract_x
_atom_site_fract_y
_atom_site_fract_z
Si Si1 0.000000 0.164226 0.865480
Si Si2 0.500000 0.553507 0.635472
Si Si3 0.229049 0.223908 0.863393
Si Si4 0.138274 0.572204 0.466394
Si Si5 0.752270 0.516537 0.636619
Si Si6 0.363067 0.814927 0.535313
O O1 0.115466 0.193344 0.900888
O O2 0.000000 0.162819 0.750000
O O3 0.000000 0.108851 0.910905
O O4 0.500000 0.560683 0.750000
O O5 0.616173 0.523328 0.603877
O O6 0.256792 0.216571 0.750000
O O7 0.208389 0.281878 0.886735
O O8 0.339130 0.203397 0.924944
O O9 0.210172 0.539454 0.388440
O O10 0.167586 0.555041 0.576424
O O11 0.178264 0.628571 0.451420
O O12 0.000000 0.565071 0.447964
O O13 0.771906 0.527912 0.750000
O O14 0.500000 0.809629 0.557859
#
# Coordination Sequence:
#
# PCOD8259233 Si02
#       6
#     8   8  16  16  16  16
#     4   9  16  30  53  81 104 133 178 228 271 318
#     4   9  18  31  53  81 106 135 182 223 267 328
#     4  10  20  35  57  81 108 141 181 230 279 330
#     4  10  22  36  53  81 111 143 188 226 267 330
#     4  10  20  36  55  78 111 148 183 229 274 320
#     4  10  21  37  55  80 111 144 183 229 277 329
#
# _framework density 19.057960999999999
#
# number of rings (size 3 to 8) (size 9 to 14) (size 15 to 20)
#    0.000    2.200    1.000    2.400    0.000    6.800 
#    0.000    5.000    0.000    0.000    0.000    0.000 
#    0.000    0.000    0.000    0.000    0.000    0.000 
#
# Total GULP energy -496003.240521 kJ/mol
# GULP energy per Si atom -12400.081013 kJ/mol
# Density = 1.901458 g / cm^3
# Si number density = 19.057961 Si / 1000 Ang^3
#
#
#
# Elastic Constant Matrix: (Units=GPa)
#
#
# Indices 1 2 3 4 5 6 
#
# 1 51.7204 46.9297 4.8268 0.0000 0.0000 0.0000
# 2 46.9297 145.0110 9.3641 0.0000 0.0000 0.0000
# 3 4.8268 9.3641 53.0662 0.0000 0.0000 0.0000
# 4 0.0000 0.0000 0.0000 19.0518 0.0000 0.0000
# 5 0.0000 0.0000 0.0000 0.0000 24.3239 0.0000
# 6 0.0000 0.0000 0.0000 0.0000 0.0000 25.7997
#
#
#
# Elastic Compliance Matrix: (Units=1/GPa)
#
#
# Indices 1 2 3 4 5 6 
#
# 1 0.027419 -0.008813 -0.000939 0.000000 0.000000 0.000000
# 2 -0.008813 0.009808 -0.000929 0.000000 0.000000 0.000000
# 3 -0.000939 -0.000929 0.019094 0.000000 0.000000 0.000000
# 4 0.000000 0.000000 0.000000 0.052488 0.000000 0.000000
# 5 0.000000 0.000000 0.000000 0.000000 0.041112 0.000000
# 6 0.000000 0.000000 0.000000 0.000000 0.000000 0.038760
#
#
# Mechanical properties :
#
#
# Convention : Reuss Voigt Hill
#
# Bulk Modulus (GPa) = 28.60494 41.33765 34.97129
# Shear Modulus (GPa) = 22.55341 26.41356 24.48349
#
# Velocity S-wave (km/s) = 3.44381 3.72689 3.58814
# Velocity P-wave (km/s) = 5.55474 6.34485 5.96290
#
# Compressibility (1/GPa) = 0.03495900
#
# Stress axis : x y z
#
# Youngs Moduli (GPa) = 36.47110 101.95602 52.37318
#
# Poissons Ratio (x) = 0.89853 0.04917
# Poissons Ratio (y) = 0.32142 0.04866
# Poissons Ratio (z) = 0.03424 0.09473
#
# Static dielectric constant tensor:
#      x y z
#    x 3.546820 0.000000 0.000000 
#    y 0.000000 3.686410 0.000000 
#    z 0.000000 0.000000 3.242710 
# 
# 
# High freq. dielectric constant tensor:
#      x y z
#    x 1.739900 0.000000 0.000000 
#    y 0.000000 1.752250 0.000000 
#    z 0.000000 0.000000 1.720820 
# 
# From -- ./inp_files/30056.got.cif
#   From: 2010.03.12/outbox.cif.g09.slc.cpg/sg63_16_cif.got.tgz:30056.got - 2010.04.10 19:34:48.
