data_PCOD8259549
_publ_section_title
;
Structure prediction by ZEFSAII (Michael W. Deem and Ramdas Pophale) SiO2 
 PCOD8259549
Probable space group: C M C M
;
_chemical_formula_sum "Si O2"
_cell_formula_units_Z 96
_cell_length_a 22.624632
_cell_length_b 11.665852
_cell_length_c 18.080801
_cell_angle_alpha 90.000000
_cell_angle_beta 90.000000
_cell_angle_gamma 90.000000
_cell_volume 4772.167213
_symmetry_space_group_name_H-M "C M C M"
_symmetry_group_IT_number 63
_symmetry_cell_setting 'orthorhombic'
loop_
_space_group_symop_operation_xyz
x,y,z
-x,-y,1/2+z
x,-y,-z
-x,y,1/2-z
-x,-y,-z
x,y,1/2-z
-x,y,z
x,-y,1/2+z
1/2+x,1/2+y,z
1/2-x,1/2-y,1/2+z
1/2+x,1/2-y,-z
1/2-x,1/2+y,1/2-z
1/2-x,1/2-y,-z
1/2+x,1/2+y,1/2-z
1/2-x,1/2+y,z
1/2+x,1/2-y,1/2+z
loop_
_atom_site_type_symbol
_atom_site_label
_atom_site_fract_x
_atom_site_fract_y
_atom_site_fract_z
Si Si1 0.871346 0.169126 0.917742
Si Si2 0.733753 0.494694 0.084375
Si Si3 0.568494 0.476782 0.830766
Si Si4 0.568012 0.872389 0.664299
Si Si5 0.345317 0.927554 0.164752
Si Si6 0.140835 0.191163 0.411784
O O1 0.804965 0.121647 0.902435
O O2 0.916415 0.072500 0.890835
O O3 0.887457 0.286429 0.876827
O O4 0.880872 0.188680 0.004195
O O5 0.788123 0.500586 0.140839
O O6 0.696406 0.608282 0.101220
O O7 0.756709 0.500000 0.000000
O O8 0.597446 0.503328 0.750000
O O9 0.500000 0.472267 0.820258
O O10 0.588418 0.352478 0.859331
O O11 0.568415 0.837573 0.750000
O O12 0.500000 0.869034 0.634448
O O13 0.594863 0.999201 0.652840
O O14 0.339260 0.890355 0.250000
O O15 0.344374 0.819608 0.110702
#
# Coordination Sequence:
#
# PCOD8259549 Si02
#       6
#    16  16  16  16  16  16
#     4  10  21  38  63  93 116 157 202 251 309 357
#     4   9  22  40  63  88 121 156 194 253 314 366
#     4  10  20  36  60  88 122 161 199 248 306 359
#     4  10  23  42  61  87 125 166 209 253 301 359
#     4  11  25  40  61  88 119 164 205 249 303 366
#     4  10  23  40  59  90 124 156 199 252 309 364
#
# _framework density 20.116645999999999
#
# number of rings (size 3 to 8) (size 9 to 14) (size 15 to 20)
#    0.000    2.000    0.000    3.000    4.667    9.333 
#    0.000    2.500    0.000    0.000    0.000    0.000 
#    0.000    0.000    0.000    0.000    0.000    0.000 
#
# Total GULP energy -595142.427014 kJ/mol
# GULP energy per Si atom -12398.800563 kJ/mol
# Density = 2.007086 g / cm^3
# Si number density = 20.116646 Si / 1000 Ang^3
#
#
#
# Elastic Constant Matrix: (Units=GPa)
#
#
# Indices 1 2 3 4 5 6 
#
# 1 84.3888 34.4830 57.2969 0.0000 0.0000 0.0000
# 2 34.4830 105.5079 51.9763 0.0000 0.0000 0.0000
# 3 57.2969 51.9763 108.4184 0.0000 0.0000 0.0000
# 4 0.0000 0.0000 0.0000 10.2284 0.0000 0.0000
# 5 0.0000 0.0000 0.0000 0.0000 26.4656 0.0000
# 6 0.0000 0.0000 0.0000 0.0000 0.0000 21.0031
#
#
#
# Elastic Compliance Matrix: (Units=1/GPa)
#
#
# Indices 1 2 3 4 5 6 
#
# 1 0.018692 -0.001627 -0.009098 0.000000 0.000000 0.000000
# 2 -0.001627 0.012550 -0.005157 0.000000 0.000000 0.000000
# 3 -0.009098 -0.005157 0.016504 0.000000 0.000000 0.000000
# 4 0.000000 0.000000 0.000000 0.097767 0.000000 0.000000
# 5 0.000000 0.000000 0.000000 0.000000 0.037785 0.000000
# 6 0.000000 0.000000 0.000000 0.000000 0.000000 0.047612
#
#
# Mechanical properties :
#
#
# Convention : Reuss Voigt Hill
#
# Bulk Modulus (GPa) = 62.57050 65.09193 63.83121
# Shear Modulus (GPa) = 18.65659 21.84335 20.24997
#
# Velocity S-wave (km/s) = 3.04866 3.29878 3.17618
# Velocity P-wave (km/s) = 6.60029 6.85104 6.72683
#
# Compressibility (1/GPa) = 0.01598197
#
# Stress axis : x y z
#
# Youngs Moduli (GPa) = 53.49808 79.68083 60.59120
#
# Poissons Ratio (x) = 0.12964 0.55129
# Poissons Ratio (y) = 0.08704 0.31245
# Poissons Ratio (z) = 0.48675 0.41089
#
# Static dielectric constant tensor:
#      x y z
#    x 3.635080 0.000000 0.000000 
#    y 0.000000 3.663070 0.000000 
#    z 0.000000 0.000000 3.866770 
# 
# 
# High freq. dielectric constant tensor:
#      x y z
#    x 1.780190 0.000000 0.000000 
#    y 0.000000 1.783980 0.000000 
#    z 0.000000 0.000000 1.793870 
# 
# From -- ./inp_files/48008.got.cif
#   From: 2010.03.12/outbox.cif.g09.slc.cpg/sg63_25_cif.got.tgz:48008.got - 2010.04.10 19:34:48.
