data_PCOD8259309
_publ_section_title
;
Structure prediction by ZEFSAII (Michael W. Deem and Ramdas Pophale) SiO2 
 PCOD8259309
Probable space group: C M C M
;
_chemical_formula_sum "Si O2"
_cell_formula_units_Z 96
_cell_length_a 10.374841
_cell_length_b 27.257240
_cell_length_c 17.596991
_cell_angle_alpha 90.000000
_cell_angle_beta 90.000000
_cell_angle_gamma 90.000000
_cell_volume 4976.244834
_symmetry_space_group_name_H-M "C M C M"
_symmetry_group_IT_number 63
_symmetry_cell_setting 'orthorhombic'
loop_
_space_group_symop_operation_xyz
x,y,z
-x,-y,1/2+z
x,-y,-z
-x,y,1/2-z
-x,-y,-z
x,y,1/2-z
-x,y,z
x,-y,1/2+z
1/2+x,1/2+y,z
1/2-x,1/2-y,1/2+z
1/2+x,1/2-y,-z
1/2-x,1/2+y,1/2-z
1/2-x,1/2-y,-z
1/2+x,1/2+y,1/2-z
1/2-x,1/2+y,z
1/2+x,1/2-y,1/2+z
loop_
_atom_site_type_symbol
_atom_site_label
_atom_site_fract_x
_atom_site_fract_y
_atom_site_fract_z
Si Si1 0.356829 0.535929 0.931234
Si Si2 0.143624 0.489383 0.660649
Si Si3 0.644275 0.881280 0.610826
Si Si4 0.144701 0.808946 0.893889
Si Si5 0.650574 0.798521 0.162666
Si Si6 0.729592 0.359701 0.466068
O O1 0.500000 0.522832 0.900418
O O2 0.247537 0.528723 0.867767
O O3 0.359238 0.592708 0.955141
O O4 0.320735 0.500000 0.000000
O O5 0.142546 0.491807 0.750000
O O6 0.185949 0.435557 0.634149
O O7 0.000000 0.501845 0.629127
O O8 0.500000 0.868887 0.640063
O O9 0.750670 0.844406 0.647754
O O10 0.648404 0.875875 0.518750
O O11 0.182944 0.753532 0.875041
O O12 0.000000 0.819904 0.863602
O O13 0.150276 0.818598 0.985346
O O14 0.697983 0.799778 0.250000
O O15 0.500000 0.810224 0.157824
O O16 0.727061 0.839415 0.115368
#
# Coordination Sequence:
#
# PCOD8259309 Si02
#       6
#    16  16  16  16  16  16
#     4  11  22  39  61  87 117 150 194 245 295 349
#     4  10  22  39  57  83 120 156 194 242 294 350
#     4   9  19  34  58  87 113 149 193 238 287 342
#     4   9  19  36  59  85 113 148 191 239 287 337
#     4  10  21  37  57  85 120 154 192 237 286 343
#     4  10  20  35  59  85 111 150 187 238 288 341
#
# _framework density 19.291654999999999
#
# number of rings (size 3 to 8) (size 9 to 14) (size 15 to 20)
#    1.000    1.167    1.667    1.500    0.000    4.000 
#    0.000    2.500    0.000    3.500    0.000    0.000 
#    0.000    0.000    0.000    0.000    0.000    0.000 
#
# Total GULP energy -594817.724895 kJ/mol
# GULP energy per Si atom -12392.035935 kJ/mol
# Density = 1.924775 g / cm^3
# Si number density = 19.291655 Si / 1000 Ang^3
#
#
#
# Elastic Constant Matrix: (Units=GPa)
#
#
# Indices 1 2 3 4 5 6 
#
# 1 92.0444 31.9333 19.3554 0.0000 0.0000 0.0000
# 2 31.9333 85.3427 36.5186 0.0000 0.0000 0.0000
# 3 19.3554 36.5186 72.1764 0.0000 0.0000 0.0000
# 4 0.0000 0.0000 0.0000 20.0992 0.0000 0.0000
# 5 0.0000 0.0000 0.0000 0.0000 23.6965 0.0000
# 6 0.0000 0.0000 0.0000 0.0000 0.0000 706.1016
#
#
#
# Elastic Compliance Matrix: (Units=1/GPa)
#
#
# Indices 1 2 3 4 5 6 
#
# 1 0.012575 -0.004164 -0.001265 0.000000 0.000000 0.000000
# 2 -0.004164 0.016334 -0.007148 0.000000 0.000000 0.000000
# 3 -0.001265 -0.007148 0.017811 0.000000 0.000000 0.000000
# 4 0.000000 0.000000 0.000000 0.049753 0.000000 0.000000
# 5 0.000000 0.000000 0.000000 0.000000 0.042200 0.000000
# 6 0.000000 0.000000 0.000000 0.000000 0.000000 0.001416
#
#
# Mechanical properties :
#
#
# Convention : Reuss Voigt Hill
#
# Bulk Modulus (GPa) = 46.36997 47.24203 46.80600
# Shear Modulus (GPa) = 28.99685 160.76321 94.88003
#
# Velocity S-wave (km/s) = 3.88116 9.13860 7.02059
# Velocity P-wave (km/s) = 6.64628 11.65733 9.48858
#
# Compressibility (1/GPa) = 0.02156568
#
# Stress axis : x y z
#
# Youngs Moduli (GPa) = 79.52299 61.22179 56.14553
#
# Poissons Ratio (x) = 0.25491 0.07105
# Poissons Ratio (y) = 0.33112 0.40132
# Poissons Ratio (z) = 0.10064 0.43760
#
# Static dielectric constant tensor:
#      x y z
#    x 3.483180 0.000000 0.000000 
#    y 0.000000 3.445590 0.000000 
#    z 0.000000 0.000000 3.291890 
# 
# 
# High freq. dielectric constant tensor:
#      x y z
#    x 1.747470 0.000000 0.000000 
#    y 0.000000 1.748350 0.000000 
#    z 0.000000 0.000000 1.729210 
# 
# From -- ./inp_files/42511.got.cif
#   From: 2010.03.12/outbox.cif.g09.slc.cpg/sg63_22_cif.got.tgz:42511.got - 2010.04.10 19:34:48.
