data_PCOD8259247
_publ_section_title
;
Structure prediction by ZEFSAII (Michael W. Deem and Ramdas Pophale) SiO2 
 PCOD8259247
Probable space group: C M C M
;
_chemical_formula_sum "Si O2"
_cell_formula_units_Z 64
_cell_length_a 8.778152
_cell_length_b 38.009127
_cell_length_c 10.249770
_cell_angle_alpha 90.000000
_cell_angle_beta 90.000000
_cell_angle_gamma 90.000000
_cell_volume 3419.834676
_symmetry_space_group_name_H-M "C M C M"
_symmetry_group_IT_number 63
_symmetry_cell_setting 'orthorhombic'
loop_
_space_group_symop_operation_xyz
x,y,z
-x,-y,1/2+z
x,-y,-z
-x,y,1/2-z
-x,-y,-z
x,y,1/2-z
-x,y,z
x,-y,1/2+z
1/2+x,1/2+y,z
1/2-x,1/2-y,1/2+z
1/2+x,1/2-y,-z
1/2-x,1/2+y,1/2-z
1/2-x,1/2-y,-z
1/2+x,1/2+y,1/2-z
1/2-x,1/2+y,z
1/2+x,1/2-y,1/2+z
loop_
_atom_site_type_symbol
_atom_site_label
_atom_site_fract_x
_atom_site_fract_y
_atom_site_fract_z
Si Si1 0.180753 0.786415 0.750000
Si Si2 0.822958 0.396631 0.900976
Si Si3 0.179956 0.171325 0.500442
Si Si4 0.680441 0.206974 0.750000
Si Si5 0.677484 0.530066 0.399344
O O1 0.241857 0.806601 0.622871
O O2 0.244983 0.746783 0.750000
O O3 0.000000 0.786670 0.750000
O O4 0.785596 0.389665 0.750000
O O5 0.726684 0.369274 0.986135
O O6 0.772259 0.435696 0.939830
O O7 0.000000 0.391986 0.932443
O O8 0.260684 0.186889 0.625057
O O9 0.000000 0.174204 0.516790
O O10 0.500000 0.207184 0.750000
O O11 0.729002 0.500000 0.500000
O O12 0.714018 0.518515 0.250000
O O13 0.500000 0.538854 0.415107
#
# Coordination Sequence:
#
# PCOD8259247 Si02
#       5
#     8  16  16   8  16
#     4   9  20  37  61  85 110 145 192 237 281 337
#     4  10  20  35  57  84 112 147 189 233 280 332
#     4  11  21  38  60  84 112 150 193 234 281 339
#     4  11  23  39  55  83 120 149 182 237 293 339
#     4   9  18  34  56  81 109 143 183 227 273 328
#
# _framework density 18.714354
#
# number of rings (size 3 to 8) (size 9 to 14) (size 15 to 20)
#    0.000    2.000    1.250    2.625    0.000    1.500 
#    2.250    3.750    0.000    0.000    0.000    0.000 
#    0.000    0.000    0.000    0.000    0.000    0.000 
#
# Total GULP energy -396921.963552 kJ/mol
# GULP energy per Si atom -12403.811361 kJ/mol
# Density = 1.867176 g / cm^3
# Si number density = 18.714354 Si / 1000 Ang^3
#
#
#
# Elastic Constant Matrix: (Units=GPa)
#
#
# Indices 1 2 3 4 5 6 
#
# 1 60.5847 37.8184 33.5430 0.0000 0.0000 0.0000
# 2 37.8184 137.4035 74.4074 0.0000 0.0000 0.0000
# 3 33.5430 74.4074 130.3949 0.0000 0.0000 0.0000
# 4 0.0000 0.0000 0.0000 23.4533 0.0000 0.0000
# 5 0.0000 0.0000 0.0000 0.0000-3161.0894 0.0000
# 6 0.0000 0.0000 0.0000 0.0000 0.0000 30.3841
#
#
#
# Elastic Compliance Matrix: (Units=1/GPa)
#
#
# Indices 1 2 3 4 5 6 
#
# 1 0.020712 -0.004074 -0.003003 0.000000 0.000000 0.000000
# 2 -0.004074 0.011334 -0.005419 0.000000 0.000000 0.000000
# 3 -0.003003 -0.005419 0.011534 0.000000 0.000000 0.000000
# 4 0.000000 0.000000 0.000000 0.042638 0.000000 0.000000
# 5 0.000000 0.000000 0.000000 0.000000 -0.000316 0.000000
# 6 0.000000 0.000000 0.000000 0.000000 0.000000 0.032912
#
#
# Mechanical properties :
#
#
# Convention : Reuss Voigt Hill
#
# Bulk Modulus (GPa) = 53.80348 68.88007 61.34178
# Shear Modulus (GPa) = 33.33282 -609.27610 -287.97164
#
# Velocity S-wave (km/s) = 4.22493 -18.06303 -12.41819
# Velocity P-wave (km/s) = 7.25343 19.95356 13.14406
#
# Compressibility (1/GPa) = 0.01858616
#
# Stress axis : x y z
#
# Youngs Moduli (GPa) = 48.28175 88.22977 86.70036
#
# Poissons Ratio (x) = 0.35949 0.26035
# Poissons Ratio (y) = 0.19672 0.46987
# Poissons Ratio (z) = 0.14498 0.47816
#
# Static dielectric constant tensor:
#      x y z
#    x 3.334860 0.000000 0.000000 
#    y 0.000000 3.526460 0.000000 
#    z 0.000000 0.000000 3.349210 
# 
# 
# High freq. dielectric constant tensor:
#      x y z
#    x 1.722420 0.000000 0.000000 
#    y 0.000000 1.736500 0.000000 
#    z 0.000000 0.000000 1.722010 
# 
# From -- ./inp_files/16249.got.cif
#   From: 2010.03.12/outbox.cif.g09.slc.cpg/sg63_9_cif.got.tgz:16249.got - 2010.04.10 19:34:48.
