data_PCOD8259939
_publ_section_title
;
Structure prediction by ZEFSAII (Michael W. Deem and Ramdas Pophale) SiO2 
 PCOD8259939
Probable space group: C M C M
;
_chemical_formula_sum "Si O2"
_cell_formula_units_Z 96
_cell_length_a 21.979307
_cell_length_b 8.757372
_cell_length_c 24.687579
_cell_angle_alpha 90.000000
_cell_angle_beta 90.000000
_cell_angle_gamma 90.000000
_cell_volume 4751.889096
_symmetry_space_group_name_H-M "C M C M"
_symmetry_group_IT_number 63
_symmetry_cell_setting 'orthorhombic'
loop_
_space_group_symop_operation_xyz
x,y,z
-x,-y,1/2+z
x,-y,-z
-x,y,1/2-z
-x,-y,-z
x,y,1/2-z
-x,y,z
x,-y,1/2+z
1/2+x,1/2+y,z
1/2-x,1/2-y,1/2+z
1/2+x,1/2-y,-z
1/2-x,1/2+y,1/2-z
1/2-x,1/2-y,-z
1/2+x,1/2+y,1/2-z
1/2-x,1/2+y,z
1/2+x,1/2-y,1/2+z
loop_
_atom_site_type_symbol
_atom_site_label
_atom_site_fract_x
_atom_site_fract_y
_atom_site_fract_z
Si Si1 0.850243 0.129883 0.091727
Si Si2 0.273955 0.872459 0.960724
Si Si3 0.432137 0.825509 0.490500
Si Si4 0.200590 0.687823 0.687840
Si Si5 0.883765 0.207555 0.905215
Si Si6 0.328188 0.157427 0.188411
O O1 0.784281 0.069428 0.072791
O O2 0.883665 0.239527 0.047923
O O3 0.844139 0.216961 0.148749
O O4 0.887635 0.974930 0.099467
O O5 0.321271 0.791173 0.922088
O O6 0.250000 0.750000 0.000000
O O7 0.303573 0.000000 0.000000
O O8 0.500000 0.812096 0.465481
O O9 0.434264 0.751037 0.550629
O O10 0.412947 0.000000 0.500000
O O11 0.181042 0.720250 0.750000
O O12 0.271203 0.728738 0.679509
O O13 0.192809 0.511768 0.671156
O O14 0.887661 0.281447 0.845029
O O15 0.350067 0.157753 0.250000
#
# Coordination Sequence:
#
# PCOD8259939 Si02
#       6
#    16  16  16  16  16  16
#     4  12  23  36  57  85 116 153 189 234 289 339
#     4  12  22  33  49  81 118 151 188 227 278 345
#     4  11  25  43  62  84 111 148 191 236 287 343
#     4  10  21  35  53  80 117 157 194 234 280 338
#     4  12  23  35  58  84 115 155 187 235 288 339
#     4  10  21  35  53  81 118 157 194 233 280 338
#
# _framework density 20.202491999999999
#
# number of rings (size 3 to 8) (size 9 to 14) (size 15 to 20)
#    0.000    0.833    5.000    3.000    2.333    3.333 
#    0.000    0.000    0.000    1.000    0.000    7.000 
#    0.000    0.000    0.000    0.000    0.000    0.000 
#
# Total GULP energy -594746.411578 kJ/mol
# GULP energy per Si atom -12390.550241 kJ/mol
# Density = 2.015651 g / cm^3
# Si number density = 20.202492 Si / 1000 Ang^3
#
#
#
# Elastic Constant Matrix: (Units=GPa)
#
#
# Indices 1 2 3 4 5 6 
#
# 1 58.7110 6.4700 15.5285 0.0000 0.0000 0.0000
# 2 6.4700 130.9946 48.6120 0.0000 0.0000 0.0000
# 3 15.5285 48.6120 106.6023 0.0000 0.0000 0.0000
# 4 0.0000 0.0000 0.0000 38.6389 0.0000 0.0000
# 5 0.0000 0.0000 0.0000 0.0000 13.7033 0.0000
# 6 0.0000 0.0000 0.0000 0.0000 0.0000 16.5758
#
#
#
# Elastic Compliance Matrix: (Units=1/GPa)
#
#
# Indices 1 2 3 4 5 6 
#
# 1 0.017716 0.000099 -0.002626 0.000000 0.000000 0.000000
# 2 0.000099 0.009189 -0.004205 0.000000 0.000000 0.000000
# 3 -0.002626 -0.004205 0.011681 0.000000 0.000000 0.000000
# 4 0.000000 0.000000 0.000000 0.025881 0.000000 0.000000
# 5 0.000000 0.000000 0.000000 0.000000 0.072975 0.000000
# 6 0.000000 0.000000 0.000000 0.000000 0.000000 0.060329
#
#
# Mechanical properties :
#
#
# Convention : Reuss Voigt Hill
#
# Bulk Modulus (GPa) = 39.80373 48.61431 44.20902
# Shear Modulus (GPa) = 22.76777 28.83009 25.79893
#
# Velocity S-wave (km/s) = 3.36069 3.78174 3.57741
# Velocity P-wave (km/s) = 5.89950 6.57149 6.24454
#
# Compressibility (1/GPa) = 0.02512327
#
# Stress axis : x y z
#
# Youngs Moduli (GPa) = 56.44557 108.82029 85.61112
#
# Poissons Ratio (x) = -0.01083 0.22482
# Poissons Ratio (y) = -0.00562 0.36000
# Poissons Ratio (z) = 0.14823 0.45759
#
# Static dielectric constant tensor:
#      x y z
#    x 2.945670 0.000000 0.000000 
#    y 0.000000 3.782660 0.000000 
#    z 0.000000 0.000000 3.951770 
# 
# 
# High freq. dielectric constant tensor:
#      x y z
#    x 1.734460 0.000000 0.000000 
#    y 0.000000 1.810950 0.000000 
#    z 0.000000 0.000000 1.802170 
# 
# From -- ./inp_files/64955.got.cif
#   From: 2010.03.12/outbox.cif.g09.slc.cpg/sg63_33_cif.got.tgz:64955.got - 2010.04.10 19:34:48.
