data_PCOD8259781
_publ_section_title
;
Structure prediction by ZEFSAII (Michael W. Deem and Ramdas Pophale) SiO2 
 PCOD8259781
Probable space group: C M C M
;
_chemical_formula_sum "Si O2"
_cell_formula_units_Z 56
_cell_length_a 30.890398
_cell_length_b 4.987608
_cell_length_c 17.173917
_cell_angle_alpha 90.000000
_cell_angle_beta 90.000000
_cell_angle_gamma 90.000000
_cell_volume 2645.971588
_symmetry_space_group_name_H-M "C M C M"
_symmetry_group_IT_number 63
_symmetry_cell_setting 'orthorhombic'
loop_
_space_group_symop_operation_xyz
x,y,z
-x,-y,1/2+z
x,-y,-z
-x,y,1/2-z
-x,-y,-z
x,y,1/2-z
-x,y,z
x,-y,1/2+z
1/2+x,1/2+y,z
1/2-x,1/2-y,1/2+z
1/2+x,1/2-y,-z
1/2-x,1/2+y,1/2-z
1/2-x,1/2-y,-z
1/2+x,1/2+y,1/2-z
1/2-x,1/2+y,z
1/2+x,1/2-y,1/2+z
loop_
_atom_site_type_symbol
_atom_site_label
_atom_site_fract_x
_atom_site_fract_y
_atom_site_fract_z
Si Si1 0.366902 0.930518 0.159927
Si Si2 0.222835 0.511484 0.909400
Si Si3 0.090318 0.923373 0.410413
Si Si4 0.000000 0.756368 0.056541
O O1 0.373153 0.998532 0.250000
O O2 0.399283 0.686521 0.139901
O O3 0.317049 0.871965 0.140560
O O4 0.375924 0.193133 0.109014
O O5 0.262309 0.711529 0.888249
O O6 0.210108 0.500000 0.000000
O O7 0.043106 0.791114 0.390861
O O8 0.094856 0.000000 0.500000
O O9 0.000000 0.500000 0.000000
O O10 0.000000 0.000000 0.000000
#
# Coordination Sequence:
#
# PCOD8259781 Si02
#       4
#    16  16  16   8
#     4  12  25  40  60  93 131 164 202 254 321 382
#     4  10  21  38  61  87 116 157 210 260 307 367
#     4  11  22  41  66  90 121 164 212 259 307 370
#     4  10  20  38  65  96 119 152 211 264 299 348
#
# _framework density 21.164248000000001
#
# number of rings (size 3 to 8) (size 9 to 14) (size 15 to 20)
#    0.000    1.143    0.000    8.571    0.000    3.429 
#    0.000    4.286    0.000    0.000    0.000    0.000 
#    0.000    0.000    0.000    0.000    0.000    0.000 
#
# Total GULP energy -347107.222273 kJ/mol
# GULP energy per Si atom -12396.686510 kJ/mol
# Density = 2.111608 g / cm^3
# Si number density = 21.164248 Si / 1000 Ang^3
#
#
#
# Elastic Constant Matrix: (Units=GPa)
#
#
# Indices 1 2 3 4 5 6 
#
# 1 108.9723 37.8982 62.2725 0.0000 0.0000 0.0000
# 2 37.8982 140.5821 35.9159 0.0000 0.0000 0.0000
# 3 62.2725 35.9159 65.5887 0.0000 0.0000 0.0000
# 4 0.0000 0.0000 0.0000 20.0841 0.0000 0.0000
# 5 0.0000 0.0000 0.0000 0.0000 12.9682 0.0000
# 6 0.0000 0.0000 0.0000 0.0000 0.0000 32.4914
#
#
#
# Elastic Compliance Matrix: (Units=1/GPa)
#
#
# Indices 1 2 3 4 5 6 
#
# 1 0.020109 -0.000632 -0.018746 0.000000 0.000000 0.000000
# 2 -0.000632 0.008290 -0.003940 0.000000 0.000000 0.000000
# 3 -0.018746 -0.003940 0.035202 0.000000 0.000000 0.000000
# 4 0.000000 0.000000 0.000000 0.049791 0.000000 0.000000
# 5 0.000000 0.000000 0.000000 0.000000 0.077112 0.000000
# 6 0.000000 0.000000 0.000000 0.000000 0.000000 0.030777
#
#
# Mechanical properties :
#
#
# Convention : Reuss Voigt Hill
#
# Bulk Modulus (GPa) = 58.94212 65.25736 62.09974
# Shear Modulus (GPa) = 18.27670 25.04584 21.66127
#
# Velocity S-wave (km/s) = 2.94184 3.44380 3.20266
# Velocity P-wave (km/s) = 6.28088 6.83474 6.56366
#
# Compressibility (1/GPa) = 0.01696580
#
# Stress axis : x y z
#
# Youngs Moduli (GPa) = 49.72905 120.62545 28.40708
#
# Poissons Ratio (x) = 0.07620 0.53253
# Poissons Ratio (y) = 0.03141 0.11192
# Poissons Ratio (z) = 0.93224 0.47525
#
# Static dielectric constant tensor:
#      x y z
#    x -33.644710 0.000000 0.000000 
#    y 0.000000 3.994610 0.000000 
#    z 0.000000 0.000000 3.546010 
# 
# 
# High freq. dielectric constant tensor:
#      x y z
#    x 1.840690 0.000000 0.000000 
#    y 0.000000 1.849630 0.000000 
#    z 0.000000 0.000000 1.799580 
# 
# From -- ./inp_files/38228.got.cif
#   From: 2010.03.12/outbox.cif.g09.slc.cpg/sg63_20_cif.got.tgz:38228.got - 2010.04.10 19:34:48.
