data_PCOD8259218
_publ_section_title
;
Structure prediction by ZEFSAII (Michael W. Deem and Ramdas Pophale) SiO2 
 PCOD8259218
Probable space group: C M C M
;
_chemical_formula_sum "Si O2"
_cell_formula_units_Z 112
_cell_length_a 15.021341
_cell_length_b 16.527153
_cell_length_c 23.569453
_cell_angle_alpha 90.000000
_cell_angle_beta 90.000000
_cell_angle_gamma 90.000000
_cell_volume 5851.352425
_symmetry_space_group_name_H-M "C M C M"
_symmetry_group_IT_number 63
_symmetry_cell_setting 'orthorhombic'
loop_
_space_group_symop_operation_xyz
x,y,z
-x,-y,1/2+z
x,-y,-z
-x,y,1/2-z
-x,-y,-z
x,y,1/2-z
-x,y,z
x,-y,1/2+z
1/2+x,1/2+y,z
1/2-x,1/2-y,1/2+z
1/2+x,1/2-y,-z
1/2-x,1/2+y,1/2-z
1/2-x,1/2-y,-z
1/2+x,1/2+y,1/2-z
1/2-x,1/2+y,z
1/2+x,1/2-y,1/2+z
loop_
_atom_site_type_symbol
_atom_site_label
_atom_site_fract_x
_atom_site_fract_y
_atom_site_fract_z
Si Si1 0.401542 0.285837 0.685522
Si Si2 0.275615 0.301297 0.183655
Si Si3 0.399983 0.207928 0.397512
Si Si4 0.232612 0.941482 0.399572
Si Si5 0.398220 0.971820 0.564485
Si Si6 0.398722 0.589228 0.409426
Si Si7 0.322383 0.683619 0.513205
O O1 0.392215 0.314474 0.750000
O O2 0.500000 0.248734 0.673086
O O3 0.327868 0.218490 0.671673
O O4 0.386571 0.366889 0.650303
O O5 0.299468 0.304901 0.250000
O O6 0.334999 0.231057 0.154563
O O7 0.291823 0.389236 0.156147
O O8 0.500000 0.204445 0.373362
O O9 0.373340 0.122523 0.426374
O O10 0.395876 0.277022 0.445517
O O11 0.229231 0.888643 0.456244
O O12 0.332057 0.977968 0.394802
O O13 0.159793 0.009944 0.408085
O O14 0.500000 0.989031 0.582928
O O15 0.382881 0.000000 0.500000
O O16 0.500000 0.562382 0.420605
O O17 0.369925 0.652837 0.457082
O O18 0.250000 0.750000 0.500000
#
# Coordination Sequence:
#
# PCOD8259218 Si02
#       7
#    16  16  16  16  16  16  16
#     4   9  19  37  59  81 105 136 179 229 276 325
#     4  10  22  39  59  80 105 145 193 239 284 329
#     4  10  21  37  57  82 112 146 186 230 273 327
#     4  11  22  35  53  79 112 144 179 226 277 327
#     4  10  20  35  56  83 116 150 181 220 278 345
#     4  11  22  35  55  82 112 146 179 217 274 337
#     4  11  21  35  56  80 110 146 183 224 270 325
#
# _framework density 19.140872999999999
#
# number of rings (size 3 to 8) (size 9 to 14) (size 15 to 20)
#    0.000    1.714    0.000    6.000    0.000    4.857 
#    0.000    4.286    0.000    0.857    0.000    0.000 
#    0.000    0.000    0.000    0.000    0.000    0.000 
#
# Total GULP energy -694423.988342 kJ/mol
# GULP energy per Si atom -12400.428363 kJ/mol
# Density = 1.909731 g / cm^3
# Si number density = 19.140873 Si / 1000 Ang^3
#
#
#
# Elastic Constant Matrix: (Units=GPa)
#
#
# Indices 1 2 3 4 5 6 
#
# 1 118.2681 59.8216 53.8234 0.0000 0.0000 0.0000
# 2 59.8216 105.5171 48.5943 0.0000 0.0000 0.0000
# 3 53.8234 48.5943 104.2852 0.0000 0.0000 0.0000
# 4 0.0000 0.0000 0.0000 20.1855 0.0000 0.0000
# 5 0.0000 0.0000 0.0000 0.0000 27.7228 0.0000
# 6 0.0000 0.0000 0.0000 0.0000 0.0000 25.2802
#
#
#
# Elastic Compliance Matrix: (Units=1/GPa)
#
#
# Indices 1 2 3 4 5 6 
#
# 1 0.013171 -0.005521 -0.004225 0.000000 0.000000 0.000000
# 2 -0.005521 0.014381 -0.003852 0.000000 0.000000 0.000000
# 3 -0.004225 -0.003852 0.013564 0.000000 0.000000 0.000000
# 4 0.000000 0.000000 0.000000 0.049541 0.000000 0.000000
# 5 0.000000 0.000000 0.000000 0.000000 0.036071 0.000000
# 6 0.000000 0.000000 0.000000 0.000000 0.000000 0.039557
#
#
# Mechanical properties :
#
#
# Convention : Reuss Voigt Hill
#
# Bulk Modulus (GPa) = 71.83533 72.50545 72.17039
# Shear Modulus (GPa) = 25.23708 25.69310 25.46509
#
# Velocity S-wave (km/s) = 3.63504 3.66774 3.65143
# Velocity P-wave (km/s) = 7.43164 7.47653 7.45412
#
# Compressibility (1/GPa) = 0.01392073
#
# Stress axis : x y z
#
# Youngs Moduli (GPa) = 75.92510 69.53521 73.72241
#
# Poissons Ratio (x) = 0.38393 0.31147
# Poissons Ratio (y) = 0.41921 0.28395
# Poissons Ratio (z) = 0.32078 0.26782
#
# Static dielectric constant tensor:
#      x y z
#    x 3.616680 0.000000 0.000000 
#    y 0.000000 3.606600 0.000000 
#    z 0.000000 0.000000 3.480080 
# 
# 
# High freq. dielectric constant tensor:
#      x y z
#    x 1.759560 0.000000 0.000000 
#    y 0.000000 1.744530 0.000000 
#    z 0.000000 0.000000 1.735480 
# 
# From -- ./inp_files/62967.got.cif
#   From: 2010.03.12/outbox.cif.g09.slc.cpg/sg63_32_cif.got.tgz:62967.got - 2010.04.10 19:34:48.
