data_PCOD8259559
_publ_section_title
;
Structure prediction by ZEFSAII (Michael W. Deem and Ramdas Pophale) SiO2 
 PCOD8259559
Probable space group: C M C M
;
_chemical_formula_sum "Si O2"
_cell_formula_units_Z 84
_cell_length_a 14.913582
_cell_length_b 29.284238
_cell_length_c 10.088367
_cell_angle_alpha 90.000000
_cell_angle_beta 90.000000
_cell_angle_gamma 90.000000
_cell_volume 4405.921622
_symmetry_space_group_name_H-M "C M C M"
_symmetry_group_IT_number 63
_symmetry_cell_setting 'orthorhombic'
loop_
_space_group_symop_operation_xyz
x,y,z
-x,-y,1/2+z
x,-y,-z
-x,y,1/2-z
-x,-y,-z
x,y,1/2-z
-x,y,z
x,-y,1/2+z
1/2+x,1/2+y,z
1/2-x,1/2-y,1/2+z
1/2+x,1/2-y,-z
1/2-x,1/2+y,1/2-z
1/2-x,1/2-y,-z
1/2+x,1/2+y,1/2-z
1/2-x,1/2+y,z
1/2+x,1/2-y,1/2+z
loop_
_atom_site_type_symbol
_atom_site_label
_atom_site_fract_x
_atom_site_fract_y
_atom_site_fract_z
Si Si1 0.400111 0.032333 0.250000
Si Si2 0.695599 0.216152 0.404258
Si Si3 0.000000 0.820876 0.902323
Si Si4 0.500000 0.218712 0.984357
Si Si5 0.677311 0.362381 0.902614
Si Si6 0.500000 0.852820 0.250000
Si Si7 0.143857 0.430207 0.250000
Si Si8 0.733813 0.050798 0.017274
O O1 0.500000 0.053586 0.250000
O O2 0.349647 0.049583 0.381118
O O3 0.411038 0.977587 0.250000
O O4 0.714387 0.229026 0.250000
O O5 0.750000 0.250000 0.500000
O O6 0.588995 0.215684 0.426121
O O7 0.733281 0.165816 0.441069
O O8 0.088391 0.842038 0.974651
O O9 0.000000 0.835352 0.750000
O O10 0.000000 0.766511 0.909309
O O11 0.500000 0.177940 0.879943
O O12 0.659545 0.354903 0.750000
O O13 0.688368 0.416096 0.931001
O O14 0.585491 0.885122 0.250000
O O15 0.205339 0.428191 0.378492
O O16 0.774174 0.000000 0.000000
#
# Coordination Sequence:
#
# PCOD8259559 Si02
#       8
#     8  16   8   8  16   4   8  16
#     4  10  20  36  61  80 117 164 206 240 298 372
#     4  11  24  41  66  90 127 163 208 257 308 370
#     4  10  20  37  64  87 116 155 205 248 296 368
#     4  12  23  40  59  93 126 164 208 254 316 354
#     4  10  20  40  62  89 117 160 206 245 301 366
#     4  12  24  34  60  84 130 158 212 252 306 366
#     4  10  22  36  54  88 121 160 194 254 303 358
#     4  10  21  38  59  85 119 157 199 251 307 360
#
# _framework density 19.065252000000001
#
# number of rings (size 3 to 8) (size 9 to 14) (size 15 to 20)
#    0.000    1.524    3.810    1.429    2.667    1.143 
#    3.429    0.476    0.000    0.000    0.000    0.000 
#    0.000    0.000    0.000    0.000    0.000    0.000 
#
# Total GULP energy -520622.237104 kJ/mol
# GULP energy per Si atom -12395.767550 kJ/mol
# Density = 1.902186 g / cm^3
# Si number density = 19.065252 Si / 1000 Ang^3
#
#
#
# Elastic Constant Matrix: (Units=GPa)
#
#
# Indices 1 2 3 4 5 6 
#
# 1 135.2524 64.5701 31.5481 0.0000 0.0000 0.0000
# 2 64.5701 136.2640 28.5271 0.0000 0.0000 0.0000
# 3 31.5481 28.5271 82.8433 0.0000 0.0000 0.0000
# 4 0.0000 0.0000 0.0000 144.8268 0.0000 0.0000
# 5 0.0000 0.0000 0.0000 0.0000 30.6680 0.0000
# 6 0.0000 0.0000 0.0000 0.0000 0.0000 24.9380
#
#
#
# Elastic Compliance Matrix: (Units=1/GPa)
#
#
# Indices 1 2 3 4 5 6 
#
# 1 0.009958 -0.004230 -0.002336 0.000000 0.000000 0.000000
# 2 -0.004230 0.009705 -0.001731 0.000000 0.000000 0.000000
# 3 -0.002336 -0.001731 0.013557 0.000000 0.000000 0.000000
# 4 0.000000 0.000000 0.000000 0.006905 0.000000 0.000000
# 5 0.000000 0.000000 0.000000 0.000000 0.032607 0.000000
# 6 0.000000 0.000000 0.000000 0.000000 0.000000 0.040099
#
#
# Mechanical properties :
#
#
# Convention : Reuss Voigt Hill
#
# Bulk Modulus (GPa) = 60.14461 67.07227 63.60844
# Shear Modulus (GPa) = 37.04633 55.40086 46.22360
#
# Velocity S-wave (km/s) = 4.41288 5.39645 4.92926
# Velocity P-wave (km/s) = 7.58814 8.60730 8.11374
#
# Compressibility (1/GPa) = 0.01662659
#
# Stress axis : x y z
#
# Youngs Moduli (GPa) = 100.42614 103.03569 73.76480
#
# Poissons Ratio (x) = 0.43579 0.17228
# Poissons Ratio (y) = 0.42476 0.12771
# Poissons Ratio (z) = 0.23455 0.17839
#
# Static dielectric constant tensor:
#      x y z
#    x 3.566690 0.000000 0.000000 
#    y 0.000000 3.537150 0.000000 
#    z 0.000000 0.000000 3.443510 
# 
# 
# High freq. dielectric constant tensor:
#      x y z
#    x 1.731870 0.000000 0.000000 
#    y 0.000000 1.747540 0.000000 
#    z 0.000000 0.000000 1.734390 
# 
# From -- ./inp_files/19572.got.cif
#   From: 2010.03.12/outbox.cif.g09.slc.cpg/sg63_10_cif.got.tgz:19572.got - 2010.04.10 19:34:48.
