data_PCOD8259211
_publ_section_title
;
Structure prediction by ZEFSAII (Michael W. Deem and Ramdas Pophale) SiO2 
 PCOD8259211
Probable space group: C M C M
;
_chemical_formula_sum "Si O2"
_cell_formula_units_Z 96
_cell_length_a 8.590996
_cell_length_b 28.941654
_cell_length_c 20.321865
_cell_angle_alpha 90.000000
_cell_angle_beta 90.000000
_cell_angle_gamma 90.000000
_cell_volume 5052.780427
_symmetry_space_group_name_H-M "C M C M"
_symmetry_group_IT_number 63
_symmetry_cell_setting 'orthorhombic'
loop_
_space_group_symop_operation_xyz
x,y,z
-x,-y,1/2+z
x,-y,-z
-x,y,1/2-z
-x,-y,-z
x,y,1/2-z
-x,y,z
x,-y,1/2+z
1/2+x,1/2+y,z
1/2-x,1/2-y,1/2+z
1/2+x,1/2-y,-z
1/2-x,1/2+y,1/2-z
1/2-x,1/2-y,-z
1/2+x,1/2+y,1/2-z
1/2-x,1/2+y,z
1/2+x,1/2-y,1/2+z
loop_
_atom_site_type_symbol
_atom_site_label
_atom_site_fract_x
_atom_site_fract_y
_atom_site_fract_z
Si Si1 0.185117 0.219221 0.323075
Si Si2 0.181859 0.379809 0.016216
Si Si3 0.681331 0.530121 0.562565
Si Si4 0.182794 0.879611 0.873989
Si Si5 0.183219 0.279560 0.059001
Si Si6 0.178578 0.470894 0.825116
O O1 0.252531 0.228371 0.250000
O O2 0.244696 0.169925 0.349654
O O3 0.247177 0.259333 0.371781
O O4 0.000000 0.218874 0.321200
O O5 0.281756 0.385956 0.950618
O O6 0.000000 0.379029 0.998539
O O7 0.221687 0.422318 0.064047
O O8 0.233269 0.332868 0.053049
O O9 0.735656 0.500000 0.500000
O O10 0.500000 0.541776 0.558140
O O11 0.714919 0.502905 0.629421
O O12 0.271600 0.917760 0.831604
O O13 0.000000 0.885599 0.862265
O O14 0.000000 0.273737 0.056291
O O15 0.250000 0.250000 0.000000
O O16 0.202175 0.486695 0.750000
O O17 0.000000 0.476152 0.847166
#
# Coordination Sequence:
#
# PCOD8259211 Si02
#       6
#    16  16  16  16  16  16
#     4   9  18  33  54  81 113 149 188 230 276 330
#     4  11  22  35  56  86 117 149 189 241 292 339
#     4  11  23  39  61  86 112 150 196 239 284 340
#     4  11  20  33  57  86 116 150 189 235 284 341
#     4  10  20  35  56  82 113 149 190 233 281 336
#     4  11  24  40  59  86 120 154 187 232 291 347
#
# _framework density 18.99944
#
# number of rings (size 3 to 8) (size 9 to 14) (size 15 to 20)
#    0.000    1.500    3.333    2.500    0.000    3.333 
#    0.000    0.833    0.000    4.500    0.000    0.000 
#    0.000    0.000    0.000    0.000    0.000    0.000 
#
# Total GULP energy -595375.903751 kJ/mol
# GULP energy per Si atom -12403.664661 kJ/mol
# Density = 1.895620 g / cm^3
# Si number density = 18.999440 Si / 1000 Ang^3
#
#
#
# Elastic Constant Matrix: (Units=GPa)
#
#
# Indices 1 2 3 4 5 6 
#
# 1 34.8303 23.5622 18.9792 0.0000 0.0000 0.0000
# 2 23.5622 134.0998 52.0367 0.0000 0.0000 0.0000
# 3 18.9792 52.0367 111.5182 0.0000 0.0000 0.0000
# 4 0.0000 0.0000 0.0000 32.4767 0.0000 0.0000
# 5 0.0000 0.0000 0.0000 0.0000 23.7324 0.0000
# 6 0.0000 0.0000 0.0000 0.0000 0.0000 26.4095
#
#
#
# Elastic Compliance Matrix: (Units=1/GPa)
#
#
# Indices 1 2 3 4 5 6 
#
# 1 0.033749 -0.004519 -0.003635 0.000000 0.000000 0.000000
# 2 -0.004519 0.009711 -0.003762 0.000000 0.000000 0.000000
# 3 -0.003635 -0.003762 0.011341 0.000000 0.000000 0.000000
# 4 0.000000 0.000000 0.000000 0.030791 0.000000 0.000000
# 5 0.000000 0.000000 0.000000 0.000000 0.042137 0.000000
# 6 0.000000 0.000000 0.000000 0.000000 0.000000 0.037865
#
#
# Mechanical properties :
#
#
# Convention : Reuss Voigt Hill
#
# Bulk Modulus (GPa) = 32.29133 52.17830 42.23481
# Shear Modulus (GPa) = 25.03134 28.91506 26.97320
#
# Velocity S-wave (km/s) = 3.63365 3.90537 3.77196
# Velocity P-wave (km/s) = 5.88535 6.91799 6.42246
#
# Compressibility (1/GPa) = 0.03096807
#
# Stress axis : x y z
#
# Youngs Moduli (GPa) = 29.63091 102.97438 88.17320
#
# Poissons Ratio (x) = 0.46538 0.32049
# Poissons Ratio (y) = 0.13391 0.33173
# Poissons Ratio (z) = 0.10770 0.38742
#
# Static dielectric constant tensor:
#      x y z
#    x 3.321790 0.000000 0.000000 
#    y 0.000000 3.678820 0.000000 
#    z 0.000000 0.000000 3.577480 
# 
# 
# High freq. dielectric constant tensor:
#      x y z
#    x 1.728710 0.000000 0.000000 
#    y 0.000000 1.742790 0.000000 
#    z 0.000000 0.000000 1.735140 
# 
# From -- ./inp_files/51282.got.cif
#   From: 2010.03.12/outbox.cif.g09.slc.cpg/sg63_26_cif.got.tgz:51282.got - 2010.04.10 19:34:48.
