data_PCOD8259027
_publ_section_title
;
Structure prediction by ZEFSAII (Michael W. Deem and Ramdas Pophale) SiO2 
 PCOD8259027
Probable space group: C M C M
;
_chemical_formula_sum "Si O2"
_cell_formula_units_Z 88
_cell_length_a 27.235821
_cell_length_b 19.467778
_cell_length_c 8.875648
_cell_angle_alpha 90.000000
_cell_angle_beta 90.000000
_cell_angle_gamma 90.000000
_cell_volume 4706.054220
_symmetry_space_group_name_H-M "C M C M"
_symmetry_group_IT_number 63
_symmetry_cell_setting 'orthorhombic'
loop_
_space_group_symop_operation_xyz
x,y,z
-x,-y,1/2+z
x,-y,-z
-x,y,1/2-z
-x,-y,-z
x,y,1/2-z
-x,y,z
x,-y,1/2+z
1/2+x,1/2+y,z
1/2-x,1/2-y,1/2+z
1/2+x,1/2-y,-z
1/2-x,1/2+y,1/2-z
1/2-x,1/2-y,-z
1/2+x,1/2+y,1/2-z
1/2-x,1/2+y,z
1/2+x,1/2-y,1/2+z
loop_
_atom_site_type_symbol
_atom_site_label
_atom_site_fract_x
_atom_site_fract_y
_atom_site_fract_z
Si Si1 0.912160 0.670803 0.572633
Si Si2 0.369718 0.428737 0.426853
Si Si3 0.056242 0.191022 0.577643
Si Si4 0.684548 0.197203 0.073864
Si Si5 0.206998 0.160689 0.073419
Si Si6 0.500000 0.074143 0.927950
O O1 0.904125 0.667256 0.750000
O O2 0.931016 0.746065 0.529981
O O3 0.860723 0.653009 0.490624
O O4 0.951832 0.615105 0.517337
O O5 0.385975 0.500000 0.500000
O O6 0.363340 0.438297 0.250000
O O7 0.411507 0.374162 0.469630
O O8 0.317631 0.405107 0.496234
O O9 0.067188 0.212828 0.750000
O O10 0.000000 0.169348 0.555453
O O11 0.677989 0.210027 0.250000
O O12 0.734953 0.157493 0.037668
O O13 0.683075 0.271021 0.994791
O O14 0.196463 0.160271 0.250000
O O15 0.500000 0.066812 0.750000
O O16 0.500000 0.000000 0.000000
#
# Coordination Sequence:
#
# PCOD8259027 Si02
#       6
#    16  16  16  16  16   8
#     4  11  21  36  59  88 119 150 192 240 286 342
#     4  11  23  38  57  82 117 158 201 243 293 351
#     4  10  21  37  58  85 115 151 197 242 289 345
#     4  10  20  34  56  87 116 147 189 236 289 343
#     4  10  20  35  56  83 116 150 190 240 290 340
#     4  10  24  42  60  88 119 152 191 232 289 351
#
# _framework density 18.699316
#
# number of rings (size 3 to 8) (size 9 to 14) (size 15 to 20)
#    0.000    1.636    2.727    2.182    0.000    4.727 
#    0.000    0.909    0.000    2.182    0.000    0.000 
#    0.000    0.000    0.000    0.000    0.000    0.000 
#
# Total GULP energy -545791.598098 kJ/mol
# GULP energy per Si atom -12404.354502 kJ/mol
# Density = 1.865676 g / cm^3
# Si number density = 18.699316 Si / 1000 Ang^3
#
#
#
# Elastic Constant Matrix: (Units=GPa)
#
#
# Indices 1 2 3 4 5 6 
#
# 1 142.1623 62.7986 46.3538 0.0000 0.0000 0.0000
# 2 62.7986 112.3767 47.7656 0.0000 0.0000 0.0000
# 3 46.3538 47.7656 79.4994 0.0000 0.0000 0.0000
# 4 0.0000 0.0000 0.0000 33.4958 0.0000 0.0000
# 5 0.0000 0.0000 0.0000 0.0000 31.6108 0.0000
# 6 0.0000 0.0000 0.0000 0.0000 0.0000 26.0785
#
#
#
# Elastic Compliance Matrix: (Units=1/GPa)
#
#
# Indices 1 2 3 4 5 6 
#
# 1 0.009946 -0.004154 -0.003304 0.000000 0.000000 0.000000
# 2 -0.004154 0.013686 -0.005801 0.000000 0.000000 0.000000
# 3 -0.003304 -0.005801 0.017990 0.000000 0.000000 0.000000
# 4 0.000000 0.000000 0.000000 0.029854 0.000000 0.000000
# 5 0.000000 0.000000 0.000000 0.000000 0.031635 0.000000
# 6 0.000000 0.000000 0.000000 0.000000 0.000000 0.038346
#
#
# Mechanical properties :
#
#
# Convention : Reuss Voigt Hill
#
# Bulk Modulus (GPa) = 66.20057 71.98605 69.09331
# Shear Modulus (GPa) = 28.90029 30.04506 29.47268
#
# Velocity S-wave (km/s) = 3.93558 4.01277 3.97437
# Velocity P-wave (km/s) = 7.49208 7.74919 7.62172
#
# Compressibility (1/GPa) = 0.01510561
#
# Stress axis : x y z
#
# Youngs Moduli (GPa) = 100.53879 73.06970 55.58620
#
# Poissons Ratio (x) = 0.30354 0.18363
# Poissons Ratio (y) = 0.41765 0.32243
# Poissons Ratio (z) = 0.33214 0.42385
#
# Static dielectric constant tensor:
#      x y z
#    x 3.784570 0.000000 0.000000 
#    y 0.000000 3.267110 0.000000 
#    z 0.000000 0.000000 3.791440 
# 
# 
# High freq. dielectric constant tensor:
#      x y z
#    x 1.744590 0.000000 0.000000 
#    y 0.000000 1.699650 0.000000 
#    z 0.000000 0.000000 1.736100 
# 
# From -- ./inp_files/14197.got.cif
#   From: 2010.03.12/outbox.cif.g09.slc.cpg/sg63_8_cif.got.tgz:14197.got - 2010.04.10 19:34:48.
