data_PCOD8259141
_publ_section_title
;
Structure prediction by ZEFSAII (Michael W. Deem and Ramdas Pophale) SiO2 
 PCOD8259141
Probable space group: C M C M
;
_chemical_formula_sum "Si O2"
_cell_formula_units_Z 80
_cell_length_a 8.991735
_cell_length_b 18.422275
_cell_length_c 25.223823
_cell_angle_alpha 90.000000
_cell_angle_beta 90.000000
_cell_angle_gamma 90.000000
_cell_volume 4178.281253
_symmetry_space_group_name_H-M "C M C M"
_symmetry_group_IT_number 63
_symmetry_cell_setting 'orthorhombic'
loop_
_space_group_symop_operation_xyz
x,y,z
-x,-y,1/2+z
x,-y,-z
-x,y,1/2-z
-x,-y,-z
x,y,1/2-z
-x,y,z
x,-y,1/2+z
1/2+x,1/2+y,z
1/2-x,1/2-y,1/2+z
1/2+x,1/2-y,-z
1/2-x,1/2+y,1/2-z
1/2-x,1/2-y,-z
1/2+x,1/2+y,1/2-z
1/2-x,1/2+y,z
1/2+x,1/2-y,1/2+z
loop_
_atom_site_type_symbol
_atom_site_label
_atom_site_fract_x
_atom_site_fract_y
_atom_site_fract_z
Si Si1 0.673470 0.073364 0.848114
Si Si2 0.328967 0.819829 0.059364
Si Si3 0.173303 0.326951 0.937822
Si Si4 0.824216 0.330433 0.250000
Si Si5 0.823116 0.168076 0.250000
Si Si6 0.323800 0.420440 0.648315
O O1 0.500000 0.053743 0.841411
O O2 0.705137 0.110785 0.904519
O O3 0.729203 0.127400 0.802196
O O4 0.770834 0.002013 0.843651
O O5 0.500000 0.795266 0.064966
O O6 0.230457 0.752449 0.078992
O O7 0.290211 0.841758 0.999382
O O8 0.256572 0.389112 0.905604
O O9 0.000000 0.332026 0.925476
O O10 0.755749 0.249393 0.250000
O O11 0.000000 0.323173 0.250000
O O12 0.765014 0.126764 0.302165
O O13 0.000000 0.169492 0.250000
O O14 0.500000 0.418888 0.644219
#
# Coordination Sequence:
#
# PCOD8259141 Si02
#       6
#    16  16  16   8   8  16
#     4  10  20  35  55  79 108 140 176 218 265 318
#     4   9  19  36  57  79 107 145 183 221 268 321
#     4  10  20  35  56  81 108 140 182 227 268 316
#     4   9  17  32  57  81 100 131 176 221 264 314
#     4   9  19  36  57  79 104 139 180 219 266 324
#     4  11  22  36  55  79 110 144 178 219 268 321
#
# _framework density 19.146629000000001
#
# number of rings (size 3 to 8) (size 9 to 14) (size 15 to 20)
#    0.000    2.200    0.000    3.000    0.000    5.600 
#    0.000    5.500    0.000    2.400    0.000    0.000 
#    0.000    0.000    0.000    0.000    0.000    0.000 
#
# Total GULP energy -496159.552755 kJ/mol
# GULP energy per Si atom -12403.988819 kJ/mol
# Density = 1.910305 g / cm^3
# Si number density = 19.146629 Si / 1000 Ang^3
#
#
#
# Elastic Constant Matrix: (Units=GPa)
#
#
# Indices 1 2 3 4 5 6 
#
# 1 63.0379 48.9595 38.0086 0.0000 0.0000 0.0000
# 2 48.9595 155.5563 73.6020 0.0000 0.0000 0.0000
# 3 38.0086 73.6020 112.0947 0.0000 0.0000 0.0000
# 4 0.0000 0.0000 0.0000 28.5540 0.0000 0.0000
# 5 0.0000 0.0000 0.0000 0.0000 21.7660 0.0000
# 6 0.0000 0.0000 0.0000 0.0000 0.0000 37.9958
#
#
#
# Elastic Compliance Matrix: (Units=1/GPa)
#
#
# Indices 1 2 3 4 5 6 
#
# 1 0.022333 -0.004999 -0.004290 0.000000 0.000000 0.000000
# 2 -0.004999 0.010445 -0.005163 0.000000 0.000000 0.000000
# 3 -0.004290 -0.005163 0.013766 0.000000 0.000000 0.000000
# 4 0.000000 0.000000 0.000000 0.035021 0.000000 0.000000
# 5 0.000000 0.000000 0.000000 0.000000 0.045943 0.000000
# 6 0.000000 0.000000 0.000000 0.000000 0.000000 0.026319
#
#
# Mechanical properties :
#
#
# Convention : Reuss Voigt Hill
#
# Bulk Modulus (GPa) = 56.69271 72.42545 64.55908
# Shear Modulus (GPa) = 26.50958 29.00441 27.75699
#
# Velocity S-wave (km/s) = 3.72500 3.89634 3.81163
# Velocity P-wave (km/s) = 6.94081 7.62567 7.29128
#
# Compressibility (1/GPa) = 0.01763895
#
# Stress axis : x y z
#
# Youngs Moduli (GPa) = 44.77711 95.74060 72.64383
#
# Poissons Ratio (x) = 0.47862 0.31165
# Poissons Ratio (y) = 0.22385 0.37507
# Poissons Ratio (z) = 0.19210 0.49432
#
# Static dielectric constant tensor:
#      x y z
#    x 3.314220 0.000000 0.000000 
#    y 0.000000 3.504980 0.000000 
#    z 0.000000 0.000000 3.712900 
# 
# 
# High freq. dielectric constant tensor:
#      x y z
#    x 1.724880 0.000000 0.000000 
#    y 0.000000 1.748450 0.000000 
#    z 0.000000 0.000000 1.758670 
# 
# From -- ./inp_files/66646.got.cif
#   From: 2010.03.12/outbox.cif.g09.slc.cpg/sg63_34_cif.got.tgz:66646.got - 2010.04.10 19:34:48.
