data_PCOD8259393
_publ_section_title
;
Structure prediction by ZEFSAII (Michael W. Deem and Ramdas Pophale) SiO2 
 PCOD8259393
Probable space group: C M C M
;
_chemical_formula_sum "Si O2"
_cell_formula_units_Z 96
_cell_length_a 13.176497
_cell_length_b 23.095116
_cell_length_c 16.320075
_cell_angle_alpha 90.000000
_cell_angle_beta 90.000000
_cell_angle_gamma 90.000000
_cell_volume 4966.406523
_symmetry_space_group_name_H-M "C M C M"
_symmetry_group_IT_number 63
_symmetry_cell_setting 'orthorhombic'
loop_
_space_group_symop_operation_xyz
x,y,z
-x,-y,1/2+z
x,-y,-z
-x,y,1/2-z
-x,-y,-z
x,y,1/2-z
-x,y,z
x,-y,1/2+z
1/2+x,1/2+y,z
1/2-x,1/2-y,1/2+z
1/2+x,1/2-y,-z
1/2-x,1/2+y,1/2-z
1/2-x,1/2-y,-z
1/2+x,1/2+y,1/2-z
1/2-x,1/2+y,z
1/2+x,1/2-y,1/2+z
loop_
_atom_site_type_symbol
_atom_site_label
_atom_site_fract_x
_atom_site_fract_y
_atom_site_fract_z
Si Si1 0.208630 0.473440 0.581691
Si Si2 0.616123 0.599481 0.004945
Si Si3 0.611707 0.814968 0.154365
Si Si4 0.268325 0.588518 0.655332
Si Si5 0.616172 0.863006 0.655301
Si Si6 0.213369 0.211062 0.426919
O O1 0.157292 0.500000 0.500000
O O2 0.316728 0.446068 0.555640
O O3 0.225470 0.523355 0.649227
O O4 0.132878 0.426496 0.618249
O O5 0.500000 0.582632 0.019592
O O6 0.638077 0.596753 0.907130
O O7 0.635741 0.663172 0.040456
O O8 0.600955 0.823030 0.250000
O O9 0.500000 0.821310 0.113246
O O10 0.683943 0.866239 0.121725
O O11 0.655906 0.751370 0.137858
O O12 0.300436 0.600823 0.750000
O O13 0.645134 0.865368 0.750000
O O14 0.500000 0.844454 0.641269
O O15 0.686509 0.815819 0.612979
O O16 0.250000 0.250000 0.500000
#
# Coordination Sequence:
#
# PCOD8259393 Si02
#       6
#    16  16  16  16  16  16
#     4   9  20  37  58  85 115 150 190 235 282 330
#     4  10  21  38  58  82 111 148 192 235 280 330
#     4  10  21  37  58  83 112 148 188 230 278 335
#     4  10  20  36  56  83 116 149 185 230 284 338
#     4  10  22  39  60  86 116 150 189 236 289 342
#     4  11  21  39  58  82 113 150 187 236 282 336
#
# _framework density 19.329871000000001
#
# number of rings (size 3 to 8) (size 9 to 14) (size 15 to 20)
#    0.000    2.000    1.667    1.500    0.000    5.667 
#    0.000    1.667    0.000    9.500    0.000    0.000 
#    0.000    0.000    0.000    0.000    0.000    0.000 
#
# Total GULP energy -595204.822412 kJ/mol
# GULP energy per Si atom -12400.100467 kJ/mol
# Density = 1.928588 g / cm^3
# Si number density = 19.329871 Si / 1000 Ang^3
#
#
#
# Elastic Constant Matrix: (Units=GPa)
#
#
# Indices 1 2 3 4 5 6 
#
# 1 89.3667 34.9895 33.0794 0.0000 0.0000 0.0000
# 2 34.9895 118.2692 33.3724 0.0000 0.0000 0.0000
# 3 33.0794 33.3724 78.4085 0.0000 0.0000 0.0000
# 4 0.0000 0.0000 0.0000 38.2219 0.0000 0.0000
# 5 0.0000 0.0000 0.0000 0.0000 26.7837 0.0000
# 6 0.0000 0.0000 0.0000 0.0000 0.0000 17.7236
#
#
#
# Elastic Compliance Matrix: (Units=1/GPa)
#
#
# Indices 1 2 3 4 5 6 
#
# 1 0.014043 -0.002822 -0.004724 0.000000 0.000000 0.000000
# 2 -0.002822 0.010176 -0.003141 0.000000 0.000000 0.000000
# 3 -0.004724 -0.003141 0.016083 0.000000 0.000000 0.000000
# 4 0.000000 0.000000 0.000000 0.026163 0.000000 0.000000
# 5 0.000000 0.000000 0.000000 0.000000 0.037336 0.000000
# 6 0.000000 0.000000 0.000000 0.000000 0.000000 0.056422
#
#
# Mechanical properties :
#
#
# Convention : Reuss Voigt Hill
#
# Bulk Modulus (GPa) = 52.82485 54.32522 53.57503
# Shear Modulus (GPa) = 26.60902 28.85272 27.73087
#
# Velocity S-wave (km/s) = 3.71425 3.86767 3.79174
# Velocity P-wave (km/s) = 6.76621 6.93617 6.85172
#
# Compressibility (1/GPa) = 0.01893048
#
# Stress axis : x y z
#
# Youngs Moduli (GPa) = 71.20950 98.26712 62.17617
#
# Poissons Ratio (x) = 0.27728 0.29369
# Poissons Ratio (y) = 0.20093 0.19529
# Poissons Ratio (z) = 0.33636 0.30864
#
# Static dielectric constant tensor:
#      x y z
#    x 3.569540 0.000000 0.000000 
#    y 0.000000 3.793380 0.000000 
#    z 0.000000 0.000000 3.995290 
# 
# 
# High freq. dielectric constant tensor:
#      x y z
#    x 1.739530 0.000000 0.000000 
#    y 0.000000 1.768510 0.000000 
#    z 0.000000 0.000000 1.755350 
# 
# From -- ./inp_files/42485.got.cif
#   From: 2010.03.12/outbox.cif.g09.slc.cpg/sg63_22_cif.got.tgz:42485.got - 2010.04.10 19:34:48.
