data_PCOD8259410
_publ_section_title
;
Structure prediction by ZEFSAII (Michael W. Deem and Ramdas Pophale) SiO2 
 PCOD8259410
Probable space group: C M C M
;
_chemical_formula_sum "Si O2"
_cell_formula_units_Z 96
_cell_length_a 28.770676
_cell_length_b 19.388343
_cell_length_c 9.019366
_cell_angle_alpha 90.000000
_cell_angle_beta 90.000000
_cell_angle_gamma 90.000000
_cell_volume 5031.144271
_symmetry_space_group_name_H-M "C M C M"
_symmetry_group_IT_number 63
_symmetry_cell_setting 'orthorhombic'
loop_
_space_group_symop_operation_xyz
x,y,z
-x,-y,1/2+z
x,-y,-z
-x,y,1/2-z
-x,-y,-z
x,y,1/2-z
-x,y,z
x,-y,1/2+z
1/2+x,1/2+y,z
1/2-x,1/2-y,1/2+z
1/2+x,1/2-y,-z
1/2-x,1/2+y,1/2-z
1/2-x,1/2-y,-z
1/2+x,1/2+y,1/2-z
1/2-x,1/2+y,z
1/2+x,1/2-y,1/2+z
loop_
_atom_site_type_symbol
_atom_site_label
_atom_site_fract_x
_atom_site_fract_y
_atom_site_fract_z
Si Si1 0.945501 0.935498 0.587393
Si Si2 0.447127 0.927920 0.924549
Si Si3 0.300951 0.573846 0.575446
Si Si4 0.372720 0.181894 0.075401
Si Si5 0.109671 0.166808 0.578081
Si Si6 0.233387 0.321321 0.926557
O O1 0.922517 0.935113 0.750000
O O2 0.934774 0.864638 0.503945
O O3 0.000000 0.944347 0.600259
O O4 0.923345 0.000000 0.500000
O O5 0.440747 0.937504 0.750000
O O6 0.500000 0.904548 0.962633
O O7 0.410473 0.872066 0.989174
O O8 0.435056 0.000000 0.000000
O O9 0.307149 0.500000 0.500000
O O10 0.290517 0.565845 0.750000
O O11 0.346490 0.618722 0.545950
O O12 0.259219 0.613572 0.495784
O O13 0.378960 0.185455 0.250000
O O14 0.382284 0.257753 0.009237
O O15 0.320176 0.162418 0.034050
O O16 0.097813 0.170872 0.750000
O O17 0.241231 0.315725 0.750000
O O18 0.250000 0.250000 0.000000
#
# Coordination Sequence:
#
# PCOD8259410 Si02
#       6
#    16  16  16  16  16  16
#     4  10  21  36  53  76 107 143 184 229 277 330
#     4   9  18  35  59  84 113 149 187 231 286 342
#     4  11  23  39  58  85 115 149 193 239 288 345
#     4   9  19  36  58  85 113 145 187 234 280 337
#     4  10  20  36  57  81 110 143 184 233 282 338
#     4  11  21  38  60  83 115 153 192 241 293 348
#
# _framework density 19.081147000000001
#
# number of rings (size 3 to 8) (size 9 to 14) (size 15 to 20)
#    0.000    2.000    1.667    2.000    0.000    5.000 
#    0.000    5.833    0.000    2.000    0.000    0.000 
#    0.000    0.000    0.000    0.000    0.000    0.000 
#
# Total GULP energy -595159.359227 kJ/mol
# GULP energy per Si atom -12399.153317 kJ/mol
# Density = 1.903772 g / cm^3
# Si number density = 19.081147 Si / 1000 Ang^3
#
#
#
# Elastic Constant Matrix: (Units=GPa)
#
#
# Indices 1 2 3 4 5 6 
#
# 1 86.3450 63.7704 43.0442 0.0000 0.0000 0.0000
# 2 63.7704 150.9707 57.8925 0.0000 0.0000 0.0000
# 3 43.0442 57.8925 80.5234 0.0000 0.0000 0.0000
# 4 0.0000 0.0000 0.0000 34.4277 0.0000 0.0000
# 5 0.0000 0.0000 0.0000 0.0000 26.2722 0.0000
# 6 0.0000 0.0000 0.0000 0.0000 0.0000 38.5061
#
#
#
# Elastic Compliance Matrix: (Units=1/GPa)
#
#
# Indices 1 2 3 4 5 6 
#
# 1 0.018698 -0.005613 -0.005960 0.000000 0.000000 0.000000
# 2 -0.005613 0.010830 -0.004786 0.000000 0.000000 0.000000
# 3 -0.005960 -0.004786 0.019045 0.000000 0.000000 0.000000
# 4 0.000000 0.000000 0.000000 0.029046 0.000000 0.000000
# 5 0.000000 0.000000 0.000000 0.000000 0.038063 0.000000
# 6 0.000000 0.000000 0.000000 0.000000 0.000000 0.025970
#
#
# Mechanical properties :
#
#
# Convention : Reuss Voigt Hill
#
# Bulk Modulus (GPa) = 63.06593 71.91706 67.49149
# Shear Modulus (GPa) = 27.83126 30.05000 28.94063
#
# Velocity S-wave (km/s) = 3.82327 3.97275 3.89873
# Velocity P-wave (km/s) = 7.25349 7.66913 7.46420
#
# Compressibility (1/GPa) = 0.01585642
#
# Stress axis : x y z
#
# Youngs Moduli (GPa) = 53.48263 92.33783 52.50611
#
# Poissons Ratio (x) = 0.51825 0.31292
# Poissons Ratio (y) = 0.30017 0.25129
# Poissons Ratio (z) = 0.31874 0.44192
#
# Static dielectric constant tensor:
#      x y z
#    x 3.567560 0.000000 0.000000 
#    y 0.000000 3.688660 0.000000 
#    z 0.000000 0.000000 3.534150 
# 
# 
# High freq. dielectric constant tensor:
#      x y z
#    x 1.744440 0.000000 0.000000 
#    y 0.000000 1.748300 0.000000 
#    z 0.000000 0.000000 1.732360 
# 
# From -- ./inp_files/12406.got.cif
#   From: 2010.03.12/outbox.cif.g09.slc.cpg/sg63_7_cif.got.tgz:12406.got - 2010.04.10 19:34:48.
