data_PCOD8259676
_publ_section_title
;
Structure prediction by ZEFSAII (Michael W. Deem and Ramdas Pophale) SiO2 
 PCOD8259676
Probable space group: C M C M
;
_chemical_formula_sum "Si O2"
_cell_formula_units_Z 64
_cell_length_a 15.133202
_cell_length_b 12.932169
_cell_length_c 16.286191
_cell_angle_alpha 90.000000
_cell_angle_beta 90.000000
_cell_angle_gamma 90.000000
_cell_volume 3187.291058
_symmetry_space_group_name_H-M "C M C M"
_symmetry_group_IT_number 63
_symmetry_cell_setting 'orthorhombic'
loop_
_space_group_symop_operation_xyz
x,y,z
-x,-y,1/2+z
x,-y,-z
-x,y,1/2-z
-x,-y,-z
x,y,1/2-z
-x,y,z
x,-y,1/2+z
1/2+x,1/2+y,z
1/2-x,1/2-y,1/2+z
1/2+x,1/2-y,-z
1/2-x,1/2+y,1/2-z
1/2-x,1/2-y,-z
1/2+x,1/2+y,1/2-z
1/2-x,1/2+y,z
1/2+x,1/2-y,1/2+z
loop_
_atom_site_type_symbol
_atom_site_label
_atom_site_fract_x
_atom_site_fract_y
_atom_site_fract_z
Si Si1 0.500000 0.745713 0.843765
Si Si2 0.000000 0.121373 0.004796
Si Si3 0.671123 0.146536 0.090204
Si Si4 0.098922 0.452587 0.344078
Si Si5 0.651662 0.249223 0.581990
O O1 0.500000 0.703593 0.750000
O O2 0.588159 0.812072 0.857848
O O3 0.500000 0.653692 0.909488
O O4 0.084778 0.161334 0.054489
O O5 0.000000 0.000000 0.000000
O O6 0.762735 0.196052 0.121767
O O7 0.668056 0.022273 0.103206
O O8 0.668591 0.173450 0.994630
O O9 0.108926 0.485062 0.250000
O O10 0.115512 0.329480 0.350023
O O11 0.000000 0.475552 0.376443
#
# Coordination Sequence:
#
# PCOD8259676 Si02
#       5
#     8   8  16  16  16
#     4  10  20  37  61  91 119 153 208 267 313 362
#     4  10  22  41  63  85 123 167 210 253 307 382
#     4  10  21  36  62  90 119 158 206 257 304 369
#     4  11  22  37  61  91 123 160 204 256 313 371
#     4  10  22  39  60  89 122 162 206 255 308 368
#
# _framework density 20.079747999999999
#
# number of rings (size 3 to 8) (size 9 to 14) (size 15 to 20)
#    0.000    1.750    2.500    1.500    0.000    9.000 
#    0.000    1.250    0.000    0.000    0.000    0.000 
#    0.000    0.000    0.000    0.000    0.000    0.000 
#
# Total GULP energy -396673.047155 kJ/mol
# GULP energy per Si atom -12396.032724 kJ/mol
# Density = 2.003405 g / cm^3
# Si number density = 20.079748 Si / 1000 Ang^3
#
#
#
# Elastic Constant Matrix: (Units=GPa)
#
#
# Indices 1 2 3 4 5 6 
#
# 1 146.7892 68.9150 43.9739 0.0000 0.0000 0.0000
# 2 68.9150 157.8316 33.7737 0.0000 0.0000 0.0000
# 3 43.9739 33.7737 51.7287 0.0000 0.0000 0.0000
# 4 0.0000 0.0000 0.0000 21.1976 0.0000 0.0000
# 5 0.0000 0.0000 0.0000 0.0000 16.7794 0.0000
# 6 0.0000 0.0000 0.0000 0.0000 0.0000 30.3505
#
#
#
# Elastic Compliance Matrix: (Units=1/GPa)
#
#
# Indices 1 2 3 4 5 6 
#
# 1 0.010256 -0.003037 -0.006736 0.000000 0.000000 0.000000
# 2 -0.003037 0.008264 -0.002814 0.000000 0.000000 0.000000
# 3 -0.006736 -0.002814 0.026895 0.000000 0.000000 0.000000
# 4 0.000000 0.000000 0.000000 0.047175 0.000000 0.000000
# 5 0.000000 0.000000 0.000000 0.000000 0.059597 0.000000
# 6 0.000000 0.000000 0.000000 0.000000 0.000000 0.032948
#
#
# Mechanical properties :
#
#
# Convention : Reuss Voigt Hill
#
# Bulk Modulus (GPa) = 49.40290 72.18606 60.79448
# Shear Modulus (GPa) = 23.03552 27.64463 25.34008
#
# Velocity S-wave (km/s) = 3.39071 3.71447 3.55628
# Velocity P-wave (km/s) = 6.32345 7.37727 6.87059
#
# Compressibility (1/GPa) = 0.02024172
#
# Stress axis : x y z
#
# Youngs Moduli (GPa) = 97.50313 121.00670 37.18168
#
# Poissons Ratio (x) = 0.36747 0.25045
# Poissons Ratio (y) = 0.29610 0.10463
# Poissons Ratio (z) = 0.65676 0.34052
#
# Static dielectric constant tensor:
#      x y z
#    x 3.855260 0.000000 0.000000 
#    y 0.000000 3.585790 0.000000 
#    z 0.000000 0.000000 3.459800 
# 
# 
# High freq. dielectric constant tensor:
#      x y z
#    x 1.782350 0.000000 0.000000 
#    y 0.000000 1.782260 0.000000 
#    z 0.000000 0.000000 1.771830 
# 
# From -- ./inp_files/43495.got.cif
#   From: 2010.03.12/outbox.cif.g09.slc.cpg/sg63_22_cif.got.tgz:43495.got - 2010.04.10 19:34:48.
