data_PCOD8259060
_publ_section_title
;
Structure prediction by ZEFSAII (Michael W. Deem and Ramdas Pophale) SiO2 
 PCOD8259060
Probable space group: C M C M
;
_chemical_formula_sum "Si O2"
_cell_formula_units_Z 72
_cell_length_a 20.275037
_cell_length_b 8.547606
_cell_length_c 20.807606
_cell_angle_alpha 90.000000
_cell_angle_beta 90.000000
_cell_angle_gamma 90.000000
_cell_volume 3606.021123
_symmetry_space_group_name_H-M "C M C M"
_symmetry_group_IT_number 63
_symmetry_cell_setting 'orthorhombic'
loop_
_space_group_symop_operation_xyz
x,y,z
-x,-y,1/2+z
x,-y,-z
-x,y,1/2-z
-x,-y,-z
x,y,1/2-z
-x,y,z
x,-y,1/2+z
1/2+x,1/2+y,z
1/2-x,1/2-y,1/2+z
1/2+x,1/2-y,-z
1/2-x,1/2+y,1/2-z
1/2-x,1/2-y,-z
1/2+x,1/2+y,1/2-z
1/2-x,1/2+y,z
1/2+x,1/2-y,1/2+z
loop_
_atom_site_type_symbol
_atom_site_label
_atom_site_fract_x
_atom_site_fract_y
_atom_site_fract_z
Si Si1 0.605782 0.000000 0.000000
Si Si2 0.820372 0.056449 0.118631
Si Si3 0.777956 0.919756 0.750000
Si Si4 0.573879 0.185345 0.877074
Si Si5 0.705224 0.232643 0.060411
Si Si6 0.348605 0.096331 0.750000
O O1 0.646420 0.119648 0.043133
O O2 0.565701 0.914672 0.056937
O O3 0.816247 0.997380 0.191349
O O4 0.884443 0.160872 0.104239
O O5 0.752574 0.158054 0.114033
O O6 0.823428 0.903703 0.074874
O O7 0.795535 0.735964 0.750000
O O8 0.698206 0.942858 0.750000
O O9 0.500000 0.233404 0.856094
O O10 0.607347 0.098285 0.815488
O O11 0.750000 0.250000 0.000000
#
# Coordination Sequence:
#
# PCOD8259060 Si02
#       6
#     8  16   8  16  16   8
#     4  12  23  38  62  90 121 156 214 258 300 354
#     4  11  21  37  60  90 122 151 197 249 314 364
#     4  10  20  34  60  94 114 142 188 256 304 356
#     4  11  24  41  59  85 123 171 208 242 292 368
#     4  12  20  35  61  89 116 150 191 255 318 350
#     4  10  21  40  64  88 123 154 198 250 312 368
#
# _framework density 19.966605000000001
#
# number of rings (size 3 to 8) (size 9 to 14) (size 15 to 20)
#    0.000    0.889    4.444    4.667    0.000    0.000 
#    0.000    3.333    0.000    0.000    0.000    7.778 
#    0.000    0.000    0.000    0.000    0.000    0.000 
#
# Total GULP energy -446048.546176 kJ/mol
# GULP energy per Si atom -12390.237394 kJ/mol
# Density = 1.992116 g / cm^3
# Si number density = 19.966605 Si / 1000 Ang^3
#
#
#
# Elastic Constant Matrix: (Units=GPa)
#
#
# Indices 1 2 3 4 5 6 
#
# 1 124.3411 49.3012 38.7443 0.0000 0.0000 0.0000
# 2 49.3012 93.0722 45.2599 0.0000 0.0000 0.0000
# 3 38.7443 45.2599 127.6287 0.0000 0.0000 0.0000
# 4 0.0000 0.0000 0.0000 32.2403 0.0000 0.0000
# 5 0.0000 0.0000 0.0000 0.0000 21.5905 0.0000
# 6 0.0000 0.0000 0.0000 0.0000 0.0000 0.9726
#
#
#
# Elastic Compliance Matrix: (Units=1/GPa)
#
#
# Indices 1 2 3 4 5 6 
#
# 1 0.010399 -0.004801 -0.001454 0.000000 0.000000 0.000000
# 2 -0.004801 0.015200 -0.003933 0.000000 0.000000 0.000000
# 3 -0.001454 -0.003933 0.009671 0.000000 0.000000 0.000000
# 4 0.000000 0.000000 0.000000 0.031017 0.000000 0.000000
# 5 0.000000 0.000000 0.000000 0.000000 0.046317 0.000000
# 6 0.000000 0.000000 0.000000 0.000000 0.000000 1.028224
#
#
# Mechanical properties :
#
#
# Convention : Reuss Voigt Hill
#
# Bulk Modulus (GPa) = 67.14118 67.96142 67.55130
# Shear Modulus (GPa) = 4.28754 25.07646 14.68200
#
# Velocity S-wave (km/s) = 1.46698 3.54774 2.71463
# Velocity P-wave (km/s) = 6.04724 7.13396 6.61296
#
# Compressibility (1/GPa) = 0.01489399
#
# Stress axis : x y z
#
# Youngs Moduli (GPa) = 96.16049 65.78888 103.39853
#
# Poissons Ratio (x) = 0.31588 0.15036
# Poissons Ratio (y) = 0.46171 0.40664
# Poissons Ratio (z) = 0.13984 0.25873
#
# Static dielectric constant tensor:
#      x y z
#    x 3.290050 0.000000 0.000000 
#    y 0.000000 3.482030 0.000000 
#    z 0.000000 0.000000 4.041710 
# 
# 
# High freq. dielectric constant tensor:
#      x y z
#    x 1.755500 0.000000 0.000000 
#    y 0.000000 1.768170 0.000000 
#    z 0.000000 0.000000 1.809520 
# 
# From -- ./inp_files/56357.got.cif
#   From: 2010.03.12/outbox.cif.g09.slc.cpg/sg63_29_cif.got.tgz:56357.got - 2010.04.10 19:34:48.
