data_PCOD8259006
_publ_section_title
;
Structure prediction by ZEFSAII (Michael W. Deem and Ramdas Pophale) SiO2 
 PCOD8259006
Probable space group: C M C M
;
_chemical_formula_sum "Si O2"
_cell_formula_units_Z 80
_cell_length_a 7.595127
_cell_length_b 31.467797
_cell_length_c 18.124200
_cell_angle_alpha 90.000000
_cell_angle_beta 90.000000
_cell_angle_gamma 90.000000
_cell_volume 4331.718501
_symmetry_space_group_name_H-M "C M C M"
_symmetry_group_IT_number 63
_symmetry_cell_setting 'orthorhombic'
loop_
_space_group_symop_operation_xyz
x,y,z
-x,-y,1/2+z
x,-y,-z
-x,y,1/2-z
-x,-y,-z
x,y,1/2-z
-x,y,z
x,-y,1/2+z
1/2+x,1/2+y,z
1/2-x,1/2-y,1/2+z
1/2+x,1/2-y,-z
1/2-x,1/2+y,1/2-z
1/2-x,1/2-y,-z
1/2+x,1/2+y,1/2-z
1/2-x,1/2+y,z
1/2+x,1/2-y,1/2+z
loop_
_atom_site_type_symbol
_atom_site_label
_atom_site_fract_x
_atom_site_fract_y
_atom_site_fract_z
Si Si1 0.797037 0.107888 0.461032
Si Si2 0.500000 0.049168 0.982944
Si Si3 0.798464 0.846093 0.389586
Si Si4 0.202029 0.834645 0.831498
Si Si5 0.793170 0.242814 0.832425
Si Si6 0.000000 0.595190 0.832967
O O1 0.675797 0.067836 0.479709
O O2 0.781380 0.143040 0.524719
O O3 0.719188 0.130550 0.387666
O O4 0.000000 0.092550 0.452687
O O5 0.500000 0.057925 0.894666
O O6 0.500000 0.000000 0.000000
O O7 0.733456 0.797383 0.381270
O O8 0.675027 0.876524 0.341382
O O9 0.000000 0.851621 0.361288
O O10 0.293013 0.837691 0.750000
O O11 0.219866 0.787110 0.864796
O O12 0.000000 0.846138 0.823709
O O13 0.717751 0.236011 0.750000
O O14 0.000000 0.246669 0.831095
O O15 0.000000 0.575619 0.750000
#
# Coordination Sequence:
#
# PCOD8259006 Si02
#       6
#    16   8  16  16  16   8
#     4   9  19  36  55  75 101 134 171 209 261 315
#     4  10  22  40  60  82 104 128 166 214 264 325
#     4   9  18  32  49  73 104 140 176 212 251 300
#     4   9  18  31  47  70 102 139 179 218 250 291
#     4   9  17  27  41  66 100 137 177 215 250 291
#     4  10  20  34  56  80 106 136 168 210 261 309
#
# _framework density 18.468420999999999
#
# number of rings (size 3 to 8) (size 9 to 14) (size 15 to 20)
#    0.000    2.800    0.000    0.600    2.800    2.400 
#    0.000    1.000    0.000    0.000    0.000    0.000 
#    0.000    0.000    0.000    0.000    0.000    0.000 
#
# Total GULP energy -495757.423701 kJ/mol
# GULP energy per Si atom -12393.935593 kJ/mol
# Density = 1.842639 g / cm^3
# Si number density = 18.468421 Si / 1000 Ang^3
#
#
#
# Elastic Constant Matrix: (Units=GPa)
#
#
# Indices 1 2 3 4 5 6 
#
# 1 70.4541 45.5581 36.3228 0.0000 0.0000 0.0000
# 2 45.5581 138.3063 76.7064 0.0000 0.0000 0.0000
# 3 36.3228 76.7064 101.7013 0.0000 0.0000 0.0000
# 4 0.0000 0.0000 0.0000 18.7017 0.0000 0.0000
# 5 0.0000 0.0000 0.0000 0.0000 16.8401 0.0000
# 6 0.0000 0.0000 0.0000 0.0000 0.0000 22.3459
#
#
#
# Elastic Compliance Matrix: (Units=1/GPa)
#
#
# Indices 1 2 3 4 5 6 
#
# 1 0.018733 -0.004229 -0.003501 0.000000 0.000000 0.000000
# 2 -0.004229 0.013385 -0.008585 0.000000 0.000000 0.000000
# 3 -0.003501 -0.008585 0.017558 0.000000 0.000000 0.000000
# 4 0.000000 0.000000 0.000000 0.053471 0.000000 0.000000
# 5 0.000000 0.000000 0.000000 0.000000 0.059382 0.000000
# 6 0.000000 0.000000 0.000000 0.000000 0.000000 0.044751
#
#
# Mechanical properties :
#
#
# Convention : Reuss Voigt Hill
#
# Bulk Modulus (GPa) = 58.66335 69.73735 64.20035
# Shear Modulus (GPa) = 20.35905 21.70251 21.03078
#
# Velocity S-wave (km/s) = 3.32380 3.43171 3.37819
# Velocity P-wave (km/s) = 6.82373 7.31741 7.07488
#
# Compressibility (1/GPa) = 0.01704642
#
# Stress axis : x y z
#
# Youngs Moduli (GPa) = 53.38117 74.71324 56.95462
#
# Poissons Ratio (x) = 0.31597 0.19939
# Poissons Ratio (y) = 0.22575 0.48893
# Poissons Ratio (z) = 0.18688 0.64138
#
# Static dielectric constant tensor:
#      x y z
#    x 3.508790 0.000000 0.000000 
#    y 0.000000 3.075910 0.000000 
#    z 0.000000 0.000000 3.674400 
# 
# 
# High freq. dielectric constant tensor:
#      x y z
#    x 1.722120 0.000000 0.000000 
#    y 0.000000 1.680730 0.000000 
#    z 0.000000 0.000000 1.711500 
# 
# From -- ./inp_files/40756.got.cif
#   From: 2010.03.12/outbox.cif.g09.slc.cpg/sg63_21_cif.got.tgz:40756.got - 2010.04.10 19:34:48.
