data_PCOD8259182
_publ_section_title
;
Structure prediction by ZEFSAII (Michael W. Deem and Ramdas Pophale) SiO2 
 PCOD8259182
Probable space group: C M C M
;
_chemical_formula_sum "Si O2"
_cell_formula_units_Z 112
_cell_length_a 15.850816
_cell_length_b 25.513438
_cell_length_c 13.170970
_cell_angle_alpha 90.000000
_cell_angle_beta 90.000000
_cell_angle_gamma 90.000000
_cell_volume 5326.456321
_symmetry_space_group_name_H-M "C M C M"
_symmetry_group_IT_number 63
_symmetry_cell_setting 'orthorhombic'
loop_
_space_group_symop_operation_xyz
x,y,z
-x,-y,1/2+z
x,-y,-z
-x,y,1/2-z
-x,-y,-z
x,y,1/2-z
-x,y,z
x,-y,1/2+z
1/2+x,1/2+y,z
1/2-x,1/2-y,1/2+z
1/2+x,1/2-y,-z
1/2-x,1/2+y,1/2-z
1/2-x,1/2-y,-z
1/2+x,1/2+y,1/2-z
1/2-x,1/2+y,z
1/2+x,1/2-y,1/2+z
loop_
_atom_site_type_symbol
_atom_site_label
_atom_site_fract_x
_atom_site_fract_y
_atom_site_fract_z
Si Si1 0.091572 0.518603 0.870123
Si Si2 0.726431 0.446474 0.369516
Si Si3 0.213075 0.314617 0.629559
Si Si4 0.404560 0.462606 0.867165
Si Si5 0.907735 0.221661 0.634573
Si Si6 0.647772 0.636184 0.493927
Si Si7 0.407308 0.903277 0.867603
O O1 0.091421 0.511610 0.750000
O O2 0.176195 0.547631 0.903421
O O3 0.097621 0.460440 0.921088
O O4 0.000000 0.544443 0.901567
O O5 0.715985 0.439342 0.250000
O O6 0.664446 0.494488 0.404883
O O7 0.704931 0.392764 0.423769
O O8 0.224311 0.316563 0.750000
O O9 0.165445 0.261356 0.597792
O O10 0.302715 0.321731 0.575922
O O11 0.159366 0.363404 0.585522
O O12 0.387336 0.449608 0.750000
O O13 0.500000 0.484979 0.883218
O O14 0.397998 0.407552 0.925902
O O15 0.888636 0.203386 0.750000
O O16 0.914748 0.171594 0.560535
O O17 0.000000 0.249305 0.630792
O O18 0.384932 0.910631 0.750000
O O19 0.500000 0.878834 0.881187
#
# Coordination Sequence:
#
# PCOD8259182 Si02
#       7
#    16  16  16  16  16  16  16
#     4   8  14  27  48  73 103 141 181 219 263 318
#     4  10  21  36  54  79 114 153 191 230 274 329
#     4  10  20  35  56  80 107 139 175 221 278 337
#     4  10  22  39  58  82 114 153 195 235 277 330
#     4  10  22  40  60  81 106 139 182 232 286 342
#     4  12  22  35  56  84 113 143 181 230 286 338
#     4   8  13  24  46  73  99 131 172 215 259 310
#
# _framework density 21.027111999999999
#
# number of rings (size 3 to 8) (size 9 to 14) (size 15 to 20)
#    0.000    2.286    0.000    4.286    0.000    5.714 
#    0.000    2.857    0.000    3.429    0.000    0.000 
#    0.000    0.000    0.000    0.000    0.000    0.000 
#
# Total GULP energy -693833.967947 kJ/mol
# GULP energy per Si atom -12389.892285 kJ/mol
# Density = 2.097925 g / cm^3
# Si number density = 21.027112 Si / 1000 Ang^3
#
#
#
# Elastic Constant Matrix: (Units=GPa)
#
#
# Indices 1 2 3 4 5 6 
#
# 1 124.7869 29.3058 25.7475 0.0000 0.0000 0.0000
# 2 29.3058 75.1655 28.3659 0.0000 0.0000 0.0000
# 3 25.7475 28.3659 55.3813 0.0000 0.0000 0.0000
# 4 0.0000 0.0000 0.0000 35.0984 0.0000 0.0000
# 5 0.0000 0.0000 0.0000 0.0000 0.4014 0.0000
# 6 0.0000 0.0000 0.0000 0.0000 0.0000 43.8025
#
#
#
# Elastic Compliance Matrix: (Units=1/GPa)
#
#
# Indices 1 2 3 4 5 6 
#
# 1 0.009214 -0.002449 -0.003029 0.000000 0.000000 0.000000
# 2 -0.002449 0.017143 -0.007642 0.000000 0.000000 0.000000
# 3 -0.003029 -0.007642 0.023379 0.000000 0.000000 0.000000
# 4 0.000000 0.000000 0.000000 0.028491 0.000000 0.000000
# 5 0.000000 0.000000 0.000000 0.000000 2.491099 0.000000
# 6 0.000000 0.000000 0.000000 0.000000 0.000000 0.022830
#
#
# Mechanical properties :
#
#
# Convention : Reuss Voigt Hill
#
# Bulk Modulus (GPa) = 42.56159 46.90802 44.73481
# Shear Modulus (GPa) = 1.90387 27.32144 14.61266
#
# Velocity S-wave (km/s) = 0.95258 3.60855 2.63904
# Velocity P-wave (km/s) = 4.63628 6.30230 5.53236
#
# Compressibility (1/GPa) = 0.02349536
#
# Stress axis : x y z
#
# Youngs Moduli (GPa) = 108.53212 58.33392 42.77342
#
# Poissons Ratio (x) = 0.14287 0.12957
# Poissons Ratio (y) = 0.26581 0.32686
# Poissons Ratio (z) = 0.32877 0.44577
#
# Static dielectric constant tensor:
#      x y z
#    x 3.954100 0.000000 0.000000 
#    y 0.000000 3.595140 0.000000 
#    z 0.000000 0.000000 3.796950 
# 
# 
# High freq. dielectric constant tensor:
#      x y z
#    x 1.829250 0.000000 0.000000 
#    y 0.000000 1.795590 0.000000 
#    z 0.000000 0.000000 1.831880 
# 
# From -- ./inp_files/32252.got.cif
#   From: 2010.03.12/outbox.cif.g09.slc.cpg/sg63_17_cif.got.tgz:32252.got - 2010.04.10 19:34:48.
