data_PCOD8259774
_publ_section_title
;
Structure prediction by ZEFSAII (Michael W. Deem and Ramdas Pophale) SiO2 
 PCOD8259774
Probable space group: C M C M
;
_chemical_formula_sum "Si O2"
_cell_formula_units_Z 72
_cell_length_a 22.482702
_cell_length_b 18.975371
_cell_length_c 8.675438
_cell_angle_alpha 90.000000
_cell_angle_beta 90.000000
_cell_angle_gamma 90.000000
_cell_volume 3701.094639
_symmetry_space_group_name_H-M "C M C M"
_symmetry_group_IT_number 63
_symmetry_cell_setting 'orthorhombic'
loop_
_space_group_symop_operation_xyz
x,y,z
-x,-y,1/2+z
x,-y,-z
-x,y,1/2-z
-x,-y,-z
x,y,1/2-z
-x,y,z
x,-y,1/2+z
1/2+x,1/2+y,z
1/2-x,1/2-y,1/2+z
1/2+x,1/2-y,-z
1/2-x,1/2+y,1/2-z
1/2-x,1/2-y,-z
1/2+x,1/2+y,1/2-z
1/2-x,1/2+y,z
1/2+x,1/2-y,1/2+z
loop_
_atom_site_type_symbol
_atom_site_label
_atom_site_fract_x
_atom_site_fract_y
_atom_site_fract_z
Si Si1 0.068966 0.671309 0.928547
Si Si2 0.234240 0.174655 0.568704
Si Si3 0.000000 0.077086 0.067739
Si Si4 0.608892 0.671609 0.069078
Si Si5 0.166185 0.423045 0.569055
O O1 0.082761 0.655710 0.750000
O O2 0.087896 0.750082 0.971622
O O3 0.000000 0.660699 0.966189
O O4 0.105292 0.617804 0.033984
O O5 0.241682 0.179620 0.750000
O O6 0.250000 0.250000 0.500000
O O7 0.167827 0.152204 0.524403
O O8 0.278111 0.115772 0.505841
O O9 0.058402 0.118160 0.010518
O O10 0.000000 0.073879 0.250000
O O11 0.000000 0.000000 0.000000
O O12 0.621435 0.663600 0.250000
O O13 0.160976 0.500000 0.500000
O O14 0.176256 0.427449 0.750000
#
# Coordination Sequence:
#
# PCOD8259774 Si02
#       5
#    16  16   8  16  16
#     4  10  20  38  66  95 124 164 211 261 313 372
#     4  12  24  40  64  95 127 165 211 261 313 375
#     4  10  22  40  62  92 129 170 207 256 313 367
#     4  10  20  38  64  92 124 165 213 258 309 370
#     4  12  26  44  65  93 128 167 208 263 320 376
#
# _framework density 19.453706
#
# number of rings (size 3 to 8) (size 9 to 14) (size 15 to 20)
#    0.000    1.111    3.333    4.000    0.000    2.667 
#    0.000    2.222    0.000    0.000    0.000    0.000 
#    0.000    0.000    0.000    0.000    0.000    0.000 
#
# Total GULP energy -446611.099461 kJ/mol
# GULP energy per Si atom -12405.863874 kJ/mol
# Density = 1.940943 g / cm^3
# Si number density = 19.453706 Si / 1000 Ang^3
#
#
#
# Elastic Constant Matrix: (Units=GPa)
#
#
# Indices 1 2 3 4 5 6 
#
# 1 164.2373 71.8905 61.9475 0.0000 0.0000 0.0000
# 2 71.8905 146.9909 57.9688 0.0000 0.0000 0.0000
# 3 61.9475 57.9688 121.2293 0.0000 0.0000 0.0000
# 4 0.0000 0.0000 0.0000 31.0136 0.0000 0.0000
# 5 0.0000 0.0000 0.0000 0.0000 37.1944 0.0000
# 6 0.0000 0.0000 0.0000 0.0000 0.0000 38.2967
#
#
#
# Elastic Compliance Matrix: (Units=1/GPa)
#
#
# Indices 1 2 3 4 5 6 
#
# 1 0.008503 -0.003013 -0.002904 0.000000 0.000000 0.000000
# 2 -0.003013 0.009452 -0.002980 0.000000 0.000000 0.000000
# 3 -0.002904 -0.002980 0.011158 0.000000 0.000000 0.000000
# 4 0.000000 0.000000 0.000000 0.032244 0.000000 0.000000
# 5 0.000000 0.000000 0.000000 0.000000 0.026886 0.000000
# 6 0.000000 0.000000 0.000000 0.000000 0.000000 0.026112
#
#
# Mechanical properties :
#
#
# Convention : Reuss Voigt Hill
#
# Bulk Modulus (GPa) = 88.35414 90.67458 89.51436
# Shear Modulus (GPa) = 36.78567 37.34431 37.06499
#
# Velocity S-wave (km/s) = 4.35320 4.38613 4.36970
# Velocity P-wave (km/s) = 8.41329 8.50662 8.46008
#
# Compressibility (1/GPa) = 0.01131809
#
# Stress axis : x y z
#
# Youngs Moduli (GPa) = 117.60277 105.79592 89.62374
#
# Poissons Ratio (x) = 0.31881 0.26028
# Poissons Ratio (y) = 0.35439 0.26707
# Poissons Ratio (z) = 0.34153 0.31526
#
# Static dielectric constant tensor:
#      x y z
#    x -1.997850 0.000000 0.000000 
#    y 0.000000 3.573560 0.000000 
#    z 0.000000 0.000000 3.512310 
# 
# 
# High freq. dielectric constant tensor:
#      x y z
#    x 1.777690 0.000000 0.000000 
#    y 0.000000 1.760290 0.000000 
#    z 0.000000 0.000000 1.756610 
# 
# From -- ./inp_files/7871.got.cif
#   From: 2010.03.12/outbox.cif.g09.slc.cpg/sg63_4_cif.got.tgz:7871.got - 2010.04.10 19:34:48.
