data_PCOD8259546
_publ_section_title
;
Structure prediction by ZEFSAII (Michael W. Deem and Ramdas Pophale) SiO2 
 PCOD8259546
Probable space group: C M C M
;
_chemical_formula_sum "Si O2"
_cell_formula_units_Z 96
_cell_length_a 9.080195
_cell_length_b 21.718828
_cell_length_c 23.295833
_cell_angle_alpha 90.000000
_cell_angle_beta 90.000000
_cell_angle_gamma 90.000000
_cell_volume 4594.199027
_symmetry_space_group_name_H-M "C M C M"
_symmetry_group_IT_number 63
_symmetry_cell_setting 'orthorhombic'
loop_
_space_group_symop_operation_xyz
x,y,z
-x,-y,1/2+z
x,-y,-z
-x,y,1/2-z
-x,-y,-z
x,y,1/2-z
-x,y,z
x,-y,1/2+z
1/2+x,1/2+y,z
1/2-x,1/2-y,1/2+z
1/2+x,1/2-y,-z
1/2-x,1/2+y,1/2-z
1/2-x,1/2-y,-z
1/2+x,1/2+y,1/2-z
1/2-x,1/2+y,z
1/2+x,1/2-y,1/2+z
loop_
_atom_site_type_symbol
_atom_site_label
_atom_site_fract_x
_atom_site_fract_y
_atom_site_fract_z
Si Si1 0.670212 0.024229 0.588464
Si Si2 0.168760 0.822649 0.815614
Si Si3 0.671626 0.848976 0.476181
Si Si4 0.670049 0.400711 0.577252
Si Si5 0.167855 0.914744 0.184423
Si Si6 0.669573 0.286939 0.123429
O O1 0.500000 0.006203 0.589092
O O2 0.701972 0.083625 0.549894
O O3 0.725158 0.037945 0.652559
O O4 0.757950 0.966423 0.563548
O O5 0.212836 0.839422 0.750000
O O6 0.190567 0.882689 0.855794
O O7 0.271177 0.769170 0.839425
O O8 0.000000 0.800001 0.818586
O O9 0.500000 0.834523 0.483017
O O10 0.749890 0.848570 0.538336
O O11 0.742101 0.796259 0.436056
O O12 0.500000 0.403433 0.559469
O O13 0.213642 0.917558 0.250000
O O14 0.191791 0.845760 0.163382
O O15 0.000000 0.936003 0.174039
O O16 0.500000 0.275311 0.107758
#
# Coordination Sequence:
#
# PCOD8259546 Si02
#       6
#    16  16  16  16  16  16
#     4  10  21  36  55  82 114 148 187 231 281 336
#     4  10  23  42  60  80 111 151 190 228 276 333
#     4  10  21  38  60  86 116 148 183 229 285 339
#     4  11  23  38  58  83 112 150 192 232 278 334
#     4   9  18  33  54  81 112 145 183 230 282 333
#     4  10  20  36  60  88 114 143 185 235 283 333
#
# _framework density 20.895916
#
# number of rings (size 3 to 8) (size 9 to 14) (size 15 to 20)
#    0.000    2.000    0.000    3.000    0.000    8.667 
#    0.000    1.667    0.000    0.000    0.000    0.000 
#    0.000    0.000    0.000    0.000    0.000    0.000 
#
# Total GULP energy -595353.962852 kJ/mol
# GULP energy per Si atom -12403.207559 kJ/mol
# Density = 2.084836 g / cm^3
# Si number density = 20.895916 Si / 1000 Ang^3
#
#
#
# Elastic Constant Matrix: (Units=GPa)
#
#
# Indices 1 2 3 4 5 6 
#
# 1 112.5031 25.4203 35.0206 0.0000 0.0000 0.0000
# 2 25.4203 33.9541 2.0323 0.0000 0.0000 0.0000
# 3 35.0206 2.0323 104.2091 0.0000 0.0000 0.0000
# 4 0.0000 0.0000 0.0000 25.1755 0.0000 0.0000
# 5 0.0000 0.0000 0.0000 0.0000 35.6552 0.0000
# 6 0.0000 0.0000 0.0000 0.0000 0.0000 32.4906
#
#
#
# Elastic Compliance Matrix: (Units=1/GPa)
#
#
# Indices 1 2 3 4 5 6 
#
# 1 0.012093 -0.008821 -0.003892 0.000000 0.000000 0.000000
# 2 -0.008821 0.035920 0.002264 0.000000 0.000000 0.000000
# 3 -0.003892 0.002264 0.010860 0.000000 0.000000 0.000000
# 4 0.000000 0.000000 0.000000 0.039721 0.000000 0.000000
# 5 0.000000 0.000000 0.000000 0.000000 0.028046 0.000000
# 6 0.000000 0.000000 0.000000 0.000000 0.000000 0.030778
#
#
# Mechanical properties :
#
#
# Convention : Reuss Voigt Hill
#
# Bulk Modulus (GPa) = 26.33316 41.73475 34.03395
# Shear Modulus (GPa) = 26.18140 31.21048 28.69594
#
# Velocity S-wave (km/s) = 3.54353 3.86893 3.70980
# Velocity P-wave (km/s) = 5.41956 6.32251 5.88837
#
# Compressibility (1/GPa) = 0.03797493
#
# Stress axis : x y z
#
# Youngs Moduli (GPa) = 82.69056 27.83968 92.08183
#
# Poissons Ratio (x) = 0.24557 0.35839
# Poissons Ratio (y) = 0.72940 -0.20846
# Poissons Ratio (z) = 0.32184 -0.06302
#
# Static dielectric constant tensor:
#      x y z
#    x 3.795040 0.000000 0.000000 
#    y 0.000000 3.567850 0.000000 
#    z 0.000000 0.000000 3.988990 
# 
# 
# High freq. dielectric constant tensor:
#      x y z
#    x 1.822010 0.000000 0.000000 
#    y 0.000000 1.808010 0.000000 
#    z 0.000000 0.000000 1.828470 
# 
# From -- ./inp_files/59919.got.cif
#   From: 2010.03.12/outbox.cif.g09.slc.cpg/sg63_30_cif.got.tgz:59919.got - 2010.04.10 19:34:48.
