data_PCOD8259962
_publ_section_title
;
Structure prediction by ZEFSAII (Michael W. Deem and Ramdas Pophale) SiO2 
 PCOD8259962
Probable space group: C M C M
;
_chemical_formula_sum "Si O2"
_cell_formula_units_Z 80
_cell_length_a 28.368522
_cell_length_b 7.658662
_cell_length_c 18.229881
_cell_angle_alpha 90.000000
_cell_angle_beta 90.000000
_cell_angle_gamma 90.000000
_cell_volume 3960.713663
_symmetry_space_group_name_H-M "C M C M"
_symmetry_group_IT_number 63
_symmetry_cell_setting 'orthorhombic'
loop_
_space_group_symop_operation_xyz
x,y,z
-x,-y,1/2+z
x,-y,-z
-x,y,1/2-z
-x,-y,-z
x,y,1/2-z
-x,y,z
x,-y,1/2+z
1/2+x,1/2+y,z
1/2-x,1/2-y,1/2+z
1/2+x,1/2-y,-z
1/2-x,1/2+y,1/2-z
1/2-x,1/2-y,-z
1/2+x,1/2+y,1/2-z
1/2-x,1/2+y,z
1/2+x,1/2-y,1/2+z
loop_
_atom_site_type_symbol
_atom_site_label
_atom_site_fract_x
_atom_site_fract_y
_atom_site_fract_z
Si Si1 0.715367 0.765172 0.333491
Si Si2 0.103428 0.580756 0.075445
Si Si3 0.209279 0.584574 0.423762
Si Si4 0.444592 0.558115 0.581132
Si Si5 0.389323 0.267505 0.834127
O O1 0.734230 0.741679 0.250000
O O2 0.752662 0.725311 0.397978
O O3 0.665171 0.669102 0.344880
O O4 0.705909 0.966293 0.350714
O O5 0.156495 0.657104 0.063512
O O6 0.071938 0.745029 0.099479
O O7 0.100228 0.422662 0.132534
O O8 0.083936 0.500000 0.000000
O O9 0.227220 0.500000 0.500000
O O10 0.429417 0.500000 0.500000
O O11 0.500000 0.550107 0.592647
O O12 0.421600 0.420259 0.635515
O O13 0.401686 0.245174 0.750000
#
# Coordination Sequence:
#
# PCOD8259962 Si02
#       5
#    16  16  16  16  16
#     4  10  21  37  56  84 121 163 205 247 305 367
#     4  10  21  41  64  93 127 165 207 257 318 379
#     4  10  21  35  56  88 120 160 205 252 300 366
#     4  11  24  41  68  97 120 159 213 262 314 378
#     4  10  23  42  62  90 131 168 206 262 316 369
#
# _framework density 20.198381000000001
#
# number of rings (size 3 to 8) (size 9 to 14) (size 15 to 20)
#    0.000    1.800    2.000    1.200    2.800    4.000 
#    0.000    0.000    0.000    0.000    0.000    0.000 
#    0.000    0.000    0.000    0.000    0.000    0.000 
#
# Total GULP energy -495706.349612 kJ/mol
# GULP energy per Si atom -12392.658740 kJ/mol
# Density = 2.015241 g / cm^3
# Si number density = 20.198381 Si / 1000 Ang^3
#
#
#
# Elastic Constant Matrix: (Units=GPa)
#
#
# Indices 1 2 3 4 5 6 
#
# 1 68.2664 40.8506 34.8093 0.0000 0.0000 0.0000
# 2 40.8506 107.5249 40.0455 0.0000 0.0000 0.0000
# 3 34.8093 40.0455 117.5091 0.0000 0.0000 0.0000
# 4 0.0000 0.0000 0.0000 35.0586 0.0000 0.0000
# 5 0.0000 0.0000 0.0000 0.0000 19.5767 0.0000
# 6 0.0000 0.0000 0.0000 0.0000 0.0000 37.8972
#
#
#
# Elastic Compliance Matrix: (Units=1/GPa)
#
#
# Indices 1 2 3 4 5 6 
#
# 1 0.020407 -0.006301 -0.003898 0.000000 0.000000 0.000000
# 2 -0.006301 0.012598 -0.002427 0.000000 0.000000 0.000000
# 3 -0.003898 -0.002427 0.010491 0.000000 0.000000 0.000000
# 4 0.000000 0.000000 0.000000 0.028524 0.000000 0.000000
# 5 0.000000 0.000000 0.000000 0.000000 0.051081 0.000000
# 6 0.000000 0.000000 0.000000 0.000000 0.000000 0.026387
#
#
# Mechanical properties :
#
#
# Convention : Reuss Voigt Hill
#
# Bulk Modulus (GPa) = 54.80927 58.30125 56.55526
# Shear Modulus (GPa) = 27.65175 30.34616 28.99895
#
# Velocity S-wave (km/s) = 3.70402 3.88029 3.79318
# Velocity P-wave (km/s) = 6.74444 7.00018 6.87350
#
# Compressibility (1/GPa) = 0.01824509
#
# Stress axis : x y z
#
# Youngs Moduli (GPa) = 49.00392 79.37862 95.31530
#
# Poissons Ratio (x) = 0.50018 0.37150
# Poissons Ratio (y) = 0.30878 0.23129
# Poissons Ratio (z) = 0.19100 0.19262
#
# Static dielectric constant tensor:
#      x y z
#    x 3.784940 0.000000 0.000000 
#    y 0.000000 3.456820 0.000000 
#    z 0.000000 0.000000 3.653560 
# 
# 
# High freq. dielectric constant tensor:
#      x y z
#    x 1.784760 0.000000 0.000000 
#    y 0.000000 1.779630 0.000000 
#    z 0.000000 0.000000 1.796820 
# 
# From -- ./inp_files/48728.got.cif
#   From: 2010.03.12/outbox.cif.g09.slc.cpg/sg63_25_cif.got.tgz:48728.got - 2010.04.10 19:34:48.
