data_PCOD8259288
_publ_section_title
;
Structure prediction by ZEFSAII (Michael W. Deem and Ramdas Pophale) SiO2 
 PCOD8259288
Probable space group: C M C M
;
_chemical_formula_sum "Si O2"
_cell_formula_units_Z 80
_cell_length_a 9.004854
_cell_length_b 25.076145
_cell_length_c 18.203766
_cell_angle_alpha 90.000000
_cell_angle_beta 90.000000
_cell_angle_gamma 90.000000
_cell_volume 4110.538237
_symmetry_space_group_name_H-M "C M C M"
_symmetry_group_IT_number 63
_symmetry_cell_setting 'orthorhombic'
loop_
_space_group_symop_operation_xyz
x,y,z
-x,-y,1/2+z
x,-y,-z
-x,y,1/2-z
-x,-y,-z
x,y,1/2-z
-x,y,z
x,-y,1/2+z
1/2+x,1/2+y,z
1/2-x,1/2-y,1/2+z
1/2+x,1/2-y,-z
1/2-x,1/2+y,1/2-z
1/2-x,1/2-y,-z
1/2+x,1/2+y,1/2-z
1/2-x,1/2+y,z
1/2+x,1/2-y,1/2+z
loop_
_atom_site_type_symbol
_atom_site_label
_atom_site_fract_x
_atom_site_fract_y
_atom_site_fract_z
Si Si1 0.326987 0.192285 0.584211
Si Si2 0.329215 0.686926 0.435264
Si Si3 0.828928 0.911688 0.664986
Si Si4 0.173441 0.897094 0.334290
Si Si5 0.174274 0.506909 0.915555
O O1 0.500000 0.179788 0.590468
O O2 0.290143 0.254557 0.595572
O O3 0.272168 0.172402 0.504643
O O4 0.242415 0.160529 0.647959
O O5 0.500000 0.684755 0.461161
O O6 0.295447 0.645431 0.370879
O O7 0.788622 0.906580 0.750000
O O8 0.000000 0.928707 0.653506
O O9 0.724481 0.955529 0.629328
O O10 0.206631 0.911703 0.250000
O O11 0.245451 0.940863 0.386292
O O12 0.000000 0.895190 0.350600
O O13 0.000000 0.514734 0.905482
O O14 0.219718 0.500000 0.000000
#
# Coordination Sequence:
#
# PCOD8259288 Si02
#       5
#    16  16  16  16  16
#     4  10  20  35  58  86 114 147 189 234 277 324
#     4   9  19  36  58  83 114 152 189 227 273 327
#     4  10  21  37  57  82 112 146 184 224 270 328
#     4  11  24  40  58  82 113 149 188 230 279 335
#     4  11  24  40  59  84 111 141 182 230 279 333
#
# _framework density 19.462171000000001
#
# number of rings (size 3 to 8) (size 9 to 14) (size 15 to 20)
#    0.000    1.800    0.000    3.600    0.000   11.600 
#    0.000    2.000    0.000    0.000    0.000    0.000 
#    0.000    0.000    0.000    0.000    0.000    0.000 
#
# Total GULP energy -496238.293514 kJ/mol
# GULP energy per Si atom -12405.957338 kJ/mol
# Density = 1.941787 g / cm^3
# Si number density = 19.462171 Si / 1000 Ang^3
#
#
#
# Elastic Constant Matrix: (Units=GPa)
#
#
# Indices 1 2 3 4 5 6 
#
# 1 85.5963 41.2074 48.3265 0.0000 0.0000 0.0000
# 2 41.2074 98.9635 41.3560 0.0000 0.0000 0.0000
# 3 48.3265 41.3560 86.7452 0.0000 0.0000 0.0000
# 4 0.0000 0.0000 0.0000 27.8845 0.0000 0.0000
# 5 0.0000 0.0000 0.0000 0.0000 31.7586 0.0000
# 6 0.0000 0.0000 0.0000 0.0000 0.0000 36.6795
#
#
#
# Elastic Compliance Matrix: (Units=1/GPa)
#
#
# Indices 1 2 3 4 5 6 
#
# 1 0.018346 -0.004206 -0.008216 0.000000 0.000000 0.000000
# 2 -0.004206 0.013583 -0.004133 0.000000 0.000000 0.000000
# 3 -0.008216 -0.004133 0.018075 0.000000 0.000000 0.000000
# 4 0.000000 0.000000 0.000000 0.035862 0.000000 0.000000
# 5 0.000000 0.000000 0.000000 0.000000 0.031488 0.000000
# 6 0.000000 0.000000 0.000000 0.000000 0.000000 0.027263
#
#
# Mechanical properties :
#
#
# Convention : Reuss Voigt Hill
#
# Bulk Modulus (GPa) = 59.18518 59.23165 59.20841
# Shear Modulus (GPa) = 27.26922 28.62552 27.94737
#
# Velocity S-wave (km/s) = 3.74724 3.83930 3.79355
# Velocity P-wave (km/s) = 7.01419 7.08194 7.04815
#
# Compressibility (1/GPa) = 0.01689612
#
# Stress axis : x y z
#
# Youngs Moduli (GPa) = 54.50817 73.62146 55.32449
#
# Poissons Ratio (x) = 0.30964 0.45452
# Poissons Ratio (y) = 0.22925 0.22863
# Poissons Ratio (z) = 0.44781 0.30425
#
# Static dielectric constant tensor:
#      x y z
#    x 3.617660 0.000000 0.000000 
#    y 0.000000 3.813980 0.000000 
#    z 0.000000 0.000000 3.556610 
# 
# 
# High freq. dielectric constant tensor:
#      x y z
#    x 1.763510 0.000000 0.000000 
#    y 0.000000 1.771140 0.000000 
#    z 0.000000 0.000000 1.758900 
# 
# From -- ./inp_files/40535.got.cif
#   From: 2010.03.12/outbox.cif.g09.slc.cpg/sg63_21_cif.got.tgz:40535.got - 2010.04.10 19:34:48.
