data_PCOD8259037
_publ_section_title
;
Structure prediction by ZEFSAII (Michael W. Deem and Ramdas Pophale) SiO2 
 PCOD8259037
Probable space group: C M C M
;
_chemical_formula_sum "Si O2"
_cell_formula_units_Z 64
_cell_length_a 14.370610
_cell_length_b 12.414637
_cell_length_c 14.589539
_cell_angle_alpha 90.000000
_cell_angle_beta 90.000000
_cell_angle_gamma 90.000000
_cell_volume 2602.859932
_symmetry_space_group_name_H-M "C M C M"
_symmetry_group_IT_number 63
_symmetry_cell_setting 'orthorhombic'
loop_
_space_group_symop_operation_xyz
x,y,z
-x,-y,1/2+z
x,-y,-z
-x,y,1/2-z
-x,-y,-z
x,y,1/2-z
-x,y,z
x,-y,1/2+z
1/2+x,1/2+y,z
1/2-x,1/2-y,1/2+z
1/2+x,1/2-y,-z
1/2-x,1/2+y,1/2-z
1/2-x,1/2-y,-z
1/2+x,1/2+y,1/2-z
1/2-x,1/2+y,z
1/2+x,1/2-y,1/2+z
loop_
_atom_site_type_symbol
_atom_site_label
_atom_site_fract_x
_atom_site_fract_y
_atom_site_fract_z
Si Si1 0.892861 0.341647 0.349007
Si Si2 0.396342 0.456414 0.145623
Si Si3 0.391466 0.240659 0.043281
Si Si4 0.287879 0.042225 0.399460
O O1 0.880900 0.280365 0.250000
O O2 0.859113 0.270008 0.436420
O O3 0.837167 0.453280 0.336283
O O4 0.000000 0.371617 0.366050
O O5 0.394336 0.414642 0.250000
O O6 0.500000 0.500577 0.121450
O O7 0.367077 0.360057 0.077470
O O8 0.321513 0.550765 0.128321
O O9 0.500000 0.216205 0.056623
O O10 0.334463 0.159457 0.109020
O O11 0.305565 0.000000 0.500000
#
# Coordination Sequence:
#
# PCOD8259037 Si02
#       4
#    16  16  16  16
#     4   9  17  30  52  84 119 151 185 233 291 344
#     4  10  22  39  58  83 116 154 198 246 292 343
#     4   9  19  37  61  88 117 152 195 239 288 349
#     4  10  20  34  57  84 115 152 193 239 292 344
#
# _framework density 24.588339000000001
#
# number of rings (size 3 to 8) (size 9 to 14) (size 15 to 20)
#    0.000    2.500    0.000    1.500    0.000    9.500 
#    0.000    2.500    0.000   10.500    0.000   14.000 
#    0.000    0.000    0.000    0.000    0.000    0.000 
#
# Total GULP energy -396650.337612 kJ/mol
# GULP energy per Si atom -12395.323050 kJ/mol
# Density = 2.453237 g / cm^3
# Si number density = 24.588339 Si / 1000 Ang^3
#
#
#
# Elastic Constant Matrix: (Units=GPa)
#
#
# Indices 1 2 3 4 5 6 
#
# 1 108.2041 51.0959 23.3011 0.0000 0.0000 0.0000
# 2 51.0959 47.9854 28.8678 0.0000 0.0000 0.0000
# 3 23.3011 28.8678 119.7918 0.0000 0.0000 0.0000
# 4 0.0000 0.0000 0.0000 11.6845 0.0000 0.0000
# 5 0.0000 0.0000 0.0000 0.0000 29.8840 0.0000
# 6 0.0000 0.0000 0.0000 0.0000 0.0000 31.2913
#
#
#
# Elastic Compliance Matrix: (Units=1/GPa)
#
#
# Indices 1 2 3 4 5 6 
#
# 1 0.018777 -0.020815 0.001364 0.000000 0.000000 0.000000
# 2 -0.020815 0.047447 -0.007385 0.000000 0.000000 0.000000
# 3 0.001364 -0.007385 0.009862 0.000000 0.000000 0.000000
# 4 0.000000 0.000000 0.000000 0.085583 0.000000 0.000000
# 5 0.000000 0.000000 0.000000 0.000000 0.033463 0.000000
# 6 0.000000 0.000000 0.000000 0.000000 0.000000 0.031958
#
#
# Mechanical properties :
#
#
# Convention : Reuss Voigt Hill
#
# Bulk Modulus (GPa) = 44.61584 53.61230 49.11407
# Shear Modulus (GPa) = 17.34703 26.08639 21.71671
#
# Velocity S-wave (km/s) = 2.65900 3.26072 2.97511
# Velocity P-wave (km/s) = 5.25467 6.00231 5.64089
#
# Compressibility (1/GPa) = 0.02241356
#
# Stress axis : x y z
#
# Youngs Moduli (GPa) = 53.25575 21.07629 101.39663
#
# Poissons Ratio (x) = 0.43870 -0.13826
# Poissons Ratio (y) = 1.10851 0.74882
# Poissons Ratio (z) = -0.07262 0.15565
#
# Static dielectric constant tensor:
#      x y z
#    x 4.614600 0.000000 0.000000 
#    y 0.000000 4.060090 0.000000 
#    z 0.000000 0.000000 4.661170 
# 
# 
# High freq. dielectric constant tensor:
#      x y z
#    x 1.994040 0.000000 0.000000 
#    y 0.000000 1.938110 0.000000 
#    z 0.000000 0.000000 1.985620 
# 
# From -- ./inp_files/31118.got.cif
#   From: 2010.03.12/outbox.cif.g09.slc.cpg/sg63_16_cif.got.tgz:31118.got - 2010.04.10 19:34:48.
