data_PCOD8259692
_publ_section_title
;
Structure prediction by ZEFSAII (Michael W. Deem and Ramdas Pophale) SiO2 
 PCOD8259692
Probable space group: C M C M
;
_chemical_formula_sum "Si O2"
_cell_formula_units_Z 112
_cell_length_a 16.399206
_cell_length_b 10.862451
_cell_length_c 29.654272
_cell_angle_alpha 90.000000
_cell_angle_beta 90.000000
_cell_angle_gamma 90.000000
_cell_volume 5282.480694
_symmetry_space_group_name_H-M "C M C M"
_symmetry_group_IT_number 63
_symmetry_cell_setting 'orthorhombic'
loop_
_space_group_symop_operation_xyz
x,y,z
-x,-y,1/2+z
x,-y,-z
-x,y,1/2-z
-x,-y,-z
x,y,1/2-z
-x,y,z
x,-y,1/2+z
1/2+x,1/2+y,z
1/2-x,1/2-y,1/2+z
1/2+x,1/2-y,-z
1/2-x,1/2+y,1/2-z
1/2-x,1/2-y,-z
1/2+x,1/2+y,1/2-z
1/2-x,1/2+y,z
1/2+x,1/2-y,1/2+z
loop_
_atom_site_type_symbol
_atom_site_label
_atom_site_fract_x
_atom_site_fract_y
_atom_site_fract_z
Si Si1 0.408640 0.881816 0.166253
Si Si2 0.815585 0.411880 0.871587
Si Si3 0.407090 0.732352 0.928597
Si Si4 0.812771 0.140091 0.009224
Si Si5 0.661010 0.542271 0.860924
Si Si6 0.244998 0.214366 0.699652
Si Si7 0.909974 0.176028 0.401452
O O1 0.500000 0.870422 0.187374
O O2 0.339730 0.828085 0.199510
O O3 0.404631 0.812815 0.117977
O O4 0.390543 0.024720 0.154972
O O5 0.848120 0.348405 0.917436
O O6 0.748719 0.514994 0.885494
O O7 0.769992 0.318749 0.837516
O O8 0.500000 0.777651 0.929210
O O9 0.393633 0.636724 0.888575
O O10 0.388009 0.667348 0.975845
O O11 0.843065 0.151804 0.060380
O O12 0.750000 0.250000 0.000000
O O13 0.780105 0.000000 0.000000
O O14 0.684474 0.599257 0.812130
O O15 0.608962 0.416366 0.859270
O O16 0.223973 0.260446 0.750000
O O17 0.000000 0.149580 0.420927
#
# Coordination Sequence:
#
# PCOD8259692 Si02
#       7
#    16  16  16  16  16  16  16
#     4  10  22  40  64  91 125 166 208 259 323 385
#     4  10  21  39  64  90 124 164 208 254 321 384
#     4  11  23  39  63  92 124 163 211 262 309 365
#     4  12  27  40  63  95 132 173 221 270 319 380
#     4  10  20  37  63  88 120 158 207 251 307 368
#     4  10  22  39  63  91 120 158 208 257 312 381
#     4  11  22  40  63  90 125 167 212 261 317 377
#
# _framework density 21.202159000000002
#
# number of rings (size 3 to 8) (size 9 to 14) (size 15 to 20)
#    0.000    1.429    2.857    2.143    4.000    3.143 
#    0.000    0.000    0.000   18.429    0.000    0.000 
#    0.000    0.000    0.000    0.000    0.000    0.000 
#
# Total GULP energy -693972.791139 kJ/mol
# GULP energy per Si atom -12392.371270 kJ/mol
# Density = 2.115390 g / cm^3
# Si number density = 21.202159 Si / 1000 Ang^3
#
#
#
# Elastic Constant Matrix: (Units=GPa)
#
#
# Indices 1 2 3 4 5 6 
#
# 1 89.8557 25.1102 9.0775 0.0000 0.0000 0.0000
# 2 25.1102 81.8615 0.2101 0.0000 0.0000 0.0000
# 3 9.0775 0.2101 60.9306 0.0000 0.0000 0.0000
# 4 0.0000 0.0000 0.0000 13.0088 0.0000 0.0000
# 5 0.0000 0.0000 0.0000 0.0000 19.7569 0.0000
# 6 0.0000 0.0000 0.0000 0.0000 0.0000 33.6683
#
#
#
# Elastic Compliance Matrix: (Units=1/GPa)
#
#
# Indices 1 2 3 4 5 6 
#
# 1 0.012373 -0.003791 -0.001830 0.000000 0.000000 0.000000
# 2 -0.003791 0.013377 0.000519 0.000000 0.000000 0.000000
# 3 -0.001830 0.000519 0.016683 0.000000 0.000000 0.000000
# 4 0.000000 0.000000 0.000000 0.076871 0.000000 0.000000
# 5 0.000000 0.000000 0.000000 0.000000 0.050615 0.000000
# 6 0.000000 0.000000 0.000000 0.000000 0.000000 0.029702
#
#
# Mechanical properties :
#
#
# Convention : Reuss Voigt Hill
#
# Bulk Modulus (GPa) = 31.02827 33.49371 32.26099
# Shear Modulus (GPa) = 22.66870 26.50348 24.58609
#
# Velocity S-wave (km/s) = 3.27336 3.53942 3.40899
# Velocity P-wave (km/s) = 5.38078 5.70394 5.54472
#
# Compressibility (1/GPa) = 0.03222867
#
# Stress axis : x y z
#
# Youngs Moduli (GPa) = 80.82016 74.75420 59.94126
#
# Poissons Ratio (x) = 0.28337 0.10971
# Poissons Ratio (y) = 0.30636 -0.03109
# Poissons Ratio (z) = 0.14792 -0.03877
#
# Static dielectric constant tensor:
#      x y z
#    x 3.931080 0.000000 0.000000 
#    y 0.000000 4.087010 0.000000 
#    z 0.000000 0.000000 3.510300 
# 
# 
# High freq. dielectric constant tensor:
#      x y z
#    x 1.835140 0.000000 0.000000 
#    y 0.000000 1.841190 0.000000 
#    z 0.000000 0.000000 1.796030 
# 
# From -- ./inp_files/73423.got.cif
#   From: 2010.03.12/outbox.cif.g09.slc.cpg/sg63_37_cif.got.tgz:73423.got - 2010.04.10 19:34:48.
