data_PCOD8259088
_publ_section_title
;
Structure prediction by ZEFSAII (Michael W. Deem and Ramdas Pophale) SiO2 
 PCOD8259088
Probable space group: C M C M
;
_chemical_formula_sum "Si O2"
_cell_formula_units_Z 96
_cell_length_a 9.005542
_cell_length_b 26.000858
_cell_length_c 23.634657
_cell_angle_alpha 90.000000
_cell_angle_beta 90.000000
_cell_angle_gamma 90.000000
_cell_volume 5534.097922
_symmetry_space_group_name_H-M "C M C M"
_symmetry_group_IT_number 63
_symmetry_cell_setting 'orthorhombic'
loop_
_space_group_symop_operation_xyz
x,y,z
-x,-y,1/2+z
x,-y,-z
-x,y,1/2-z
-x,-y,-z
x,y,1/2-z
-x,y,z
x,-y,1/2+z
1/2+x,1/2+y,z
1/2-x,1/2-y,1/2+z
1/2+x,1/2-y,-z
1/2-x,1/2+y,1/2-z
1/2-x,1/2-y,-z
1/2+x,1/2+y,1/2-z
1/2-x,1/2+y,z
1/2+x,1/2-y,1/2+z
loop_
_atom_site_type_symbol
_atom_site_label
_atom_site_fract_x
_atom_site_fract_y
_atom_site_fract_z
Si Si1 0.668908 0.677663 0.016306
Si Si2 0.825626 0.163411 0.608420
Si Si3 0.166852 0.874411 0.627444
Si Si4 0.673832 0.967531 0.684787
Si Si5 0.824490 0.072442 0.814689
Si Si6 0.673133 0.223030 0.386905
O O1 0.500000 0.698889 0.009032
O O2 0.667463 0.627989 0.058675
O O3 0.772974 0.720814 0.046869
O O4 0.736225 0.660454 0.955881
O O5 0.756590 0.118894 0.647641
O O6 0.790743 0.219548 0.635393
O O7 0.000000 0.154341 0.606328
O O8 0.265317 0.921588 0.647045
O O9 0.238085 0.820027 0.649622
O O10 0.000000 0.879698 0.651574
O O11 0.713336 0.956321 0.750000
O O12 0.500000 0.972655 0.674926
O O13 0.749925 0.019997 0.664136
O O14 0.780847 0.084195 0.750000
O O15 0.000000 0.066642 0.821753
O O16 0.500000 0.210405 0.383151
#
# Coordination Sequence:
#
# PCOD8259088 Si02
#       6
#    16  16  16  16  16  16
#     4   8  16  29  46  71 100 131 165 197 236 287
#     4   9  16  29  49  73 101 133 166 197 236 286
#     4   9  18  31  49  72  98 128 160 198 239 285
#     4  10  20  35  54  72  92 122 160 204 250 291
#     4   9  18  33  53  73  93 124 165 202 236 284
#     4   9  16  27  47  73 101 130 161 198 237 280
#
# _framework density 17.347000000000001
#
# number of rings (size 3 to 8) (size 9 to 14) (size 15 to 20)
#    1.000    2.000    0.000    1.500    0.000    1.000 
#    0.000    4.167    0.000    8.000    0.000    0.000 
#    0.000    0.000    0.000    0.000    0.000    0.000 
#
# Total GULP energy -594695.723139 kJ/mol
# GULP energy per Si atom -12389.494232 kJ/mol
# Density = 1.730752 g / cm^3
# Si number density = 17.347000 Si / 1000 Ang^3
#
#
#
# Elastic Constant Matrix: (Units=GPa)
#
#
# Indices 1 2 3 4 5 6 
#
# 1 46.0275 30.9428 15.0493 0.0000 0.0000 0.0000
# 2 30.9428 130.7689 41.8081 0.0000 0.0000 0.0000
# 3 15.0493 41.8081 36.2664 0.0000 0.0000 0.0000
# 4 0.0000 0.0000 0.0000 22.2947 0.0000 0.0000
# 5 0.0000 0.0000 0.0000 0.0000 17.9273 0.0000
# 6 0.0000 0.0000 0.0000 0.0000 0.0000 27.7572
#
#
#
# Elastic Compliance Matrix: (Units=1/GPa)
#
#
# Indices 1 2 3 4 5 6 
#
# 1 0.026635 -0.004385 -0.005998 0.000000 0.000000 0.000000
# 2 -0.004385 0.012832 -0.012974 0.000000 0.000000 0.000000
# 3 -0.005998 -0.012974 0.045019 0.000000 0.000000 0.000000
# 4 0.000000 0.000000 0.000000 0.044854 0.000000 0.000000
# 5 0.000000 0.000000 0.000000 0.000000 0.055781 0.000000
# 6 0.000000 0.000000 0.000000 0.000000 0.000000 0.036027
#
#
# Mechanical properties :
#
#
# Convention : Reuss Voigt Hill
#
# Bulk Modulus (GPa) = 26.47356 43.18481 34.82918
# Shear Modulus (GPa) = 17.82841 21.94669 19.88755
#
# Velocity S-wave (km/s) = 3.20934 3.56076 3.38961
# Velocity P-wave (km/s) = 5.38771 6.46948 5.95321
#
# Compressibility (1/GPa) = 0.03777353
#
# Stress axis : x y z
#
# Youngs Moduli (GPa) = 37.54462 77.92736 22.21297
#
# Poissons Ratio (x) = 0.34170 0.13323
# Poissons Ratio (y) = 0.16463 0.28819
# Poissons Ratio (z) = 0.22518 1.01101
#
# Static dielectric constant tensor:
#      x y z
#    x 3.108000 0.000000 0.000000 
#    y 0.000000 3.221480 0.000000 
#    z 0.000000 0.000000 3.147370 
# 
# 
# High freq. dielectric constant tensor:
#      x y z
#    x 1.661410 0.000000 0.000000 
#    y 0.000000 1.667400 0.000000 
#    z 0.000000 0.000000 1.644270 
# 
# From -- ./inp_files/60217.got.cif
#   From: 2010.03.12/outbox.cif.g09.slc.cpg/sg63_31_cif.got.tgz:60217.got - 2010.04.10 19:34:48.
