data_PCOD8259994
_publ_section_title
;
Structure prediction by ZEFSAII (Michael W. Deem and Ramdas Pophale) SiO2 
 PCOD8259994
Probable space group: C M C M
;
_chemical_formula_sum "Si O2"
_cell_formula_units_Z 96
_cell_length_a 19.608067
_cell_length_b 9.179173
_cell_length_c 28.379587
_cell_angle_alpha 90.000000
_cell_angle_beta 90.000000
_cell_angle_gamma 90.000000
_cell_volume 5107.923782
_symmetry_space_group_name_H-M "C M C M"
_symmetry_group_IT_number 63
_symmetry_cell_setting 'orthorhombic'
loop_
_space_group_symop_operation_xyz
x,y,z
-x,-y,1/2+z
x,-y,-z
-x,y,1/2-z
-x,-y,-z
x,y,1/2-z
-x,y,z
x,-y,1/2+z
1/2+x,1/2+y,z
1/2-x,1/2-y,1/2+z
1/2+x,1/2-y,-z
1/2-x,1/2+y,1/2-z
1/2-x,1/2-y,-z
1/2+x,1/2+y,1/2-z
1/2-x,1/2+y,z
1/2+x,1/2-y,1/2+z
loop_
_atom_site_type_symbol
_atom_site_label
_atom_site_fract_x
_atom_site_fract_y
_atom_site_fract_z
Si Si1 0.077706 0.579563 0.696098
Si Si2 0.667004 0.304990 0.961640
Si Si3 0.187315 0.066340 0.844823
Si Si4 0.714285 0.390642 0.054956
Si Si5 0.697914 0.870383 0.803208
Si Si6 0.579696 0.658596 0.372790
O O1 0.087319 0.634605 0.750000
O O2 0.124729 0.441132 0.685070
O O3 0.099540 0.707858 0.660922
O O4 0.000000 0.531179 0.686888
O O5 0.716763 0.434329 0.944389
O O6 0.709326 0.156543 0.958340
O O7 0.601433 0.305231 0.927161
O O8 0.655307 0.333747 0.017941
O O9 0.198343 0.160252 0.892442
O O10 0.189712 0.195018 0.806564
O O11 0.244516 0.943092 0.835970
O O12 0.115264 0.983628 0.850352
O O13 0.720147 0.904808 0.750000
O O14 0.500000 0.626780 0.373053
#
# Coordination Sequence:
#
# PCOD8259994 Si02
#       6
#    16  16  16  16  16  16
#     4   9  19  36  56  77 103 139 180 218 264 324
#     4   9  17  31  51  76 102 129 172 218 266 321
#     4  11  21  34  52  77 107 138 177 220 265 318
#     4   9  17  30  50  76 100 131 169 215 267 312
#     4  11  22  35  55  81 110 142 177 223 274 323
#     4  10  21  36  54  77 108 146 184 225 272 321
#
# _framework density 18.794329000000001
#
# number of rings (size 3 to 8) (size 9 to 14) (size 15 to 20)
#    0.000    2.167    0.000    4.500    0.000    3.333 
#    0.000    6.667    0.000    0.000    0.000   11.667 
#    0.000    0.000    0.000    0.000    0.000    0.000 
#
# Total GULP energy -594754.838030 kJ/mol
# GULP energy per Si atom -12390.725792 kJ/mol
# Density = 1.875155 g / cm^3
# Si number density = 18.794329 Si / 1000 Ang^3
#
#
#
# Elastic Constant Matrix: (Units=GPa)
#
#
# Indices 1 2 3 4 5 6 
#
# 1 85.7615 39.1581 37.0315 0.0000 0.0000 0.0000
# 2 39.1581 74.0917 21.0977 0.0000 0.0000 0.0000
# 3 37.0315 21.0977 85.3888 0.0000 0.0000 0.0000
# 4 0.0000 0.0000 0.0000 24.7915 0.0000 0.0000
# 5 0.0000 0.0000 0.0000 0.0000 31.4849 0.0000
# 6 0.0000 0.0000 0.0000 0.0000 0.0000 28.9915
#
#
#
# Elastic Compliance Matrix: (Units=1/GPa)
#
#
# Indices 1 2 3 4 5 6 
#
# 1 0.017659 -0.007694 -0.005758 0.000000 0.000000 0.000000
# 2 -0.007694 0.017870 -0.001079 0.000000 0.000000 0.000000
# 3 -0.005758 -0.001079 0.014475 0.000000 0.000000 0.000000
# 4 0.000000 0.000000 0.000000 0.040336 0.000000 0.000000
# 5 0.000000 0.000000 0.000000 0.000000 0.031761 0.000000
# 6 0.000000 0.000000 0.000000 0.000000 0.000000 0.034493
#
#
# Mechanical properties :
#
#
# Convention : Reuss Voigt Hill
#
# Bulk Modulus (GPa) = 47.74601 48.86852 48.30727
# Shear Modulus (GPa) = 25.95577 26.91724 26.43650
#
# Velocity S-wave (km/s) = 3.72027 3.78855 3.75456
# Velocity P-wave (km/s) = 6.62673 6.72277 6.67492
#
# Compressibility (1/GPa) = 0.02094416
#
# Stress axis : x y z
#
# Youngs Moduli (GPa) = 56.62787 55.95942 69.08649
#
# Poissons Ratio (x) = 0.43053 0.39777
# Poissons Ratio (y) = 0.43567 0.07453
# Poissons Ratio (z) = 0.32604 0.06037
#
# Static dielectric constant tensor:
#      x y z
#    x 3.204590 0.000000 0.000000 
#    y 0.000000 3.369670 0.000000 
#    z 0.000000 0.000000 3.913620 
# 
# 
# High freq. dielectric constant tensor:
#      x y z
#    x 1.700170 0.000000 0.000000 
#    y 0.000000 1.727900 0.000000 
#    z 0.000000 0.000000 1.748200 
# 
# From -- ./inp_files/70305.got.cif
#   From: 2010.03.12/outbox.cif.g09.slc.cpg/sg63_36_cif.got.tgz:70305.got - 2010.04.10 19:34:48.
