data_PCOD8259380
_publ_section_title
;
Structure prediction by ZEFSAII (Michael W. Deem and Ramdas Pophale) SiO2 
 PCOD8259380
Probable space group: C M C M
;
_chemical_formula_sum "Si O2"
_cell_formula_units_Z 96
_cell_length_a 11.027515
_cell_length_b 24.529601
_cell_length_c 19.756996
_cell_angle_alpha 90.000000
_cell_angle_beta 90.000000
_cell_angle_gamma 90.000000
_cell_volume 5344.278145
_symmetry_space_group_name_H-M "C M C M"
_symmetry_group_IT_number 63
_symmetry_cell_setting 'orthorhombic'
loop_
_space_group_symop_operation_xyz
x,y,z
-x,-y,1/2+z
x,-y,-z
-x,y,1/2-z
-x,-y,-z
x,y,1/2-z
-x,y,z
x,-y,1/2+z
1/2+x,1/2+y,z
1/2-x,1/2-y,1/2+z
1/2+x,1/2-y,-z
1/2-x,1/2+y,1/2-z
1/2-x,1/2-y,-z
1/2+x,1/2+y,1/2-z
1/2-x,1/2+y,z
1/2+x,1/2-y,1/2+z
loop_
_atom_site_type_symbol
_atom_site_label
_atom_site_fract_x
_atom_site_fract_y
_atom_site_fract_z
Si Si1 0.637221 0.258554 0.950815
Si Si2 0.222672 0.873172 0.561508
Si Si3 0.141009 0.558728 0.328233
Si Si4 0.364186 0.141273 0.574709
Si Si5 0.000000 0.009266 0.824754
Si Si6 0.000000 0.054241 0.044493
Si Si7 0.256881 0.056429 0.673060
O O1 0.500000 0.260840 0.984023
O O2 0.662565 0.316039 0.913563
O O3 0.640281 0.205129 0.902594
O O4 0.750000 0.250000 0.000000
O O5 0.284171 0.898828 0.627301
O O6 0.320451 0.864706 0.502549
O O7 0.119966 0.911491 0.528631
O O8 0.180035 0.566226 0.250000
O O9 0.171742 0.497350 0.351952
O O10 0.000000 0.570133 0.338840
O O11 0.500000 0.118196 0.577793
O O12 0.284599 0.107833 0.626952
O O13 0.114410 0.047897 0.835207
O O14 0.000000 0.982719 0.750000
O O15 0.000000 0.959096 0.875898
O O16 0.000000 0.000000 0.000000
O O17 0.294169 0.070053 0.750000
#
# Coordination Sequence:
#
# PCOD8259380 Si02
#       7
#    16  16  16  16   8   8  16
#     4   9  19  37  56  80 110 148 188 229 278 331
#     4  11  21  35  57  80 112 143 181 228 273 325
#     4  10  21  36  55  80 111 146 180 217 274 338
#     4  10  21  36  56  80 108 141 184 227 272 323
#     4  10  20  36  56  78 110 148 180 215 270 335
#     4  12  22  32  52  84 116 138 176 224 273 319
#     4  10  20  36  56  80 110 143 179 223 274 329
#
# _framework density 17.963135999999999
#
# number of rings (size 3 to 8) (size 9 to 14) (size 15 to 20)
#    0.000    1.833    2.500    2.000    0.000    1.667 
#    1.500    2.500    0.000    1.000    0.000    0.000 
#    0.000    0.000    0.000    0.000    0.000    0.000 
#
# Total GULP energy -594926.128940 kJ/mol
# GULP energy per Si atom -12394.294353 kJ/mol
# Density = 1.792225 g / cm^3
# Si number density = 17.963136 Si / 1000 Ang^3
#
#
#
# Elastic Constant Matrix: (Units=GPa)
#
#
# Indices 1 2 3 4 5 6 
#
# 1 105.5750 39.2715 21.1430 0.0000 0.0000 0.0000
# 2 39.2715 126.8499 44.8226 0.0000 0.0000 0.0000
# 3 21.1430 44.8226 61.3600 0.0000 0.0000 0.0000
# 4 0.0000 0.0000 0.0000 22.0304 0.0000 0.0000
# 5 0.0000 0.0000 0.0000 0.0000 26.5371 0.0000
# 6 0.0000 0.0000 0.0000 0.0000 0.0000 24.2165
#
#
#
# Elastic Compliance Matrix: (Units=1/GPa)
#
#
# Indices 1 2 3 4 5 6 
#
# 1 0.010839 -0.002744 -0.001730 0.000000 0.000000 0.000000
# 2 -0.002744 0.011321 -0.007324 0.000000 0.000000 0.000000
# 3 -0.001730 -0.007324 0.022244 0.000000 0.000000 0.000000
# 4 0.000000 0.000000 0.000000 0.045392 0.000000 0.000000
# 5 0.000000 0.000000 0.000000 0.000000 0.037683 0.000000
# 6 0.000000 0.000000 0.000000 0.000000 0.000000 0.041294
#
#
# Mechanical properties :
#
#
# Convention : Reuss Voigt Hill
#
# Bulk Modulus (GPa) = 48.06211 56.02880 52.04546
# Shear Modulus (GPa) = 25.08706 27.12665 26.10685
#
# Velocity S-wave (km/s) = 3.74115 3.89025 3.81643
# Velocity P-wave (km/s) = 6.74356 7.17199 6.96107
#
# Compressibility (1/GPa) = 0.02080641
#
# Stress axis : x y z
#
# Youngs Moduli (GPa) = 92.25703 88.33159 44.95662
#
# Poissons Ratio (x) = 0.24241 0.07778
# Poissons Ratio (y) = 0.25319 0.32927
# Poissons Ratio (z) = 0.15962 0.64696
#
# Static dielectric constant tensor:
#      x y z
#    x 3.636970 0.000000 0.000000 
#    y 0.000000 3.602190 0.000000 
#    z 0.000000 0.000000 3.101680 
# 
# 
# High freq. dielectric constant tensor:
#      x y z
#    x 1.721540 0.000000 0.000000 
#    y 0.000000 1.699420 0.000000 
#    z 0.000000 0.000000 1.664860 
# 
# From -- ./inp_files/42579.got.cif
#   From: 2010.03.12/outbox.cif.g09.slc.cpg/sg63_22_cif.got.tgz:42579.got - 2010.04.10 19:34:48.
