data_PCOD8259956
_publ_section_title
;
Structure prediction by ZEFSAII (Michael W. Deem and Ramdas Pophale) SiO2 
 PCOD8259956
Probable space group: C M C M
;
_chemical_formula_sum "Si O2"
_cell_formula_units_Z 96
_cell_length_a 20.008350
_cell_length_b 9.806291
_cell_length_c 24.664235
_cell_angle_alpha 90.000000
_cell_angle_beta 90.000000
_cell_angle_gamma 90.000000
_cell_volume 4839.312884
_symmetry_space_group_name_H-M "C M C M"
_symmetry_group_IT_number 63
_symmetry_cell_setting 'orthorhombic'
loop_
_space_group_symop_operation_xyz
x,y,z
-x,-y,1/2+z
x,-y,-z
-x,y,1/2-z
-x,-y,-z
x,y,1/2-z
-x,y,z
x,-y,1/2+z
1/2+x,1/2+y,z
1/2-x,1/2-y,1/2+z
1/2+x,1/2-y,-z
1/2-x,1/2+y,1/2-z
1/2-x,1/2-y,-z
1/2+x,1/2+y,1/2-z
1/2-x,1/2+y,z
1/2+x,1/2-y,1/2+z
loop_
_atom_site_type_symbol
_atom_site_label
_atom_site_fract_x
_atom_site_fract_y
_atom_site_fract_z
Si Si1 0.422778 0.142660 0.086541
Si Si2 0.700333 0.482982 0.313512
Si Si3 0.579170 0.653496 0.002404
Si Si4 0.424341 0.687195 0.811950
Si Si5 0.578690 0.842435 0.398851
Si Si6 0.314758 0.212825 0.685727
O O1 0.500000 0.142033 0.070996
O O2 0.389299 0.253686 0.046031
O O3 0.411389 0.183530 0.149411
O O4 0.396135 0.988974 0.077834
O O5 0.708176 0.468407 0.250000
O O6 0.626054 0.432475 0.329914
O O7 0.710561 0.637564 0.331993
O O8 0.758937 0.389488 0.338442
O O9 0.500000 0.643606 0.995746
O O10 0.609693 0.500000 0.000000
O O11 0.598581 0.724277 0.059043
O O12 0.411723 0.735462 0.750000
O O13 0.500000 0.630862 0.819375
O O14 0.500000 0.845812 0.386977
O O15 0.614333 0.815430 0.341827
O O16 0.325835 0.202264 0.750000
#
# Coordination Sequence:
#
# PCOD8259956 Si02
#       6
#    16  16  16  16  16  16
#     4   9  18  32  53  82 115 150 182 224 281 335
#     4   9  20  37  55  77 109 151 191 224 268 335
#     4   9  18  33  54  80 111 148 192 235 278 337
#     4   9  18  32  55  87 115 141 181 232 283 331
#     4  10  21  35  55  86 117 146 187 238 286 331
#     4  10  22  38  57  82 113 153 192 228 278 337
#
# _framework density 19.837527000000001
#
# number of rings (size 3 to 8) (size 9 to 14) (size 15 to 20)
#    0.000    2.667    0.000    0.500    4.667    3.667 
#    0.000    3.333    0.000    1.000    0.000    0.000 
#    0.000    0.000    0.000    0.000    0.000    0.000 
#
# Total GULP energy -594962.157088 kJ/mol
# GULP energy per Si atom -12395.044939 kJ/mol
# Density = 1.979238 g / cm^3
# Si number density = 19.837527 Si / 1000 Ang^3
#
#
#
# Elastic Constant Matrix: (Units=GPa)
#
#
# Indices 1 2 3 4 5 6 
#
# 1 70.7468 47.9105 42.9647 0.0000 0.0000 0.0000
# 2 47.9105 179.0442 63.7807 0.0000 0.0000 0.0000
# 3 42.9647 63.7807 78.4474 0.0000 0.0000 0.0000
# 4 0.0000 0.0000 0.0000 27.2722 0.0000 0.0000
# 5 0.0000 0.0000 0.0000 0.0000 13.8166 0.0000
# 6 0.0000 0.0000 0.0000 0.0000 0.0000 25.0911
#
#
#
# Elastic Compliance Matrix: (Units=1/GPa)
#
#
# Indices 1 2 3 4 5 6 
#
# 1 0.021791 -0.002224 -0.010127 0.000000 0.000000 0.000000
# 2 -0.002224 0.008089 -0.005359 0.000000 0.000000 0.000000
# 3 -0.010127 -0.005359 0.022651 0.000000 0.000000 0.000000
# 4 0.000000 0.000000 0.000000 0.036667 0.000000 0.000000
# 5 0.000000 0.000000 0.000000 0.000000 0.072377 0.000000
# 6 0.000000 0.000000 0.000000 0.000000 0.000000 0.039855
#
#
# Mechanical properties :
#
#
# Convention : Reuss Voigt Hill
#
# Bulk Modulus (GPa) = 58.43796 70.83887 64.63842
# Shear Modulus (GPa) = 20.61414 24.80816 22.71115
#
# Velocity S-wave (km/s) = 3.22708 3.54017 3.38725
# Velocity P-wave (km/s) = 6.58845 7.24551 6.92478
#
# Compressibility (1/GPa) = 0.01711216
#
# Stress axis : x y z
#
# Youngs Moduli (GPa) = 45.89119 123.62056 44.14864
#
# Poissons Ratio (x) = 0.27488 0.44708
# Poissons Ratio (y) = 0.10204 0.23660
# Poissons Ratio (z) = 0.46472 0.66249
#
# Static dielectric constant tensor:
#      x y z
#    x 3.346960 0.000000 0.000000 
#    y 0.000000 3.997400 0.000000 
#    z 0.000000 0.000000 3.463300 
# 
# 
# High freq. dielectric constant tensor:
#      x y z
#    x 1.734020 0.000000 0.000000 
#    y 0.000000 1.784590 0.000000 
#    z 0.000000 0.000000 1.759040 
# 
# From -- ./inp_files/70318.got.cif
#   From: 2010.03.12/outbox.cif.g09.slc.cpg/sg63_36_cif.got.tgz:70318.got - 2010.04.10 19:34:48.
