data_PCOD8259065
_publ_section_title
;
Structure prediction by ZEFSAII (Michael W. Deem and Ramdas Pophale) SiO2 
 PCOD8259065
Probable space group: C M C M
;
_chemical_formula_sum "Si O2"
_cell_formula_units_Z 96
_cell_length_a 9.403506
_cell_length_b 19.182245
_cell_length_c 30.327363
_cell_angle_alpha 90.000000
_cell_angle_beta 90.000000
_cell_angle_gamma 90.000000
_cell_volume 5470.460533
_symmetry_space_group_name_H-M "C M C M"
_symmetry_group_IT_number 63
_symmetry_cell_setting 'orthorhombic'
loop_
_space_group_symop_operation_xyz
x,y,z
-x,-y,1/2+z
x,-y,-z
-x,y,1/2-z
-x,-y,-z
x,y,1/2-z
-x,y,z
x,-y,1/2+z
1/2+x,1/2+y,z
1/2-x,1/2-y,1/2+z
1/2+x,1/2-y,-z
1/2-x,1/2+y,1/2-z
1/2-x,1/2-y,-z
1/2+x,1/2+y,1/2-z
1/2-x,1/2+y,z
1/2+x,1/2-y,1/2+z
loop_
_atom_site_type_symbol
_atom_site_label
_atom_site_fract_x
_atom_site_fract_y
_atom_site_fract_z
Si Si1 0.337016 0.704985 0.145010
Si Si2 0.166935 0.396175 0.799754
Si Si3 0.836174 0.501899 0.124433
Si Si4 0.161675 0.099455 0.068772
Si Si5 0.332783 0.317364 0.483618
Si Si6 0.164282 0.652606 0.896857
O O1 0.500000 0.694439 0.158805
O O2 0.241469 0.674980 0.184390
O O3 0.301660 0.665911 0.099278
O O4 0.300636 0.786194 0.137783
O O5 0.214439 0.413505 0.750000
O O6 0.216097 0.460902 0.830466
O O7 0.000000 0.383419 0.802794
O O8 0.755868 0.533168 0.082069
O O9 0.807496 0.419697 0.128552
O O10 0.000000 0.518255 0.116283
O O11 0.000000 0.076184 0.075463
O O12 0.191671 0.120483 0.018502
O O13 0.500000 0.299810 0.478802
O O14 0.250000 0.250000 0.500000
O O15 0.269433 0.343880 0.437950
O O16 0.000000 0.658947 0.912968
#
# Coordination Sequence:
#
# PCOD8259065 Si02
#       6
#    16  16  16  16  16  16
#     4   9  17  32  52  73 100 131 166 207 252 302
#     4   9  18  34  55  78 101 127 166 211 254 308
#     4   9  19  34  53  75 102 137 170 207 258 308
#     4   9  18  33  50  70 100 136 173 213 249 292
#     4  11  21  33  51  75 103 139 180 219 257 297
#     4  10  20  35  51  74 107 137 171 215 258 302
#
# _framework density 17.548798000000001
#
# number of rings (size 3 to 8) (size 9 to 14) (size 15 to 20)
#    0.000    2.500    1.667    0.500    0.000    3.667 
#    0.000    4.167    0.000    3.000    0.000    0.000 
#    0.000    0.000    0.000    0.000    0.000    0.000 
#
# Total GULP energy -595226.609236 kJ/mol
# GULP energy per Si atom -12400.554359 kJ/mol
# Density = 1.750886 g / cm^3
# Si number density = 17.548798 Si / 1000 Ang^3
#
#
#
# Elastic Constant Matrix: (Units=GPa)
#
#
# Indices 1 2 3 4 5 6 
#
# 1 64.5451 46.2517 49.3239 0.0000 0.0000 0.0000
# 2 46.2517 123.2600 48.4887 0.0000 0.0000 0.0000
# 3 49.3239 48.4887 101.9456 0.0000 0.0000 0.0000
# 4 0.0000 0.0000 0.0000 19.6781 0.0000 0.0000
# 5 0.0000 0.0000 0.0000 0.0000 27.2002 0.0000
# 6 0.0000 0.0000 0.0000 0.0000 0.0000 27.3980
#
#
#
# Elastic Compliance Matrix: (Units=1/GPa)
#
#
# Indices 1 2 3 4 5 6 
#
# 1 0.028172 -0.006408 -0.010582 0.000000 0.000000 0.000000
# 2 -0.006408 0.011438 -0.002340 0.000000 0.000000 0.000000
# 3 -0.010582 -0.002340 0.016042 0.000000 0.000000 0.000000
# 4 0.000000 0.000000 0.000000 0.050818 0.000000 0.000000
# 5 0.000000 0.000000 0.000000 0.000000 0.036764 0.000000
# 6 0.000000 0.000000 0.000000 0.000000 0.000000 0.036499
#
#
# Mechanical properties :
#
#
# Convention : Reuss Voigt Hill
#
# Bulk Modulus (GPa) = 58.85406 64.20882 61.53144
# Shear Modulus (GPa) = 22.31572 24.56769 23.44171
#
# Velocity S-wave (km/s) = 3.56987 3.74567 3.65883
# Velocity P-wave (km/s) = 7.11352 7.44143 7.27932
#
# Compressibility (1/GPa) = 0.01699118
#
# Stress axis : x y z
#
# Youngs Moduli (GPa) = 35.49655 87.42805 62.33624
#
# Poissons Ratio (x) = 0.56025 0.65966
# Poissons Ratio (y) = 0.22747 0.14586
# Poissons Ratio (z) = 0.37563 0.20457
#
# Static dielectric constant tensor:
#      x y z
#    x 3.302280 0.000000 0.000000 
#    y 0.000000 3.304170 0.000000 
#    z 0.000000 0.000000 3.256980 
# 
# 
# High freq. dielectric constant tensor:
#      x y z
#    x 1.679110 0.000000 0.000000 
#    y 0.000000 1.675960 0.000000 
#    z 0.000000 0.000000 1.661000 
# 
# From -- ./inp_files/66919.got.cif
#   From: 2010.03.12/outbox.cif.g09.slc.cpg/sg63_34_cif.got.tgz:66919.got - 2010.04.10 19:34:48.
