data_PCOD8259654
_publ_section_title
;
Structure prediction by ZEFSAII (Michael W. Deem and Ramdas Pophale) SiO2 
 PCOD8259654
Probable space group: C M C M
;
_chemical_formula_sum "Si O2"
_cell_formula_units_Z 80
_cell_length_a 9.174136
_cell_length_b 24.838872
_cell_length_c 17.972048
_cell_angle_alpha 90.000000
_cell_angle_beta 90.000000
_cell_angle_gamma 90.000000
_cell_volume 4095.383849
_symmetry_space_group_name_H-M "C M C M"
_symmetry_group_IT_number 63
_symmetry_cell_setting 'orthorhombic'
loop_
_space_group_symop_operation_xyz
x,y,z
-x,-y,1/2+z
x,-y,-z
-x,y,1/2-z
-x,-y,-z
x,y,1/2-z
-x,y,z
x,-y,1/2+z
1/2+x,1/2+y,z
1/2-x,1/2-y,1/2+z
1/2+x,1/2-y,-z
1/2-x,1/2+y,1/2-z
1/2-x,1/2-y,-z
1/2+x,1/2+y,1/2-z
1/2-x,1/2+y,z
1/2+x,1/2-y,1/2+z
loop_
_atom_site_type_symbol
_atom_site_label
_atom_site_fract_x
_atom_site_fract_y
_atom_site_fract_z
Si Si1 0.168911 0.485790 0.336388
Si Si2 0.332709 0.826204 0.664920
Si Si3 0.331925 0.394414 0.413214
Si Si4 0.832877 0.774266 0.069204
Si Si5 0.668427 0.581490 0.416868
O O1 0.192074 0.498928 0.250000
O O2 0.236958 0.427909 0.354878
O O3 0.247060 0.531231 0.383990
O O4 0.000000 0.485118 0.357898
O O5 0.282875 0.831112 0.750000
O O6 0.500000 0.845060 0.655095
O O7 0.314253 0.764308 0.640313
O O8 0.230622 0.862938 0.614619
O O9 0.500000 0.397117 0.388261
O O10 0.272258 0.333242 0.410314
O O11 0.311454 0.419370 0.494839
O O12 0.000000 0.780226 0.044407
O O13 0.750000 0.750000 0.000000
O O14 0.500000 0.576968 0.394203
#
# Coordination Sequence:
#
# PCOD8259654 Si02
#       5
#    16  16  16  16  16
#     4  11  25  42  59  84 118 155 197 243 294 352
#     4  10  21  36  57  87 120 156 197 239 289 348
#     4  10  22  39  61  89 118 152 197 243 289 349
#     4  10  20  37  60  86 118 155 193 238 287 342
#     4  11  22  38  61  89 118 151 195 244 294 349
#
# _framework density 19.534188
#
# number of rings (size 3 to 8) (size 9 to 14) (size 15 to 20)
#    0.000    1.600    2.000    2.400    0.000   10.000 
#    0.000    2.000    0.000    0.000    0.000    0.000 
#    0.000    0.000    0.000    0.000    0.000    0.000 
#
# Total GULP energy -496209.712483 kJ/mol
# GULP energy per Si atom -12405.242812 kJ/mol
# Density = 1.948973 g / cm^3
# Si number density = 19.534188 Si / 1000 Ang^3
#
#
#
# Elastic Constant Matrix: (Units=GPa)
#
#
# Indices 1 2 3 4 5 6 
#
# 1 90.2621 44.7859 27.2557 0.0000 0.0000 0.0000
# 2 44.7859 125.0903 7.7243 0.0000 0.0000 0.0000
# 3 27.2557 7.7243 39.2528 0.0000 0.0000 0.0000
# 4 0.0000 0.0000 0.0000 26.1787 0.0000 0.0000
# 5 0.0000 0.0000 0.0000 0.0000 28.7306 0.0000
# 6 0.0000 0.0000 0.0000 0.0000 0.0000 36.1311
#
#
#
# Elastic Compliance Matrix: (Units=1/GPa)
#
#
# Indices 1 2 3 4 5 6 
#
# 1 0.017018 -0.005429 -0.010749 0.000000 0.000000 0.000000
# 2 -0.005429 0.009825 0.001837 0.000000 0.000000 0.000000
# 3 -0.010749 0.001837 0.032578 0.000000 0.000000 0.000000
# 4 0.000000 0.000000 0.000000 0.038199 0.000000 0.000000
# 5 0.000000 0.000000 0.000000 0.000000 0.034806 0.000000
# 6 0.000000 0.000000 0.000000 0.000000 0.000000 0.027677
#
#
# Mechanical properties :
#
#
# Convention : Reuss Voigt Hill
#
# Bulk Modulus (GPa) = 32.53263 46.01524 39.27394
# Shear Modulus (GPa) = 25.12160 29.86402 27.49281
#
# Velocity S-wave (km/s) = 3.59002 3.91424 3.75563
# Velocity P-wave (km/s) = 5.82020 6.63594 6.24141
#
# Compressibility (1/GPa) = 0.03073837
#
# Stress axis : x y z
#
# Youngs Moduli (GPa) = 58.75986 101.78451 30.69566
#
# Poissons Ratio (x) = 0.55262 0.32993
# Poissons Ratio (y) = 0.31903 -0.05638
# Poissons Ratio (z) = 0.63158 -0.18694
#
# Static dielectric constant tensor:
#      x y z
#    x 3.726630 0.000000 0.000000 
#    y 0.000000 3.780570 0.000000 
#    z 0.000000 0.000000 3.529710 
# 
# 
# High freq. dielectric constant tensor:
#      x y z
#    x 1.760530 0.000000 0.000000 
#    y 0.000000 1.777570 0.000000 
#    z 0.000000 0.000000 1.758660 
# 
# From -- ./inp_files/40427.got.cif
#   From: 2010.03.12/outbox.cif.g09.slc.cpg/sg63_21_cif.got.tgz:40427.got - 2010.04.10 19:34:48.
