data_PCOD8259428
_publ_section_title
;
Structure prediction by ZEFSAII (Michael W. Deem and Ramdas Pophale) SiO2 
 PCOD8259428
Probable space group: C M C M
;
_chemical_formula_sum "Si O2"
_cell_formula_units_Z 96
_cell_length_a 8.956441
_cell_length_b 24.705244
_cell_length_c 23.565006
_cell_angle_alpha 90.000000
_cell_angle_beta 90.000000
_cell_angle_gamma 90.000000
_cell_volume 5214.253863
_symmetry_space_group_name_H-M "C M C M"
_symmetry_group_IT_number 63
_symmetry_cell_setting 'orthorhombic'
loop_
_space_group_symop_operation_xyz
x,y,z
-x,-y,1/2+z
x,-y,-z
-x,y,1/2-z
-x,-y,-z
x,y,1/2-z
-x,y,z
x,-y,1/2+z
1/2+x,1/2+y,z
1/2-x,1/2-y,1/2+z
1/2+x,1/2-y,-z
1/2-x,1/2+y,1/2-z
1/2-x,1/2-y,-z
1/2+x,1/2+y,1/2-z
1/2-x,1/2+y,z
1/2+x,1/2-y,1/2+z
loop_
_atom_site_type_symbol
_atom_site_label
_atom_site_fract_x
_atom_site_fract_y
_atom_site_fract_z
Si Si1 0.327512 0.161607 0.933392
Si Si2 0.177280 0.767365 0.250000
Si Si3 0.325119 0.266877 0.862988
Si Si4 0.325271 0.021945 0.060431
Si Si5 0.671854 0.147525 0.062412
Si Si6 0.823369 0.934047 0.130808
Si Si7 0.322822 0.390123 0.250000
O O1 0.500000 0.146435 0.922527
O O2 0.279279 0.216138 0.901858
O O3 0.227210 0.112706 0.911759
O O4 0.296796 0.170195 0.999691
O O5 0.236985 0.735965 0.195539
O O6 0.239731 0.828830 0.250000
O O7 0.000000 0.765998 0.250000
O O8 0.500000 0.268031 0.850512
O O9 0.278232 0.321731 0.894105
O O10 0.500000 0.010375 0.065866
O O11 0.243078 0.991294 0.111567
O O12 0.285942 0.084680 0.065568
O O13 0.266327 0.000000 0.000000
O O14 0.500000 0.157063 0.079420
O O15 0.763807 0.921071 0.194207
O O16 0.000000 0.937521 0.129793
O O17 0.500000 0.387631 0.250000
#
# Coordination Sequence:
#
# PCOD8259428 Si02
#       7
#    16   8  16  16  16  16   8
#     4  10  20  36  57  84 118 153 187 232 291 347
#     4  11  21  39  62  81 112 155 196 232 283 357
#     4  11  23  37  57  88 120 147 192 247 290 336
#     4  10  20  38  60  82 114 153 192 234 283 344
#     4  10  21  38  59  81 115 161 195 228 286 354
#     4  11  21  35  58  87 116 147 192 240 288 339
#     4   9  20  37  56  83 116 149 184 234 289 337
#
# _framework density 18.411071
#
# number of rings (size 3 to 8) (size 9 to 14) (size 15 to 20)
#    0.000    1.667    3.333    1.750    0.000    2.333 
#    0.000    2.500    0.000    4.000    0.000    0.000 
#    0.000    0.000    0.000    0.000    0.000    0.000 
#
# Total GULP energy -595441.859317 kJ/mol
# GULP energy per Si atom -12405.038736 kJ/mol
# Density = 1.836917 g / cm^3
# Si number density = 18.411071 Si / 1000 Ang^3
#
#
#
# Elastic Constant Matrix: (Units=GPa)
#
#
# Indices 1 2 3 4 5 6 
#
# 1 61.0360 41.1644 42.7824 0.0000 0.0000 0.0000
# 2 41.1644 103.1442 59.6057 0.0000 0.0000 0.0000
# 3 42.7824 59.6057 126.7733 0.0000 0.0000 0.0000
# 4 0.0000 0.0000 0.0000 30.8204 0.0000 0.0000
# 5 0.0000 0.0000 0.0000 0.0000 29.8273 0.0000
# 6 0.0000 0.0000 0.0000 0.0000 0.0000 33.6257
#
#
#
# Elastic Compliance Matrix: (Units=1/GPa)
#
#
# Indices 1 2 3 4 5 6 
#
# 1 0.024570 -0.006885 -0.005055 0.000000 0.000000 0.000000
# 2 -0.006885 0.015241 -0.004843 0.000000 0.000000 0.000000
# 3 -0.005055 -0.004843 0.011871 0.000000 0.000000 0.000000
# 4 0.000000 0.000000 0.000000 0.032446 0.000000 0.000000
# 5 0.000000 0.000000 0.000000 0.000000 0.033526 0.000000
# 6 0.000000 0.000000 0.000000 0.000000 0.000000 0.029739
#
#
# Mechanical properties :
#
#
# Convention : Reuss Voigt Hill
#
# Bulk Modulus (GPa) = 55.19376 64.22872 59.71124
# Shear Modulus (GPa) = 26.73833 28.68140 27.70987
#
# Velocity S-wave (km/s) = 3.81504 3.95122 3.88373
# Velocity P-wave (km/s) = 7.03204 7.46846 7.25353
#
# Compressibility (1/GPa) = 0.01811799
#
# Stress axis : x y z
#
# Youngs Moduli (GPa) = 40.69995 65.61073 84.24025
#
# Poissons Ratio (x) = 0.45172 0.42580
# Poissons Ratio (y) = 0.28021 0.40795
# Poissons Ratio (z) = 0.20572 0.31773
#
# Static dielectric constant tensor:
#      x y z
#    x 3.287250 0.000000 0.000000 
#    y 0.000000 3.384660 0.000000 
#    z 0.000000 0.000000 3.514240 
# 
# 
# High freq. dielectric constant tensor:
#      x y z
#    x 1.707530 0.000000 0.000000 
#    y 0.000000 1.713090 0.000000 
#    z 0.000000 0.000000 1.717730 
# 
# From -- ./inp_files/60098.got.cif
#   From: 2010.03.12/outbox.cif.g09.slc.cpg/sg63_31_cif.got.tgz:60098.got - 2010.04.10 19:34:48.
