data_PCOD8259130
_publ_section_title
;
Structure prediction by ZEFSAII (Michael W. Deem and Ramdas Pophale) SiO2 
 PCOD8259130
Probable space group: C M C M
;
_chemical_formula_sum "Si O2"
_cell_formula_units_Z 72
_cell_length_a 29.305897
_cell_length_b 14.360694
_cell_length_c 9.034513
_cell_angle_alpha 90.000000
_cell_angle_beta 90.000000
_cell_angle_gamma 90.000000
_cell_volume 3802.202073
_symmetry_space_group_name_H-M "C M C M"
_symmetry_group_IT_number 63
_symmetry_cell_setting 'orthorhombic'
loop_
_space_group_symop_operation_xyz
x,y,z
-x,-y,1/2+z
x,-y,-z
-x,y,1/2-z
-x,-y,-z
x,y,1/2-z
-x,y,z
x,-y,1/2+z
1/2+x,1/2+y,z
1/2-x,1/2-y,1/2+z
1/2+x,1/2-y,-z
1/2-x,1/2+y,1/2-z
1/2-x,1/2-y,-z
1/2+x,1/2+y,1/2-z
1/2-x,1/2+y,z
1/2+x,1/2-y,1/2+z
loop_
_atom_site_type_symbol
_atom_site_label
_atom_site_fract_x
_atom_site_fract_y
_atom_site_fract_z
Si Si1 0.185494 0.729621 0.922743
Si Si2 0.730788 0.398586 0.074792
Si Si3 0.000000 0.401976 0.426326
Si Si4 0.445948 0.588653 0.082833
Si Si5 0.916130 0.282396 0.424230
O O1 0.189297 0.755230 0.750000
O O2 0.220242 0.647122 0.965505
O O3 0.135567 0.688105 0.963050
O O4 0.193541 0.825567 0.012420
O O5 0.724173 0.410210 0.250000
O O6 0.726454 0.500000 0.000000
O O7 0.000000 0.500000 0.500000
O O8 0.954106 0.352350 0.487704
O O9 0.000000 0.410080 0.250000
O O10 0.429369 0.578936 0.250000
O O11 0.500000 0.594554 0.069917
O O12 0.424855 0.680305 0.007467
O O13 0.425541 0.500000 0.000000
O O14 0.924532 0.275901 0.250000
#
# Coordination Sequence:
#
# PCOD8259130 Si02
#       5
#    16  16   8  16  16
#     4   9  19  35  55  79 104 136 177 218 261 312
#     4  10  20  35  55  78 106 138 172 215 266 317
#     4  10  20  36  55  76 104 140 179 216 255 300
#     4   9  16  28  47  70  95 128 164 200 244 295
#     4   9  17  33  55  75 102 139 175 209 254 308
#
# _framework density 18.936395999999998
#
# number of rings (size 3 to 8) (size 9 to 14) (size 15 to 20)
#    0.000    2.667    1.111    0.667    0.000    2.667 
#    0.000    5.556    0.000    0.000    0.000    0.000 
#    0.000    0.000    0.000    0.000    0.000    0.000 
#
# Total GULP energy -446206.810501 kJ/mol
# GULP energy per Si atom -12394.633625 kJ/mol
# Density = 1.889330 g / cm^3
# Si number density = 18.936396 Si / 1000 Ang^3
#
#
#
# Elastic Constant Matrix: (Units=GPa)
#
#
# Indices 1 2 3 4 5 6 
#
# 1 117.2020 63.8674 29.6386 0.0000 0.0000 0.0000
# 2 63.8674 120.6503 32.0732 0.0000 0.0000 0.0000
# 3 29.6386 32.0732 49.6530 0.0000 0.0000 0.0000
# 4 0.0000 0.0000 0.0000 32.6091 0.0000 0.0000
# 5 0.0000 0.0000 0.0000 0.0000 16.6060 0.0000
# 6 0.0000 0.0000 0.0000 0.0000 0.0000 16.8100
#
#
#
# Elastic Compliance Matrix: (Units=1/GPa)
#
#
# Indices 1 2 3 4 5 6 
#
# 1 0.012579 -0.005630 -0.003872 0.000000 0.000000 0.000000
# 2 -0.005630 0.012526 -0.004731 0.000000 0.000000 0.000000
# 3 -0.003872 -0.004731 0.025507 0.000000 0.000000 0.000000
# 4 0.000000 0.000000 0.000000 0.030666 0.000000 0.000000
# 5 0.000000 0.000000 0.000000 0.000000 0.060219 0.000000
# 6 0.000000 0.000000 0.000000 0.000000 0.000000 0.059488
#
#
# Mechanical properties :
#
#
# Convention : Reuss Voigt Hill
#
# Bulk Modulus (GPa) = 45.15284 59.85151 52.50218
# Shear Modulus (GPa) = 21.11181 24.00008 22.55595
#
# Velocity S-wave (km/s) = 3.34260 3.56393 3.45504
# Velocity P-wave (km/s) = 6.22845 6.97213 6.61076
#
# Compressibility (1/GPa) = 0.02214700
#
# Stress axis : x y z
#
# Youngs Moduli (GPa) = 79.49590 79.83338 39.20471
#
# Poissons Ratio (x) = 0.44942 0.15182
# Poissons Ratio (y) = 0.44752 0.18547
# Poissons Ratio (z) = 0.30784 0.37768
#
# Static dielectric constant tensor:
#      x y z
#    x 3.597780 0.000000 0.000000 
#    y 0.000000 3.538590 0.000000 
#    z 0.000000 0.000000 3.260980 
# 
# 
# High freq. dielectric constant tensor:
#      x y z
#    x 1.738280 0.000000 0.000000 
#    y 0.000000 1.738650 0.000000 
#    z 0.000000 0.000000 1.707180 
# 
# From -- ./inp_files/13882.got.cif
#   From: 2010.03.12/outbox.cif.g09.slc.cpg/sg63_7_cif.got.tgz:13882.got - 2010.04.10 19:34:48.
