data_PCOD8259101
_publ_section_title
;
Structure prediction by ZEFSAII (Michael W. Deem and Ramdas Pophale) SiO2 
 PCOD8259101
Probable space group: C M C M
;
_chemical_formula_sum "Si O2"
_cell_formula_units_Z 96
_cell_length_a 9.175145
_cell_length_b 19.935523
_cell_length_c 28.866024
_cell_angle_alpha 90.000000
_cell_angle_beta 90.000000
_cell_angle_gamma 90.000000
_cell_volume 5279.922385
_symmetry_space_group_name_H-M "C M C M"
_symmetry_group_IT_number 63
_symmetry_cell_setting 'orthorhombic'
loop_
_space_group_symop_operation_xyz
x,y,z
-x,-y,1/2+z
x,-y,-z
-x,y,1/2-z
-x,-y,-z
x,y,1/2-z
-x,y,z
x,-y,1/2+z
1/2+x,1/2+y,z
1/2-x,1/2-y,1/2+z
1/2+x,1/2-y,-z
1/2-x,1/2+y,1/2-z
1/2-x,1/2-y,-z
1/2+x,1/2+y,1/2-z
1/2-x,1/2+y,z
1/2+x,1/2-y,1/2+z
loop_
_atom_site_type_symbol
_atom_site_label
_atom_site_fract_x
_atom_site_fract_y
_atom_site_fract_z
Si Si1 0.172261 0.495963 0.802898
Si Si2 0.829773 0.433542 0.522522
Si Si3 0.673198 0.109795 0.377912
Si Si4 0.170234 0.301344 0.467099
Si Si5 0.332375 0.628896 0.697405
Si Si6 0.329773 0.737883 0.876954
O O1 0.221006 0.480478 0.750000
O O2 0.231356 0.436520 0.835944
O O3 0.238956 0.565969 0.820710
O O4 0.000000 0.502525 0.806652
O O5 0.757679 0.500000 0.500000
O O6 0.761790 0.416450 0.573022
O O7 0.799428 0.374923 0.486369
O O8 0.000000 0.445673 0.530199
O O9 0.500000 0.108051 0.379223
O O10 0.725395 0.186055 0.369366
O O11 0.250000 0.250000 0.500000
O O12 0.237001 0.298005 0.416376
O O13 0.000000 0.284127 0.465898
O O14 0.290464 0.645917 0.750000
O O15 0.500000 0.608018 0.692223
O O16 0.297624 0.696325 0.669369
O O17 0.500000 0.736867 0.890842
#
# Coordination Sequence:
#
# PCOD8259101 Si02
#       6
#    16  16  16  16  16  16
#     4   9  18  32  53  79 103 130 170 219 261 301
#     4   9  18  31  49  74 100 132 171 209 249 299
#     4   9  17  31  50  72 102 134 169 213 255 297
#     4  11  21  35  56  78 105 139 173 211 260 312
#     4   9  19  35  54  76 105 140 172 208 261 319
#     4  10  20  35  54  77 105 137 176 218 258 306
#
# _framework density 18.182085000000001
#
# number of rings (size 3 to 8) (size 9 to 14) (size 15 to 20)
#    0.000    2.500    1.667    0.500    2.333    1.333 
#    0.000    4.167    0.000    2.000    0.000    4.667 
#    0.000    0.000    0.000    0.000    0.000    0.000 
#
# Total GULP energy -595160.251749 kJ/mol
# GULP energy per Si atom -12399.171911 kJ/mol
# Density = 1.814070 g / cm^3
# Si number density = 18.182085 Si / 1000 Ang^3
#
#
#
# Elastic Constant Matrix: (Units=GPa)
#
#
# Indices 1 2 3 4 5 6 
#
# 1 38.2423 40.9821 33.7721 0.0000 0.0000 0.0000
# 2 40.9821 158.1806 91.4103 0.0000 0.0000 0.0000
# 3 33.7721 91.4103 125.3005 0.0000 0.0000 0.0000
# 4 0.0000 0.0000 0.0000 37.0267 0.0000 0.0000
# 5 0.0000 0.0000 0.0000 0.0000 24.5512 0.0000
# 6 0.0000 0.0000 0.0000 0.0000 0.0000 23.9483
#
#
#
# Elastic Compliance Matrix: (Units=1/GPa)
#
#
# Indices 1 2 3 4 5 6 
#
# 1 0.038139 -0.006813 -0.005309 0.000000 0.000000 0.000000
# 2 -0.006813 0.012147 -0.007025 0.000000 0.000000 0.000000
# 3 -0.005309 -0.007025 0.014537 0.000000 0.000000 0.000000
# 4 0.000000 0.000000 0.000000 0.027008 0.000000 0.000000
# 5 0.000000 0.000000 0.000000 0.000000 0.040731 0.000000
# 6 0.000000 0.000000 0.000000 0.000000 0.000000 0.041757
#
#
# Mechanical properties :
#
#
# Convention : Reuss Voigt Hill
#
# Bulk Modulus (GPa) = 37.69648 72.67249 55.18448
# Shear Modulus (GPa) = 22.57797 27.47584 25.02690
#
# Velocity S-wave (km/s) = 3.52770 3.89157 3.71409
# Velocity P-wave (km/s) = 6.11315 7.76199 6.98638
#
# Compressibility (1/GPa) = 0.02652768
#
# Stress axis : x y z
#
# Youngs Moduli (GPa) = 26.22004 82.32660 68.79105
#
# Poissons Ratio (x) = 0.56090 0.36522
# Poissons Ratio (y) = 0.17864 0.48326
# Poissons Ratio (z) = 0.13921 0.57835
#
# Static dielectric constant tensor:
#      x y z
#    x 3.175450 0.000000 0.000000 
#    y 0.000000 3.486790 0.000000 
#    z 0.000000 0.000000 3.750350 
# 
# 
# High freq. dielectric constant tensor:
#      x y z
#    x 1.665780 0.000000 0.000000 
#    y 0.000000 1.714310 0.000000 
#    z 0.000000 0.000000 1.713680 
# 
# From -- ./inp_files/66987.got.cif
#   From: 2010.03.12/outbox.cif.g09.slc.cpg/sg63_34_cif.got.tgz:66987.got - 2010.04.10 19:34:48.
