data_PCOD8259198
_publ_section_title
;
Structure prediction by ZEFSAII (Michael W. Deem and Ramdas Pophale) SiO2 
 PCOD8259198
Probable space group: C M C M
;
_chemical_formula_sum "Si O2"
_cell_formula_units_Z 72
_cell_length_a 15.102691
_cell_length_b 24.508397
_cell_length_c 10.150871
_cell_angle_alpha 90.000000
_cell_angle_beta 90.000000
_cell_angle_gamma 90.000000
_cell_volume 3757.271274
_symmetry_space_group_name_H-M "C M C M"
_symmetry_group_IT_number 63
_symmetry_cell_setting 'orthorhombic'
loop_
_space_group_symop_operation_xyz
x,y,z
-x,-y,1/2+z
x,-y,-z
-x,y,1/2-z
-x,-y,-z
x,y,1/2-z
-x,y,z
x,-y,1/2+z
1/2+x,1/2+y,z
1/2-x,1/2-y,1/2+z
1/2+x,1/2-y,-z
1/2-x,1/2+y,1/2-z
1/2-x,1/2-y,-z
1/2+x,1/2+y,1/2-z
1/2-x,1/2+y,z
1/2+x,1/2-y,1/2+z
loop_
_atom_site_type_symbol
_atom_site_label
_atom_site_fract_x
_atom_site_fract_y
_atom_site_fract_z
Si Si1 0.156993 0.437153 0.496422
Si Si2 0.280033 0.319401 0.750000
Si Si3 0.405478 0.117729 0.750000
Si Si4 0.737916 0.306366 0.250000
Si Si5 0.500000 0.555663 0.910134
Si Si6 0.166694 0.869705 0.016153
Si Si7 0.902033 0.619051 0.250000
O O1 0.177739 0.500000 0.500000
O O2 0.096307 0.421940 0.374389
O O3 0.251268 0.409523 0.480818
O O4 0.104638 0.419648 0.625086
O O5 0.270801 0.255027 0.750000
O O6 0.337127 0.340659 0.626056
O O7 0.177423 0.337668 0.750000
O O8 0.500000 0.148825 0.750000
O O9 0.329165 0.161535 0.750000
O O10 0.678875 0.321341 0.122817
O O11 0.500000 0.542840 0.750000
O O12 0.582980 0.592931 0.949828
O O13 0.500000 0.500000 0.000000
O O14 0.000000 0.647499 0.250000
#
# Coordination Sequence:
#
# PCOD8259198 Si02
#       7
#    16   8   8   8   8  16   8
#     4  10  20  35  56  81 115 157 190 230 298 361
#     4  10  22  40  66  87 121 167 209 260 318 375
#     4  10  21  34  53  81 115 146 191 245 287 356
#     4  10  20  42  64  83 121 165 207 256 316 367
#     4  12  26  44  68  98 136 170 212 276 335 396
#     4  10  22  41  62  91 126 159 211 262 310 386
#     4  10  21  36  53  85 119 144 195 247 283 358
#
# _framework density 19.162844
#
# number of rings (size 3 to 8) (size 9 to 14) (size 15 to 20)
#    0.000    1.778    1.111    2.667    1.556    2.667 
#    8.000    0.000    0.000    0.000    0.000    0.000 
#    0.000    0.000    0.000    0.000    0.000    0.000 
#
# Total GULP energy -446193.895112 kJ/mol
# GULP energy per Si atom -12394.274864 kJ/mol
# Density = 1.911923 g / cm^3
# Si number density = 19.162844 Si / 1000 Ang^3
#
#
#
# Elastic Constant Matrix: (Units=GPa)
#
#
# Indices 1 2 3 4 5 6 
#
# 1 94.5167 21.5968 46.3411 0.0000 0.0000 0.0000
# 2 21.5968 120.1949 61.4269 0.0000 0.0000 0.0000
# 3 46.3411 61.4269 188.7243 0.0000 0.0000 0.0000
# 4 0.0000 0.0000 0.0000 42.8256 0.0000 0.0000
# 5 0.0000 0.0000 0.0000 0.0000 25.6534 0.0000
# 6 0.0000 0.0000 0.0000 0.0000 0.0000 30.3681
#
#
#
# Elastic Compliance Matrix: (Units=1/GPa)
#
#
# Indices 1 2 3 4 5 6 
#
# 1 0.012090 -0.000786 -0.002713 0.000000 0.000000 0.000000
# 2 -0.000786 0.010031 -0.003072 0.000000 0.000000 0.000000
# 3 -0.002713 -0.003072 0.006965 0.000000 0.000000 0.000000
# 4 0.000000 0.000000 0.000000 0.023351 0.000000 0.000000
# 5 0.000000 0.000000 0.000000 0.000000 0.038981 0.000000
# 6 0.000000 0.000000 0.000000 0.000000 0.000000 0.032929
#
#
# Mechanical properties :
#
#
# Convention : Reuss Voigt Hill
#
# Bulk Modulus (GPa) = 62.71889 73.57393 68.14641
# Shear Modulus (GPa) = 35.01334 38.04082 36.52708
#
# Velocity S-wave (km/s) = 4.27915 4.46032 4.37067
# Velocity P-wave (km/s) = 7.56408 8.06246 7.81725
#
# Compressibility (1/GPa) = 0.01594416
#
# Stress axis : x y z
#
# Youngs Moduli (GPa) = 82.71424 99.69112 143.58016
#
# Poissons Ratio (x) = 0.07835 0.38951
# Poissons Ratio (y) = 0.06500 0.44107
# Poissons Ratio (z) = 0.22439 0.30625
#
# Static dielectric constant tensor:
#      x y z
#    x 3.674480 0.000000 0.000000 
#    y 0.000000 3.287000 0.000000 
#    z 0.000000 0.000000 4.170140 
# 
# 
# High freq. dielectric constant tensor:
#      x y z
#    x 1.749390 0.000000 0.000000 
#    y 0.000000 1.736570 0.000000 
#    z 0.000000 0.000000 1.770140 
# 
# From -- ./inp_files/4784.got.cif
#   From: 2010.03.12/outbox.cif.g09.slc.cpg/sg63_3_cif.got.tgz:4784.got - 2010.04.10 19:34:48.
