data_PCOD8259933
_publ_section_title
;
Structure prediction by ZEFSAII (Michael W. Deem and Ramdas Pophale) SiO2 
 PCOD8259933
Probable space group: C M C M
;
_chemical_formula_sum "Si O2"
_cell_formula_units_Z 88
_cell_length_a 20.408946
_cell_length_b 22.457651
_cell_length_c 9.393153
_cell_angle_alpha 90.000000
_cell_angle_beta 90.000000
_cell_angle_gamma 90.000000
_cell_volume 4305.229440
_symmetry_space_group_name_H-M "C M C M"
_symmetry_group_IT_number 63
_symmetry_cell_setting 'orthorhombic'
loop_
_space_group_symop_operation_xyz
x,y,z
-x,-y,1/2+z
x,-y,-z
-x,y,1/2-z
-x,-y,-z
x,y,1/2-z
-x,y,z
x,-y,1/2+z
1/2+x,1/2+y,z
1/2-x,1/2-y,1/2+z
1/2+x,1/2-y,-z
1/2-x,1/2+y,1/2-z
1/2-x,1/2-y,-z
1/2+x,1/2+y,1/2-z
1/2-x,1/2+y,z
1/2+x,1/2-y,1/2+z
loop_
_atom_site_type_symbol
_atom_site_label
_atom_site_fract_x
_atom_site_fract_y
_atom_site_fract_z
Si Si1 0.116641 0.849465 0.911458
Si Si2 0.574678 0.111368 0.089880
Si Si3 0.323179 0.049901 0.907385
Si Si4 0.621608 0.217182 0.587104
Si Si5 0.500000 0.563855 0.079359
Si Si6 0.244053 0.170005 0.593875
O O1 0.133352 0.866466 0.750000
O O2 0.088553 0.782326 0.921713
O O3 0.063872 0.897713 0.969356
O O4 0.184386 0.846709 0.993978
O O5 0.603745 0.115131 0.250000
O O6 0.500000 0.092026 0.094595
O O7 0.610929 0.062120 0.996421
O O8 0.580533 0.176146 0.017385
O O9 0.340386 0.025373 0.750000
O O10 0.281975 0.108643 0.893755
O O11 0.284341 0.000000 0.000000
O O12 0.618579 0.192850 0.750000
O O13 0.699963 0.217805 0.540264
O O14 0.500000 0.554386 0.250000
O O15 0.500000 0.500000 0.000000
O O16 0.217621 0.189489 0.750000
#
# Coordination Sequence:
#
# PCOD8259933 Si02
#       6
#    16  16  16  16   8  16
#     4  10  21  37  60  85 110 147 190 231 284 342
#     4  10  21  35  52  79 114 149 186 229 275 328
#     4  10  21  37  56  79 108 146 191 234 279 330
#     4   9  19  35  57  85 115 147 184 229 283 345
#     4  10  24  44  60  82 114 150 199 246 285 342
#     4   9  19  35  55  85 117 143 180 230 286 344
#
# _framework density 20.440256999999999
#
# number of rings (size 3 to 8) (size 9 to 14) (size 15 to 20)
#    0.000    2.364    0.000    2.727    1.273    7.636 
#    0.000    3.636    0.000    0.000    0.000    0.000 
#    0.000    0.000    0.000    0.000    0.000    0.000 
#
# Total GULP energy -545180.267728 kJ/mol
# GULP energy per Si atom -12390.460630 kJ/mol
# Density = 2.039373 g / cm^3
# Si number density = 20.440257 Si / 1000 Ang^3
#
#
#
# Elastic Constant Matrix: (Units=GPa)
#
#
# Indices 1 2 3 4 5 6 
#
# 1 78.6722 22.6463 32.4693 0.0000 0.0000 0.0000
# 2 22.6463 79.6731 19.9439 0.0000 0.0000 0.0000
# 3 32.4693 19.9439 102.8416 0.0000 0.0000 0.0000
# 4 0.0000 0.0000 0.0000 32.4887 0.0000 0.0000
# 5 0.0000 0.0000 0.0000 0.0000 87.6958 0.0000
# 6 0.0000 0.0000 0.0000 0.0000 0.0000 -4.0318
#
#
#
# Elastic Compliance Matrix: (Units=1/GPa)
#
#
# Indices 1 2 3 4 5 6 
#
# 1 0.015410 -0.003324 -0.004221 0.000000 0.000000 0.000000
# 2 -0.003324 0.013908 -0.001648 0.000000 0.000000 0.000000
# 3 -0.004221 -0.001648 0.011376 0.000000 0.000000 0.000000
# 4 0.000000 0.000000 0.000000 0.030780 0.000000 0.000000
# 5 0.000000 0.000000 0.000000 0.000000 0.011403 0.000000
# 6 0.000000 0.000000 0.000000 0.000000 0.000000 -0.248027
#
#
# Mechanical properties :
#
#
# Convention : Reuss Voigt Hill
#
# Bulk Modulus (GPa) = 44.82348 45.70066 45.26207
# Shear Modulus (GPa) = -35.88618 35.63903 -0.12358
#
# Velocity S-wave (km/s) = -4.19461 4.18014 -0.24615
# Velocity P-wave (km/s) = 1.21779 6.76053 4.70222
#
# Compressibility (1/GPa) = 0.02230973
#
# Stress axis : x y z
#
# Youngs Moduli (GPa) = 64.89474 71.89861 87.90580
#
# Poissons Ratio (x) = 0.23896 0.37102
# Poissons Ratio (y) = 0.21568 0.14486
# Poissons Ratio (z) = 0.27390 0.11849
#
# Static dielectric constant tensor:
#      x y z
#    x 3.505250 0.000000 0.000000 
#    y 0.000000 3.884570 0.000000 
#    z 0.000000 0.000000 4.085070 
# 
# 
# High freq. dielectric constant tensor:
#      x y z
#    x 1.779250 0.000000 0.000000 
#    y 0.000000 1.806140 0.000000 
#    z 0.000000 0.000000 1.803730 
# 
# From -- ./inp_files/8245.got.cif
#   From: 2010.03.12/outbox.cif.g09.slc.cpg/sg63_5_cif.got.tgz:8245.got - 2010.04.10 19:34:48.
