data_PCOD8259493
_publ_section_title
;
Structure prediction by ZEFSAII (Michael W. Deem and Ramdas Pophale) SiO2 
 PCOD8259493
Probable space group: C M C M
;
_chemical_formula_sum "Si O2"
_cell_formula_units_Z 96
_cell_length_a 12.312990
_cell_length_b 20.807028
_cell_length_c 20.226526
_cell_angle_alpha 90.000000
_cell_angle_beta 90.000000
_cell_angle_gamma 90.000000
_cell_volume 5181.969774
_symmetry_space_group_name_H-M "C M C M"
_symmetry_group_IT_number 63
_symmetry_cell_setting 'orthorhombic'
loop_
_space_group_symop_operation_xyz
x,y,z
-x,-y,1/2+z
x,-y,-z
-x,y,1/2-z
-x,-y,-z
x,y,1/2-z
-x,y,z
x,-y,1/2+z
1/2+x,1/2+y,z
1/2-x,1/2-y,1/2+z
1/2+x,1/2-y,-z
1/2-x,1/2+y,1/2-z
1/2-x,1/2-y,-z
1/2+x,1/2+y,1/2-z
1/2-x,1/2+y,z
1/2+x,1/2-y,1/2+z
loop_
_atom_site_type_symbol
_atom_site_label
_atom_site_fract_x
_atom_site_fract_y
_atom_site_fract_z
Si Si1 0.000000 0.610849 0.959208
Si Si2 0.377485 0.625687 0.614375
Si Si3 0.872991 0.331168 0.750000
Si Si4 0.621418 0.513729 0.427304
Si Si5 0.000000 0.475173 0.908710
Si Si6 0.701097 0.101461 0.377367
Si Si7 0.124468 0.820035 0.250000
Si Si8 0.214246 0.676922 0.990175
O O1 0.102676 0.659291 0.951314
O O2 0.000000 0.553316 0.905107
O O3 0.000000 0.563894 0.022613
O O4 0.500000 0.653400 0.606689
O O5 0.378948 0.549068 0.618072
O O6 0.322662 0.652011 0.682299
O O7 0.312635 0.644711 0.548832
O O8 0.806154 0.356195 0.812271
O O9 0.862932 0.255426 0.750000
O O10 0.000000 0.352170 0.750000
O O11 0.675351 0.500000 0.500000
O O12 0.500000 0.540077 0.439668
O O13 0.683633 0.567015 0.385277
O O14 0.891266 0.452922 0.871756
O O15 0.689401 0.149636 0.437947
O O16 0.000000 0.842833 0.250000
O O17 0.250000 0.750000 0.000000
#
# Coordination Sequence:
#
# PCOD8259493 Si02
#       8
#     8  16   8  16   8  16   8  16
#     4   9  20  34  50  82 114 147 188 244 303 343
#     4  10  20  36  60  87 114 153 195 243 295 343
#     4  11  22  39  55  85 121 152 191 246 305 355
#     4  10  20  36  58  87 122 152 192 241 295 353
#     4   9  18  33  58  80 110 145 191 245 305 354
#     4  11  21  36  59  86 115 154 194 247 305 350
#     4   9  20  37  60  82 116 155 195 243 292 352
#     4  11  22  34  55  84 116 156 201 247 289 353
#
# _framework density 18.525773999999998
#
# number of rings (size 3 to 8) (size 9 to 14) (size 15 to 20)
#    0.000    1.833    2.500    2.000    3.500    0.667 
#    0.000    1.250    0.000    0.500    2.167    0.000 
#    0.000    0.000    0.000    0.000    0.000    0.000 
#
# Total GULP energy -594818.573513 kJ/mol
# GULP energy per Si atom -12392.053615 kJ/mol
# Density = 1.848361 g / cm^3
# Si number density = 18.525774 Si / 1000 Ang^3
#
#
#
# Elastic Constant Matrix: (Units=GPa)
#
#
# Indices 1 2 3 4 5 6 
#
# 1 86.1345 43.3402 28.3642 0.0000 0.0000 0.0000
# 2 43.3402 106.3345 27.6428 0.0000 0.0000 0.0000
# 3 28.3642 27.6428 107.3414 0.0000 0.0000 0.0000
# 4 0.0000 0.0000 0.0000 33.2956 0.0000 0.0000
# 5 0.0000 0.0000 0.0000 0.0000 16.2560 0.0000
# 6 0.0000 0.0000 0.0000 0.0000 0.0000 31.6261
#
#
#
# Elastic Compliance Matrix: (Units=1/GPa)
#
#
# Indices 1 2 3 4 5 6 
#
# 1 0.015255 -0.005541 -0.002604 0.000000 0.000000 0.000000
# 2 -0.005541 0.012091 -0.001650 0.000000 0.000000 0.000000
# 3 -0.002604 -0.001650 0.010429 0.000000 0.000000 0.000000
# 4 0.000000 0.000000 0.000000 0.030034 0.000000 0.000000
# 5 0.000000 0.000000 0.000000 0.000000 0.061516 0.000000
# 6 0.000000 0.000000 0.000000 0.000000 0.000000 0.031619
#
#
# Mechanical properties :
#
#
# Convention : Reuss Voigt Hill
#
# Bulk Modulus (GPa) = 54.98626 55.38940 55.18783
# Shear Modulus (GPa) = 26.79578 29.59976 28.19777
#
# Velocity S-wave (km/s) = 3.80729 4.00154 3.90562
# Velocity P-wave (km/s) = 7.00519 7.16332 7.08470
#
# Compressibility (1/GPa) = 0.01818636
#
# Stress axis : x y z
#
# Youngs Moduli (GPa) = 65.55106 82.70288 95.88597
#
# Poissons Ratio (x) = 0.45824 0.24971
# Poissons Ratio (y) = 0.36321 0.15818
# Poissons Ratio (z) = 0.17071 0.13644
#
# Static dielectric constant tensor:
#      x y z
#    x 3.484480 0.000000 0.000000 
#    y 0.000000 3.428870 0.000000 
#    z 0.000000 0.000000 3.068210 
# 
# 
# High freq. dielectric constant tensor:
#      x y z
#    x 1.709820 0.000000 0.000000 
#    y 0.000000 1.719910 0.000000 
#    z 0.000000 0.000000 1.700840 
# 
# From -- ./inp_files/52955.got.cif
#   From: 2010.03.12/outbox.cif.g09.slc.cpg/sg63_27_cif.got.tgz:52955.got - 2010.04.10 19:34:48.
