data_PCOD8259597
_publ_section_title
;
Structure prediction by ZEFSAII (Michael W. Deem and Ramdas Pophale) SiO2 
 PCOD8259597
Probable space group: C M C M
;
_chemical_formula_sum "Si O2"
_cell_formula_units_Z 96
_cell_length_a 23.297012
_cell_length_b 25.352832
_cell_length_c 8.889419
_cell_angle_alpha 90.000000
_cell_angle_beta 90.000000
_cell_angle_gamma 90.000000
_cell_volume 5250.492942
_symmetry_space_group_name_H-M "C M C M"
_symmetry_group_IT_number 63
_symmetry_cell_setting 'orthorhombic'
loop_
_space_group_symop_operation_xyz
x,y,z
-x,-y,1/2+z
x,-y,-z
-x,y,1/2-z
-x,-y,-z
x,y,1/2-z
-x,y,z
x,-y,1/2+z
1/2+x,1/2+y,z
1/2-x,1/2-y,1/2+z
1/2+x,1/2-y,-z
1/2-x,1/2+y,1/2-z
1/2-x,1/2-y,-z
1/2+x,1/2+y,1/2-z
1/2-x,1/2+y,z
1/2+x,1/2-y,1/2+z
loop_
_atom_site_type_symbol
_atom_site_label
_atom_site_fract_x
_atom_site_fract_y
_atom_site_fract_z
Si Si1 0.694117 0.945651 0.426268
Si Si2 0.616337 0.848459 0.428663
Si Si3 0.810718 0.250309 0.076657
Si Si4 0.500000 0.301019 0.428553
Si Si5 0.111860 0.848715 0.574284
Si Si6 0.674866 0.444735 0.428233
Si Si7 0.500000 0.820466 0.571896
O O1 0.689700 0.953557 0.250000
O O2 0.652694 0.899067 0.481671
O O3 0.759357 0.931443 0.472701
O O4 0.673421 0.000000 0.500000
O O5 0.607724 0.846803 0.250000
O O6 0.649194 0.796584 0.489015
O O7 0.554893 0.850927 0.507467
O O8 0.800193 0.262148 0.250000
O O9 0.839464 0.194455 0.046286
O O10 0.750000 0.250000 0.000000
O O11 0.500000 0.304807 0.250000
O O12 0.554635 0.330516 0.493308
O O13 0.500000 0.240287 0.483145
O O14 0.099586 0.857209 0.750000
O O15 0.132746 0.902285 0.499571
O O16 0.656608 0.500000 0.500000
O O17 0.666326 0.446478 0.250000
O O18 0.500000 0.824322 0.750000
#
# Coordination Sequence:
#
# PCOD8259597 Si02
#       7
#    16  16  16   8  16  16   8
#     4   9  19  35  58  84 113 149 188 230 281 335
#     4  10  20  37  57  79 110 150 188 227 280 337
#     4  10  21  34  53  81 113 145 182 228 280 337
#     4  11  23  39  58  81 112 151 191 233 285 336
#     4  11  22  37  58  84 113 149 191 232 280 337
#     4  10  20  37  60  86 118 151 188 232 280 336
#     4  11  23  37  56  83 110 145 190 237 282 330
#
# _framework density 18.283996999999999
#
# number of rings (size 3 to 8) (size 9 to 14) (size 15 to 20)
#    0.000    1.833    1.667    2.500    0.000    5.333 
#    0.000    0.833    0.000    0.000    0.000    0.000 
#    0.000    0.000    0.000    0.000    0.000    0.000 
#
# Total GULP energy -595394.372040 kJ/mol
# GULP energy per Si atom -12404.049417 kJ/mol
# Density = 1.824238 g / cm^3
# Si number density = 18.283997 Si / 1000 Ang^3
#
#
#
# Elastic Constant Matrix: (Units=GPa)
#
#
# Indices 1 2 3 4 5 6 
#
# 1 89.7257 24.2683 47.6175 0.0000 0.0000 0.0000
# 2 24.2683 93.8045 47.9616 0.0000 0.0000 0.0000
# 3 47.6175 47.9616 67.1997 0.0000 0.0000 0.0000
# 4 0.0000 0.0000 0.0000 31.8861 0.0000 0.0000
# 5 0.0000 0.0000 0.0000 0.0000 35.4579 0.0000
# 6 0.0000 0.0000 0.0000 0.0000 0.0000 50.7318
#
#
#
# Elastic Compliance Matrix: (Units=1/GPa)
#
#
# Indices 1 2 3 4 5 6 
#
# 1 0.018383 0.002998 -0.015166 0.000000 0.000000 0.000000
# 2 0.002998 0.017275 -0.014454 0.000000 0.000000 0.000000
# 3 -0.015166 -0.014454 0.035944 0.000000 0.000000 0.000000
# 4 0.000000 0.000000 0.000000 0.031362 0.000000 0.000000
# 5 0.000000 0.000000 0.000000 0.000000 0.028202 0.000000
# 6 0.000000 0.000000 0.000000 0.000000 0.000000 0.019711
#
#
# Mechanical properties :
#
#
# Convention : Reuss Voigt Hill
#
# Bulk Modulus (GPa) = 54.47188 54.49164 54.48176
# Shear Modulus (GPa) = 23.78239 32.34066 28.06152
#
# Velocity S-wave (km/s) = 3.61046 4.21027 3.92185
# Velocity P-wave (km/s) = 6.87295 7.31456 7.09719
#
# Compressibility (1/GPa) = 0.01835810
#
# Stress axis : x y z
#
# Youngs Moduli (GPa) = 54.39916 57.88696 27.82132
#
# Poissons Ratio (x) = -0.17357 0.42193
# Poissons Ratio (y) = -0.16311 0.40213
# Poissons Ratio (z) = 0.82501 0.83671
#
# Static dielectric constant tensor:
#      x y z
#    x 3.345830 0.000000 0.000000 
#    y 0.000000 3.640550 0.000000 
#    z 0.000000 0.000000 3.361980 
# 
# 
# High freq. dielectric constant tensor:
#      x y z
#    x 1.711090 0.000000 0.000000 
#    y 0.000000 1.713300 0.000000 
#    z 0.000000 0.000000 1.711340 
# 
# From -- ./inp_files/10527.got.cif
#   From: 2010.03.12/outbox.cif.g09.slc.cpg/sg63_6_cif.got.tgz:10527.got - 2010.04.10 19:34:48.
