data_PCOD8259163
_publ_section_title
;
Structure prediction by ZEFSAII (Michael W. Deem and Ramdas Pophale) SiO2 
 PCOD8259163
Probable space group: C M C M
;
_chemical_formula_sum "Si O2"
_cell_formula_units_Z 96
_cell_length_a 8.925934
_cell_length_b 29.828675
_cell_length_c 19.223665
_cell_angle_alpha 90.000000
_cell_angle_beta 90.000000
_cell_angle_gamma 90.000000
_cell_volume 5118.277437
_symmetry_space_group_name_H-M "C M C M"
_symmetry_group_IT_number 63
_symmetry_cell_setting 'orthorhombic'
loop_
_space_group_symop_operation_xyz
x,y,z
-x,-y,1/2+z
x,-y,-z
-x,y,1/2-z
-x,-y,-z
x,y,1/2-z
-x,y,z
x,-y,1/2+z
1/2+x,1/2+y,z
1/2-x,1/2-y,1/2+z
1/2+x,1/2-y,-z
1/2-x,1/2+y,1/2-z
1/2-x,1/2-y,-z
1/2+x,1/2+y,1/2-z
1/2-x,1/2+y,z
1/2+x,1/2-y,1/2+z
loop_
_atom_site_type_symbol
_atom_site_label
_atom_site_fract_x
_atom_site_fract_y
_atom_site_fract_z
Si Si1 0.322758 0.270584 0.068110
Si Si2 0.171387 0.930845 0.169366
Si Si3 0.677587 0.194593 0.172447
Si Si4 0.174971 0.033994 0.171790
Si Si5 0.676980 0.889964 0.912836
Si Si6 0.324034 0.134958 0.933148
O O1 0.500000 0.271382 0.057727
O O2 0.274766 0.239759 0.133063
O O3 0.263216 0.319760 0.084376
O O4 0.250000 0.250000 0.000000
O O5 0.195931 0.919301 0.250000
O O6 0.284744 0.901334 0.124887
O O7 0.000000 0.920595 0.147971
O O8 0.210458 0.982481 0.154688
O O9 0.746254 0.195765 0.250000
O O10 0.500000 0.190848 0.175491
O O11 0.742477 0.151384 0.132020
O O12 0.230440 0.045573 0.250000
O O13 0.260129 0.063522 0.115483
O O14 0.000000 0.043561 0.165815
O O15 0.500000 0.891733 0.907340
O O16 0.728726 0.883668 0.992206
O O17 0.500000 0.145082 0.932743
#
# Coordination Sequence:
#
# PCOD8259163 Si02
#       6
#    16  16  16  16  16  16
#     4  11  21  37  59  82 112 151 191 232 282 337
#     4   9  20  40  61  81 110 150 192 232 281 340
#     4   9  18  34  56  81 109 144 186 228 271 329
#     4   9  19  36  57  82 113 147 187 235 282 333
#     4  10  20  35  55  81 114 149 186 228 276 338
#     4  11  23  38  57  85 115 146 190 236 282 337
#
# _framework density 18.756311
#
# number of rings (size 3 to 8) (size 9 to 14) (size 15 to 20)
#    0.000    2.167    1.667    2.500    0.000    4.667 
#    0.000    6.667    0.000    2.500    0.000    0.000 
#    0.000    0.000    0.000    0.000    0.000    0.000 
#
# Total GULP energy -595304.951101 kJ/mol
# GULP energy per Si atom -12402.186481 kJ/mol
# Density = 1.871362 g / cm^3
# Si number density = 18.756311 Si / 1000 Ang^3
#
#
#
# Elastic Constant Matrix: (Units=GPa)
#
#
# Indices 1 2 3 4 5 6 
#
# 1 47.5401 37.5246 36.3670 0.0000 0.0000 0.0000
# 2 37.5246 122.4458 73.3492 0.0000 0.0000 0.0000
# 3 36.3670 73.3492 129.2208 0.0000 0.0000 0.0000
# 4 0.0000 0.0000 0.0000 39.3711 0.0000 0.0000
# 5 0.0000 0.0000 0.0000 0.0000 30.0437 0.0000
# 6 0.0000 0.0000 0.0000 0.0000 0.0000 33.8404
#
#
#
# Elastic Compliance Matrix: (Units=1/GPa)
#
#
# Indices 1 2 3 4 5 6 
#
# 1 0.029605 -0.006185 -0.004821 0.000000 0.000000 0.000000
# 2 -0.006185 0.013667 -0.006017 0.000000 0.000000 0.000000
# 3 -0.004821 -0.006017 0.012511 0.000000 0.000000 0.000000
# 4 0.000000 0.000000 0.000000 0.025399 0.000000 0.000000
# 5 0.000000 0.000000 0.000000 0.000000 0.033285 0.000000
# 6 0.000000 0.000000 0.000000 0.000000 0.000000 0.029550
#
#
# Mechanical properties :
#
#
# Convention : Reuss Voigt Hill
#
# Bulk Modulus (GPa) = 46.00526 65.96538 55.98532
# Shear Modulus (GPa) = 26.98215 30.78210 28.88212
#
# Velocity S-wave (km/s) = 3.79696 4.05552 3.92836
# Velocity P-wave (km/s) = 6.61843 7.56146 7.10561
#
# Compressibility (1/GPa) = 0.02173664
#
# Stress axis : x y z
#
# Youngs Moduli (GPa) = 33.77859 73.17129 79.93002
#
# Poissons Ratio (x) = 0.45253 0.38536
# Poissons Ratio (y) = 0.20890 0.48094
# Poissons Ratio (z) = 0.16285 0.44027
#
# Static dielectric constant tensor:
#      x y z
#    x 3.289380 0.000000 0.000000 
#    y 0.000000 3.615230 0.000000 
#    z 0.000000 0.000000 3.629140 
# 
# 
# High freq. dielectric constant tensor:
#      x y z
#    x 1.710240 0.000000 0.000000 
#    y 0.000000 1.738400 0.000000 
#    z 0.000000 0.000000 1.735260 
# 
# From -- ./inp_files/51253.got.cif
#   From: 2010.03.12/outbox.cif.g09.slc.cpg/sg63_26_cif.got.tgz:51253.got - 2010.04.10 19:34:48.
