data_PCOD8259995
_publ_section_title
;
Structure prediction by ZEFSAII (Michael W. Deem and Ramdas Pophale) SiO2 
 PCOD8259995
Probable space group: C M C M
;
_chemical_formula_sum "Si O2"
_cell_formula_units_Z 72
_cell_length_a 16.495080
_cell_length_b 24.747988
_cell_length_c 8.923120
_cell_angle_alpha 90.000000
_cell_angle_beta 90.000000
_cell_angle_gamma 90.000000
_cell_volume 3642.596420
_symmetry_space_group_name_H-M "C M C M"
_symmetry_group_IT_number 63
_symmetry_cell_setting 'orthorhombic'
loop_
_space_group_symop_operation_xyz
x,y,z
-x,-y,1/2+z
x,-y,-z
-x,y,1/2-z
-x,-y,-z
x,y,1/2-z
-x,y,z
x,-y,1/2+z
1/2+x,1/2+y,z
1/2-x,1/2-y,1/2+z
1/2+x,1/2-y,-z
1/2-x,1/2+y,1/2-z
1/2-x,1/2-y,-z
1/2+x,1/2+y,1/2-z
1/2-x,1/2+y,z
1/2+x,1/2-y,1/2+z
loop_
_atom_site_type_symbol
_atom_site_label
_atom_site_fract_x
_atom_site_fract_y
_atom_site_fract_z
Si Si1 0.500000 0.939068 0.431452
Si Si2 0.090190 0.948246 0.422949
Si Si3 0.874411 0.642010 0.075580
Si Si4 0.164908 0.256731 0.080137
Si Si5 0.682763 0.362012 0.584569
O O1 0.500000 0.942473 0.250000
O O2 0.579203 0.906171 0.488784
O O3 0.500000 0.000000 0.500000
O O4 0.087289 0.959743 0.250000
O O5 0.144321 0.896774 0.454379
O O6 0.000000 0.939035 0.488773
O O7 0.131254 0.000000 0.500000
O O8 0.899524 0.640198 0.250000
O O9 0.778457 0.638423 0.050686
O O10 0.895556 0.701439 0.005849
O O11 0.176413 0.277888 0.250000
O O12 0.134208 0.194965 0.079856
O O13 0.250000 0.250000 0.000000
O O14 0.669971 0.387383 0.750000
#
# Coordination Sequence:
#
# PCOD8259995 Si02
#       5
#     8  16  16  16  16
#     4  12  26  44  64  86 116 156 201 248 301 354
#     4  10  21  36  54  77 108 146 186 230 281 333
#     4  10  21  39  61  86 116 151 192 240 293 346
#     4   9  17  32  55  84 115 148 185 230 286 342
#     4   9  19  35  58  86 115 149 189 233 284 343
#
# _framework density 19.766120999999998
#
# number of rings (size 3 to 8) (size 9 to 14) (size 15 to 20)
#    0.000    2.222    0.000    4.333    0.000    7.556 
#    2.000    0.000    0.000    0.000    0.000    0.000 
#    0.000    0.000    0.000    0.000    0.000    0.000 
#
# Total GULP energy -446012.843044 kJ/mol
# GULP energy per Si atom -12389.245640 kJ/mol
# Density = 1.972113 g / cm^3
# Si number density = 19.766121 Si / 1000 Ang^3
#
#
#
# Elastic Constant Matrix: (Units=GPa)
#
#
# Indices 1 2 3 4 5 6 
#
# 1 53.3454 51.3005 34.3155 0.0000 0.0000 0.0000
# 2 51.3005 146.0137 69.3725 0.0000 0.0000 0.0000
# 3 34.3155 69.3725 133.8631 0.0000 0.0000 0.0000
# 4 0.0000 0.0000 0.0000 43.1709 0.0000 0.0000
# 5 0.0000 0.0000 0.0000 0.0000 28.4501 0.0000
# 6 0.0000 0.0000 0.0000 0.0000 0.0000 30.7063
#
#
#
# Elastic Compliance Matrix: (Units=1/GPa)
#
#
# Indices 1 2 3 4 5 6 
#
# 1 0.029119 -0.008868 -0.002869 0.000000 0.000000 0.000000
# 2 -0.008868 0.011786 -0.003835 0.000000 0.000000 0.000000
# 3 -0.002869 -0.003835 0.010193 0.000000 0.000000 0.000000
# 4 0.000000 0.000000 0.000000 0.023164 0.000000 0.000000
# 5 0.000000 0.000000 0.000000 0.000000 0.035149 0.000000
# 6 0.000000 0.000000 0.000000 0.000000 0.000000 0.032567
#
#
# Mechanical properties :
#
#
# Convention : Reuss Voigt Hill
#
# Bulk Modulus (GPa) = 50.11191 71.46658 60.78924
# Shear Modulus (GPa) = 27.81290 32.34769 30.08030
#
# Velocity S-wave (km/s) = 3.75520 4.04978 3.90527
# Velocity P-wave (km/s) = 6.64902 7.62248 7.15233
#
# Compressibility (1/GPa) = 0.01995534
#
# Stress axis : x y z
#
# Youngs Moduli (GPa) = 34.34186 84.84538 98.10511
#
# Poissons Ratio (x) = 0.75237 0.28148
# Poissons Ratio (y) = 0.30453 0.37622
# Poissons Ratio (z) = 0.09853 0.32537
#
# Static dielectric constant tensor:
#      x y z
#    x 3.328220 0.000000 0.000000 
#    y 0.000000 4.042800 0.000000 
#    z 0.000000 0.000000 3.798730 
# 
# 
# High freq. dielectric constant tensor:
#      x y z
#    x 1.741590 0.000000 0.000000 
#    y 0.000000 1.778600 0.000000 
#    z 0.000000 0.000000 1.786330 
# 
# From -- ./inp_files/4602.got.cif
#   From: 2010.03.12/outbox.cif.g09.slc.cpg/sg63_3_cif.got.tgz:4602.got - 2010.04.10 19:34:48.
