data_PCOD8259740
_publ_section_title
;
Structure prediction by ZEFSAII (Michael W. Deem and Ramdas Pophale) SiO2 
 PCOD8259740
Probable space group: C M C M
;
_chemical_formula_sum "Si O2"
_cell_formula_units_Z 96
_cell_length_a 8.802272
_cell_length_b 19.635305
_cell_length_c 28.020419
_cell_angle_alpha 90.000000
_cell_angle_beta 90.000000
_cell_angle_gamma 90.000000
_cell_volume 4842.917395
_symmetry_space_group_name_H-M "C M C M"
_symmetry_group_IT_number 63
_symmetry_cell_setting 'orthorhombic'
loop_
_space_group_symop_operation_xyz
x,y,z
-x,-y,1/2+z
x,-y,-z
-x,y,1/2-z
-x,-y,-z
x,y,1/2-z
-x,y,z
x,-y,1/2+z
1/2+x,1/2+y,z
1/2-x,1/2-y,1/2+z
1/2+x,1/2-y,-z
1/2-x,1/2+y,1/2-z
1/2-x,1/2-y,-z
1/2+x,1/2+y,1/2-z
1/2-x,1/2+y,z
1/2+x,1/2-y,1/2+z
loop_
_atom_site_type_symbol
_atom_site_label
_atom_site_fract_x
_atom_site_fract_y
_atom_site_fract_z
Si Si1 0.678487 0.016818 0.637262
Si Si2 0.676692 0.267086 0.639852
Si Si3 0.178536 0.639087 0.698297
Si Si4 0.177622 0.385225 0.803911
Si Si5 0.821849 0.051725 0.541858
Si Si6 0.318754 0.202031 0.540403
O O1 0.500000 0.019278 0.625111
O O2 0.742745 0.086183 0.660193
O O3 0.770577 0.009766 0.588470
O O4 0.717077 0.959349 0.675889
O O5 0.500000 0.283058 0.635503
O O6 0.715189 0.214811 0.681841
O O7 0.758690 0.335476 0.655647
O O8 0.736036 0.235965 0.590073
O O9 0.254858 0.628305 0.750000
O O10 0.000000 0.626266 0.702003
O O11 0.247218 0.377217 0.750000
O O12 0.000000 0.373279 0.800521
O O13 0.738367 0.124372 0.536099
O O14 0.000000 0.066733 0.542852
O O15 0.776787 0.000000 0.500000
O O16 0.500000 0.200622 0.536788
O O17 0.250000 0.250000 0.500000
#
# Coordination Sequence:
#
# PCOD8259740 Si02
#       6
#    16  16  16  16  16  16
#     4  10  20  38  61  87 118 157 202 248 297 357
#     4  10  21  38  60  86 119 157 199 244 295 359
#     4   9  16  31  58  86 111 146 193 242 291 348
#     4  10  22  38  58  89 126 162 202 249 300 355
#     4  11  25  43  63  90 123 159 200 252 308 364
#     4  11  24  43  66  93 123 158 203 253 307 369
#
# _framework density 19.822761
#
# number of rings (size 3 to 8) (size 9 to 14) (size 15 to 20)
#    0.000    1.833    1.667    2.000    2.333    6.333 
#    0.000    0.000    0.000    1.500    0.000    0.000 
#    0.000    0.000    0.000    0.000    0.000    0.000 
#
# Total GULP energy -595058.704824 kJ/mol
# GULP energy per Si atom -12397.056351 kJ/mol
# Density = 1.977764 g / cm^3
# Si number density = 19.822761 Si / 1000 Ang^3
#
#
#
# Elastic Constant Matrix: (Units=GPa)
#
#
# Indices 1 2 3 4 5 6 
#
# 1 45.4774 35.3144 37.9972 0.0000 0.0000 0.0000
# 2 35.3144 80.6773 31.6859 0.0000 0.0000 0.0000
# 3 37.9972 31.6859 141.9623 0.0000 0.0000 0.0000
# 4 0.0000 0.0000 0.0000 36.1622 0.0000 0.0000
# 5 0.0000 0.0000 0.0000 0.0000 26.5263 0.0000
# 6 0.0000 0.0000 0.0000 0.0000 0.0000 31.7756
#
#
#
# Elastic Compliance Matrix: (Units=1/GPa)
#
#
# Indices 1 2 3 4 5 6 
#
# 1 0.039178 -0.014283 -0.007298 0.000000 0.000000 0.000000
# 2 -0.014283 0.018793 -0.000372 0.000000 0.000000 0.000000
# 3 -0.007298 -0.000372 0.009081 0.000000 0.000000 0.000000
# 4 0.000000 0.000000 0.000000 0.027653 0.000000 0.000000
# 5 0.000000 0.000000 0.000000 0.000000 0.037698 0.000000
# 6 0.000000 0.000000 0.000000 0.000000 0.000000 0.031471
#
#
# Mechanical properties :
#
#
# Convention : Reuss Voigt Hill
#
# Bulk Modulus (GPa) = 43.20435 53.12356 48.16396
# Shear Modulus (GPa) = 23.20248 29.76744 26.48496
#
# Velocity S-wave (km/s) = 3.42496 3.87936 3.65922
# Velocity P-wave (km/s) = 6.12235 6.85006 6.49640
#
# Compressibility (1/GPa) = 0.02314582
#
# Stress axis : x y z
#
# Youngs Moduli (GPa) = 25.52470 53.21155 110.12557
#
# Poissons Ratio (x) = 0.76000 0.80373
# Poissons Ratio (y) = 0.36456 0.04094
# Poissons Ratio (z) = 0.18629 0.01978
#
# Static dielectric constant tensor:
#      x y z
#    x 3.373370 0.000000 0.000000 
#    y 0.000000 3.728650 0.000000 
#    z 0.000000 0.000000 3.872330 
# 
# 
# High freq. dielectric constant tensor:
#      x y z
#    x 1.746160 0.000000 0.000000 
#    y 0.000000 1.784780 0.000000 
#    z 0.000000 0.000000 1.792790 
# 
# From -- ./inp_files/66882.got.cif
#   From: 2010.03.12/outbox.cif.g09.slc.cpg/sg63_34_cif.got.tgz:66882.got - 2010.04.10 19:34:48.
