data_PCOD8259873
_publ_section_title
;
Structure prediction by ZEFSAII (Michael W. Deem and Ramdas Pophale) SiO2 
 PCOD8259873
Probable space group: C M C M
;
_chemical_formula_sum "Si O2"
_cell_formula_units_Z 88
_cell_length_a 21.411612
_cell_length_b 15.344360
_cell_length_c 13.785004
_cell_angle_alpha 90.000000
_cell_angle_beta 90.000000
_cell_angle_gamma 90.000000
_cell_volume 4529.028363
_symmetry_space_group_name_H-M "C M C M"
_symmetry_group_IT_number 63
_symmetry_cell_setting 'orthorhombic'
loop_
_space_group_symop_operation_xyz
x,y,z
-x,-y,1/2+z
x,-y,-z
-x,y,1/2-z
-x,-y,-z
x,y,1/2-z
-x,y,z
x,-y,1/2+z
1/2+x,1/2+y,z
1/2-x,1/2-y,1/2+z
1/2+x,1/2-y,-z
1/2-x,1/2+y,1/2-z
1/2-x,1/2-y,-z
1/2+x,1/2+y,1/2-z
1/2-x,1/2+y,z
1/2+x,1/2-y,1/2+z
loop_
_atom_site_type_symbol
_atom_site_label
_atom_site_fract_x
_atom_site_fract_y
_atom_site_fract_z
Si Si1 0.929884 0.209602 0.549379
Si Si2 0.607371 0.627581 0.142145
Si Si3 0.847295 0.940809 0.362356
Si Si4 0.781463 0.249224 0.357961
Si Si5 0.672659 0.164388 0.462817
Si Si6 0.759527 0.500000 0.500000
O O1 0.933424 0.178529 0.437082
O O2 0.888917 0.141904 0.610276
O O3 0.898983 0.306756 0.558449
O O4 0.000000 0.215362 0.590866
O O5 0.578935 0.643721 0.250000
O O6 0.609839 0.525375 0.117060
O O7 0.679236 0.659532 0.138601
O O8 0.827739 0.935791 0.250000
O O9 0.783925 0.944648 0.426137
O O10 0.775971 0.287292 0.250000
O O11 0.712813 0.231030 0.398209
O O12 0.815741 0.321176 0.422726
O O13 0.693252 0.065052 0.441597
#
# Coordination Sequence:
#
# PCOD8259873 Si02
#       6
#    16  16  16  16  16   8
#     4  11  23  39  53  75 113 153 187 220 257 316
#     4   9  17  32  56  85 111 140 176 221 276 324
#     4  11  21  35  57  86 114 142 176 222 280 334
#     4   9  16  32  55  80 110 136 173 225 278 327
#     4  10  21  33  53  80 104 143 181 222 274 320
#     4  12  20  38  58  84 114 134 176 238 286 322
#
# _framework density 19.430216999999999
#
# number of rings (size 3 to 8) (size 9 to 14) (size 15 to 20)
#    0.000    1.818    3.636    2.182    0.000    5.091 
#    0.000    2.273    0.000    0.000    0.000    0.000 
#    0.000    7.273    0.000    0.000    0.000    0.000 
#
# Total GULP energy -545338.412971 kJ/mol
# GULP energy per Si atom -12394.054840 kJ/mol
# Density = 1.938599 g / cm^3
# Si number density = 19.430217 Si / 1000 Ang^3
#
#
#
# Elastic Constant Matrix: (Units=GPa)
#
#
# Indices 1 2 3 4 5 6 
#
# 1 112.5795 60.9270 16.7179 0.0000 0.0000 0.0000
# 2 60.9270 60.0880 0.5051 0.0000 0.0000 0.0000
# 3 16.7179 0.5051 79.3999 0.0000 0.0000 0.0000
# 4 0.0000 0.0000 0.0000 17.2775 0.0000 0.0000
# 5 0.0000 0.0000 0.0000 0.0000 10.7666 0.0000
# 6 0.0000 0.0000 0.0000 0.0000 0.0000 23.0240
#
#
#
# Elastic Compliance Matrix: (Units=1/GPa)
#
#
# Indices 1 2 3 4 5 6 
#
# 1 0.021055 -0.021313 -0.004298 0.000000 0.000000 0.000000
# 2 -0.021313 0.038217 0.004244 0.000000 0.000000 0.000000
# 3 -0.004298 0.004244 0.013472 0.000000 0.000000 0.000000
# 4 0.000000 0.000000 0.000000 0.057879 0.000000 0.000000
# 5 0.000000 0.000000 0.000000 0.000000 0.092880 0.000000
# 6 0.000000 0.000000 0.000000 0.000000 0.000000 0.043433
#
#
# Mechanical properties :
#
#
# Convention : Reuss Voigt Hill
#
# Bulk Modulus (GPa) = 33.31977 45.37417 39.34697
# Shear Modulus (GPa) = 15.64094 21.80809 18.72452
#
# Velocity S-wave (km/s) = 2.84030 3.35383 3.10769
# Velocity P-wave (km/s) = 5.28602 6.19682 5.75946
#
# Compressibility (1/GPa) = 0.03001221
#
# Stress axis : x y z
#
# Youngs Moduli (GPa) = 47.49387 26.16607 74.22596
#
# Poissons Ratio (x) = 0.55768 0.31900
# Poissons Ratio (y) = 1.01225 -0.31505
# Poissons Ratio (z) = 0.20411 -0.11106
#
# Static dielectric constant tensor:
#      x y z
#    x 3.252700 0.000000 0.000000 
#    y 0.000000 3.445670 0.000000 
#    z 0.000000 0.000000 3.692470 
# 
# 
# High freq. dielectric constant tensor:
#      x y z
#    x 1.722400 0.000000 0.000000 
#    y 0.000000 1.738540 0.000000 
#    z 0.000000 0.000000 1.760600 
# 
# From -- ./inp_files/35225.got.cif
#   From: 2010.03.12/outbox.cif.g09.slc.cpg/sg63_18_cif.got.tgz:35225.got - 2010.04.10 19:34:48.
