data_PCOD8259978
_publ_section_title
;
Structure prediction by ZEFSAII (Michael W. Deem and Ramdas Pophale) SiO2 
 PCOD8259978
Probable space group: C M C M
;
_chemical_formula_sum "Si O2"
_cell_formula_units_Z 64
_cell_length_a 9.430457
_cell_length_b 41.105807
_cell_length_c 9.184817
_cell_angle_alpha 90.000000
_cell_angle_beta 90.000000
_cell_angle_gamma 90.000000
_cell_volume 3560.462580
_symmetry_space_group_name_H-M "C M C M"
_symmetry_group_IT_number 63
_symmetry_cell_setting 'orthorhombic'
loop_
_space_group_symop_operation_xyz
x,y,z
-x,-y,1/2+z
x,-y,-z
-x,y,1/2-z
-x,-y,-z
x,y,1/2-z
-x,y,z
x,-y,1/2+z
1/2+x,1/2+y,z
1/2-x,1/2-y,1/2+z
1/2+x,1/2-y,-z
1/2-x,1/2+y,1/2-z
1/2-x,1/2-y,-z
1/2+x,1/2+y,1/2-z
1/2-x,1/2+y,z
1/2+x,1/2-y,1/2+z
loop_
_atom_site_type_symbol
_atom_site_label
_atom_site_fract_x
_atom_site_fract_y
_atom_site_fract_z
Si Si1 0.334562 0.602072 0.919333
Si Si2 0.165364 0.343366 0.581818
Si Si3 0.332027 0.529740 0.910001
Si Si4 0.833930 0.721966 0.580708
O O1 0.292822 0.606622 0.750000
O O2 0.500000 0.609265 0.940731
O O3 0.296339 0.565478 0.973338
O O4 0.247621 0.625766 0.021697
O O5 0.204931 0.337519 0.750000
O O6 0.212853 0.311983 0.490426
O O7 0.000000 0.350264 0.561463
O O8 0.265965 0.526992 0.750000
O O9 0.500000 0.525769 0.902127
O O10 0.263697 0.500000 0.000000
O O11 0.792088 0.721320 0.750000
O O12 0.750000 0.750000 0.500000
O O13 0.000000 0.728304 0.558190
#
# Coordination Sequence:
#
# PCOD8259978 Si02
#       4
#    16  16  16  16
#     4   9  18  32  50  74 102 131 166 207 249 295
#     4  10  21  36  53  74 101 133 168 205 246 293
#     4   8  14  25  42  66  96 127 159 198 245 294
#     4  10  21  37  57  79 102 131 166 202 244 294
#
# _framework density 17.975192
#
# number of rings (size 3 to 8) (size 9 to 14) (size 15 to 20)
#    0.000    2.750    0.000    3.000    0.000    5.500 
#    0.000    2.500    0.000    0.750    0.000    0.000 
#    0.000    0.000    0.000    0.000    0.000    0.000 
#
# Total GULP energy -396714.364990 kJ/mol
# GULP energy per Si atom -12397.323906 kJ/mol
# Density = 1.793428 g / cm^3
# Si number density = 17.975192 Si / 1000 Ang^3
#
#
#
# Elastic Constant Matrix: (Units=GPa)
#
#
# Indices 1 2 3 4 5 6 
#
# 1 35.0772 51.6221 42.7350 0.0000 0.0000 0.0000
# 2 51.6221 168.6272 92.7831 0.0000 0.0000 0.0000
# 3 42.7350 92.7831 128.2715 0.0000 0.0000 0.0000
# 4 0.0000 0.0000 0.0000 42.4177 0.0000 0.0000
# 5 0.0000 0.0000 0.0000 0.0000 27.2234 0.0000
# 6 0.0000 0.0000 0.0000 0.0000 0.0000 25.4365
#
#
#
# Elastic Compliance Matrix: (Units=1/GPa)
#
#
# Indices 1 2 3 4 5 6 
#
# 1 0.060189 -0.012280 -0.011170 0.000000 0.000000 0.000000
# 2 -0.012280 0.012356 -0.004847 0.000000 0.000000 0.000000
# 3 -0.011170 -0.004847 0.015023 0.000000 0.000000 0.000000
# 4 0.000000 0.000000 0.000000 0.023575 0.000000 0.000000
# 5 0.000000 0.000000 0.000000 0.000000 0.036733 0.000000
# 6 0.000000 0.000000 0.000000 0.000000 0.000000 0.039314
#
#
# Mechanical properties :
#
#
# Convention : Reuss Voigt Hill
#
# Bulk Modulus (GPa) = 32.28370 78.47293 55.37831
# Shear Modulus (GPa) = 19.67665 28.67121 24.17393
#
# Velocity S-wave (km/s) = 3.31215 3.99813 3.67120
# Velocity P-wave (km/s) = 5.71194 8.06625 6.98894
#
# Compressibility (1/GPa) = 0.03097539
#
# Stress axis : x y z
#
# Youngs Moduli (GPa) = 16.61430 80.93191 66.56389
#
# Poissons Ratio (x) = 0.99380 0.74355
# Poissons Ratio (y) = 0.20402 0.32260
# Poissons Ratio (z) = 0.18559 0.39224
#
# Static dielectric constant tensor:
#      x y z
#    x 2.984790 0.000000 0.000000 
#    y 0.000000 3.524180 0.000000 
#    z 0.000000 0.000000 4.211040 
# 
# 
# High freq. dielectric constant tensor:
#      x y z
#    x 1.659890 0.000000 0.000000 
#    y 0.000000 1.711990 0.000000 
#    z 0.000000 0.000000 1.701860 
# 
# From -- ./inp_files/3113.got.cif
#   From: 2010.03.12/outbox.cif.g09.slc.cpg/sg63_2_cif.got.tgz:3113.got - 2010.04.10 19:34:48.
