data_PCOD8259715
_publ_section_title
;
Structure prediction by ZEFSAII (Michael W. Deem and Ramdas Pophale) SiO2 
 PCOD8259715
Probable space group: C M C M
;
_chemical_formula_sum "Si O2"
_cell_formula_units_Z 96
_cell_length_a 22.578735
_cell_length_b 12.659490
_cell_length_c 16.247807
_cell_angle_alpha 90.000000
_cell_angle_beta 90.000000
_cell_angle_gamma 90.000000
_cell_volume 4644.196300
_symmetry_space_group_name_H-M "C M C M"
_symmetry_group_IT_number 63
_symmetry_cell_setting 'orthorhombic'
loop_
_space_group_symop_operation_xyz
x,y,z
-x,-y,1/2+z
x,-y,-z
-x,y,1/2-z
-x,-y,-z
x,y,1/2-z
-x,y,z
x,-y,1/2+z
1/2+x,1/2+y,z
1/2-x,1/2-y,1/2+z
1/2+x,1/2-y,-z
1/2-x,1/2+y,1/2-z
1/2-x,1/2-y,-z
1/2+x,1/2+y,1/2-z
1/2-x,1/2+y,z
1/2+x,1/2-y,1/2+z
loop_
_atom_site_type_symbol
_atom_site_label
_atom_site_fract_x
_atom_site_fract_y
_atom_site_fract_z
Si Si1 0.869725 0.466717 0.658422
Si Si2 0.067534 0.264814 0.599972
Si Si3 0.267533 0.091917 0.443865
Si Si4 0.156106 0.850308 0.846333
Si Si5 0.932764 0.963122 0.347127
Si Si6 0.124946 0.661797 0.554714
O O1 0.876173 0.512899 0.750000
O O2 0.900118 0.352446 0.655027
O O3 0.800662 0.455831 0.635953
O O4 0.895476 0.547765 0.589913
O O5 0.092735 0.146846 0.616160
O O6 0.073776 0.293506 0.504026
O O7 0.000000 0.265602 0.627792
O O8 0.213359 0.155407 0.405381
O O9 0.314417 0.158419 0.499547
O O10 0.240137 0.000000 0.500000
O O11 0.172186 0.858989 0.750000
O O12 0.127711 0.736874 0.865473
O O13 0.111309 0.943093 0.874226
O O14 0.933309 0.952619 0.250000
O O15 0.000000 0.986643 0.379027
#
# Coordination Sequence:
#
# PCOD8259715 Si02
#       6
#    16  16  16  16  16  16
#     4  10  20  38  59  84 117 151 191 241 294 343
#     4  10  21  38  61  85 112 152 200 244 284 337
#     4   9  20  37  59  82 113 151 193 241 278 335
#     4  11  22  37  59  86 116 154 193 234 291 353
#     4   9  20  38  58  84 116 149 193 245 289 337
#     4  10  22  37  57  84 120 152 186 239 294 345
#
# _framework density 20.670960000000001
#
# number of rings (size 3 to 8) (size 9 to 14) (size 15 to 20)
#    0.000    2.167    0.000    3.500    2.333    3.000 
#    3.000    1.667    0.000    3.000    0.000    0.000 
#    0.000    0.000    0.000    0.000    0.000    0.000 
#
# Total GULP energy -594843.305821 kJ/mol
# GULP energy per Si atom -12392.568871 kJ/mol
# Density = 2.062391 g / cm^3
# Si number density = 20.670960 Si / 1000 Ang^3
#
#
#
# Elastic Constant Matrix: (Units=GPa)
#
#
# Indices 1 2 3 4 5 6 
#
# 1 51.0356 23.0737 21.7895 0.0000 0.0000 0.0000
# 2 23.0737 100.0106 33.8287 0.0000 0.0000 0.0000
# 3 21.7895 33.8287 97.7836 0.0000 0.0000 0.0000
# 4 0.0000 0.0000 0.0000 36.6746 0.0000 0.0000
# 5 0.0000 0.0000 0.0000 0.0000 17.2642 0.0000
# 6 0.0000 0.0000 0.0000 0.0000 0.0000 23.3130
#
#
#
# Elastic Compliance Matrix: (Units=1/GPa)
#
#
# Indices 1 2 3 4 5 6 
#
# 1 0.023017 -0.004049 -0.003728 0.000000 0.000000 0.000000
# 2 -0.004049 0.012036 -0.003262 0.000000 0.000000 0.000000
# 3 -0.003728 -0.003262 0.012186 0.000000 0.000000 0.000000
# 4 0.000000 0.000000 0.000000 0.027267 0.000000 0.000000
# 5 0.000000 0.000000 0.000000 0.000000 0.057923 0.000000
# 6 0.000000 0.000000 0.000000 0.000000 0.000000 0.042894
#
#
# Mechanical properties :
#
#
# Convention : Reuss Voigt Hill
#
# Bulk Modulus (GPa) = 39.74434 45.13484 42.43959
# Shear Modulus (GPa) = 24.29683 26.79290 25.54486
#
# Velocity S-wave (km/s) = 3.43214 3.60413 3.51919
# Velocity P-wave (km/s) = 5.91397 6.26115 6.09003
#
# Compressibility (1/GPa) = 0.02516082
#
# Stress axis : x y z
#
# Youngs Moduli (GPa) = 43.44702 83.08112 82.06263
#
# Poissons Ratio (x) = 0.33641 0.30593
# Poissons Ratio (y) = 0.17593 0.26767
# Poissons Ratio (z) = 0.16197 0.27099
#
# Static dielectric constant tensor:
#      x y z
#    x 3.544100 0.000000 0.000000 
#    y 0.000000 3.796470 0.000000 
#    z 0.000000 0.000000 3.687630 
# 
# 
# High freq. dielectric constant tensor:
#      x y z
#    x 1.785250 0.000000 0.000000 
#    y 0.000000 1.814720 0.000000 
#    z 0.000000 0.000000 1.812520 
# 
# From -- ./inp_files/48052.got.cif
#   From: 2010.03.12/outbox.cif.g09.slc.cpg/sg63_25_cif.got.tgz:48052.got - 2010.04.10 19:34:48.
