data_PCOD8259971
_publ_section_title
;
Structure prediction by ZEFSAII (Michael W. Deem and Ramdas Pophale) SiO2 
 PCOD8259971
Probable space group: C M C M
;
_chemical_formula_sum "Si O2"
_cell_formula_units_Z 96
_cell_length_a 14.773469
_cell_length_b 16.782241
_cell_length_c 20.839550
_cell_angle_alpha 90.000000
_cell_angle_beta 90.000000
_cell_angle_gamma 90.000000
_cell_volume 5166.789584
_symmetry_space_group_name_H-M "C M C M"
_symmetry_group_IT_number 63
_symmetry_cell_setting 'orthorhombic'
loop_
_space_group_symop_operation_xyz
x,y,z
-x,-y,1/2+z
x,-y,-z
-x,y,1/2-z
-x,-y,-z
x,y,1/2-z
-x,y,z
x,-y,1/2+z
1/2+x,1/2+y,z
1/2-x,1/2-y,1/2+z
1/2+x,1/2-y,-z
1/2-x,1/2+y,1/2-z
1/2-x,1/2-y,-z
1/2+x,1/2+y,1/2-z
1/2-x,1/2+y,z
1/2+x,1/2-y,1/2+z
loop_
_atom_site_type_symbol
_atom_site_label
_atom_site_fract_x
_atom_site_fract_y
_atom_site_fract_z
Si Si1 0.200594 0.007421 0.178315
Si Si2 0.105172 0.711756 0.566011
Si Si3 0.104493 0.828111 0.677002
Si Si4 0.770852 0.559543 0.553994
Si Si5 0.604482 0.652985 0.682772
Si Si6 0.606004 0.664383 0.544608
O O1 0.245261 0.009635 0.250000
O O2 0.159476 0.092667 0.160757
O O3 0.272556 0.984689 0.123174
O O4 0.121659 0.941511 0.176657
O O5 0.136982 0.757739 0.630129
O O6 0.160973 0.632138 0.559527
O O7 0.126831 0.765633 0.504376
O O8 0.000000 0.689439 0.569499
O O9 0.120223 0.799814 0.750000
O O10 0.000000 0.847853 0.663519
O O11 0.807991 0.500000 0.500000
O O12 0.670655 0.588642 0.531170
O O13 0.650879 0.685080 0.750000
O O14 0.500000 0.667568 0.690708
O O15 0.635069 0.695745 0.616575
O O16 0.500000 0.638105 0.541914
#
# Coordination Sequence:
#
# PCOD8259971 Si02
#       6
#    16  16  16  16  16  16
#     4   9  17  29  47  74 104 129 156 196 250 308
#     4  10  21  36  52  71  99 136 177 215 247 288
#     4   9  17  31  53  79 104 130 161 203 257 309
#     4  11  22  34  52  75 101 135 171 209 253 300
#     4   8  13  23  42  70 102 131 156 187 237 303
#     4   9  18  32  51  75 102 131 163 206 259 309
#
# _framework density 18.580203000000001
#
# number of rings (size 3 to 8) (size 9 to 14) (size 15 to 20)
#    0.000    2.667    0.000    2.000    0.000    4.000 
#    0.000    0.000    0.000    1.000    0.000    0.000 
#    0.000    1.333    0.000    0.000    0.000    0.000 
#
# Total GULP energy -594669.693367 kJ/mol
# GULP energy per Si atom -12388.951945 kJ/mol
# Density = 1.853791 g / cm^3
# Si number density = 18.580203 Si / 1000 Ang^3
#
#
#
# Elastic Constant Matrix: (Units=GPa)
#
#
# Indices 1 2 3 4 5 6 
#
# 1 46.1967 41.4625 39.3180 0.0000 0.0000 0.0000
# 2 41.4625 104.6298 87.0564 0.0000 0.0000 0.0000
# 3 39.3180 87.0564 175.0838 0.0000 0.0000 0.0000
# 4 0.0000 0.0000 0.0000 16.9056 0.0000 0.0000
# 5 0.0000 0.0000 0.0000 0.0000 16.2931 0.0000
# 6 0.0000 0.0000 0.0000 0.0000 0.0000 22.2136
#
#
#
# Elastic Compliance Matrix: (Units=1/GPa)
#
#
# Indices 1 2 3 4 5 6 
#
# 1 0.033853 -0.012093 -0.001589 0.000000 0.000000 0.000000
# 2 -0.012093 0.020621 -0.007538 0.000000 0.000000 0.000000
# 3 -0.001589 -0.007538 0.009817 0.000000 0.000000 0.000000
# 4 0.000000 0.000000 0.000000 0.059152 0.000000 0.000000
# 5 0.000000 0.000000 0.000000 0.000000 0.061376 0.000000
# 6 0.000000 0.000000 0.000000 0.000000 0.000000 0.045017
#
#
# Mechanical properties :
#
#
# Convention : Reuss Voigt Hill
#
# Bulk Modulus (GPa) = 45.76506 73.50934 59.63720
# Shear Modulus (GPa) = 17.88529 21.62069 19.75299
#
# Velocity S-wave (km/s) = 3.10594 3.41492 3.26409
# Velocity P-wave (km/s) = 6.12757 7.42954 6.80974
#
# Compressibility (1/GPa) = 0.02185073
#
# Stress axis : x y z
#
# Youngs Moduli (GPa) = 29.53975 48.49327 101.86893
#
# Poissons Ratio (x) = 0.58641 0.16191
# Poissons Ratio (y) = 0.35721 0.76788
# Poissons Ratio (z) = 0.04695 0.36554
#
# Static dielectric constant tensor:
#      x y z
#    x 3.094730 0.000000 0.000000 
#    y 0.000000 3.078820 0.000000 
#    z 0.000000 0.000000 4.660360 
# 
# 
# High freq. dielectric constant tensor:
#      x y z
#    x 1.685530 0.000000 0.000000 
#    y 0.000000 1.690620 0.000000 
#    z 0.000000 0.000000 1.753950 
# 
# From -- ./inp_files/54149.got.cif
#   From: 2010.03.12/outbox.cif.g09.slc.cpg/sg63_28_cif.got.tgz:54149.got - 2010.04.10 19:34:48.
