data_PCOD8259157
_publ_section_title
;
Structure prediction by ZEFSAII (Michael W. Deem and Ramdas Pophale) SiO2 
 PCOD8259157
Probable space group: C M C M
;
_chemical_formula_sum "Si O2"
_cell_formula_units_Z 96
_cell_length_a 19.054382
_cell_length_b 12.879524
_cell_length_c 20.458886
_cell_angle_alpha 90.000000
_cell_angle_beta 90.000000
_cell_angle_gamma 90.000000
_cell_volume 5020.843248
_symmetry_space_group_name_H-M "C M C M"
_symmetry_group_IT_number 63
_symmetry_cell_setting 'orthorhombic'
loop_
_space_group_symop_operation_xyz
x,y,z
-x,-y,1/2+z
x,-y,-z
-x,y,1/2-z
-x,-y,-z
x,y,1/2-z
-x,y,z
x,-y,1/2+z
1/2+x,1/2+y,z
1/2-x,1/2-y,1/2+z
1/2+x,1/2-y,-z
1/2-x,1/2+y,1/2-z
1/2-x,1/2-y,-z
1/2+x,1/2+y,1/2-z
1/2-x,1/2+y,z
1/2+x,1/2-y,1/2+z
loop_
_atom_site_type_symbol
_atom_site_label
_atom_site_fract_x
_atom_site_fract_y
_atom_site_fract_z
Si Si1 0.186577 0.570013 0.560352
Si Si2 0.296092 0.928608 0.821954
Si Si3 0.688966 0.717166 0.609821
Si Si4 0.419934 0.213387 0.498277
Si Si5 0.854472 0.021633 0.820349
Si Si6 0.922201 0.933500 0.942410
O O1 0.215385 0.500000 0.500000
O O2 0.165764 0.498058 0.622546
O O3 0.246150 0.657555 0.574649
O O4 0.112352 0.620437 0.540849
O O5 0.334521 0.928423 0.750000
O O6 0.282542 0.811093 0.845982
O O7 0.223483 0.984316 0.810765
O O8 0.632487 0.766223 0.561086
O O9 0.644597 0.639639 0.654854
O O10 0.500000 0.186487 0.475539
O O11 0.421534 0.312855 0.544159
O O12 0.893706 0.016412 0.750000
O O13 0.888437 0.945467 0.872199
O O14 0.000000 0.980499 0.937298
O O15 0.883046 0.000000 0.000000
#
# Coordination Sequence:
#
# PCOD8259157 Si02
#       6
#    16  16  16  16  16  16
#     4  11  23  37  62  93 117 155 198 247 293 350
#     4  10  22  39  57  85 119 152 193 243 301 350
#     4  11  21  36  62  86 120 152 200 240 297 351
#     4  11  23  38  59  89 119 153 199 249 294 342
#     4  10  21  34  56  85 116 151 188 243 296 350
#     4  10  20  35  55  80 114 155 192 236 291 349
#
# _framework density 19.120294000000001
#
# number of rings (size 3 to 8) (size 9 to 14) (size 15 to 20)
#    0.000    1.500    3.333    2.000    4.667    1.333 
#    0.000    0.833    0.000    4.000    0.000    0.000 
#    0.000    0.000    0.000    0.000    0.000    0.000 
#
# Total GULP energy -594837.034243 kJ/mol
# GULP energy per Si atom -12392.438213 kJ/mol
# Density = 1.907678 g / cm^3
# Si number density = 19.120294 Si / 1000 Ang^3
#
#
#
# Elastic Constant Matrix: (Units=GPa)
#
#
# Indices 1 2 3 4 5 6 
#
# 1 54.6328 18.0522 23.0353 0.0000 0.0000 0.0000
# 2 18.0522 90.3467 41.8501 0.0000 0.0000 0.0000
# 3 23.0353 41.8501 144.1660 0.0000 0.0000 0.0000
# 4 0.0000 0.0000 0.0000 22.0009 0.0000 0.0000
# 5 0.0000 0.0000 0.0000 0.0000 10.8127 0.0000
# 6 0.0000 0.0000 0.0000 0.0000 0.0000 24.5558
#
#
#
# Elastic Compliance Matrix: (Units=1/GPa)
#
#
# Indices 1 2 3 4 5 6 
#
# 1 0.020284 -0.002948 -0.002385 0.000000 0.000000 0.000000
# 2 -0.002948 0.013217 -0.003366 0.000000 0.000000 0.000000
# 3 -0.002385 -0.003366 0.008295 0.000000 0.000000 0.000000
# 4 0.000000 0.000000 0.000000 0.045453 0.000000 0.000000
# 5 0.000000 0.000000 0.000000 0.000000 0.092484 0.000000
# 6 0.000000 0.000000 0.000000 0.000000 0.000000 0.040724
#
#
# Mechanical properties :
#
#
# Convention : Reuss Voigt Hill
#
# Bulk Modulus (GPa) = 40.98829 50.55784 45.77307
# Shear Modulus (GPa) = 20.32642 25.22107 22.77375
#
# Velocity S-wave (km/s) = 3.26403 3.63584 3.45494
# Velocity P-wave (km/s) = 5.97401 6.64268 6.31720
#
# Compressibility (1/GPa) = 0.02439721
#
# Stress axis : x y z
#
# Youngs Moduli (GPa) = 49.30035 75.66290 120.56086
#
# Poissons Ratio (x) = 0.22306 0.28756
# Poissons Ratio (y) = 0.14534 0.40576
# Poissons Ratio (z) = 0.11759 0.25465
#
# Static dielectric constant tensor:
#      x y z
#    x 3.379210 0.000000 0.000000 
#    y 0.000000 3.678670 0.000000 
#    z 0.000000 0.000000 4.608700 
# 
# 
# High freq. dielectric constant tensor:
#      x y z
#    x 1.712400 0.000000 0.000000 
#    y 0.000000 1.756520 0.000000 
#    z 0.000000 0.000000 1.752570 
# 
# From -- ./inp_files/56572.got.cif
#   From: 2010.03.12/outbox.cif.g09.slc.cpg/sg63_29_cif.got.tgz:56572.got - 2010.04.10 19:34:48.
