data_PCOD8259242
_publ_section_title
;
Structure prediction by ZEFSAII (Michael W. Deem and Ramdas Pophale) SiO2 
 PCOD8259242
Probable space group: C M C M
;
_chemical_formula_sum "Si O2"
_cell_formula_units_Z 80
_cell_length_a 11.729976
_cell_length_b 20.067696
_cell_length_c 17.630091
_cell_angle_alpha 90.000000
_cell_angle_beta 90.000000
_cell_angle_gamma 90.000000
_cell_volume 4150.010456
_symmetry_space_group_name_H-M "C M C M"
_symmetry_group_IT_number 63
_symmetry_cell_setting 'orthorhombic'
loop_
_space_group_symop_operation_xyz
x,y,z
-x,-y,1/2+z
x,-y,-z
-x,y,1/2-z
-x,-y,-z
x,y,1/2-z
-x,y,z
x,-y,1/2+z
1/2+x,1/2+y,z
1/2-x,1/2-y,1/2+z
1/2+x,1/2-y,-z
1/2-x,1/2+y,1/2-z
1/2-x,1/2-y,-z
1/2+x,1/2+y,1/2-z
1/2-x,1/2+y,z
1/2+x,1/2-y,1/2+z
loop_
_atom_site_type_symbol
_atom_site_label
_atom_site_fract_x
_atom_site_fract_y
_atom_site_fract_z
Si Si1 0.632869 0.394746 0.161986
Si Si2 0.747250 0.760943 0.159338
Si Si3 0.368728 0.127879 0.339702
Si Si4 0.000000 0.724271 0.834094
Si Si5 0.714643 0.002413 0.589517
Si Si6 0.000000 0.567147 0.665174
O O1 0.662869 0.405671 0.250000
O O2 0.500000 0.383361 0.149111
O O3 0.697019 0.329410 0.129437
O O4 0.670656 0.460768 0.116778
O O5 0.742618 0.764106 0.250000
O O6 0.823851 0.699351 0.131458
O O7 0.618069 0.752652 0.125583
O O8 0.356578 0.121985 0.250000
O O9 0.500000 0.119015 0.365242
O O10 0.289999 0.072285 0.378239
O O11 0.000000 0.755410 0.750000
O O12 0.000000 0.645382 0.828663
O O13 0.609986 0.044741 0.620230
O O14 0.711007 0.000000 0.500000
O O15 0.000000 0.535240 0.750000
#
# Coordination Sequence:
#
# PCOD8259242 Si02
#       6
#    16  16  16   8  16   8
#     4  10  20  37  62  85 108 146 197 242 281 335
#     4   9  17  32  56  87 112 139 186 241 288 331
#     4  10  20  35  57  83 114 149 188 235 283 332
#     4   9  16  29  57  87 112 137 177 241 291 326
#     4  12  24  37  56  84 120 154 191 233 289 345
#     4  11  19  35  63  87 109 141 193 247 283 328
#
# _framework density 19.277059000000001
#
# number of rings (size 3 to 8) (size 9 to 14) (size 15 to 20)
#    0.000    1.800    3.000    2.700    0.000    2.800 
#    1.800    1.000    0.000    0.000    0.000    0.000 
#    0.000    0.000    0.000    0.000    0.000    0.000 
#
# Total GULP energy -495959.289028 kJ/mol
# GULP energy per Si atom -12398.982226 kJ/mol
# Density = 1.923318 g / cm^3
# Si number density = 19.277059 Si / 1000 Ang^3
#
#
#
# Elastic Constant Matrix: (Units=GPa)
#
#
# Indices 1 2 3 4 5 6 
#
# 1 105.9793 54.4261 32.4425 0.0000 0.0000 0.0000
# 2 54.4261 128.9211 36.8556 0.0000 0.0000 0.0000
# 3 32.4425 36.8556 57.2760 0.0000 0.0000 0.0000
# 4 0.0000 0.0000 0.0000 207.0406 0.0000 0.0000
# 5 0.0000 0.0000 0.0000 0.0000 31.2007 0.0000
# 6 0.0000 0.0000 0.0000 0.0000 0.0000 123.9734
#
#
#
# Elastic Compliance Matrix: (Units=1/GPa)
#
#
# Indices 1 2 3 4 5 6 
#
# 1 0.013003 -0.004147 -0.004697 0.000000 0.000000 0.000000
# 2 -0.004147 0.010828 -0.004618 0.000000 0.000000 0.000000
# 3 -0.004697 -0.004618 0.023092 0.000000 0.000000 0.000000
# 4 0.000000 0.000000 0.000000 0.004830 0.000000 0.000000
# 5 0.000000 0.000000 0.000000 0.000000 0.032051 0.000000
# 6 0.000000 0.000000 0.000000 0.000000 0.000000 0.008066
#
#
# Mechanical properties :
#
#
# Convention : Reuss Voigt Hill
#
# Bulk Modulus (GPa) = 50.00482 59.95831 54.98156
# Shear Modulus (GPa) = 39.85337 83.67307 61.76322
#
# Velocity S-wave (km/s) = 4.55180 6.59543 5.66651
# Velocity P-wave (km/s) = 7.32267 9.44302 8.44962
#
# Compressibility (1/GPa) = 0.01999807
#
# Stress axis : x y z
#
# Youngs Moduli (GPa) = 76.90388 92.35641 43.30559
#
# Poissons Ratio (x) = 0.38298 0.20341
# Poissons Ratio (y) = 0.31890 0.20001
# Poissons Ratio (z) = 0.36122 0.42655
#
# Static dielectric constant tensor:
#      x y z
#    x 3.754580 0.000000 0.000000 
#    y 0.000000 3.637170 0.000000 
#    z 0.000000 0.000000 3.120540 
# 
# 
# High freq. dielectric constant tensor:
#      x y z
#    x 1.759130 0.000000 0.000000 
#    y 0.000000 1.756750 0.000000 
#    z 0.000000 0.000000 1.703730 
# 
# From -- ./inp_files/42179.got.cif
#   From: 2010.03.12/outbox.cif.g09.slc.cpg/sg63_22_cif.got.tgz:42179.got - 2010.04.10 19:34:48.
