data_PCOD8259063
_publ_section_title
;
Structure prediction by ZEFSAII (Michael W. Deem and Ramdas Pophale) SiO2 
 PCOD8259063
Probable space group: C M C M
;
_chemical_formula_sum "Si O2"
_cell_formula_units_Z 76
_cell_length_a 11.444605
_cell_length_b 14.442425
_cell_length_c 22.786396
_cell_angle_alpha 90.000000
_cell_angle_beta 90.000000
_cell_angle_gamma 90.000000
_cell_volume 3766.314390
_symmetry_space_group_name_H-M "C M C M"
_symmetry_group_IT_number 63
_symmetry_cell_setting 'orthorhombic'
loop_
_space_group_symop_operation_xyz
x,y,z
-x,-y,1/2+z
x,-y,-z
-x,y,1/2-z
-x,-y,-z
x,y,1/2-z
-x,y,z
x,-y,1/2+z
1/2+x,1/2+y,z
1/2-x,1/2-y,1/2+z
1/2+x,1/2-y,-z
1/2-x,1/2+y,1/2-z
1/2-x,1/2-y,-z
1/2+x,1/2+y,1/2-z
1/2-x,1/2+y,z
1/2+x,1/2-y,1/2+z
loop_
_atom_site_type_symbol
_atom_site_label
_atom_site_fract_x
_atom_site_fract_y
_atom_site_fract_z
Si Si1 0.747915 0.488597 0.366239
Si Si2 0.500000 0.734248 0.644006
Si Si3 0.135937 0.658870 0.552858
Si Si4 0.000000 0.967204 0.318036
Si Si5 0.370834 0.038877 0.750000
Si Si6 0.202027 0.318803 0.922019
Si Si7 0.500000 0.134061 0.250000
O O1 0.783227 0.420738 0.418858
O O2 0.610518 0.501726 0.355297
O O3 0.800999 0.437076 0.308827
O O4 0.791905 0.592278 0.379654
O O5 0.500000 0.642844 0.682404
O O6 0.385973 0.742317 0.603803
O O7 0.500000 0.814669 0.689945
O O8 0.152897 0.645635 0.483725
O O9 0.175977 0.762907 0.571415
O O10 0.000000 0.645835 0.570391
O O11 0.000000 0.002451 0.250000
O O12 0.500000 0.087559 0.750000
O O13 0.383377 0.928021 0.750000
#
# Coordination Sequence:
#
# PCOD8259063 Si02
#       7
#    16   8  16   8   8  16   4
#     4  12  24  42  65  93 127 169 214 263 324 381
#     4  12  20  42  65  92 127 171 220 259 312 383
#     4  11  25  42  64  95 130 169 213 265 320 384
#     4  12  26  42  64  94 134 169 215 271 326 381
#     4  10  20  36  62  96 121 156 211 271 303 376
#     4  11  24  42  64  94 129 166 212 266 318 383
#     4  10  20  34  66  96 116 168 216 262 306 364
#
# _framework density 20.178878000000001
#
# number of rings (size 3 to 8) (size 9 to 14) (size 15 to 20)
#    0.316    0.421    6.842    1.263    2.947    0.842 
#    0.000    2.105    0.000    0.000    0.000    0.000 
#    0.000    0.000    0.000    0.000    0.000    0.000 
#
# Total GULP energy -471036.182805 kJ/mol
# GULP energy per Si atom -12395.689021 kJ/mol
# Density = 2.013295 g / cm^3
# Si number density = 20.178878 Si / 1000 Ang^3
#
#
#
# Elastic Constant Matrix: (Units=GPa)
#
#
# Indices 1 2 3 4 5 6 
#
# 1 130.7704 10.2474 31.8852 0.0000 0.0000 0.0000
# 2 10.2474 56.0919 4.3359 0.0000 0.0000 0.0000
# 3 31.8852 4.3359 89.3360 0.0000 0.0000 0.0000
# 4 0.0000 0.0000 0.0000 24.7916 0.0000 0.0000
# 5 0.0000 0.0000 0.0000 0.0000 42.0658 0.0000
# 6 0.0000 0.0000 0.0000 0.0000 0.0000 17.4228
#
#
#
# Elastic Compliance Matrix: (Units=1/GPa)
#
#
# Indices 1 2 3 4 5 6 
#
# 1 0.008472 -0.001319 -0.002960 0.000000 0.000000 0.000000
# 2 -0.001319 0.018100 -0.000408 0.000000 0.000000 0.000000
# 3 -0.002960 -0.000408 0.012270 0.000000 0.000000 0.000000
# 4 0.000000 0.000000 0.000000 0.040336 0.000000 0.000000
# 5 0.000000 0.000000 0.000000 0.000000 0.023772 0.000000
# 6 0.000000 0.000000 0.000000 0.000000 0.000000 0.057396
#
#
# Mechanical properties :
#
#
# Convention : Reuss Voigt Hill
#
# Bulk Modulus (GPa) = 33.93362 41.01505 37.47434
# Shear Modulus (GPa) = 27.84852 32.17137 30.00994
#
# Velocity S-wave (km/s) = 3.71898 3.99721 3.86060
# Velocity P-wave (km/s) = 5.94087 6.45550 6.20352
#
# Compressibility (1/GPa) = 0.02946930
#
# Stress axis : x y z
#
# Youngs Moduli (GPa) = 118.03573 55.24753 81.50056
#
# Poissons Ratio (x) = 0.07287 0.24122
# Poissons Ratio (y) = 0.15568 0.03323
# Poissons Ratio (z) = 0.34936 0.02253
#
# Static dielectric constant tensor:
#      x y z
#    x 3.784680 0.000000 0.000000 
#    y 0.000000 3.396430 0.000000 
#    z 0.000000 0.000000 3.694610 
# 
# 
# High freq. dielectric constant tensor:
#      x y z
#    x 1.791390 0.000000 0.000000 
#    y 0.000000 1.773140 0.000000 
#    z 0.000000 0.000000 1.800150 
# 
# From -- ./inp_files/61204.got.cif
#   From: 2010.03.12/outbox.cif.g09.slc.cpg/sg63_31_cif.got.tgz:61204.got - 2010.04.10 19:34:48.
