data_PCOD8259022
_publ_section_title
;
Structure prediction by ZEFSAII (Michael W. Deem and Ramdas Pophale) SiO2 
 PCOD8259022
Probable space group: C M C M
;
_chemical_formula_sum "Si O2"
_cell_formula_units_Z 96
_cell_length_a 9.352927
_cell_length_b 29.697395
_cell_length_c 17.620029
_cell_angle_alpha 90.000000
_cell_angle_beta 90.000000
_cell_angle_gamma 90.000000
_cell_volume 4894.096395
_symmetry_space_group_name_H-M "C M C M"
_symmetry_group_IT_number 63
_symmetry_cell_setting 'orthorhombic'
loop_
_space_group_symop_operation_xyz
x,y,z
-x,-y,1/2+z
x,-y,-z
-x,y,1/2-z
-x,-y,-z
x,y,1/2-z
-x,y,z
x,-y,1/2+z
1/2+x,1/2+y,z
1/2-x,1/2-y,1/2+z
1/2+x,1/2-y,-z
1/2-x,1/2+y,1/2-z
1/2-x,1/2-y,-z
1/2+x,1/2+y,1/2-z
1/2-x,1/2+y,z
1/2+x,1/2-y,1/2+z
loop_
_atom_site_type_symbol
_atom_site_label
_atom_site_fract_x
_atom_site_fract_y
_atom_site_fract_z
Si Si1 0.665066 0.792872 0.577689
Si Si2 0.165264 0.809391 0.431033
Si Si3 0.657195 0.454408 0.839039
Si Si4 0.654909 0.643767 0.162071
Si Si5 0.831414 0.896964 0.338855
Si Si6 0.831573 0.523591 0.920588
O O1 0.500000 0.800109 0.562735
O O2 0.745389 0.816074 0.507272
O O3 0.702063 0.741125 0.596853
O O4 0.718652 0.820901 0.649285
O O5 0.205284 0.846012 0.366636
O O6 0.000000 0.813674 0.452678
O O7 0.652066 0.451650 0.750000
O O8 0.500000 0.471258 0.868258
O O9 0.689361 0.405088 0.874778
O O10 0.786404 0.487317 0.858536
O O11 0.642535 0.635722 0.250000
O O12 0.500000 0.661205 0.131280
O O13 0.783275 0.902020 0.250000
O O14 0.749600 0.930315 0.397026
O O15 0.000000 0.906679 0.345276
O O16 0.000000 0.533275 0.918684
O O17 0.784569 0.500000 0.000000
#
# Coordination Sequence:
#
# PCOD8259022 Si02
#       6
#    16  16  16  16  16  16
#     4  10  20  34  56  85 118 151 189 237 284 335
#     4   9  20  38  58  82 113 153 192 232 284 337
#     4   9  19  37  59  81 107 144 189 231 273 329
#     4   9  19  35  55  81 113 148 186 229 277 332
#     4  10  22  41  64  87 112 149 199 245 284 338
#     4  11  25  40  55  83 119 149 182 232 291 346
#
# _framework density 19.615470999999999
#
# number of rings (size 3 to 8) (size 9 to 14) (size 15 to 20)
#    0.000    2.333    0.000    2.500    2.333    7.000 
#    0.000    3.333    0.000    0.000    0.000    0.000 
#    0.000    0.000    0.000    0.000    0.000    0.000 
#
# Total GULP energy -594703.726719 kJ/mol
# GULP energy per Si atom -12389.660973 kJ/mol
# Density = 1.957082 g / cm^3
# Si number density = 19.615471 Si / 1000 Ang^3
#
#
#
# Elastic Constant Matrix: (Units=GPa)
#
#
# Indices 1 2 3 4 5 6 
#
# 1 64.2850 53.4455 35.9181 0.0000 0.0000 0.0000
# 2 53.4455 120.5832 52.5758 0.0000 0.0000 0.0000
# 3 35.9181 52.5758 68.7500 0.0000 0.0000 0.0000
# 4 0.0000 0.0000 0.0000 35.4247 0.0000 0.0000
# 5 0.0000 0.0000 0.0000 0.0000 30.2350 0.0000
# 6 0.0000 0.0000 0.0000 0.0000 0.0000 28.7436
#
#
#
# Elastic Compliance Matrix: (Units=1/GPa)
#
#
# Indices 1 2 3 4 5 6 
#
# 1 0.026937 -0.008706 -0.007415 0.000000 0.000000 0.000000
# 2 -0.008706 0.015255 -0.007118 0.000000 0.000000 0.000000
# 3 -0.007415 -0.007118 0.023863 0.000000 0.000000 0.000000
# 4 0.000000 0.000000 0.000000 0.028229 0.000000 0.000000
# 5 0.000000 0.000000 0.000000 0.000000 0.033074 0.000000
# 6 0.000000 0.000000 0.000000 0.000000 0.000000 0.034790
#
#
# Mechanical properties :
#
#
# Convention : Reuss Voigt Hill
#
# Bulk Modulus (GPa) = 51.08098 59.72189 55.40144
# Shear Modulus (GPa) = 23.23935 26.32589 24.78262
#
# Velocity S-wave (km/s) = 3.44575 3.66744 3.55832
# Velocity P-wave (km/s) = 6.47523 6.96031 6.72215
#
# Compressibility (1/GPa) = 0.01957676
#
# Stress axis : x y z
#
# Youngs Moduli (GPa) = 37.12379 65.55132 41.90614
#
# Poissons Ratio (x) = 0.57069 0.31075
# Poissons Ratio (y) = 0.32320 0.29828
# Poissons Ratio (z) = 0.27528 0.46659
#
# Static dielectric constant tensor:
#      x y z
#    x 3.630110 0.000000 0.000000 
#    y 0.000000 3.913380 0.000000 
#    z 0.000000 0.000000 3.510630 
# 
# 
# High freq. dielectric constant tensor:
#      x y z
#    x 1.757860 0.000000 0.000000 
#    y 0.000000 1.776250 0.000000 
#    z 0.000000 0.000000 1.751400 
# 
# From -- ./inp_files/51371.got.cif
#   From: 2010.03.12/outbox.cif.g09.slc.cpg/sg63_26_cif.got.tgz:51371.got - 2010.04.10 19:34:48.
