data_PCOD8259931
_publ_section_title
;
Structure prediction by ZEFSAII (Michael W. Deem and Ramdas Pophale) SiO2 
 PCOD8259931
Probable space group: C M C M
;
_chemical_formula_sum "Si O2"
_cell_formula_units_Z 80
_cell_length_a 20.832478
_cell_length_b 13.525425
_cell_length_c 15.178519
_cell_angle_alpha 90.000000
_cell_angle_beta 90.000000
_cell_angle_gamma 90.000000
_cell_volume 4276.822744
_symmetry_space_group_name_H-M "C M C M"
_symmetry_group_IT_number 63
_symmetry_cell_setting 'orthorhombic'
loop_
_space_group_symop_operation_xyz
x,y,z
-x,-y,1/2+z
x,-y,-z
-x,y,1/2-z
-x,-y,-z
x,y,1/2-z
-x,y,z
x,-y,1/2+z
1/2+x,1/2+y,z
1/2-x,1/2-y,1/2+z
1/2+x,1/2-y,-z
1/2-x,1/2+y,1/2-z
1/2-x,1/2-y,-z
1/2+x,1/2+y,1/2-z
1/2-x,1/2+y,z
1/2+x,1/2-y,1/2+z
loop_
_atom_site_type_symbol
_atom_site_label
_atom_site_fract_x
_atom_site_fract_y
_atom_site_fract_z
Si Si1 0.824802 0.089964 0.647826
Si Si2 0.928188 0.395603 0.045662
Si Si3 0.071748 0.186325 0.977635
Si Si4 0.191501 0.335351 0.349596
Si Si5 0.136295 0.870660 0.650725
O O1 0.833206 0.120897 0.750000
O O2 0.881534 0.139562 0.593452
O O3 0.757454 0.127043 0.605504
O O4 0.826324 0.972333 0.635793
O O5 0.872818 0.388612 0.117718
O O6 0.000000 0.387624 0.087958
O O7 0.919635 0.500000 0.000000
O O8 0.919069 0.305180 0.976867
O O9 0.000000 0.157157 0.949228
O O10 0.081991 0.143339 0.076562
O O11 0.196987 0.369575 0.250000
O O12 0.188066 0.217078 0.360975
O O13 0.106020 0.866348 0.750000
#
# Coordination Sequence:
#
# PCOD8259931 Si02
#       5
#    16  16  16  16  16
#     4  10  21  35  52  78 109 138 173 215 256 306
#     4   9  19  35  54  78 105 132 169 215 260 310
#     4  10  21  36  54  76 104 139 175 212 260 312
#     4   9  19  35  54  76 102 135 174 214 257 304
#     4   9  19  35  54  78 105 132 171 219 259 302
#
# _framework density 18.705473999999999
#
# number of rings (size 3 to 8) (size 9 to 14) (size 15 to 20)
#    0.000    2.600    0.000    0.600    0.000    9.200 
#    0.000    9.000    0.000    3.600    0.000    0.000 
#    0.000    0.000    0.000    0.000    0.000    0.000 
#
# Total GULP energy -495786.898380 kJ/mol
# GULP energy per Si atom -12394.672459 kJ/mol
# Density = 1.866290 g / cm^3
# Si number density = 18.705474 Si / 1000 Ang^3
#
#
#
# Elastic Constant Matrix: (Units=GPa)
#
#
# Indices 1 2 3 4 5 6 
#
# 1 168.0796 72.2919 63.2220 0.0000 0.0000 0.0000
# 2 72.2919 126.6308 48.1566 0.0000 0.0000 0.0000
# 3 63.2220 48.1566 76.0003 0.0000 0.0000 0.0000
# 4 0.0000 0.0000 0.0000 20.5350 0.0000 0.0000
# 5 0.0000 0.0000 0.0000 0.0000 26.6742 0.0000
# 6 0.0000 0.0000 0.0000 0.0000 0.0000 20.8033
#
#
#
# Elastic Compliance Matrix: (Units=1/GPa)
#
#
# Indices 1 2 3 4 5 6 
#
# 1 0.009553 -0.003204 -0.005917 0.000000 0.000000 0.000000
# 2 -0.003204 0.011478 -0.004608 0.000000 0.000000 0.000000
# 3 -0.005917 -0.004608 0.021000 0.000000 0.000000 0.000000
# 4 0.000000 0.000000 0.000000 0.048697 0.000000 0.000000
# 5 0.000000 0.000000 0.000000 0.000000 0.037489 0.000000
# 6 0.000000 0.000000 0.000000 0.000000 0.000000 0.048069
#
#
# Mechanical properties :
#
#
# Convention : Reuss Voigt Hill
#
# Bulk Modulus (GPa) = 68.61595 82.00573 75.31084
# Shear Modulus (GPa) = 23.96903 26.07184 25.02044
#
# Velocity S-wave (km/s) = 3.58354 3.73742 3.66129
# Velocity P-wave (km/s) = 7.34059 7.90950 7.63035
#
# Compressibility (1/GPa) = 0.01457387
#
# Stress axis : x y z
#
# Youngs Moduli (GPa) = 104.67863 87.12118 47.61937
#
# Poissons Ratio (x) = 0.27910 0.28176
# Poissons Ratio (y) = 0.33534 0.21944
# Poissons Ratio (z) = 0.61938 0.40147
#
# Static dielectric constant tensor:
#      x y z
#    x 3.516080 0.000000 0.000000 
#    y 0.000000 3.624940 0.000000 
#    z 0.000000 0.000000 3.368790 
# 
# 
# High freq. dielectric constant tensor:
#      x y z
#    x 1.726860 0.000000 0.000000 
#    y 0.000000 1.738900 0.000000 
#    z 0.000000 0.000000 1.709350 
# 
# From -- ./inp_files/35112.got.cif
#   From: 2010.03.12/outbox.cif.g09.slc.cpg/sg63_18_cif.got.tgz:35112.got - 2010.04.10 19:34:48.
