data_PCOD8259323
_publ_section_title
;
Structure prediction by ZEFSAII (Michael W. Deem and Ramdas Pophale) SiO2 
 PCOD8259323
Probable space group: C M C M
;
_chemical_formula_sum "Si O2"
_cell_formula_units_Z 96
_cell_length_a 19.377847
_cell_length_b 13.137269
_cell_length_c 18.851552
_cell_angle_alpha 90.000000
_cell_angle_beta 90.000000
_cell_angle_gamma 90.000000
_cell_volume 4799.077082
_symmetry_space_group_name_H-M "C M C M"
_symmetry_group_IT_number 63
_symmetry_cell_setting 'orthorhombic'
loop_
_space_group_symop_operation_xyz
x,y,z
-x,-y,1/2+z
x,-y,-z
-x,y,1/2-z
-x,-y,-z
x,y,1/2-z
-x,y,z
x,-y,1/2+z
1/2+x,1/2+y,z
1/2-x,1/2-y,1/2+z
1/2+x,1/2-y,-z
1/2-x,1/2+y,1/2-z
1/2-x,1/2-y,-z
1/2+x,1/2+y,1/2-z
1/2-x,1/2+y,z
1/2+x,1/2-y,1/2+z
loop_
_atom_site_type_symbol
_atom_site_label
_atom_site_fract_x
_atom_site_fract_y
_atom_site_fract_z
Si Si1 0.806932 0.152636 0.082306
Si Si2 0.796798 0.054414 0.833531
Si Si3 0.918467 0.590349 0.053983
Si Si4 0.173508 0.776197 0.069368
Si Si5 0.358983 0.965250 0.171725
Si Si6 0.421628 0.756145 0.329875
O O1 0.735906 0.208894 0.100817
O O2 0.873391 0.211141 0.110483
O O3 0.812056 0.045012 0.120625
O O4 0.807904 0.149499 0.996570
O O5 0.814323 0.039614 0.750000
O O6 0.843718 0.146570 0.865596
O O7 0.716233 0.080461 0.847434
O O8 0.887291 0.702528 0.039726
O O9 0.883935 0.561295 0.127726
O O10 0.000000 0.601595 0.057042
O O11 0.896143 0.500000 0.000000
O O12 0.355207 0.010527 0.250000
O O13 0.416180 0.877834 0.163881
O O14 0.400077 0.721704 0.250000
O O15 0.500000 0.724040 0.346157
#
# Coordination Sequence:
#
# PCOD8259323 Si02
#       6
#    16  16  16  16  16  16
#     4  11  22  38  61  87 125 163 208 260 310 375
#     4  11  23  39  62  92 123 161 212 259 309 371
#     4  11  24  41  63  92 127 163 204 254 317 384
#     4  11  24  38  62  91 125 164 208 257 320 375
#     4  10  20  35  59  89 123 156 198 256 312 371
#     4  10  20  36  60  90 124 164 210 260 313 369
#
# _framework density 20.003847
#
# number of rings (size 3 to 8) (size 9 to 14) (size 15 to 20)
#    0.000    1.333    3.333    2.500    2.333    4.333 
#    0.000    0.833    0.000    3.000    0.000    0.000 
#    0.000    0.000    0.000    0.000    0.000    0.000 
#
# Total GULP energy -594867.253330 kJ/mol
# GULP energy per Si atom -12393.067778 kJ/mol
# Density = 1.995832 g / cm^3
# Si number density = 20.003847 Si / 1000 Ang^3
#
#
#
# Elastic Constant Matrix: (Units=GPa)
#
#
# Indices 1 2 3 4 5 6 
#
# 1 74.8984 26.7637 34.9768 0.0000 0.0000 0.0000
# 2 26.7637 105.2124 63.4321 0.0000 0.0000 0.0000
# 3 34.9768 63.4321 88.7892 0.0000 0.0000 0.0000
# 4 0.0000 0.0000 0.0000 38.1053 0.0000 0.0000
# 5 0.0000 0.0000 0.0000 0.0000 26.1835 0.0000
# 6 0.0000 0.0000 0.0000 0.0000 0.0000 29.7441
#
#
#
# Elastic Compliance Matrix: (Units=1/GPa)
#
#
# Indices 1 2 3 4 5 6 
#
# 1 0.016375 -0.000486 -0.006104 0.000000 0.000000 0.000000
# 2 -0.000486 0.016710 -0.011747 0.000000 0.000000 0.000000
# 3 -0.006104 -0.011747 0.022059 0.000000 0.000000 0.000000
# 4 0.000000 0.000000 0.000000 0.026243 0.000000 0.000000
# 5 0.000000 0.000000 0.000000 0.000000 0.038192 0.000000
# 6 0.000000 0.000000 0.000000 0.000000 0.000000 0.033620
#
#
# Mechanical properties :
#
#
# Convention : Reuss Voigt Hill
#
# Bulk Modulus (GPa) = 54.13469 57.69391 55.91430
# Shear Modulus (GPa) = 25.50639 28.38841 26.94740
#
# Velocity S-wave (km/s) = 3.57469 3.77124 3.67428
# Velocity P-wave (km/s) = 6.64521 6.91860 6.78328
#
# Compressibility (1/GPa) = 0.01847244
#
# Stress axis : x y z
#
# Youngs Moduli (GPa) = 61.06733 59.84407 45.33281
#
# Poissons Ratio (x) = 0.02906 0.27671
# Poissons Ratio (y) = 0.02965 0.53251
# Poissons Ratio (z) = 0.37275 0.70297
#
# Static dielectric constant tensor:
#      x y z
#    x 3.460770 0.000000 0.000000 
#    y 0.000000 3.510470 0.000000 
#    z 0.000000 0.000000 3.783720 
# 
# 
# High freq. dielectric constant tensor:
#      x y z
#    x 1.760270 0.000000 0.000000 
#    y 0.000000 1.771100 0.000000 
#    z 0.000000 0.000000 1.793230 
# 
# From -- ./inp_files/56550.got.cif
#   From: 2010.03.12/outbox.cif.g09.slc.cpg/sg63_29_cif.got.tgz:56550.got - 2010.04.10 19:34:48.
