data_PCOD8259576
_publ_section_title
;
Structure prediction by ZEFSAII (Michael W. Deem and Ramdas Pophale) SiO2 
 PCOD8259576
Probable space group: C M C M
;
_chemical_formula_sum "Si O2"
_cell_formula_units_Z 112
_cell_length_a 21.565821
_cell_length_b 14.028910
_cell_length_c 16.056143
_cell_angle_alpha 90.000000
_cell_angle_beta 90.000000
_cell_angle_gamma 90.000000
_cell_volume 4857.705172
_symmetry_space_group_name_H-M "C M C M"
_symmetry_group_IT_number 63
_symmetry_cell_setting 'orthorhombic'
loop_
_space_group_symop_operation_xyz
x,y,z
-x,-y,1/2+z
x,-y,-z
-x,y,1/2-z
-x,-y,-z
x,y,1/2-z
-x,y,z
x,-y,1/2+z
1/2+x,1/2+y,z
1/2-x,1/2-y,1/2+z
1/2+x,1/2-y,-z
1/2-x,1/2+y,1/2-z
1/2-x,1/2-y,-z
1/2+x,1/2+y,1/2-z
1/2-x,1/2+y,z
1/2+x,1/2-y,1/2+z
loop_
_atom_site_type_symbol
_atom_site_label
_atom_site_fract_x
_atom_site_fract_y
_atom_site_fract_z
Si Si1 0.568158 0.781069 0.906896
Si Si2 0.071483 0.085348 0.342427
Si Si3 0.891889 0.077509 0.562344
Si Si4 0.813182 0.377510 0.656818
Si Si5 0.256078 0.608434 0.994524
Si Si6 0.321442 0.898974 0.341829
Si Si7 0.570265 0.213845 0.906028
O O1 0.500000 0.811975 0.873273
O O2 0.566424 0.665979 0.911305
O O3 0.622199 0.819987 0.848160
O O4 0.578341 0.822559 0.999533
O O5 0.084895 0.122918 0.250000
O O6 0.088916 0.173686 0.403202
O O7 0.000000 0.053619 0.352886
O O8 0.116487 0.993257 0.358008
O O9 0.828762 0.118538 0.522339
O O10 0.925013 0.000000 0.500000
O O11 0.785377 0.357528 0.750000
O O12 0.766119 0.342718 0.582253
O O13 0.828363 0.488271 0.645907
O O14 0.220691 0.650668 0.913515
O O15 0.236102 0.500000 0.000000
O O16 0.293277 0.877197 0.250000
O O17 0.389077 0.852133 0.346568
O O18 0.500000 0.203615 0.874088
#
# Coordination Sequence:
#
# PCOD8259576 Si02
#       7
#    16  16  16  16  16  16  16
#     4  11  23  38  63  94 124 162 210 261 317 390
#     4  10  21  37  59  91 128 164 210 266 320 381
#     4  11  22  39  64  88 121 169 211 258 317 378
#     4  10  22  42  65  90 129 172 211 263 327 386
#     4   9  20  39  63  90 122 161 212 264 313 372
#     4  10  20  38  63  91 125 165 209 262 322 384
#     4  10  20  36  61  93 126 163 210 266 319 381
#
# _framework density 23.056155
#
# number of rings (size 3 to 8) (size 9 to 14) (size 15 to 20)
#    0.000    1.857    2.857    0.857    0.000    4.000 
#    0.000    5.000    0.000    0.000    0.000    0.000 
#    0.000    0.000    0.000    0.000    0.000    0.000 
#
# Total GULP energy -693952.199783 kJ/mol
# GULP energy per Si atom -12392.003568 kJ/mol
# Density = 2.300368 g / cm^3
# Si number density = 23.056155 Si / 1000 Ang^3
#
#
#
# Elastic Constant Matrix: (Units=GPa)
#
#
# Indices 1 2 3 4 5 6 
#
# 1 86.2910 13.4482 41.8202 0.0000 0.0000 0.0000
# 2 13.4482 52.0855 12.6363 0.0000 0.0000 0.0000
# 3 41.8202 12.6363 127.2928 0.0000 0.0000 0.0000
# 4 0.0000 0.0000 0.0000 24.7489 0.0000 0.0000
# 5 0.0000 0.0000 0.0000 0.0000 17.4195 0.0000
# 6 0.0000 0.0000 0.0000 0.0000 0.0000 28.8485
#
#
#
# Elastic Compliance Matrix: (Units=1/GPa)
#
#
# Indices 1 2 3 4 5 6 
#
# 1 0.014114 -0.002581 -0.004381 0.000000 0.000000 0.000000
# 2 -0.002581 0.020145 -0.001152 0.000000 0.000000 0.000000
# 3 -0.004381 -0.001152 0.009409 0.000000 0.000000 0.000000
# 4 0.000000 0.000000 0.000000 0.040406 0.000000 0.000000
# 5 0.000000 0.000000 0.000000 0.000000 0.057407 0.000000
# 6 0.000000 0.000000 0.000000 0.000000 0.000000 0.034664
#
#
# Mechanical properties :
#
#
# Convention : Reuss Voigt Hill
#
# Bulk Modulus (GPa) = 36.44183 44.60874 40.52528
# Shear Modulus (GPa) = 24.81148 27.38771 26.09959
#
# Velocity S-wave (km/s) = 3.28400 3.45029 3.36817
# Velocity P-wave (km/s) = 5.49723 5.93822 5.72198
#
# Compressibility (1/GPa) = 0.02744099
#
# Stress axis : x y z
#
# Youngs Moduli (GPa) = 70.85125 49.63984 106.27608
#
# Poissons Ratio (x) = 0.12814 0.46557
# Poissons Ratio (y) = 0.18289 0.12240
# Poissons Ratio (z) = 0.31038 0.05717
#
# Static dielectric constant tensor:
#      x y z
#    x 3.833480 0.000000 0.000000 
#    y 0.000000 3.953130 0.000000 
#    z 0.000000 0.000000 4.494260 
# 
# 
# High freq. dielectric constant tensor:
#      x y z
#    x 1.893230 0.000000 0.000000 
#    y 0.000000 1.899140 0.000000 
#    z 0.000000 0.000000 1.916460 
# 
# From -- ./inp_files/36882.got.cif
#   From: 2010.03.12/outbox.cif.g09.slc.cpg/sg63_19_cif.got.tgz:36882.got - 2010.04.10 19:34:48.
