data_PCOD8259070
_publ_section_title
;
Structure prediction by ZEFSAII (Michael W. Deem and Ramdas Pophale) SiO2 
 PCOD8259070
Probable space group: C M C M
;
_chemical_formula_sum "Si O2"
_cell_formula_units_Z 80
_cell_length_a 9.051315
_cell_length_b 22.698105
_cell_length_c 22.365175
_cell_angle_alpha 90.000000
_cell_angle_beta 90.000000
_cell_angle_gamma 90.000000
_cell_volume 4594.873725
_symmetry_space_group_name_H-M "C M C M"
_symmetry_group_IT_number 63
_symmetry_cell_setting 'orthorhombic'
loop_
_space_group_symop_operation_xyz
x,y,z
-x,-y,1/2+z
x,-y,-z
-x,y,1/2-z
-x,-y,-z
x,y,1/2-z
-x,y,z
x,-y,1/2+z
1/2+x,1/2+y,z
1/2-x,1/2-y,1/2+z
1/2+x,1/2-y,-z
1/2-x,1/2+y,1/2-z
1/2-x,1/2-y,-z
1/2+x,1/2+y,1/2-z
1/2-x,1/2+y,z
1/2+x,1/2-y,1/2+z
loop_
_atom_site_type_symbol
_atom_site_label
_atom_site_fract_x
_atom_site_fract_y
_atom_site_fract_z
Si Si1 0.173815 0.668269 0.250000
Si Si2 0.330148 0.689816 0.486196
Si Si3 0.166721 0.550790 0.815447
Si Si4 0.331337 0.724181 0.358696
Si Si5 0.825281 0.042826 0.250000
Si Si6 0.673031 0.147023 0.592083
O O1 0.217561 0.705389 0.308105
O O2 0.261060 0.607592 0.250000
O O3 0.000000 0.656317 0.250000
O O4 0.500000 0.695507 0.504684
O O5 0.250000 0.750000 0.500000
O O6 0.314448 0.678938 0.414947
O O7 0.254518 0.639842 0.527793
O O8 0.165702 0.582705 0.750000
O O9 0.267859 0.491933 0.809595
O O10 0.232221 0.595486 0.864418
O O11 0.000000 0.531821 0.832852
O O12 0.500000 0.722020 0.334774
O O13 0.289528 0.790351 0.378132
O O14 0.000000 0.046158 0.250000
O O15 0.500000 0.140852 0.580775
#
# Coordination Sequence:
#
# PCOD8259070 Si02
#       6
#     8  16  16  16   8  16
#     4  12  24  35  50  71  95 128 166 210 249 286
#     4   9  17  30  48  70 100 135 166 197 236 288
#     4   8  16  31  50  73 100 129 161 197 239 291
#     4   9  19  33  49  72 102 136 166 193 237 292
#     4  10  20  35  52  69  93 128 166 206 251 294
#     4   9  17  30  52  77 104 135 161 194 241 289
#
# _framework density 17.410706999999999
#
# number of rings (size 3 to 8) (size 9 to 14) (size 15 to 20)
#    0.600    2.200    0.000    3.300    1.400    4.800 
#    0.000    1.000    0.000    1.200    0.000    8.400 
#    0.000    0.000    0.000    0.000    0.000    0.000 
#
# Total GULP energy -495611.409012 kJ/mol
# GULP energy per Si atom -12390.285225 kJ/mol
# Density = 1.737108 g / cm^3
# Si number density = 17.410707 Si / 1000 Ang^3
#
#
#
# Elastic Constant Matrix: (Units=GPa)
#
#
# Indices 1 2 3 4 5 6 
#
# 1 96.1831 28.2726 37.8569 0.0000 0.0000 0.0000
# 2 28.2726 49.1361 18.0111 0.0000 0.0000 0.0000
# 3 37.8569 18.0111 73.8165 0.0000 0.0000 0.0000
# 4 0.0000 0.0000 0.0000 -2.7490 0.0000 0.0000
# 5 0.0000 0.0000 0.0000 0.0000 31.2554 0.0000
# 6 0.0000 0.0000 0.0000 0.0000 0.0000 24.8620
#
#
#
# Elastic Compliance Matrix: (Units=1/GPa)
#
#
# Indices 1 2 3 4 5 6 
#
# 1 0.014563 -0.006196 -0.005957 0.000000 0.000000 0.000000
# 2 -0.006196 0.024987 -0.002919 0.000000 0.000000 0.000000
# 3 -0.005957 -0.002919 0.017314 0.000000 0.000000 0.000000
# 4 0.000000 0.000000 0.000000 -0.363773 0.000000 0.000000
# 5 0.000000 0.000000 0.000000 0.000000 0.031994 0.000000
# 6 0.000000 0.000000 0.000000 0.000000 0.000000 0.040222
#
#
# Mechanical properties :
#
#
# Convention : Reuss Voigt Hill
#
# Bulk Modulus (GPa) = 37.42479 43.04632 40.23556
# Shear Modulus (GPa) = -25.55671 19.67336 -2.94167
#
# Velocity S-wave (km/s) = -3.83544 3.36513 -1.30125
# Velocity P-wave (km/s) = 1.38845 6.31479 4.57189
#
# Compressibility (1/GPa) = 0.02672026
#
# Stress axis : x y z
#
# Youngs Moduli (GPa) = 68.66932 40.02129 57.75577
#
# Poissons Ratio (x) = 0.24796 0.34403
# Poissons Ratio (y) = 0.42546 0.16860
# Poissons Ratio (z) = 0.40904 0.11683
#
# Static dielectric constant tensor:
#      x y z
#    x 3.263580 0.000000 0.000000 
#    y 0.000000 2.933720 0.000000 
#    z 0.000000 0.000000 3.478160 
# 
# 
# High freq. dielectric constant tensor:
#      x y z
#    x 1.673790 0.000000 0.000000 
#    y 0.000000 1.636000 0.000000 
#    z 0.000000 0.000000 1.669020 
# 
# From -- ./inp_files/51189.got.cif
#   From: 2010.03.12/outbox.cif.g09.slc.cpg/sg63_26_cif.got.tgz:51189.got - 2010.04.10 19:34:48.
