data_PCOD8259367
_publ_section_title
;
Structure prediction by ZEFSAII (Michael W. Deem and Ramdas Pophale) SiO2 
 PCOD8259367
Probable space group: C M C M
;
_chemical_formula_sum "Si O2"
_cell_formula_units_Z 104
_cell_length_a 16.135726
_cell_length_b 17.046341
_cell_length_c 21.431155
_cell_angle_alpha 90.000000
_cell_angle_beta 90.000000
_cell_angle_gamma 90.000000
_cell_volume 5894.748218
_symmetry_space_group_name_H-M "C M C M"
_symmetry_group_IT_number 63
_symmetry_cell_setting 'orthorhombic'
loop_
_space_group_symop_operation_xyz
x,y,z
-x,-y,1/2+z
x,-y,-z
-x,y,1/2-z
-x,-y,-z
x,y,1/2-z
-x,y,z
x,-y,1/2+z
1/2+x,1/2+y,z
1/2-x,1/2-y,1/2+z
1/2+x,1/2-y,-z
1/2-x,1/2+y,1/2-z
1/2-x,1/2-y,-z
1/2+x,1/2+y,1/2-z
1/2-x,1/2+y,z
1/2+x,1/2-y,1/2+z
loop_
_atom_site_type_symbol
_atom_site_label
_atom_site_fract_x
_atom_site_fract_y
_atom_site_fract_z
Si Si1 0.199733 0.911683 0.177309
Si Si2 0.854125 0.257678 0.678802
Si Si3 0.500000 0.993972 0.181918
Si Si4 0.665212 0.718577 0.323537
Si Si5 0.500000 0.910092 0.479789
Si Si6 0.500000 0.154319 0.111722
Si Si7 0.874173 0.618221 0.626874
Si Si8 0.408097 0.443418 0.675826
O O1 0.228646 0.918804 0.250000
O O2 0.139791 0.836294 0.170984
O O3 0.277547 0.904411 0.130786
O O4 0.149940 0.986511 0.152603
O O5 0.874180 0.282195 0.750000
O O6 0.762086 0.284067 0.659434
O O7 0.918480 0.300347 0.633961
O O8 0.500000 0.032378 0.250000
O O9 0.580104 0.939087 0.175059
O O10 0.500000 0.064482 0.133316
O O11 0.653804 0.728364 0.250000
O O12 0.616535 0.790544 0.354975
O O13 0.625874 0.638880 0.349881
O O14 0.500000 0.849399 0.536999
O O15 0.415950 0.893906 0.440645
O O16 0.500000 0.000000 0.500000
O O17 0.409003 0.442203 0.750000
O O18 0.500000 0.456884 0.649113
#
# Coordination Sequence:
#
# PCOD8259367 Si02
#       8
#    16  16   8  16   8   8  16  16
#     4   9  18  34  55  84 117 147 178 222 280 340
#     4   9  19  34  55  83 115 142 176 225 280 333
#     4  11  21  30  54  85 106 133 174 222 288 348
#     4   9  18  33  53  84 115 140 177 230 283 336
#     4  11  24  42  52  77 109 150 190 237 269 323
#     4  12  23  37  54  79 112 148 184 224 277 330
#     4  10  20  36  56  74 108 146 186 227 279 317
#     4   9  18  28  47  79 117 148 170 207 275 346
#
# _framework density 17.642823
#
# number of rings (size 3 to 8) (size 9 to 14) (size 15 to 20)
#    0.000    2.308    1.538    3.000    5.385    0.000 
#    0.000    3.077    0.000    0.000    0.000    1.077 
#    0.000    0.000    0.000    0.000    0.000    0.000 
#
# Total GULP energy -644650.771666 kJ/mol
# GULP energy per Si atom -12397.130224 kJ/mol
# Density = 1.760267 g / cm^3
# Si number density = 17.642823 Si / 1000 Ang^3
#
#
#
# Elastic Constant Matrix: (Units=GPa)
#
#
# Indices 1 2 3 4 5 6 
#
# 1 109.2944 74.9395 46.4216 0.0000 0.0000 0.0000
# 2 74.9395 139.3696 36.6448 0.0000 0.0000 0.0000
# 3 46.4216 36.6448 83.4858 0.0000 0.0000 0.0000
# 4 0.0000 0.0000 0.0000 22.5559 0.0000 0.0000
# 5 0.0000 0.0000 0.0000 0.0000 25.9702 0.0000
# 6 0.0000 0.0000 0.0000 0.0000 0.0000 32.6462
#
#
#
# Elastic Compliance Matrix: (Units=1/GPa)
#
#
# Indices 1 2 3 4 5 6 
#
# 1 0.016854 -0.007459 -0.006097 0.000000 0.000000 0.000000
# 2 -0.007459 0.011413 -0.000862 0.000000 0.000000 0.000000
# 3 -0.006097 -0.000862 0.015747 0.000000 0.000000 0.000000
# 4 0.000000 0.000000 0.000000 0.044334 0.000000 0.000000
# 5 0.000000 0.000000 0.000000 0.000000 0.038506 0.000000
# 6 0.000000 0.000000 0.000000 0.000000 0.000000 0.030631
#
#
# Mechanical properties :
#
#
# Convention : Reuss Voigt Hill
#
# Bulk Modulus (GPa) = 65.89106 72.01796 68.95451
# Shear Modulus (GPa) = 26.12601 27.84405 26.98503
#
# Velocity S-wave (km/s) = 3.85233 3.97698 3.91515
# Velocity P-wave (km/s) = 7.56410 7.87382 7.72051
#
# Compressibility (1/GPa) = 0.01517657
#
# Stress axis : x y z
#
# Youngs Moduli (GPa) = 59.33340 87.62256 63.50526
#
# Poissons Ratio (x) = 0.65359 0.38722
# Poissons Ratio (y) = 0.44258 0.05473
# Poissons Ratio (z) = 0.36178 0.07551
#
# Static dielectric constant tensor:
#      x y z
#    x 3.302960 0.000000 0.000000 
#    y 0.000000 3.475010 0.000000 
#    z 0.000000 0.000000 2.905610 
# 
# 
# High freq. dielectric constant tensor:
#      x y z
#    x 1.687680 0.000000 0.000000 
#    y 0.000000 1.699440 0.000000 
#    z 0.000000 0.000000 1.630270 
# 
# From -- ./inp_files/63167.got.cif
#   From: 2010.03.12/outbox.cif.g09.slc.cpg/sg63_32_cif.got.tgz:63167.got - 2010.04.10 19:34:48.
