data_PCOD8259033
_publ_section_title
;
Structure prediction by ZEFSAII (Michael W. Deem and Ramdas Pophale) SiO2 
 PCOD8259033
Probable space group: C M C M
;
_chemical_formula_sum "Si O2"
_cell_formula_units_Z 88
_cell_length_a 20.223136
_cell_length_b 14.978022
_cell_length_c 14.909814
_cell_angle_alpha 90.000000
_cell_angle_beta 90.000000
_cell_angle_gamma 90.000000
_cell_volume 4516.221067
_symmetry_space_group_name_H-M "C M C M"
_symmetry_group_IT_number 63
_symmetry_cell_setting 'orthorhombic'
loop_
_space_group_symop_operation_xyz
x,y,z
-x,-y,1/2+z
x,-y,-z
-x,y,1/2-z
-x,-y,-z
x,y,1/2-z
-x,y,z
x,-y,1/2+z
1/2+x,1/2+y,z
1/2-x,1/2-y,1/2+z
1/2+x,1/2-y,-z
1/2-x,1/2+y,1/2-z
1/2-x,1/2-y,-z
1/2+x,1/2+y,1/2-z
1/2-x,1/2+y,z
1/2+x,1/2-y,1/2+z
loop_
_atom_site_type_symbol
_atom_site_label
_atom_site_fract_x
_atom_site_fract_y
_atom_site_fract_z
Si Si1 0.642031 0.342748 0.250000
Si Si2 0.322406 0.048269 0.916205
Si Si3 0.075373 0.411691 0.649924
Si Si4 0.316735 0.247574 0.558219
Si Si5 0.423872 0.719179 0.573805
Si Si6 0.261303 0.491548 0.250000
Si Si7 0.764636 0.796817 0.750000
O O1 0.596387 0.334166 0.162704
O O2 0.666405 0.446264 0.250000
O O3 0.700146 0.266880 0.250000
O O4 0.344030 0.147617 0.939427
O O5 0.388407 0.994234 0.894793
O O6 0.271509 0.051989 0.836166
O O7 0.286362 0.000000 0.000000
O O8 0.103526 0.393864 0.750000
O O9 0.085899 0.323666 0.592237
O O10 0.000000 0.440502 0.654869
O O11 0.250000 0.250000 0.500000
O O12 0.374297 0.305463 0.508582
O O13 0.306572 0.281530 0.659570
O O14 0.500000 0.696199 0.549163
O O15 0.250597 0.597382 0.250000
#
# Coordination Sequence:
#
# PCOD8259033 Si02
#       7
#     8  16  16  16  16   8   8
#     4  12  21  40  66  95 125 158 213 265 313 375
#     4  12  21  34  58  87 124 162 201 241 309 381
#     4  10  20  34  56  88 126 162 198 242 303 379
#     4  12  23  40  60  91 128 167 208 257 310 376
#     4  11  22  39  65  95 127 164 206 259 318 374
#     4  12  24  39  60  90 122 159 203 267 316 357
#     4  12  24  41  64  89 130 163 212 264 318 374
#
# _framework density 19.485316999999998
#
# number of rings (size 3 to 8) (size 9 to 14) (size 15 to 20)
#    0.000    0.545    7.273    2.455    0.000    1.091 
#    0.000    0.455    0.000    3.273    0.000    0.000 
#    0.000    0.000    0.000    0.000    0.000    0.000 
#
# Total GULP energy -545459.764562 kJ/mol
# GULP energy per Si atom -12396.812831 kJ/mol
# Density = 1.944097 g / cm^3
# Si number density = 19.485317 Si / 1000 Ang^3
#
#
#
# Elastic Constant Matrix: (Units=GPa)
#
#
# Indices 1 2 3 4 5 6 
#
# 1 96.8238 10.9889 52.7902 0.0000 0.0000 0.0000
# 2 10.9889 52.7066 -1.4257 0.0000 0.0000 0.0000
# 3 52.7902 -1.4257 150.9572 0.0000 0.0000 0.0000
# 4 0.0000 0.0000 0.0000 25.8554 0.0000 0.0000
# 5 0.0000 0.0000 0.0000 0.0000 43.0074 0.0000
# 6 0.0000 0.0000 0.0000 0.0000 0.0000 -96.7707
#
#
#
# Elastic Compliance Matrix: (Units=1/GPa)
#
#
# Indices 1 2 3 4 5 6 
#
# 1 0.013182 -0.002874 -0.004637 0.000000 0.000000 0.000000
# 2 -0.002874 0.019604 0.001190 0.000000 0.000000 0.000000
# 3 -0.004637 0.001190 0.008257 0.000000 0.000000 0.000000
# 4 0.000000 0.000000 0.000000 0.038677 0.000000 0.000000
# 5 0.000000 0.000000 0.000000 0.000000 0.023252 0.000000
# 6 0.000000 0.000000 0.000000 0.000000 0.000000 -0.010334
#
#
# Mechanical properties :
#
#
# Convention : Reuss Voigt Hill
#
# Bulk Modulus (GPa) = 35.20830 47.24385 41.22608
# Shear Modulus (GPa) = 43.57381 10.29403 26.93392
#
# Velocity S-wave (km/s) = 4.73402 2.30096 3.72192
# Velocity P-wave (km/s) = 6.92745 5.59980 6.29870
#
# Compressibility (1/GPa) = 0.02840239
#
# Stress axis : x y z
#
# Youngs Moduli (GPa) = 75.85857 51.00915 121.10594
#
# Poissons Ratio (x) = 0.14659 0.56158
# Poissons Ratio (y) = 0.21801 -0.14413
# Poissons Ratio (z) = 0.35176 -0.06071
#
# Static dielectric constant tensor:
#      x y z
#    x 3.482110 0.000000 0.000000 
#    y 0.000000 3.446860 0.000000 
#    z 0.000000 0.000000 -7.163070 
# 
# 
# High freq. dielectric constant tensor:
#      x y z
#    x 1.745210 0.000000 0.000000 
#    y 0.000000 1.739880 0.000000 
#    z 0.000000 0.000000 1.780630 
# 
# From -- ./inp_files/34018.got.cif
#   From: 2010.03.12/outbox.cif.g09.slc.cpg/sg63_18_cif.got.tgz:34018.got - 2010.04.10 19:34:48.
