data_PCOD8259506
_publ_section_title
;
Structure prediction by ZEFSAII (Michael W. Deem and Ramdas Pophale) SiO2 
 PCOD8259506
Probable space group: C M C M
;
_chemical_formula_sum "Si O2"
_cell_formula_units_Z 96
_cell_length_a 27.153467
_cell_length_b 20.278849
_cell_length_c 8.728929
_cell_angle_alpha 90.000000
_cell_angle_beta 90.000000
_cell_angle_gamma 90.000000
_cell_volume 4806.506692
_symmetry_space_group_name_H-M "C M C M"
_symmetry_group_IT_number 63
_symmetry_cell_setting 'orthorhombic'
loop_
_space_group_symop_operation_xyz
x,y,z
-x,-y,1/2+z
x,-y,-z
-x,y,1/2-z
-x,-y,-z
x,y,1/2-z
-x,y,z
x,-y,1/2+z
1/2+x,1/2+y,z
1/2-x,1/2-y,1/2+z
1/2+x,1/2-y,-z
1/2-x,1/2+y,1/2-z
1/2-x,1/2-y,-z
1/2+x,1/2+y,1/2-z
1/2-x,1/2+y,z
1/2+x,1/2-y,1/2+z
loop_
_atom_site_type_symbol
_atom_site_label
_atom_site_fract_x
_atom_site_fract_y
_atom_site_fract_z
Si Si1 0.395475 0.190967 0.425715
Si Si2 0.266787 0.570116 0.567987
Si Si3 0.371674 0.569123 0.431108
Si Si4 0.717652 0.807383 0.571540
Si Si5 0.944280 0.431995 0.429853
Si Si6 0.443430 0.686095 0.426099
O O1 0.405192 0.173698 0.250000
O O2 0.339102 0.210974 0.455685
O O3 0.408670 0.126827 0.522604
O O4 0.429727 0.251618 0.471886
O O5 0.250289 0.500000 0.500000
O O6 0.268047 0.565981 0.750000
O O7 0.320322 0.590833 0.506253
O O8 0.227744 0.624045 0.513659
O O9 0.389991 0.500000 0.500000
O O10 0.364453 0.562021 0.250000
O O11 0.411975 0.623030 0.476469
O O12 0.730549 0.814549 0.750000
O O13 0.750000 0.750000 0.500000
O O14 0.924090 0.500000 0.500000
O O15 0.942911 0.439381 0.250000
O O16 0.000000 0.417795 0.487925
O O17 0.433091 0.704727 0.250000
O O18 0.500000 0.667638 0.453857
#
# Coordination Sequence:
#
# PCOD8259506 Si02
#       6
#    16  16  16  16  16  16
#     4  11  24  39  58  85 115 148 188 235 284 336
#     4  11  22  38  61  87 116 151 191 234 284 340
#     4  10  20  36  59  85 116 152 190 234 284 337
#     4  11  24  41  60  85 116 150 191 237 287 341
#     4  10  21  38  61  87 116 151 189 230 278 333
#     4  10  22  39  58  82 114 152 192 234 282 336
#
# _framework density 19.972926000000001
#
# number of rings (size 3 to 8) (size 9 to 14) (size 15 to 20)
#    0.000    1.500    0.000    6.000    0.000   11.000 
#    0.000    0.000    0.000    0.000    0.000    0.000 
#    0.000    0.000    0.000    0.000    0.000    0.000 
#
# Total GULP energy -595503.420397 kJ/mol
# GULP energy per Si atom -12406.321258 kJ/mol
# Density = 1.992747 g / cm^3
# Si number density = 19.972926 Si / 1000 Ang^3
#
#
#
# Elastic Constant Matrix: (Units=GPa)
#
#
# Indices 1 2 3 4 5 6 
#
# 1 46.9275 24.2924 22.3048 0.0000 0.0000 0.0000
# 2 24.2924 99.6936 35.3879 0.0000 0.0000 0.0000
# 3 22.3048 35.3879 104.7248 0.0000 0.0000 0.0000
# 4 0.0000 0.0000 0.0000 41.1280 0.0000 0.0000
# 5 0.0000 0.0000 0.0000 0.0000 31.0838 0.0000
# 6 0.0000 0.0000 0.0000 0.0000 0.0000 41.2676
#
#
#
# Elastic Compliance Matrix: (Units=1/GPa)
#
#
# Indices 1 2 3 4 5 6 
#
# 1 0.025656 -0.004900 -0.003809 0.000000 0.000000 0.000000
# 2 -0.004900 0.012334 -0.003124 0.000000 0.000000 0.000000
# 3 -0.003809 -0.003124 0.011416 0.000000 0.000000 0.000000
# 4 0.000000 0.000000 0.000000 0.024314 0.000000 0.000000
# 5 0.000000 0.000000 0.000000 0.000000 0.032171 0.000000
# 6 0.000000 0.000000 0.000000 0.000000 0.000000 0.024232
#
#
# Mechanical properties :
#
#
# Convention : Reuss Voigt Hill
#
# Bulk Modulus (GPa) = 38.84943 46.14624 42.49783
# Shear Modulus (GPa) = 30.79423 33.98661 32.39042
#
# Velocity S-wave (km/s) = 3.93083 4.12956 4.03142
# Velocity P-wave (km/s) = 6.33208 6.77438 6.55696
#
# Compressibility (1/GPa) = 0.02574040
#
# Stress axis : x y z
#
# Youngs Moduli (GPa) = 38.97709 81.07926 87.59853
#
# Poissons Ratio (x) = 0.39726 0.33364
# Poissons Ratio (y) = 0.19098 0.27367
# Poissons Ratio (z) = 0.14845 0.25330
#
# Static dielectric constant tensor:
#      x y z
#    x 3.627250 0.000000 0.000000 
#    y 0.000000 3.765390 0.000000 
#    z 0.000000 0.000000 3.738600 
# 
# 
# High freq. dielectric constant tensor:
#      x y z
#    x 1.778140 0.000000 0.000000 
#    y 0.000000 1.790640 0.000000 
#    z 0.000000 0.000000 1.792000 
# 
# From -- ./inp_files/12318.got.cif
#   From: 2010.03.12/outbox.cif.g09.slc.cpg/sg63_7_cif.got.tgz:12318.got - 2010.04.10 19:34:48.
