data_PCOD8259536
_publ_section_title
;
Structure prediction by ZEFSAII (Michael W. Deem and Ramdas Pophale) SiO2 
 PCOD8259536
Probable space group: C M C M
;
_chemical_formula_sum "Si O2"
_cell_formula_units_Z 80
_cell_length_a 9.260449
_cell_length_b 24.680954
_cell_length_c 18.462698
_cell_angle_alpha 90.000000
_cell_angle_beta 90.000000
_cell_angle_gamma 90.000000
_cell_volume 4219.773619
_symmetry_space_group_name_H-M "C M C M"
_symmetry_group_IT_number 63
_symmetry_cell_setting 'orthorhombic'
loop_
_space_group_symop_operation_xyz
x,y,z
-x,-y,1/2+z
x,-y,-z
-x,y,1/2-z
-x,-y,-z
x,y,1/2-z
-x,y,z
x,-y,1/2+z
1/2+x,1/2+y,z
1/2-x,1/2-y,1/2+z
1/2+x,1/2-y,-z
1/2-x,1/2+y,1/2-z
1/2-x,1/2-y,-z
1/2+x,1/2+y,1/2-z
1/2-x,1/2+y,z
1/2+x,1/2-y,1/2+z
loop_
_atom_site_type_symbol
_atom_site_label
_atom_site_fract_x
_atom_site_fract_y
_atom_site_fract_z
Si Si1 0.666986 0.331447 0.588281
Si Si2 0.670571 0.025606 0.923588
Si Si3 0.166745 0.059885 0.334450
Si Si4 0.165488 0.863914 0.427564
Si Si5 0.668086 0.262658 0.167711
O O1 0.500000 0.323083 0.607206
O O2 0.723576 0.386900 0.624286
O O3 0.696135 0.333522 0.502883
O O4 0.751572 0.281092 0.619763
O O5 0.500000 0.026083 0.913883
O O6 0.727925 0.086243 0.917807
O O7 0.739539 0.991122 0.859027
O O8 0.717971 0.000000 0.000000
O O9 0.190390 0.069486 0.250000
O O10 0.000000 0.048296 0.353529
O O11 0.198886 0.822372 0.363055
O O12 0.000000 0.884624 0.425140
O O13 0.724961 0.260831 0.250000
O O14 0.500000 0.248893 0.163473
#
# Coordination Sequence:
#
# PCOD8259536 Si02
#       5
#    16  16  16  16  16
#     4  10  20  36  60  86 112 148 195 241 283 337
#     4  11  23  38  58  86 118 151 189 237 290 345
#     4  10  21  37  59  86 115 151 195 239 287 344
#     4  10  21  38  61  84 112 153 197 238 282 341
#     4  10  22  38  56  83 118 152 187 232 289 345
#
# _framework density 18.958364
#
# number of rings (size 3 to 8) (size 9 to 14) (size 15 to 20)
#    0.000    1.800    2.000    1.800    0.000    5.600 
#    0.000    2.000    0.000    0.000    0.000    0.000 
#    0.000    0.000    0.000    0.000    0.000    0.000 
#
# Total GULP energy -496235.133237 kJ/mol
# GULP energy per Si atom -12405.878331 kJ/mol
# Density = 1.891521 g / cm^3
# Si number density = 18.958364 Si / 1000 Ang^3
#
#
#
# Elastic Constant Matrix: (Units=GPa)
#
#
# Indices 1 2 3 4 5 6 
#
# 1 55.6847 38.4811 18.0679 0.0000 0.0000 0.0000
# 2 38.4811 84.7091 12.0908 0.0000 0.0000 0.0000
# 3 18.0679 12.0908 55.6524 0.0000 0.0000 0.0000
# 4 0.0000 0.0000 0.0000 30.7833 0.0000 0.0000
# 5 0.0000 0.0000 0.0000 0.0000 27.6490 0.0000
# 6 0.0000 0.0000 0.0000 0.0000 0.0000 38.6581
#
#
#
# Elastic Compliance Matrix: (Units=1/GPa)
#
#
# Indices 1 2 3 4 5 6 
#
# 1 0.028352 -0.011936 -0.006611 0.000000 0.000000 0.000000
# 2 -0.011936 0.017208 0.000137 0.000000 0.000000 0.000000
# 3 -0.006611 0.000137 0.020085 0.000000 0.000000 0.000000
# 4 0.000000 0.000000 0.000000 0.032485 0.000000 0.000000
# 5 0.000000 0.000000 0.000000 0.000000 0.036168 0.000000
# 6 0.000000 0.000000 0.000000 0.000000 0.000000 0.025868
#
#
# Mechanical properties :
#
#
# Convention : Reuss Voigt Hill
#
# Bulk Modulus (GPa) = 34.69385 37.03621 35.86503
# Shear Modulus (GPa) = 24.20197 27.91182 26.05690
#
# Velocity S-wave (km/s) = 3.57681 3.84118 3.71135
# Velocity P-wave (km/s) = 5.94961 6.26505 6.10936
#
# Compressibility (1/GPa) = 0.02882355
#
# Stress axis : x y z
#
# Youngs Moduli (GPa) = 35.27128 58.11352 49.78723
#
# Poissons Ratio (x) = 0.69363 0.32917
# Poissons Ratio (y) = 0.42099 -0.00680
# Poissons Ratio (z) = 0.23319 -0.00793
#
# Static dielectric constant tensor:
#      x y z
#    x 3.393630 0.000000 0.000000 
#    y 0.000000 3.414210 0.000000 
#    z 0.000000 0.000000 3.611050 
# 
# 
# High freq. dielectric constant tensor:
#      x y z
#    x 1.729690 0.000000 0.000000 
#    y 0.000000 1.743120 0.000000 
#    z 0.000000 0.000000 1.746630 
# 
# From -- ./inp_files/40454.got.cif
#   From: 2010.03.12/outbox.cif.g09.slc.cpg/sg63_21_cif.got.tgz:40454.got - 2010.04.10 19:34:48.
