data_PCOD8259835
_publ_section_title
;
Structure prediction by ZEFSAII (Michael W. Deem and Ramdas Pophale) SiO2 
 PCOD8259835
Probable space group: C M C M
;
_chemical_formula_sum "Si O2"
_cell_formula_units_Z 64
_cell_length_a 23.525963
_cell_length_b 8.919554
_cell_length_c 15.571260
_cell_angle_alpha 90.000000
_cell_angle_beta 90.000000
_cell_angle_gamma 90.000000
_cell_volume 3267.490286
_symmetry_space_group_name_H-M "C M C M"
_symmetry_group_IT_number 63
_symmetry_cell_setting 'orthorhombic'
loop_
_space_group_symop_operation_xyz
x,y,z
-x,-y,1/2+z
x,-y,-z
-x,y,1/2-z
-x,-y,-z
x,y,1/2-z
-x,y,z
x,-y,1/2+z
1/2+x,1/2+y,z
1/2-x,1/2-y,1/2+z
1/2+x,1/2-y,-z
1/2-x,1/2+y,1/2-z
1/2-x,1/2-y,-z
1/2+x,1/2+y,1/2-z
1/2-x,1/2+y,z
1/2+x,1/2-y,1/2+z
loop_
_atom_site_type_symbol
_atom_site_label
_atom_site_fract_x
_atom_site_fract_y
_atom_site_fract_z
Si Si1 0.686441 0.200751 0.250000
Si Si2 0.890595 0.686649 0.092700
Si Si3 0.500000 0.693521 0.154875
Si Si4 0.611793 0.156366 0.597437
Si Si5 0.192046 0.348462 0.250000
Si Si6 0.000000 0.893952 0.416058
O O1 0.652740 0.249850 0.335994
O O2 0.745614 0.283885 0.250000
O O3 0.698103 0.025572 0.250000
O O4 0.906639 0.515249 0.115395
O O5 0.945832 0.788538 0.092141
O O6 0.862322 0.685158 0.997591
O O7 0.500000 0.763257 0.250000
O O8 0.444885 0.746109 0.103353
O O9 0.500000 0.512779 0.161846
O O10 0.658610 0.209514 0.665971
O O11 0.000000 0.000000 0.500000
#
# Coordination Sequence:
#
# PCOD8259835 Si02
#       6
#     8  16   8  16   8   8
#     4  10  24  41  60  85 117 154 206 242 295 340
#     4  10  22  40  60  87 120 159 192 242 291 358
#     4  12  23  35  57  94 120 156 189 244 299 355
#     4  10  20  40  65  83 118 158 203 236 290 355
#     4  10  22  41  60  89 113 154 204 252 287 352
#     4  12  23  37  56  93 130 149 192 238 306 356
#
# _framework density 19.586898000000001
#
# number of rings (size 3 to 8) (size 9 to 14) (size 15 to 20)
#    0.000    1.500    3.750    0.750    1.750    5.000 
#    0.000    0.000    0.000    0.000    0.000    0.000 
#    0.000    0.000    0.000    0.000    0.000    0.000 
#
# Total GULP energy -396765.863678 kJ/mol
# GULP energy per Si atom -12398.933240 kJ/mol
# Density = 1.954232 g / cm^3
# Si number density = 19.586898 Si / 1000 Ang^3
#
#
#
# Elastic Constant Matrix: (Units=GPa)
#
#
# Indices 1 2 3 4 5 6 
#
# 1 162.7646 61.7359 83.5769 0.0000 0.0000 0.0000
# 2 61.7359 72.4194 39.0374 0.0000 0.0000 0.0000
# 3 83.5769 39.0374 163.1405 0.0000 0.0000 0.0000
# 4 0.0000 0.0000 0.0000 24.3540 0.0000 0.0000
# 5 0.0000 0.0000 0.0000 0.0000 15.6888 0.0000
# 6 0.0000 0.0000 0.0000 0.0000 0.0000 37.9535
#
#
#
# Elastic Compliance Matrix: (Units=1/GPa)
#
#
# Indices 1 2 3 4 5 6 
#
# 1 0.010830 -0.007166 -0.003834 0.000000 0.000000 0.000000
# 2 -0.007166 0.020595 -0.001257 0.000000 0.000000 0.000000
# 3 -0.003834 -0.001257 0.008394 0.000000 0.000000 0.000000
# 4 0.000000 0.000000 0.000000 0.041061 0.000000 0.000000
# 5 0.000000 0.000000 0.000000 0.000000 0.063740 0.000000
# 6 0.000000 0.000000 0.000000 0.000000 0.000000 0.026348
#
#
# Mechanical properties :
#
#
# Convention : Reuss Voigt Hill
#
# Bulk Modulus (GPa) = 65.33215 85.22500 75.27857
# Shear Modulus (GPa) = 24.92715 29.86420 27.39568
#
# Velocity S-wave (km/s) = 3.57128 3.90898 3.74394
# Velocity P-wave (km/s) = 7.10161 7.99870 7.56347
#
# Compressibility (1/GPa) = 0.01530640
#
# Stress axis : x y z
#
# Youngs Moduli (GPa) = 92.33200 48.55548 119.12664
#
# Poissons Ratio (x) = 0.34796 0.45669
# Poissons Ratio (y) = 0.66167 0.14973
# Poissons Ratio (z) = 0.35397 0.06103
#
# Static dielectric constant tensor:
#      x y z
#    x 3.375740 0.000000 0.000000 
#    y 0.000000 3.678400 0.000000 
#    z 0.000000 0.000000 4.047990 
# 
# 
# High freq. dielectric constant tensor:
#      x y z
#    x 1.743340 0.000000 0.000000 
#    y 0.000000 1.762340 0.000000 
#    z 0.000000 0.000000 1.786160 
# 
# From -- ./inp_files/36257.got.cif
#   From: 2010.03.12/outbox.cif.g09.slc.cpg/sg63_19_cif.got.tgz:36257.got - 2010.04.10 19:34:48.
