data_PCOD8259611
_publ_section_title
;
Structure prediction by ZEFSAII (Michael W. Deem and Ramdas Pophale) SiO2 
 PCOD8259611
Probable space group: C M C M
;
_chemical_formula_sum "Si O2"
_cell_formula_units_Z 104
_cell_length_a 26.079987
_cell_length_b 23.931818
_cell_length_c 8.685988
_cell_angle_alpha 90.000000
_cell_angle_beta 90.000000
_cell_angle_gamma 90.000000
_cell_volume 5421.285600
_symmetry_space_group_name_H-M "C M C M"
_symmetry_group_IT_number 63
_symmetry_cell_setting 'orthorhombic'
loop_
_space_group_symop_operation_xyz
x,y,z
-x,-y,1/2+z
x,-y,-z
-x,y,1/2-z
-x,-y,-z
x,y,1/2-z
-x,y,z
x,-y,1/2+z
1/2+x,1/2+y,z
1/2-x,1/2-y,1/2+z
1/2+x,1/2-y,-z
1/2-x,1/2+y,1/2-z
1/2-x,1/2-y,-z
1/2+x,1/2+y,1/2-z
1/2-x,1/2+y,z
1/2+x,1/2-y,1/2+z
loop_
_atom_site_type_symbol
_atom_site_label
_atom_site_fract_x
_atom_site_fract_y
_atom_site_fract_z
Si Si1 0.610313 0.938395 0.568374
Si Si2 0.442002 0.357755 0.429838
Si Si3 0.280644 0.653039 0.429148
Si Si4 0.828961 0.342184 0.070495
Si Si5 0.860090 0.767862 0.429193
Si Si6 0.500000 0.059471 0.072941
Si Si7 0.138246 0.060933 0.069461
O O1 0.622061 0.939444 0.750000
O O2 0.652433 0.902875 0.480308
O O3 0.553917 0.910355 0.531571
O O4 0.613522 0.000000 0.500000
O O5 0.442173 0.370471 0.250000
O O6 0.500000 0.353852 0.494220
O O7 0.413918 0.298758 0.464890
O O8 0.412985 0.409256 0.508751
O O9 0.265434 0.653296 0.250000
O O10 0.230873 0.659982 0.532671
O O11 0.316007 0.705979 0.464985
O O12 0.311439 0.596849 0.475367
O O13 0.837539 0.332403 0.250000
O O14 0.862657 0.296909 0.976309
O O15 0.845754 0.774110 0.250000
O O16 0.500000 0.045827 0.250000
O O17 0.500000 0.000000 0.000000
O O18 0.132582 0.055498 0.250000
O O19 0.144832 0.000000 0.000000
#
# Coordination Sequence:
#
# PCOD8259611 Si02
#       7
#    16  16  16  16  16   8  16
#     4  10  20  37  58  82 110 142 179 223 273 325
#     4   9  19  37  60  84 112 148 188 232 282 333
#     4  10  21  38  58  80 109 145 186 232 283 334
#     4  12  24  37  55  82 113 147 187 228 275 331
#     4  10  20  37  59  82 110 144 185 232 281 334
#     4   8  16  32  56  78 100 134 172 210 257 312
#     4  10  21  36  57  84 114 149 188 231 278 333
#
# _framework density 19.183641000000001
#
# number of rings (size 3 to 8) (size 9 to 14) (size 15 to 20)
#    0.000    2.000    0.000    3.692    0.000    4.308 
#    1.385    1.538    0.000    0.000    0.000    0.000 
#    0.000    0.000    0.000    0.000    0.000    0.000 
#
# Total GULP energy -644698.792414 kJ/mol
# GULP energy per Si atom -12398.053700 kJ/mol
# Density = 1.913998 g / cm^3
# Si number density = 19.183641 Si / 1000 Ang^3
#
#
#
# Elastic Constant Matrix: (Units=GPa)
#
#
# Indices 1 2 3 4 5 6 
#
# 1 61.7326 32.7867 27.9691 0.0000 0.0000 0.0000
# 2 32.7867 104.2804 29.7306 0.0000 0.0000 0.0000
# 3 27.9691 29.7306 66.7619 0.0000 0.0000 0.0000
# 4 0.0000 0.0000 0.0000 29.2551 0.0000 0.0000
# 5 0.0000 0.0000 0.0000 0.0000 26.3647 0.0000
# 6 0.0000 0.0000 0.0000 0.0000 0.0000 21.5617
#
#
#
# Elastic Compliance Matrix: (Units=1/GPa)
#
#
# Indices 1 2 3 4 5 6 
#
# 1 0.021990 -0.004911 -0.007026 0.000000 0.000000 0.000000
# 2 -0.004911 0.012081 -0.003323 0.000000 0.000000 0.000000
# 3 -0.007026 -0.003323 0.019401 0.000000 0.000000 0.000000
# 4 0.000000 0.000000 0.000000 0.034182 0.000000 0.000000
# 5 0.000000 0.000000 0.000000 0.000000 0.037929 0.000000
# 6 0.000000 0.000000 0.000000 0.000000 0.000000 0.046379
#
#
# Mechanical properties :
#
#
# Convention : Reuss Voigt Hill
#
# Bulk Modulus (GPa) = 43.56445 45.97197 44.76821
# Shear Modulus (GPa) = 23.79456 24.92220 24.35838
#
# Velocity S-wave (km/s) = 3.52569 3.60827 3.56722
# Velocity P-wave (km/s) = 6.27156 6.43239 6.35248
#
# Compressibility (1/GPa) = 0.02295449
#
# Stress axis : x y z
#
# Youngs Moduli (GPa) = 45.47486 82.77587 51.54244
#
# Poissons Ratio (x) = 0.40650 0.36212
# Poissons Ratio (y) = 0.22332 0.17125
# Poissons Ratio (z) = 0.31949 0.27502
#
# Static dielectric constant tensor:
#      x y z
#    x 3.788950 0.000000 0.000000 
#    y 0.000000 3.420130 0.000000 
#    z 0.000000 0.000000 3.525370 
# 
# 
# High freq. dielectric constant tensor:
#      x y z
#    x 1.750020 0.000000 0.000000 
#    y 0.000000 1.739040 0.000000 
#    z 0.000000 0.000000 1.755140 
# 
# From -- ./inp_files/12601.got.cif
#   From: 2010.03.12/outbox.cif.g09.slc.cpg/sg63_7_cif.got.tgz:12601.got - 2010.04.10 19:34:48.
