data_PCOD8259921
_publ_section_title
;
Structure prediction by ZEFSAII (Michael W. Deem and Ramdas Pophale) SiO2 
 PCOD8259921
Probable space group: C M C M
;
_chemical_formula_sum "Si O2"
_cell_formula_units_Z 96
_cell_length_a 9.422325
_cell_length_b 27.441887
_cell_length_c 18.649815
_cell_angle_alpha 90.000000
_cell_angle_beta 90.000000
_cell_angle_gamma 90.000000
_cell_volume 4822.215114
_symmetry_space_group_name_H-M "C M C M"
_symmetry_group_IT_number 63
_symmetry_cell_setting 'orthorhombic'
loop_
_space_group_symop_operation_xyz
x,y,z
-x,-y,1/2+z
x,-y,-z
-x,y,1/2-z
-x,-y,-z
x,y,1/2-z
-x,y,z
x,-y,1/2+z
1/2+x,1/2+y,z
1/2-x,1/2-y,1/2+z
1/2+x,1/2-y,-z
1/2-x,1/2+y,1/2-z
1/2-x,1/2-y,-z
1/2+x,1/2+y,1/2-z
1/2-x,1/2+y,z
1/2+x,1/2-y,1/2+z
loop_
_atom_site_type_symbol
_atom_site_label
_atom_site_fract_x
_atom_site_fract_y
_atom_site_fract_z
Si Si1 0.831759 0.293418 0.666605
Si Si2 0.163605 0.152082 0.055028
Si Si3 0.167799 0.195758 0.591714
Si Si4 0.336778 0.007066 0.666224
Si Si5 0.662855 0.541656 0.444420
Si Si6 0.340323 0.400097 0.334450
O O1 0.787241 0.293128 0.750000
O O2 0.757764 0.338392 0.625729
O O3 0.771449 0.244777 0.627575
O O4 0.000000 0.298611 0.658587
O O5 0.185045 0.096637 0.026276
O O6 0.000000 0.160755 0.075602
O O7 0.211614 0.189131 0.991611
O O8 0.226913 0.149563 0.635369
O O9 0.000000 0.196497 0.600165
O O10 0.318347 0.997580 0.750000
O O11 0.500000 0.010467 0.643675
O O12 0.260080 0.056319 0.640558
O O13 0.260767 0.962544 0.626006
O O14 0.712568 0.500000 0.500000
O O15 0.500000 0.532912 0.422363
O O16 0.344894 0.395383 0.250000
O O17 0.500000 0.409530 0.364753
#
# Coordination Sequence:
#
# PCOD8259921 Si02
#       6
#    16  16  16  16  16  16
#     4  10  21  37  57  81 110 144 180 216 257 312
#     4  10  21  36  56  81 108 138 174 221 271 317
#     4   9  17  33  57  82 107 138 179 222 264 314
#     4  10  21  35  51  76 111 146 180 221 271 327
#     4  10  21  38  59  81 105 138 183 230 274 322
#     4   9  16  29  53  81 107 139 181 227 271 315
#
# _framework density 19.907864
#
# number of rings (size 3 to 8) (size 9 to 14) (size 15 to 20)
#    0.000    2.333    0.000    2.500    0.000    7.667 
#    0.000    6.667    0.000    2.000    0.000    0.000 
#    0.000    0.000    0.000    0.000    0.000    0.000 
#
# Total GULP energy -595165.990177 kJ/mol
# GULP energy per Si atom -12399.291462 kJ/mol
# Density = 1.986255 g / cm^3
# Si number density = 19.907864 Si / 1000 Ang^3
#
#
#
# Elastic Constant Matrix: (Units=GPa)
#
#
# Indices 1 2 3 4 5 6 
#
# 1 63.5764 31.4806 39.9628 0.0000 0.0000 0.0000
# 2 31.4806 92.3447 54.6483 0.0000 0.0000 0.0000
# 3 39.9628 54.6483 90.8355 0.0000 0.0000 0.0000
# 4 0.0000 0.0000 0.0000 40.3378 0.0000 0.0000
# 5 0.0000 0.0000 0.0000 0.0000 28.9730 0.0000
# 6 0.0000 0.0000 0.0000 0.0000 0.0000 18.6973
#
#
#
# Elastic Compliance Matrix: (Units=1/GPa)
#
#
# Indices 1 2 3 4 5 6 
#
# 1 0.022190 -0.002776 -0.008093 0.000000 0.000000 0.000000
# 2 -0.002776 0.017163 -0.009105 0.000000 0.000000 0.000000
# 3 -0.008093 -0.009105 0.020047 0.000000 0.000000 0.000000
# 4 0.000000 0.000000 0.000000 0.024791 0.000000 0.000000
# 5 0.000000 0.000000 0.000000 0.000000 0.034515 0.000000
# 6 0.000000 0.000000 0.000000 0.000000 0.000000 0.053484
#
#
# Mechanical properties :
#
#
# Convention : Reuss Voigt Hill
#
# Bulk Modulus (GPa) = 51.40195 55.43778 53.41986
# Shear Modulus (GPa) = 22.87073 25.64595 24.25834
#
# Velocity S-wave (km/s) = 3.39311 3.59309 3.49453
# Velocity P-wave (km/s) = 6.42082 6.71724 6.57070
#
# Compressibility (1/GPa) = 0.01945451
#
# Stress axis : x y z
#
# Youngs Moduli (GPa) = 45.06452 58.26437 49.88336
#
# Poissons Ratio (x) = 0.16172 0.40369
# Poissons Ratio (y) = 0.12508 0.45417
# Poissons Ratio (z) = 0.36470 0.53047
#
# Static dielectric constant tensor:
#      x y z
#    x 3.380090 0.000000 0.000000 
#    y 0.000000 3.707790 0.000000 
#    z 0.000000 0.000000 3.597780 
# 
# 
# High freq. dielectric constant tensor:
#      x y z
#    x 1.747220 0.000000 0.000000 
#    y 0.000000 1.779210 0.000000 
#    z 0.000000 0.000000 1.781650 
# 
# From -- ./inp_files/51251.got.cif
#   From: 2010.03.12/outbox.cif.g09.slc.cpg/sg63_26_cif.got.tgz:51251.got - 2010.04.10 19:34:48.
