data_PCOD8259708
_publ_section_title
;
Structure prediction by ZEFSAII (Michael W. Deem and Ramdas Pophale) SiO2 
 PCOD8259708
Probable space group: C M C M
;
_chemical_formula_sum "Si O2"
_cell_formula_units_Z 96
_cell_length_a 28.408650
_cell_length_b 11.080737
_cell_length_c 15.665130
_cell_angle_alpha 90.000000
_cell_angle_beta 90.000000
_cell_angle_gamma 90.000000
_cell_volume 4931.207148
_symmetry_space_group_name_H-M "C M C M"
_symmetry_group_IT_number 63
_symmetry_cell_setting 'orthorhombic'
loop_
_space_group_symop_operation_xyz
x,y,z
-x,-y,1/2+z
x,-y,-z
-x,y,1/2-z
-x,-y,-z
x,y,1/2-z
-x,y,z
x,-y,1/2+z
1/2+x,1/2+y,z
1/2-x,1/2-y,1/2+z
1/2+x,1/2-y,-z
1/2-x,1/2+y,1/2-z
1/2-x,1/2-y,-z
1/2+x,1/2+y,1/2-z
1/2-x,1/2+y,z
1/2+x,1/2-y,1/2+z
loop_
_atom_site_type_symbol
_atom_site_label
_atom_site_fract_x
_atom_site_fract_y
_atom_site_fract_z
Si Si1 0.390895 0.496441 0.398441
Si Si2 0.556107 0.632591 0.750000
Si Si3 0.444529 0.099499 0.250000
Si Si4 0.446842 0.056023 0.907558
Si Si5 0.121549 0.256303 0.151954
Si Si6 0.717650 0.527481 0.596626
Si Si7 0.226844 0.236705 0.348082
O O1 0.403368 0.500000 0.500000
O O2 0.425051 0.415432 0.340991
O O3 0.399561 0.624576 0.355925
O O4 0.337155 0.456254 0.381472
O O5 0.500000 0.619232 0.750000
O O6 0.575981 0.767585 0.750000
O O7 0.500000 0.106514 0.250000
O O8 0.427043 0.034641 0.164002
O O9 0.500000 0.098317 0.884741
O O10 0.411202 0.166335 0.909610
O O11 0.445712 0.000000 0.000000
O O12 0.118830 0.300313 0.250000
O O13 0.174501 0.257791 0.114387
O O14 0.726351 0.500000 0.500000
O O15 0.739979 0.659687 0.612775
O O16 0.740325 0.406687 0.641423
O O17 0.226545 0.267204 0.250000
#
# Coordination Sequence:
#
# PCOD8259708 Si02
#       7
#    16   8   8  16  16  16  16
#     4  10  23  41  62  88 121 159 198 247 300 353
#     4  11  24  41  61  86 122 160 196 247 302 356
#     4   9  20  39  55  78 118 148 184 247 293 338
#     4  10  21  37  59  84 113 154 196 241 302 355
#     4  10  20  38  58  84 119 153 199 254 291 344
#     4  10  21  40  61  87 122 160 199 247 301 356
#     4  10  21  36  59  86 121 156 197 248 298 353
#
# _framework density 19.467849999999999
#
# number of rings (size 3 to 8) (size 9 to 14) (size 15 to 20)
#    0.000    2.000    1.667    1.000    4.667    1.667 
#    3.000    0.000    0.000    0.000    0.000    0.000 
#    0.000    0.000    0.000    0.000    0.000    0.000 
#
# Total GULP energy -594667.103490 kJ/mol
# GULP energy per Si atom -12388.897989 kJ/mol
# Density = 1.942354 g / cm^3
# Si number density = 19.467850 Si / 1000 Ang^3
#
#
#
# Elastic Constant Matrix: (Units=GPa)
#
#
# Indices 1 2 3 4 5 6 
#
# 1 68.8855 46.1662 28.6257 0.0000 0.0000 0.0000
# 2 46.1662 94.2218 21.4238 0.0000 0.0000 0.0000
# 3 28.6257 21.4238 90.0058 0.0000 0.0000 0.0000
# 4 0.0000 0.0000 0.0000 27.7860 0.0000 0.0000
# 5 0.0000 0.0000 0.0000 0.0000 42.8345 0.0000
# 6 0.0000 0.0000 0.0000 0.0000 0.0000 32.0308
#
#
#
# Elastic Compliance Matrix: (Units=1/GPa)
#
#
# Indices 1 2 3 4 5 6 
#
# 1 0.023582 -0.010413 -0.005022 0.000000 0.000000 0.000000
# 2 -0.010413 0.015818 -0.000453 0.000000 0.000000 0.000000
# 3 -0.005022 -0.000453 0.012815 0.000000 0.000000 0.000000
# 4 0.000000 0.000000 0.000000 0.035989 0.000000 0.000000
# 5 0.000000 0.000000 0.000000 0.000000 0.023346 0.000000
# 6 0.000000 0.000000 0.000000 0.000000 0.000000 0.031220
#
#
# Mechanical properties :
#
#
# Convention : Reuss Voigt Hill
#
# Bulk Modulus (GPa) = 48.92336 49.50493 49.21414
# Shear Modulus (GPa) = 27.56946 30.99009 29.27977
#
# Velocity S-wave (km/s) = 3.76726 3.99414 3.88236
# Velocity P-wave (km/s) = 6.64138 6.83777 6.74029
#
# Compressibility (1/GPa) = 0.02044014
#
# Stress axis : x y z
#
# Youngs Moduli (GPa) = 42.40497 63.21753 78.03103
#
# Poissons Ratio (x) = 0.65827 0.39184
# Poissons Ratio (y) = 0.44156 0.03538
# Poissons Ratio (z) = 0.21294 0.02867
#
# Static dielectric constant tensor:
#      x y z
#    x 3.703010 0.000000 0.000000 
#    y 0.000000 5.907450 0.000000 
#    z 0.000000 0.000000 3.635430 
# 
# 
# High freq. dielectric constant tensor:
#      x y z
#    x 1.742200 0.000000 0.000000 
#    y 0.000000 1.765840 0.000000 
#    z 0.000000 0.000000 1.768790 
# 
# From -- ./inp_files/38462.got.cif
#   From: 2010.03.12/outbox.cif.g09.slc.cpg/sg63_20_cif.got.tgz:38462.got - 2010.04.10 19:34:48.
