data_PCOD8259901
_publ_section_title
;
Structure prediction by ZEFSAII (Michael W. Deem and Ramdas Pophale) SiO2 
 PCOD8259901
Probable space group: C M C M
;
_chemical_formula_sum "Si O2"
_cell_formula_units_Z 64
_cell_length_a 11.604545
_cell_length_b 17.047648
_cell_length_c 16.854943
_cell_angle_alpha 90.000000
_cell_angle_beta 90.000000
_cell_angle_gamma 90.000000
_cell_volume 3334.416717
_symmetry_space_group_name_H-M "C M C M"
_symmetry_group_IT_number 63
_symmetry_cell_setting 'orthorhombic'
loop_
_space_group_symop_operation_xyz
x,y,z
-x,-y,1/2+z
x,-y,-z
-x,y,1/2-z
-x,-y,-z
x,y,1/2-z
-x,y,z
x,-y,1/2+z
1/2+x,1/2+y,z
1/2-x,1/2-y,1/2+z
1/2+x,1/2-y,-z
1/2-x,1/2+y,1/2-z
1/2-x,1/2-y,-z
1/2+x,1/2+y,1/2-z
1/2-x,1/2+y,z
1/2+x,1/2-y,1/2+z
loop_
_atom_site_type_symbol
_atom_site_label
_atom_site_fract_x
_atom_site_fract_y
_atom_site_fract_z
Si Si1 0.262821 0.701667 0.419647
Si Si2 0.000000 0.887094 0.573198
Si Si3 0.500000 0.434193 0.390591
Si Si4 0.864952 0.414284 0.487210
Si Si5 0.230589 0.146766 0.838553
O O1 0.250000 0.750000 0.500000
O O2 0.389914 0.666104 0.404468
O O3 0.174360 0.630629 0.433157
O O4 0.221599 0.758215 0.348297
O O5 0.000000 0.906168 0.480736
O O6 0.000000 0.970869 0.619054
O O7 0.389813 0.397497 0.348057
O O8 0.812513 0.500000 0.500000
O O9 0.821263 0.381795 0.403531
O O10 0.000000 0.413613 0.482453
O O11 0.276635 0.129502 0.750000
#
# Coordination Sequence:
#
# PCOD8259901 Si02
#       5
#    16   8   8  16  16
#     4  10  21  34  61  86 119 152 194 245 286 352
#     4  11  20  38  64  94 112 155 212 251 289 337
#     4  11  21  38  66  88 120 153 204 251 293 353
#     4  10  21  38  62  87 112 154 201 239 286 349
#     4  11  24  38  58  88 122 156 190 243 308 355
#
# _framework density 19.193760999999999
#
# number of rings (size 3 to 8) (size 9 to 14) (size 15 to 20)
#    0.000    1.500    5.000    1.875    8.750    0.500 
#    0.000    6.250    0.000    1.500    0.000    0.000 
#    0.000    0.000    0.000    0.000    0.000    0.000 
#
# Total GULP energy -396561.241264 kJ/mol
# GULP energy per Si atom -12392.538789 kJ/mol
# Density = 1.915008 g / cm^3
# Si number density = 19.193761 Si / 1000 Ang^3
#
#
#
# Elastic Constant Matrix: (Units=GPa)
#
#
# Indices 1 2 3 4 5 6 
#
# 1 69.0388 52.8077 25.0848 0.0000 0.0000 0.0000
# 2 52.8077 151.4360 38.9869 0.0000 0.0000 0.0000
# 3 25.0848 38.9869 84.4209 0.0000 0.0000 0.0000
# 4 0.0000 0.0000 0.0000 15.5893 0.0000 0.0000
# 5 0.0000 0.0000 0.0000 0.0000 0.2079 0.0000
# 6 0.0000 0.0000 0.0000 0.0000 0.0000 40.1914
#
#
#
# Elastic Compliance Matrix: (Units=1/GPa)
#
#
# Indices 1 2 3 4 5 6 
#
# 1 0.020471 -0.006324 -0.003162 0.000000 0.000000 0.000000
# 2 -0.006324 0.009448 -0.002484 0.000000 0.000000 0.000000
# 3 -0.003162 -0.002484 0.013932 0.000000 0.000000 0.000000
# 4 0.000000 0.000000 0.000000 0.064147 0.000000 0.000000
# 5 0.000000 0.000000 0.000000 0.000000 4.810248 0.000000
# 6 0.000000 0.000000 0.000000 0.000000 0.000000 0.024881
#
#
# Mechanical properties :
#
#
# Convention : Reuss Voigt Hill
#
# Bulk Modulus (GPa) = 50.22515 59.85052 55.03783
# Shear Modulus (GPa) = 1.00529 23.73214 12.36871
#
# Velocity S-wave (km/s) = 0.72450 3.52013 2.54128
# Velocity P-wave (km/s) = 5.18884 6.91171 6.11130
#
# Compressibility (1/GPa) = 0.01991034
#
# Stress axis : x y z
#
# Youngs Moduli (GPa) = 48.84938 105.83786 71.77614
#
# Poissons Ratio (x) = 0.66937 0.22696
# Poissons Ratio (y) = 0.30895 0.17830
# Poissons Ratio (z) = 0.15446 0.26292
#
# Static dielectric constant tensor:
#      x y z
#    x 3.523020 0.000000 0.000000 
#    y 0.000000 4.819870 0.000000 
#    z 0.000000 0.000000 3.781850 
# 
# 
# High freq. dielectric constant tensor:
#      x y z
#    x 1.749150 0.000000 0.000000 
#    y 0.000000 1.771100 0.000000 
#    z 0.000000 0.000000 1.714090 
# 
# From -- ./inp_files/41554.got.cif
#   From: 2010.03.12/outbox.cif.g09.slc.cpg/sg63_21_cif.got.tgz:41554.got - 2010.04.10 19:34:48.
