data_PCOD8259086
_publ_section_title
;
Structure prediction by ZEFSAII (Michael W. Deem and Ramdas Pophale) SiO2 
 PCOD8259086
Probable space group: C M C M
;
_chemical_formula_sum "Si O2"
_cell_formula_units_Z 72
_cell_length_a 13.787266
_cell_length_b 9.832070
_cell_length_c 27.147036
_cell_angle_alpha 90.000000
_cell_angle_beta 90.000000
_cell_angle_gamma 90.000000
_cell_volume 3679.980652
_symmetry_space_group_name_H-M "C M C M"
_symmetry_group_IT_number 63
_symmetry_cell_setting 'orthorhombic'
loop_
_space_group_symop_operation_xyz
x,y,z
-x,-y,1/2+z
x,-y,-z
-x,y,1/2-z
-x,-y,-z
x,y,1/2-z
-x,y,z
x,-y,1/2+z
1/2+x,1/2+y,z
1/2-x,1/2-y,1/2+z
1/2+x,1/2-y,-z
1/2-x,1/2+y,1/2-z
1/2-x,1/2-y,-z
1/2+x,1/2+y,1/2-z
1/2-x,1/2+y,z
1/2+x,1/2-y,1/2+z
loop_
_atom_site_type_symbol
_atom_site_label
_atom_site_fract_x
_atom_site_fract_y
_atom_site_fract_z
Si Si1 0.500000 0.528342 0.943332
Si Si2 0.840991 0.500000 0.000000
Si Si3 0.707824 0.861616 0.093068
Si Si4 0.837261 0.083317 0.377062
Si Si5 0.000000 0.810583 0.807583
Si Si6 0.000000 0.577901 0.873672
Si Si7 0.000000 0.653303 0.439159
O O1 0.594733 0.458947 0.921771
O O2 0.500000 0.687370 0.930153
O O3 0.500000 0.500000 0.000000
O O4 0.771670 0.586215 0.962760
O O5 0.905224 0.393170 0.969070
O O6 0.734520 0.705127 0.104558
O O7 0.591927 0.860611 0.098495
O O8 0.764228 0.956684 0.132839
O O9 0.902217 0.119728 0.329247
O O10 0.000000 0.646062 0.818972
O O11 0.000000 0.834541 0.750000
O O12 0.000000 0.415141 0.883396
#
# Coordination Sequence:
#
# PCOD8259086 Si02
#       7
#     8   8  16  16   8   8   8
#     4  11  22  35  53  77 124 169 212 234 283 338
#     4   9  18  30  52  75 118 164 196 225 286 317
#     4  10  20  35  53  82 121 153 197 235 277 338
#     4  10  23  36  56  88 114 149 196 243 286 346
#     4   9  19  44  67  81 108 150 184 237 312 372
#     4   8  18  35  58  82 111 148 189 239 296 346
#     4   9  17  32  52  80 112 162 205 249 267 329
#
# _framework density 19.56532
#
# number of rings (size 3 to 8) (size 9 to 14) (size 15 to 20)
#    0.000    2.444    0.000    2.667    7.778    2.667 
#    0.000    4.444    0.000    2.667    0.000    0.000 
#    0.000    0.000    0.000    0.000    0.000    0.000 
#
# Total GULP energy -445978.714833 kJ/mol
# GULP energy per Si atom -12388.297634 kJ/mol
# Density = 1.952079 g / cm^3
# Si number density = 19.565320 Si / 1000 Ang^3
#
#
#
# Elastic Constant Matrix: (Units=GPa)
#
#
# Indices 1 2 3 4 5 6 
#
# 1 62.6129 38.6630 27.6244 0.0000 0.0000 0.0000
# 2 38.6630 163.3180 51.4431 0.0000 0.0000 0.0000
# 3 27.6244 51.4431 119.5851 0.0000 0.0000 0.0000
# 4 0.0000 0.0000 0.0000 20.9465 0.0000 0.0000
# 5 0.0000 0.0000 0.0000 0.0000 8.9093 0.0000
# 6 0.0000 0.0000 0.0000 0.0000 0.0000 27.1427
#
#
#
# Elastic Compliance Matrix: (Units=1/GPa)
#
#
# Indices 1 2 3 4 5 6 
#
# 1 0.019549 -0.003708 -0.002921 0.000000 0.000000 0.000000
# 2 -0.003708 0.007786 -0.002493 0.000000 0.000000 0.000000
# 3 -0.002921 -0.002493 0.010109 0.000000 0.000000 0.000000
# 4 0.000000 0.000000 0.000000 0.047741 0.000000 0.000000
# 5 0.000000 0.000000 0.000000 0.000000 0.112243 0.000000
# 6 0.000000 0.000000 0.000000 0.000000 0.000000 0.036842
#
#
# Mechanical properties :
#
#
# Convention : Reuss Voigt Hill
#
# Bulk Modulus (GPa) = 52.07937 64.55298 58.31618
# Shear Modulus (GPa) = 19.31142 26.58542 22.94842
#
# Velocity S-wave (km/s) = 3.14510 3.69019 3.42850
# Velocity P-wave (km/s) = 6.31386 7.15695 6.74858
#
# Compressibility (1/GPa) = 0.01920146
#
# Stress axis : x y z
#
# Youngs Moduli (GPa) = 51.15225 128.43486 98.91844
#
# Poissons Ratio (x) = 0.47624 0.28893
# Poissons Ratio (y) = 0.18967 0.24659
# Poissons Ratio (z) = 0.14941 0.32017
#
# Static dielectric constant tensor:
#      x y z
#    x 3.745620 0.000000 0.000000 
#    y 0.000000 3.982370 0.000000 
#    z 0.000000 0.000000 3.120820 
# 
# 
# High freq. dielectric constant tensor:
#      x y z
#    x 1.769140 0.000000 0.000000 
#    y 0.000000 1.774800 0.000000 
#    z 0.000000 0.000000 1.702000 
# 
# From -- ./inp_files/69125.got.cif
#   From: 2010.03.12/outbox.cif.g09.slc.cpg/sg63_35_cif.got.tgz:69125.got - 2010.04.10 19:34:48.
