data_PCOD8259792
_publ_section_title
;
Structure prediction by ZEFSAII (Michael W. Deem and Ramdas Pophale) SiO2 
 PCOD8259792
Probable space group: C M C M
;
_chemical_formula_sum "Si O2"
_cell_formula_units_Z 96
_cell_length_a 16.028466
_cell_length_b 17.607857
_cell_length_c 18.251358
_cell_angle_alpha 90.000000
_cell_angle_beta 90.000000
_cell_angle_gamma 90.000000
_cell_volume 5151.024869
_symmetry_space_group_name_H-M "C M C M"
_symmetry_group_IT_number 63
_symmetry_cell_setting 'orthorhombic'
loop_
_space_group_symop_operation_xyz
x,y,z
-x,-y,1/2+z
x,-y,-z
-x,y,1/2-z
-x,-y,-z
x,y,1/2-z
-x,y,z
x,-y,1/2+z
1/2+x,1/2+y,z
1/2-x,1/2-y,1/2+z
1/2+x,1/2-y,-z
1/2-x,1/2+y,1/2-z
1/2-x,1/2-y,-z
1/2+x,1/2+y,1/2-z
1/2-x,1/2+y,z
1/2+x,1/2-y,1/2+z
loop_
_atom_site_type_symbol
_atom_site_label
_atom_site_fract_x
_atom_site_fract_y
_atom_site_fract_z
Si Si1 0.500000 0.731047 0.334566
Si Si2 0.148933 0.516466 0.579791
Si Si3 0.827533 0.794812 0.909381
Si Si4 0.319348 0.865720 0.833088
Si Si5 0.272995 0.647905 0.939029
Si Si6 0.905416 0.213917 0.664986
Si Si7 0.500000 0.089244 0.832952
O O1 0.500000 0.701840 0.250000
O O2 0.579029 0.700477 0.379468
O O3 0.500000 0.821019 0.334906
O O4 0.110353 0.500000 0.500000
O O5 0.170712 0.436020 0.614020
O O6 0.233621 0.565106 0.572497
O O7 0.082530 0.559673 0.628599
O O8 0.770141 0.826489 0.844199
O O9 0.801435 0.708975 0.930059
O O10 0.815842 0.846654 0.981348
O O11 0.328137 0.893686 0.750000
O O12 0.388899 0.802564 0.853285
O O13 0.345035 0.658437 0.879194
O O14 0.888004 0.198373 0.750000
O O15 0.000000 0.195159 0.642911
O O16 0.500000 0.058680 0.750000
#
# Coordination Sequence:
#
# PCOD8259792 Si02
#       7
#     8  16  16  16  16  16   8
#     4  11  22  37  63  90 119 151 195 253 299 349
#     4  12  23  41  58  86 124 158 195 236 291 358
#     4  10  20  39  58  86 117 150 203 241 291 350
#     4  10  21  37  61  86 119 158 193 241 293 352
#     4  10  21  37  60  84 117 160 198 240 290 346
#     4   9  20  37  59  89 117 151 200 246 291 345
#     4  11  25  39  57  91 124 155 191 234 295 360
#
# _framework density 18.637066999999998
#
# number of rings (size 3 to 8) (size 9 to 14) (size 15 to 20)
#    0.000    1.667    3.333    1.250    2.333    2.000 
#    0.000    0.000    1.833    1.500    0.000    0.000 
#    0.000    0.000    0.000    0.000    0.000    0.000 
#
# Total GULP energy -595308.487602 kJ/mol
# GULP energy per Si atom -12402.260158 kJ/mol
# Density = 1.859465 g / cm^3
# Si number density = 18.637067 Si / 1000 Ang^3
#
#
#
# Elastic Constant Matrix: (Units=GPa)
#
#
# Indices 1 2 3 4 5 6 
#
# 1 118.7605 15.2622 55.8908 0.0000 0.0000 0.0000
# 2 15.2622 45.0408 35.9889 0.0000 0.0000 0.0000
# 3 55.8908 35.9889 121.0426 0.0000 0.0000 0.0000
# 4 0.0000 0.0000 0.0000 32.4040 0.0000 0.0000
# 5 0.0000 0.0000 0.0000 0.0000 39.3686 0.0000
# 6 0.0000 0.0000 0.0000 0.0000 0.0000 2.5996
#
#
#
# Elastic Compliance Matrix: (Units=1/GPa)
#
#
# Indices 1 2 3 4 5 6 
#
# 1 0.010764 0.000425 -0.005097 0.000000 0.000000 0.000000
# 2 0.000425 0.029137 -0.008859 0.000000 0.000000 0.000000
# 3 -0.005097 -0.008859 0.013249 0.000000 0.000000 0.000000
# 4 0.000000 0.000000 0.000000 0.030860 0.000000 0.000000
# 5 0.000000 0.000000 0.000000 0.000000 0.025401 0.000000
# 6 0.000000 0.000000 0.000000 0.000000 0.000000 0.384675
#
#
# Mechanical properties :
#
#
# Convention : Reuss Voigt Hill
#
# Bulk Modulus (GPa) = 38.33175 55.45865 46.89520
# Shear Modulus (GPa) = 9.43673 26.72123 18.07898
#
# Velocity S-wave (km/s) = 2.25265 3.79062 3.11795
# Velocity P-wave (km/s) = 5.23240 6.99858 6.17892
#
# Compressibility (1/GPa) = 0.02608804
#
# Stress axis : x y z
#
# Youngs Moduli (GPa) = 92.89968 34.32069 75.47736
#
# Poissons Ratio (x) = -0.01458 0.38468
# Poissons Ratio (y) = -0.03947 0.66868
# Poissons Ratio (z) = 0.47348 0.30406
#
# Static dielectric constant tensor:
#      x y z
#    x 3.706090 0.000000 0.000000 
#    y 0.000000 3.257720 0.000000 
#    z 0.000000 0.000000 3.643210 
# 
# 
# High freq. dielectric constant tensor:
#      x y z
#    x 1.720320 0.000000 0.000000 
#    y 0.000000 1.705780 0.000000 
#    z 0.000000 0.000000 1.741630 
# 
# From -- ./inp_files/54237.got.cif
#   From: 2010.03.12/outbox.cif.g09.slc.cpg/sg63_28_cif.got.tgz:54237.got - 2010.04.10 19:34:48.
