data_PCOD8259550
_publ_section_title
;
Structure prediction by ZEFSAII (Michael W. Deem and Ramdas Pophale) SiO2 
 PCOD8259550
Probable space group: C M C M
;
_chemical_formula_sum "Si O2"
_cell_formula_units_Z 96
_cell_length_a 20.154282
_cell_length_b 8.793860
_cell_length_c 26.911425
_cell_angle_alpha 90.000000
_cell_angle_beta 90.000000
_cell_angle_gamma 90.000000
_cell_volume 4769.617731
_symmetry_space_group_name_H-M "C M C M"
_symmetry_group_IT_number 63
_symmetry_cell_setting 'orthorhombic'
loop_
_space_group_symop_operation_xyz
x,y,z
-x,-y,1/2+z
x,-y,-z
-x,y,1/2-z
-x,-y,-z
x,y,1/2-z
-x,y,z
x,-y,1/2+z
1/2+x,1/2+y,z
1/2-x,1/2-y,1/2+z
1/2+x,1/2-y,-z
1/2-x,1/2+y,1/2-z
1/2-x,1/2-y,-z
1/2+x,1/2+y,1/2-z
1/2-x,1/2+y,z
1/2+x,1/2-y,1/2+z
loop_
_atom_site_type_symbol
_atom_site_label
_atom_site_fract_x
_atom_site_fract_y
_atom_site_fract_z
Si Si1 0.782095 0.677441 0.194473
Si Si2 0.924364 0.366048 0.097537
Si Si3 0.844431 0.647475 0.805630
Si Si4 0.424638 0.464374 0.944311
Si Si5 0.189106 0.854349 0.100543
Si Si6 0.195323 0.460139 0.556009
O O1 0.803692 0.728078 0.250000
O O2 0.799057 0.501704 0.185093
O O3 0.702913 0.704969 0.187669
O O4 0.819574 0.784227 0.155319
O O5 0.903702 0.342080 0.154946
O O6 0.916311 0.213098 0.066134
O O7 0.878950 0.489691 0.070324
O O8 0.000000 0.424426 0.096652
O O9 0.875150 0.643981 0.750000
O O10 0.500000 0.518329 0.935910
O O11 0.378963 0.556964 0.906981
O O12 0.400883 0.500000 0.000000
O O13 0.199428 0.720690 0.060571
O O14 0.252417 0.964828 0.094353
O O15 0.214409 0.500000 0.500000
#
# Coordination Sequence:
#
# PCOD8259550 Si02
#       6
#    16  16  16  16  16  16
#     4  10  20  36  60  89 116 149 193 242 302 357
#     4  11  23  40  60  85 119 162 205 248 302 359
#     4  10  21  39  61  90 120 154 197 248 305 358
#     4  10  23  42  62  85 120 163 202 244 299 361
#     4  12  21  38  61  88 120 153 194 251 303 354
#     4  12  24  37  59  90 120 156 200 251 299 355
#
# _framework density 20.127397999999999
#
# number of rings (size 3 to 8) (size 9 to 14) (size 15 to 20)
#    0.000    1.167    3.333    3.000    2.333    1.333 
#    0.000    0.000    0.000    1.500    0.000    0.000 
#    0.000    0.000    0.000    0.000    0.000    0.000 
#
# Total GULP energy -595322.289466 kJ/mol
# GULP energy per Si atom -12402.547697 kJ/mol
# Density = 2.008159 g / cm^3
# Si number density = 20.127398 Si / 1000 Ang^3
#
#
#
# Elastic Constant Matrix: (Units=GPa)
#
#
# Indices 1 2 3 4 5 6 
#
# 1 101.9107 34.4009 22.9459 0.0000 0.0000 0.0000
# 2 34.4009 47.5666 -10.6764 0.0000 0.0000 0.0000
# 3 22.9459 -10.6764 91.1060 0.0000 0.0000 0.0000
# 4 0.0000 0.0000 0.0000 33.3815 0.0000 0.0000
# 5 0.0000 0.0000 0.0000 0.0000 27.5306 0.0000
# 6 0.0000 0.0000 0.0000 0.0000 0.0000 31.0832
#
#
#
# Elastic Compliance Matrix: (Units=1/GPa)
#
#
# Indices 1 2 3 4 5 6 
#
# 1 0.015054 -0.012055 -0.005204 0.000000 0.000000 0.000000
# 2 -0.012055 0.031245 0.006698 0.000000 0.000000 0.000000
# 3 -0.005204 0.006698 0.013072 0.000000 0.000000 0.000000
# 4 0.000000 0.000000 0.000000 0.029957 0.000000 0.000000
# 5 0.000000 0.000000 0.000000 0.000000 0.036323 0.000000
# 6 0.000000 0.000000 0.000000 0.000000 0.000000 0.032172
#
#
# Mechanical properties :
#
#
# Convention : Reuss Voigt Hill
#
# Bulk Modulus (GPa) = 26.14565 37.10270 31.62417
# Shear Modulus (GPa) = 26.08327 31.32659 28.70493
#
# Velocity S-wave (km/s) = 3.60378 3.94942 3.78055
# Velocity P-wave (km/s) = 5.50768 6.26667 5.89940
#
# Compressibility (1/GPa) = 0.03824728
#
# Stress axis : x y z
#
# Youngs Moduli (GPa) = 66.42965 32.00532 76.50060
#
# Poissons Ratio (x) = 0.38582 0.39811
# Poissons Ratio (y) = 0.80081 -0.51237
# Poissons Ratio (z) = 0.34570 -0.21436
#
# Static dielectric constant tensor:
#      x y z
#    x 3.500600 0.000000 0.000000 
#    y 0.000000 3.676430 0.000000 
#    z 0.000000 0.000000 3.911250 
# 
# 
# High freq. dielectric constant tensor:
#      x y z
#    x 1.764040 0.000000 0.000000 
#    y 0.000000 1.788300 0.000000 
#    z 0.000000 0.000000 1.804970 
# 
# From -- ./inp_files/70249.got.cif
#   From: 2010.03.12/outbox.cif.g09.slc.cpg/sg63_36_cif.got.tgz:70249.got - 2010.04.10 19:34:48.
