data_PCOD8259193
_publ_section_title
;
Structure prediction by ZEFSAII (Michael W. Deem and Ramdas Pophale) SiO2 
 PCOD8259193
Probable space group: C M C M
;
_chemical_formula_sum "Si O2"
_cell_formula_units_Z 96
_cell_length_a 17.227449
_cell_length_b 14.588503
_cell_length_c 18.966251
_cell_angle_alpha 90.000000
_cell_angle_beta 90.000000
_cell_angle_gamma 90.000000
_cell_volume 4766.649247
_symmetry_space_group_name_H-M "C M C M"
_symmetry_group_IT_number 63
_symmetry_cell_setting 'orthorhombic'
loop_
_space_group_symop_operation_xyz
x,y,z
-x,-y,1/2+z
x,-y,-z
-x,y,1/2-z
-x,-y,-z
x,y,1/2-z
-x,y,z
x,-y,1/2+z
1/2+x,1/2+y,z
1/2-x,1/2-y,1/2+z
1/2+x,1/2-y,-z
1/2-x,1/2+y,1/2-z
1/2-x,1/2-y,-z
1/2+x,1/2+y,1/2-z
1/2-x,1/2+y,z
1/2+x,1/2-y,1/2+z
loop_
_atom_site_type_symbol
_atom_site_label
_atom_site_fract_x
_atom_site_fract_y
_atom_site_fract_z
Si Si1 0.211327 0.987079 0.079213
Si Si2 0.850996 0.495719 0.330112
Si Si3 0.909007 0.140022 0.074918
Si Si4 0.681315 0.289490 0.051089
Si Si5 0.408357 0.196853 0.829196
Si Si6 0.412398 0.813379 0.830691
O O1 0.207163 0.878769 0.095403
O O2 0.274526 0.030675 0.130381
O O3 0.131120 0.042367 0.090985
O O4 0.241414 0.000000 0.000000
O O5 0.828102 0.477006 0.250000
O O6 0.882967 0.400484 0.363006
O O7 0.914331 0.576124 0.336178
O O8 0.874780 0.217713 0.127121
O O9 0.000000 0.124082 0.083764
O O10 0.890010 0.175860 0.996887
O O11 0.648996 0.221020 0.110617
O O12 0.750000 0.250000 0.000000
O O13 0.377118 0.207244 0.750000
O O14 0.500000 0.200446 0.831679
O O15 0.388187 0.784858 0.750000
O O16 0.500000 0.778324 0.846446
#
# Coordination Sequence:
#
# PCOD8259193 Si02
#       6
#    16  16  16  16  16  16
#     4  10  22  37  55  78 108 143 183 230 279 331
#     4  10  20  35  56  81 110 144 182 225 277 335
#     4  10  21  37  57  80 107 145 188 230 281 337
#     4  11  22  38  59  82 112 148 189 234 281 337
#     4   9  18  34  56  81 109 142 182 227 273 328
#     4  10  21  37  58  85 116 149 185 230 287 346
#
# _framework density 20.139932999999999
#
# number of rings (size 3 to 8) (size 9 to 14) (size 15 to 20)
#    0.000    2.000    0.000    4.000    0.000    7.000 
#    0.000    4.167    0.000    7.000    0.000    0.000 
#    0.000    0.000    0.000    0.000    0.000    0.000 
#
# Total GULP energy -594883.020465 kJ/mol
# GULP energy per Si atom -12393.396260 kJ/mol
# Density = 2.009409 g / cm^3
# Si number density = 20.139933 Si / 1000 Ang^3
#
#
#
# Elastic Constant Matrix: (Units=GPa)
#
#
# Indices 1 2 3 4 5 6 
#
# 1 71.7132 33.4320 40.1954 0.0000 0.0000 0.0000
# 2 33.4320 120.8698 40.0581 0.0000 0.0000 0.0000
# 3 40.1954 40.0581 71.8657 0.0000 0.0000 0.0000
# 4 0.0000 0.0000 0.0000 33.0647 0.0000 0.0000
# 5 0.0000 0.0000 0.0000 0.0000 32.2239 0.0000
# 6 0.0000 0.0000 0.0000 0.0000 0.0000 28.8909
#
#
#
# Elastic Compliance Matrix: (Units=1/GPa)
#
#
# Indices 1 2 3 4 5 6 
#
# 1 0.020834 -0.002331 -0.010353 0.000000 0.000000 0.000000
# 2 -0.002331 0.010409 -0.004498 0.000000 0.000000 0.000000
# 3 -0.010353 -0.004498 0.022213 0.000000 0.000000 0.000000
# 4 0.000000 0.000000 0.000000 0.030244 0.000000 0.000000
# 5 0.000000 0.000000 0.000000 0.000000 0.031033 0.000000
# 6 0.000000 0.000000 0.000000 0.000000 0.000000 0.034613
#
#
# Mechanical properties :
#
#
# Convention : Reuss Voigt Hill
#
# Bulk Modulus (GPa) = 52.38194 54.64665 53.51429
# Shear Modulus (GPa) = 26.30541 28.88677 27.59609
#
# Velocity S-wave (km/s) = 3.61797 3.79133 3.70566
# Velocity P-wave (km/s) = 6.59684 6.80867 6.70359
#
# Compressibility (1/GPa) = 0.01909055
#
# Stress axis : x y z
#
# Youngs Moduli (GPa) = 47.99747 96.07141 45.01902
#
# Poissons Ratio (x) = 0.22398 0.46610
# Poissons Ratio (y) = 0.11190 0.20249
# Poissons Ratio (z) = 0.49694 0.43213
#
# Static dielectric constant tensor:
#      x y z
#    x 3.456700 0.000000 0.000000 
#    y 0.000000 3.888910 0.000000 
#    z 0.000000 0.000000 3.720400 
# 
# 
# High freq. dielectric constant tensor:
#      x y z
#    x 1.778230 0.000000 0.000000 
#    y 0.000000 1.795380 0.000000 
#    z 0.000000 0.000000 1.779940 
# 
# From -- ./inp_files/54222.got.cif
#   From: 2010.03.12/outbox.cif.g09.slc.cpg/sg63_28_cif.got.tgz:54222.got - 2010.04.10 19:34:48.
