data_PCOD8259322
_publ_section_title
;
Structure prediction by ZEFSAII (Michael W. Deem and Ramdas Pophale) SiO2 
 PCOD8259322
Probable space group: C M C M
;
_chemical_formula_sum "Si O2"
_cell_formula_units_Z 104
_cell_length_a 20.899952
_cell_length_b 27.784250
_cell_length_c 9.165792
_cell_angle_alpha 90.000000
_cell_angle_beta 90.000000
_cell_angle_gamma 90.000000
_cell_volume 5322.479094
_symmetry_space_group_name_H-M "C M C M"
_symmetry_group_IT_number 63
_symmetry_cell_setting 'orthorhombic'
loop_
_space_group_symop_operation_xyz
x,y,z
-x,-y,1/2+z
x,-y,-z
-x,y,1/2-z
-x,-y,-z
x,y,1/2-z
-x,y,z
x,-y,1/2+z
1/2+x,1/2+y,z
1/2-x,1/2-y,1/2+z
1/2+x,1/2-y,-z
1/2-x,1/2+y,1/2-z
1/2-x,1/2-y,-z
1/2+x,1/2+y,1/2-z
1/2-x,1/2+y,z
1/2+x,1/2-y,1/2+z
loop_
_atom_site_type_symbol
_atom_site_label
_atom_site_fract_x
_atom_site_fract_y
_atom_site_fract_z
Si Si1 0.000000 0.448792 0.079176
Si Si2 0.738349 0.136343 0.083184
Si Si3 0.328077 0.454945 0.584659
Si Si4 0.840803 0.808779 0.419189
Si Si5 0.393948 0.128028 0.577452
Si Si6 0.570906 0.221835 0.417166
Si Si7 0.572696 0.600602 0.581396
O O1 0.063027 0.418233 0.035139
O O2 0.000000 0.459306 0.250000
O O3 0.000000 0.500000 0.000000
O O4 0.722816 0.150067 0.250000
O O5 0.780039 0.088903 0.070570
O O6 0.776445 0.181410 0.012107
O O7 0.674394 0.123817 0.997839
O O8 0.297296 0.500000 0.500000
O O9 0.340384 0.469929 0.750000
O O10 0.395811 0.441824 0.512225
O O11 0.821355 0.808073 0.250000
O O12 0.873864 0.758855 0.467467
O O13 0.893033 0.849270 0.452133
O O14 0.385377 0.131719 0.750000
O O15 0.428369 0.175845 0.520912
O O16 0.583722 0.206235 0.250000
O O17 0.500000 0.245481 0.429945
O O18 0.578760 0.586474 0.750000
O O19 0.500000 0.606171 0.531115
#
# Coordination Sequence:
#
# PCOD8259322 Si02
#       7
#     8  16  16  16  16  16  16
#     4  10  24  44  66  92 120 150 190 238 293 356
#     4  10  22  39  58  83 113 148 192 238 286 343
#     4  10  21  36  54  76 105 140 183 233 283 339
#     4   9  18  34  56  84 116 153 194 234 282 335
#     4  11  23  41  62  87 118 150 186 231 285 344
#     4  10  20  35  59  89 120 155 194 236 282 337
#     4   9  17  31  52  77 108 145 186 233 280 329
#
# _framework density 19.539767999999999
#
# number of rings (size 3 to 8) (size 9 to 14) (size 15 to 20)
#    0.000    2.154    0.769    1.846    0.000    7.385 
#    0.000    3.077    0.000    2.769    0.000    0.000 
#    0.000    0.000    0.000    0.000    0.000    0.000 
#
# Total GULP energy -644820.127372 kJ/mol
# GULP energy per Si atom -12400.387065 kJ/mol
# Density = 1.949529 g / cm^3
# Si number density = 19.539768 Si / 1000 Ang^3
#
#
#
# Elastic Constant Matrix: (Units=GPa)
#
#
# Indices 1 2 3 4 5 6 
#
# 1 135.3712 45.1169 64.7276 0.0000 0.0000 0.0000
# 2 45.1169 110.4487 60.2742 0.0000 0.0000 0.0000
# 3 64.7276 60.2742 109.8845 0.0000 0.0000 0.0000
# 4 0.0000 0.0000 0.0000 33.9654 0.0000 0.0000
# 5 0.0000 0.0000 0.0000 0.0000 28.2247 0.0000
# 6 0.0000 0.0000 0.0000 0.0000 0.0000 18.8287
#
#
#
# Elastic Compliance Matrix: (Units=1/GPa)
#
#
# Indices 1 2 3 4 5 6 
#
# 1 0.010411 -0.001293 -0.005423 0.000000 0.000000 0.000000
# 2 -0.001293 0.013083 -0.006414 0.000000 0.000000 0.000000
# 3 -0.005423 -0.006414 0.015814 0.000000 0.000000 0.000000
# 4 0.000000 0.000000 0.000000 0.029442 0.000000 0.000000
# 5 0.000000 0.000000 0.000000 0.000000 0.035430 0.000000
# 6 0.000000 0.000000 0.000000 0.000000 0.000000 0.053110
#
#
# Mechanical properties :
#
#
# Convention : Reuss Voigt Hill
#
# Bulk Modulus (GPa) = 76.65468 77.32686 76.99077
# Shear Modulus (GPa) = 26.60983 28.57612 27.59298
#
# Velocity S-wave (km/s) = 3.69430 3.82836 3.76193
# Velocity P-wave (km/s) = 7.58369 7.69427 7.63918
#
# Compressibility (1/GPa) = 0.01304552
#
# Stress axis : x y z
#
# Youngs Moduli (GPa) = 96.04938 76.43670 63.23662
#
# Poissons Ratio (x) = 0.09885 0.34296
# Poissons Ratio (y) = 0.12421 0.40563
# Poissons Ratio (z) = 0.52092 0.49030
#
# Static dielectric constant tensor:
#      x y z
#    x 3.663780 0.000000 0.000000 
#    y 0.000000 3.560780 0.000000 
#    z 0.000000 0.000000 3.626360 
# 
# 
# High freq. dielectric constant tensor:
#      x y z
#    x 1.768230 0.000000 0.000000 
#    y 0.000000 1.758650 0.000000 
#    z 0.000000 0.000000 1.760750 
# 
# From -- ./inp_files/8820.got.cif
#   From: 2010.03.12/outbox.cif.g09.slc.cpg/sg63_5_cif.got.tgz:8820.got - 2010.04.10 19:34:48.
