data_PCOD8259311
_publ_section_title
;
Structure prediction by ZEFSAII (Michael W. Deem and Ramdas Pophale) SiO2 
 PCOD8259311
Probable space group: C M C M
;
_chemical_formula_sum "Si O2"
_cell_formula_units_Z 64
_cell_length_a 15.355872
_cell_length_b 12.298494
_cell_length_c 17.152525
_cell_angle_alpha 90.000000
_cell_angle_beta 90.000000
_cell_angle_gamma 90.000000
_cell_volume 3239.324666
_symmetry_space_group_name_H-M "C M C M"
_symmetry_group_IT_number 63
_symmetry_cell_setting 'orthorhombic'
loop_
_space_group_symop_operation_xyz
x,y,z
-x,-y,1/2+z
x,-y,-z
-x,y,1/2-z
-x,-y,-z
x,y,1/2-z
-x,y,z
x,-y,1/2+z
1/2+x,1/2+y,z
1/2-x,1/2-y,1/2+z
1/2+x,1/2-y,-z
1/2-x,1/2+y,1/2-z
1/2-x,1/2-y,-z
1/2+x,1/2+y,1/2-z
1/2-x,1/2+y,z
1/2+x,1/2-y,1/2+z
loop_
_atom_site_type_symbol
_atom_site_label
_atom_site_fract_x
_atom_site_fract_y
_atom_site_fract_z
Si Si1 0.600164 0.387290 0.336860
Si Si2 0.000000 0.500847 0.091838
Si Si3 0.159135 0.111315 0.157374
Si Si4 0.355033 0.844980 0.842614
Si Si5 0.000000 0.740944 0.657230
O O1 0.639553 0.374318 0.250000
O O2 0.500000 0.417757 0.333361
O O3 0.645724 0.490111 0.378900
O O4 0.614843 0.271288 0.378467
O O5 0.087319 0.560091 0.120804
O O6 0.000000 0.378562 0.122238
O O7 0.000000 0.500000 0.000000
O O8 0.148996 0.103198 0.250000
O O9 0.254886 0.146838 0.131896
O O10 0.086339 0.195819 0.126602
O O11 0.368537 0.851966 0.750000
O O12 0.000000 0.731392 0.750000
#
# Coordination Sequence:
#
# PCOD8259311 Si02
#       5
#    16   8  16  16   8
#     4   9  15  28  51  81 114 139 171 224 278 330
#     4  12  26  41  54  76 116 161 197 236 279 332
#     4   9  18  31  56  92 118 138 175 232 292 339
#     4  10  20  35  59  86 110 145 189 233 281 337
#     4  10  20  37  60  87 116 145 180 233 290 342
#
# _framework density 19.757204999999999
#
# number of rings (size 3 to 8) (size 9 to 14) (size 15 to 20)
#    0.000    2.250    2.500    1.125    3.500    0.000 
#    0.000    1.250    0.000    1.500    0.000    0.000 
#    0.000    0.000    0.000    0.000    0.000    0.000 
#
# Total GULP energy -396612.911798 kJ/mol
# GULP energy per Si atom -12394.153494 kJ/mol
# Density = 1.971224 g / cm^3
# Si number density = 19.757205 Si / 1000 Ang^3
#
#
#
# Elastic Constant Matrix: (Units=GPa)
#
#
# Indices 1 2 3 4 5 6 
#
# 1 145.8284 72.6354 27.1449 0.0000 0.0000 0.0000
# 2 72.6354 186.3002 27.8826 0.0000 0.0000 0.0000
# 3 27.1449 27.8826 34.3531 0.0000 0.0000 0.0000
# 4 0.0000 0.0000 0.0000 3.4042 0.0000 0.0000
# 5 0.0000 0.0000 0.0000 0.0000 4.1328 0.0000
# 6 0.0000 0.0000 0.0000 0.0000 0.0000 35.6448
#
#
#
# Elastic Compliance Matrix: (Units=1/GPa)
#
#
# Indices 1 2 3 4 5 6 
#
# 1 0.009197 -0.002843 -0.004959 0.000000 0.000000 0.000000
# 2 -0.002843 0.006989 -0.003426 0.000000 0.000000 0.000000
# 3 -0.004959 -0.003426 0.035809 0.000000 0.000000 0.000000
# 4 0.000000 0.000000 0.000000 0.293754 0.000000 0.000000
# 5 0.000000 0.000000 0.000000 0.000000 0.241968 0.000000
# 6 0.000000 0.000000 0.000000 0.000000 0.000000 0.028055
#
#
# Mechanical properties :
#
#
# Convention : Reuss Voigt Hill
#
# Bulk Modulus (GPa) = 33.85521 69.08972 51.47246
# Shear Modulus (GPa) = 7.71517 24.55762 16.13639
#
# Velocity S-wave (km/s) = 1.97825 3.52940 2.86096
# Velocity P-wave (km/s) = 4.73189 7.18709 6.08461
#
# Compressibility (1/GPa) = 0.02953756
#
# Stress axis : x y z
#
# Youngs Moduli (GPa) = 108.73366 143.08155 27.92626
#
# Poissons Ratio (x) = 0.40685 0.13849
# Poissons Ratio (y) = 0.30918 0.09567
# Poissons Ratio (z) = 0.53923 0.49017
#
# Static dielectric constant tensor:
#      x y z
#    x 3.655360 0.000000 0.000000 
#    y 0.000000 3.973540 0.000000 
#    z 0.000000 0.000000 2.936130 
# 
# 
# High freq. dielectric constant tensor:
#      x y z
#    x 1.779450 0.000000 0.000000 
#    y 0.000000 1.797700 0.000000 
#    z 0.000000 0.000000 1.694300 
# 
# From -- ./inp_files/43470.got.cif
#   From: 2010.03.12/outbox.cif.g09.slc.cpg/sg63_22_cif.got.tgz:43470.got - 2010.04.10 19:34:48.
