data_PCOD8259212
_publ_section_title
;
Structure prediction by ZEFSAII (Michael W. Deem and Ramdas Pophale) SiO2 
 PCOD8259212
Probable space group: C M C M
;
_chemical_formula_sum "Si O2"
_cell_formula_units_Z 112
_cell_length_a 27.273631
_cell_length_b 11.259418
_cell_length_c 18.658352
_cell_angle_alpha 90.000000
_cell_angle_beta 90.000000
_cell_angle_gamma 90.000000
_cell_volume 5729.703976
_symmetry_space_group_name_H-M "C M C M"
_symmetry_group_IT_number 63
_symmetry_cell_setting 'orthorhombic'
loop_
_space_group_symop_operation_xyz
x,y,z
-x,-y,1/2+z
x,-y,-z
-x,y,1/2-z
-x,-y,-z
x,y,1/2-z
-x,y,z
x,-y,1/2+z
1/2+x,1/2+y,z
1/2-x,1/2-y,1/2+z
1/2+x,1/2-y,-z
1/2-x,1/2+y,1/2-z
1/2-x,1/2-y,-z
1/2+x,1/2+y,1/2-z
1/2-x,1/2+y,z
1/2+x,1/2-y,1/2+z
loop_
_atom_site_type_symbol
_atom_site_label
_atom_site_fract_x
_atom_site_fract_y
_atom_site_fract_z
Si Si1 0.554672 0.949269 0.669121
Si Si2 0.442210 0.587415 0.167637
Si Si3 0.229822 0.107834 0.917161
Si Si4 0.054959 0.321991 0.411329
Si Si5 0.880386 0.928261 0.072138
Si Si6 0.615416 0.162282 0.046240
Si Si7 0.228310 0.631382 0.070121
O O1 0.571477 0.923709 0.750000
O O2 0.500000 0.896884 0.655242
O O3 0.594651 0.894735 0.617522
O O4 0.553662 0.090060 0.656154
O O5 0.426797 0.605712 0.250000
O O6 0.500000 0.567464 0.160743
O O7 0.424538 0.699105 0.120162
O O8 0.414603 0.473692 0.136227
O O9 0.174747 0.072108 0.897785
O O10 0.240671 0.243937 0.886698
O O11 0.262999 0.995707 0.887446
O O12 0.234933 0.122515 0.002891
O O13 0.089641 0.380300 0.472632
O O14 0.000000 0.306496 0.443206
O O15 0.898136 0.798826 0.051691
O O16 0.886927 0.000000 0.000000
O O17 0.672967 0.135198 0.041099
#
# Coordination Sequence:
#
# PCOD8259212 Si02
#       7
#    16  16  16  16  16  16  16
#     4  10  22  39  55  76 116 160 190 228 292 354
#     4  10  22  38  58  84 115 155 196 231 281 349
#     4   9  18  32  51  80 114 146 180 230 289 343
#     4  10  20  35  56  82 115 148 192 243 283 332
#     4  11  20  37  56  84 118 145 183 237 286 336
#     4  11  22  33  57  91 113 142 193 247 286 333
#     4   9  18  31  52  82 115 144 181 239 285 345
#
# _framework density 19.547256999999998
#
# number of rings (size 3 to 8) (size 9 to 14) (size 15 to 20)
#    0.000    2.000    2.857    1.286    4.000    4.857 
#    0.000    1.429    0.000    0.857    0.000    0.000 
#    0.000    0.000    0.000    0.000    0.000    0.000 
#
# Total GULP energy -693917.472993 kJ/mol
# GULP energy per Si atom -12391.383446 kJ/mol
# Density = 1.950277 g / cm^3
# Si number density = 19.547257 Si / 1000 Ang^3
#
#
#
# Elastic Constant Matrix: (Units=GPa)
#
#
# Indices 1 2 3 4 5 6 
#
# 1 62.4081 29.2246 31.0568 0.0000 0.0000 0.0000
# 2 29.2246 123.2123 26.7657 0.0000 0.0000 0.0000
# 3 31.0568 26.7657 79.2181 0.0000 0.0000 0.0000
# 4 0.0000 0.0000 0.0000 21.8685 0.0000 0.0000
# 5 0.0000 0.0000 0.0000 0.0000 11.5377 0.0000
# 6 0.0000 0.0000 0.0000 0.0000 0.0000 30.4144
#
#
#
# Elastic Compliance Matrix: (Units=1/GPa)
#
#
# Indices 1 2 3 4 5 6 
#
# 1 0.021205 -0.003479 -0.007138 0.000000 0.000000 0.000000
# 2 -0.003479 0.009330 -0.001788 0.000000 0.000000 0.000000
# 3 -0.007138 -0.001788 0.016026 0.000000 0.000000 0.000000
# 4 0.000000 0.000000 0.000000 0.045728 0.000000 0.000000
# 5 0.000000 0.000000 0.000000 0.000000 0.086672 0.000000
# 6 0.000000 0.000000 0.000000 0.000000 0.000000 0.032879
#
#
# Mechanical properties :
#
#
# Convention : Reuss Voigt Hill
#
# Bulk Modulus (GPa) = 45.97643 48.77031 47.37337
# Shear Modulus (GPa) = 20.50020 24.61687 22.55854
#
# Velocity S-wave (km/s) = 3.24196 3.55258 3.40082
# Velocity P-wave (km/s) = 6.13069 6.46776 6.30148
#
# Compressibility (1/GPa) = 0.02175028
#
# Stress axis : x y z
#
# Youngs Moduli (GPa) = 47.15937 107.18412 62.39903
#
# Poissons Ratio (x) = 0.37289 0.44538
# Poissons Ratio (y) = 0.16407 0.11159
# Poissons Ratio (z) = 0.33661 0.19168
#
# Static dielectric constant tensor:
#      x y z
#    x 3.477780 0.000000 0.000000 
#    y 0.000000 4.329950 0.000000 
#    z 0.000000 0.000000 3.126230 
# 
# 
# High freq. dielectric constant tensor:
#      x y z
#    x 1.757800 0.000000 0.000000 
#    y 0.000000 1.786220 0.000000 
#    z 0.000000 0.000000 1.710720 
# 
# From -- ./inp_files/57574.got.cif
#   From: 2010.03.12/outbox.cif.g09.slc.cpg/sg63_29_cif.got.tgz:57574.got - 2010.04.10 19:34:48.
