data_PCOD8259251
_publ_section_title
;
Structure prediction by ZEFSAII (Michael W. Deem and Ramdas Pophale) SiO2 
 PCOD8259251
Probable space group: C M C M
;
_chemical_formula_sum "Si O2"
_cell_formula_units_Z 112
_cell_length_a 18.568043
_cell_length_b 12.255334
_cell_length_c 27.034373
_cell_angle_alpha 90.000000
_cell_angle_beta 90.000000
_cell_angle_gamma 90.000000
_cell_volume 6151.876191
_symmetry_space_group_name_H-M "C M C M"
_symmetry_group_IT_number 63
_symmetry_cell_setting 'orthorhombic'
loop_
_space_group_symop_operation_xyz
x,y,z
-x,-y,1/2+z
x,-y,-z
-x,y,1/2-z
-x,-y,-z
x,y,1/2-z
-x,y,z
x,-y,1/2+z
1/2+x,1/2+y,z
1/2-x,1/2-y,1/2+z
1/2+x,1/2-y,-z
1/2-x,1/2+y,1/2-z
1/2-x,1/2-y,-z
1/2+x,1/2+y,1/2-z
1/2-x,1/2+y,z
1/2+x,1/2-y,1/2+z
loop_
_atom_site_type_symbol
_atom_site_label
_atom_site_fract_x
_atom_site_fract_y
_atom_site_fract_z
Si Si1 0.418543 0.637811 0.955406
Si Si2 0.084383 0.023442 0.806887
Si Si3 0.171005 0.034393 0.398663
Si Si4 0.180845 0.231796 0.034864
Si Si5 0.914527 0.272152 0.696731
Si Si6 0.082139 0.362930 0.598285
Si Si7 0.309135 0.030463 0.945544
O O1 0.500000 0.611086 0.968295
O O2 0.386680 0.527819 0.932495
O O3 0.410549 0.738179 0.918108
O O4 0.381616 0.670712 0.006144
O O5 0.096070 0.985495 0.750000
O O6 0.109612 0.148249 0.813719
O O7 0.000000 0.007205 0.821540
O O8 0.137873 0.955874 0.843279
O O9 0.193730 0.155156 0.417582
O O10 0.246273 0.968042 0.404136
O O11 0.155222 0.349844 0.054172
O O12 0.250000 0.250000 0.000000
O O13 0.884073 0.311336 0.750000
O O14 0.889023 0.358262 0.655031
O O15 0.000000 0.270048 0.697711
O O16 0.128990 0.443501 0.565690
O O17 0.000000 0.403757 0.594433
O O18 0.276821 0.000000 0.000000
#
# Coordination Sequence:
#
# PCOD8259251 Si02
#       7
#    16  16  16  16  16  16  16
#     4  11  21  34  56  86 115 144 191 246 288 336
#     4   9  18  34  58  89 120 148 185 238 299 348
#     4  12  22  35  59  81 116 150 190 238 291 355
#     4  12  23  39  53  80 114 160 198 232 287 350
#     4   8  14  29  56  86 112 141 182 238 296 339
#     4  10  20  35  57  84 115 149 193 243 289 344
#     4  12  23  38  57  76 112 160 197 230 287 349
#
# _framework density 18.205826999999999
#
# number of rings (size 3 to 8) (size 9 to 14) (size 15 to 20)
#    0.000    1.429    5.714    1.714    0.000    2.571 
#    0.000    0.714    0.000    1.714    0.000    2.000 
#    0.000    0.000    0.000    0.000    0.000    0.000 
#
# Total GULP energy -694037.690978 kJ/mol
# GULP energy per Si atom -12393.530196 kJ/mol
# Density = 1.816439 g / cm^3
# Si number density = 18.205827 Si / 1000 Ang^3
#
#
#
# Elastic Constant Matrix: (Units=GPa)
#
#
# Indices 1 2 3 4 5 6 
#
# 1 80.3529 26.9091 42.5635 0.0000 0.0000 0.0000
# 2 26.9091 83.4085 33.6742 0.0000 0.0000 0.0000
# 3 42.5635 33.6742 106.6384 0.0000 0.0000 0.0000
# 4 0.0000 0.0000 0.0000 20.3491 0.0000 0.0000
# 5 0.0000 0.0000 0.0000 0.0000 30.9163 0.0000
# 6 0.0000 0.0000 0.0000 0.0000 0.0000 23.0939
#
#
#
# Elastic Compliance Matrix: (Units=1/GPa)
#
#
# Indices 1 2 3 4 5 6 
#
# 1 0.016428 -0.003040 -0.005597 0.000000 0.000000 0.000000
# 2 -0.003040 0.014304 -0.003303 0.000000 0.000000 0.000000
# 3 -0.005597 -0.003303 0.012655 0.000000 0.000000 0.000000
# 4 0.000000 0.000000 0.000000 0.049142 0.000000 0.000000
# 5 0.000000 0.000000 0.000000 0.000000 0.032345 0.000000
# 6 0.000000 0.000000 0.000000 0.000000 0.000000 0.043302
#
#
# Mechanical properties :
#
#
# Convention : Reuss Voigt Hill
#
# Bulk Modulus (GPa) = 51.26875 52.96593 52.11734
# Shear Modulus (GPa) = 25.18150 26.02205 25.60177
#
# Velocity S-wave (km/s) = 3.72312 3.78474 3.75406
# Velocity P-wave (km/s) = 6.83402 6.94659 6.89053
#
# Compressibility (1/GPa) = 0.01950506
#
# Stress axis : x y z
#
# Youngs Moduli (GPa) = 60.87155 69.91215 79.02283
#
# Poissons Ratio (x) = 0.21256 0.44229
# Poissons Ratio (y) = 0.18507 0.26103
# Poissons Ratio (z) = 0.34070 0.23094
#
# Static dielectric constant tensor:
#      x y z
#    x 3.228690 0.000000 0.000000 
#    y 0.000000 3.369100 0.000000 
#    z 0.000000 0.000000 3.811570 
# 
# 
# High freq. dielectric constant tensor:
#      x y z
#    x 1.689930 0.000000 0.000000 
#    y 0.000000 1.689760 0.000000 
#    z 0.000000 0.000000 1.700040 
# 
# From -- ./inp_files/70469.got.cif
#   From: 2010.03.12/outbox.cif.g09.slc.cpg/sg63_36_cif.got.tgz:70469.got - 2010.04.10 19:34:48.
