data_PCOD8259224
_publ_section_title
;
Structure prediction by ZEFSAII (Michael W. Deem and Ramdas Pophale) SiO2 
 PCOD8259224
Probable space group: C M C M
;
_chemical_formula_sum "Si O2"
_cell_formula_units_Z 104
_cell_length_a 20.815263
_cell_length_b 27.465312
_cell_length_c 9.217638
_cell_angle_alpha 90.000000
_cell_angle_beta 90.000000
_cell_angle_gamma 90.000000
_cell_volume 5269.702376
_symmetry_space_group_name_H-M "C M C M"
_symmetry_group_IT_number 63
_symmetry_cell_setting 'orthorhombic'
loop_
_space_group_symop_operation_xyz
x,y,z
-x,-y,1/2+z
x,-y,-z
-x,y,1/2-z
-x,-y,-z
x,y,1/2-z
-x,y,z
x,-y,1/2+z
1/2+x,1/2+y,z
1/2-x,1/2-y,1/2+z
1/2+x,1/2-y,-z
1/2-x,1/2+y,1/2-z
1/2-x,1/2-y,-z
1/2+x,1/2+y,1/2-z
1/2-x,1/2+y,z
1/2+x,1/2-y,1/2+z
loop_
_atom_site_type_symbol
_atom_site_label
_atom_site_fract_x
_atom_site_fract_y
_atom_site_fract_z
Si Si1 0.109797 0.374282 0.414932
Si Si2 0.172517 0.953758 0.916000
Si Si3 0.341500 0.304204 0.081625
Si Si4 0.073276 0.102457 0.583198
Si Si5 0.000000 0.551534 0.920766
Si Si6 0.071414 0.265989 0.085269
Si Si7 0.260793 0.860892 0.916872
O O1 0.133559 0.383051 0.250000
O O2 0.063215 0.417933 0.465815
O O3 0.071203 0.324091 0.425808
O O4 0.169693 0.372053 0.521311
O O5 0.161475 0.967687 0.750000
O O6 0.221790 0.910260 0.936481
O O7 0.104116 0.939563 0.985282
O O8 0.201515 0.000000 0.000000
O O9 0.326477 0.295767 0.250000
O O10 0.392791 0.346400 0.053373
O O11 0.372871 0.255447 0.016858
O O12 0.274356 0.317087 0.002927
O O13 0.080668 0.086871 0.750000
O O14 0.000000 0.108484 0.536000
O O15 0.000000 0.542223 0.750000
O O16 0.000000 0.500000 0.000000
O O17 0.085203 0.248984 0.250000
O O18 0.000000 0.248457 0.037123
O O19 0.266019 0.844951 0.750000
#
# Coordination Sequence:
#
# PCOD8259224 Si02
#       7
#    16  16  16  16   8  16  16
#     4  10  21  40  63  86 115 152 189 230 286 347
#     4  10  21  36  54  76 104 139 182 230 280 334
#     4  10  20  35  56  84 116 153 194 235 284 338
#     4   9  18  33  52  75 107 144 183 228 276 328
#     4  10  22  42  66  92 122 154 194 242 297 360
#     4  10  20  36  59  85 116 154 194 235 282 339
#     4  10  22  39  58  83 114 148 191 240 286 342
#
# _framework density 19.73546
#
# number of rings (size 3 to 8) (size 9 to 14) (size 15 to 20)
#    0.000    2.154    0.769    1.846    0.000    6.462 
#    0.000    3.077    0.000    0.000    0.000    0.000 
#    0.000    0.000    0.000    0.000    0.000    0.000 
#
# Total GULP energy -644936.296363 kJ/mol
# GULP energy per Si atom -12402.621084 kJ/mol
# Density = 1.969054 g / cm^3
# Si number density = 19.735460 Si / 1000 Ang^3
#
#
#
# Elastic Constant Matrix: (Units=GPa)
#
#
# Indices 1 2 3 4 5 6 
#
# 1 128.3189 33.7255 63.7997 0.0000 0.0000 0.0000
# 2 33.7255 87.3879 50.0749 0.0000 0.0000 0.0000
# 3 63.7997 50.0749 116.5783 0.0000 0.0000 0.0000
# 4 0.0000 0.0000 0.0000 34.9033 0.0000 0.0000
# 5 0.0000 0.0000 0.0000 0.0000 32.6671 0.0000
# 6 0.0000 0.0000 0.0000 0.0000 0.0000 15.7999
#
#
#
# Elastic Compliance Matrix: (Units=1/GPa)
#
#
# Indices 1 2 3 4 5 6 
#
# 1 0.010776 -0.001034 -0.005453 0.000000 0.000000 0.000000
# 2 -0.001034 0.015279 -0.005997 0.000000 0.000000 0.000000
# 3 -0.005453 -0.005997 0.014138 0.000000 0.000000 0.000000
# 4 0.000000 0.000000 0.000000 0.028651 0.000000 0.000000
# 5 0.000000 0.000000 0.000000 0.000000 0.030612 0.000000
# 6 0.000000 0.000000 0.000000 0.000000 0.000000 0.063292
#
#
# Mechanical properties :
#
#
# Convention : Reuss Voigt Hill
#
# Bulk Modulus (GPa) = 65.68295 69.72061 67.70178
# Shear Modulus (GPa) = 25.93488 28.98639 27.46063
#
# Velocity S-wave (km/s) = 3.62902 3.83658 3.73424
# Velocity P-wave (km/s) = 7.13538 7.41823 7.27818
#
# Compressibility (1/GPa) = 0.01522465
#
# Stress axis : x y z
#
# Youngs Moduli (GPa) = 92.79675 65.45095 70.72992
#
# Poissons Ratio (x) = 0.06767 0.38572
# Poissons Ratio (y) = 0.09595 0.42416
# Poissons Ratio (z) = 0.50606 0.39250
#
# Static dielectric constant tensor:
#      x y z
#    x 3.569970 0.000000 0.000000 
#    y 0.000000 3.531810 0.000000 
#    z 0.000000 0.000000 3.607990 
# 
# 
# High freq. dielectric constant tensor:
#      x y z
#    x 1.771190 0.000000 0.000000 
#    y 0.000000 1.766970 0.000000 
#    z 0.000000 0.000000 1.769990 
# 
# From -- ./inp_files/8826.got.cif
#   From: 2010.03.12/outbox.cif.g09.slc.cpg/sg63_5_cif.got.tgz:8826.got - 2010.04.10 19:34:48.
