data_PCOD8259627
_publ_section_title
;
Structure prediction by ZEFSAII (Michael W. Deem and Ramdas Pophale) SiO2 
 PCOD8259627
Probable space group: C M C M
;
_chemical_formula_sum "Si O2"
_cell_formula_units_Z 88
_cell_length_a 27.857058
_cell_length_b 18.991416
_cell_length_c 8.392433
_cell_angle_alpha 90.000000
_cell_angle_beta 90.000000
_cell_angle_gamma 90.000000
_cell_volume 4439.974524
_symmetry_space_group_name_H-M "C M C M"
_symmetry_group_IT_number 63
_symmetry_cell_setting 'orthorhombic'
loop_
_space_group_symop_operation_xyz
x,y,z
-x,-y,1/2+z
x,-y,-z
-x,y,1/2-z
-x,-y,-z
x,y,1/2-z
-x,y,z
x,-y,1/2+z
1/2+x,1/2+y,z
1/2-x,1/2-y,1/2+z
1/2+x,1/2-y,-z
1/2-x,1/2+y,1/2-z
1/2-x,1/2-y,-z
1/2+x,1/2+y,1/2-z
1/2-x,1/2+y,z
1/2+x,1/2-y,1/2+z
loop_
_atom_site_type_symbol
_atom_site_label
_atom_site_fract_x
_atom_site_fract_y
_atom_site_fract_z
Si Si1 0.000000 0.577068 0.438852
Si Si2 0.576711 0.175772 0.934028
Si Si3 0.447787 0.677223 0.564696
Si Si4 0.323499 0.813911 0.937692
Si Si5 0.343984 0.342987 0.438010
Si Si6 0.747088 0.422772 0.437990
O O1 0.000000 0.500000 0.500000
O O2 0.952854 0.608549 0.517215
O O3 0.000000 0.584757 0.250000
O O4 0.569897 0.195937 0.750000
O O5 0.557798 0.239602 0.042006
O O6 0.631108 0.154030 0.971369
O O7 0.450188 0.659659 0.750000
O O8 0.500000 0.652524 0.489724
O O9 0.398268 0.643520 0.490084
O O10 0.330646 0.820016 0.750000
O O11 0.320462 0.731695 0.992475
O O12 0.278026 0.859930 0.987948
O O13 0.349978 0.340028 0.250000
O O14 0.308110 0.405732 0.489040
O O15 0.761562 0.500000 0.500000
O O16 0.753719 0.420943 0.250000
#
# Coordination Sequence:
#
# PCOD8259627 Si02
#       6
#     8  16  16  16  16  16
#     4  12  24  38  52  70 100 142 183 222 265 314
#     4  11  21  34  52  78 108 137 173 217 267 318
#     4   9  16  30  55  82 108 138 174 219 271 320
#     4  10  20  37  59  82 106 138 182 229 278 327
#     4   8  17  33  55  83 111 141 181 228 274 327
#     4  11  22  37  55  78 110 146 185 228 278 333
#
# _framework density 19.819932999999999
#
# number of rings (size 3 to 8) (size 9 to 14) (size 15 to 20)
#    0.000    2.000    0.909    5.182    0.000    0.727 
#    0.000   11.818    0.000    0.545    0.000    0.000 
#    0.000    0.000    0.000    0.000    0.000    0.182 
#
# Total GULP energy -545125.563612 kJ/mol
# GULP energy per Si atom -12389.217355 kJ/mol
# Density = 1.977482 g / cm^3
# Si number density = 19.819933 Si / 1000 Ang^3
#
#
#
# Elastic Constant Matrix: (Units=GPa)
#
#
# Indices 1 2 3 4 5 6 
#
# 1 120.6709 21.7887 15.1803 0.0000 0.0000 0.0000
# 2 21.7887 42.9360 9.1883 0.0000 0.0000 0.0000
# 3 15.1803 9.1883 58.6635 0.0000 0.0000 0.0000
# 4 0.0000 0.0000 0.0000 13.5341 0.0000 0.0000
# 5 0.0000 0.0000 0.0000 0.0000 19.3786 0.0000
# 6 0.0000 0.0000 0.0000 0.0000 0.0000 3.9397
#
#
#
# Elastic Compliance Matrix: (Units=1/GPa)
#
#
# Indices 1 2 3 4 5 6 
#
# 1 0.009288 -0.004345 -0.001723 0.000000 0.000000 0.000000
# 2 -0.004345 0.026131 -0.002968 0.000000 0.000000 0.000000
# 3 -0.001723 -0.002968 0.017957 0.000000 0.000000 0.000000
# 4 0.000000 0.000000 0.000000 0.073888 0.000000 0.000000
# 5 0.000000 0.000000 0.000000 0.000000 0.051603 0.000000
# 6 0.000000 0.000000 0.000000 0.000000 0.000000 0.253826
#
#
# Mechanical properties :
#
#
# Convention : Reuss Voigt Hill
#
# Bulk Modulus (GPa) = 28.32579 34.95388 31.63984
# Shear Modulus (GPa) = 10.81003 19.11134 14.96069
#
# Velocity S-wave (km/s) = 2.33794 3.10860 2.75040
# Velocity P-wave (km/s) = 4.64871 5.52798 5.10730
#
# Compressibility (1/GPa) = 0.03530352
#
# Stress axis : x y z
#
# Youngs Moduli (GPa) = 107.66271 38.26929 55.68806
#
# Poissons Ratio (x) = 0.16627 0.09595
# Poissons Ratio (y) = 0.46777 0.16531
# Poissons Ratio (z) = 0.18550 0.11360
#
# Static dielectric constant tensor:
#      x y z
#    x 4.457310 0.000000 0.000000 
#    y 0.000000 4.265860 0.000000 
#    z 0.000000 0.000000 3.466850 
# 
# 
# High freq. dielectric constant tensor:
#      x y z
#    x 1.797430 0.000000 0.000000 
#    y 0.000000 1.734970 0.000000 
#    z 0.000000 0.000000 1.758190 
# 
# From -- ./inp_files/14161.got.cif
#   From: 2010.03.12/outbox.cif.g09.slc.cpg/sg63_8_cif.got.tgz:14161.got - 2010.04.10 19:34:48.
