data_PCOD8259183
_publ_section_title
;
Structure prediction by ZEFSAII (Michael W. Deem and Ramdas Pophale) SiO2 
 PCOD8259183
Probable space group: C M C M
;
_chemical_formula_sum "Si O2"
_cell_formula_units_Z 112
_cell_length_a 17.500830
_cell_length_b 13.754472
_cell_length_c 23.804208
_cell_angle_alpha 90.000000
_cell_angle_beta 90.000000
_cell_angle_gamma 90.000000
_cell_volume 5730.022221
_symmetry_space_group_name_H-M "C M C M"
_symmetry_group_IT_number 63
_symmetry_cell_setting 'orthorhombic'
loop_
_space_group_symop_operation_xyz
x,y,z
-x,-y,1/2+z
x,-y,-z
-x,y,1/2-z
-x,-y,-z
x,y,1/2-z
-x,y,z
x,-y,1/2+z
1/2+x,1/2+y,z
1/2-x,1/2-y,1/2+z
1/2+x,1/2-y,-z
1/2-x,1/2+y,1/2-z
1/2-x,1/2-y,-z
1/2+x,1/2+y,1/2-z
1/2-x,1/2+y,z
1/2+x,1/2-y,1/2+z
loop_
_atom_site_type_symbol
_atom_site_label
_atom_site_fract_x
_atom_site_fract_y
_atom_site_fract_z
Si Si1 0.666979 0.653640 0.111363
Si Si2 0.913692 0.994768 0.686556
Si Si3 0.144581 0.198870 0.686908
Si Si4 0.156212 0.657918 0.410587
Si Si5 0.318321 0.835619 0.185664
Si Si6 0.911084 0.274745 0.021236
Si Si7 0.088426 0.451571 0.397217
O O1 0.638321 0.554217 0.139109
O O2 0.753793 0.638942 0.092389
O O3 0.654400 0.735264 0.158423
O O4 0.617022 0.682148 0.057116
O O5 0.883192 0.972695 0.750000
O O6 0.000000 0.956760 0.680063
O O7 0.913728 0.110803 0.676451
O O8 0.137271 0.241192 0.750000
O O9 0.127076 0.287326 0.645209
O O10 0.228116 0.152487 0.677225
O O11 0.137120 0.725219 0.463870
O O12 0.110229 0.558266 0.418336
O O13 0.343302 0.834290 0.250000
O O14 0.360518 0.926472 0.156935
O O15 0.894045 0.375348 0.053392
O O16 0.000000 0.262030 0.007634
O O17 0.000000 0.447787 0.379957
#
# Coordination Sequence:
#
# PCOD8259183 Si02
#       7
#    16  16  16  16  16  16  16
#     4  10  20  35  56  83 107 136 180 225 266 316
#     4  10  20  35  56  80 108 142 175 211 261 318
#     4   9  20  37  55  77 105 140 180 217 258 314
#     4  11  21  35  57  79 106 145 181 218 267 321
#     4   9  18  34  55  79 108 137 170 218 268 312
#     4  10  21  38  57  78 107 140 179 227 273 319
#     4  10  21  35  54  81 110 142 179 219 267 323
#
# _framework density 19.546173
#
# number of rings (size 3 to 8) (size 9 to 14) (size 15 to 20)
#    0.000    2.143    0.000    3.000    0.000    4.286 
#    0.000    2.143    0.000    1.714    0.000    0.000 
#    0.000    0.000    0.000    0.000    0.000    0.000 
#
# Total GULP energy -694601.173981 kJ/mol
# GULP energy per Si atom -12403.592393 kJ/mol
# Density = 1.950168 g / cm^3
# Si number density = 19.546173 Si / 1000 Ang^3
#
#
#
# Elastic Constant Matrix: (Units=GPa)
#
#
# Indices 1 2 3 4 5 6 
#
# 1 77.4089 20.2980 44.1012 0.0000 0.0000 0.0000
# 2 20.2980 62.2082 29.3359 0.0000 0.0000 0.0000
# 3 44.1012 29.3359 112.6119 0.0000 0.0000 0.0000
# 4 0.0000 0.0000 0.0000 27.4422 0.0000 0.0000
# 5 0.0000 0.0000 0.0000 0.0000 30.9033 0.0000
# 6 0.0000 0.0000 0.0000 0.0000 0.0000 27.1522
#
#
#
# Elastic Compliance Matrix: (Units=1/GPa)
#
#
# Indices 1 2 3 4 5 6 
#
# 1 0.017031 -0.002750 -0.005954 0.000000 0.000000 0.000000
# 2 -0.002750 0.018770 -0.003813 0.000000 0.000000 0.000000
# 3 -0.005954 -0.003813 0.012205 0.000000 0.000000 0.000000
# 4 0.000000 0.000000 0.000000 0.036440 0.000000 0.000000
# 5 0.000000 0.000000 0.000000 0.000000 0.032359 0.000000
# 6 0.000000 0.000000 0.000000 0.000000 0.000000 0.036829
#
#
# Mechanical properties :
#
#
# Convention : Reuss Voigt Hill
#
# Bulk Modulus (GPa) = 43.52692 48.85547 46.19119
# Shear Modulus (GPa) = 26.83478 27.66579 27.25029
#
# Velocity S-wave (km/s) = 3.70928 3.76627 3.73788
# Velocity P-wave (km/s) = 6.37668 6.63040 6.50478
#
# Compressibility (1/GPa) = 0.02297429
#
# Stress axis : x y z
#
# Youngs Moduli (GPa) = 58.71566 53.27557 81.93456
#
# Poissons Ratio (x) = 0.14649 0.48780
# Poissons Ratio (y) = 0.16145 0.31241
# Poissons Ratio (z) = 0.34956 0.20314
#
# Static dielectric constant tensor:
#      x y z
#    x 3.539410 0.000000 0.000000 
#    y 0.000000 3.376490 0.000000 
#    z 0.000000 0.000000 3.614410 
# 
# 
# High freq. dielectric constant tensor:
#      x y z
#    x 1.764710 0.000000 0.000000 
#    y 0.000000 1.747810 0.000000 
#    z 0.000000 0.000000 1.764370 
# 
# From -- ./inp_files/62972.got.cif
#   From: 2010.03.12/outbox.cif.g09.slc.cpg/sg63_32_cif.got.tgz:62972.got - 2010.04.10 19:34:48.
