data_PCOD8259763
_publ_section_title
;
Structure prediction by ZEFSAII (Michael W. Deem and Ramdas Pophale) SiO2 
 PCOD8259763
Probable space group: C M C M
;
_chemical_formula_sum "Si O2"
_cell_formula_units_Z 80
_cell_length_a 8.793606
_cell_length_b 24.993932
_cell_length_c 18.481607
_cell_angle_alpha 90.000000
_cell_angle_beta 90.000000
_cell_angle_gamma 90.000000
_cell_volume 4062.013084
_symmetry_space_group_name_H-M "C M C M"
_symmetry_group_IT_number 63
_symmetry_cell_setting 'orthorhombic'
loop_
_space_group_symop_operation_xyz
x,y,z
-x,-y,1/2+z
x,-y,-z
-x,y,1/2-z
-x,-y,-z
x,y,1/2-z
-x,y,z
x,-y,1/2+z
1/2+x,1/2+y,z
1/2-x,1/2-y,1/2+z
1/2+x,1/2-y,-z
1/2-x,1/2+y,1/2-z
1/2-x,1/2-y,-z
1/2+x,1/2+y,1/2-z
1/2-x,1/2+y,z
1/2+x,1/2-y,1/2+z
loop_
_atom_site_type_symbol
_atom_site_label
_atom_site_fract_x
_atom_site_fract_y
_atom_site_fract_z
Si Si1 0.179957 0.318326 0.829938
Si Si2 0.177790 0.018669 0.666604
Si Si3 0.678273 0.921285 0.583754
Si Si4 0.320693 0.724152 0.929639
Si Si5 0.822463 0.390637 0.422253
O O1 0.252015 0.323868 0.750000
O O2 0.238486 0.366476 0.880393
O O3 0.229473 0.261394 0.862526
O O4 0.000000 0.321894 0.825645
O O5 0.218826 0.006889 0.750000
O O6 0.227884 0.969185 0.617932
O O7 0.000000 0.028820 0.655936
O O8 0.266717 0.071500 0.642044
O O9 0.500000 0.931039 0.598167
O O10 0.714059 0.918776 0.498691
O O11 0.500000 0.723338 0.939732
O O12 0.262745 0.665140 0.914614
O O13 0.250000 0.750000 0.000000
O O14 0.000000 0.379282 0.414688
#
# Coordination Sequence:
#
# PCOD8259763 Si02
#       5
#    16  16  16  16  16
#     4   9  18  34  58  87 118 154 196 241 294 353
#     4  11  25  42  59  86 123 160 199 245 301 361
#     4  10  20  38  63  89 117 153 200 249 297 358
#     4  11  21  37  60  88 122 161 201 245 296 354
#     4  11  23  40  63  91 118 154 205 251 299 362
#
# _framework density 19.694666999999999
#
# number of rings (size 3 to 8) (size 9 to 14) (size 15 to 20)
#    0.000    1.600    2.000    3.000    0.000    7.200 
#    0.000    2.000    0.000    3.000    0.000    0.000 
#    0.000    0.000    0.000    0.000    0.000    0.000 
#
# Total GULP energy -496136.807460 kJ/mol
# GULP energy per Si atom -12403.420186 kJ/mol
# Density = 1.964984 g / cm^3
# Si number density = 19.694667 Si / 1000 Ang^3
#
#
#
# Elastic Constant Matrix: (Units=GPa)
#
#
# Indices 1 2 3 4 5 6 
#
# 1 59.4659 30.0812 29.8752 0.0000 0.0000 0.0000
# 2 30.0812 119.3185 26.2599 0.0000 0.0000 0.0000
# 3 29.8752 26.2599 73.4710 0.0000 0.0000 0.0000
# 4 0.0000 0.0000 0.0000 31.4838 0.0000 0.0000
# 5 0.0000 0.0000 0.0000 0.0000 28.0238 0.0000
# 6 0.0000 0.0000 0.0000 0.0000 0.0000 39.2309
#
#
#
# Elastic Compliance Matrix: (Units=1/GPa)
#
#
# Indices 1 2 3 4 5 6 
#
# 1 0.022783 -0.004021 -0.007827 0.000000 0.000000 0.000000
# 2 -0.004021 0.009806 -0.001870 0.000000 0.000000 0.000000
# 3 -0.007827 -0.001870 0.017462 0.000000 0.000000 0.000000
# 4 0.000000 0.000000 0.000000 0.031762 0.000000 0.000000
# 5 0.000000 0.000000 0.000000 0.000000 0.035684 0.000000
# 6 0.000000 0.000000 0.000000 0.000000 0.000000 0.025490
#
#
# Mechanical properties :
#
#
# Convention : Reuss Voigt Hill
#
# Bulk Modulus (GPa) = 44.21836 47.18755 45.70296
# Shear Modulus (GPa) = 28.09610 30.81698 29.45654
#
# Velocity S-wave (km/s) = 3.78111 3.95997 3.87157
# Velocity P-wave (km/s) = 6.44695 6.70224 6.57583
#
# Compressibility (1/GPa) = 0.02261504
#
# Stress axis : x y z
#
# Youngs Moduli (GPa) = 43.89319 101.97620 57.26832
#
# Poissons Ratio (x) = 0.41006 0.44822
# Poissons Ratio (y) = 0.17650 0.10708
# Poissons Ratio (z) = 0.34354 0.19068
#
# Static dielectric constant tensor:
#      x y z
#    x 3.441410 0.000000 0.000000 
#    y 0.000000 3.724300 0.000000 
#    z 0.000000 0.000000 4.035340 
# 
# 
# High freq. dielectric constant tensor:
#      x y z
#    x 1.753540 0.000000 0.000000 
#    y 0.000000 1.782710 0.000000 
#    z 0.000000 0.000000 1.776040 
# 
# From -- ./inp_files/40525.got.cif
#   From: 2010.03.12/outbox.cif.g09.slc.cpg/sg63_21_cif.got.tgz:40525.got - 2010.04.10 19:34:48.
