data_PCOD8259082
_publ_section_title
;
Structure prediction by ZEFSAII (Michael W. Deem and Ramdas Pophale) SiO2 
 PCOD8259082
Probable space group: C M C M
;
_chemical_formula_sum "Si O2"
_cell_formula_units_Z 96
_cell_length_a 8.977319
_cell_length_b 20.015973
_cell_length_c 28.286080
_cell_angle_alpha 90.000000
_cell_angle_beta 90.000000
_cell_angle_gamma 90.000000
_cell_volume 5082.719343
_symmetry_space_group_name_H-M "C M C M"
_symmetry_group_IT_number 63
_symmetry_cell_setting 'orthorhombic'
loop_
_space_group_symop_operation_xyz
x,y,z
-x,-y,1/2+z
x,-y,-z
-x,y,1/2-z
-x,-y,-z
x,y,1/2-z
-x,y,z
x,-y,1/2+z
1/2+x,1/2+y,z
1/2-x,1/2-y,1/2+z
1/2+x,1/2-y,-z
1/2-x,1/2+y,1/2-z
1/2-x,1/2-y,-z
1/2+x,1/2+y,1/2-z
1/2-x,1/2+y,z
1/2+x,1/2-y,1/2+z
loop_
_atom_site_type_symbol
_atom_site_label
_atom_site_fract_x
_atom_site_fract_y
_atom_site_fract_z
Si Si1 0.174406 0.797713 0.462201
Si Si2 0.176828 0.120172 0.801672
Si Si3 0.176852 0.866461 0.695761
Si Si4 0.677458 0.504024 0.142002
Si Si5 0.326600 0.252754 0.358002
Si Si6 0.322623 0.548363 0.958088
O O1 0.250000 0.750000 0.500000
O O2 0.208455 0.760368 0.413125
O O3 0.236171 0.874685 0.463286
O O4 0.000000 0.800343 0.472658
O O5 0.246268 0.131295 0.750000
O O6 0.239315 0.051766 0.822596
O O7 0.228657 0.178735 0.835455
O O8 0.000000 0.117054 0.799074
O O9 0.238461 0.868446 0.750000
O O10 0.229445 0.802425 0.667485
O O11 0.000000 0.868003 0.697579
O O12 0.239290 0.927355 0.663949
O O13 0.500000 0.504931 0.140214
O O14 0.738719 0.486731 0.089679
O O15 0.500000 0.238151 0.348491
O O16 0.500000 0.551305 0.956810
O O17 0.265263 0.500000 0.000000
#
# Coordination Sequence:
#
# PCOD8259082 Si02
#       6
#    16  16  16  16  16  16
#     4  10  21  36  55  80 108 137 174 218 264 318
#     4   9  15  26  48  73  96 127 168 214 258 298
#     4  10  21  34  51  80 112 140 173 215 264 313
#     4   9  16  29  48  73 104 133 168 216 262 305
#     4  10  20  35  53  76 106 139 176 214 255 312
#     4   9  17  30  50  76 102 131 171 218 265 310
#
# _framework density 18.887528
#
# number of rings (size 3 to 8) (size 9 to 14) (size 15 to 20)
#    0.000    2.500    1.667    1.000    2.333    3.667 
#    0.000    0.000    0.000    2.500    0.000    0.000 
#    0.000    0.000    0.000    0.000    0.000    0.000 
#
# Total GULP energy -594864.678476 kJ/mol
# GULP energy per Si atom -12393.014135 kJ/mol
# Density = 1.884454 g / cm^3
# Si number density = 18.887528 Si / 1000 Ang^3
#
#
#
# Elastic Constant Matrix: (Units=GPa)
#
#
# Indices 1 2 3 4 5 6 
#
# 1 9.1356 14.8232 19.5879 0.0000 0.0000 0.0000
# 2 14.8232 100.3473 41.4520 0.0000 0.0000 0.0000
# 3 19.5879 41.4520 134.4304 0.0000 0.0000 0.0000
# 4 0.0000 0.0000 0.0000 45.9232 0.0000 0.0000
# 5 0.0000 0.0000 0.0000 0.0000 20.2970 0.0000
# 6 0.0000 0.0000 0.0000 0.0000 0.0000 12.4856
#
#
#
# Elastic Compliance Matrix: (Units=1/GPa)
#
#
# Indices 1 2 3 4 5 6 
#
# 1 0.185170 -0.018573 -0.021254 0.000000 0.000000 0.000000
# 2 -0.018573 0.013283 -0.001390 0.000000 0.000000 0.000000
# 3 -0.021254 -0.001390 0.010964 0.000000 0.000000 0.000000
# 4 0.000000 0.000000 0.000000 0.021775 0.000000 0.000000
# 5 0.000000 0.000000 0.000000 0.000000 0.049268 0.000000
# 6 0.000000 0.000000 0.000000 0.000000 0.000000 0.080092
#
#
# Mechanical properties :
#
#
# Convention : Reuss Voigt Hill
#
# Bulk Modulus (GPa) = 7.87504 43.95994 25.91749
# Shear Modulus (GPa) = 10.30258 26.94452 18.62355
#
# Velocity S-wave (km/s) = 2.33806 3.78110 3.14351
# Velocity P-wave (km/s) = 3.38633 6.51056 5.18915
#
# Compressibility (1/GPa) = 0.12698342
#
# Stress axis : x y z
#
# Youngs Moduli (GPa) = 5.40044 75.28401 91.20613
#
# Poissons Ratio (x) = 1.39829 1.93849
# Poissons Ratio (y) = 0.10030 0.12673
# Poissons Ratio (z) = 0.11478 0.10461
#
# Static dielectric constant tensor:
#      x y z
#    x 2.853420 0.000000 0.000000 
#    y 0.000000 3.809440 0.000000 
#    z 0.000000 0.000000 3.775210 
# 
# 
# High freq. dielectric constant tensor:
#      x y z
#    x 1.664270 0.000000 0.000000 
#    y 0.000000 1.750760 0.000000 
#    z 0.000000 0.000000 1.755460 
# 
# From -- ./inp_files/61447.got.cif
#   From: 2010.03.12/outbox.cif.g09.slc.cpg/sg63_31_cif.got.tgz:61447.got - 2010.04.10 19:34:48.
