data_PCOD8259160
_publ_section_title
;
Structure prediction by ZEFSAII (Michael W. Deem and Ramdas Pophale) SiO2 
 PCOD8259160
Probable space group: C M C M
;
_chemical_formula_sum "Si O2"
_cell_formula_units_Z 96
_cell_length_a 29.831763
_cell_length_b 9.576205
_cell_length_c 18.723257
_cell_angle_alpha 90.000000
_cell_angle_beta 90.000000
_cell_angle_gamma 90.000000
_cell_volume 5348.767904
_symmetry_space_group_name_H-M "C M C M"
_symmetry_group_IT_number 63
_symmetry_cell_setting 'orthorhombic'
loop_
_space_group_symop_operation_xyz
x,y,z
-x,-y,1/2+z
x,-y,-z
-x,y,1/2-z
-x,-y,-z
x,y,1/2-z
-x,y,z
x,-y,1/2+z
1/2+x,1/2+y,z
1/2-x,1/2-y,1/2+z
1/2+x,1/2-y,-z
1/2-x,1/2+y,1/2-z
1/2-x,1/2-y,-z
1/2+x,1/2+y,1/2-z
1/2-x,1/2+y,z
1/2+x,1/2-y,1/2+z
loop_
_atom_site_type_symbol
_atom_site_label
_atom_site_fract_x
_atom_site_fract_y
_atom_site_fract_z
Si Si1 0.551400 0.578508 0.070583
Si Si2 0.948532 0.176714 0.668062
Si Si3 0.622459 0.864413 0.590167
Si Si4 0.787851 0.614142 0.167573
Si Si5 0.879883 0.682176 0.926054
Si Si6 0.203925 0.707551 0.666646
O O1 0.500000 0.620647 0.057316
O O2 0.557322 0.479970 0.139155
O O3 0.577258 0.721092 0.086616
O O4 0.570204 0.500000 0.000000
O O5 0.932823 0.179270 0.750000
O O6 0.919079 0.280857 0.621635
O O7 0.000000 0.224999 0.660037
O O8 0.668295 0.825314 0.629629
O O9 0.632019 0.822998 0.509087
O O10 0.609598 0.026439 0.601417
O O11 0.794802 0.647089 0.250000
O O12 0.781115 0.450971 0.152109
O O13 0.743936 0.693715 0.139572
O O14 0.838891 0.746773 0.881112
O O15 0.192320 0.732028 0.750000
#
# Coordination Sequence:
#
# PCOD8259160 Si02
#       6
#    16  16  16  16  16  16
#     4  10  20  37  57  79 110 146 181 223 272 324
#     4  10  21  37  57  82 111 144 183 225 271 325
#     4  10  20  35  55  81 112 144 182 225 272 330
#     4   9  18  34  53  74 105 143 181 223 273 324
#     4  10  21  35  55  82 110 143 182 225 275 326
#     4   9  19  35  53  75 104 139 180 225 271 323
#
# _framework density 17.948058
#
# number of rings (size 3 to 8) (size 9 to 14) (size 15 to 20)
#    0.000    2.333    1.667    0.500    0.000    4.000 
#    0.000    3.333    0.000    2.000    0.000    0.000 
#    0.000    0.000    0.000    0.000    0.000    0.000 
#
# Total GULP energy -595313.753124 kJ/mol
# GULP energy per Si atom -12402.369857 kJ/mol
# Density = 1.790721 g / cm^3
# Si number density = 17.948058 Si / 1000 Ang^3
#
#
#
# Elastic Constant Matrix: (Units=GPa)
#
#
# Indices 1 2 3 4 5 6 
#
# 1 114.0148 64.4704 45.6494 0.0000 0.0000 0.0000
# 2 64.4704 75.2016 28.1719 0.0000 0.0000 0.0000
# 3 45.6494 28.1719 70.9867 0.0000 0.0000 0.0000
# 4 0.0000 0.0000 0.0000 24.4594 0.0000 0.0000
# 5 0.0000 0.0000 0.0000 0.0000 32.5146 0.0000
# 6 0.0000 0.0000 0.0000 0.0000 0.0000 35.7376
#
#
#
# Elastic Compliance Matrix: (Units=1/GPa)
#
#
# Indices 1 2 3 4 5 6 
#
# 1 0.019571 -0.014170 -0.006962 0.000000 0.000000 0.000000
# 2 -0.014170 0.025879 -0.001158 0.000000 0.000000 0.000000
# 3 -0.006962 -0.001158 0.019024 0.000000 0.000000 0.000000
# 4 0.000000 0.000000 0.000000 0.040884 0.000000 0.000000
# 5 0.000000 0.000000 0.000000 0.000000 0.030755 0.000000
# 6 0.000000 0.000000 0.000000 0.000000 0.000000 0.027982
#
#
# Mechanical properties :
#
#
# Convention : Reuss Voigt Hill
#
# Bulk Modulus (GPa) = 50.26694 59.64293 54.95493
# Shear Modulus (GPa) = 23.22274 26.66975 24.94624
#
# Velocity S-wave (km/s) = 3.60097 3.85897 3.73220
# Velocity P-wave (km/s) = 6.73476 7.29099 7.01839
#
# Compressibility (1/GPa) = 0.01989379
#
# Stress axis : x y z
#
# Youngs Moduli (GPa) = 51.09698 38.64079 52.56588
#
# Poissons Ratio (x) = 0.54754 0.36595
# Poissons Ratio (y) = 0.72404 0.06089
# Poissons Ratio (z) = 0.35573 0.04476
#
# Static dielectric constant tensor:
#      x y z
#    x 3.326070 0.000000 0.000000 
#    y 0.000000 3.289010 0.000000 
#    z 0.000000 0.000000 3.419620 
# 
# 
# High freq. dielectric constant tensor:
#      x y z
#    x 1.694090 0.000000 0.000000 
#    y 0.000000 1.691440 0.000000 
#    z 0.000000 0.000000 1.700540 
# 
# From -- ./inp_files/58114.got.cif
#   From: 2010.03.12/outbox.cif.g09.slc.cpg/sg63_30_cif.got.tgz:58114.got - 2010.04.10 19:34:48.
