data_PCOD8259142
_publ_section_title
;
Structure prediction by ZEFSAII (Michael W. Deem and Ramdas Pophale) SiO2 
 PCOD8259142
Probable space group: C M C M
;
_chemical_formula_sum "Si O2"
_cell_formula_units_Z 96
_cell_length_a 8.719093
_cell_length_b 20.107947
_cell_length_c 29.769138
_cell_angle_alpha 90.000000
_cell_angle_beta 90.000000
_cell_angle_gamma 90.000000
_cell_volume 5219.216366
_symmetry_space_group_name_H-M "C M C M"
_symmetry_group_IT_number 63
_symmetry_cell_setting 'orthorhombic'
loop_
_space_group_symop_operation_xyz
x,y,z
-x,-y,1/2+z
x,-y,-z
-x,y,1/2-z
-x,-y,-z
x,y,1/2-z
-x,y,z
x,-y,1/2+z
1/2+x,1/2+y,z
1/2-x,1/2-y,1/2+z
1/2+x,1/2-y,-z
1/2-x,1/2+y,1/2-z
1/2-x,1/2-y,-z
1/2+x,1/2+y,1/2-z
1/2-x,1/2+y,z
1/2+x,1/2-y,1/2+z
loop_
_atom_site_type_symbol
_atom_site_label
_atom_site_fract_x
_atom_site_fract_y
_atom_site_fract_z
Si Si1 0.822627 0.200909 0.802356
Si Si2 0.180005 0.447308 0.534351
Si Si3 0.820201 0.443583 0.635461
Si Si4 0.320519 0.697000 0.368692
Si Si5 0.177603 0.562800 0.698223
Si Si6 0.818164 0.701269 0.036469
O O1 0.788180 0.212020 0.750000
O O2 0.719794 0.252848 0.828985
O O3 0.775819 0.126431 0.816452
O O4 0.000000 0.212104 0.813981
O O5 0.257753 0.500000 0.500000
O O6 0.218446 0.468712 0.585218
O O7 0.242844 0.373033 0.525262
O O8 0.000000 0.446389 0.525989
O O9 0.730875 0.376226 0.646669
O O10 0.764127 0.500235 0.669468
O O11 0.000000 0.428177 0.640665
O O12 0.500000 0.697706 0.377784
O O13 0.236519 0.721347 0.413884
O O14 0.204798 0.544498 0.750000
O O15 0.000000 0.578272 0.688214
O O16 0.000000 0.705048 0.035391
O O17 0.750000 0.750000 0.000000
#
# Coordination Sequence:
#
# PCOD8259142 Si02
#       6
#    16  16  16  16  16  16
#     4  10  21  37  56  78 107 141 177 222 274 324
#     4   8  15  29  49  72  98 130 169 209 249 299
#     4   9  18  33  52  75 105 139 174 215 262 313
#     4  11  22  36  55  78 107 143 183 226 269 316
#     4   9  18  33  53  77 105 137 174 215 261 318
#     4  10  20  35  55  79 108 140 176 220 269 320
#
# _framework density 18.393564999999999
#
# number of rings (size 3 to 8) (size 9 to 14) (size 15 to 20)
#    0.000    2.500    0.000    3.500    0.000    3.667 
#    0.000    5.000    0.000   12.500    0.000    0.000 
#    0.000    0.000    0.000    0.000    0.000    0.000 
#
# Total GULP energy -595251.492497 kJ/mol
# GULP energy per Si atom -12401.072760 kJ/mol
# Density = 1.835170 g / cm^3
# Si number density = 18.393565 Si / 1000 Ang^3
#
#
#
# Elastic Constant Matrix: (Units=GPa)
#
#
# Indices 1 2 3 4 5 6 
#
# 1 68.4593 37.3484 32.6744 0.0000 0.0000 0.0000
# 2 37.3484 113.7448 78.8122 0.0000 0.0000 0.0000
# 3 32.6744 78.8122 97.5346 0.0000 0.0000 0.0000
# 4 0.0000 0.0000 0.0000 44.1069 0.0000 0.0000
# 5 0.0000 0.0000 0.0000 0.0000 24.7136 0.0000
# 6 0.0000 0.0000 0.0000 0.0000 0.0000 30.5298
#
#
#
# Elastic Compliance Matrix: (Units=1/GPa)
#
#
# Indices 1 2 3 4 5 6 
#
# 1 0.018142 -0.003967 -0.002872 0.000000 0.000000 0.000000
# 2 -0.003967 0.020843 -0.015513 0.000000 0.000000 0.000000
# 3 -0.002872 -0.015513 0.023750 0.000000 0.000000 0.000000
# 4 0.000000 0.000000 0.000000 0.022672 0.000000 0.000000
# 5 0.000000 0.000000 0.000000 0.000000 0.040464 0.000000
# 6 0.000000 0.000000 0.000000 0.000000 0.000000 0.032755
#
#
# Mechanical properties :
#
#
# Convention : Reuss Voigt Hill
#
# Bulk Modulus (GPa) = 55.46029 64.15652 59.80841
# Shear Modulus (GPa) = 23.88446 28.59695 26.24070
#
# Velocity S-wave (km/s) = 3.60741 3.94728 3.78117
# Velocity P-wave (km/s) = 6.89701 7.46527 7.18676
#
# Compressibility (1/GPa) = 0.01803092
#
# Stress axis : x y z
#
# Youngs Moduli (GPa) = 55.11987 47.97783 42.10482
#
# Poissons Ratio (x) = 0.19032 0.12094
# Poissons Ratio (y) = 0.21865 0.65318
# Poissons Ratio (z) = 0.15832 0.74428
#
# Static dielectric constant tensor:
#      x y z
#    x 3.240240 0.000000 0.000000 
#    y 0.000000 3.832780 0.000000 
#    z 0.000000 0.000000 3.629290 
# 
# 
# High freq. dielectric constant tensor:
#      x y z
#    x 1.699960 0.000000 0.000000 
#    y 0.000000 1.717630 0.000000 
#    z 0.000000 0.000000 1.715490 
# 
# From -- ./inp_files/67005.got.cif
#   From: 2010.03.12/outbox.cif.g09.slc.cpg/sg63_34_cif.got.tgz:67005.got - 2010.04.10 19:34:48.
