data_PCOD8259820
_publ_section_title
;
Structure prediction by ZEFSAII (Michael W. Deem and Ramdas Pophale) SiO2 
 PCOD8259820
Probable space group: C M C M
;
_chemical_formula_sum "Si O2"
_cell_formula_units_Z 96
_cell_length_a 14.996521
_cell_length_b 20.999935
_cell_length_c 14.229680
_cell_angle_alpha 90.000000
_cell_angle_beta 90.000000
_cell_angle_gamma 90.000000
_cell_volume 4481.295723
_symmetry_space_group_name_H-M "C M C M"
_symmetry_group_IT_number 63
_symmetry_cell_setting 'orthorhombic'
loop_
_space_group_symop_operation_xyz
x,y,z
-x,-y,1/2+z
x,-y,-z
-x,y,1/2-z
-x,-y,-z
x,y,1/2-z
-x,y,z
x,-y,1/2+z
1/2+x,1/2+y,z
1/2-x,1/2-y,1/2+z
1/2+x,1/2-y,-z
1/2-x,1/2+y,1/2-z
1/2-x,1/2-y,-z
1/2+x,1/2+y,1/2-z
1/2-x,1/2+y,z
1/2+x,1/2-y,1/2+z
loop_
_atom_site_type_symbol
_atom_site_label
_atom_site_fract_x
_atom_site_fract_y
_atom_site_fract_z
Si Si1 0.896967 0.425469 0.983979
Si Si2 0.837968 0.216306 0.468478
Si Si3 0.601106 0.509481 0.609359
Si Si4 0.897421 0.149010 0.648752
Si Si5 0.898505 0.666776 0.645740
Si Si6 0.733594 0.398948 0.854480
O O1 0.831374 0.409395 0.898606
O O2 0.000000 0.405360 0.960831
O O3 0.891413 0.500000 0.000000
O O4 0.859609 0.387464 0.075879
O O5 0.750000 0.250000 0.500000
O O6 0.885021 0.200352 0.566912
O O7 0.893329 0.264089 0.402931
O O8 0.822898 0.152305 0.411514
O O9 0.597165 0.500000 0.500000
O O10 0.500000 0.499717 0.650517
O O11 0.643423 0.579305 0.628135
O O12 0.672243 0.461324 0.653502
O O13 0.860135 0.174662 0.750000
O O14 0.000000 0.135147 0.658031
O O15 0.851551 0.666053 0.750000
O O16 0.000000 0.649466 0.662446
O O17 0.751850 0.373314 0.750000
#
# Coordination Sequence:
#
# PCOD8259820 Si02
#       6
#    16  16  16  16  16  16
#     4  10  23  45  69  94 125 164 217 275 326 378
#     4  12  24  41  60  90 132 170 211 261 312 380
#     4  10  20  39  66  96 134 171 209 264 326 390
#     4  10  22  41  66  94 125 168 216 261 322 393
#     4  10  22  43  69  93 122 165 214 264 322 386
#     4  12  25  40  63  97 132 170 215 262 324 386
#
# _framework density 21.422374999999999
#
# number of rings (size 3 to 8) (size 9 to 14) (size 15 to 20)
#    0.000    1.333    3.333    2.000    0.000    4.000 
#    0.000    1.667    0.000    0.000    0.000    0.000 
#    0.000    0.000    0.000    0.000    0.000    0.000 
#
# Total GULP energy -594844.355972 kJ/mol
# GULP energy per Si atom -12392.590749 kJ/mol
# Density = 2.137362 g / cm^3
# Si number density = 21.422375 Si / 1000 Ang^3
#
#
#
# Elastic Constant Matrix: (Units=GPa)
#
#
# Indices 1 2 3 4 5 6 
#
# 1 66.1431 16.1663 33.9725 0.0000 0.0000 0.0000
# 2 16.1663 102.2759 48.5120 0.0000 0.0000 0.0000
# 3 33.9725 48.5120 177.8371 0.0000 0.0000 0.0000
# 4 0.0000 0.0000 0.0000 24.1751 0.0000 0.0000
# 5 0.0000 0.0000 0.0000 0.0000 35.1284 0.0000
# 6 0.0000 0.0000 0.0000 0.0000 0.0000 20.5204
#
#
#
# Elastic Compliance Matrix: (Units=1/GPa)
#
#
# Indices 1 2 3 4 5 6 
#
# 1 0.016915 -0.001311 -0.002874 0.000000 0.000000 0.000000
# 2 -0.001311 0.011332 -0.002841 0.000000 0.000000 0.000000
# 3 -0.002874 -0.002841 0.006947 0.000000 0.000000 0.000000
# 4 0.000000 0.000000 0.000000 0.041365 0.000000 0.000000
# 5 0.000000 0.000000 0.000000 0.000000 0.028467 0.000000
# 6 0.000000 0.000000 0.000000 0.000000 0.000000 0.048732
#
#
# Mechanical properties :
#
#
# Convention : Reuss Voigt Hill
#
# Bulk Modulus (GPa) = 47.29538 60.39530 53.84534
# Shear Modulus (GPa) = 28.59484 32.47181 30.53332
#
# Velocity S-wave (km/s) = 3.65747 3.89754 3.77941
# Velocity P-wave (km/s) = 6.32152 6.96478 6.65093
#
# Compressibility (1/GPa) = 0.02114372
#
# Stress axis : x y z
#
# Youngs Moduli (GPa) = 59.11879 88.24452 143.94538
#
# Poissons Ratio (x) = 0.11565 0.41367
# Poissons Ratio (y) = 0.07748 0.40894
# Poissons Ratio (z) = 0.16990 0.25070
#
# Static dielectric constant tensor:
#      x y z
#    x 3.723400 0.000000 0.000000 
#    y 0.000000 -4.769490 0.000000 
#    z 0.000000 0.000000 4.242580 
# 
# 
# High freq. dielectric constant tensor:
#      x y z
#    x 1.834440 0.000000 0.000000 
#    y 0.000000 1.839780 0.000000 
#    z 0.000000 0.000000 1.855650 
# 
# From -- ./inp_files/31849.got.cif
#   From: 2010.03.12/outbox.cif.g09.slc.cpg/sg63_16_cif.got.tgz:31849.got - 2010.04.10 19:34:48.
