data_PCOD8259079
_publ_section_title
;
Structure prediction by ZEFSAII (Michael W. Deem and Ramdas Pophale) SiO2 
 PCOD8259079
Probable space group: C M C M
;
_chemical_formula_sum "Si O2"
_cell_formula_units_Z 104
_cell_length_a 27.440452
_cell_length_b 23.023640
_cell_length_c 8.926696
_cell_angle_alpha 90.000000
_cell_angle_beta 90.000000
_cell_angle_gamma 90.000000
_cell_volume 5639.699860
_symmetry_space_group_name_H-M "C M C M"
_symmetry_group_IT_number 63
_symmetry_cell_setting 'orthorhombic'
loop_
_space_group_symop_operation_xyz
x,y,z
-x,-y,1/2+z
x,-y,-z
-x,y,1/2-z
-x,-y,-z
x,y,1/2-z
-x,y,z
x,-y,1/2+z
1/2+x,1/2+y,z
1/2-x,1/2-y,1/2+z
1/2+x,1/2-y,-z
1/2-x,1/2+y,1/2-z
1/2-x,1/2-y,-z
1/2+x,1/2+y,1/2-z
1/2-x,1/2+y,z
1/2+x,1/2-y,1/2+z
loop_
_atom_site_type_symbol
_atom_site_label
_atom_site_fract_x
_atom_site_fract_y
_atom_site_fract_z
Si Si1 0.923557 0.339848 0.073195
Si Si2 0.500000 0.063597 0.573216
Si Si3 0.323556 0.214863 0.573161
Si Si4 0.782829 0.819535 0.422819
Si Si5 0.424088 0.557849 0.427773
Si Si6 0.500000 0.767030 0.916285
Si Si7 0.500000 0.368940 0.082432
Si Si8 0.820608 0.055449 0.575026
O O1 0.927371 0.335425 0.250000
O O2 0.950769 0.400327 0.023769
O O3 0.867269 0.328999 0.019969
O O4 0.951956 0.286181 0.003348
O O5 0.500000 0.054249 0.750000
O O6 0.500000 0.000000 0.500000
O O7 0.326511 0.220626 0.750000
O O8 0.271931 0.189976 0.516191
O O9 0.324172 0.280553 0.506022
O O10 0.787172 0.802743 0.250000
O O11 0.789261 0.887525 0.449965
O O12 0.447768 0.500000 0.500000
O O13 0.427856 0.555240 0.250000
O O14 0.452454 0.612983 0.490562
O O15 0.369222 0.563999 0.480964
O O16 0.500000 0.794601 0.750000
O O17 0.500000 0.699090 0.906613
O O18 0.500000 0.395785 0.250000
O O19 0.831883 0.044136 0.750000
O O20 0.792911 0.000000 0.500000
#
# Coordination Sequence:
#
# PCOD8259079 Si02
#       8
#    16   8  16  16  16   8   8  16
#     4   9  19  36  56  78 108 140 174 215 259 311
#     4   9  18  34  55  79 108 141 175 214 258 314
#     4   9  18  34  56  80 105 139 176 214 264 320
#     4   9  19  34  53  78 108 138 173 219 269 314
#     4  11  22  36  53  72  96 131 174 219 261 309
#     4  10  22  35  51  76 106 137 170 211 258 305
#     4  11  23  37  50  71 102 134 167 211 263 313
#     4  10  20  35  53  74 103 139 177 220 264 312
#
# _framework density 18.440697
#
# number of rings (size 3 to 8) (size 9 to 14) (size 15 to 20)
#    0.000    2.308    0.000    3.923    2.154    4.308 
#    0.000    0.769    0.000    0.000    0.000    0.000 
#    0.000    0.000    0.000    0.000    0.000    0.000 
#
# Total GULP energy -644340.042416 kJ/mol
# GULP energy per Si atom -12391.154662 kJ/mol
# Density = 1.839873 g / cm^3
# Si number density = 18.440697 Si / 1000 Ang^3
#
#
#
# Elastic Constant Matrix: (Units=GPa)
#
#
# Indices 1 2 3 4 5 6 
#
# 1 99.3706 54.9632 32.8635 0.0000 0.0000 0.0000
# 2 54.9632 115.3142 43.4863 0.0000 0.0000 0.0000
# 3 32.8635 43.4863 78.8709 0.0000 0.0000 0.0000
# 4 0.0000 0.0000 0.0000 33.1513 0.0000 0.0000
# 5 0.0000 0.0000 0.0000 0.0000 -13.9248 0.0000
# 6 0.0000 0.0000 0.0000 0.0000 0.0000 3.9121
#
#
#
# Elastic Compliance Matrix: (Units=1/GPa)
#
#
# Indices 1 2 3 4 5 6 
#
# 1 0.014121 -0.005696 -0.002743 0.000000 0.000000 0.000000
# 2 -0.005696 0.013246 -0.004930 0.000000 0.000000 0.000000
# 3 -0.002743 -0.004930 0.016540 0.000000 0.000000 0.000000
# 4 0.000000 0.000000 0.000000 0.030165 0.000000 0.000000
# 5 0.000000 0.000000 0.000000 0.000000 -0.071814 0.000000
# 6 0.000000 0.000000 0.000000 0.000000 0.000000 0.255614
#
#
# Mechanical properties :
#
#
# Convention : Reuss Voigt Hill
#
# Bulk Modulus (GPa) = 58.24559 61.79797 60.02178
# Shear Modulus (GPa) = 17.22156 15.44390 16.33273
#
# Velocity S-wave (km/s) = 3.05927 2.89708 2.97928
# Velocity P-wave (km/s) = 6.64325 6.69143 6.66739
#
# Compressibility (1/GPa) = 0.01716868
#
# Stress axis : x y z
#
# Youngs Moduli (GPa) = 70.81525 75.49378 60.45880
#
# Poissons Ratio (x) = 0.43003 0.16586
# Poissons Ratio (y) = 0.40338 0.29806
# Poissons Ratio (z) = 0.19427 0.37218
#
# Static dielectric constant tensor:
#      x y z
#    x 4.240260 0.000000 0.000000 
#    y 0.000000 3.643570 0.000000 
#    z 0.000000 0.000000 3.535620 
# 
# 
# High freq. dielectric constant tensor:
#      x y z
#    x 1.705500 0.000000 0.000000 
#    y 0.000000 1.712780 0.000000 
#    z 0.000000 0.000000 1.719620 
# 
# From -- ./inp_files/14703.got.cif
#   From: 2010.03.12/outbox.cif.g09.slc.cpg/sg63_8_cif.got.tgz:14703.got - 2010.04.10 19:34:48.
