data_PCOD8259267
_publ_section_title
;
Structure prediction by ZEFSAII (Michael W. Deem and Ramdas Pophale) SiO2 
 PCOD8259267
Probable space group: C M C M
;
_chemical_formula_sum "Si O2"
_cell_formula_units_Z 64
_cell_length_a 14.020137
_cell_length_b 24.091129
_cell_length_c 9.684297
_cell_angle_alpha 90.000000
_cell_angle_beta 90.000000
_cell_angle_gamma 90.000000
_cell_volume 3270.977152
_symmetry_space_group_name_H-M "C M C M"
_symmetry_group_IT_number 63
_symmetry_cell_setting 'orthorhombic'
loop_
_space_group_symop_operation_xyz
x,y,z
-x,-y,1/2+z
x,-y,-z
-x,y,1/2-z
-x,-y,-z
x,y,1/2-z
-x,y,z
x,-y,1/2+z
1/2+x,1/2+y,z
1/2-x,1/2-y,1/2+z
1/2+x,1/2-y,-z
1/2-x,1/2+y,1/2-z
1/2-x,1/2-y,-z
1/2+x,1/2+y,1/2-z
1/2-x,1/2+y,z
1/2+x,1/2-y,1/2+z
loop_
_atom_site_type_symbol
_atom_site_label
_atom_site_fract_x
_atom_site_fract_y
_atom_site_fract_z
Si Si1 0.388537 0.043782 0.750000
Si Si2 0.342750 0.758072 0.408388
Si Si3 0.306093 0.122577 0.967792
Si Si4 0.397247 0.666689 0.592658
Si Si5 0.887960 0.586469 0.250000
O O1 0.500000 0.057715 0.750000
O O2 0.339188 0.068595 0.885249
O O3 0.369696 0.978784 0.750000
O O4 0.333930 0.737535 0.250000
O O5 0.250000 0.750000 0.500000
O O6 0.363669 0.823968 0.408405
O O7 0.416374 0.719367 0.491017
O O8 0.190885 0.128659 0.957420
O O9 0.335523 0.115190 0.123992
O O10 0.374540 0.686538 0.750000
O O11 0.500000 0.634489 0.589990
O O12 0.000000 0.600089 0.250000
#
# Coordination Sequence:
#
# PCOD8259267 Si02
#       5
#     8  16  16  16   8
#     4  11  22  42  64  85 113 149 202 252 304 357
#     4  10  20  35  57  87 120 157 197 237 284 342
#     4  11  21  40  62  87 119 160 194 239 300 353
#     4  10  22  39  61  90 124 161 198 240 292 352
#     4  11  26  40  60  89 117 151 196 254 304 353
#
# _framework density 19.566018
#
# number of rings (size 3 to 8) (size 9 to 14) (size 15 to 20)
#    0.000    1.500    2.500    3.750    8.750    4.500 
#    0.000    0.000    0.000    4.500    0.000    0.000 
#    0.000    0.000    0.000    0.000    0.000    0.000 
#
# Total GULP energy -396454.251122 kJ/mol
# GULP energy per Si atom -12389.195348 kJ/mol
# Density = 1.952148 g / cm^3
# Si number density = 19.566018 Si / 1000 Ang^3
#
#
#
# Elastic Constant Matrix: (Units=GPa)
#
#
# Indices 1 2 3 4 5 6 
#
# 1 138.8832 44.9900 56.5575 0.0000 0.0000 0.0000
# 2 44.9900 64.3155 38.8650 0.0000 0.0000 0.0000
# 3 56.5575 38.8650 190.6256 0.0000 0.0000 0.0000
# 4 0.0000 0.0000 0.0000 -2.6205 0.0000 0.0000
# 5 0.0000 0.0000 0.0000 0.0000 18.4508 0.0000
# 6 0.0000 0.0000 0.0000 0.0000 0.0000 22.5262
#
#
#
# Elastic Compliance Matrix: (Units=1/GPa)
#
#
# Indices 1 2 3 4 5 6 
#
# 1 0.009780 -0.005803 -0.001719 0.000000 0.000000 0.000000
# 2 -0.005803 0.021176 -0.002596 0.000000 0.000000 0.000000
# 3 -0.001719 -0.002596 0.006285 0.000000 0.000000 0.000000
# 4 0.000000 0.000000 0.000000 -0.381603 0.000000 0.000000
# 5 0.000000 0.000000 0.000000 0.000000 0.054198 0.000000
# 6 0.000000 0.000000 0.000000 0.000000 0.000000 0.044393
#
#
# Mechanical properties :
#
#
# Convention : Reuss Voigt Hill
#
# Bulk Modulus (GPa) = 58.79990 74.96104 66.88047
# Shear Modulus (GPa) = -22.74096 24.56541 0.91223
#
# Velocity S-wave (km/s) = -3.41290 3.54717 0.68355
# Velocity P-wave (km/s) = 3.81926 7.42776 5.90586
#
# Compressibility (1/GPa) = 0.01700683
#
# Stress axis : x y z
#
# Youngs Moduli (GPa) = 102.25061 47.22307 159.10891
#
# Poissons Ratio (x) = 0.27402 0.27344
# Poissons Ratio (y) = 0.59333 0.41301
# Poissons Ratio (z) = 0.17572 0.12258
#
# Static dielectric constant tensor:
#      x y z
#    x 4.423880 0.000000 0.000000 
#    y 0.000000 3.880060 0.000000 
#    z 0.000000 0.000000 3.935060 
# 
# 
# High freq. dielectric constant tensor:
#      x y z
#    x 1.765520 0.000000 0.000000 
#    y 0.000000 1.735310 0.000000 
#    z 0.000000 0.000000 1.785350 
# 
# From -- ./inp_files/4309.got.cif
#   From: 2010.03.12/outbox.cif.g09.slc.cpg/sg63_3_cif.got.tgz:4309.got - 2010.04.10 19:34:48.
