data_PCOD8259765
_publ_section_title
;
Structure prediction by ZEFSAII (Michael W. Deem and Ramdas Pophale) SiO2 
 PCOD8259765
Probable space group: C M C M
;
_chemical_formula_sum "Si O2"
_cell_formula_units_Z 96
_cell_length_a 8.530527
_cell_length_b 22.536607
_cell_length_c 23.523662
_cell_angle_alpha 90.000000
_cell_angle_beta 90.000000
_cell_angle_gamma 90.000000
_cell_volume 4522.403660
_symmetry_space_group_name_H-M "C M C M"
_symmetry_group_IT_number 63
_symmetry_cell_setting 'orthorhombic'
loop_
_space_group_symop_operation_xyz
x,y,z
-x,-y,1/2+z
x,-y,-z
-x,y,1/2-z
-x,-y,-z
x,y,1/2-z
-x,y,z
x,-y,1/2+z
1/2+x,1/2+y,z
1/2-x,1/2-y,1/2+z
1/2+x,1/2-y,-z
1/2-x,1/2+y,1/2-z
1/2-x,1/2-y,-z
1/2+x,1/2+y,1/2-z
1/2-x,1/2+y,z
1/2+x,1/2-y,1/2+z
loop_
_atom_site_type_symbol
_atom_site_label
_atom_site_fract_x
_atom_site_fract_y
_atom_site_fract_z
Si Si1 0.181441 0.223008 0.417393
Si Si2 0.686612 0.925959 0.315163
Si Si3 0.315200 0.045818 0.129915
Si Si4 0.316530 0.112138 0.020607
Si Si5 0.182380 0.333825 0.685276
Si Si6 0.183136 0.150503 0.588880
O O1 0.283726 0.177021 0.453556
O O2 0.213689 0.211815 0.350744
O O3 0.233190 0.289441 0.431491
O O4 0.000000 0.214317 0.432591
O O5 0.745924 0.922632 0.250000
O O6 0.500000 0.925289 0.316933
O O7 0.752420 0.870194 0.350085
O O8 0.757366 0.985067 0.345435
O O9 0.500000 0.038784 0.129494
O O10 0.258574 0.061906 0.065713
O O11 0.265833 0.098767 0.172169
O O12 0.500000 0.105433 0.008433
O O13 0.225185 0.103142 0.960962
O O14 0.217532 0.318919 0.750000
O O15 0.000000 0.325066 0.669646
O O16 0.000000 0.160979 0.593948
#
# Coordination Sequence:
#
# PCOD8259765 Si02
#       6
#    16  16  16  16  16  16
#     4  11  22  37  57  83 115 150 190 235 287 341
#     4  10  21  39  62  86 113 149 193 235 275 326
#     4   8  16  33  60  89 114 144 184 231 280 334
#     4  10  20  38  63  90 117 145 183 230 284 340
#     4   9  17  32  56  85 115 149 190 235 284 338
#     4  12  25  40  57  80 114 154 193 232 280 336
#
# _framework density 21.227649
#
# number of rings (size 3 to 8) (size 9 to 14) (size 15 to 20)
#    0.000    2.000    0.000    5.500    0.000    4.000 
#    0.000    7.500    0.000    4.000    0.000    0.000 
#    0.000    0.000    0.000    0.000    0.000    0.000 
#
# Total GULP energy -595188.813208 kJ/mol
# GULP energy per Si atom -12399.766942 kJ/mol
# Density = 2.117933 g / cm^3
# Si number density = 21.227649 Si / 1000 Ang^3
#
#
#
# Elastic Constant Matrix: (Units=GPa)
#
#
# Indices 1 2 3 4 5 6 
#
# 1 50.2086 4.7469 19.0309 0.0000 0.0000 0.0000
# 2 4.7469 48.5327 20.4284 0.0000 0.0000 0.0000
# 3 19.0309 20.4284 123.7238 0.0000 0.0000 0.0000
# 4 0.0000 0.0000 0.0000 24.1900 0.0000 0.0000
# 5 0.0000 0.0000 0.0000 0.0000 31.4772 0.0000
# 6 0.0000 0.0000 0.0000 0.0000 0.0000 20.7718
#
#
#
# Elastic Compliance Matrix: (Units=1/GPa)
#
#
# Indices 1 2 3 4 5 6 
#
# 1 0.021176 -0.000752 -0.003133 0.000000 0.000000 0.000000
# 2 -0.000752 0.022170 -0.003545 0.000000 0.000000 0.000000
# 3 -0.003133 -0.003545 0.009150 0.000000 0.000000 0.000000
# 4 0.000000 0.000000 0.000000 0.041339 0.000000 0.000000
# 5 0.000000 0.000000 0.000000 0.000000 0.031769 0.000000
# 6 0.000000 0.000000 0.000000 0.000000 0.000000 0.048142
#
#
# Mechanical properties :
#
#
# Convention : Reuss Voigt Hill
#
# Bulk Modulus (GPa) = 26.57088 34.54195 30.55642
# Shear Modulus (GPa) = 24.85686 27.17173 26.01429
#
# Velocity S-wave (km/s) = 3.42565 3.58161 3.50450
# Velocity P-wave (km/s) = 5.30953 5.78026 5.54989
#
# Compressibility (1/GPa) = 0.03763519
#
# Stress axis : x y z
#
# Youngs Moduli (GPa) = 47.22428 45.10520 109.29287
#
# Poissons Ratio (x) = 0.03394 0.34241
# Poissons Ratio (y) = 0.03553 0.38743
# Poissons Ratio (z) = 0.14795 0.15989
#
# Static dielectric constant tensor:
#      x y z
#    x 3.483420 0.000000 0.000000 
#    y 0.000000 3.849040 0.000000 
#    z 0.000000 0.000000 4.126140 
# 
# 
# High freq. dielectric constant tensor:
#      x y z
#    x 1.803070 0.000000 0.000000 
#    y 0.000000 1.821110 0.000000 
#    z 0.000000 0.000000 1.848210 
# 
# From -- ./inp_files/59899.got.cif
#   From: 2010.03.12/outbox.cif.g09.slc.cpg/sg63_30_cif.got.tgz:59899.got - 2010.04.10 19:34:48.
