data_PCOD8259495
_publ_section_title
;
Structure prediction by ZEFSAII (Michael W. Deem and Ramdas Pophale) SiO2 
 PCOD8259495
Probable space group: C M C M
;
_chemical_formula_sum "Si O2"
_cell_formula_units_Z 88
_cell_length_a 11.980166
_cell_length_b 19.262345
_cell_length_c 19.457813
_cell_angle_alpha 90.000000
_cell_angle_beta 90.000000
_cell_angle_gamma 90.000000
_cell_volume 4490.203439
_symmetry_space_group_name_H-M "C M C M"
_symmetry_group_IT_number 63
_symmetry_cell_setting 'orthorhombic'
loop_
_space_group_symop_operation_xyz
x,y,z
-x,-y,1/2+z
x,-y,-z
-x,y,1/2-z
-x,-y,-z
x,y,1/2-z
-x,y,z
x,-y,1/2+z
1/2+x,1/2+y,z
1/2-x,1/2-y,1/2+z
1/2+x,1/2-y,-z
1/2-x,1/2+y,1/2-z
1/2-x,1/2-y,-z
1/2+x,1/2+y,1/2-z
1/2-x,1/2+y,z
1/2+x,1/2-y,1/2+z
loop_
_atom_site_type_symbol
_atom_site_label
_atom_site_fract_x
_atom_site_fract_y
_atom_site_fract_z
Si Si1 0.000000 0.560924 0.622276
Si Si2 0.869754 0.819525 0.055235
Si Si3 0.500000 0.207686 0.672454
Si Si4 0.500000 0.914669 0.826183
Si Si5 0.760334 0.584178 0.168353
Si Si6 0.690587 0.284050 0.901922
Si Si7 0.740194 0.039194 0.570722
O O1 0.000000 0.498050 0.675507
O O2 0.109549 0.560002 0.573462
O O3 0.000000 0.625198 0.673441
O O4 0.810172 0.754509 0.093100
O O5 0.816039 0.892508 0.077939
O O6 0.000000 0.818659 0.075519
O O7 0.854216 0.810075 0.974448
O O8 0.500000 0.236575 0.750000
O O9 0.391390 0.229335 0.631244
O O10 0.500000 0.883868 0.750000
O O11 0.383569 0.892776 0.861442
O O12 0.759664 0.571875 0.250000
O O13 0.685221 0.649009 0.147626
O O14 0.723507 0.512488 0.132564
O O15 0.765546 0.000000 0.500000
#
# Coordination Sequence:
#
# PCOD8259495 Si02
#       7
#     8  16   8   8  16  16  16
#     4  10  20  36  58  96 120 151 207 259 321 367
#     4  11  24  42  65  90 126 166 210 263 313 377
#     4  12  23  39  65  91 127 168 205 256 319 385
#     4   8  17  33  57  86 118 157 198 251 313 367
#     4  10  21  39  62  91 126 163 208 260 317 377
#     4  11  23  42  62  93 125 161 212 259 316 375
#     4  11  21  40  64  93 124 164 213 266 314 370
#
# _framework density 19.598222
#
# number of rings (size 3 to 8) (size 9 to 14) (size 15 to 20)
#    0.000    1.455    4.545    1.091    1.273    1.091 
#    1.636    0.000    0.000    2.182    0.000    0.000 
#    0.000    0.000    0.000    0.000    0.000    0.000 
#
# Total GULP energy -545372.232976 kJ/mol
# GULP energy per Si atom -12394.823477 kJ/mol
# Density = 1.955362 g / cm^3
# Si number density = 19.598222 Si / 1000 Ang^3
#
#
#
# Elastic Constant Matrix: (Units=GPa)
#
#
# Indices 1 2 3 4 5 6 
#
# 1 103.4176 34.1332 19.9274 0.0000 0.0000 0.0000
# 2 34.1332 106.9287 38.0962 0.0000 0.0000 0.0000
# 3 19.9274 38.0962 93.3841 0.0000 0.0000 0.0000
# 4 0.0000 0.0000 0.0000 39.3919 0.0000 0.0000
# 5 0.0000 0.0000 0.0000 0.0000 18.6715 0.0000
# 6 0.0000 0.0000 0.0000 0.0000 0.0000 29.1954
#
#
#
# Elastic Compliance Matrix: (Units=1/GPa)
#
#
# Indices 1 2 3 4 5 6 
#
# 1 0.010897 -0.003101 -0.001060 0.000000 0.000000 0.000000
# 2 -0.003101 0.011825 -0.004162 0.000000 0.000000 0.000000
# 3 -0.001060 -0.004162 0.012633 0.000000 0.000000 0.000000
# 4 0.000000 0.000000 0.000000 0.025386 0.000000 0.000000
# 5 0.000000 0.000000 0.000000 0.000000 0.053557 0.000000
# 6 0.000000 0.000000 0.000000 0.000000 0.000000 0.034252
#
#
# Mechanical properties :
#
#
# Convention : Reuss Voigt Hill
#
# Bulk Modulus (GPa) = 53.45342 54.22714 53.84028
# Shear Modulus (GPa) = 29.16592 31.55668 30.36130
#
# Velocity S-wave (km/s) = 3.86189 4.01706 3.94024
# Velocity P-wave (km/s) = 6.87164 7.01749 6.94495
#
# Compressibility (1/GPa) = 0.01870788
#
# Stress axis : x y z
#
# Youngs Moduli (GPa) = 91.76601 84.56837 79.15938
#
# Poissons Ratio (x) = 0.26223 0.08394
# Poissons Ratio (y) = 0.28455 0.32948
# Poissons Ratio (z) = 0.09731 0.35199
#
# Static dielectric constant tensor:
#      x y z
#    x 3.704180 0.000000 0.000000 
#    y 0.000000 3.594210 0.000000 
#    z 0.000000 0.000000 3.375000 
# 
# 
# High freq. dielectric constant tensor:
#      x y z
#    x 1.758020 0.000000 0.000000 
#    y 0.000000 1.774180 0.000000 
#    z 0.000000 0.000000 1.751670 
# 
# From -- ./inp_files/52574.got.cif
#   From: 2010.03.12/outbox.cif.g09.slc.cpg/sg63_27_cif.got.tgz:52574.got - 2010.04.10 19:34:48.
