data_PCOD8259222
_publ_section_title
;
Structure prediction by ZEFSAII (Michael W. Deem and Ramdas Pophale) SiO2 
 PCOD8259222
Probable space group: C M C M
;
_chemical_formula_sum "Si O2"
_cell_formula_units_Z 112
_cell_length_a 24.609856
_cell_length_b 12.648306
_cell_length_c 18.836137
_cell_angle_alpha 90.000000
_cell_angle_beta 90.000000
_cell_angle_gamma 90.000000
_cell_volume 5863.180671
_symmetry_space_group_name_H-M "C M C M"
_symmetry_group_IT_number 63
_symmetry_cell_setting 'orthorhombic'
loop_
_space_group_symop_operation_xyz
x,y,z
-x,-y,1/2+z
x,-y,-z
-x,y,1/2-z
-x,-y,-z
x,y,1/2-z
-x,y,z
x,-y,1/2+z
1/2+x,1/2+y,z
1/2-x,1/2-y,1/2+z
1/2+x,1/2-y,-z
1/2-x,1/2+y,1/2-z
1/2-x,1/2-y,-z
1/2+x,1/2+y,1/2-z
1/2-x,1/2+y,z
1/2+x,1/2-y,1/2+z
loop_
_atom_site_type_symbol
_atom_site_label
_atom_site_fract_x
_atom_site_fract_y
_atom_site_fract_z
Si Si1 0.250774 0.133730 0.831634
Si Si2 0.354603 0.767606 0.831983
Si Si3 0.936959 0.854688 0.668685
Si Si4 0.939804 0.909950 0.334136
Si Si5 0.839812 0.606792 0.035895
Si Si6 0.280462 0.551759 0.431614
Si Si7 0.845985 0.745559 0.593334
O O1 0.259527 0.105743 0.750000
O O2 0.207350 0.228194 0.840815
O O3 0.309167 0.160959 0.864849
O O4 0.228317 0.029153 0.868001
O O5 0.366125 0.800955 0.750000
O O6 0.395360 0.675510 0.858062
O O7 0.362804 0.868362 0.884612
O O8 0.918491 0.850228 0.750000
O O9 0.904812 0.762235 0.627985
O O10 0.000000 0.827975 0.659966
O O11 0.924632 0.972635 0.637302
O O12 0.941483 0.917774 0.250000
O O13 0.000000 0.876715 0.361995
O O14 0.775146 0.600248 0.038253
O O15 0.864711 0.500000 0.000000
O O16 0.854802 0.706614 0.986844
O O17 0.310044 0.500000 0.500000
O O18 0.317375 0.642322 0.400404
#
# Coordination Sequence:
#
# PCOD8259222 Si02
#       7
#    16  16  16  16  16  16  16
#     4  11  22  33  52  85 115 142 187 238 281 336
#     4  10  20  35  56  84 114 144 186 241 289 337
#     4   9  19  36  58  87 120 152 190 237 287 339
#     4   8  15  32  58  85 114 147 181 224 285 346
#     4  11  22  39  55  78 112 154 192 231 281 341
#     4  11  21  36  55  78 115 155 188 227 282 346
#     4  12  21  36  58  80 114 154 193 224 286 349
#
# _framework density 19.102259
#
# number of rings (size 3 to 8) (size 9 to 14) (size 15 to 20)
#    0.000    1.714    4.286    3.429    0.000    2.857 
#    0.000    0.714    0.000    3.857    0.000    2.000 
#    0.000    0.000    0.000    0.000    0.000    0.000 
#
# Total GULP energy -694286.794655 kJ/mol
# GULP energy per Si atom -12397.978476 kJ/mol
# Density = 1.905878 g / cm^3
# Si number density = 19.102259 Si / 1000 Ang^3
#
#
#
# Elastic Constant Matrix: (Units=GPa)
#
#
# Indices 1 2 3 4 5 6 
#
# 1 55.0198 21.3376 24.6101 0.0000 0.0000 0.0000
# 2 21.3376 84.4859 50.6351 0.0000 0.0000 0.0000
# 3 24.6101 50.6351 114.8985 0.0000 0.0000 0.0000
# 4 0.0000 0.0000 0.0000 44.1473 0.0000 0.0000
# 5 0.0000 0.0000 0.0000 0.0000 14.9238 0.0000
# 6 0.0000 0.0000 0.0000 0.0000 0.0000 25.2880
#
#
#
# Elastic Compliance Matrix: (Units=1/GPa)
#
#
# Indices 1 2 3 4 5 6 
#
# 1 0.020843 -0.003517 -0.002914 0.000000 0.000000 0.000000
# 2 -0.003517 0.016678 -0.006597 0.000000 0.000000 0.000000
# 3 -0.002914 -0.006597 0.012235 0.000000 0.000000 0.000000
# 4 0.000000 0.000000 0.000000 0.022651 0.000000 0.000000
# 5 0.000000 0.000000 0.000000 0.000000 0.067007 0.000000
# 6 0.000000 0.000000 0.000000 0.000000 0.000000 0.039544
#
#
# Mechanical properties :
#
#
# Convention : Reuss Voigt Hill
#
# Bulk Modulus (GPa) = 42.19553 49.72997 45.96275
# Shear Modulus (GPa) = 23.48356 27.39325 25.43841
#
# Velocity S-wave (km/s) = 3.51003 3.79097 3.65320
# Velocity P-wave (km/s) = 6.21002 6.72696 6.47365
#
# Compressibility (1/GPa) = 0.02369920
#
# Stress axis : x y z
#
# Youngs Moduli (GPa) = 47.97797 59.95858 81.73538
#
# Poissons Ratio (x) = 0.21090 0.23819
# Poissons Ratio (y) = 0.16876 0.53917
# Poissons Ratio (z) = 0.13982 0.39552
#
# Static dielectric constant tensor:
#      x y z
#    x 3.450660 0.000000 0.000000 
#    y 0.000000 3.497090 0.000000 
#    z 0.000000 0.000000 3.486260 
# 
# 
# High freq. dielectric constant tensor:
#      x y z
#    x 1.718700 0.000000 0.000000 
#    y 0.000000 1.733050 0.000000 
#    z 0.000000 0.000000 1.741040 
# 
# From -- ./inp_files/57603.got.cif
#   From: 2010.03.12/outbox.cif.g09.slc.cpg/sg63_29_cif.got.tgz:57603.got - 2010.04.10 19:34:48.
