data_PCOD8259875
_publ_section_title
;
Structure prediction by ZEFSAII (Michael W. Deem and Ramdas Pophale) SiO2 
 PCOD8259875
Probable space group: C M C M
;
_chemical_formula_sum "Si O2"
_cell_formula_units_Z 80
_cell_length_a 7.472684
_cell_length_b 26.434604
_cell_length_c 20.489395
_cell_angle_alpha 90.000000
_cell_angle_beta 90.000000
_cell_angle_gamma 90.000000
_cell_volume 4047.422684
_symmetry_space_group_name_H-M "C M C M"
_symmetry_group_IT_number 63
_symmetry_cell_setting 'orthorhombic'
loop_
_space_group_symop_operation_xyz
x,y,z
-x,-y,1/2+z
x,-y,-z
-x,y,1/2-z
-x,-y,-z
x,y,1/2-z
-x,y,z
x,-y,1/2+z
1/2+x,1/2+y,z
1/2-x,1/2-y,1/2+z
1/2+x,1/2-y,-z
1/2-x,1/2+y,1/2-z
1/2-x,1/2-y,-z
1/2+x,1/2+y,1/2-z
1/2-x,1/2+y,z
1/2+x,1/2-y,1/2+z
loop_
_atom_site_type_symbol
_atom_site_label
_atom_site_fract_x
_atom_site_fract_y
_atom_site_fract_z
Si Si1 0.210871 0.305997 0.250000
Si Si2 0.000000 0.059674 0.576578
Si Si3 0.500000 0.440863 0.577572
Si Si4 0.794567 0.630240 0.121130
Si Si5 0.287140 0.132252 0.623193
Si Si6 0.788453 0.809137 0.750000
Si Si7 0.292751 0.807900 0.500780
O O1 0.274942 0.337826 0.187575
O O2 0.289483 0.248545 0.250000
O O3 0.000000 0.300799 0.250000
O O4 0.177774 0.080386 0.613402
O O5 0.000000 0.073186 0.499403
O O6 0.000000 0.000326 0.587420
O O7 0.325340 0.420013 0.615824
O O8 0.781752 0.660151 0.188339
O O9 0.000000 0.614246 0.109088
O O10 0.712246 0.667114 0.065649
O O11 0.500000 0.120768 0.623248
O O12 0.216989 0.167383 0.564529
O O13 0.000000 0.807765 0.750000
O O14 0.500000 0.818149 0.502181
O O15 0.250000 0.750000 0.500000
#
# Coordination Sequence:
#
# PCOD8259875 Si02
#       7
#     8   8   8  16  16   8  16
#     4   9  20  38  62  91 130 174 201 243 316 376
#     4  11  24  41  69  95 117 165 219 271 326 361
#     4  11  24  43  67  93 121 165 217 273 326 359
#     4  11  23  41  60  90 128 162 207 261 311 374
#     4  10  21  40  59  89 128 160 205 261 310 375
#     4  11  21  39  65  91 129 173 205 246 305 378
#     4  10  21  33  56  86 119 163 204 249 311 372
#
# _framework density 19.765664000000001
#
# number of rings (size 3 to 8) (size 9 to 14) (size 15 to 20)
#    0.000    1.600    3.000    1.500    2.800    2.800 
#    3.600    4.000    0.000    2.400    0.000    0.000 
#    0.000    0.000    0.000    0.000    0.000    0.000 
#
# Total GULP energy -495880.391031 kJ/mol
# GULP energy per Si atom -12397.009776 kJ/mol
# Density = 1.972068 g / cm^3
# Si number density = 19.765664 Si / 1000 Ang^3
#
#
#
# Elastic Constant Matrix: (Units=GPa)
#
#
# Indices 1 2 3 4 5 6 
#
# 1 99.1532 54.8810 32.7411 0.0000 0.0000 0.0000
# 2 54.8810 150.4802 74.7211 0.0000 0.0000 0.0000
# 3 32.7411 74.7211 164.9464 0.0000 0.0000 0.0000
# 4 0.0000 0.0000 0.0000 3.2284 0.0000 0.0000
# 5 0.0000 0.0000 0.0000 0.0000 11.3827 0.0000
# 6 0.0000 0.0000 0.0000 0.0000 0.0000 26.3811
#
#
#
# Elastic Compliance Matrix: (Units=1/GPa)
#
#
# Indices 1 2 3 4 5 6 
#
# 1 0.012674 -0.004352 -0.000544 0.000000 0.000000 0.000000
# 2 -0.004352 0.010068 -0.003697 0.000000 0.000000 0.000000
# 3 -0.000544 -0.003697 0.007845 0.000000 0.000000 0.000000
# 4 0.000000 0.000000 0.000000 0.309756 0.000000 0.000000
# 5 0.000000 0.000000 0.000000 0.000000 0.087853 0.000000
# 6 0.000000 0.000000 0.000000 0.000000 0.000000 0.037906
#
#
# Mechanical properties :
#
#
# Convention : Reuss Voigt Hill
#
# Bulk Modulus (GPa) = 74.62156 82.14067 78.38112
# Shear Modulus (GPa) = 10.25103 25.01422 17.63262
#
# Velocity S-wave (km/s) = 2.27981 3.56130 2.99002
# Velocity P-wave (km/s) = 6.69068 7.65232 7.18760
#
# Compressibility (1/GPa) = 0.01340095
#
# Stress axis : x y z
#
# Youngs Moduli (GPa) = 78.90207 99.32047 127.46283
#
# Poissons Ratio (x) = 0.43224 0.06937
# Poissons Ratio (y) = 0.34338 0.47125
# Poissons Ratio (z) = 0.04294 0.36720
#
# Static dielectric constant tensor:
#      x y z
#    x 2.853970 0.000000 0.000000 
#    y 0.000000 3.422040 0.000000 
#    z 0.000000 0.000000 4.083070 
# 
# 
# High freq. dielectric constant tensor:
#      x y z
#    x 1.776140 0.000000 0.000000 
#    y 0.000000 1.757970 0.000000 
#    z 0.000000 0.000000 1.780340 
# 
# From -- ./inp_files/51008.got.cif
#   From: 2010.03.12/outbox.cif.g09.slc.cpg/sg63_26_cif.got.tgz:51008.got - 2010.04.10 19:34:48.
