data_PCOD8259753
_publ_section_title
;
Structure prediction by ZEFSAII (Michael W. Deem and Ramdas Pophale) SiO2 
 PCOD8259753
Probable space group: C M C M
;
_chemical_formula_sum "Si O2"
_cell_formula_units_Z 88
_cell_length_a 18.084953
_cell_length_b 30.091872
_cell_length_c 8.746834
_cell_angle_alpha 90.000000
_cell_angle_beta 90.000000
_cell_angle_gamma 90.000000
_cell_volume 4760.115325
_symmetry_space_group_name_H-M "C M C M"
_symmetry_group_IT_number 63
_symmetry_cell_setting 'orthorhombic'
loop_
_space_group_symop_operation_xyz
x,y,z
-x,-y,1/2+z
x,-y,-z
-x,y,1/2-z
-x,-y,-z
x,y,1/2-z
-x,y,z
x,-y,1/2+z
1/2+x,1/2+y,z
1/2-x,1/2-y,1/2+z
1/2+x,1/2-y,-z
1/2-x,1/2+y,1/2-z
1/2-x,1/2-y,-z
1/2+x,1/2+y,1/2-z
1/2-x,1/2+y,z
1/2+x,1/2-y,1/2+z
loop_
_atom_site_type_symbol
_atom_site_label
_atom_site_fract_x
_atom_site_fract_y
_atom_site_fract_z
Si Si1 0.339131 0.951034 0.431106
Si Si2 0.414856 0.748068 0.577929
Si Si3 0.270858 0.618891 0.430542
Si Si4 0.000000 0.547490 0.927565
Si Si5 0.916637 0.853964 0.430157
Si Si6 0.709535 0.208087 0.928341
O O1 0.326994 0.952903 0.250000
O O2 0.274517 0.922264 0.504318
O O3 0.421029 0.929411 0.471568
O O4 0.333083 0.000000 0.500000
O O5 0.384239 0.754728 0.750000
O O6 0.500000 0.759763 0.571576
O O7 0.400179 0.697292 0.527077
O O8 0.376653 0.782659 0.462134
O O9 0.267768 0.617738 0.250000
O O10 0.356561 0.615558 0.484013
O O11 0.234487 0.663576 0.491071
O O12 0.000000 0.538874 0.750000
O O13 0.000000 0.500000 0.000000
O O14 0.908943 0.860980 0.250000
O O15 0.000000 0.866874 0.482852
O O16 0.725697 0.203556 0.750000
O O17 0.750000 0.250000 0.000000
#
# Coordination Sequence:
#
# PCOD8259753 Si02
#       6
#    16  16  16   8  16  16
#     4  10  20  38  62  88 116 147 184 232 279 332
#     4   9  18  34  55  77 105 142 184 229 278 331
#     4  12  24  37  56  84 114 150 190 231 280 334
#     4   8  16  32  58  86 112 144 182 224 272 324
#     4   9  18  34  57  82 109 144 185 232 281 332
#     4  12  23  36  54  78 110 148 187 232 279 330
#
# _framework density 18.486948000000002
#
# number of rings (size 3 to 8) (size 9 to 14) (size 15 to 20)
#    0.000    1.818    1.818    4.909    0.000    1.455 
#    1.636    1.818    0.000    0.545    0.000    0.000 
#    0.000    0.000    0.000    0.000    0.000    0.000 
#
# Total GULP energy -545316.900028 kJ/mol
# GULP energy per Si atom -12393.565910 kJ/mol
# Density = 1.844487 g / cm^3
# Si number density = 18.486948 Si / 1000 Ang^3
#
#
#
# Elastic Constant Matrix: (Units=GPa)
#
#
# Indices 1 2 3 4 5 6 
#
# 1 152.9745 63.4424 68.6682 0.0000 0.0000 0.0000
# 2 63.4424 79.5845 45.0073 0.0000 0.0000 0.0000
# 3 68.6682 45.0073 106.9964 0.0000 0.0000 0.0000
# 4 0.0000 0.0000 0.0000 26.7790 0.0000 0.0000
# 5 0.0000 0.0000 0.0000 0.0000 30.2481 0.0000
# 6 0.0000 0.0000 0.0000 0.0000 0.0000 30.4209
#
#
#
# Elastic Compliance Matrix: (Units=1/GPa)
#
#
# Indices 1 2 3 4 5 6 
#
# 1 0.011209 -0.006386 -0.004507 0.000000 0.000000 0.000000
# 2 -0.006386 0.020126 -0.004367 0.000000 0.000000 0.000000
# 3 -0.004507 -0.004367 0.014076 0.000000 0.000000 0.000000
# 4 0.000000 0.000000 0.000000 0.037343 0.000000 0.000000
# 5 0.000000 0.000000 0.000000 0.000000 0.033060 0.000000
# 6 0.000000 0.000000 0.000000 0.000000 0.000000 0.032872
#
#
# Mechanical properties :
#
#
# Convention : Reuss Voigt Hill
#
# Bulk Modulus (GPa) = 67.16353 77.08791 72.12572
# Shear Modulus (GPa) = 27.14878 28.31878 27.73378
#
# Velocity S-wave (km/s) = 3.83631 3.91810 3.87742
# Velocity P-wave (km/s) = 7.48546 7.89036 7.69057
#
# Compressibility (1/GPa) = 0.01488903
#
# Stress axis : x y z
#
# Youngs Moduli (GPa) = 89.21492 49.68667 71.04390
#
# Poissons Ratio (x) = 0.31732 0.32021
# Poissons Ratio (y) = 0.56976 0.31026
# Poissons Ratio (z) = 0.40211 0.21699
#
# Static dielectric constant tensor:
#      x y z
#    x 4.029070 0.000000 0.000000 
#    y 0.000000 3.213940 0.000000 
#    z 0.000000 0.000000 3.580180 
# 
# 
# High freq. dielectric constant tensor:
#      x y z
#    x 1.741600 0.000000 0.000000 
#    y 0.000000 1.675800 0.000000 
#    z 0.000000 0.000000 1.721490 
# 
# From -- ./inp_files/6824.got.cif
#   From: 2010.03.12/outbox.cif.g09.slc.cpg/sg63_4_cif.got.tgz:6824.got - 2010.04.10 19:34:48.
