data_PCOD8259009
_publ_section_title
;
Structure prediction by ZEFSAII (Michael W. Deem and Ramdas Pophale) SiO2 
 PCOD8259009
Probable space group: C M C M
;
_chemical_formula_sum "Si O2"
_cell_formula_units_Z 84
_cell_length_a 14.420055
_cell_length_b 24.223878
_cell_length_c 13.358455
_cell_angle_alpha 90.000000
_cell_angle_beta 90.000000
_cell_angle_gamma 90.000000
_cell_volume 4666.237282
_symmetry_space_group_name_H-M "C M C M"
_symmetry_group_IT_number 63
_symmetry_cell_setting 'orthorhombic'
loop_
_space_group_symop_operation_xyz
x,y,z
-x,-y,1/2+z
x,-y,-z
-x,y,1/2-z
-x,-y,-z
x,y,1/2-z
-x,y,z
x,-y,1/2+z
1/2+x,1/2+y,z
1/2-x,1/2-y,1/2+z
1/2+x,1/2-y,-z
1/2-x,1/2+y,1/2-z
1/2-x,1/2-y,-z
1/2+x,1/2+y,1/2-z
1/2-x,1/2+y,z
1/2+x,1/2-y,1/2+z
loop_
_atom_site_type_symbol
_atom_site_label
_atom_site_fract_x
_atom_site_fract_y
_atom_site_fract_z
Si Si1 0.500000 0.577192 0.250000
Si Si2 0.000000 0.778564 0.037057
Si Si3 0.000000 0.898480 0.963583
Si Si4 0.805267 0.665068 0.954234
Si Si5 0.313488 0.443852 0.044210
Si Si6 0.185619 0.257749 0.635331
Si Si7 0.000000 0.309344 0.371764
Si Si8 0.896790 0.971059 0.250000
O O1 0.500000 0.616551 0.346070
O O2 0.408837 0.537517 0.250000
O O3 0.085836 0.763307 0.104584
O O4 0.000000 0.750653 0.926554
O O5 0.000000 0.843727 0.027442
O O6 0.908878 0.934083 0.984715
O O7 0.759717 0.605386 0.962968
O O8 0.757029 0.707255 0.877210
O O9 0.910292 0.657875 0.913735
O O10 0.791729 0.689947 0.065603
O O11 0.336325 0.450416 0.159147
O O12 0.268312 0.500000 0.000000
O O13 0.187835 0.277651 0.750000
O O14 0.000000 0.303852 0.250000
O O15 0.000000 0.943219 0.250000
#
# Coordination Sequence:
#
# PCOD8259009 Si02
#       8
#     4   8   8  16  16  16   8   8
#     4  10  20  36  52  82 124 178 182 212 286 362
#     4  10  21  34  59  90 116 145 191 224 294 357
#     4  12  20  37  54  87 131 153 187 229 281 356
#     4  10  23  38  58  85 112 150 201 239 294 341
#     4  12  22  39  58  86 122 154 191 244 279 346
#     4  10  20  39  58  85 115 149 190 240 289 354
#     4  10  22  41  56  79 112 151 187 251 294 332
#     4  10  20  34  56  80 114 166 190 218 282 342
#
# _framework density 18.001656000000001
#
# number of rings (size 3 to 8) (size 9 to 14) (size 15 to 20)
#    0.286    1.143    4.762    1.143    3.333    0.000 
#    5.143    0.476    0.000    0.000    0.000    0.000 
#    0.000    0.000    0.000    0.000    0.000    0.000 
#
# Total GULP energy -520655.056631 kJ/mol
# GULP energy per Si atom -12396.548967 kJ/mol
# Density = 1.796068 g / cm^3
# Si number density = 18.001656 Si / 1000 Ang^3
#
#
#
# Elastic Constant Matrix: (Units=GPa)
#
#
# Indices 1 2 3 4 5 6 
#
# 1 112.0692 48.2374 32.0380 0.0000 0.0000 0.0000
# 2 48.2374 109.7803 42.1033 0.0000 0.0000 0.0000
# 3 32.0380 42.1033 145.5317 0.0000 0.0000 0.0000
# 4 0.0000 0.0000 0.0000 14.9857 0.0000 0.0000
# 5 0.0000 0.0000 0.0000 0.0000 17.2774 0.0000
# 6 0.0000 0.0000 0.0000 0.0000 0.0000 39.7592
#
#
#
# Elastic Compliance Matrix: (Units=1/GPa)
#
#
# Indices 1 2 3 4 5 6 
#
# 1 0.011179 -0.004463 -0.001170 0.000000 0.000000 0.000000
# 2 -0.004463 0.012028 -0.002497 0.000000 0.000000 0.000000
# 3 -0.001170 -0.002497 0.007851 0.000000 0.000000 0.000000
# 4 0.000000 0.000000 0.000000 0.066730 0.000000 0.000000
# 5 0.000000 0.000000 0.000000 0.000000 0.057879 0.000000
# 6 0.000000 0.000000 0.000000 0.000000 0.000000 0.025151
#
#
# Mechanical properties :
#
#
# Convention : Reuss Voigt Hill
#
# Bulk Modulus (GPa) = 67.57851 68.01539 67.79695
# Shear Modulus (GPa) = 24.75109 30.73796 27.74453
#
# Velocity S-wave (km/s) = 3.71203 4.13668 3.93010
# Velocity P-wave (km/s) = 7.48291 7.78981 7.63790
#
# Compressibility (1/GPa) = 0.01479760
#
# Stress axis : x y z
#
# Youngs Moduli (GPa) = 89.45722 83.13934 127.36733
#
# Poissons Ratio (x) = 0.37107 0.14897
# Poissons Ratio (y) = 0.39927 0.31806
# Poissons Ratio (z) = 0.10463 0.20762
#
# Static dielectric constant tensor:
#      x y z
#    x 3.350350 0.000000 0.000000 
#    y 0.000000 3.165600 0.000000 
#    z 0.000000 0.000000 3.387530 
# 
# 
# High freq. dielectric constant tensor:
#      x y z
#    x 1.689020 0.000000 0.000000 
#    y 0.000000 1.679920 0.000000 
#    z 0.000000 0.000000 1.710600 
# 
# From -- ./inp_files/19575.got.cif
#   From: 2010.03.12/outbox.cif.g09.slc.cpg/sg63_10_cif.got.tgz:19575.got - 2010.04.10 19:34:48.
