data_PCOD8259517
_publ_section_title
;
Structure prediction by ZEFSAII (Michael W. Deem and Ramdas Pophale) SiO2 
 PCOD8259517
Probable space group: C M C M
;
_chemical_formula_sum "Si O2"
_cell_formula_units_Z 96
_cell_length_a 16.916550
_cell_length_b 18.892856
_cell_length_c 14.088156
_cell_angle_alpha 90.000000
_cell_angle_beta 90.000000
_cell_angle_gamma 90.000000
_cell_volume 4502.602033
_symmetry_space_group_name_H-M "C M C M"
_symmetry_group_IT_number 63
_symmetry_cell_setting 'orthorhombic'
loop_
_space_group_symop_operation_xyz
x,y,z
-x,-y,1/2+z
x,-y,-z
-x,y,1/2-z
-x,-y,-z
x,y,1/2-z
-x,y,z
x,-y,1/2+z
1/2+x,1/2+y,z
1/2-x,1/2-y,1/2+z
1/2+x,1/2-y,-z
1/2-x,1/2+y,1/2-z
1/2-x,1/2-y,-z
1/2+x,1/2+y,1/2-z
1/2-x,1/2+y,z
1/2+x,1/2-y,1/2+z
loop_
_atom_site_type_symbol
_atom_site_label
_atom_site_fract_x
_atom_site_fract_y
_atom_site_fract_z
Si Si1 0.592700 0.148641 0.949936
Si Si2 0.668396 0.860748 0.644874
Si Si3 0.322489 0.025438 0.643573
Si Si4 0.807404 0.772934 0.918625
Si Si5 0.855819 0.029005 0.641948
Si Si6 0.910924 0.898629 0.536153
O O1 0.500000 0.157854 0.929969
O O2 0.618952 0.068353 0.925577
O O3 0.644959 0.202466 0.883112
O O4 0.610763 0.166986 0.061133
O O5 0.628904 0.854159 0.750000
O O6 0.751350 0.816625 0.653555
O O7 0.683069 0.942675 0.618517
O O8 0.354442 0.035789 0.750000
O O9 0.234095 0.056203 0.633088
O O10 0.877027 0.820701 0.959935
O O11 0.750000 0.750000 0.000000
O O12 0.886345 0.034946 0.750000
O O13 0.909650 0.076428 0.573480
O O14 0.860381 0.948216 0.606177
O O15 0.000000 0.898508 0.573132
#
# Coordination Sequence:
#
# PCOD8259517 Si02
#       6
#    16  16  16  16  16  16
#     4  11  24  40  62  94 132 169 204 256 324 380
#     4  10  21  39  65  91 119 164 218 263 304 366
#     4  10  21  38  62  90 120 163 217 263 306 367
#     4  10  21  40  62  84 118 166 211 249 299 373
#     4  10  20  36  59  87 117 155 201 248 303 365
#     4  11  22  35  57  88 122 153 193 255 314 366
#
# _framework density 21.321005
#
# number of rings (size 3 to 8) (size 9 to 14) (size 15 to 20)
#    0.000    1.667    1.667    4.000    2.333    4.000 
#    0.000    6.667    0.000    7.000    0.000    0.000 
#    0.000    0.000    0.000    0.000    0.000    0.000 
#
# Total GULP energy -594789.714666 kJ/mol
# GULP energy per Si atom -12391.452389 kJ/mol
# Density = 2.127248 g / cm^3
# Si number density = 21.321005 Si / 1000 Ang^3
#
#
#
# Elastic Constant Matrix: (Units=GPa)
#
#
# Indices 1 2 3 4 5 6 
#
# 1 112.2667 30.6064 19.3524 0.0000 0.0000 0.0000
# 2 30.6064 89.6039 10.6363 0.0000 0.0000 0.0000
# 3 19.3524 10.6363 87.1805 0.0000 0.0000 0.0000
# 4 0.0000 0.0000 0.0000 11.3969 0.0000 0.0000
# 5 0.0000 0.0000 0.0000 0.0000 20.7479 0.0000
# 6 0.0000 0.0000 0.0000 0.0000 0.0000 24.5809
#
#
#
# Elastic Compliance Matrix: (Units=1/GPa)
#
#
# Indices 1 2 3 4 5 6 
#
# 1 0.010108 -0.003233 -0.001849 0.000000 0.000000 0.000000
# 2 -0.003233 0.012358 -0.000790 0.000000 0.000000 0.000000
# 3 -0.001849 -0.000790 0.011977 0.000000 0.000000 0.000000
# 4 0.000000 0.000000 0.000000 0.087743 0.000000 0.000000
# 5 0.000000 0.000000 0.000000 0.000000 0.048198 0.000000
# 6 0.000000 0.000000 0.000000 0.000000 0.000000 0.040682
#
#
# Mechanical properties :
#
#
# Convention : Reuss Voigt Hill
#
# Bulk Modulus (GPa) = 44.05564 45.58237 44.81901
# Shear Modulus (GPa) = 21.70360 26.57554 24.13957
#
# Velocity S-wave (km/s) = 3.19399 3.53434 3.36846
# Velocity P-wave (km/s) = 5.85747 6.17097 6.01626
#
# Compressibility (1/GPa) = 0.02269857
#
# Stress axis : x y z
#
# Youngs Moduli (GPa) = 98.93633 80.91719 83.49090
#
# Poissons Ratio (x) = 0.26160 0.15440
# Poissons Ratio (y) = 0.31986 0.06597
# Poissons Ratio (z) = 0.18296 0.06393
#
# Static dielectric constant tensor:
#      x y z
#    x 3.738710 0.000000 0.000000 
#    y 0.000000 4.045560 0.000000 
#    z 0.000000 0.000000 3.746980 
# 
# 
# High freq. dielectric constant tensor:
#      x y z
#    x 1.823820 0.000000 0.000000 
#    y 0.000000 1.837470 0.000000 
#    z 0.000000 0.000000 1.822920 
# 
# From -- ./inp_files/31886.got.cif
#   From: 2010.03.12/outbox.cif.g09.slc.cpg/sg63_16_cif.got.tgz:31886.got - 2010.04.10 19:34:48.
