data_PCOD8259316
_publ_section_title
;
Structure prediction by ZEFSAII (Michael W. Deem and Ramdas Pophale) SiO2 
 PCOD8259316
Probable space group: C M C M
;
_chemical_formula_sum "Si O2"
_cell_formula_units_Z 96
_cell_length_a 18.242920
_cell_length_b 14.720650
_cell_length_c 19.184331
_cell_angle_alpha 90.000000
_cell_angle_beta 90.000000
_cell_angle_gamma 90.000000
_cell_volume 5151.906821
_symmetry_space_group_name_H-M "C M C M"
_symmetry_group_IT_number 63
_symmetry_cell_setting 'orthorhombic'
loop_
_space_group_symop_operation_xyz
x,y,z
-x,-y,1/2+z
x,-y,-z
-x,y,1/2-z
-x,-y,-z
x,y,1/2-z
-x,y,z
x,-y,1/2+z
1/2+x,1/2+y,z
1/2-x,1/2-y,1/2+z
1/2+x,1/2-y,-z
1/2-x,1/2+y,1/2-z
1/2-x,1/2-y,-z
1/2+x,1/2+y,1/2-z
1/2-x,1/2+y,z
1/2+x,1/2-y,1/2+z
loop_
_atom_site_type_symbol
_atom_site_label
_atom_site_fract_x
_atom_site_fract_y
_atom_site_fract_z
Si Si1 0.813815 0.998867 0.830626
Si Si2 0.585953 0.908834 0.038439
Si Si3 0.173718 0.383177 0.328730
Si Si4 0.253008 0.303946 0.829065
Si Si5 0.083398 0.925174 0.059059
Si Si6 0.327085 0.245423 0.039106
O O1 0.833193 0.006875 0.750000
O O2 0.747658 0.065584 0.851282
O O3 0.886212 0.029640 0.870679
O O4 0.792858 0.896447 0.851433
O O5 0.500000 0.895183 0.035410
O O6 0.609591 0.912944 0.119291
O O7 0.622229 0.825915 0.999074
O O8 0.611347 0.000000 0.000000
O O9 0.150641 0.410479 0.250000
O O10 0.186771 0.275472 0.334683
O O11 0.221717 0.310309 0.750000
O O12 0.185074 0.284611 0.880557
O O13 0.132804 0.841290 0.035403
O O14 0.000000 0.893321 0.072348
O O15 0.087709 0.000000 0.000000
O O16 0.250000 0.250000 0.000000
#
# Coordination Sequence:
#
# PCOD8259316 Si02
#       6
#    16  16  16  16  16  16
#     4  10  20  37  60  85 114 148 193 240 287 348
#     4  11  24  40  58  86 122 156 194 239 293 358
#     4  10  20  38  61  88 115 149 197 246 294 345
#     4  10  20  35  59  88 114 144 194 248 291 343
#     4  11  24  38  54  82 120 157 193 234 289 357
#     4  12  21  37  63  86 113 154 195 248 297 343
#
# _framework density 18.633876999999998
#
# number of rings (size 3 to 8) (size 9 to 14) (size 15 to 20)
#    0.000    1.333    3.333    2.500    0.000    2.000 
#    0.000    0.000    0.000    5.500    0.000    0.000 
#    0.000    0.000    0.000    0.000    0.000    0.000 
#
# Total GULP energy -595384.124132 kJ/mol
# GULP energy per Si atom -12403.835919 kJ/mol
# Density = 1.859147 g / cm^3
# Si number density = 18.633877 Si / 1000 Ang^3
#
#
#
# Elastic Constant Matrix: (Units=GPa)
#
#
# Indices 1 2 3 4 5 6 
#
# 1 92.4862 60.0778 52.6591 0.0000 0.0000 0.0000
# 2 60.0778 129.8141 40.4519 0.0000 0.0000 0.0000
# 3 52.6591 40.4519 110.4973 0.0000 0.0000 0.0000
# 4 0.0000 0.0000 0.0000 29.1930 0.0000 0.0000
# 5 0.0000 0.0000 0.0000 0.0000 10.1163 0.0000
# 6 0.0000 0.0000 0.0000 0.0000 0.0000 30.8120
#
#
#
# Elastic Compliance Matrix: (Units=1/GPa)
#
#
# Indices 1 2 3 4 5 6 
#
# 1 0.018898 -0.006704 -0.006552 0.000000 0.000000 0.000000
# 2 -0.006704 0.011074 -0.000859 0.000000 0.000000 0.000000
# 3 -0.006552 -0.000859 0.012487 0.000000 0.000000 0.000000
# 4 0.000000 0.000000 0.000000 0.034255 0.000000 0.000000
# 5 0.000000 0.000000 0.000000 0.000000 0.098850 0.000000
# 6 0.000000 0.000000 0.000000 0.000000 0.000000 0.032455
#
#
# Mechanical properties :
#
#
# Convention : Reuss Voigt Hill
#
# Bulk Modulus (GPa) = 70.28163 71.01948 70.65056
# Shear Modulus (GPa) = 20.74769 25.99817 23.37293
#
# Velocity S-wave (km/s) = 3.34044 3.73930 3.54549
# Velocity P-wave (km/s) = 7.25790 7.53917 7.39987
#
# Compressibility (1/GPa) = 0.01422847
#
# Stress axis : x y z
#
# Youngs Moduli (GPa) = 52.91636 90.30392 80.08503
#
# Poissons Ratio (x) = 0.60542 0.52469
# Poissons Ratio (y) = 0.35477 0.06879
# Poissons Ratio (z) = 0.34669 0.07757
#
# Static dielectric constant tensor:
#      x y z
#    x 3.408590 0.000000 0.000000 
#    y 0.000000 3.993490 0.000000 
#    z 0.000000 0.000000 3.699820 
# 
# 
# High freq. dielectric constant tensor:
#      x y z
#    x 1.700230 0.000000 0.000000 
#    y 0.000000 1.743000 0.000000 
#    z 0.000000 0.000000 1.739380 
# 
# From -- ./inp_files/54180.got.cif
#   From: 2010.03.12/outbox.cif.g09.slc.cpg/sg63_28_cif.got.tgz:54180.got - 2010.04.10 19:34:48.
