data_PCOD8259959
_publ_section_title
;
Structure prediction by ZEFSAII (Michael W. Deem and Ramdas Pophale) SiO2 
 PCOD8259959
Probable space group: C M C M
;
_chemical_formula_sum "Si O2"
_cell_formula_units_Z 96
_cell_length_a 23.417771
_cell_length_b 11.728853
_cell_length_c 18.199896
_cell_angle_alpha 90.000000
_cell_angle_beta 90.000000
_cell_angle_gamma 90.000000
_cell_volume 4998.848839
_symmetry_space_group_name_H-M "C M C M"
_symmetry_group_IT_number 63
_symmetry_cell_setting 'orthorhombic'
loop_
_space_group_symop_operation_xyz
x,y,z
-x,-y,1/2+z
x,-y,-z
-x,y,1/2-z
-x,-y,-z
x,y,1/2-z
-x,y,z
x,-y,1/2+z
1/2+x,1/2+y,z
1/2-x,1/2-y,1/2+z
1/2+x,1/2-y,-z
1/2-x,1/2+y,1/2-z
1/2-x,1/2-y,-z
1/2+x,1/2+y,1/2-z
1/2-x,1/2+y,z
1/2+x,1/2-y,1/2+z
loop_
_atom_site_type_symbol
_atom_site_label
_atom_site_fract_x
_atom_site_fract_y
_atom_site_fract_z
Si Si1 0.275509 0.182718 0.165228
Si Si2 0.157716 0.502263 0.914007
Si Si3 0.434792 0.433566 0.662733
Si Si4 0.850105 0.736274 0.834049
Si Si5 0.369786 0.350176 0.332279
Si Si6 0.435548 0.125958 0.167707
O O1 0.294719 0.168828 0.250000
O O2 0.208349 0.194348 0.156899
O O3 0.312329 0.291161 0.132575
O O4 0.290528 0.065403 0.124292
O O5 0.154332 0.631610 0.888457
O O6 0.098690 0.443286 0.892887
O O7 0.167810 0.500000 0.000000
O O8 0.437442 0.449205 0.750000
O O9 0.500000 0.432973 0.631327
O O10 0.403352 0.315397 0.642111
O O11 0.396149 0.537036 0.628232
O O12 0.857415 0.694783 0.750000
O O13 0.353001 0.387160 0.250000
O O14 0.420536 0.258833 0.334034
O O15 0.424415 0.077314 0.250000
O O16 0.500000 0.110909 0.143864
#
# Coordination Sequence:
#
# PCOD8259959 Si02
#       6
#    16  16  16  16  16  16
#     4   9  19  35  58  82 106 137 187 237 274 324
#     4  11  23  37  53  77 113 148 182 224 278 348
#     4   9  17  29  49  81 114 139 169 218 284 339
#     4  10  21  35  56  81 108 142 182 232 279 329
#     4   8  14  27  50  81 108 133 169 223 278 322
#     4   9  17  32  56  81 105 139 186 235 275 319
#
# _framework density 19.204422000000001
#
# number of rings (size 3 to 8) (size 9 to 14) (size 15 to 20)
#    0.000    2.667    0.000    3.000    2.333    3.667 
#    0.000    1.667    0.000    0.000    0.000    5.833 
#    0.000    0.000    0.000    0.000    0.000    0.000 
#
# Total GULP energy -594863.740957 kJ/mol
# GULP energy per Si atom -12392.994603 kJ/mol
# Density = 1.916071 g / cm^3
# Si number density = 19.204422 Si / 1000 Ang^3
#
#
#
# Elastic Constant Matrix: (Units=GPa)
#
#
# Indices 1 2 3 4 5 6 
#
# 1 98.2862 31.5326 17.7293 0.0000 0.0000 0.0000
# 2 31.5326 99.4574 35.8786 0.0000 0.0000 0.0000
# 3 17.7293 35.8786 60.1874 0.0000 0.0000 0.0000
# 4 0.0000 0.0000 0.0000 -78.6536 0.0000 0.0000
# 5 0.0000 0.0000 0.0000 0.0000 3.3892 0.0000
# 6 0.0000 0.0000 0.0000 0.0000 0.0000 17.8673
#
#
#
# Elastic Compliance Matrix: (Units=1/GPa)
#
#
# Indices 1 2 3 4 5 6 
#
# 1 0.011437 -0.003071 -0.001538 0.000000 0.000000 0.000000
# 2 -0.003071 0.013634 -0.007223 0.000000 0.000000 0.000000
# 3 -0.001538 -0.007223 0.021373 0.000000 0.000000 0.000000
# 4 0.000000 0.000000 0.000000 -0.012714 0.000000 0.000000
# 5 0.000000 0.000000 0.000000 0.000000 0.295052 0.000000
# 6 0.000000 0.000000 0.000000 0.000000 0.000000 0.055968
#
#
# Mechanical properties :
#
#
# Convention : Reuss Voigt Hill
#
# Bulk Modulus (GPa) = 43.89774 47.57913 45.73844
# Shear Modulus (GPa) = 12.01901 0.03996 6.02949
#
# Velocity S-wave (km/s) = 2.50441 0.14441 1.77382
# Velocity P-wave (km/s) = 5.59200 4.98565 5.29751
#
# Compressibility (1/GPa) = 0.02278021
#
# Stress axis : x y z
#
# Youngs Moduli (GPa) = 87.43427 73.34722 46.78717
#
# Poissons Ratio (x) = 0.22526 0.07197
# Poissons Ratio (y) = 0.26853 0.33793
# Poissons Ratio (z) = 0.13449 0.52976
#
# Static dielectric constant tensor:
#      x y z
#    x 3.652780 0.000000 0.000000 
#    y 0.000000 3.524000 0.000000 
#    z 0.000000 0.000000 2.983650 
# 
# 
# High freq. dielectric constant tensor:
#      x y z
#    x 1.758970 0.000000 0.000000 
#    y 0.000000 1.750810 0.000000 
#    z 0.000000 0.000000 1.684900 
# 
# From -- ./inp_files/47991.got.cif
#   From: 2010.03.12/outbox.cif.g09.slc.cpg/sg63_24_cif.got.tgz:47991.got - 2010.04.10 19:34:48.
