data_PCOD8259454
_publ_section_title
;
Structure prediction by ZEFSAII (Michael W. Deem and Ramdas Pophale) SiO2 
 PCOD8259454
Probable space group: C M C M
;
_chemical_formula_sum "Si O2"
_cell_formula_units_Z 72
_cell_length_a 22.784372
_cell_length_b 19.199967
_cell_length_c 8.647286
_cell_angle_alpha 90.000000
_cell_angle_beta 90.000000
_cell_angle_gamma 90.000000
_cell_volume 3782.834734
_symmetry_space_group_name_H-M "C M C M"
_symmetry_group_IT_number 63
_symmetry_cell_setting 'orthorhombic'
loop_
_space_group_symop_operation_xyz
x,y,z
-x,-y,1/2+z
x,-y,-z
-x,y,1/2-z
-x,-y,-z
x,y,1/2-z
-x,y,z
x,-y,1/2+z
1/2+x,1/2+y,z
1/2-x,1/2-y,1/2+z
1/2+x,1/2-y,-z
1/2-x,1/2+y,1/2-z
1/2-x,1/2-y,-z
1/2+x,1/2+y,1/2-z
1/2-x,1/2+y,z
1/2+x,1/2-y,1/2+z
loop_
_atom_site_type_symbol
_atom_site_label
_atom_site_fract_x
_atom_site_fract_y
_atom_site_fract_z
Si Si1 0.265779 0.324703 0.432900
Si Si2 0.601489 0.324093 0.067397
Si Si3 0.934594 0.326162 0.933942
Si Si4 0.169140 0.423414 0.566562
Si Si5 0.500000 0.423558 0.066394
O O1 0.257091 0.322844 0.250000
O O2 0.250000 0.250000 0.500000
O O3 0.332404 0.343377 0.479836
O O4 0.226495 0.384323 0.506875
O O5 0.594699 0.319058 0.250000
O O6 0.583953 0.248885 0.997289
O O7 0.557576 0.383134 0.003674
O O8 0.932640 0.323381 0.750000
O O9 0.888974 0.383850 0.994758
O O10 0.000000 0.345524 0.992299
O O11 0.167992 0.500000 0.500000
O O12 0.171259 0.425918 0.750000
O O13 0.500000 0.427530 0.250000
O O14 0.500000 0.500000 0.000000
#
# Coordination Sequence:
#
# PCOD8259454 Si02
#       5
#    16  16  16  16   8
#     4  11  21  36  59  88 116 151 194 237 285 342
#     4   9  17  32  57  84 108 143 189 230 275 335
#     4   9  16  31  58  86 109 143 192 236 280 340
#     4  11  23  39  58  85 118 153 191 239 293 345
#     4  10  20  36  58  82 113 146 182 231 282 333
#
# _framework density 19.033345000000001
#
# number of rings (size 3 to 8) (size 9 to 14) (size 15 to 20)
#    0.000    2.000    3.333    1.333    0.000    1.333 
#    0.000    4.444    0.000    2.000    0.000    0.000 
#    0.000    0.000    0.000    0.000    0.000    0.000 
#
# Total GULP energy -446384.726934 kJ/mol
# GULP energy per Si atom -12399.575748 kJ/mol
# Density = 1.899002 g / cm^3
# Si number density = 19.033345 Si / 1000 Ang^3
#
#
#
# Elastic Constant Matrix: (Units=GPa)
#
#
# Indices 1 2 3 4 5 6 
#
# 1 201.3962 112.4754 40.1428 0.0000 0.0000 0.0000
# 2 112.4754 195.2776 35.2186 0.0000 0.0000 0.0000
# 3 40.1428 35.2186 45.7538 0.0000 0.0000 0.0000
# 4 0.0000 0.0000 0.0000 31.9697 0.0000 0.0000
# 5 0.0000 0.0000 0.0000 0.0000 21.9715 0.0000
# 6 0.0000 0.0000 0.0000 0.0000 0.0000 41.1834
#
#
#
# Elastic Compliance Matrix: (Units=1/GPa)
#
#
# Indices 1 2 3 4 5 6 
#
# 1 0.007899 -0.003831 -0.003981 0.000000 0.000000 0.000000
# 2 -0.003831 0.007805 -0.002646 0.000000 0.000000 0.000000
# 3 -0.003981 -0.002646 0.027386 0.000000 0.000000 0.000000
# 4 0.000000 0.000000 0.000000 0.031280 0.000000 0.000000
# 5 0.000000 0.000000 0.000000 0.000000 0.045514 0.000000
# 6 0.000000 0.000000 0.000000 0.000000 0.000000 0.024282
#
#
# Mechanical properties :
#
#
# Convention : Reuss Voigt Hill
#
# Bulk Modulus (GPa) = 45.10122 90.90013 68.00068
# Shear Modulus (GPa) = 28.99030 35.99764 32.49397
#
# Velocity S-wave (km/s) = 3.90697 4.35362 4.13633
# Velocity P-wave (km/s) = 6.64077 8.55184 7.65617
#
# Compressibility (1/GPa) = 0.02217235
#
# Stress axis : x y z
#
# Youngs Moduli (GPa) = 126.60512 128.12290 36.51557
#
# Poissons Ratio (x) = 0.49090 0.14536
# Poissons Ratio (y) = 0.48508 0.09663
# Poissons Ratio (z) = 0.50398 0.33904
#
# Static dielectric constant tensor:
#      x y z
#    x 4.416180 0.000000 0.000000 
#    y 0.000000 3.574600 0.000000 
#    z 0.000000 0.000000 3.170460 
# 
# 
# High freq. dielectric constant tensor:
#      x y z
#    x 1.761280 0.000000 0.000000 
#    y 0.000000 1.742750 0.000000 
#    z 0.000000 0.000000 1.703170 
# 
# From -- ./inp_files/9856.got.cif
#   From: 2010.03.12/outbox.cif.g09.slc.cpg/sg63_5_cif.got.tgz:9856.got - 2010.04.10 19:34:48.
