data_PCOD8259234
_publ_section_title
;
Structure prediction by ZEFSAII (Michael W. Deem and Ramdas Pophale) SiO2 
 PCOD8259234
Probable space group: C M C M
;
_chemical_formula_sum "Si O2"
_cell_formula_units_Z 112
_cell_length_a 23.278225
_cell_length_b 14.910655
_cell_length_c 16.176055
_cell_angle_alpha 90.000000
_cell_angle_beta 90.000000
_cell_angle_gamma 90.000000
_cell_volume 5614.604872
_symmetry_space_group_name_H-M "C M C M"
_symmetry_group_IT_number 63
_symmetry_cell_setting 'orthorhombic'
loop_
_space_group_symop_operation_xyz
x,y,z
-x,-y,1/2+z
x,-y,-z
-x,y,1/2-z
-x,-y,-z
x,y,1/2-z
-x,y,z
x,-y,1/2+z
1/2+x,1/2+y,z
1/2-x,1/2-y,1/2+z
1/2+x,1/2-y,-z
1/2-x,1/2+y,1/2-z
1/2-x,1/2-y,-z
1/2+x,1/2+y,1/2-z
1/2-x,1/2+y,z
1/2+x,1/2-y,1/2+z
loop_
_atom_site_type_symbol
_atom_site_label
_atom_site_fract_x
_atom_site_fract_y
_atom_site_fract_z
Si Si1 0.261851 0.405602 0.959270
Si Si2 0.432673 0.653554 0.444587
Si Si3 0.359617 0.467068 0.655622
Si Si4 0.346914 0.342508 0.411856
Si Si5 0.566574 0.988491 0.903115
Si Si6 0.931826 0.678424 0.658472
Si Si7 0.658631 0.848858 0.654706
O O1 0.308903 0.413163 0.888182
O O2 0.205780 0.368504 0.914957
O O3 0.245639 0.500000 0.000000
O O4 0.288604 0.342138 0.031754
O O5 0.500000 0.657232 0.458493
O O6 0.418134 0.566467 0.388660
O O7 0.403317 0.647134 0.532821
O O8 0.408600 0.744805 0.402184
O O9 0.362103 0.438149 0.750000
O O10 0.348170 0.572477 0.648566
O O11 0.353400 0.256444 0.353873
O O12 0.500000 0.972117 0.879519
O O13 0.601704 0.905106 0.866674
O O14 0.591861 0.080142 0.864426
O O15 0.574379 0.000000 0.000000
O O16 0.910327 0.702843 0.750000
O O17 0.000000 0.675574 0.653088
O O18 0.677330 0.868986 0.750000
#
# Coordination Sequence:
#
# PCOD8259234 Si02
#       7
#    16  16  16  16  16  16  16
#     4   9  20  39  61  81 105 143 188 232 276 325
#     4  10  20  35  57  82 107 144 192 232 271 325
#     4  10  20  37  58  82 113 143 178 229 286 330
#     4  10  22  38  56  79 113 152 182 221 276 336
#     4  10  21  37  56  79 112 152 185 218 268 329
#     4   9  17  31  51  76 106 137 174 225 275 311
#     4  12  23  36  58  86 114 145 185 228 273 330
#
# _framework density 19.947976000000001
#
# number of rings (size 3 to 8) (size 9 to 14) (size 15 to 20)
#    0.000    2.000    0.000    4.714    0.000    4.571 
#    0.000    1.429    0.000    2.571    0.000    0.000 
#    0.000    0.000    0.000    0.000    0.000    0.000 
#
# Total GULP energy -694279.219987 kJ/mol
# GULP energy per Si atom -12397.843214 kJ/mol
# Density = 1.990257 g / cm^3
# Si number density = 19.947976 Si / 1000 Ang^3
#
#
#
# Elastic Constant Matrix: (Units=GPa)
#
#
# Indices 1 2 3 4 5 6 
#
# 1 65.5297 29.7750 20.1700 0.0000 0.0000 0.0000
# 2 29.7750 77.2058 7.7226 0.0000 0.0000 0.0000
# 3 20.1700 7.7226 77.9850 0.0000 0.0000 0.0000
# 4 0.0000 0.0000 0.0000 30.9413 0.0000 0.0000
# 5 0.0000 0.0000 0.0000 0.0000 6.0937 0.0000
# 6 0.0000 0.0000 0.0000 0.0000 0.0000 20.2615
#
#
#
# Elastic Compliance Matrix: (Units=1/GPa)
#
#
# Indices 1 2 3 4 5 6 
#
# 1 0.019913 -0.007236 -0.004434 0.000000 0.000000 0.000000
# 2 -0.007236 0.015711 0.000316 0.000000 0.000000 0.000000
# 3 -0.004434 0.000316 0.013938 0.000000 0.000000 0.000000
# 4 0.000000 0.000000 0.000000 0.032319 0.000000 0.000000
# 5 0.000000 0.000000 0.000000 0.000000 0.164104 0.000000
# 6 0.000000 0.000000 0.000000 0.000000 0.000000 0.049355
#
#
# Mechanical properties :
#
#
# Convention : Reuss Voigt Hill
#
# Bulk Modulus (GPa) = 37.23755 37.33952 37.28853
# Shear Modulus (GPa) = 15.29053 22.32952 18.81002
#
# Velocity S-wave (km/s) = 2.77161 3.34935 3.07409
# Velocity P-wave (km/s) = 5.38055 5.80660 5.59763
#
# Compressibility (1/GPa) = 0.02685462
#
# Stress axis : x y z
#
# Youngs Moduli (GPa) = 50.21900 63.64788 71.74404
#
# Poissons Ratio (x) = 0.46056 0.31809
# Poissons Ratio (y) = 0.36339 -0.02265
# Poissons Ratio (z) = 0.22265 -0.02009
#
# Static dielectric constant tensor:
#      x y z
#    x 3.451960 0.000000 0.000000 
#    y 0.000000 3.791410 0.000000 
#    z 0.000000 0.000000 3.634240 
# 
# 
# High freq. dielectric constant tensor:
#      x y z
#    x 1.758010 0.000000 0.000000 
#    y 0.000000 1.787020 0.000000 
#    z 0.000000 0.000000 1.783860 
# 
# From -- ./inp_files/36927.got.cif
#   From: 2010.03.12/outbox.cif.g09.slc.cpg/sg63_19_cif.got.tgz:36927.got - 2010.04.10 19:34:48.
