data_PCOD8259007
_publ_section_title
;
Structure prediction by ZEFSAII (Michael W. Deem and Ramdas Pophale) SiO2 
 PCOD8259007
Probable space group: C M C M
;
_chemical_formula_sum "Si O2"
_cell_formula_units_Z 112
_cell_length_a 18.303146
_cell_length_b 19.828456
_cell_length_c 17.303932
_cell_angle_alpha 90.000000
_cell_angle_beta 90.000000
_cell_angle_gamma 90.000000
_cell_volume 6279.997078
_symmetry_space_group_name_H-M "C M C M"
_symmetry_group_IT_number 63
_symmetry_cell_setting 'orthorhombic'
loop_
_space_group_symop_operation_xyz
x,y,z
-x,-y,1/2+z
x,-y,-z
-x,y,1/2-z
-x,-y,-z
x,y,1/2-z
-x,y,z
x,-y,1/2+z
1/2+x,1/2+y,z
1/2-x,1/2-y,1/2+z
1/2+x,1/2-y,-z
1/2-x,1/2+y,1/2-z
1/2-x,1/2-y,-z
1/2+x,1/2+y,1/2-z
1/2-x,1/2+y,z
1/2+x,1/2-y,1/2+z
loop_
_atom_site_type_symbol
_atom_site_label
_atom_site_fract_x
_atom_site_fract_y
_atom_site_fract_z
Si Si1 0.294350 0.384888 0.663395
Si Si2 0.585551 0.946605 0.334788
Si Si3 0.418072 0.605409 0.539488
Si Si4 0.833350 0.550756 0.432406
Si Si5 0.086017 0.345992 0.464900
Si Si6 0.080865 0.026602 0.379933
Si Si7 0.675899 0.284177 0.969818
O O1 0.268551 0.363750 0.750000
O O2 0.235213 0.428033 0.617634
O O3 0.363297 0.434554 0.675399
O O4 0.311692 0.318182 0.613711
O O5 0.622077 0.940108 0.250000
O O6 0.500000 0.951705 0.326289
O O7 0.607604 0.881480 0.384471
O O8 0.609785 0.014580 0.376574
O O9 0.500000 0.635371 0.554737
O O10 0.396978 0.552231 0.607199
O O11 0.419488 0.564948 0.460566
O O12 0.355518 0.663013 0.533565
O O13 0.807070 0.500000 0.500000
O O14 0.872674 0.616899 0.465363
O O15 0.112267 0.269863 0.458271
O O16 0.000000 0.348810 0.481011
O O17 0.000000 0.029515 0.342703
O O18 0.750000 0.250000 0.000000
#
# Coordination Sequence:
#
# PCOD8259007 Si02
#       7
#    16  16  16  16  16  16  16
#     4  11  23  35  53  82 114 142 175 223 276 327
#     4   9  18  33  54  80 109 138 172 219 276 325
#     4   8  15  29  52  77 101 133 180 223 259 311
#     4  10  20  34  56  80 107 139 179 225 267 320
#     4  10  20  35  55  80 107 140 184 224 262 317
#     4   8  16  31  52  77 104 135 171 219 273 323
#     4  11  21  34  51  76 108 148 186 220 262 317
#
# _framework density 17.834402999999998
#
# number of rings (size 3 to 8) (size 9 to 14) (size 15 to 20)
#    0.000    2.429    1.429    2.143    4.000    3.143 
#    0.000    0.000    0.000    0.857    0.000    0.000 
#    0.000    0.000    0.000    0.000    0.000    0.000 
#
# Total GULP energy -694103.114881 kJ/mol
# GULP energy per Si atom -12394.698480 kJ/mol
# Density = 1.779381 g / cm^3
# Si number density = 17.834403 Si / 1000 Ang^3
#
#
#
# Elastic Constant Matrix: (Units=GPa)
#
#
# Indices 1 2 3 4 5 6 
#
# 1 61.8637 37.6024 34.4233 0.0000 0.0000 0.0000
# 2 37.6024 106.1876 39.7125 0.0000 0.0000 0.0000
# 3 34.4233 39.7125 92.4325 0.0000 0.0000 0.0000
# 4 0.0000 0.0000 0.0000 12.5607 0.0000 0.0000
# 5 0.0000 0.0000 0.0000 0.0000 15.8563 0.0000
# 6 0.0000 0.0000 0.0000 0.0000 0.0000 36.7722
#
#
#
# Elastic Compliance Matrix: (Units=1/GPa)
#
#
# Indices 1 2 3 4 5 6 
#
# 1 0.023146 -0.005924 -0.006074 0.000000 0.000000 0.000000
# 2 -0.005924 0.012737 -0.003266 0.000000 0.000000 0.000000
# 3 -0.006074 -0.003266 0.014484 0.000000 0.000000 0.000000
# 4 0.000000 0.000000 0.000000 0.079614 0.000000 0.000000
# 5 0.000000 0.000000 0.000000 0.000000 0.063067 0.000000
# 6 0.000000 0.000000 0.000000 0.000000 0.000000 0.027194
#
#
# Mechanical properties :
#
#
# Convention : Reuss Voigt Hill
#
# Bulk Modulus (GPa) = 50.41096 53.77337 52.09217
# Shear Modulus (GPa) = 19.42634 22.95419 21.19027
#
# Velocity S-wave (km/s) = 3.30398 3.59147 3.45072
# Velocity P-wave (km/s) = 6.54847 6.88587 6.71929
#
# Compressibility (1/GPa) = 0.01983696
#
# Stress axis : x y z
#
# Youngs Moduli (GPa) = 43.20468 78.51418 69.04157
#
# Poissons Ratio (x) = 0.46515 0.41939
# Poissons Ratio (y) = 0.25596 0.22547
# Poissons Ratio (z) = 0.26244 0.25641
#
# Static dielectric constant tensor:
#      x y z
#    x 3.489270 0.000000 0.000000 
#    y 0.000000 3.470570 0.000000 
#    z 0.000000 0.000000 3.300980 
# 
# 
# High freq. dielectric constant tensor:
#      x y z
#    x 1.696180 0.000000 0.000000 
#    y 0.000000 1.687760 0.000000 
#    z 0.000000 0.000000 1.667900 
# 
# From -- ./inp_files/55859.got.cif
#   From: 2010.03.12/outbox.cif.g09.slc.cpg/sg63_28_cif.got.tgz:55859.got - 2010.04.10 19:34:48.
