data_PCOD8259345
_publ_section_title
;
Structure prediction by ZEFSAII (Michael W. Deem and Ramdas Pophale) SiO2 
 PCOD8259345
Probable space group: C M C M
;
_chemical_formula_sum "Si O2"
_cell_formula_units_Z 104
_cell_length_a 11.773025
_cell_length_b 24.939663
_cell_length_c 17.587301
_cell_angle_alpha 90.000000
_cell_angle_beta 90.000000
_cell_angle_gamma 90.000000
_cell_volume 5163.900237
_symmetry_space_group_name_H-M "C M C M"
_symmetry_group_IT_number 63
_symmetry_cell_setting 'orthorhombic'
loop_
_space_group_symop_operation_xyz
x,y,z
-x,-y,1/2+z
x,-y,-z
-x,y,1/2-z
-x,-y,-z
x,y,1/2-z
-x,y,z
x,-y,1/2+z
1/2+x,1/2+y,z
1/2-x,1/2-y,1/2+z
1/2+x,1/2-y,-z
1/2-x,1/2+y,1/2-z
1/2-x,1/2-y,-z
1/2+x,1/2+y,1/2-z
1/2-x,1/2+y,z
1/2+x,1/2-y,1/2+z
loop_
_atom_site_type_symbol
_atom_site_label
_atom_site_fract_x
_atom_site_fract_y
_atom_site_fract_z
Si Si1 0.000000 0.131712 0.558651
Si Si2 0.803663 0.854503 0.938665
Si Si3 0.633881 0.856532 0.436475
Si Si4 0.500000 0.272749 0.159646
Si Si5 0.500000 0.534737 0.834764
Si Si6 0.241581 0.753722 0.409325
Si Si7 0.796468 0.045702 0.334634
Si Si8 0.632833 0.977845 0.420402
O O1 0.889960 0.146518 0.509617
O O2 0.000000 0.165363 0.636395
O O3 0.000000 0.072117 0.591091
O O4 0.810525 0.800656 0.885790
O O5 0.830035 0.905122 0.887612
O O6 0.677780 0.856584 0.976212
O O7 0.500000 0.845502 0.436585
O O8 0.695742 0.809669 0.385735
O O9 0.663900 0.915567 0.403246
O O10 0.500000 0.265271 0.250000
O O11 0.385276 0.247494 0.124062
O O12 0.500000 0.561913 0.750000
O O13 0.609129 0.498657 0.843934
O O14 0.250000 0.750000 0.500000
O O15 0.787254 0.068645 0.250000
O O16 0.679287 0.016302 0.354739
O O17 0.500000 0.985618 0.421561
O O18 0.684829 0.000000 0.500000
#
# Coordination Sequence:
#
# PCOD8259345 Si02
#       8
#     8  16  16   8   8  16  16  16
#     4  12  22  40  66 105 118 178 213 278 320 404
#     4  11  23  36  65  92 127 169 226 262 323 398
#     4  10  20  35  63  93 121 163 217 272 312 385
#     4  12  25  43  67 103 134 167 224 288 336 380
#     4  10  24  41  60  92 136 166 203 275 341 381
#     4  10  23  40  64  94 131 174 220 267 332 394
#     4  11  24  41  60  90 129 170 210 269 336 395
#     4  10  20  37  60  88 120 161 213 259 313 381
#
# _framework density 20.139816
#
# number of rings (size 3 to 8) (size 9 to 14) (size 15 to 20)
#    0.000    1.385    4.615    1.615    5.385    1.538 
#    0.000    0.000    0.000    1.385    0.000    0.000 
#    0.000    0.000    0.000    0.000    0.000    0.000 
#
# Total GULP energy -644356.817873 kJ/mol
# GULP energy per Si atom -12391.477267 kJ/mol
# Density = 2.009398 g / cm^3
# Si number density = 20.139816 Si / 1000 Ang^3
#
#
#
# Elastic Constant Matrix: (Units=GPa)
#
#
# Indices 1 2 3 4 5 6 
#
# 1 88.0177 49.3826 44.0824 0.0000 0.0000 0.0000
# 2 49.3826 116.3566 40.6807 0.0000 0.0000 0.0000
# 3 44.0824 40.6807 90.2229 0.0000 0.0000 0.0000
# 4 0.0000 0.0000 0.0000 26.1516 0.0000 0.0000
# 5 0.0000 0.0000 0.0000 0.0000 25.1098 0.0000
# 6 0.0000 0.0000 0.0000 0.0000 0.0000 13.8817
#
#
#
# Elastic Compliance Matrix: (Units=1/GPa)
#
#
# Indices 1 2 3 4 5 6 
#
# 1 0.017362 -0.005227 -0.006126 0.000000 0.000000 0.000000
# 2 -0.005227 0.011776 -0.002756 0.000000 0.000000 0.000000
# 3 -0.006126 -0.002756 0.015320 0.000000 0.000000 0.000000
# 4 0.000000 0.000000 0.000000 0.038239 0.000000 0.000000
# 5 0.000000 0.000000 0.000000 0.000000 0.039825 0.000000
# 6 0.000000 0.000000 0.000000 0.000000 0.000000 0.072037
#
#
# Mechanical properties :
#
#
# Convention : Reuss Voigt Hill
#
# Bulk Modulus (GPa) = 61.57748 62.54317 62.06032
# Shear Modulus (GPa) = 21.91156 23.72539 22.81847
#
# Velocity S-wave (km/s) = 3.30202 3.43597 3.36966
# Velocity P-wave (km/s) = 6.72154 6.84566 6.78389
#
# Compressibility (1/GPa) = 0.01623970
#
# Stress axis : x y z
#
# Youngs Moduli (GPa) = 57.59667 84.91791 65.27582
#
# Poissons Ratio (x) = 0.44384 0.39990
# Poissons Ratio (y) = 0.30104 0.17990
# Poissons Ratio (z) = 0.35286 0.23403
#
# Static dielectric constant tensor:
#      x y z
#    x 3.625690 0.000000 0.000000 
#    y 0.000000 4.416930 0.000000 
#    z 0.000000 0.000000 3.403570 
# 
# 
# High freq. dielectric constant tensor:
#      x y z
#    x 1.792030 0.000000 0.000000 
#    y 0.000000 1.808110 0.000000 
#    z 0.000000 0.000000 1.747220 
# 
# From -- ./inp_files/42839.got.cif
#   From: 2010.03.12/outbox.cif.g09.slc.cpg/sg63_22_cif.got.tgz:42839.got - 2010.04.10 19:34:48.
