data_PCOD8259606
_publ_section_title
;
Structure prediction by ZEFSAII (Michael W. Deem and Ramdas Pophale) SiO2 
 PCOD8259606
Probable space group: C M C M
;
_chemical_formula_sum "Si O2"
_cell_formula_units_Z 72
_cell_length_a 29.032362
_cell_length_b 13.960887
_cell_length_c 9.003107
_cell_angle_alpha 90.000000
_cell_angle_beta 90.000000
_cell_angle_gamma 90.000000
_cell_volume 3649.117049
_symmetry_space_group_name_H-M "C M C M"
_symmetry_group_IT_number 63
_symmetry_cell_setting 'orthorhombic'
loop_
_space_group_symop_operation_xyz
x,y,z
-x,-y,1/2+z
x,-y,-z
-x,y,1/2-z
-x,-y,-z
x,y,1/2-z
-x,y,z
x,-y,1/2+z
1/2+x,1/2+y,z
1/2-x,1/2-y,1/2+z
1/2+x,1/2-y,-z
1/2-x,1/2+y,1/2-z
1/2-x,1/2-y,-z
1/2+x,1/2+y,1/2-z
1/2-x,1/2+y,z
1/2+x,1/2-y,1/2+z
loop_
_atom_site_type_symbol
_atom_site_label
_atom_site_fract_x
_atom_site_fract_y
_atom_site_fract_z
Si Si1 0.814604 0.702751 0.924026
Si Si2 0.768194 0.099621 0.074979
Si Si3 0.448315 0.407501 0.077794
Si Si4 0.091818 0.708486 0.076569
Si Si5 0.000000 0.398859 0.925438
O O1 0.809897 0.682453 0.750000
O O2 0.804109 0.814479 0.960908
O O3 0.780792 0.631146 0.009393
O O4 0.865324 0.673984 0.979161
O O5 0.763318 0.082936 0.250000
O O6 0.784830 0.000000 0.000000
O O7 0.450835 0.428862 0.250000
O O8 0.500000 0.386381 0.017411
O O9 0.414915 0.320145 0.042804
O O10 0.426444 0.500000 0.000000
O O11 0.101521 0.689293 0.250000
O O12 0.045790 0.655615 0.021821
O O13 0.000000 0.408264 0.750000
O O14 0.000000 0.500000 0.000000
#
# Coordination Sequence:
#
# PCOD8259606 Si02
#       5
#    16  16  16  16   8
#     4  10  22  38  58  87 118 148 189 235 284 341
#     4  10  21  39  62  86 115 150 187 232 285 342
#     4   9  17  31  51  75 104 141 183 226 274 329
#     4  10  20  37  58  79 112 153 191 232 283 337
#     4  10  22  40  59  80 108 148 195 238 279 326
#
# _framework density 19.730801
#
# number of rings (size 3 to 8) (size 9 to 14) (size 15 to 20)
#    0.000    2.222    1.111    1.333    0.000    6.222 
#    0.000    6.667    0.000    0.000    0.000    0.000 
#    0.000    0.000    0.000    0.000    0.000    0.000 
#
# Total GULP energy -446404.265823 kJ/mol
# GULP energy per Si atom -12400.118495 kJ/mol
# Density = 1.968589 g / cm^3
# Si number density = 19.730801 Si / 1000 Ang^3
#
#
#
# Elastic Constant Matrix: (Units=GPa)
#
#
# Indices 1 2 3 4 5 6 
#
# 1 110.0712 21.8954 34.3227 0.0000 0.0000 0.0000
# 2 21.8954 85.4912 35.3836 0.0000 0.0000 0.0000
# 3 34.3227 35.3836 60.7847 0.0000 0.0000 0.0000
# 4 0.0000 0.0000 0.0000 38.5068 0.0000 0.0000
# 5 0.0000 0.0000 0.0000 0.0000 31.7015 0.0000
# 6 0.0000 0.0000 0.0000 0.0000 0.0000 6.1253
#
#
#
# Elastic Compliance Matrix: (Units=1/GPa)
#
#
# Indices 1 2 3 4 5 6 
#
# 1 0.011033 -0.000326 -0.006041 0.000000 0.000000 0.000000
# 2 -0.000326 0.015419 -0.008792 0.000000 0.000000 0.000000
# 3 -0.006041 -0.008792 0.024980 0.000000 0.000000 0.000000
# 4 0.000000 0.000000 0.000000 0.025969 0.000000 0.000000
# 5 0.000000 0.000000 0.000000 0.000000 0.031544 0.000000
# 6 0.000000 0.000000 0.000000 0.000000 0.000000 0.163259
#
#
# Mechanical properties :
#
#
# Convention : Reuss Voigt Hill
#
# Bulk Modulus (GPa) = 47.35583 48.83895 48.09739
# Shear Modulus (GPa) = 16.15194 26.24975 21.20084
#
# Velocity S-wave (km/s) = 2.86425 3.65141 3.28152
# Velocity P-wave (km/s) = 5.91537 6.52560 6.22797
#
# Compressibility (1/GPa) = 0.02111672
#
# Stress axis : x y z
#
# Youngs Moduli (GPa) = 90.63402 64.85347 40.03166
#
# Poissons Ratio (x) = 0.02112 0.24181
# Poissons Ratio (y) = 0.02952 0.35195
# Poissons Ratio (z) = 0.54748 0.57019
#
# Static dielectric constant tensor:
#      x y z
#    x 3.531290 0.000000 0.000000 
#    y 0.000000 3.638440 0.000000 
#    z 0.000000 0.000000 3.480330 
# 
# 
# High freq. dielectric constant tensor:
#      x y z
#    x 1.764530 0.000000 0.000000 
#    y 0.000000 1.770260 0.000000 
#    z 0.000000 0.000000 1.764640 
# 
# From -- ./inp_files/11677.got.cif
#   From: 2010.03.12/outbox.cif.g09.slc.cpg/sg63_6_cif.got.tgz:11677.got - 2010.04.10 19:34:48.
