data_PCOD8259188
_publ_section_title
;
Structure prediction by ZEFSAII (Michael W. Deem and Ramdas Pophale) SiO2 
 PCOD8259188
Probable space group: C M C M
;
_chemical_formula_sum "Si O2"
_cell_formula_units_Z 88
_cell_length_a 30.291096
_cell_length_b 17.498298
_cell_length_c 8.859513
_cell_angle_alpha 90.000000
_cell_angle_beta 90.000000
_cell_angle_gamma 90.000000
_cell_volume 4695.919523
_symmetry_space_group_name_H-M "C M C M"
_symmetry_group_IT_number 63
_symmetry_cell_setting 'orthorhombic'
loop_
_space_group_symop_operation_xyz
x,y,z
-x,-y,1/2+z
x,-y,-z
-x,y,1/2-z
-x,-y,-z
x,y,1/2-z
-x,y,z
x,-y,1/2+z
1/2+x,1/2+y,z
1/2-x,1/2-y,1/2+z
1/2+x,1/2-y,-z
1/2-x,1/2+y,1/2-z
1/2-x,1/2-y,-z
1/2+x,1/2+y,1/2-z
1/2-x,1/2+y,z
1/2+x,1/2-y,1/2+z
loop_
_atom_site_type_symbol
_atom_site_label
_atom_site_fract_x
_atom_site_fract_y
_atom_site_fract_z
Si Si1 0.050460 0.081844 0.428230
Si Si2 0.333671 0.073710 0.574027
Si Si3 0.916182 0.634561 0.419726
Si Si4 0.500000 0.917897 0.426054
Si Si5 0.880356 0.196035 0.579011
Si Si6 0.296985 0.760813 0.426296
O O1 0.056801 0.075991 0.250000
O O2 0.086153 0.140807 0.492260
O O3 0.000000 0.107376 0.468140
O O4 0.060583 0.000000 0.500000
O O5 0.340759 0.060249 0.750000
O O6 0.380454 0.078143 0.490661
O O7 0.307253 0.150774 0.541294
O O8 0.308911 0.000000 0.500000
O O9 0.926564 0.606788 0.250000
O O10 0.901071 0.721057 0.421441
O O11 0.958616 0.631602 0.523870
O O12 0.500000 0.928936 0.250000
O O13 0.500000 0.000000 0.500000
O O14 0.873520 0.166194 0.750000
O O15 0.832635 0.202424 0.498280
O O16 0.295318 0.742480 0.250000
O O17 0.250000 0.750000 0.500000
#
# Coordination Sequence:
#
# PCOD8259188 Si02
#       6
#    16  16  16   8  16  16
#     4  10  21  37  58  85 117 154 194 239 291 346
#     4  10  20  35  56  81 108 141 179 222 270 326
#     4  10  21  36  53  76 106 142 182 224 268 318
#     4  12  24  36  50  70 103 142 181 224 268 314
#     4  10  21  37  59  84 112 147 187 231 281 339
#     4  10  21  38  60  85 114 146 186 234 287 343
#
# _framework density 18.739673
#
# number of rings (size 3 to 8) (size 9 to 14) (size 15 to 20)
#    0.000    1.818    0.000    4.091    1.273    5.455 
#    0.000    0.909    0.000    2.182    0.000    0.000 
#    0.000    0.000    0.000    0.000    0.000    0.000 
#
# Total GULP energy -545583.258837 kJ/mol
# GULP energy per Si atom -12399.619519 kJ/mol
# Density = 1.869702 g / cm^3
# Si number density = 18.739673 Si / 1000 Ang^3
#
#
#
# Elastic Constant Matrix: (Units=GPa)
#
#
# Indices 1 2 3 4 5 6 
#
# 1 135.9953 45.4597 74.3688 0.0000 0.0000 0.0000
# 2 45.4597 77.5904 53.9175 0.0000 0.0000 0.0000
# 3 74.3688 53.9175 154.7798 0.0000 0.0000 0.0000
# 4 0.0000 0.0000 0.0000 35.7393 0.0000 0.0000
# 5 0.0000 0.0000 0.0000 0.0000 35.7960 0.0000
# 6 0.0000 0.0000 0.0000 0.0000 0.0000 18.8798
#
#
#
# Elastic Compliance Matrix: (Units=1/GPa)
#
#
# Indices 1 2 3 4 5 6 
#
# 1 0.010665 -0.003546 -0.003889 0.000000 0.000000 0.000000
# 2 -0.003546 0.018183 -0.004630 0.000000 0.000000 0.000000
# 3 -0.003889 -0.004630 0.009942 0.000000 0.000000 0.000000
# 4 0.000000 0.000000 0.000000 0.027980 0.000000 0.000000
# 5 0.000000 0.000000 0.000000 0.000000 0.027936 0.000000
# 6 0.000000 0.000000 0.000000 0.000000 0.000000 0.052967
#
#
# Mechanical properties :
#
#
# Convention : Reuss Voigt Hill
#
# Bulk Modulus (GPa) = 68.21331 79.53972 73.87651
# Shear Modulus (GPa) = 28.29770 31.05764 29.67767
#
# Velocity S-wave (km/s) = 3.89014 4.07544 3.98387
# Velocity P-wave (km/s) = 7.52709 8.04253 7.78908
#
# Compressibility (1/GPa) = 0.01465990
#
# Stress axis : x y z
#
# Youngs Moduli (GPa) = 93.76114 54.99491 100.57868
#
# Poissons Ratio (x) = 0.19502 0.39117
# Poissons Ratio (y) = 0.33249 0.46571
# Poissons Ratio (z) = 0.36466 0.25465
#
# Static dielectric constant tensor:
#      x y z
#    x 3.399590 0.000000 0.000000 
#    y 0.000000 3.370220 0.000000 
#    z 0.000000 0.000000 3.081110 
# 
# 
# High freq. dielectric constant tensor:
#      x y z
#    x 1.720260 0.000000 0.000000 
#    y 0.000000 1.726430 0.000000 
#    z 0.000000 0.000000 1.750240 
# 
# From -- ./inp_files/14230.got.cif
#   From: 2010.03.12/outbox.cif.g09.slc.cpg/sg63_8_cif.got.tgz:14230.got - 2010.04.10 19:34:48.
