data_PCOD8259091
_publ_section_title
;
Structure prediction by ZEFSAII (Michael W. Deem and Ramdas Pophale) SiO2 
 PCOD8259091
Probable space group: C M C M
;
_chemical_formula_sum "Si O2"
_cell_formula_units_Z 112
_cell_length_a 13.768679
_cell_length_b 23.350638
_cell_length_c 17.475642
_cell_angle_alpha 90.000000
_cell_angle_beta 90.000000
_cell_angle_gamma 90.000000
_cell_volume 5618.548905
_symmetry_space_group_name_H-M "C M C M"
_symmetry_group_IT_number 63
_symmetry_cell_setting 'orthorhombic'
loop_
_space_group_symop_operation_xyz
x,y,z
-x,-y,1/2+z
x,-y,-z
-x,y,1/2-z
-x,-y,-z
x,y,1/2-z
-x,y,z
x,-y,1/2+z
1/2+x,1/2+y,z
1/2-x,1/2-y,1/2+z
1/2+x,1/2-y,-z
1/2-x,1/2+y,1/2-z
1/2-x,1/2-y,-z
1/2+x,1/2+y,1/2-z
1/2-x,1/2+y,z
1/2+x,1/2-y,1/2+z
loop_
_atom_site_type_symbol
_atom_site_label
_atom_site_fract_x
_atom_site_fract_y
_atom_site_fract_z
Si Si1 0.887588 0.438235 0.660084
Si Si2 0.389599 0.500053 0.586718
Si Si3 0.392194 0.720202 0.161258
Si Si4 0.113143 0.124930 0.933150
Si Si5 0.294080 0.610806 0.098893
Si Si6 0.268305 0.826047 0.340767
Si Si7 0.893008 0.432988 0.340598
O O1 0.867469 0.429383 0.750000
O O2 0.822580 0.393575 0.610519
O O3 0.860071 0.503322 0.634420
O O4 0.000000 0.425734 0.641303
O O5 0.352046 0.500000 0.500000
O O6 0.500000 0.479353 0.589962
O O7 0.377736 0.565360 0.615733
O O8 0.331519 0.450814 0.632215
O O9 0.404710 0.732519 0.250000
O O10 0.500000 0.718542 0.123251
O O11 0.336076 0.661092 0.150620
O O12 0.329490 0.772505 0.126553
O O13 0.162174 0.174041 0.880891
O O14 0.000000 0.139362 0.948809
O O15 0.171571 0.121663 0.012589
O O16 0.254848 0.822857 0.250000
O O17 0.319477 0.884546 0.369924
O O18 0.899533 0.430375 0.250000
O O19 0.000000 0.419759 0.374433
#
# Coordination Sequence:
#
# PCOD8259091 Si02
#       7
#    16  16  16  16  16  16  16
#     4   9  18  32  51  77 108 140 174 213 259 315
#     4   8  15  29  50  76 106 140 174 211 262 317
#     4  10  21  36  55  80 106 133 170 216 263 314
#     4  10  21  36  55  79 106 139 180 226 270 312
#     4  11  19  33  55  77 107 143 176 211 260 318
#     4  10  20  35  54  75 102 139 179 220 270 321
#     4   8  14  28  52  78 102 132 173 221 268 311
#
# _framework density 19.933973000000002
#
# number of rings (size 3 to 8) (size 9 to 14) (size 15 to 20)
#    0.000    2.571    0.000    4.714    0.000    2.571 
#    0.000    2.857    0.000    8.143    0.000    0.000 
#    0.000    0.000    0.000    0.000    0.000    0.000 
#
# Total GULP energy -693926.603653 kJ/mol
# GULP energy per Si atom -12391.546494 kJ/mol
# Density = 1.988860 g / cm^3
# Si number density = 19.933973 Si / 1000 Ang^3
#
#
#
# Elastic Constant Matrix: (Units=GPa)
#
#
# Indices 1 2 3 4 5 6 
#
# 1 137.3983 77.3172 39.1407 0.0000 0.0000 0.0000
# 2 77.3172 94.5647 23.9786 0.0000 0.0000 0.0000
# 3 39.1407 23.9786 33.0117 0.0000 0.0000 0.0000
# 4 0.0000 0.0000 0.0000 21.7725 0.0000 0.0000
# 5 0.0000 0.0000 0.0000 0.0000 28.7738 0.0000
# 6 0.0000 0.0000 0.0000 0.0000 0.0000 30.2550
#
#
#
# Elastic Compliance Matrix: (Units=1/GPa)
#
#
# Indices 1 2 3 4 5 6 
#
# 1 0.016663 -0.010559 -0.012087 0.000000 0.000000 0.000000
# 2 -0.010559 0.019653 -0.001756 0.000000 0.000000 0.000000
# 3 -0.012087 -0.001756 0.045899 0.000000 0.000000 0.000000
# 4 0.000000 0.000000 0.000000 0.045929 0.000000 0.000000
# 5 0.000000 0.000000 0.000000 0.000000 0.034754 0.000000
# 6 0.000000 0.000000 0.000000 0.000000 0.000000 0.033052
#
#
# Mechanical properties :
#
#
# Convention : Reuss Voigt Hill
#
# Bulk Modulus (GPa) = 29.93021 60.64974 45.28997
# Shear Modulus (GPa) = 19.53944 24.46281 22.00113
#
# Velocity S-wave (km/s) = 3.13422 3.50693 3.32580
# Velocity P-wave (km/s) = 5.30519 6.84759 6.12513
#
# Compressibility (1/GPa) = 0.03341106
#
# Stress axis : x y z
#
# Youngs Moduli (GPa) = 60.01223 50.88206 21.78699
#
# Poissons Ratio (x) = 0.53727 0.26334
# Poissons Ratio (y) = 0.63368 0.03826
# Poissons Ratio (z) = 0.72538 0.08934
#
# Static dielectric constant tensor:
#      x y z
#    x 3.810700 0.000000 0.000000 
#    y 0.000000 3.735560 0.000000 
#    z 0.000000 0.000000 3.095970 
# 
# 
# High freq. dielectric constant tensor:
#      x y z
#    x 1.788810 0.000000 0.000000 
#    y 0.000000 1.768530 0.000000 
#    z 0.000000 0.000000 1.730400 
# 
# From -- ./inp_files/53133.got.cif
#   From: 2010.03.12/outbox.cif.g09.slc.cpg/sg63_27_cif.got.tgz:53133.got - 2010.04.10 19:34:48.
