data_PCOD8259417
_publ_section_title
;
Structure prediction by ZEFSAII (Michael W. Deem and Ramdas Pophale) SiO2 
 PCOD8259417
Probable space group: C M C M
;
_chemical_formula_sum "Si O2"
_cell_formula_units_Z 96
_cell_length_a 8.835671
_cell_length_b 20.676824
_cell_length_c 28.063572
_cell_angle_alpha 90.000000
_cell_angle_beta 90.000000
_cell_angle_gamma 90.000000
_cell_volume 5127.035396
_symmetry_space_group_name_H-M "C M C M"
_symmetry_group_IT_number 63
_symmetry_cell_setting 'orthorhombic'
loop_
_space_group_symop_operation_xyz
x,y,z
-x,-y,1/2+z
x,-y,-z
-x,y,1/2-z
-x,-y,-z
x,y,1/2-z
-x,y,z
x,-y,1/2+z
1/2+x,1/2+y,z
1/2-x,1/2-y,1/2+z
1/2+x,1/2-y,-z
1/2-x,1/2+y,1/2-z
1/2-x,1/2-y,-z
1/2+x,1/2+y,1/2-z
1/2-x,1/2+y,z
1/2+x,1/2-y,1/2+z
loop_
_atom_site_type_symbol
_atom_site_label
_atom_site_fract_x
_atom_site_fract_y
_atom_site_fract_z
Si Si1 0.179688 0.247952 0.447839
Si Si2 0.176801 0.925255 0.695557
Si Si3 0.177735 0.072900 0.696532
Si Si4 0.179785 0.499793 0.053184
Si Si5 0.321031 0.125139 0.607484
Si Si6 0.821298 0.628610 0.106511
O O1 0.250000 0.250000 0.500000
O O2 0.236002 0.310944 0.419192
O O3 0.236187 0.186949 0.418465
O O4 0.000000 0.246320 0.452730
O O5 0.210349 0.905098 0.750000
O O6 0.271939 0.877490 0.661645
O O7 0.000000 0.917821 0.684105
O O8 0.230089 0.999117 0.686871
O O9 0.223739 0.093103 0.750000
O O10 0.259156 0.122901 0.661262
O O11 0.000000 0.078326 0.689347
O O12 0.245343 0.436897 0.079645
O O13 0.233867 0.563963 0.079933
O O14 0.000000 0.496351 0.051782
O O15 0.246907 0.500000 0.000000
O O16 0.500000 0.123429 0.609528
O O17 0.000000 0.639624 0.102736
#
# Coordination Sequence:
#
# PCOD8259417 Si02
#       6
#    16  16  16  16  16  16
#     4  11  24  41  60  81 113 154 193 232 282 341
#     4   9  18  34  56  83 117 152 184 226 283 340
#     4   9  18  33  55  84 117 149 180 226 286 337
#     4   9  17  31  52  78 107 138 178 228 278 328
#     4  10  20  36  57  82 110 147 189 231 279 331
#     4  11  21  35  58  85 114 148 187 235 285 335
#
# _framework density 18.724271999999999
#
# number of rings (size 3 to 8) (size 9 to 14) (size 15 to 20)
#    0.000    2.167    1.667    3.000    0.000    4.667 
#    0.000    2.500    0.000    3.500    0.000    0.000 
#    0.000    0.000    0.000    0.000    0.000    0.000 
#
# Total GULP energy -595256.613484 kJ/mol
# GULP energy per Si atom -12401.179448 kJ/mol
# Density = 1.868165 g / cm^3
# Si number density = 18.724272 Si / 1000 Ang^3
#
#
#
# Elastic Constant Matrix: (Units=GPa)
#
#
# Indices 1 2 3 4 5 6 
#
# 1 40.5713 37.0858 37.4390 0.0000 0.0000 0.0000
# 2 37.0858 137.6809 77.4693 0.0000 0.0000 0.0000
# 3 37.4390 77.4693 159.2370 0.0000 0.0000 0.0000
# 4 0.0000 0.0000 0.0000 35.3842 0.0000 0.0000
# 5 0.0000 0.0000 0.0000 0.0000 34.7523 0.0000
# 6 0.0000 0.0000 0.0000 0.0000 0.0000 27.1285
#
#
#
# Elastic Compliance Matrix: (Units=1/GPa)
#
#
# Indices 1 2 3 4 5 6 
#
# 1 0.035452 -0.006691 -0.005080 0.000000 0.000000 0.000000
# 2 -0.006691 0.011264 -0.003907 0.000000 0.000000 0.000000
# 3 -0.005080 -0.003907 0.009375 0.000000 0.000000 0.000000
# 4 0.000000 0.000000 0.000000 0.028261 0.000000 0.000000
# 5 0.000000 0.000000 0.000000 0.000000 0.028775 0.000000
# 6 0.000000 0.000000 0.000000 0.000000 0.000000 0.036862
#
#
# Mechanical properties :
#
#
# Convention : Reuss Voigt Hill
#
# Bulk Modulus (GPa) = 40.42826 71.27525 55.85175
# Shear Modulus (GPa) = 26.37287 31.81936 29.09611
#
# Velocity S-wave (km/s) = 3.75705 4.12681 3.94626
# Velocity P-wave (km/s) = 6.36072 7.80101 7.11739
#
# Compressibility (1/GPa) = 0.02473517
#
# Stress axis : x y z
#
# Youngs Moduli (GPa) = 28.20716 88.78163 106.66718
#
# Poissons Ratio (x) = 0.59403 0.54188
# Poissons Ratio (y) = 0.18873 0.41671
# Poissons Ratio (z) = 0.14330 0.34684
#
# Static dielectric constant tensor:
#      x y z
#    x 3.173600 0.000000 0.000000 
#    y 0.000000 3.484320 0.000000 
#    z 0.000000 0.000000 3.581070 
# 
# 
# High freq. dielectric constant tensor:
#      x y z
#    x 1.709320 0.000000 0.000000 
#    y 0.000000 1.715150 0.000000 
#    z 0.000000 0.000000 1.744250 
# 
# From -- ./inp_files/66983.got.cif
#   From: 2010.03.12/outbox.cif.g09.slc.cpg/sg63_34_cif.got.tgz:66983.got - 2010.04.10 19:34:48.
