data_PCOD8259154
_publ_section_title
;
Structure prediction by ZEFSAII (Michael W. Deem and Ramdas Pophale) SiO2 
 PCOD8259154
Probable space group: C M C M
;
_chemical_formula_sum "Si O2"
_cell_formula_units_Z 88
_cell_length_a 22.193689
_cell_length_b 24.608434
_cell_length_c 8.800634
_cell_angle_alpha 90.000000
_cell_angle_beta 90.000000
_cell_angle_gamma 90.000000
_cell_volume 4806.483253
_symmetry_space_group_name_H-M "C M C M"
_symmetry_group_IT_number 63
_symmetry_cell_setting 'orthorhombic'
loop_
_space_group_symop_operation_xyz
x,y,z
-x,-y,1/2+z
x,-y,-z
-x,y,1/2-z
-x,-y,-z
x,y,1/2-z
-x,y,z
x,-y,1/2+z
1/2+x,1/2+y,z
1/2-x,1/2-y,1/2+z
1/2+x,1/2-y,-z
1/2-x,1/2+y,1/2-z
1/2-x,1/2-y,-z
1/2+x,1/2+y,1/2-z
1/2-x,1/2+y,z
1/2+x,1/2-y,1/2+z
loop_
_atom_site_type_symbol
_atom_site_label
_atom_site_fract_x
_atom_site_fract_y
_atom_site_fract_z
Si Si1 0.429460 0.152193 0.426029
Si Si2 0.853472 0.443030 0.430099
Si Si3 0.282407 0.555165 0.926318
Si Si4 0.500000 0.559442 0.069954
Si Si5 0.070612 0.235078 0.426420
Si Si6 0.893194 0.873008 0.071843
O O1 0.412155 0.155393 0.250000
O O2 0.500000 0.142678 0.450417
O O3 0.395699 0.103186 0.504960
O O4 0.408466 0.207603 0.506051
O O5 0.875098 0.500000 0.500000
O O6 0.860251 0.445301 0.250000
O O7 0.784907 0.430476 0.482927
O O8 0.281137 0.543094 0.750000
O O9 0.326790 0.604509 0.966387
O O10 0.307216 0.500000 0.000000
O O11 0.500000 0.554747 0.250000
O O12 0.500000 0.500000 0.000000
O O13 0.441189 0.591576 0.018679
O O14 0.087597 0.233028 0.250000
O O15 0.106573 0.188800 0.515889
O O16 0.000000 0.225351 0.453105
O O17 0.908217 0.876000 0.250000
#
# Coordination Sequence:
#
# PCOD8259154 Si02
#       6
#    16  16  16   8  16  16
#     4  10  21  37  58  84 112 142 179 222 271 325
#     4  10  20  37  59  83 112 143 179 221 270 327
#     4   9  20  36  55  79 107 143 183 225 272 326
#     4  12  24  36  50  76 110 144 185 234 281 324
#     4  10  20  35  55  80 110 144 183 226 274 326
#     4  11  21  35  55  79 108 144 185 228 276 325
#
# _framework density 18.308605
#
# number of rings (size 3 to 8) (size 9 to 14) (size 15 to 20)
#    0.000    1.818    0.909    3.545    0.000    5.818 
#    0.000    0.909    0.000    0.000    0.000    0.000 
#    0.000    0.000    0.000    0.000    0.000    0.000 
#
# Total GULP energy -545771.127289 kJ/mol
# GULP energy per Si atom -12403.889257 kJ/mol
# Density = 1.826693 g / cm^3
# Si number density = 18.308605 Si / 1000 Ang^3
#
#
#
# Elastic Constant Matrix: (Units=GPa)
#
#
# Indices 1 2 3 4 5 6 
#
# 1 60.9139 63.5900 43.2608 0.0000 0.0000 0.0000
# 2 63.5900 164.1445 66.1011 0.0000 0.0000 0.0000
# 3 43.2608 66.1011 106.3430 0.0000 0.0000 0.0000
# 4 0.0000 0.0000 0.0000 40.4306 0.0000 0.0000
# 5 0.0000 0.0000 0.0000 0.0000 22.9585 0.0000
# 6 0.0000 0.0000 0.0000 0.0000 0.0000 31.8001
#
#
#
# Elastic Compliance Matrix: (Units=1/GPa)
#
#
# Indices 1 2 3 4 5 6 
#
# 1 0.030893 -0.009213 -0.006841 0.000000 0.000000 0.000000
# 2 -0.009213 0.010874 -0.003011 0.000000 0.000000 0.000000
# 3 -0.006841 -0.003011 0.014058 0.000000 0.000000 0.000000
# 4 0.000000 0.000000 0.000000 0.024734 0.000000 0.000000
# 5 0.000000 0.000000 0.000000 0.000000 0.043557 0.000000
# 6 0.000000 0.000000 0.000000 0.000000 0.000000 0.031446
#
#
# Mechanical properties :
#
#
# Convention : Reuss Voigt Hill
#
# Bulk Modulus (GPa) = 56.51328 75.25613 65.88471
# Shear Modulus (GPa) = 25.05138 29.60113 27.32626
#
# Velocity S-wave (km/s) = 3.70305 4.02529 3.86753
# Velocity P-wave (km/s) = 7.01552 7.92448 7.48381
#
# Compressibility (1/GPa) = 0.01769496
#
# Stress axis : x y z
#
# Youngs Moduli (GPa) = 32.37005 91.96238 71.13411
#
# Poissons Ratio (x) = 0.84727 0.48659
# Poissons Ratio (y) = 0.29823 0.21419
# Poissons Ratio (z) = 0.22143 0.27691
#
# Static dielectric constant tensor:
#      x y z
#    x 2.913200 0.000000 0.000000 
#    y 0.000000 3.489740 0.000000 
#    z 0.000000 0.000000 3.467490 
# 
# 
# High freq. dielectric constant tensor:
#      x y z
#    x 1.696730 0.000000 0.000000 
#    y 0.000000 1.718090 0.000000 
#    z 0.000000 0.000000 1.725940 
# 
# From -- ./inp_files/10230.got.cif
#   From: 2010.03.12/outbox.cif.g09.slc.cpg/sg63_6_cif.got.tgz:10230.got - 2010.04.10 19:34:48.
