data_PCOD8259992
_publ_section_title
;
Structure prediction by ZEFSAII (Michael W. Deem and Ramdas Pophale) SiO2 
 PCOD8259992
Probable space group: C M C M
;
_chemical_formula_sum "Si O2"
_cell_formula_units_Z 80
_cell_length_a 9.057690
_cell_length_b 19.191086
_cell_length_c 25.196485
_cell_angle_alpha 90.000000
_cell_angle_beta 90.000000
_cell_angle_gamma 90.000000
_cell_volume 4379.827074
_symmetry_space_group_name_H-M "C M C M"
_symmetry_group_IT_number 63
_symmetry_cell_setting 'orthorhombic'
loop_
_space_group_symop_operation_xyz
x,y,z
-x,-y,1/2+z
x,-y,-z
-x,y,1/2-z
-x,-y,-z
x,y,1/2-z
-x,y,z
x,-y,1/2+z
1/2+x,1/2+y,z
1/2-x,1/2-y,1/2+z
1/2+x,1/2-y,-z
1/2-x,1/2+y,1/2-z
1/2-x,1/2-y,-z
1/2+x,1/2+y,1/2-z
1/2-x,1/2+y,z
1/2+x,1/2-y,1/2+z
loop_
_atom_site_type_symbol
_atom_site_label
_atom_site_fract_x
_atom_site_fract_y
_atom_site_fract_z
Si Si1 0.828750 0.627813 0.311964
Si Si2 0.671272 0.271763 0.612688
Si Si3 0.326940 0.883466 0.417493
Si Si4 0.170675 0.985676 0.878309
Si Si5 0.332363 0.383250 0.526551
O O1 0.799968 0.635746 0.250000
O O2 0.767259 0.697390 0.339581
O O3 0.745806 0.559222 0.332299
O O4 0.000000 0.619918 0.325910
O O5 0.500000 0.281429 0.627667
O O6 0.716281 0.192012 0.604891
O O7 0.704986 0.312576 0.558156
O O8 0.500000 0.897017 0.414549
O O9 0.278840 0.890509 0.478258
O O10 0.245391 0.938845 0.380194
O O11 0.191329 0.949136 0.935219
O O12 0.000000 0.994038 0.863670
O O13 0.500000 0.381950 0.504814
#
# Coordination Sequence:
#
# PCOD8259992 Si02
#       5
#    16  16  16  16  16
#     4  10  21  38  60  82 101 126 168 220 267 314
#     4   9  20  36  53  77 108 141 176 212 255 309
#     4  11  21  32  50  79 112 143 176 215 258 302
#     4  10  21  36  54  77 106 141 178 214 257 310
#     4   9  18  33  51  73 105 145 183 214 250 303
#
# _framework density 18.265561999999999
#
# number of rings (size 3 to 8) (size 9 to 14) (size 15 to 20)
#    0.000    2.200    0.000    4.200    0.000    9.600 
#    0.000    1.000    0.000    1.200    0.000    0.000 
#    0.000    0.000    0.000    0.000    0.000    0.000 
#
# Total GULP energy -496175.327679 kJ/mol
# GULP energy per Si atom -12404.383192 kJ/mol
# Density = 1.822399 g / cm^3
# Si number density = 18.265562 Si / 1000 Ang^3
#
#
#
# Elastic Constant Matrix: (Units=GPa)
#
#
# Indices 1 2 3 4 5 6 
#
# 1 95.1791 50.9874 39.4653 0.0000 0.0000 0.0000
# 2 50.9874 123.1878 26.2043 0.0000 0.0000 0.0000
# 3 39.4653 26.2043 62.7596 0.0000 0.0000 0.0000
# 4 0.0000 0.0000 0.0000 11.1581 0.0000 0.0000
# 5 0.0000 0.0000 0.0000 0.0000 31.5887 0.0000
# 6 0.0000 0.0000 0.0000 0.0000 0.0000 35.0511
#
#
#
# Elastic Compliance Matrix: (Units=1/GPa)
#
#
# Indices 1 2 3 4 5 6 
#
# 1 0.016736 -0.005145 -0.008376 0.000000 0.000000 0.000000
# 2 -0.005145 0.010491 -0.001145 0.000000 0.000000 0.000000
# 3 -0.008376 -0.001145 0.021679 0.000000 0.000000 0.000000
# 4 0.000000 0.000000 0.000000 0.089621 0.000000 0.000000
# 5 0.000000 0.000000 0.000000 0.000000 0.031657 0.000000
# 6 0.000000 0.000000 0.000000 0.000000 0.000000 0.028530
#
#
# Mechanical properties :
#
#
# Convention : Reuss Voigt Hill
#
# Bulk Modulus (GPa) = 51.08854 57.16006 54.12430
# Shear Modulus (GPa) = 21.31567 26.52420 23.91993
#
# Velocity S-wave (km/s) = 3.41982 3.81483 3.62272
# Velocity P-wave (km/s) = 6.60486 7.12501 6.86986
#
# Compressibility (1/GPa) = 0.01957386
#
# Stress axis : x y z
#
# Youngs Moduli (GPa) = 59.75239 95.32139 46.12825
#
# Poissons Ratio (x) = 0.49045 0.38635
# Poissons Ratio (y) = 0.30744 0.05281
# Poissons Ratio (z) = 0.50047 0.10912
#
# Static dielectric constant tensor:
#      x y z
#    x 3.436830 0.000000 0.000000 
#    y 0.000000 3.601290 0.000000 
#    z 0.000000 0.000000 3.091260 
# 
# 
# High freq. dielectric constant tensor:
#      x y z
#    x 1.718260 0.000000 0.000000 
#    y 0.000000 1.716940 0.000000 
#    z 0.000000 0.000000 1.686610 
# 
# From -- ./inp_files/66558.got.cif
#   From: 2010.03.12/outbox.cif.g09.slc.cpg/sg63_34_cif.got.tgz:66558.got - 2010.04.10 19:34:48.
