data_PCOD8259310
_publ_section_title
;
Structure prediction by ZEFSAII (Michael W. Deem and Ramdas Pophale) SiO2 
 PCOD8259310
Probable space group: C M C M
;
_chemical_formula_sum "Si O2"
_cell_formula_units_Z 128
_cell_length_a 18.717596
_cell_length_b 20.300636
_cell_length_c 17.044400
_cell_angle_alpha 90.000000
_cell_angle_beta 90.000000
_cell_angle_gamma 90.000000
_cell_volume 6476.515826
_symmetry_space_group_name_H-M "C M C M"
_symmetry_group_IT_number 63
_symmetry_cell_setting 'orthorhombic'
loop_
_space_group_symop_operation_xyz
x,y,z
-x,-y,1/2+z
x,-y,-z
-x,y,1/2-z
-x,-y,-z
x,y,1/2-z
-x,y,z
x,-y,1/2+z
1/2+x,1/2+y,z
1/2-x,1/2-y,1/2+z
1/2+x,1/2-y,-z
1/2-x,1/2+y,1/2-z
1/2-x,1/2-y,-z
1/2+x,1/2+y,1/2-z
1/2-x,1/2+y,z
1/2+x,1/2-y,1/2+z
loop_
_atom_site_type_symbol
_atom_site_label
_atom_site_fract_x
_atom_site_fract_y
_atom_site_fract_z
Si Si1 0.916853 0.445181 0.409997
Si Si2 0.915603 0.588519 0.417796
Si Si3 0.156847 0.714357 0.343886
Si Si4 0.916366 0.843044 0.086363
Si Si5 0.917199 0.109133 0.089182
Si Si6 0.083960 0.974590 0.336952
Si Si7 0.421647 0.815485 0.339497
Si Si8 0.317442 0.710124 0.159312
O O1 0.886796 0.517112 0.385791
O O2 0.889832 0.412814 0.491579
O O3 0.898185 0.391994 0.343363
O O4 0.000000 0.458210 0.421573
O O5 0.880309 0.646732 0.368823
O O6 0.000000 0.598389 0.408328
O O7 0.149598 0.723361 0.250000
O O8 0.123168 0.776521 0.388689
O O9 0.238000 0.707952 0.375502
O O10 0.884305 0.904204 0.136186
O O11 0.000000 0.831819 0.101348
O O12 0.901544 0.863089 0.996745
O O13 0.862674 0.143970 0.148335
O O14 0.000000 0.122153 0.113314
O O15 0.898758 0.031637 0.099433
O O16 0.113670 0.992387 0.250000
O O17 0.000000 0.965045 0.333525
O O18 0.428499 0.794078 0.250000
O O19 0.500000 0.806339 0.380394
O O20 0.363241 0.769205 0.381464
O O21 0.307728 0.725358 0.250000
#
# Coordination Sequence:
#
# PCOD8259310 Si02
#       8
#    16  16  16  16  16  16  16  16
#     4   8  16  32  55  82 108 133 173 227 281 325
#     4   9  18  34  56  80 107 141 178 224 271 322
#     4  11  24  39  54  77 113 155 192 225 271 332
#     4  10  21  36  56  84 115 146 185 232 276 328
#     4  10  20  35  59  86 109 142 187 235 285 336
#     4   9  17  32  57  85 112 142 179 228 280 327
#     4   9  17  31  54  80 105 135 175 226 279 330
#     4  10  22  38  53  77 113 148 184 229 278 331
#
# _framework density 19.763712999999999
#
# number of rings (size 3 to 8) (size 9 to 14) (size 15 to 20)
#    0.000    2.500    0.000    2.625    1.750    5.250 
#    0.000    2.500    2.750    3.000    0.000    0.000 
#    0.000    0.000    0.000    0.000    0.000    0.000 
#
# Total GULP energy -792919.749608 kJ/mol
# GULP energy per Si atom -12389.371088 kJ/mol
# Density = 1.971873 g / cm^3
# Si number density = 19.763713 Si / 1000 Ang^3
#
#
#
# Elastic Constant Matrix: (Units=GPa)
#
#
# Indices 1 2 3 4 5 6 
#
# 1 89.0025 59.7098 26.0056 0.0000 0.0000 0.0000
# 2 59.7098 153.7487 37.3615 0.0000 0.0000 0.0000
# 3 26.0056 37.3615 53.5129 0.0000 0.0000 0.0000
# 4 0.0000 0.0000 0.0000 39.9366 0.0000 0.0000
# 5 0.0000 0.0000 0.0000 0.0000 17.1237 0.0000
# 6 0.0000 0.0000 0.0000 0.0000 0.0000 -1.6257
#
#
#
# Elastic Compliance Matrix: (Units=1/GPa)
#
#
# Indices 1 2 3 4 5 6 
#
# 1 0.015914 -0.005180 -0.004117 0.000000 0.000000 0.000000
# 2 -0.005180 0.009519 -0.004129 0.000000 0.000000 0.000000
# 3 -0.004117 -0.004129 0.023571 0.000000 0.000000 0.000000
# 4 0.000000 0.000000 0.000000 0.025040 0.000000 0.000000
# 5 0.000000 0.000000 0.000000 0.000000 0.058398 0.000000
# 6 0.000000 0.000000 0.000000 0.000000 0.000000 -0.615116
#
#
# Mechanical properties :
#
#
# Convention : Reuss Voigt Hill
#
# Bulk Modulus (GPa) = 45.14300 60.26864 52.70582
# Shear Modulus (GPa) = -11.14978 22.63274 5.74148
#
# Velocity S-wave (km/s) = -2.37777 3.38770 1.70627
# Velocity P-wave (km/s) = 3.91823 6.77221 5.53242
#
# Compressibility (1/GPa) = 0.02215183
#
# Stress axis : x y z
#
# Youngs Moduli (GPa) = 62.83947 105.05285 42.42590
#
# Poissons Ratio (x) = 0.54414 0.17467
# Poissons Ratio (y) = 0.32549 0.17517
# Poissons Ratio (z) = 0.25872 0.43374
#
# Static dielectric constant tensor:
#      x y z
#    x 3.489720 0.000000 0.000000 
#    y 0.000000 3.808320 0.000000 
#    z 0.000000 0.000000 3.488530 
# 
# 
# High freq. dielectric constant tensor:
#      x y z
#    x 1.732170 0.000000 0.000000 
#    y 0.000000 1.789740 0.000000 
#    z 0.000000 0.000000 1.758800 
# 
# From -- ./inp_files/56069.got.cif
#   From: 2010.03.12/outbox.cif.g09.slc.cpg/sg63_29_cif.got.tgz:56069.got - 2010.04.10 19:34:48.
