data_PCOD8259556
_publ_section_title
;
Structure prediction by ZEFSAII (Michael W. Deem and Ramdas Pophale) SiO2 
 PCOD8259556
Probable space group: C M C M
;
_chemical_formula_sum "Si O2"
_cell_formula_units_Z 112
_cell_length_a 24.957225
_cell_length_b 14.019362
_cell_length_c 17.000398
_cell_angle_alpha 90.000000
_cell_angle_beta 90.000000
_cell_angle_gamma 90.000000
_cell_volume 5948.173574
_symmetry_space_group_name_H-M "C M C M"
_symmetry_group_IT_number 63
_symmetry_cell_setting 'orthorhombic'
loop_
_space_group_symop_operation_xyz
x,y,z
-x,-y,1/2+z
x,-y,-z
-x,y,1/2-z
-x,-y,-z
x,y,1/2-z
-x,y,z
x,-y,1/2+z
1/2+x,1/2+y,z
1/2-x,1/2-y,1/2+z
1/2+x,1/2-y,-z
1/2-x,1/2+y,1/2-z
1/2-x,1/2-y,-z
1/2+x,1/2+y,1/2-z
1/2-x,1/2+y,z
1/2+x,1/2-y,1/2+z
loop_
_atom_site_type_symbol
_atom_site_label
_atom_site_fract_x
_atom_site_fract_y
_atom_site_fract_z
Si Si1 0.270757 0.767745 0.913028
Si Si2 0.500000 0.847799 0.156485
Si Si3 0.000000 0.128727 0.155962
Si Si4 0.606766 0.459089 0.912349
Si Si5 0.209318 0.481722 0.911150
Si Si6 0.112792 0.407766 0.338710
Si Si7 0.837439 0.205968 0.337411
Si Si8 0.809404 0.912486 0.159931
O O1 0.299535 0.868982 0.900326
O O2 0.222159 0.757822 0.852060
O O3 0.311218 0.683535 0.891567
O O4 0.250000 0.750000 0.000000
O O5 0.500000 0.839606 0.250000
O O6 0.500000 0.738208 0.124316
O O7 0.448338 0.910086 0.128877
O O8 0.949857 0.070691 0.122657
O O9 0.000000 0.125487 0.250000
O O10 0.645928 0.367139 0.906467
O O11 0.634040 0.538369 0.857724
O O12 0.601686 0.500000 0.000000
O O13 0.152957 0.532925 0.893263
O O14 0.258234 0.519905 0.858572
O O15 0.226669 0.500000 0.000000
O O16 0.117659 0.448434 0.250000
O O17 0.124080 0.295807 0.339951
O O18 0.841356 0.158411 0.250000
O O19 0.806157 0.883653 0.250000
#
# Coordination Sequence:
#
# PCOD8259556 Si02
#       8
#    16   8   8  16  16  16  16  16
#     4  12  23  38  58  86 127 166 201 245 305 365
#     4   9  18  35  62  93 119 147 195 259 311 351
#     4  11  21  39  65  91 117 157 207 256 313 371
#     4  12  24  38  58  88 127 163 202 252 314 368
#     4  12  23  38  60  87 123 161 199 246 306 364
#     4  10  20  36  60  91 119 150 196 253 308 362
#     4  11  20  34  59  87 117 157 207 253 298 365
#     4  12  24  38  59  89 123 163 206 249 299 364
#
# _framework density 18.829308999999999
#
# number of rings (size 3 to 8) (size 9 to 14) (size 15 to 20)
#    0.000    0.714    5.714    3.643    0.000    1.714 
#    0.000    0.357    0.000    0.857    0.000    1.000 
#    0.000    0.000    0.000    0.000    0.000    0.000 
#
# Total GULP energy -694322.975674 kJ/mol
# GULP energy per Si atom -12398.624566 kJ/mol
# Density = 1.878645 g / cm^3
# Si number density = 18.829309 Si / 1000 Ang^3
#
#
#
# Elastic Constant Matrix: (Units=GPa)
#
#
# Indices 1 2 3 4 5 6 
#
# 1 96.0975 24.0584 19.2306 0.0000 0.0000 0.0000
# 2 24.0584 97.5815 27.2846 0.0000 0.0000 0.0000
# 3 19.2306 27.2846 95.0309 0.0000 0.0000 0.0000
# 4 0.0000 0.0000 0.0000 29.8043 0.0000 0.0000
# 5 0.0000 0.0000 0.0000 0.0000 23.4059 0.0000
# 6 0.0000 0.0000 0.0000 0.0000 0.0000 30.7396
#
#
#
# Elastic Compliance Matrix: (Units=1/GPa)
#
#
# Indices 1 2 3 4 5 6 
#
# 1 0.011315 -0.002337 -0.001619 0.000000 0.000000 0.000000
# 2 -0.002337 0.011625 -0.002865 0.000000 0.000000 0.000000
# 3 -0.001619 -0.002865 0.011673 0.000000 0.000000 0.000000
# 4 0.000000 0.000000 0.000000 0.033552 0.000000 0.000000
# 5 0.000000 0.000000 0.000000 0.000000 0.042724 0.000000
# 6 0.000000 0.000000 0.000000 0.000000 0.000000 0.032531
#
#
# Mechanical properties :
#
#
# Convention : Reuss Voigt Hill
#
# Bulk Modulus (GPa) = 47.68268 47.76189 47.72229
# Shear Modulus (GPa) = 30.47799 31.33238 30.90519
#
# Velocity S-wave (km/s) = 4.02760 4.08367 4.05573
# Velocity P-wave (km/s) = 6.85620 6.90333 6.87980
#
# Compressibility (1/GPa) = 0.02097197
#
# Stress axis : x y z
#
# Youngs Moduli (GPa) = 88.37722 86.02112 85.66799
#
# Poissons Ratio (x) = 0.20104 0.13867
# Poissons Ratio (y) = 0.20655 0.24542
# Poissons Ratio (z) = 0.14306 0.24643
#
# Static dielectric constant tensor:
#      x y z
#    x 3.601910 0.000000 0.000000 
#    y 0.000000 3.816380 0.000000 
#    z 0.000000 0.000000 3.524420 
# 
# 
# High freq. dielectric constant tensor:
#      x y z
#    x 1.726450 0.000000 0.000000 
#    y 0.000000 1.731030 0.000000 
#    z 0.000000 0.000000 1.726650 
# 
# From -- ./inp_files/37986.got.cif
#   From: 2010.03.12/outbox.cif.g09.slc.cpg/sg63_19_cif.got.tgz:37986.got - 2010.04.10 19:34:48.
