data_PCOD8259120
_publ_section_title
;
Structure prediction by ZEFSAII (Michael W. Deem and Ramdas Pophale) SiO2 
 PCOD8259120
Probable space group: C M C M
;
_chemical_formula_sum "Si O2"
_cell_formula_units_Z 112
_cell_length_a 19.726346
_cell_length_b 13.347326
_cell_length_c 22.767424
_cell_angle_alpha 90.000000
_cell_angle_beta 90.000000
_cell_angle_gamma 90.000000
_cell_volume 5994.525471
_symmetry_space_group_name_H-M "C M C M"
_symmetry_group_IT_number 63
_symmetry_cell_setting 'orthorhombic'
loop_
_space_group_symop_operation_xyz
x,y,z
-x,-y,1/2+z
x,-y,-z
-x,y,1/2-z
-x,-y,-z
x,y,1/2-z
-x,y,z
x,-y,1/2+z
1/2+x,1/2+y,z
1/2-x,1/2-y,1/2+z
1/2+x,1/2-y,-z
1/2-x,1/2+y,1/2-z
1/2-x,1/2-y,-z
1/2+x,1/2+y,1/2-z
1/2-x,1/2+y,z
1/2+x,1/2-y,1/2+z
loop_
_atom_site_type_symbol
_atom_site_label
_atom_site_fract_x
_atom_site_fract_y
_atom_site_fract_z
Si Si1 0.281655 0.812170 0.115238
Si Si2 0.845746 0.716760 0.317505
Si Si3 0.572452 0.536995 0.936111
Si Si4 0.578775 0.759841 0.573702
Si Si5 0.814445 0.102765 0.109426
Si Si6 0.303921 0.887298 0.987396
Si Si7 0.713446 0.002702 0.184932
O O1 0.211678 0.779536 0.147200
O O2 0.332949 0.718267 0.124651
O O3 0.313049 0.911508 0.144514
O O4 0.273455 0.833490 0.045583
O O5 0.852115 0.755356 0.250000
O O6 0.914153 0.729300 0.355386
O O7 0.835735 0.597424 0.318351
O O8 0.500000 0.541678 0.902071
O O9 0.603804 0.647491 0.940724
O O10 0.619062 0.455956 0.906043
O O11 0.558129 0.500000 0.000000
O O12 0.500000 0.779410 0.555910
O O13 0.629535 0.831919 0.537884
O O14 0.756599 0.107578 0.059469
O O15 0.786998 0.041408 0.165063
O O16 0.327899 0.000000 0.000000
O O17 0.719504 0.959141 0.250000
#
# Coordination Sequence:
#
# PCOD8259120 Si02
#       7
#    16  16  16  16  16  16  16
#     4  11  20  33  55  84 115 149 185 244 296 351
#     4  10  21  37  56  83 115 151 198 244 291 350
#     4  10  22  37  54  80 116 154 189 227 282 352
#     4  11  23  39  58  84 121 160 198 241 293 357
#     4  11  21  33  58  84 112 149 191 241 290 344
#     4  12  22  35  56  88 119 152 195 242 303 352
#     4  10  20  35  54  83 115 143 187 243 295 345
#
# _framework density 18.683713999999998
#
# number of rings (size 3 to 8) (size 9 to 14) (size 15 to 20)
#    0.000    1.286    4.286    3.000    2.000    1.143 
#    0.000    0.000    0.000    2.143    0.000    0.000 
#    0.000    5.143    0.000    0.000    0.000    0.000 
#
# Total GULP energy -693803.981146 kJ/mol
# GULP energy per Si atom -12389.356806 kJ/mol
# Density = 1.864119 g / cm^3
# Si number density = 18.683714 Si / 1000 Ang^3
#
#
#
# Elastic Constant Matrix: (Units=GPa)
#
#
# Indices 1 2 3 4 5 6 
#
# 1 66.1488 37.0272 26.5238 0.0000 0.0000 0.0000
# 2 37.0272 129.9830 33.9974 0.0000 0.0000 0.0000
# 3 26.5238 33.9974 109.9722 0.0000 0.0000 0.0000
# 4 0.0000 0.0000 0.0000 30.5155 0.0000 0.0000
# 5 0.0000 0.0000 0.0000 0.0000 20.0691 0.0000
# 6 0.0000 0.0000 0.0000 0.0000 0.0000 23.7074
#
#
#
# Elastic Compliance Matrix: (Units=1/GPa)
#
#
# Indices 1 2 3 4 5 6 
#
# 1 0.018941 -0.004570 -0.003155 0.000000 0.000000 0.000000
# 2 -0.004570 0.009473 -0.001826 0.000000 0.000000 0.000000
# 3 -0.003155 -0.001826 0.010419 0.000000 0.000000 0.000000
# 4 0.000000 0.000000 0.000000 0.032770 0.000000 0.000000
# 5 0.000000 0.000000 0.000000 0.000000 0.049828 0.000000
# 6 0.000000 0.000000 0.000000 0.000000 0.000000 0.042181
#
#
# Mechanical properties :
#
#
# Convention : Reuss Voigt Hill
#
# Bulk Modulus (GPa) = 50.68723 55.68896 53.18810
# Shear Modulus (GPa) = 26.41429 28.76211 27.58820
#
# Velocity S-wave (km/s) = 3.76408 3.92780 3.84681
# Velocity P-wave (km/s) = 6.78815 7.10219 6.94694
#
# Compressibility (1/GPa) = 0.01972884
#
# Stress axis : x y z
#
# Youngs Moduli (GPa) = 52.79586 105.56486 95.98023
#
# Poissons Ratio (x) = 0.48246 0.30286
# Poissons Ratio (y) = 0.24129 0.17528
# Poissons Ratio (z) = 0.16659 0.19278
#
# Static dielectric constant tensor:
#      x y z
#    x -1.026610 0.000000 0.000000 
#    y 0.000000 3.893950 0.000000 
#    z 0.000000 0.000000 3.681370 
# 
# 
# High freq. dielectric constant tensor:
#      x y z
#    x 1.684460 0.000000 0.000000 
#    y 0.000000 1.752710 0.000000 
#    z 0.000000 0.000000 1.727280 
# 
# From -- ./inp_files/64655.got.cif
#   From: 2010.03.12/outbox.cif.g09.slc.cpg/sg63_33_cif.got.tgz:64655.got - 2010.04.10 19:34:48.
