data_PCOD8259386
_publ_section_title
;
Structure prediction by ZEFSAII (Michael W. Deem and Ramdas Pophale) SiO2 
 PCOD8259386
Probable space group: C M C M
;
_chemical_formula_sum "Si O2"
_cell_formula_units_Z 88
_cell_length_a 30.552772
_cell_length_b 17.866968
_cell_length_c 8.687868
_cell_angle_alpha 90.000000
_cell_angle_beta 90.000000
_cell_angle_gamma 90.000000
_cell_volume 4742.580295
_symmetry_space_group_name_H-M "C M C M"
_symmetry_group_IT_number 63
_symmetry_cell_setting 'orthorhombic'
loop_
_space_group_symop_operation_xyz
x,y,z
-x,-y,1/2+z
x,-y,-z
-x,y,1/2-z
-x,-y,-z
x,y,1/2-z
-x,y,z
x,-y,1/2+z
1/2+x,1/2+y,z
1/2-x,1/2-y,1/2+z
1/2+x,1/2-y,-z
1/2-x,1/2+y,1/2-z
1/2-x,1/2-y,-z
1/2+x,1/2+y,1/2-z
1/2-x,1/2+y,z
1/2+x,1/2-y,1/2+z
loop_
_atom_site_type_symbol
_atom_site_label
_atom_site_fract_x
_atom_site_fract_y
_atom_site_fract_z
Si Si1 0.333189 0.075443 0.932456
Si Si2 0.915184 0.641141 0.069525
Si Si3 0.886942 0.206128 0.068707
Si Si4 0.500000 0.919039 0.429640
Si Si5 0.550134 0.417905 0.431854
Si Si6 0.204052 0.268481 0.071575
O O1 0.334789 0.071602 0.750000
O O2 0.308556 0.149467 0.992881
O O3 0.381787 0.080608 0.000758
O O4 0.310792 0.000000 0.000000
O O5 0.919588 0.628146 0.250000
O O6 0.903466 0.726150 0.033787
O O7 0.959912 0.629409 0.984141
O O8 0.895851 0.219330 0.250000
O O9 0.833951 0.205876 0.038802
O O10 0.912785 0.132778 0.012794
O O11 0.500000 0.928575 0.250000
O O12 0.500000 0.000000 0.500000
O O13 0.556745 0.500000 0.500000
O O14 0.558727 0.419132 0.250000
O O15 0.500000 0.390379 0.466332
O O16 0.211923 0.275698 0.250000
O O17 0.250000 0.250000 0.000000
#
# Coordination Sequence:
#
# PCOD8259386 Si02
#       6
#    16  16  16   8  16  16
#     4  10  20  36  56  81 109 141 181 224 273 331
#     4  11  22  36  54  78 107 143 184 226 269 320
#     4  10  21  38  58  83 113 148 187 229 281 338
#     4  12  24  38  52  72 105 144 181 224 270 314
#     4  10  21  37  58  85 116 151 193 239 289 345
#     4   9  20  37  58  83 112 144 184 232 283 341
#
# _framework density 18.555302000000001
#
# number of rings (size 3 to 8) (size 9 to 14) (size 15 to 20)
#    0.000    1.818    0.000    5.727    1.273    5.455 
#    0.000    0.909    0.000    2.182    0.000    0.000 
#    0.000    0.000    0.000    0.000    0.000    0.000 
#
# Total GULP energy -545360.183374 kJ/mol
# GULP energy per Si atom -12394.549622 kJ/mol
# Density = 1.851307 g / cm^3
# Si number density = 18.555302 Si / 1000 Ang^3
#
#
#
# Elastic Constant Matrix: (Units=GPa)
#
#
# Indices 1 2 3 4 5 6 
#
# 1 135.8997 53.5253 45.4890 0.0000 0.0000 0.0000
# 2 53.5253 94.2832 33.1274 0.0000 0.0000 0.0000
# 3 45.4890 33.1274 101.7043 0.0000 0.0000 0.0000
# 4 0.0000 0.0000 0.0000 37.2950 0.0000 0.0000
# 5 0.0000 0.0000 0.0000 0.0000 33.6432 0.0000
# 6 0.0000 0.0000 0.0000 0.0000 0.0000 21.1517
#
#
#
# Elastic Compliance Matrix: (Units=1/GPa)
#
#
# Indices 1 2 3 4 5 6 
#
# 1 0.010245 -0.004750 -0.003035 0.000000 0.000000 0.000000
# 2 -0.004750 0.014179 -0.002494 0.000000 0.000000 0.000000
# 3 -0.003035 -0.002494 0.012002 0.000000 0.000000 0.000000
# 4 0.000000 0.000000 0.000000 0.026813 0.000000 0.000000
# 5 0.000000 0.000000 0.000000 0.000000 0.029724 0.000000
# 6 0.000000 0.000000 0.000000 0.000000 0.000000 0.047277
#
#
# Mechanical properties :
#
#
# Convention : Reuss Voigt Hill
#
# Bulk Modulus (GPa) = 63.01774 66.24117 64.62945
# Shear Modulus (GPa) = 30.10448 31.73438 30.91943
#
# Velocity S-wave (km/s) = 4.03230 4.14001 4.08651
# Velocity P-wave (km/s) = 7.46425 7.65701 7.56124
#
# Compressibility (1/GPa) = 0.01586855
#
# Stress axis : x y z
#
# Youngs Moduli (GPa) = 97.60816 70.52625 83.31717
#
# Poissons Ratio (x) = 0.33498 0.25288
# Poissons Ratio (y) = 0.46361 0.20780
# Poissons Ratio (z) = 0.29626 0.17590
#
# Static dielectric constant tensor:
#      x y z
#    x 3.262400 0.000000 0.000000 
#    y 0.000000 3.422850 0.000000 
#    z 0.000000 0.000000 3.501820 
# 
# 
# High freq. dielectric constant tensor:
#      x y z
#    x 1.714750 0.000000 0.000000 
#    y 0.000000 1.718870 0.000000 
#    z 0.000000 0.000000 1.734940 
# 
# From -- ./inp_files/14148.got.cif
#   From: 2010.03.12/outbox.cif.g09.slc.cpg/sg63_8_cif.got.tgz:14148.got - 2010.04.10 19:34:48.
