data_PCOD8259632
_publ_section_title
;
Structure prediction by ZEFSAII (Michael W. Deem and Ramdas Pophale) SiO2 
 PCOD8259632
Probable space group: C M C M
;
_chemical_formula_sum "Si O2"
_cell_formula_units_Z 80
_cell_length_a 7.864397
_cell_length_b 27.235863
_cell_length_c 20.657553
_cell_angle_alpha 90.000000
_cell_angle_beta 90.000000
_cell_angle_gamma 90.000000
_cell_volume 4424.716455
_symmetry_space_group_name_H-M "C M C M"
_symmetry_group_IT_number 63
_symmetry_cell_setting 'orthorhombic'
loop_
_space_group_symop_operation_xyz
x,y,z
-x,-y,1/2+z
x,-y,-z
-x,y,1/2-z
-x,-y,-z
x,y,1/2-z
-x,y,z
x,-y,1/2+z
1/2+x,1/2+y,z
1/2-x,1/2-y,1/2+z
1/2+x,1/2-y,-z
1/2-x,1/2+y,1/2-z
1/2-x,1/2-y,-z
1/2+x,1/2+y,1/2-z
1/2-x,1/2+y,z
1/2+x,1/2-y,1/2+z
loop_
_atom_site_type_symbol
_atom_site_label
_atom_site_fract_x
_atom_site_fract_y
_atom_site_fract_z
Si Si1 0.801308 0.686502 0.321214
Si Si2 0.000000 0.993406 0.680650
Si Si3 0.812551 0.599496 0.493514
Si Si4 0.693175 0.295902 0.541811
Si Si5 0.500000 0.546170 0.548424
Si Si6 0.307644 0.925144 0.650589
O O1 0.737569 0.705075 0.250000
O O2 0.713287 0.715074 0.381014
O O3 0.758983 0.629090 0.326096
O O4 0.000000 0.695901 0.328152
O O5 0.829248 0.961242 0.680500
O O6 0.000000 0.021321 0.750000
O O7 0.000000 0.031600 0.622891
O O8 0.803321 0.657560 0.479970
O O9 0.667107 0.579605 0.540481
O O10 0.792624 0.570370 0.426575
O O11 0.000000 0.589111 0.523420
O O12 0.500000 0.308582 0.526396
O O13 0.750000 0.250000 0.500000
O O14 0.500000 0.500000 0.500000
O O15 0.500000 0.938577 0.673150
#
# Coordination Sequence:
#
# PCOD8259632 Si02
#       6
#    16   8  16  16   8  16
#     4   9  18  32  50  76 114 151 181 221 283 350
#     4  12  24  34  52  80 114 150 196 238 280 336
#     4  10  20  37  59  84 113 147 192 240 287 336
#     4  11  21  35  57  85 116 146 189 238 287 341
#     4  12  22  38  58  82 114 152 200 230 279 340
#     4   9  18  33  52  78 112 148 182 225 285 345
#
# _framework density 18.080254
#
# number of rings (size 3 to 8) (size 9 to 14) (size 15 to 20)
#    0.000    1.800    3.000    3.600    4.200    2.800 
#    0.000    0.000    0.000    1.200    0.000    0.000 
#    0.000    0.000    0.000    0.000    0.000    0.000 
#
# Total GULP energy -495838.958330 kJ/mol
# GULP energy per Si atom -12395.973958 kJ/mol
# Density = 1.803910 g / cm^3
# Si number density = 18.080254 Si / 1000 Ang^3
#
#
#
# Elastic Constant Matrix: (Units=GPa)
#
#
# Indices 1 2 3 4 5 6 
#
# 1 116.5166 29.0425 48.5328 0.0000 0.0000 0.0000
# 2 29.0425 51.8255 50.4741 0.0000 0.0000 0.0000
# 3 48.5328 50.4741 140.6245 0.0000 0.0000 0.0000
# 4 0.0000 0.0000 0.0000 24.1851 0.0000 0.0000
# 5 0.0000 0.0000 0.0000 0.0000 10.0242 0.0000
# 6 0.0000 0.0000 0.0000 0.0000 0.0000 24.6660
#
#
#
# Elastic Compliance Matrix: (Units=1/GPa)
#
#
# Indices 1 2 3 4 5 6 
#
# 1 0.010443 -0.003601 -0.002312 0.000000 0.000000 0.000000
# 2 -0.003601 0.030907 -0.009851 0.000000 0.000000 0.000000
# 3 -0.002312 -0.009851 0.011445 0.000000 0.000000 0.000000
# 4 0.000000 0.000000 0.000000 0.041348 0.000000 0.000000
# 5 0.000000 0.000000 0.000000 0.000000 0.099759 0.000000
# 6 0.000000 0.000000 0.000000 0.000000 0.000000 0.040542
#
#
# Mechanical properties :
#
#
# Convention : Reuss Voigt Hill
#
# Bulk Modulus (GPa) = 47.01802 62.78504 54.90153
# Shear Modulus (GPa) = 18.31109 23.83621 21.07365
#
# Velocity S-wave (km/s) = 3.18585 3.63486 3.41774
# Velocity P-wave (km/s) = 6.29242 7.23998 6.78277
#
# Compressibility (1/GPa) = 0.02126844
#
# Stress axis : x y z
#
# Youngs Moduli (GPa) = 95.75927 32.35492 87.37688
#
# Poissons Ratio (x) = 0.11650 0.20199
# Poissons Ratio (y) = 0.34480 0.86073
# Poissons Ratio (z) = 0.22137 0.31872
#
# Static dielectric constant tensor:
#      x y z
#    x 3.550390 0.000000 0.000000 
#    y 0.000000 2.827900 0.000000 
#    z 0.000000 0.000000 3.553140 
# 
# 
# High freq. dielectric constant tensor:
#      x y z
#    x 1.719890 0.000000 0.000000 
#    y 0.000000 1.651330 0.000000 
#    z 0.000000 0.000000 1.694050 
# 
# From -- ./inp_files/40630.got.cif
#   From: 2010.03.12/outbox.cif.g09.slc.cpg/sg63_21_cif.got.tgz:40630.got - 2010.04.10 19:34:48.
