data_PCOD8259862
_publ_section_title
;
Structure prediction by ZEFSAII (Michael W. Deem and Ramdas Pophale) SiO2 
 PCOD8259862
Probable space group: C M C M
;
_chemical_formula_sum "Si O2"
_cell_formula_units_Z 80
_cell_length_a 31.133645
_cell_length_b 5.098111
_cell_length_c 25.530361
_cell_angle_alpha 90.000000
_cell_angle_beta 90.000000
_cell_angle_gamma 90.000000
_cell_volume 4052.249822
_symmetry_space_group_name_H-M "C M C M"
_symmetry_group_IT_number 63
_symmetry_cell_setting 'orthorhombic'
loop_
_space_group_symop_operation_xyz
x,y,z
-x,-y,1/2+z
x,-y,-z
-x,y,1/2-z
-x,-y,-z
x,y,1/2-z
-x,y,z
x,-y,1/2+z
1/2+x,1/2+y,z
1/2-x,1/2-y,1/2+z
1/2+x,1/2-y,-z
1/2-x,1/2+y,1/2-z
1/2-x,1/2-y,-z
1/2+x,1/2+y,1/2-z
1/2-x,1/2+y,z
1/2+x,1/2-y,1/2+z
loop_
_atom_site_type_symbol
_atom_site_label
_atom_site_fract_x
_atom_site_fract_y
_atom_site_fract_z
Si Si1 0.860800 0.508022 0.414850
Si Si2 0.100701 0.543859 0.691988
Si Si3 0.088622 0.006207 0.057859
Si Si4 0.048821 0.051339 0.836669
Si Si5 0.768139 0.309288 0.441615
O O1 0.861732 0.506581 0.351058
O O2 0.871976 0.797621 0.436641
O O3 0.816126 0.416891 0.439668
O O4 0.896204 0.302806 0.433668
O O5 0.121367 0.524589 0.750000
O O6 0.063110 0.330098 0.686207
O O7 0.079786 0.829464 0.686148
O O8 0.052154 0.936884 0.100076
O O9 0.068396 0.000000 0.000000
O O10 0.000000 0.996869 0.820045
O O11 0.750000 0.250000 0.500000
O O12 0.737805 0.528739 0.412985
#
# Coordination Sequence:
#
# PCOD8259862 Si02
#       5
#    16  16  16  16  16
#     4  10  21  36  52  77 111 138 180 221 259 324
#     4  10  21  37  57  79 103 143 182 221 276 317
#     4  10  21  33  54  75 106 152 178 210 262 325
#     4  10  21  36  53  82 111 135 181 231 268 315
#     4  10  21  32  50  79 107 138 166 215 267 314
#
# _framework density 19.74212
#
# number of rings (size 3 to 8) (size 9 to 14) (size 15 to 20)
#    0.000    2.000    0.000    3.000    8.400    2.800 
#    0.000    0.000    0.000    8.400    0.000    0.000 
#    0.000    0.000    0.000    0.000    0.000    0.000 
#
# Total GULP energy -495686.546230 kJ/mol
# GULP energy per Si atom -12392.163656 kJ/mol
# Density = 1.969719 g / cm^3
# Si number density = 19.742120 Si / 1000 Ang^3
#
#
#
# Elastic Constant Matrix: (Units=GPa)
#
#
# Indices 1 2 3 4 5 6 
#
# 1 58.5693 0.0154 10.1052 0.0000 0.0000 0.0000
# 2 0.0154 111.1748 8.7888 0.0000 0.0000 0.0000
# 3 10.1052 8.7888 141.8332 0.0000 0.0000 0.0000
# 4 0.0000 0.0000 0.0000 14.9951 0.0000 0.0000
# 5 0.0000 0.0000 0.0000 0.0000 8.5803 0.0000
# 6 0.0000 0.0000 0.0000 0.0000 0.0000 23.7974
#
#
#
# Elastic Compliance Matrix: (Units=1/GPa)
#
#
# Indices 1 2 3 4 5 6 
#
# 1 0.017287 0.000095 -0.001238 0.000000 0.000000 0.000000
# 2 0.000095 0.009040 -0.000567 0.000000 0.000000 0.000000
# 3 -0.001238 -0.000567 0.007174 0.000000 0.000000 0.000000
# 4 0.000000 0.000000 0.000000 0.066689 0.000000 0.000000
# 5 0.000000 0.000000 0.000000 0.000000 0.116546 0.000000
# 6 0.000000 0.000000 0.000000 0.000000 0.000000 0.042021
#
#
# Mechanical properties :
#
#
# Convention : Reuss Voigt Hill
#
# Bulk Modulus (GPa) = 33.24181 38.82179 36.03180
# Shear Modulus (GPa) = 18.36866 28.98575 23.67720
#
# Velocity S-wave (km/s) = 3.05360 3.83589 3.46688
# Velocity P-wave (km/s) = 5.41362 6.27104 5.85803
#
# Compressibility (1/GPa) = 0.03008260
#
# Stress axis : x y z
#
# Youngs Moduli (GPa) = 57.84601 110.62373 139.39539
#
# Poissons Ratio (x) = -0.01056 0.17251
# Poissons Ratio (y) = -0.00552 0.07903
# Poissons Ratio (z) = 0.07159 0.06272
#
# Static dielectric constant tensor:
#      x y z
#    x 3.168610 0.000000 0.000000 
#    y 0.000000 0.605640 0.000000 
#    z 0.000000 0.000000 3.822540 
# 
# 
# High freq. dielectric constant tensor:
#      x y z
#    x 1.724600 0.000000 0.000000 
#    y 0.000000 1.806970 0.000000 
#    z 0.000000 0.000000 1.756340 
# 
# From -- ./inp_files/65636.got.cif
#   From: 2010.03.12/outbox.cif.g09.slc.cpg/sg63_33_cif.got.tgz:65636.got - 2010.04.10 19:34:48.
