data_PCOD8259360
_publ_section_title
;
Structure prediction by ZEFSAII (Michael W. Deem and Ramdas Pophale) SiO2 
 PCOD8259360
Probable space group: C M C M
;
_chemical_formula_sum "Si O2"
_cell_formula_units_Z 104
_cell_length_a 26.454924
_cell_length_b 24.101894
_cell_length_c 8.954242
_cell_angle_alpha 90.000000
_cell_angle_beta 90.000000
_cell_angle_gamma 90.000000
_cell_volume 5709.348035
_symmetry_space_group_name_H-M "C M C M"
_symmetry_group_IT_number 63
_symmetry_cell_setting 'orthorhombic'
loop_
_space_group_symop_operation_xyz
x,y,z
-x,-y,1/2+z
x,-y,-z
-x,y,1/2-z
-x,-y,-z
x,y,1/2-z
-x,y,z
x,-y,1/2+z
1/2+x,1/2+y,z
1/2-x,1/2-y,1/2+z
1/2+x,1/2-y,-z
1/2-x,1/2+y,1/2-z
1/2-x,1/2-y,-z
1/2+x,1/2+y,1/2-z
1/2-x,1/2+y,z
1/2+x,1/2-y,1/2+z
loop_
_atom_site_type_symbol
_atom_site_label
_atom_site_fract_x
_atom_site_fract_y
_atom_site_fract_z
Si Si1 0.637639 0.059849 0.427123
Si Si2 0.170872 0.153244 0.427447
Si Si3 0.864949 0.738563 0.073620
Si Si4 0.000000 0.057306 0.919914
Si Si5 0.391153 0.439972 0.074119
Si Si6 0.715308 0.850141 0.573308
Si Si7 0.943494 0.351881 0.927048
O O1 0.637070 0.052996 0.250000
O O2 0.687915 0.093084 0.480785
O O3 0.588528 0.094751 0.481768
O O4 0.636830 0.000000 0.500000
O O5 0.168930 0.152917 0.250000
O O6 0.136906 0.203436 0.488080
O O7 0.149983 0.096258 0.491017
O O8 0.228223 0.156292 0.489845
O O9 0.864120 0.749879 0.250000
O O10 0.816701 0.702888 0.020046
O O11 0.915588 0.705275 0.025959
O O12 0.053052 0.088461 0.955112
O O13 0.000000 0.039605 0.750000
O O14 0.000000 0.000000 0.000000
O O15 0.378984 0.443809 0.250000
O O16 0.388886 0.500000 0.000000
O O17 0.715844 0.851338 0.750000
O O18 0.946239 0.353775 0.750000
O O19 0.000000 0.353415 0.996836
#
# Coordination Sequence:
#
# PCOD8259360 Si02
#       7
#    16  16  16   8  16  16  16
#     4   9  17  31  50  73 101 132 169 207 247 297
#     4  11  21  33  50  75 104 132 165 205 253 304
#     4   9  17  33  54  73  95 128 173 216 252 294
#     4   8  16  32  54  72  90 120 156 192 231 280
#     4  10  20  36  55  76 100 128 163 202 246 294
#     4   8  17  33  51  69  96 135 172 209 250 296
#     4   8  15  30  52  74  98 132 169 206 250 300
#
# _framework density 18.215741000000001
#
# number of rings (size 3 to 8) (size 9 to 14) (size 15 to 20)
#    0.000    2.923    0.000    3.231    0.000    1.538 
#    1.385    6.923    0.000    0.923    0.000    0.000 
#    0.000    0.000    0.000    0.000    0.000    0.000 
#
# Total GULP energy -644369.538838 kJ/mol
# GULP energy per Si atom -12391.721901 kJ/mol
# Density = 1.817428 g / cm^3
# Si number density = 18.215741 Si / 1000 Ang^3
#
#
#
# Elastic Constant Matrix: (Units=GPa)
#
#
# Indices 1 2 3 4 5 6 
#
# 1 88.8496 46.8937 25.8552 0.0000 0.0000 0.0000
# 2 46.8937 114.8814 30.7087 0.0000 0.0000 0.0000
# 3 25.8552 30.7087 46.7903 0.0000 0.0000 0.0000
# 4 0.0000 0.0000 0.0000 34.3133 0.0000 0.0000
# 5 0.0000 0.0000 0.0000 0.0000 18.9436 0.0000
# 6 0.0000 0.0000 0.0000 0.0000 0.0000 20.0886
#
#
#
# Elastic Compliance Matrix: (Units=1/GPa)
#
#
# Indices 1 2 3 4 5 6 
#
# 1 0.015359 -0.004852 -0.005303 0.000000 0.000000 0.000000
# 2 -0.004852 0.012089 -0.005253 0.000000 0.000000 0.000000
# 3 -0.005303 -0.005253 0.027750 0.000000 0.000000 0.000000
# 4 0.000000 0.000000 0.000000 0.029143 0.000000 0.000000
# 5 0.000000 0.000000 0.000000 0.000000 0.052788 0.000000
# 6 0.000000 0.000000 0.000000 0.000000 0.000000 0.049779
#
#
# Mechanical properties :
#
#
# Convention : Reuss Voigt Hill
#
# Bulk Modulus (GPa) = 41.01310 50.82625 45.91967
# Shear Modulus (GPa) = 22.13841 24.47335 23.30588
#
# Velocity S-wave (km/s) = 3.48996 3.66939 3.58080
# Velocity P-wave (km/s) = 6.22927 6.77610 6.50843
#
# Compressibility (1/GPa) = 0.02438245
#
# Stress axis : x y z
#
# Youngs Moduli (GPa) = 65.10921 82.71719 36.03638
#
# Poissons Ratio (x) = 0.40134 0.19108
# Poissons Ratio (y) = 0.31591 0.18931
# Poissons Ratio (z) = 0.34525 0.43453
#
# Static dielectric constant tensor:
#      x y z
#    x 4.114040 0.000000 0.000000 
#    y 0.000000 3.237510 0.000000 
#    z 0.000000 0.000000 3.043480 
# 
# 
# High freq. dielectric constant tensor:
#      x y z
#    x 1.717190 0.000000 0.000000 
#    y 0.000000 1.698850 0.000000 
#    z 0.000000 0.000000 1.677060 
# 
# From -- ./inp_files/12880.got.cif
#   From: 2010.03.12/outbox.cif.g09.slc.cpg/sg63_7_cif.got.tgz:12880.got - 2010.04.10 19:34:48.
