data_PCOD8259483
_publ_section_title
;
Structure prediction by ZEFSAII (Michael W. Deem and Ramdas Pophale) SiO2 
 PCOD8259483
Probable space group: C M C M
;
_chemical_formula_sum "Si O2"
_cell_formula_units_Z 80
_cell_length_a 9.406584
_cell_length_b 18.950718
_cell_length_c 24.115004
_cell_angle_alpha 90.000000
_cell_angle_beta 90.000000
_cell_angle_gamma 90.000000
_cell_volume 4298.777285
_symmetry_space_group_name_H-M "C M C M"
_symmetry_group_IT_number 63
_symmetry_cell_setting 'orthorhombic'
loop_
_space_group_symop_operation_xyz
x,y,z
-x,-y,1/2+z
x,-y,-z
-x,y,1/2-z
-x,-y,-z
x,y,1/2-z
-x,y,z
x,-y,1/2+z
1/2+x,1/2+y,z
1/2-x,1/2-y,1/2+z
1/2+x,1/2-y,-z
1/2-x,1/2+y,1/2-z
1/2-x,1/2-y,-z
1/2+x,1/2+y,1/2-z
1/2-x,1/2+y,z
1/2+x,1/2-y,1/2+z
loop_
_atom_site_type_symbol
_atom_site_label
_atom_site_fract_x
_atom_site_fract_y
_atom_site_fract_z
Si Si1 0.334272 0.767353 0.157888
Si Si2 0.830220 0.850563 0.250000
Si Si3 0.668154 0.513710 0.250000
Si Si4 0.332850 0.603465 0.355026
Si Si5 0.838557 0.435784 0.535264
Si Si6 0.157131 0.299616 0.463949
O O1 0.500000 0.779796 0.173024
O O2 0.232547 0.810754 0.197534
O O3 0.297826 0.684284 0.160493
O O4 0.290447 0.799914 0.099004
O O5 0.000000 0.844972 0.250000
O O6 0.780392 0.932515 0.250000
O O7 0.500000 0.518391 0.250000
O O8 0.724116 0.553891 0.194911
O O9 0.500000 0.593476 0.365082
O O10 0.255118 0.581649 0.411415
O O11 0.773545 0.500000 0.500000
O O12 0.836632 0.376084 0.489226
O O13 0.000000 0.450963 0.555386
O O14 0.250000 0.250000 0.500000
O O15 0.000000 0.266866 0.464692
#
# Coordination Sequence:
#
# PCOD8259483 Si02
#       6
#    16   8   8  16  16  16
#     4  10  21  38  61  85 110 148 192 232 279 336
#     4  11  24  39  57  85 114 143 182 236 292 333
#     4   9  21  39  57  81 112 143 182 236 284 325
#     4  10  20  39  63  82 107 149 195 232 272 332
#     4  10  22  37  55  84 122 153 181 229 286 335
#     4  10  20  36  58  85 116 148 186 230 277 331
#
# _framework density 18.609942
#
# number of rings (size 3 to 8) (size 9 to 14) (size 15 to 20)
#    0.000    2.000    2.000    0.900    2.800    3.600 
#    0.000    1.500    0.000    0.000    0.000    0.000 
#    0.000    0.000    0.000    0.000    0.000    0.000 
#
# Total GULP energy -495906.978625 kJ/mol
# GULP energy per Si atom -12397.674466 kJ/mol
# Density = 1.856758 g / cm^3
# Si number density = 18.609942 Si / 1000 Ang^3
#
#
#
# Elastic Constant Matrix: (Units=GPa)
#
#
# Indices 1 2 3 4 5 6 
#
# 1 63.6449 47.6180 66.3548 0.0000 0.0000 0.0000
# 2 47.6180 121.7243 80.6021 0.0000 0.0000 0.0000
# 3 66.3548 80.6021 171.9620 0.0000 0.0000 0.0000
# 4 0.0000 0.0000 0.0000 33.7974 0.0000 0.0000
# 5 0.0000 0.0000 0.0000 0.0000 36.5599 0.0000
# 6 0.0000 0.0000 0.0000 0.0000 0.0000 20.4180
#
#
#
# Elastic Compliance Matrix: (Units=1/GPa)
#
#
# Indices 1 2 3 4 5 6 
#
# 1 0.028743 -0.005655 -0.008440 0.000000 0.000000 0.000000
# 2 -0.005655 0.013025 -0.003923 0.000000 0.000000 0.000000
# 3 -0.008440 -0.003923 0.010911 0.000000 0.000000 0.000000
# 4 0.000000 0.000000 0.000000 0.029588 0.000000 0.000000
# 5 0.000000 0.000000 0.000000 0.000000 0.027352 0.000000
# 6 0.000000 0.000000 0.000000 0.000000 0.000000 0.048976
#
#
# Mechanical properties :
#
#
# Convention : Reuss Voigt Hill
#
# Bulk Modulus (GPa) = 60.08872 82.94232 71.51552
# Shear Modulus (GPa) = 24.97742 29.00547 26.99145
#
# Velocity S-wave (km/s) = 3.66752 3.95219 3.81251
# Velocity P-wave (km/s) = 7.09175 8.09272 7.60871
#
# Compressibility (1/GPa) = 0.01664206
#
# Stress axis : x y z
#
# Youngs Moduli (GPa) = 34.79102 76.77362 91.65127
#
# Poissons Ratio (x) = 0.43417 0.77357
# Poissons Ratio (y) = 0.19675 0.35955
# Poissons Ratio (z) = 0.29365 0.30119
#
# Static dielectric constant tensor:
#      x y z
#    x 3.342470 0.000000 0.000000 
#    y 0.000000 3.461270 0.000000 
#    z 0.000000 0.000000 3.488730 
# 
# 
# High freq. dielectric constant tensor:
#      x y z
#    x 1.706820 0.000000 0.000000 
#    y 0.000000 1.733990 0.000000 
#    z 0.000000 0.000000 1.738270 
# 
# From -- ./inp_files/66684.got.cif
#   From: 2010.03.12/outbox.cif.g09.slc.cpg/sg63_34_cif.got.tgz:66684.got - 2010.04.10 19:34:48.
