data_PCOD8259705
_publ_section_title
;
Structure prediction by ZEFSAII (Michael W. Deem and Ramdas Pophale) SiO2 
 PCOD8259705
Probable space group: C M C M
;
_chemical_formula_sum "Si O2"
_cell_formula_units_Z 72
_cell_length_a 14.588457
_cell_length_b 9.865164
_cell_length_c 25.985172
_cell_angle_alpha 90.000000
_cell_angle_beta 90.000000
_cell_angle_gamma 90.000000
_cell_volume 3739.721532
_symmetry_space_group_name_H-M "C M C M"
_symmetry_group_IT_number 63
_symmetry_cell_setting 'orthorhombic'
loop_
_space_group_symop_operation_xyz
x,y,z
-x,-y,1/2+z
x,-y,-z
-x,y,1/2-z
-x,-y,-z
x,y,1/2-z
-x,y,z
x,-y,1/2+z
1/2+x,1/2+y,z
1/2-x,1/2-y,1/2+z
1/2+x,1/2-y,-z
1/2-x,1/2+y,1/2-z
1/2-x,1/2-y,-z
1/2+x,1/2+y,1/2-z
1/2-x,1/2+y,z
1/2+x,1/2-y,1/2+z
loop_
_atom_site_type_symbol
_atom_site_label
_atom_site_fract_x
_atom_site_fract_y
_atom_site_fract_z
Si Si1 0.303920 0.365862 0.132213
Si Si2 0.199049 0.417118 0.809157
Si Si3 0.000000 0.404180 0.807652
Si Si4 0.500000 0.840398 0.497317
Si Si5 0.000000 0.811713 0.105443
Si Si6 0.306458 0.859395 0.030422
O O1 0.277393 0.477945 0.174315
O O2 0.296229 0.217027 0.156216
O O3 0.405583 0.398208 0.109068
O O4 0.230117 0.381273 0.087250
O O5 0.217479 0.377862 0.750000
O O6 0.096352 0.484947 0.816029
O O7 0.000000 0.276308 0.843807
O O8 0.000000 0.344354 0.750000
O O9 0.500000 0.778044 0.554335
O O10 0.590776 0.797327 0.466330
O O11 0.500000 0.000000 0.500000
O O12 0.250000 0.750000 0.000000
O O13 0.304778 0.000000 0.000000
#
# Coordination Sequence:
#
# PCOD8259705 Si02
#       6
#    16  16   8   8   8  16
#     4  11  22  38  62  85 120 156 198 240 296 354
#     4  10  21  39  62  89 116 150 195 247 296 351
#     4   8  18  34  59  84 109 145 196 239 283 344
#     4  10  22  36  60  84 117 153 202 244 284 343
#     4  10  20  38  57  84 118 162 195 232 289 362
#     4  11  22  38  58  86 117 156 195 242 294 348
#
# _framework density 19.252770999999999
#
# number of rings (size 3 to 8) (size 9 to 14) (size 15 to 20)
#    0.000    1.778    2.222    2.000    9.333    0.889 
#    0.000    6.667    0.000    0.000    0.000    0.000 
#    0.000    0.000    0.000    0.000    0.000    0.000 
#
# Total GULP energy -446089.343613 kJ/mol
# GULP energy per Si atom -12391.370656 kJ/mol
# Density = 1.920895 g / cm^3
# Si number density = 19.252771 Si / 1000 Ang^3
#
#
#
# Elastic Constant Matrix: (Units=GPa)
#
#
# Indices 1 2 3 4 5 6 
#
# 1 181.6857 47.3563 60.3534 0.0000 0.0000 0.0000
# 2 47.3563 66.3448 17.8408 0.0000 0.0000 0.0000
# 3 60.3534 17.8408 100.6483 0.0000 0.0000 0.0000
# 4 0.0000 0.0000 0.0000 35.6887 0.0000 0.0000
# 5 0.0000 0.0000 0.0000 0.0000 32.5969 0.0000
# 6 0.0000 0.0000 0.0000 0.0000 0.0000 26.2169
#
#
#
# Elastic Compliance Matrix: (Units=1/GPa)
#
#
# Indices 1 2 3 4 5 6 
#
# 1 0.008050 -0.004670 -0.003999 0.000000 0.000000 0.000000
# 2 -0.004670 0.018537 -0.000485 0.000000 0.000000 0.000000
# 3 -0.003999 -0.000485 0.012420 0.000000 0.000000 0.000000
# 4 0.000000 0.000000 0.000000 0.028020 0.000000 0.000000
# 5 0.000000 0.000000 0.000000 0.000000 0.030678 0.000000
# 6 0.000000 0.000000 0.000000 0.000000 0.000000 0.038143
#
#
# Mechanical properties :
#
#
# Convention : Reuss Voigt Hill
#
# Bulk Modulus (GPa) = 48.31666 66.64219 57.47942
# Shear Modulus (GPa) = 31.04505 33.77573 32.41039
#
# Velocity S-wave (km/s) = 4.01995 4.19302 4.10739
# Velocity P-wave (km/s) = 6.83353 7.62439 7.23977
#
# Compressibility (1/GPa) = 0.02069680
#
# Stress axis : x y z
#
# Youngs Moduli (GPa) = 124.22613 53.94622 80.51735
#
# Poissons Ratio (x) = 0.25195 0.32200
# Poissons Ratio (y) = 0.58020 0.03907
# Poissons Ratio (z) = 0.49680 0.02617
#
# Static dielectric constant tensor:
#      x y z
#    x 4.223790 0.000000 0.000000 
#    y 0.000000 3.186950 0.000000 
#    z 0.000000 0.000000 3.604660 
# 
# 
# High freq. dielectric constant tensor:
#      x y z
#    x 1.775600 0.000000 0.000000 
#    y 0.000000 1.710050 0.000000 
#    z 0.000000 0.000000 1.761900 
# 
# From -- ./inp_files/69085.got.cif
#   From: 2010.03.12/outbox.cif.g09.slc.cpg/sg63_35_cif.got.tgz:69085.got - 2010.04.10 19:34:48.
