data_PCOD8259996
_publ_section_title
;
Structure prediction by ZEFSAII (Michael W. Deem and Ramdas Pophale) SiO2 
 PCOD8259996
Probable space group: C M C M
;
_chemical_formula_sum "Si O2"
_cell_formula_units_Z 104
_cell_length_a 24.393177
_cell_length_b 21.497317
_cell_length_c 9.379111
_cell_angle_alpha 90.000000
_cell_angle_beta 90.000000
_cell_angle_gamma 90.000000
_cell_volume 4918.291933
_symmetry_space_group_name_H-M "C M C M"
_symmetry_group_IT_number 63
_symmetry_cell_setting 'orthorhombic'
loop_
_space_group_symop_operation_xyz
x,y,z
-x,-y,1/2+z
x,-y,-z
-x,y,1/2-z
-x,-y,-z
x,y,1/2-z
-x,y,z
x,-y,1/2+z
1/2+x,1/2+y,z
1/2-x,1/2-y,1/2+z
1/2+x,1/2-y,-z
1/2-x,1/2+y,1/2-z
1/2-x,1/2-y,-z
1/2+x,1/2+y,1/2-z
1/2-x,1/2+y,z
1/2+x,1/2-y,1/2+z
loop_
_atom_site_type_symbol
_atom_site_label
_atom_site_fract_x
_atom_site_fract_y
_atom_site_fract_z
Si Si1 0.383411 0.740476 0.411065
Si Si2 0.500000 0.563593 0.583142
Si Si3 0.884655 0.122931 0.912784
Si Si4 0.273304 0.438691 0.086592
Si Si5 0.226527 0.693084 0.588894
Si Si6 0.062749 0.330518 0.906514
Si Si7 0.434605 0.942281 0.090200
O O1 0.403484 0.727699 0.250000
O O2 0.362988 0.676635 0.481685
O O3 0.338492 0.795456 0.413700
O O4 0.432656 0.764864 0.511225
O O5 0.500000 0.500000 0.500000
O O6 0.500000 0.548513 0.750000
O O7 0.554883 0.600844 0.539324
O O8 0.886559 0.147436 0.750000
O O9 0.839312 0.068752 0.927659
O O10 0.256375 0.450068 0.250000
O O11 0.242623 0.375662 0.029267
O O12 0.254699 0.500000 0.000000
O O13 0.249896 0.697864 0.750000
O O14 0.250000 0.750000 0.500000
O O15 0.091481 0.328481 0.750000
O O16 0.000000 0.346772 0.882074
O O17 0.089127 0.382781 0.007725
O O18 0.409907 0.943908 0.250000
O O19 0.500000 0.941878 0.099363
O O20 0.412557 0.000000 0.000000
#
# Coordination Sequence:
#
# PCOD8259996 Si02
#       7
#    16   8  16  16  16  16  16
#     4  11  23  37  57  86 117 152 198 252 305 359
#     4  10  22  38  58  86 122 164 205 246 299 356
#     4  10  21  38  59  85 121 163 203 247 299 359
#     4  10  21  38  62  91 123 158 200 251 304 363
#     4  10  21  39  62  88 118 154 198 249 305 366
#     4  10  21  36  54  77 109 151 195 240 293 354
#     4   9  16  28  48  73 101 134 177 228 280 337
#
# _framework density 21.145551999999999
#
# number of rings (size 3 to 8) (size 9 to 14) (size 15 to 20)
#    0.000    2.000    1.538    1.846    1.077    5.231 
#    0.000    0.769    0.000    1.846    0.000    0.000 
#    0.000    0.000    0.000    0.000    0.000    0.000 
#
# Total GULP energy -644510.174667 kJ/mol
# GULP energy per Si atom -12394.426436 kJ/mol
# Density = 2.109742 g / cm^3
# Si number density = 21.145552 Si / 1000 Ang^3
#
#
#
# Elastic Constant Matrix: (Units=GPa)
#
#
# Indices 1 2 3 4 5 6 
#
# 1 54.2734 24.7837 12.8136 0.0000 0.0000 0.0000
# 2 24.7837 147.4962 78.2584 0.0000 0.0000 0.0000
# 3 12.8136 78.2584 154.4384 0.0000 0.0000 0.0000
# 4 0.0000 0.0000 0.0000 44.4676 0.0000 0.0000
# 5 0.0000 0.0000 0.0000 0.0000 18.1796 0.0000
# 6 0.0000 0.0000 0.0000 0.0000 0.0000 28.7927
#
#
#
# Elastic Compliance Matrix: (Units=1/GPa)
#
#
# Indices 1 2 3 4 5 6 
#
# 1 0.019957 -0.003385 0.000059 0.000000 0.000000 0.000000
# 2 -0.003385 0.009847 -0.004709 0.000000 0.000000 0.000000
# 3 0.000059 -0.004709 0.008856 0.000000 0.000000 0.000000
# 4 0.000000 0.000000 0.000000 0.022488 0.000000 0.000000
# 5 0.000000 0.000000 0.000000 0.000000 0.055007 0.000000
# 6 0.000000 0.000000 0.000000 0.000000 0.000000 0.034731
#
#
# Mechanical properties :
#
#
# Convention : Reuss Voigt Hill
#
# Bulk Modulus (GPa) = 44.26457 65.32436 54.79447
# Shear Modulus (GPa) = 28.65566 34.31146 31.48356
#
# Velocity S-wave (km/s) = 3.68525 4.03256 3.86281
# Velocity P-wave (km/s) = 6.25194 7.25547 6.77232
#
# Compressibility (1/GPa) = 0.02259143
#
# Stress axis : x y z
#
# Youngs Moduli (GPa) = 50.10806 101.55311 112.91388
#
# Poissons Ratio (x) = 0.34374 -0.00671
# Poissons Ratio (y) = 0.16961 0.53171
# Poissons Ratio (z) = -0.00298 0.47821
#
# Static dielectric constant tensor:
#      x y z
#    x 3.653080 0.000000 0.000000 
#    y 0.000000 3.728250 0.000000 
#    z 0.000000 0.000000 3.993550 
# 
# 
# High freq. dielectric constant tensor:
#      x y z
#    x 1.805620 0.000000 0.000000 
#    y 0.000000 1.827290 0.000000 
#    z 0.000000 0.000000 1.833250 
# 
# From -- ./inp_files/12581.got.cif
#   From: 2010.03.12/outbox.cif.g09.slc.cpg/sg63_7_cif.got.tgz:12581.got - 2010.04.10 19:34:48.
