data_PCOD8259384
_publ_section_title
;
Structure prediction by ZEFSAII (Michael W. Deem and Ramdas Pophale) SiO2 
 PCOD8259384
Probable space group: C M C M
;
_chemical_formula_sum "Si O2"
_cell_formula_units_Z 88
_cell_length_a 18.733246
_cell_length_b 25.027039
_cell_length_c 9.151195
_cell_angle_alpha 90.000000
_cell_angle_beta 90.000000
_cell_angle_gamma 90.000000
_cell_volume 4290.425017
_symmetry_space_group_name_H-M "C M C M"
_symmetry_group_IT_number 63
_symmetry_cell_setting 'orthorhombic'
loop_
_space_group_symop_operation_xyz
x,y,z
-x,-y,1/2+z
x,-y,-z
-x,y,1/2-z
-x,-y,-z
x,y,1/2-z
-x,y,z
x,-y,1/2+z
1/2+x,1/2+y,z
1/2-x,1/2-y,1/2+z
1/2+x,1/2-y,-z
1/2-x,1/2+y,1/2-z
1/2-x,1/2-y,-z
1/2+x,1/2+y,1/2-z
1/2-x,1/2+y,z
1/2+x,1/2-y,1/2+z
loop_
_atom_site_type_symbol
_atom_site_label
_atom_site_fract_x
_atom_site_fract_y
_atom_site_fract_z
Si Si1 0.500000 0.946962 0.912956
Si Si2 0.418405 0.772874 0.922322
Si Si3 0.583931 0.552921 0.580906
Si Si4 0.697325 0.154997 0.919800
Si Si5 0.357666 0.336769 0.081085
Si Si6 0.154309 0.556623 0.079385
O O1 0.500000 0.968487 0.750000
O O2 0.574556 0.916299 0.941291
O O3 0.500000 0.000000 0.000000
O O4 0.402377 0.778159 0.750000
O O5 0.500000 0.789331 0.957350
O O6 0.405633 0.712138 0.978322
O O7 0.363935 0.810216 0.007378
O O8 0.613140 0.500000 0.500000
O O9 0.603914 0.545716 0.750000
O O10 0.500000 0.559493 0.556358
O O11 0.621095 0.605963 0.510414
O O12 0.678939 0.147410 0.750000
O O13 0.775356 0.180494 0.943306
O O14 0.705612 0.097438 0.997329
O O15 0.375697 0.344163 0.250000
O O16 0.174324 0.550663 0.250000
O O17 0.159871 0.500000 0.000000
#
# Coordination Sequence:
#
# PCOD8259384 Si02
#       6
#     8  16  16  16  16  16
#     4   8  16  30  50  72  96 130 174 222 265 308
#     4  10  21  39  63  85 106 141 191 241 287 337
#     4   9  17  32  56  85 115 147 186 229 273 325
#     4  11  23  37  55  83 118 151 185 230 285 343
#     4   9  19  37  59  82 111 149 190 231 278 335
#     4  10  20  36  56  80 110 147 190 231 277 328
#
# _framework density 20.510788000000002
#
# number of rings (size 3 to 8) (size 9 to 14) (size 15 to 20)
#    0.000    2.364    0.000    2.182    1.273    4.000 
#    0.000    5.455    0.000    2.182    0.000    0.000 
#    0.000    0.000    0.000    0.000    0.000    0.000 
#
# Total GULP energy -545262.441008 kJ/mol
# GULP energy per Si atom -12392.328205 kJ/mol
# Density = 2.046410 g / cm^3
# Si number density = 20.510788 Si / 1000 Ang^3
#
#
#
# Elastic Constant Matrix: (Units=GPa)
#
#
# Indices 1 2 3 4 5 6 
#
# 1 67.2485 38.3377 36.2425 0.0000 0.0000 0.0000
# 2 38.3377 116.8757 45.5130 0.0000 0.0000 0.0000
# 3 36.2425 45.5130 83.9888 0.0000 0.0000 0.0000
# 4 0.0000 0.0000 0.0000 31.0262 0.0000 0.0000
# 5 0.0000 0.0000 0.0000 0.0000 23.6820 0.0000
# 6 0.0000 0.0000 0.0000 0.0000 0.0000 33.8209
#
#
#
# Elastic Compliance Matrix: (Units=1/GPa)
#
#
# Indices 1 2 3 4 5 6 
#
# 1 0.020913 -0.004241 -0.006726 0.000000 0.000000 0.000000
# 2 -0.004241 0.011704 -0.004513 0.000000 0.000000 0.000000
# 3 -0.006726 -0.004513 0.017254 0.000000 0.000000 0.000000
# 4 0.000000 0.000000 0.000000 0.032231 0.000000 0.000000
# 5 0.000000 0.000000 0.000000 0.000000 0.042226 0.000000
# 6 0.000000 0.000000 0.000000 0.000000 0.000000 0.029567
#
#
# Mechanical properties :
#
#
# Convention : Reuss Voigt Hill
#
# Bulk Modulus (GPa) = 52.87532 56.47771 54.67652
# Shear Modulus (GPa) = 26.15627 27.57381 26.86504
#
# Velocity S-wave (km/s) = 3.57493 3.67052 3.62304
# Velocity P-wave (km/s) = 6.54793 6.74974 6.64960
#
# Compressibility (1/GPa) = 0.01891242
#
# Stress axis : x y z
#
# Youngs Moduli (GPa) = 47.81784 85.43806 57.95686
#
# Poissons Ratio (x) = 0.36230 0.38983
# Poissons Ratio (y) = 0.20277 0.26154
# Poissons Ratio (z) = 0.32163 0.38555
#
# Static dielectric constant tensor:
#      x y z
#    x 3.819430 0.000000 0.000000 
#    y 0.000000 3.857410 0.000000 
#    z 0.000000 0.000000 3.511030 
# 
# 
# High freq. dielectric constant tensor:
#      x y z
#    x 1.805810 0.000000 0.000000 
#    y 0.000000 1.808150 0.000000 
#    z 0.000000 0.000000 1.777160 
# 
# From -- ./inp_files/8171.got.cif
#   From: 2010.03.12/outbox.cif.g09.slc.cpg/sg63_5_cif.got.tgz:8171.got - 2010.04.10 19:34:48.
