data_PCOD8259223
_publ_section_title
;
Structure prediction by ZEFSAII (Michael W. Deem and Ramdas Pophale) SiO2 
 PCOD8259223
Probable space group: C M C M
;
_chemical_formula_sum "Si O2"
_cell_formula_units_Z 64
_cell_length_a 10.311950
_cell_length_b 11.764738
_cell_length_c 21.252236
_cell_angle_alpha 90.000000
_cell_angle_beta 90.000000
_cell_angle_gamma 90.000000
_cell_volume 2578.265804
_symmetry_space_group_name_H-M "C M C M"
_symmetry_group_IT_number 63
_symmetry_cell_setting 'orthorhombic'
loop_
_space_group_symop_operation_xyz
x,y,z
-x,-y,1/2+z
x,-y,-z
-x,y,1/2-z
-x,-y,-z
x,y,1/2-z
-x,y,z
x,-y,1/2+z
1/2+x,1/2+y,z
1/2-x,1/2-y,1/2+z
1/2+x,1/2-y,-z
1/2-x,1/2+y,1/2-z
1/2-x,1/2-y,-z
1/2+x,1/2+y,1/2-z
1/2-x,1/2+y,z
1/2+x,1/2-y,1/2+z
loop_
_atom_site_type_symbol
_atom_site_label
_atom_site_fract_x
_atom_site_fract_y
_atom_site_fract_z
Si Si1 0.638894 0.236372 0.410910
Si Si2 0.500000 0.872633 0.175898
Si Si3 0.781432 0.936457 0.175861
Si Si4 0.500000 0.387844 0.675073
Si Si5 0.856014 0.885820 0.532567
O O1 0.500000 0.176280 0.398487
O O2 0.659494 0.324819 0.355361
O O3 0.754174 0.144865 0.412636
O O4 0.632691 0.291703 0.479621
O O5 0.500000 0.860734 0.250000
O O6 0.629169 0.942869 0.154675
O O7 0.500000 0.742842 0.147849
O O8 0.792836 0.918738 0.250000
O O9 0.867591 0.044586 0.153789
O O10 0.500000 0.382103 0.750000
O O11 0.000000 0.903676 0.564512
O O12 0.806696 0.000000 0.500000
#
# Coordination Sequence:
#
# PCOD8259223 Si02
#       5
#    16   8  16   8  16
#     4  10  20  35  56  84 114 145 190 241 291 354
#     4   9  20  36  57  84 115 160 207 240 287 351
#     4  10  20  36  58  87 122 158 197 245 297 356
#     4   9  18  36  59  80 115 160 197 240 289 343
#     4   9  20  38  59  81 108 148 193 240 295 349
#
# _framework density 24.822887000000001
#
# number of rings (size 3 to 8) (size 9 to 14) (size 15 to 20)
#    0.000    2.500    1.250    0.000    1.750    2.500 
#    0.000    1.250    5.500    7.500    0.000    0.000 
#    0.000    0.000    0.000    0.000    0.000    0.000 
#
# Total GULP energy -396605.180467 kJ/mol
# GULP energy per Si atom -12393.911890 kJ/mol
# Density = 2.476639 g / cm^3
# Si number density = 24.822887 Si / 1000 Ang^3
#
#
#
# Elastic Constant Matrix: (Units=GPa)
#
#
# Indices 1 2 3 4 5 6 
#
# 1 227.0227 76.6861 62.2556 0.0000 0.0000 0.0000
# 2 76.6861 76.5810 24.0675 0.0000 0.0000 0.0000
# 3 62.2556 24.0675 56.8972 0.0000 0.0000 0.0000
# 4 0.0000 0.0000 0.0000 39.2658 0.0000 0.0000
# 5 0.0000 0.0000 0.0000 0.0000 58.6015 0.0000
# 6 0.0000 0.0000 0.0000 0.0000 0.0000 53.2462
#
#
#
# Elastic Compliance Matrix: (Units=1/GPa)
#
#
# Indices 1 2 3 4 5 6 
#
# 1 0.008284 -0.006281 -0.006407 0.000000 0.000000 0.000000
# 2 -0.006281 0.019823 -0.001512 0.000000 0.000000 0.000000
# 3 -0.006407 -0.001512 0.025225 0.000000 0.000000 0.000000
# 4 0.000000 0.000000 0.000000 0.025467 0.000000 0.000000
# 5 0.000000 0.000000 0.000000 0.000000 0.017064 0.000000
# 6 0.000000 0.000000 0.000000 0.000000 0.000000 0.018781
#
#
# Mechanical properties :
#
#
# Convention : Reuss Voigt Hill
#
# Bulk Modulus (GPa) = 40.10993 76.27994 58.19493
# Shear Modulus (GPa) = 33.03476 43.38882 38.21179
#
# Velocity S-wave (km/s) = 3.65200 4.18537 3.92775
# Velocity P-wave (km/s) = 5.82892 7.35886 6.63811
#
# Compressibility (1/GPa) = 0.02493148
#
# Stress axis : x y z
#
# Youngs Moduli (GPa) = 120.72166 50.44541 39.64294
#
# Poissons Ratio (x) = 0.31687 0.25398
# Poissons Ratio (y) = 0.75831 0.05995
# Poissons Ratio (z) = 0.77341 0.07629
#
# Static dielectric constant tensor:
#      x y z
#    x 5.668620 0.000000 0.000000 
#    y 0.000000 4.254550 0.000000 
#    z 0.000000 0.000000 4.506880 
# 
# 
# High freq. dielectric constant tensor:
#      x y z
#    x 2.014220 0.000000 0.000000 
#    y 0.000000 1.965630 0.000000 
#    z 0.000000 0.000000 2.007640 
# 
# From -- ./inp_files/60884.got.cif
#   From: 2010.03.12/outbox.cif.g09.slc.cpg/sg63_31_cif.got.tgz:60884.got - 2010.04.10 19:34:48.
