data_PCOD8259219
_publ_section_title
;
Structure prediction by ZEFSAII (Michael W. Deem and Ramdas Pophale) SiO2 
 PCOD8259219
Probable space group: C M C M
;
_chemical_formula_sum "Si O2"
_cell_formula_units_Z 88
_cell_length_a 13.027975
_cell_length_b 29.478253
_cell_length_c 12.003375
_cell_angle_alpha 90.000000
_cell_angle_beta 90.000000
_cell_angle_gamma 90.000000
_cell_volume 4609.799459
_symmetry_space_group_name_H-M "C M C M"
_symmetry_group_IT_number 63
_symmetry_cell_setting 'orthorhombic'
loop_
_space_group_symop_operation_xyz
x,y,z
-x,-y,1/2+z
x,-y,-z
-x,y,1/2-z
-x,-y,-z
x,y,1/2-z
-x,y,z
x,-y,1/2+z
1/2+x,1/2+y,z
1/2-x,1/2-y,1/2+z
1/2+x,1/2-y,-z
1/2-x,1/2+y,1/2-z
1/2-x,1/2-y,-z
1/2+x,1/2+y,1/2-z
1/2-x,1/2+y,z
1/2+x,1/2-y,1/2+z
loop_
_atom_site_type_symbol
_atom_site_label
_atom_site_fract_x
_atom_site_fract_y
_atom_site_fract_z
Si Si1 0.204016 0.051671 0.468310
Si Si2 0.886572 0.607936 0.119046
Si Si3 0.500000 0.527774 0.378694
Si Si4 0.321246 0.205774 0.377088
Si Si5 0.386033 0.711544 0.481984
Si Si6 0.881476 0.876872 0.375815
O O1 0.307252 0.068582 0.410695
O O2 0.105082 0.056968 0.385289
O O3 0.184337 0.081177 0.578415
O O4 0.223311 0.000000 0.500000
O O5 0.891848 0.611779 0.250000
O O6 0.849866 0.656653 0.072380
O O7 0.000000 0.596333 0.070788
O O8 0.500000 0.500000 0.500000
O O9 0.500000 0.505138 0.250000
O O10 0.355675 0.210503 0.250000
O O11 0.383379 0.242905 0.445816
O O12 0.198316 0.213454 0.384797
O O13 0.500000 0.706504 0.430042
O O14 0.358329 0.669145 0.559467
O O15 0.846465 0.868522 0.250000
O O16 0.000000 0.890959 0.384165
#
# Coordination Sequence:
#
# PCOD8259219 Si02
#       6
#    16  16   8  16  16  16
#     4  11  22  37  56  84 117 150 199 244 294 344
#     4  10  21  38  59  82 110 147 192 238 288 343
#     4  10  22  38  60  88 122 156 194 250 310 370
#     4  10  20  35  58  84 112 147 186 230 283 343
#     4  10  20  35  56  85 116 144 184 231 284 344
#     4  10  20  35  56  83 117 153 189 232 289 357
#
# _framework density 19.089766999999998
#
# number of rings (size 3 to 8) (size 9 to 14) (size 15 to 20)
#    0.000    1.818    2.727    1.636    0.000    6.182 
#    0.000    0.000    0.000    0.545    0.000    0.000 
#    0.000    0.000    0.000    0.000    0.000    0.000 
#
# Total GULP energy -545303.230990 kJ/mol
# GULP energy per Si atom -12393.255250 kJ/mol
# Density = 1.904632 g / cm^3
# Si number density = 19.089767 Si / 1000 Ang^3
#
#
#
# Elastic Constant Matrix: (Units=GPa)
#
#
# Indices 1 2 3 4 5 6 
#
# 1 130.6154 39.6573 17.6494 0.0000 0.0000 0.0000
# 2 39.6573 121.3562 10.9498 0.0000 0.0000 0.0000
# 3 17.6494 10.9498 51.4506 0.0000 0.0000 0.0000
# 4 0.0000 0.0000 0.0000 22.5709 0.0000 0.0000
# 5 0.0000 0.0000 0.0000 0.0000 -23.6364 0.0000
# 6 0.0000 0.0000 0.0000 0.0000 0.0000 28.9904
#
#
#
# Elastic Compliance Matrix: (Units=1/GPa)
#
#
# Indices 1 2 3 4 5 6 
#
# 1 0.008793 -0.002652 -0.002452 0.000000 0.000000 0.000000
# 2 -0.002652 0.009201 -0.001049 0.000000 0.000000 0.000000
# 3 -0.002452 -0.001049 0.020500 0.000000 0.000000 0.000000
# 4 0.000000 0.000000 0.000000 0.044305 0.000000 0.000000
# 5 0.000000 0.000000 0.000000 0.000000 -0.042308 0.000000
# 6 0.000000 0.000000 0.000000 0.000000 0.000000 0.034494
#
#
# Mechanical properties :
#
#
# Convention : Reuss Voigt Hill
#
# Bulk Modulus (GPa) = 38.18297 48.88168 43.53233
# Shear Modulus (GPa) = 52.07238 21.26270 36.66754
#
# Velocity S-wave (km/s) = 5.22847 3.34103 4.38744
# Velocity P-wave (km/s) = 7.51627 6.36750 6.96561
#
# Compressibility (1/GPa) = 0.02618969
#
# Stress axis : x y z
#
# Youngs Moduli (GPa) = 113.73242 108.67840 48.77977
#
# Poissons Ratio (x) = 0.28822 0.11960
# Poissons Ratio (y) = 0.30162 0.05115
# Poissons Ratio (z) = 0.27884 0.11395
#
# Static dielectric constant tensor:
#      x y z
#    x 3.739150 0.000000 0.000000 
#    y 0.000000 3.529830 0.000000 
#    z 0.000000 0.000000 3.372640 
# 
# 
# High freq. dielectric constant tensor:
#      x y z
#    x 1.746530 0.000000 0.000000 
#    y 0.000000 1.744430 0.000000 
#    z 0.000000 0.000000 1.719560 
# 
# From -- ./inp_files/18012.got.cif
#   From: 2010.03.12/outbox.cif.g09.slc.cpg/sg63_10_cif.got.tgz:18012.got - 2010.04.10 19:34:48.
