data_PCOD8259572
_publ_section_title
;
Structure prediction by ZEFSAII (Michael W. Deem and Ramdas Pophale) SiO2 
 PCOD8259572
Probable space group: C M C M
;
_chemical_formula_sum "Si O2"
_cell_formula_units_Z 112
_cell_length_a 13.846351
_cell_length_b 13.923391
_cell_length_c 25.420316
_cell_angle_alpha 90.000000
_cell_angle_beta 90.000000
_cell_angle_gamma 90.000000
_cell_volume 4900.735920
_symmetry_space_group_name_H-M "C M C M"
_symmetry_group_IT_number 63
_symmetry_cell_setting 'orthorhombic'
loop_
_space_group_symop_operation_xyz
x,y,z
-x,-y,1/2+z
x,-y,-z
-x,y,1/2-z
-x,-y,-z
x,y,1/2-z
-x,y,z
x,-y,1/2+z
1/2+x,1/2+y,z
1/2-x,1/2-y,1/2+z
1/2+x,1/2-y,-z
1/2-x,1/2+y,1/2-z
1/2-x,1/2-y,-z
1/2+x,1/2+y,1/2-z
1/2-x,1/2+y,z
1/2+x,1/2-y,1/2+z
loop_
_atom_site_type_symbol
_atom_site_label
_atom_site_fract_x
_atom_site_fract_y
_atom_site_fract_z
Si Si1 0.390813 0.315185 0.897870
Si Si2 0.113760 0.545029 0.446021
Si Si3 0.385206 0.391844 0.004368
Si Si4 0.700269 0.648574 0.690371
Si Si5 0.391206 0.106640 0.640927
Si Si6 0.614490 0.748066 0.905489
Si Si7 0.113775 0.052251 0.307846
O O1 0.500000 0.354454 0.899857
O O2 0.339999 0.340934 0.952893
O O3 0.388118 0.201581 0.894244
O O4 0.340852 0.370521 0.848646
O O5 0.159555 0.500000 0.500000
O O6 0.141808 0.479894 0.396320
O O7 0.149311 0.652911 0.432780
O O8 0.000000 0.547197 0.453850
O O9 0.500000 0.385335 0.004413
O O10 0.347289 0.500000 0.000000
O O11 0.349705 0.338691 0.056992
O O12 0.678269 0.682300 0.750000
O O13 0.813701 0.619440 0.687448
O O14 0.670865 0.733275 0.649819
O O15 0.637025 0.555992 0.674496
O O16 0.500000 0.091222 0.663939
O O17 0.500000 0.748328 0.894945
O O18 0.159253 0.072694 0.250000
O O19 0.000000 0.065132 0.304545
#
# Coordination Sequence:
#
# PCOD8259572 Si02
#       7
#    16  16  16  16  16  16  16
#     4   9  17  32  56  84 115 150 186 228 281 340
#     4   9  18  37  64  89 119 161 203 245 296 356
#     4   9  16  28  52  87 123 152 178 221 285 352
#     4  11  24  40  59  84 115 152 196 248 302 356
#     4  10  22  40  59  80 110 151 200 247 290 344
#     4  10  20  36  61  92 124 158 197 242 299 365
#     4   9  18  34  57  84 114 149 188 233 291 357
#
# _framework density 22.853711000000001
#
# number of rings (size 3 to 8) (size 9 to 14) (size 15 to 20)
#    0.000    2.429    0.000    2.143    0.000    8.571 
#    0.000    8.571    0.000    2.571    0.000    0.000 
#    0.000    0.000    0.000    0.000    0.000    0.000 
#
# Total GULP energy -694156.945694 kJ/mol
# GULP energy per Si atom -12395.659745 kJ/mol
# Density = 2.280169 g / cm^3
# Si number density = 22.853711 Si / 1000 Ang^3
#
#
#
# Elastic Constant Matrix: (Units=GPa)
#
#
# Indices 1 2 3 4 5 6 
#
# 1 57.0884 9.0545 30.8568 0.0000 0.0000 0.0000
# 2 9.0545 126.1612 66.4531 0.0000 0.0000 0.0000
# 3 30.8568 66.4531 143.9151 0.0000 0.0000 0.0000
# 4 0.0000 0.0000 0.0000 22.2273 0.0000 0.0000
# 5 0.0000 0.0000 0.0000 0.0000 19.0464 0.0000
# 6 0.0000 0.0000 0.0000 0.0000 0.0000 3.2628
#
#
#
# Elastic Compliance Matrix: (Units=1/GPa)
#
#
# Indices 1 2 3 4 5 6 
#
# 1 0.019924 0.001084 -0.004772 0.000000 0.000000 0.000000
# 2 0.001084 0.010533 -0.005096 0.000000 0.000000 0.000000
# 3 -0.004772 -0.005096 0.010325 0.000000 0.000000 0.000000
# 4 0.000000 0.000000 0.000000 0.044990 0.000000 0.000000
# 5 0.000000 0.000000 0.000000 0.000000 0.052503 0.000000
# 6 0.000000 0.000000 0.000000 0.000000 0.000000 0.306488
#
#
# Mechanical properties :
#
#
# Convention : Reuss Voigt Hill
#
# Bulk Modulus (GPa) = 43.07945 59.98818 51.53382
# Shear Modulus (GPa) = 10.63671 23.62730 17.13200
#
# Velocity S-wave (km/s) = 2.15971 3.21884 2.74092
# Velocity P-wave (km/s) = 5.01100 6.33406 5.71098
#
# Compressibility (1/GPa) = 0.02321292
#
# Stress axis : x y z
#
# Youngs Moduli (GPa) = 50.18987 94.94186 96.85370
#
# Poissons Ratio (x) = -0.10290 0.46223
# Poissons Ratio (y) = -0.05440 0.49356
# Poissons Ratio (z) = 0.23953 0.48382
#
# Static dielectric constant tensor:
#      x y z
#    x 3.985860 0.000000 0.000000 
#    y 0.000000 4.130800 0.000000 
#    z 0.000000 0.000000 4.225240 
# 
# 
# High freq. dielectric constant tensor:
#      x y z
#    x 1.891190 0.000000 0.000000 
#    y 0.000000 1.899910 0.000000 
#    z 0.000000 0.000000 1.896250 
# 
# From -- ./inp_files/62989.got.cif
#   From: 2010.03.12/outbox.cif.g09.slc.cpg/sg63_32_cif.got.tgz:62989.got - 2010.04.10 19:34:48.
