data_PCOD8259757
_publ_section_title
;
Structure prediction by ZEFSAII (Michael W. Deem and Ramdas Pophale) SiO2 
 PCOD8259757
Probable space group: C M C M
;
_chemical_formula_sum "Si O2"
_cell_formula_units_Z 64
_cell_length_a 7.657176
_cell_length_b 13.091237
_cell_length_c 37.200052
_cell_angle_alpha 90.000000
_cell_angle_beta 90.000000
_cell_angle_gamma 90.000000
_cell_volume 3729.004107
_symmetry_space_group_name_H-M "C M C M"
_symmetry_group_IT_number 63
_symmetry_cell_setting 'orthorhombic'
loop_
_space_group_symop_operation_xyz
x,y,z
-x,-y,1/2+z
x,-y,-z
-x,y,1/2-z
-x,-y,-z
x,y,1/2-z
-x,y,z
x,-y,1/2+z
1/2+x,1/2+y,z
1/2-x,1/2-y,1/2+z
1/2+x,1/2-y,-z
1/2-x,1/2+y,1/2-z
1/2-x,1/2-y,-z
1/2+x,1/2+y,1/2-z
1/2-x,1/2+y,z
1/2+x,1/2-y,1/2+z
loop_
_atom_site_type_symbol
_atom_site_label
_atom_site_fract_x
_atom_site_fract_y
_atom_site_fract_z
Si Si1 0.808630 0.357267 0.410734
Si Si2 0.808625 0.029835 0.839319
Si Si3 0.000000 0.621697 0.165503
Si Si4 0.000000 0.500975 0.457572
Si Si5 0.500000 0.794415 0.584899
Si Si6 0.000000 0.173570 0.792436
O O1 0.750009 0.414346 0.375145
O O2 0.827663 0.442396 0.442363
O O3 0.672012 0.271967 0.422407
O O4 0.000000 0.306310 0.403937
O O5 0.672116 0.944736 0.827395
O O6 0.000000 0.978634 0.845878
O O7 0.827615 0.115744 0.807963
O O8 0.000000 0.664237 0.125270
O O9 0.000000 0.710147 0.194713
O O10 0.000000 0.500000 0.500000
O O11 0.000000 0.616651 0.444083
O O12 0.000000 0.169609 0.750000
#
# Coordination Sequence:
#
# PCOD8259757 Si02
#       6
#    16  16   8   8   8   8
#     4  10  20  38  62  90 117 154 208 238 294 357
#     4  10  20  38  64  87 118 152 203 244 287 354
#     4  12  20  38  67  90 112 165 200 240 296 368
#     4  10  24  42  58  90 131 150 199 263 296 343
#     4  12  20  38  66  87 118 159 204 244 293 362
#     4  10  24  42  58  89 127 148 194 259 297 341
#
# _framework density 17.162759000000001
#
# number of rings (size 3 to 8) (size 9 to 14) (size 15 to 20)
#    1.500    0.000    7.500    0.000    0.000    3.000 
#    4.500    0.625    0.000    0.000    0.000    0.000 
#    0.000    0.000    0.000    0.000    0.000    0.000 
#
# Total GULP energy -396544.326042 kJ/mol
# GULP energy per Si atom -12392.010189 kJ/mol
# Density = 1.712370 g / cm^3
# Si number density = 17.162759 Si / 1000 Ang^3
#
#
#
# Elastic Constant Matrix: (Units=GPa)
#
#
# Indices 1 2 3 4 5 6 
#
# 1 153.2343 77.4984 44.0394 0.0000 0.0000 0.0000
# 2 77.4984 140.6236 69.6341 0.0000 0.0000 0.0000
# 3 44.0394 69.6341 160.2693 0.0000 0.0000 0.0000
# 4 0.0000 0.0000 0.0000 29.2632 0.0000 0.0000
# 5 0.0000 0.0000 0.0000 0.0000 22.3841 0.0000
# 6 0.0000 0.0000 0.0000 0.0000 0.0000 45.2753
#
#
#
# Elastic Compliance Matrix: (Units=1/GPa)
#
#
# Indices 1 2 3 4 5 6 
#
# 1 0.009069 -0.004796 -0.000408 0.000000 0.000000 0.000000
# 2 -0.004796 0.011596 -0.003721 0.000000 0.000000 0.000000
# 3 -0.000408 -0.003721 0.007968 0.000000 0.000000 0.000000
# 4 0.000000 0.000000 0.000000 0.034173 0.000000 0.000000
# 5 0.000000 0.000000 0.000000 0.000000 0.044675 0.000000
# 6 0.000000 0.000000 0.000000 0.000000 0.000000 0.022087
#
#
# Mechanical properties :
#
#
# Convention : Reuss Voigt Hill
#
# Bulk Modulus (GPa) = 92.72844 92.94121 92.83483
# Shear Modulus (GPa) = 33.11001 36.91487 35.01244
#
# Velocity S-wave (km/s) = 4.39701 4.64278 4.52156
# Velocity P-wave (km/s) = 8.94004 9.11103 9.02594
#
# Compressibility (1/GPa) = 0.01078418
#
# Stress axis : x y z
#
# Youngs Moduli (GPa) = 110.26957 86.23303 125.49757
#
# Poissons Ratio (x) = 0.41354 0.05124
# Poissons Ratio (y) = 0.52881 0.46694
# Poissons Ratio (z) = 0.04503 0.32085
#
# Static dielectric constant tensor:
#      x y z
#    x 3.065400 0.000000 0.000000 
#    y 0.000000 4.005980 0.000000 
#    z 0.000000 0.000000 2.992040 
# 
# 
# High freq. dielectric constant tensor:
#      x y z
#    x 1.662650 0.000000 0.000000 
#    y 0.000000 1.665520 0.000000 
#    z 0.000000 0.000000 1.648260 
# 
# From -- ./inp_files/71387.got.cif
#   From: 2010.03.12/outbox.cif.g09.slc.cpg/sg63_36_cif.got.tgz:71387.got - 2010.04.10 19:34:48.
