data_PCOD8259851
_publ_section_title
;
Structure prediction by ZEFSAII (Michael W. Deem and Ramdas Pophale) SiO2 
 PCOD8259851
Probable space group: C M C M
;
_chemical_formula_sum "Si O2"
_cell_formula_units_Z 112
_cell_length_a 15.063512
_cell_length_b 23.570906
_cell_length_c 14.582127
_cell_angle_alpha 90.000000
_cell_angle_beta 90.000000
_cell_angle_gamma 90.000000
_cell_volume 5177.539132
_symmetry_space_group_name_H-M "C M C M"
_symmetry_group_IT_number 63
_symmetry_cell_setting 'orthorhombic'
loop_
_space_group_symop_operation_xyz
x,y,z
-x,-y,1/2+z
x,-y,-z
-x,y,1/2-z
-x,-y,-z
x,y,1/2-z
-x,y,z
x,-y,1/2+z
1/2+x,1/2+y,z
1/2-x,1/2-y,1/2+z
1/2+x,1/2-y,-z
1/2-x,1/2+y,1/2-z
1/2-x,1/2-y,-z
1/2+x,1/2+y,1/2-z
1/2-x,1/2+y,z
1/2+x,1/2-y,1/2+z
loop_
_atom_site_type_symbol
_atom_site_label
_atom_site_fract_x
_atom_site_fract_y
_atom_site_fract_z
Si Si1 0.898412 0.750404 0.348313
Si Si2 0.596806 0.937028 0.473248
Si Si3 0.399266 0.496284 0.107734
Si Si4 0.102105 0.123654 0.353410
Si Si5 0.894232 0.374361 0.648597
Si Si6 0.250912 0.905559 0.354104
Si Si7 0.700082 0.310126 0.009872
O O1 0.862263 0.774175 0.250000
O O2 0.854560 0.688824 0.368604
O O3 0.886017 0.795360 0.428772
O O4 0.000000 0.736126 0.337217
O O5 0.500000 0.908448 0.450563
O O6 0.644906 0.909097 0.562802
O O7 0.659792 0.938095 0.384155
O O8 0.576677 0.000000 0.500000
O O9 0.500000 0.481866 0.140022
O O10 0.369301 0.557509 0.146074
O O11 0.334814 0.446426 0.141620
O O12 0.393627 0.500000 0.000000
O O13 0.111722 0.146731 0.250000
O O14 0.167068 0.161687 0.415713
O O15 0.000000 0.128924 0.387725
O O16 0.861873 0.395671 0.750000
O O17 0.000000 0.378240 0.645121
O O18 0.261021 0.883848 0.250000
O O19 0.252762 0.853549 0.425633
O O20 0.750000 0.250000 0.000000
#
# Coordination Sequence:
#
# PCOD8259851 Si02
#       7
#    16  16  16  16  16  16  16
#     4   9  18  35  59  84 112 149 200 257 307 360
#     4  10  22  40  62  87 121 164 212 263 316 378
#     4  10  20  41  72 103 136 170 210 265 337 411
#     4  10  22  42  69  99 130 170 219 269 331 407
#     4   8  15  32  59  87 112 147 202 266 324 373
#     4  12  26  42  63  95 134 171 215 269 329 392
#     4  12  25  40  60  88 129 174 215 265 315 378
#
# _framework density 21.631898
#
# number of rings (size 3 to 8) (size 9 to 14) (size 15 to 20)
#    0.000    1.857    1.429    3.429    0.000    3.429 
#    0.000    2.857    0.000    0.000    0.000    0.000 
#    0.000    0.000    0.000    0.000    0.000    0.000 
#
# Total GULP energy -693791.869285 kJ/mol
# GULP energy per Si atom -12389.140523 kJ/mol
# Density = 2.158266 g / cm^3
# Si number density = 21.631898 Si / 1000 Ang^3
#
#
#
# Elastic Constant Matrix: (Units=GPa)
#
#
# Indices 1 2 3 4 5 6 
#
# 1 80.1098 36.3797 38.4994 0.0000 0.0000 0.0000
# 2 36.3797 92.0778 47.5433 0.0000 0.0000 0.0000
# 3 38.4994 47.5433 140.7468 0.0000 0.0000 0.0000
# 4 0.0000 0.0000 0.0000 29.3968 0.0000 0.0000
# 5 0.0000 0.0000 0.0000 0.0000 10.4776 0.0000
# 6 0.0000 0.0000 0.0000 0.0000 0.0000 41.8718
#
#
#
# Elastic Compliance Matrix: (Units=1/GPa)
#
#
# Indices 1 2 3 4 5 6 
#
# 1 0.016028 -0.004928 -0.002719 0.000000 0.000000 0.000000
# 2 -0.004928 0.014670 -0.003607 0.000000 0.000000 0.000000
# 3 -0.002719 -0.003607 0.009067 0.000000 0.000000 0.000000
# 4 0.000000 0.000000 0.000000 0.034017 0.000000 0.000000
# 5 0.000000 0.000000 0.000000 0.000000 0.095442 0.000000
# 6 0.000000 0.000000 0.000000 0.000000 0.000000 0.023882
#
#
# Mechanical properties :
#
#
# Convention : Reuss Voigt Hill
#
# Bulk Modulus (GPa) = 57.95425 61.97547 59.96486
# Shear Modulus (GPa) = 22.58668 29.05003 25.81835
#
# Velocity S-wave (km/s) = 3.23482 3.66857 3.45850
# Velocity P-wave (km/s) = 6.38759 6.83058 6.61279
#
# Compressibility (1/GPa) = 0.01725499
#
# Stress axis : x y z
#
# Youngs Moduli (GPa) = 62.39122 68.16521 110.28555
#
# Poissons Ratio (x) = 0.33595 0.29991
# Poissons Ratio (y) = 0.30749 0.39784
# Poissons Ratio (z) = 0.16967 0.24590
#
# Static dielectric constant tensor:
#      x y z
#    x 3.860350 0.000000 0.000000 
#    y 0.000000 3.961370 0.000000 
#    z 0.000000 0.000000 4.188790 
# 
# 
# High freq. dielectric constant tensor:
#      x y z
#    x 1.840930 0.000000 0.000000 
#    y 0.000000 1.839240 0.000000 
#    z 0.000000 0.000000 1.861100 
# 
# From -- ./inp_files/32316.got.cif
#   From: 2010.03.12/outbox.cif.g09.slc.cpg/sg63_17_cif.got.tgz:32316.got - 2010.04.10 19:34:48.
