data_PCOD8259013
_publ_section_title
;
Structure prediction by ZEFSAII (Michael W. Deem and Ramdas Pophale) SiO2 
 PCOD8259013
Probable space group: C M C M
;
_chemical_formula_sum "Si O2"
_cell_formula_units_Z 112
_cell_length_a 17.400309
_cell_length_b 22.719010
_cell_length_c 13.991788
_cell_angle_alpha 90.000000
_cell_angle_beta 90.000000
_cell_angle_gamma 90.000000
_cell_volume 5531.202769
_symmetry_space_group_name_H-M "C M C M"
_symmetry_group_IT_number 63
_symmetry_cell_setting 'orthorhombic'
loop_
_space_group_symop_operation_xyz
x,y,z
-x,-y,1/2+z
x,-y,-z
-x,y,1/2-z
-x,-y,-z
x,y,1/2-z
-x,y,z
x,-y,1/2+z
1/2+x,1/2+y,z
1/2-x,1/2-y,1/2+z
1/2+x,1/2-y,-z
1/2-x,1/2+y,1/2-z
1/2-x,1/2-y,-z
1/2+x,1/2+y,1/2-z
1/2-x,1/2+y,z
1/2+x,1/2-y,1/2+z
loop_
_atom_site_type_symbol
_atom_site_label
_atom_site_fract_x
_atom_site_fract_y
_atom_site_fract_z
Si Si1 0.127904 0.996204 0.140332
Si Si2 0.341606 0.134501 0.503249
Si Si3 0.297379 0.696535 0.548004
Si Si4 0.086707 0.100830 0.009124
Si Si5 0.911543 0.274356 0.857185
Si Si6 0.708960 0.956602 0.642262
Si Si7 0.086365 0.449528 0.356314
O O1 0.102084 0.990696 0.250000
O O2 0.093172 0.056800 0.099118
O O3 0.219515 0.999997 0.127936
O O4 0.100903 0.937514 0.086646
O O5 0.276635 0.157783 0.578235
O O6 0.390070 0.180518 0.440690
O O7 0.289869 0.097213 0.429948
O O8 0.403642 0.101674 0.566872
O O9 0.250000 0.750000 0.500000
O O10 0.354415 0.656258 0.481612
O O11 0.352242 0.719341 0.633403
O O12 0.000000 0.126149 0.006615
O O13 0.901601 0.300725 0.750000
O O14 0.000000 0.254022 0.871849
O O15 0.706234 0.931699 0.750000
O O16 0.634477 0.993767 0.615023
O O17 0.108702 0.426899 0.250000
O O18 0.000000 0.471844 0.359664
#
# Coordination Sequence:
#
# PCOD8259013 Si02
#       7
#    16  16  16  16  16  16  16
#     4  10  21  37  59  89 123 160 197 241 303 369
#     4  11  20  36  61  82 112 153 200 241 298 352
#     4  10  22  39  59  83 113 156 200 247 300 360
#     4  11  22  37  60  89 122 157 199 251 302 364
#     4  10  22  39  59  86 116 147 194 253 308 360
#     4  10  20  34  56  83 117 154 192 239 290 356
#     4  10  22  36  52  82 119 155 195 238 287 346
#
# _framework density 20.248760000000001
#
# number of rings (size 3 to 8) (size 9 to 14) (size 15 to 20)
#    0.000    1.714    1.429    3.429    2.000    4.000 
#    0.000    1.429    0.000    0.857    0.000    0.000 
#    0.000    0.000    0.000    0.000    0.000    0.000 
#
# Total GULP energy -693782.716051 kJ/mol
# GULP energy per Si atom -12388.977072 kJ/mol
# Density = 2.020267 g / cm^3
# Si number density = 20.248760 Si / 1000 Ang^3
#
#
#
# Elastic Constant Matrix: (Units=GPa)
#
#
# Indices 1 2 3 4 5 6 
#
# 1 134.6499 38.4001 32.6319 0.0000 0.0000 0.0000
# 2 38.4001 76.0342 28.7697 0.0000 0.0000 0.0000
# 3 32.6319 28.7697 91.4245 0.0000 0.0000 0.0000
# 4 0.0000 0.0000 0.0000 19.8311 0.0000 0.0000
# 5 0.0000 0.0000 0.0000 0.0000 28.6208 0.0000
# 6 0.0000 0.0000 0.0000 0.0000 0.0000 33.5449
#
#
#
# Elastic Compliance Matrix: (Units=1/GPa)
#
#
# Indices 1 2 3 4 5 6 
#
# 1 0.008994 -0.003777 -0.002021 0.000000 0.000000 0.000000
# 2 -0.003777 0.016516 -0.003849 0.000000 0.000000 0.000000
# 3 -0.002021 -0.003849 0.012871 0.000000 0.000000 0.000000
# 4 0.000000 0.000000 0.000000 0.050426 0.000000 0.000000
# 5 0.000000 0.000000 0.000000 0.000000 0.034940 0.000000
# 6 0.000000 0.000000 0.000000 0.000000 0.000000 0.029811
#
#
# Mechanical properties :
#
#
# Convention : Reuss Voigt Hill
#
# Bulk Modulus (GPa) = 52.39760 55.74577 54.07168
# Shear Modulus (GPa) = 27.89957 29.88650 28.89303
#
# Velocity S-wave (km/s) = 3.71595 3.84600 3.78154
# Velocity P-wave (km/s) = 6.65915 6.87841 6.76966
#
# Compressibility (1/GPa) = 0.01908484
#
# Stress axis : x y z
#
# Youngs Moduli (GPa) = 111.18773 60.54712 77.69558
#
# Poissons Ratio (x) = 0.22871 0.15706
# Poissons Ratio (y) = 0.41999 0.29906
# Poissons Ratio (z) = 0.22476 0.23305
#
# Static dielectric constant tensor:
#      x y z
#    x 3.962340 0.000000 0.000000 
#    y 0.000000 3.676700 0.000000 
#    z 0.000000 0.000000 3.654700 
# 
# 
# High freq. dielectric constant tensor:
#      x y z
#    x 1.814870 0.000000 0.000000 
#    y 0.000000 1.777560 0.000000 
#    z 0.000000 0.000000 1.776670 
# 
# From -- ./inp_files/32303.got.cif
#   From: 2010.03.12/outbox.cif.g09.slc.cpg/sg63_17_cif.got.tgz:32303.got - 2010.04.10 19:34:48.
