data_PCOD8259532
_publ_section_title
;
Structure prediction by ZEFSAII (Michael W. Deem and Ramdas Pophale) SiO2 
 PCOD8259532
Probable space group: C M C M
;
_chemical_formula_sum "Si O2"
_cell_formula_units_Z 96
_cell_length_a 8.951787
_cell_length_b 20.512735
_cell_length_c 26.620649
_cell_angle_alpha 90.000000
_cell_angle_beta 90.000000
_cell_angle_gamma 90.000000
_cell_volume 4888.233564
_symmetry_space_group_name_H-M "C M C M"
_symmetry_group_IT_number 63
_symmetry_cell_setting 'orthorhombic'
loop_
_space_group_symop_operation_xyz
x,y,z
-x,-y,1/2+z
x,-y,-z
-x,y,1/2-z
-x,-y,-z
x,y,1/2-z
-x,y,z
x,-y,1/2+z
1/2+x,1/2+y,z
1/2-x,1/2-y,1/2+z
1/2+x,1/2-y,-z
1/2-x,1/2+y,1/2-z
1/2-x,1/2-y,-z
1/2+x,1/2+y,1/2-z
1/2-x,1/2+y,z
1/2+x,1/2-y,1/2+z
loop_
_atom_site_type_symbol
_atom_site_label
_atom_site_fract_x
_atom_site_fract_y
_atom_site_fract_z
Si Si1 0.676466 0.190204 0.027525
Si Si2 0.676064 0.802646 0.642799
Si Si3 0.177376 0.437231 0.028223
Si Si4 0.325111 0.574919 0.307861
Si Si5 0.324759 0.952582 0.141759
Si Si6 0.673090 0.817982 0.308325
O O1 0.500000 0.196509 0.022212
O O2 0.725518 0.187373 0.085386
O O3 0.750000 0.250000 0.000000
O O4 0.739372 0.125903 0.000355
O O5 0.500000 0.808979 0.649467
O O6 0.753053 0.856799 0.676883
O O7 0.727039 0.731282 0.659963
O O8 0.230628 0.436186 0.085725
O O9 0.000000 0.438169 0.025328
O O10 0.244491 0.500000 0.000000
O O11 0.287128 0.561399 0.250000
O O12 0.500000 0.580107 0.317527
O O13 0.260378 0.516295 0.340286
O O14 0.500000 0.968381 0.143214
O O15 0.283482 0.891575 0.176863
O O16 0.707824 0.808099 0.250000
O O17 0.500000 0.804670 0.320872
#
# Coordination Sequence:
#
# PCOD8259532 Si02
#       6
#    16  16  16  16  16  16
#     4  10  21  37  58  84 113 146 184 227 276 332
#     4  11  23  38  59  86 114 148 191 235 280 334
#     4   9  17  32  55  81 109 141 178 221 269 322
#     4  11  24  40  58  82 114 151 189 233 286 338
#     4  10  20  36  60  85 110 146 189 230 275 332
#     4  10  21  37  57  82 113 150 191 234 283 338
#
# _framework density 19.638995999999999
#
# number of rings (size 3 to 8) (size 9 to 14) (size 15 to 20)
#    0.000    1.833    0.000    4.000    0.000   10.333 
#    0.000    0.833    0.000    2.000    0.000    0.000 
#    0.000    0.000    0.000    0.000    0.000    0.000 
#
# Total GULP energy -595428.896859 kJ/mol
# GULP energy per Si atom -12404.768685 kJ/mol
# Density = 1.959430 g / cm^3
# Si number density = 19.638996 Si / 1000 Ang^3
#
#
#
# Elastic Constant Matrix: (Units=GPa)
#
#
# Indices 1 2 3 4 5 6 
#
# 1 46.8599 30.3548 37.6335 0.0000 0.0000 0.0000
# 2 30.3548 116.5744 29.7961 0.0000 0.0000 0.0000
# 3 37.6335 29.7961 94.8400 0.0000 0.0000 0.0000
# 4 0.0000 0.0000 0.0000 46.6240 0.0000 0.0000
# 5 0.0000 0.0000 0.0000 0.0000 27.1357 0.0000
# 6 0.0000 0.0000 0.0000 0.0000 0.0000 36.9883
#
#
#
# Elastic Compliance Matrix: (Units=1/GPa)
#
#
# Indices 1 2 3 4 5 6 
#
# 1 0.034815 -0.006018 -0.011924 0.000000 0.000000 0.000000
# 2 -0.006018 0.010367 -0.000869 0.000000 0.000000 0.000000
# 3 -0.011924 -0.000869 0.015549 0.000000 0.000000 0.000000
# 4 0.000000 0.000000 0.000000 0.021448 0.000000 0.000000
# 5 0.000000 0.000000 0.000000 0.000000 0.036852 0.000000
# 6 0.000000 0.000000 0.000000 0.000000 0.000000 0.027036
#
#
# Mechanical properties :
#
#
# Convention : Reuss Voigt Hill
#
# Bulk Modulus (GPa) = 43.27391 50.42700 46.85046
# Shear Modulus (GPa) = 26.12443 32.84892 29.48668
#
# Velocity S-wave (km/s) = 3.65119 4.09423 3.87904
# Velocity P-wave (km/s) = 6.31328 6.93419 6.63100
#
# Compressibility (1/GPa) = 0.02310861
#
# Stress axis : x y z
#
# Youngs Moduli (GPa) = 28.72344 96.45695 64.31340
#
# Poissons Ratio (x) = 0.58044 0.76689
# Poissons Ratio (y) = 0.17285 0.05591
# Poissons Ratio (z) = 0.34251 0.08385
#
# Static dielectric constant tensor:
#      x y z
#    x 3.366790 0.000000 0.000000 
#    y 0.000000 3.672340 0.000000 
#    z 0.000000 0.000000 3.812240 
# 
# 
# High freq. dielectric constant tensor:
#      x y z
#    x 1.742120 0.000000 0.000000 
#    y 0.000000 1.783050 0.000000 
#    z 0.000000 0.000000 1.784020 
# 
# From -- ./inp_files/66924.got.cif
#   From: 2010.03.12/outbox.cif.g09.slc.cpg/sg63_34_cif.got.tgz:66924.got - 2010.04.10 19:34:48.
