data_PCOD8259052
_publ_section_title
;
Structure prediction by ZEFSAII (Michael W. Deem and Ramdas Pophale) SiO2 
 PCOD8259052
Probable space group: C M C M
;
_chemical_formula_sum "Si O2"
_cell_formula_units_Z 64
_cell_length_a 18.477664
_cell_length_b 23.917081
_cell_length_c 7.648333
_cell_angle_alpha 90.000000
_cell_angle_beta 90.000000
_cell_angle_gamma 90.000000
_cell_volume 3380.041467
_symmetry_space_group_name_H-M "C M C M"
_symmetry_group_IT_number 63
_symmetry_cell_setting 'orthorhombic'
loop_
_space_group_symop_operation_xyz
x,y,z
-x,-y,1/2+z
x,-y,-z
-x,y,1/2-z
-x,-y,-z
x,y,1/2-z
-x,y,z
x,-y,1/2+z
1/2+x,1/2+y,z
1/2-x,1/2-y,1/2+z
1/2+x,1/2-y,-z
1/2-x,1/2+y,1/2-z
1/2-x,1/2-y,-z
1/2+x,1/2+y,1/2-z
1/2-x,1/2+y,z
1/2+x,1/2-y,1/2+z
loop_
_atom_site_type_symbol
_atom_site_label
_atom_site_fract_x
_atom_site_fract_y
_atom_site_fract_z
Si Si1 0.082473 0.662677 0.943731
Si Si2 0.324711 0.938232 0.952112
Si Si3 0.914159 0.740986 0.250000
Si Si4 0.414148 0.633402 0.750000
Si Si5 0.842722 0.937768 0.954116
O O1 0.086552 0.689088 0.750000
O O2 0.000000 0.647311 0.994297
O O3 0.128640 0.606162 0.941859
O O4 0.114194 0.708249 0.078495
O O5 0.336930 0.926328 0.750000
O O6 0.241148 0.931650 0.005552
O O7 0.352301 0.000000 0.000000
O O8 0.882671 0.803532 0.250000
O O9 0.000000 0.744368 0.250000
O O10 0.500000 0.632260 0.750000
O O11 0.387458 0.604737 0.572310
O O12 0.856731 0.924664 0.750000
O O13 0.869492 0.000000 0.000000
#
# Coordination Sequence:
#
# PCOD8259052 Si02
#       5
#    16  16   8   8  16
#     4  10  20  35  58  84 114 154 194 234 273 319
#     4  10  20  34  58  85 116 156 188 227 282 334
#     4   9  20  40  57  78 114 151 191 230 280 336
#     4  11  24  40  63  86 109 147 187 234 287 342
#     4  10  21  39  60  86 117 149 182 226 288 347
#
# _framework density 18.934678999999999
#
# number of rings (size 3 to 8) (size 9 to 14) (size 15 to 20)
#    0.000    2.000    2.500    0.750    3.500    2.500 
#    0.000    3.750    0.000    0.000    0.000    0.000 
#    0.000    0.000    0.000    0.000    0.000    0.000 
#
# Total GULP energy -396861.151089 kJ/mol
# GULP energy per Si atom -12401.910972 kJ/mol
# Density = 1.889158 g / cm^3
# Si number density = 18.934679 Si / 1000 Ang^3
#
#
#
# Elastic Constant Matrix: (Units=GPa)
#
#
# Indices 1 2 3 4 5 6 
#
# 1 53.3386 50.4111 36.9182 0.0000 0.0000 0.0000
# 2 50.4111 159.6866 70.1626 0.0000 0.0000 0.0000
# 3 36.9182 70.1626 128.6086 0.0000 0.0000 0.0000
# 4 0.0000 0.0000 0.0000 29.5477 0.0000 0.0000
# 5 0.0000 0.0000 0.0000 0.0000 26.8326 0.0000
# 6 0.0000 0.0000 0.0000 0.0000 0.0000 -12.0759
#
#
#
# Elastic Compliance Matrix: (Units=1/GPa)
#
#
# Indices 1 2 3 4 5 6 
#
# 1 0.028414 -0.007084 -0.004292 0.000000 0.000000 0.000000
# 2 -0.007084 0.010003 -0.003423 0.000000 0.000000 0.000000
# 3 -0.004292 -0.003423 0.010875 0.000000 0.000000 0.000000
# 4 0.000000 0.000000 0.000000 0.033844 0.000000 0.000000
# 5 0.000000 0.000000 0.000000 0.000000 0.037268 0.000000
# 6 0.000000 0.000000 0.000000 0.000000 0.000000 -0.082810
#
#
# Mechanical properties :
#
#
# Convention : Reuss Voigt Hill
#
# Bulk Modulus (GPa) = 50.77880 72.95752 61.86816
# Shear Modulus (GPa) = 67.78959 21.13701 44.46330
#
# Velocity S-wave (km/s) = 5.98995 3.34475 4.85113
# Velocity P-wave (km/s) = 8.64381 7.31651 8.00771
#
# Compressibility (1/GPa) = 0.01969326
#
# Stress axis : x y z
#
# Youngs Moduli (GPa) = 35.19381 99.97099 91.95265
#
# Poissons Ratio (x) = 0.70823 0.39463
# Poissons Ratio (y) = 0.24932 0.31480
# Poissons Ratio (z) = 0.15104 0.34225
#
# Static dielectric constant tensor:
#      x y z
#    x 3.256080 0.000000 0.000000 
#    y 0.000000 3.506750 0.000000 
#    z 0.000000 0.000000 3.598300 
# 
# 
# High freq. dielectric constant tensor:
#      x y z
#    x 1.714080 0.000000 0.000000 
#    y 0.000000 1.730440 0.000000 
#    z 0.000000 0.000000 1.755600 
# 
# From -- ./inp_files/7757.got.cif
#   From: 2010.03.12/outbox.cif.g09.slc.cpg/sg63_4_cif.got.tgz:7757.got - 2010.04.10 19:34:48.
