data_PCOD8259727
_publ_section_title
;
Structure prediction by ZEFSAII (Michael W. Deem and Ramdas Pophale) SiO2 
 PCOD8259727
Probable space group: C M C M
;
_chemical_formula_sum "Si O2"
_cell_formula_units_Z 80
_cell_length_a 18.032451
_cell_length_b 9.863432
_cell_length_c 22.935565
_cell_angle_alpha 90.000000
_cell_angle_beta 90.000000
_cell_angle_gamma 90.000000
_cell_volume 4079.362119
_symmetry_space_group_name_H-M "C M C M"
_symmetry_group_IT_number 63
_symmetry_cell_setting 'orthorhombic'
loop_
_space_group_symop_operation_xyz
x,y,z
-x,-y,1/2+z
x,-y,-z
-x,y,1/2-z
-x,-y,-z
x,y,1/2-z
-x,y,z
x,-y,1/2+z
1/2+x,1/2+y,z
1/2-x,1/2-y,1/2+z
1/2+x,1/2-y,-z
1/2-x,1/2+y,1/2-z
1/2-x,1/2-y,-z
1/2+x,1/2+y,1/2-z
1/2-x,1/2+y,z
1/2+x,1/2-y,1/2+z
loop_
_atom_site_type_symbol
_atom_site_label
_atom_site_fract_x
_atom_site_fract_y
_atom_site_fract_z
Si Si1 0.366124 0.886269 0.927114
Si Si2 0.585587 0.187525 0.545892
Si Si3 0.714678 0.299406 0.886475
Si Si4 0.782122 0.935715 0.183927
Si Si5 0.583098 0.251290 0.185393
O O1 0.279746 0.843164 0.931237
O O2 0.397090 0.861222 0.862333
O O3 0.379257 0.042941 0.939249
O O4 0.408901 0.795732 0.975707
O O5 0.500000 0.201677 0.565741
O O6 0.636325 0.298343 0.579089
O O7 0.728520 0.152154 0.857642
O O8 0.714934 0.408451 0.834763
O O9 0.752492 0.928035 0.250000
O O10 0.865548 0.881698 0.178001
O O11 0.593816 0.185998 0.250000
O O12 0.500000 0.303771 0.176505
#
# Coordination Sequence:
#
# PCOD8259727 Si02
#       5
#    16  16  16  16  16
#     4  10  20  38  60  83 119 161 201 240 293 360
#     4  11  22  37  60  89 122 159 198 247 303 351
#     4  11  21  39  59  90 118 154 206 246 290 359
#     4  10  21  37  60  85 117 159 198 244 297 356
#     4   9  18  34  57  84 113 150 196 244 299 357
#
# _framework density 19.610908999999999
#
# number of rings (size 3 to 8) (size 9 to 14) (size 15 to 20)
#    0.000    1.800    2.000    3.600    0.000    1.600 
#    0.000    0.000    0.000    9.000    0.000    0.000 
#    0.000    0.000    0.000    0.000    0.000    0.000 
#
# Total GULP energy -495897.033602 kJ/mol
# GULP energy per Si atom -12397.425840 kJ/mol
# Density = 1.956627 g / cm^3
# Si number density = 19.610909 Si / 1000 Ang^3
#
#
#
# Elastic Constant Matrix: (Units=GPa)
#
#
# Indices 1 2 3 4 5 6 
#
# 1 140.6396 24.0315 49.5188 0.0000 0.0000 0.0000
# 2 24.0315 57.9307 31.9349 0.0000 0.0000 0.0000
# 3 49.5188 31.9349 107.8575 0.0000 0.0000 0.0000
# 4 0.0000 0.0000 0.0000 30.7525 0.0000 0.0000
# 5 0.0000 0.0000 0.0000 0.0000 30.2351 0.0000
# 6 0.0000 0.0000 0.0000 0.0000 0.0000 16.5024
#
#
#
# Elastic Compliance Matrix: (Units=1/GPa)
#
#
# Indices 1 2 3 4 5 6 
#
# 1 0.008614 -0.001665 -0.003462 0.000000 0.000000 0.000000
# 2 -0.001665 0.020951 -0.005439 0.000000 0.000000 0.000000
# 3 -0.003462 -0.005439 0.012471 0.000000 0.000000 0.000000
# 4 0.000000 0.000000 0.000000 0.032518 0.000000 0.000000
# 5 0.000000 0.000000 0.000000 0.000000 0.033074 0.000000
# 6 0.000000 0.000000 0.000000 0.000000 0.000000 0.060597
#
#
# Mechanical properties :
#
#
# Convention : Reuss Voigt Hill
#
# Bulk Modulus (GPa) = 47.83591 57.48869 52.66230
# Shear Modulus (GPa) = 25.46809 28.89416 27.18112
#
# Velocity S-wave (km/s) = 3.60761 3.84262 3.72697
# Velocity P-wave (km/s) = 6.46519 7.00471 6.74035
#
# Compressibility (1/GPa) = 0.02090480
#
# Stress axis : x y z
#
# Youngs Moduli (GPa) = 116.09376 47.73071 80.18497
#
# Poissons Ratio (x) = 0.07947 0.27758
# Poissons Ratio (y) = 0.19329 0.43611
# Poissons Ratio (z) = 0.40188 0.25960
#
# Static dielectric constant tensor:
#      x y z
#    x 3.719130 0.000000 0.000000 
#    y 0.000000 3.236350 0.000000 
#    z 0.000000 0.000000 3.975950 
# 
# 
# High freq. dielectric constant tensor:
#      x y z
#    x 1.768770 0.000000 0.000000 
#    y 0.000000 1.735800 0.000000 
#    z 0.000000 0.000000 1.777140 
# 
# From -- ./inp_files/69734.got.cif
#   From: 2010.03.12/outbox.cif.g09.slc.cpg/sg63_35_cif.got.tgz:69734.got - 2010.04.10 19:34:48.
