data_PCOD8259919
_publ_section_title
;
Structure prediction by ZEFSAII (Michael W. Deem and Ramdas Pophale) SiO2 
 PCOD8259919
Probable space group: C M C M
;
_chemical_formula_sum "Si O2"
_cell_formula_units_Z 64
_cell_length_a 9.336860
_cell_length_b 40.085673
_cell_length_c 9.699116
_cell_angle_alpha 90.000000
_cell_angle_beta 90.000000
_cell_angle_gamma 90.000000
_cell_volume 3630.130015
_symmetry_space_group_name_H-M "C M C M"
_symmetry_group_IT_number 63
_symmetry_cell_setting 'orthorhombic'
loop_
_space_group_symop_operation_xyz
x,y,z
-x,-y,1/2+z
x,-y,-z
-x,y,1/2-z
-x,-y,-z
x,y,1/2-z
-x,y,z
x,-y,1/2+z
1/2+x,1/2+y,z
1/2-x,1/2-y,1/2+z
1/2+x,1/2-y,-z
1/2-x,1/2+y,1/2-z
1/2-x,1/2-y,-z
1/2+x,1/2+y,1/2-z
1/2-x,1/2+y,z
1/2+x,1/2-y,1/2+z
loop_
_atom_site_type_symbol
_atom_site_label
_atom_site_fract_x
_atom_site_fract_y
_atom_site_fract_z
Si Si1 0.664128 0.148670 0.089104
Si Si2 0.832515 0.096974 0.590390
Si Si3 0.166009 0.275143 0.905474
Si Si4 0.334393 0.968881 0.090940
O O1 0.695445 0.142743 0.250000
O O2 0.500000 0.139152 0.055335
O O3 0.693805 0.186914 0.048038
O O4 0.770981 0.126865 0.999416
O O5 0.799542 0.104604 0.750000
O O6 0.758109 0.062710 0.544184
O O7 0.000000 0.093576 0.561586
O O8 0.220602 0.270211 0.750000
O O9 0.000000 0.266438 0.916521
O O10 0.250000 0.250000 0.000000
O O11 0.307087 0.978003 0.250000
O O12 0.500000 0.960344 0.062916
O O13 0.283171 0.000000 0.000000
#
# Coordination Sequence:
#
# PCOD8259919 Si02
#       4
#    16  16  16  16
#     4   9  19  36  55  74  99 133 172 211 250 296
#     4  10  21  35  51  75 106 136 167 206 252 300
#     4   9  19  35  53  75 103 133 167 208 252 299
#     4   9  18  33  52  73  98 130 168 207 246 292
#
# _framework density 17.630222
#
# number of rings (size 3 to 8) (size 9 to 14) (size 15 to 20)
#    0.000    2.750    0.000    2.250    0.000    6.000 
#    0.000   10.000    0.000    0.000    0.000    0.000 
#    0.000    0.000    0.000    0.000    0.000    0.000 
#
# Total GULP energy -396854.343356 kJ/mol
# GULP energy per Si atom -12401.698230 kJ/mol
# Density = 1.759010 g / cm^3
# Si number density = 17.630222 Si / 1000 Ang^3
#
#
#
# Elastic Constant Matrix: (Units=GPa)
#
#
# Indices 1 2 3 4 5 6 
#
# 1 84.0836 70.1780 48.6016 0.0000 0.0000 0.0000
# 2 70.1780 125.7918 68.6878 0.0000 0.0000 0.0000
# 3 48.6016 68.6878 70.4413 0.0000 0.0000 0.0000
# 4 0.0000 0.0000 0.0000 39.7219 0.0000 0.0000
# 5 0.0000 0.0000 0.0000 0.0000 31.7221 0.0000
# 6 0.0000 0.0000 0.0000 0.0000 0.0000 34.7992
#
#
#
# Elastic Compliance Matrix: (Units=1/GPa)
#
#
# Indices 1 2 3 4 5 6 
#
# 1 0.023968 -0.009286 -0.007482 0.000000 0.000000 0.000000
# 2 -0.009286 0.020600 -0.013681 0.000000 0.000000 0.000000
# 3 -0.007482 -0.013681 0.032699 0.000000 0.000000 0.000000
# 4 0.000000 0.000000 0.000000 0.025175 0.000000 0.000000
# 5 0.000000 0.000000 0.000000 0.000000 0.031524 0.000000
# 6 0.000000 0.000000 0.000000 0.000000 0.000000 0.028736
#
#
# Mechanical properties :
#
#
# Convention : Reuss Voigt Hill
#
# Bulk Modulus (GPa) = 61.08892 72.80574 66.94733
# Shear Modulus (GPa) = 21.82870 27.43861 24.63366
#
# Velocity S-wave (km/s) = 3.52254 3.94933 3.74202
# Velocity P-wave (km/s) = 7.16029 7.88555 7.53165
#
# Compressibility (1/GPa) = 0.01636958
#
# Stress axis : x y z
#
# Youngs Moduli (GPa) = 41.72240 48.54264 30.58223
#
# Poissons Ratio (x) = 0.45076 0.22882
# Poissons Ratio (y) = 0.38743 0.41839
# Poissons Ratio (z) = 0.31217 0.66410
#
# Static dielectric constant tensor:
#      x y z
#    x 3.213880 0.000000 0.000000 
#    y 0.000000 3.287170 0.000000 
#    z 0.000000 0.000000 3.246110 
# 
# 
# High freq. dielectric constant tensor:
#      x y z
#    x 1.680220 0.000000 0.000000 
#    y 0.000000 1.687140 0.000000 
#    z 0.000000 0.000000 1.680350 
# 
# From -- ./inp_files/16183.got.cif
#   From: 2010.03.12/outbox.cif.g09.slc.cpg/sg63_9_cif.got.tgz:16183.got - 2010.04.10 19:34:48.
