data_PCOD8259724
_publ_section_title
;
Structure prediction by ZEFSAII (Michael W. Deem and Ramdas Pophale) SiO2 
 PCOD8259724
Probable space group: C M C M
;
_chemical_formula_sum "Si O2"
_cell_formula_units_Z 96
_cell_length_a 27.685280
_cell_length_b 9.754877
_cell_length_c 18.210314
_cell_angle_alpha 90.000000
_cell_angle_beta 90.000000
_cell_angle_gamma 90.000000
_cell_volume 4917.995786
_symmetry_space_group_name_H-M "C M C M"
_symmetry_group_IT_number 63
_symmetry_cell_setting 'orthorhombic'
loop_
_space_group_symop_operation_xyz
x,y,z
-x,-y,1/2+z
x,-y,-z
-x,y,1/2-z
-x,-y,-z
x,y,1/2-z
-x,y,z
x,-y,1/2+z
1/2+x,1/2+y,z
1/2-x,1/2-y,1/2+z
1/2+x,1/2-y,-z
1/2-x,1/2+y,1/2-z
1/2-x,1/2-y,-z
1/2+x,1/2+y,1/2-z
1/2-x,1/2+y,z
1/2+x,1/2-y,1/2+z
loop_
_atom_site_type_symbol
_atom_site_label
_atom_site_fract_x
_atom_site_fract_y
_atom_site_fract_z
Si Si1 0.289803 0.413184 0.337327
Si Si2 0.384507 0.514366 0.584996
Si Si3 0.203212 0.602116 0.337014
Si Si4 0.556324 0.751996 0.099343
Si Si5 0.598030 0.990304 0.835002
Si Si6 0.445804 0.228847 0.431444
O O1 0.292325 0.414634 0.250000
O O2 0.336279 0.493077 0.367333
O O3 0.243560 0.497102 0.367180
O O4 0.287639 0.256454 0.367114
O O5 0.370749 0.500000 0.500000
O O6 0.421818 0.398393 0.610211
O O7 0.409747 0.658848 0.600978
O O8 0.205439 0.604395 0.250000
O O9 0.151655 0.545285 0.363932
O O10 0.500000 0.748625 0.120738
O O11 0.586009 0.850316 0.153839
O O12 0.564721 0.804395 0.016415
O O13 0.592352 0.950366 0.750000
O O14 0.559497 0.907449 0.883393
O O15 0.500000 0.286025 0.424117
#
# Coordination Sequence:
#
# PCOD8259724 Si02
#       6
#    16  16  16  16  16  16
#     4  10  20  38  60  82 109 147 190 231 279 342
#     4  10  21  38  59  85 115 146 190 239 282 326
#     4   9  20  36  58  83 109 145 187 227 280 340
#     4  10  22  38  57  83 115 154 192 227 278 340
#     4  11  22  37  57  86 117 145 186 239 282 328
#     4  10  20  38  61  81 110 153 193 229 278 340
#
# _framework density 19.520146
#
# number of rings (size 3 to 8) (size 9 to 14) (size 15 to 20)
#    0.000    2.000    1.667    1.500    2.333    5.333 
#    0.000    2.500    0.000    3.000    0.000    0.000 
#    0.000    0.000    0.000    0.000    0.000    0.000 
#
# Total GULP energy -595346.997771 kJ/mol
# GULP energy per Si atom -12403.062454 kJ/mol
# Density = 1.947572 g / cm^3
# Si number density = 19.520146 Si / 1000 Ang^3
#
#
#
# Elastic Constant Matrix: (Units=GPa)
#
#
# Indices 1 2 3 4 5 6 
#
# 1 124.6166 51.5421 30.4474 0.0000 0.0000 0.0000
# 2 51.5421 106.3689 23.6119 0.0000 0.0000 0.0000
# 3 30.4474 23.6119 32.2085 0.0000 0.0000 0.0000
# 4 0.0000 0.0000 0.0000 25.3750 0.0000 0.0000
# 5 0.0000 0.0000 0.0000 0.0000 29.6247 0.0000
# 6 0.0000 0.0000 0.0000 0.0000 0.0000 41.5276
#
#
#
# Elastic Compliance Matrix: (Units=1/GPa)
#
#
# Indices 1 2 3 4 5 6 
#
# 1 0.011595 -0.003804 -0.008172 0.000000 0.000000 0.000000
# 2 -0.003804 0.012477 -0.005550 0.000000 0.000000 0.000000
# 3 -0.008172 -0.005550 0.042842 0.000000 0.000000 0.000000
# 4 0.000000 0.000000 0.000000 0.039409 0.000000 0.000000
# 5 0.000000 0.000000 0.000000 0.000000 0.033756 0.000000
# 6 0.000000 0.000000 0.000000 0.000000 0.000000 0.024080
#
#
# Mechanical properties :
#
#
# Convention : Reuss Voigt Hill
#
# Bulk Modulus (GPa) = 31.38718 52.71074 42.04896
# Shear Modulus (GPa) = 23.82873 29.81164 26.82019
#
# Velocity S-wave (km/s) = 3.49768 3.91221 3.71074
# Velocity P-wave (km/s) = 5.69438 6.88978 6.32040
#
# Compressibility (1/GPa) = 0.03186014
#
# Stress axis : x y z
#
# Youngs Moduli (GPa) = 86.24624 80.14911 23.34184
#
# Poissons Ratio (x) = 0.30492 0.19074
# Poissons Ratio (y) = 0.32811 0.12955
# Poissons Ratio (z) = 0.70478 0.44485
#
# Static dielectric constant tensor:
#      x y z
#    x 3.614550 0.000000 0.000000 
#    y 0.000000 3.643720 0.000000 
#    z 0.000000 0.000000 3.272300 
# 
# 
# High freq. dielectric constant tensor:
#      x y z
#    x 1.769510 0.000000 0.000000 
#    y 0.000000 1.769240 0.000000 
#    z 0.000000 0.000000 1.732910 
# 
# From -- ./inp_files/58040.got.cif
#   From: 2010.03.12/outbox.cif.g09.slc.cpg/sg63_30_cif.got.tgz:58040.got - 2010.04.10 19:34:48.
