data_PCOD8259906
_publ_section_title
;
Structure prediction by ZEFSAII (Michael W. Deem and Ramdas Pophale) SiO2 
 PCOD8259906
Probable space group: C M C M
;
_chemical_formula_sum "Si O2"
_cell_formula_units_Z 96
_cell_length_a 23.414141
_cell_length_b 20.143275
_cell_length_c 10.338458
_cell_angle_alpha 90.000000
_cell_angle_beta 90.000000
_cell_angle_gamma 90.000000
_cell_volume 4876.004289
_symmetry_space_group_name_H-M "C M C M"
_symmetry_group_IT_number 63
_symmetry_cell_setting 'orthorhombic'
loop_
_space_group_symop_operation_xyz
x,y,z
-x,-y,1/2+z
x,-y,-z
-x,y,1/2-z
-x,-y,-z
x,y,1/2-z
-x,y,z
x,-y,1/2+z
1/2+x,1/2+y,z
1/2-x,1/2-y,1/2+z
1/2+x,1/2-y,-z
1/2-x,1/2+y,1/2-z
1/2-x,1/2-y,-z
1/2+x,1/2+y,1/2-z
1/2-x,1/2+y,z
1/2+x,1/2-y,1/2+z
loop_
_atom_site_type_symbol
_atom_site_label
_atom_site_fract_x
_atom_site_fract_y
_atom_site_fract_z
Si Si1 0.112596 0.551581 0.893690
Si Si2 0.935811 0.316431 0.012433
Si Si3 0.773764 0.621647 0.897325
Si Si4 0.065183 0.169935 0.395207
Si Si5 0.676037 0.210178 0.390059
Si Si6 0.848396 0.862311 0.393537
O O1 0.104283 0.521381 0.750000
O O2 0.179870 0.563998 0.921789
O O3 0.089114 0.500000 0.000000
O O4 0.076693 0.619844 0.898268
O O5 0.889806 0.315329 0.897326
O O6 0.000000 0.319867 0.955928
O O7 0.927010 0.249218 0.095104
O O8 0.780219 0.648405 0.750000
O O9 0.708956 0.593615 0.919389
O O10 0.785540 0.682015 0.995112
O O11 0.082694 0.148677 0.250000
O O12 0.103479 0.128267 0.497197
O O13 0.000000 0.150070 0.424445
O O14 0.699448 0.186453 0.250000
O O15 0.677402 0.288878 0.398625
O O16 0.874272 0.877367 0.250000
#
# Coordination Sequence:
#
# PCOD8259906 Si02
#       6
#    16  16  16  16  16  16
#     4  10  21  35  49  64  84 112 150 198 243 275
#     4   9  18  32  48  64  86 120 157 188 223 269
#     4   9  18  32  47  62  84 115 146 178 222 276
#     4   9  17  29  46  69  96 124 152 179 209 253
#     4   9  17  27  42  67  92 112 140 182 224 260
#     4   9  17  28  43  65  91 118 147 175 210 261
#
# _framework density 19.688251999999999
#
# number of rings (size 3 to 8) (size 9 to 14) (size 15 to 20)
#    0.000    2.833    0.000    1.000    0.000    9.333 
#    0.000    3.333    0.000    0.000    0.000    0.000 
#    0.000    0.667    0.000    1.500    0.000    2.667 
#
# Total GULP energy -594767.233624 kJ/mol
# GULP energy per Si atom -12390.984034 kJ/mol
# Density = 1.964344 g / cm^3
# Si number density = 19.688252 Si / 1000 Ang^3
#
#
#
# Elastic Constant Matrix: (Units=GPa)
#
#
# Indices 1 2 3 4 5 6 
#
# 1 101.9623 0.5435 33.5462 0.0000 0.0000 0.0000
# 2 0.5435 9.4482 -3.8273 0.0000 0.0000 0.0000
# 3 33.5462 -3.8273 104.3636 0.0000 0.0000 0.0000
# 4 0.0000 0.0000 0.0000 12.1652 0.0000 0.0000
# 5 0.0000 0.0000 0.0000 0.0000 29.5872 0.0000
# 6 0.0000 0.0000 0.0000 0.0000 0.0000 13.7826
#
#
#
# Elastic Compliance Matrix: (Units=1/GPa)
#
#
# Indices 1 2 3 4 5 6 
#
# 1 0.011008 -0.002098 -0.003615 0.000000 0.000000 0.000000
# 2 -0.002098 0.107836 0.004629 0.000000 0.000000 0.000000
# 3 -0.003615 0.004629 0.010914 0.000000 0.000000 0.000000
# 4 0.000000 0.000000 0.000000 0.082202 0.000000 0.000000
# 5 0.000000 0.000000 0.000000 0.000000 0.033798 0.000000
# 6 0.000000 0.000000 0.000000 0.000000 0.000000 0.072555
#
#
# Mechanical properties :
#
#
# Convention : Reuss Voigt Hill
#
# Bulk Modulus (GPa) = 7.83761 30.69989 19.26875
# Shear Modulus (GPa) = 13.77365 23.47443 18.62404
#
# Velocity S-wave (km/s) = 2.64784 3.45672 3.07896
# Velocity P-wave (km/s) = 3.65207 5.61772 4.73795
#
# Compressibility (1/GPa) = 0.12758984
#
# Stress axis : x y z
#
# Youngs Moduli (GPa) = 90.84126 9.27332 91.62753
#
# Poissons Ratio (x) = 0.01945 0.33127
# Poissons Ratio (y) = 0.19057 -0.42414
# Poissons Ratio (z) = 0.32842 -0.04293
#
# Static dielectric constant tensor:
#      x y z
#    x 3.744740 0.000000 0.000000 
#    y 0.000000 3.004180 0.000000 
#    z 0.000000 0.000000 3.637710 
# 
# 
# High freq. dielectric constant tensor:
#      x y z
#    x 1.772030 0.000000 0.000000 
#    y 0.000000 1.701600 0.000000 
#    z 0.000000 0.000000 1.770020 
# 
# From -- ./inp_files/23896.got.cif
#   From: 2010.03.12/outbox.cif.g09.slc.cpg/sg63_12_cif.got.tgz:23896.got - 2010.04.10 19:34:48.
