data_PCOD8259201
_publ_section_title
;
Structure prediction by ZEFSAII (Michael W. Deem and Ramdas Pophale) SiO2 
 PCOD8259201
Probable space group: C M C M
;
_chemical_formula_sum "Si O2"
_cell_formula_units_Z 112
_cell_length_a 30.607104
_cell_length_b 12.035448
_cell_length_c 14.617885
_cell_angle_alpha 90.000000
_cell_angle_beta 90.000000
_cell_angle_gamma 90.000000
_cell_volume 5384.793347
_symmetry_space_group_name_H-M "C M C M"
_symmetry_group_IT_number 63
_symmetry_cell_setting 'orthorhombic'
loop_
_space_group_symop_operation_xyz
x,y,z
-x,-y,1/2+z
x,-y,-z
-x,y,1/2-z
-x,-y,-z
x,y,1/2-z
-x,y,z
x,-y,1/2+z
1/2+x,1/2+y,z
1/2-x,1/2-y,1/2+z
1/2+x,1/2-y,-z
1/2-x,1/2+y,1/2-z
1/2-x,1/2-y,-z
1/2+x,1/2+y,1/2-z
1/2-x,1/2+y,z
1/2+x,1/2-y,1/2+z
loop_
_atom_site_type_symbol
_atom_site_label
_atom_site_fract_x
_atom_site_fract_y
_atom_site_fract_z
Si Si1 0.816346 0.641607 0.350451
Si Si2 0.948669 0.282831 0.650218
Si Si3 0.722680 0.537762 0.357888
Si Si4 0.450515 0.796262 0.352601
Si Si5 0.291140 0.676073 0.975959
Si Si6 0.448048 0.622260 0.000600
Si Si7 0.101697 0.488214 0.897865
O O1 0.811722 0.697638 0.250000
O O2 0.772933 0.571439 0.371175
O O3 0.825183 0.736909 0.428157
O O4 0.856546 0.555780 0.343242
O O5 0.926656 0.273651 0.750000
O O6 0.930224 0.181883 0.590275
O O7 0.937612 0.399835 0.604378
O O8 0.000000 0.274668 0.657727
O O9 0.708076 0.546498 0.250000
O O10 0.719031 0.413226 0.396303
O O11 0.693925 0.617905 0.427377
O O12 0.451531 0.751186 0.250000
O O13 0.500000 0.831204 0.383582
O O14 0.432643 0.694002 0.412636
O O15 0.417035 0.898085 0.357523
O O16 0.250000 0.750000 0.000000
O O17 0.500000 0.613105 0.000569
O O18 0.426617 0.500000 0.000000
O O19 0.118273 0.500000 0.000000
#
# Coordination Sequence:
#
# PCOD8259201 Si02
#       7
#    16  16  16  16  16  16  16
#     4  10  21  35  55  85 119 150 187 231 289 349
#     4  10  20  35  56  82 111 149 197 244 291 345
#     4   9  18  34  58  87 113 147 191 238 286 344
#     4  10  20  35  56  83 116 155 197 244 297 351
#     4   9  18  32  56  81 114 148 186 234 277 345
#     4   9  18  33  53  80 108 139 186 240 288 338
#     4  12  23  34  56  81 119 155 190 238 295 353
#
# _framework density 20.799313999999999
#
# number of rings (size 3 to 8) (size 9 to 14) (size 15 to 20)
#    0.000    2.143    1.429    2.143    4.000    2.857 
#    0.000    2.857    3.143    0.000    0.000    0.000 
#    0.000    0.000    0.000    0.000    0.000    0.000 
#
# Total GULP energy -693808.028801 kJ/mol
# GULP energy per Si atom -12389.429086 kJ/mol
# Density = 2.075197 g / cm^3
# Si number density = 20.799314 Si / 1000 Ang^3
#
#
#
# Elastic Constant Matrix: (Units=GPa)
#
#
# Indices 1 2 3 4 5 6 
#
# 1 39.6124 27.8163 23.2136 0.0000 0.0000 0.0000
# 2 27.8163 158.9777 69.1635 0.0000 0.0000 0.0000
# 3 23.2136 69.1635 143.0476 0.0000 0.0000 0.0000
# 4 0.0000 0.0000 0.0000 -2.3298 0.0000 0.0000
# 5 0.0000 0.0000 0.0000 0.0000 16.6194 0.0000
# 6 0.0000 0.0000 0.0000 0.0000 0.0000 5.0016
#
#
#
# Elastic Compliance Matrix: (Units=1/GPa)
#
#
# Indices 1 2 3 4 5 6 
#
# 1 0.029716 -0.003928 -0.002923 0.000000 0.000000 0.000000
# 2 -0.003928 0.008485 -0.003465 0.000000 0.000000 0.000000
# 3 -0.002923 -0.003465 0.009140 0.000000 0.000000 0.000000
# 4 0.000000 0.000000 0.000000 -0.429224 0.000000 0.000000
# 5 0.000000 0.000000 0.000000 0.000000 0.060171 0.000000
# 6 0.000000 0.000000 0.000000 0.000000 0.000000 0.199938
#
#
# Mechanical properties :
#
#
# Convention : Reuss Voigt Hill
#
# Bulk Modulus (GPa) = 37.44032 64.66939 51.05485
# Shear Modulus (GPa) = -54.20686 18.62118 -17.79284
#
# Velocity S-wave (km/s) = -5.11062 2.99537 -2.92799
# Velocity P-wave (km/s) = 4.09692 6.56678 3.62890
#
# Compressibility (1/GPa) = 0.02670918
#
# Stress axis : x y z
#
# Youngs Moduli (GPa) = 33.65227 117.85667 109.40413
#
# Poissons Ratio (x) = 0.46289 0.31982
# Poissons Ratio (y) = 0.13217 0.37909
# Poissons Ratio (z) = 0.09837 0.40838
#
# Static dielectric constant tensor:
#      x y z
#    x 3.298920 0.000000 0.000000 
#    y 0.000000 3.986990 0.000000 
#    z 0.000000 0.000000 4.356950 
# 
# 
# High freq. dielectric constant tensor:
#      x y z
#    x 1.771870 0.000000 0.000000 
#    y 0.000000 1.814050 0.000000 
#    z 0.000000 0.000000 1.835080 
# 
# From -- ./inp_files/38535.got.cif
#   From: 2010.03.12/outbox.cif.g09.slc.cpg/sg63_20_cif.got.tgz:38535.got - 2010.04.10 19:34:48.
