data_PCOD8259249
_publ_section_title
;
Structure prediction by ZEFSAII (Michael W. Deem and Ramdas Pophale) SiO2 
 PCOD8259249
Probable space group: C M C M
;
_chemical_formula_sum "Si O2"
_cell_formula_units_Z 96
_cell_length_a 12.989556
_cell_length_b 19.423692
_cell_length_c 20.578211
_cell_angle_alpha 90.000000
_cell_angle_beta 90.000000
_cell_angle_gamma 90.000000
_cell_volume 5191.988304
_symmetry_space_group_name_H-M "C M C M"
_symmetry_group_IT_number 63
_symmetry_cell_setting 'orthorhombic'
loop_
_space_group_symop_operation_xyz
x,y,z
-x,-y,1/2+z
x,-y,-z
-x,y,1/2-z
-x,-y,-z
x,y,1/2-z
-x,y,z
x,-y,1/2+z
1/2+x,1/2+y,z
1/2-x,1/2-y,1/2+z
1/2+x,1/2-y,-z
1/2-x,1/2+y,1/2-z
1/2-x,1/2-y,-z
1/2+x,1/2+y,1/2-z
1/2-x,1/2+y,z
1/2+x,1/2-y,1/2+z
loop_
_atom_site_type_symbol
_atom_site_label
_atom_site_fract_x
_atom_site_fract_y
_atom_site_fract_z
Si Si1 0.751658 0.785850 0.098596
Si Si2 0.883141 0.033772 0.433627
Si Si3 0.117904 0.673111 0.326551
Si Si4 0.883930 0.184759 0.479988
Si Si5 0.777973 0.469964 0.824605
Si Si6 0.114242 0.389528 0.175402
O O1 0.820922 0.734979 0.140773
O O2 0.660606 0.745730 0.063208
O O3 0.701083 0.844409 0.141758
O O4 0.822135 0.824933 0.046587
O O5 0.878407 0.115696 0.438390
O O6 0.817666 0.011730 0.371042
O O7 0.000000 0.007646 0.422551
O O8 0.839097 0.000000 0.500000
O O9 0.123812 0.683604 0.250000
O O10 0.168297 0.600679 0.347092
O O11 0.000000 0.673866 0.350834
O O12 0.000000 0.204278 0.498107
O O13 0.738471 0.464999 0.750000
O O14 0.861756 0.529814 0.832216
O O15 0.115120 0.367344 0.250000
O O16 0.000000 0.376655 0.146050
#
# Coordination Sequence:
#
# PCOD8259249 Si02
#       6
#    16  16  16  16  16  16
#     4  11  20  35  57  80 112 146 187 235 275 336
#     4  10  20  36  57  81 113 151 192 234 287 344
#     4  10  20  35  57  84 113 148 189 234 285 336
#     4  10  21  35  53  78 110 150 187 228 280 332
#     4  10  20  37  59  83 114 149 190 236 287 342
#     4  10  21  37  58  83 111 145 183 228 285 342
#
# _framework density 18.490026
#
# number of rings (size 3 to 8) (size 9 to 14) (size 15 to 20)
#    0.000    1.833    1.667    3.000    0.000    2.333 
#    0.000    0.833    0.000    4.000    0.000    0.000 
#    0.000    0.000    0.000    0.000    0.000    0.000 
#
# Total GULP energy -595306.379204 kJ/mol
# GULP energy per Si atom -12402.216233 kJ/mol
# Density = 1.844794 g / cm^3
# Si number density = 18.490026 Si / 1000 Ang^3
#
#
#
# Elastic Constant Matrix: (Units=GPa)
#
#
# Indices 1 2 3 4 5 6 
#
# 1 110.7548 23.1878 46.9713 0.0000 0.0000 0.0000
# 2 23.1878 55.1694 18.5945 0.0000 0.0000 0.0000
# 3 46.9713 18.5945 70.0197 0.0000 0.0000 0.0000
# 4 0.0000 0.0000 0.0000 23.5587 0.0000 0.0000
# 5 0.0000 0.0000 0.0000 0.0000 22.0673 0.0000
# 6 0.0000 0.0000 0.0000 0.0000 0.0000 27.8216
#
#
#
# Elastic Compliance Matrix: (Units=1/GPa)
#
#
# Indices 1 2 3 4 5 6 
#
# 1 0.012994 -0.002771 -0.007981 0.000000 0.000000 0.000000
# 2 -0.002771 0.020499 -0.003585 0.000000 0.000000 0.000000
# 3 -0.007981 -0.003585 0.020587 0.000000 0.000000 0.000000
# 4 0.000000 0.000000 0.000000 0.042447 0.000000 0.000000
# 5 0.000000 0.000000 0.000000 0.000000 0.045316 0.000000
# 6 0.000000 0.000000 0.000000 0.000000 0.000000 0.035943
#
#
# Mechanical properties :
#
#
# Convention : Reuss Voigt Hill
#
# Bulk Modulus (GPa) = 39.35963 45.93899 42.64931
# Shear Modulus (GPa) = 23.26356 24.50222 23.88289
#
# Velocity S-wave (km/s) = 3.55091 3.64422 3.59787
# Velocity P-wave (km/s) = 6.17618 6.52735 6.35419
#
# Compressibility (1/GPa) = 0.02540674
#
# Stress axis : x y z
#
# Youngs Moduli (GPa) = 76.95987 48.78293 48.57383
#
# Poissons Ratio (x) = 0.13520 0.38765
# Poissons Ratio (y) = 0.21329 0.17411
# Poissons Ratio (z) = 0.61419 0.17486
#
# Static dielectric constant tensor:
#      x y z
#    x 3.489520 0.000000 0.000000 
#    y 0.000000 3.324430 0.000000 
#    z 0.000000 0.000000 3.360930 
# 
# 
# High freq. dielectric constant tensor:
#      x y z
#    x 1.724530 0.000000 0.000000 
#    y 0.000000 1.723690 0.000000 
#    z 0.000000 0.000000 1.713770 
# 
# From -- ./inp_files/52844.got.cif
#   From: 2010.03.12/outbox.cif.g09.slc.cpg/sg63_27_cif.got.tgz:52844.got - 2010.04.10 19:34:48.
