data_PCOD8259608
_publ_section_title
;
Structure prediction by ZEFSAII (Michael W. Deem and Ramdas Pophale) SiO2 
 PCOD8259608
Probable space group: C M C M
;
_chemical_formula_sum "Si O2"
_cell_formula_units_Z 64
_cell_length_a 13.676054
_cell_length_b 16.417626
_cell_length_c 13.954863
_cell_angle_alpha 90.000000
_cell_angle_beta 90.000000
_cell_angle_gamma 90.000000
_cell_volume 3133.262221
_symmetry_space_group_name_H-M "C M C M"
_symmetry_group_IT_number 63
_symmetry_cell_setting 'orthorhombic'
loop_
_space_group_symop_operation_xyz
x,y,z
-x,-y,1/2+z
x,-y,-z
-x,y,1/2-z
-x,-y,-z
x,y,1/2-z
-x,y,z
x,-y,1/2+z
1/2+x,1/2+y,z
1/2-x,1/2-y,1/2+z
1/2+x,1/2-y,-z
1/2-x,1/2+y,1/2-z
1/2-x,1/2-y,-z
1/2+x,1/2+y,1/2-z
1/2-x,1/2+y,z
1/2+x,1/2-y,1/2+z
loop_
_atom_site_type_symbol
_atom_site_label
_atom_site_fract_x
_atom_site_fract_y
_atom_site_fract_z
Si Si1 0.887560 0.226171 0.357296
Si Si2 0.606582 0.543595 0.100709
Si Si3 0.815832 0.472503 0.855434
Si Si4 0.113605 0.622199 0.972464
O O1 0.839550 0.223064 0.250000
O O2 0.876017 0.140225 0.410543
O O3 0.840639 0.296354 0.424616
O O4 0.000000 0.250256 0.344541
O O5 0.500000 0.529317 0.152062
O O6 0.699661 0.507675 0.156878
O O7 0.604177 0.500000 0.000000
O O8 0.857908 0.452094 0.750000
O O9 0.873081 0.549417 0.896896
O O10 0.830056 0.396319 0.927803
O O11 0.000000 0.631754 0.997936
#
# Coordination Sequence:
#
# PCOD8259608 Si02
#       4
#    16  16  16  16
#     4   9  18  34  58  84 110 147 191 230 272 329
#     4  10  20  37  58  80 109 144 184 232 282 330
#     4  11  21  35  55  84 115 148 186 227 283 337
#     4  10  21  37  56  83 114 148 190 233 274 325
#
# _framework density 20.425996000000001
#
# number of rings (size 3 to 8) (size 9 to 14) (size 15 to 20)
#    0.000    2.000    2.500    3.000    0.000    5.500 
#    0.000    0.000    0.000    1.500    0.000   14.000 
#    0.000    0.000    0.000    0.000    0.000    0.000 
#
# Total GULP energy -396464.427162 kJ/mol
# GULP energy per Si atom -12389.513349 kJ/mol
# Density = 2.037951 g / cm^3
# Si number density = 20.425996 Si / 1000 Ang^3
#
#
#
# Elastic Constant Matrix: (Units=GPa)
#
#
# Indices 1 2 3 4 5 6 
#
# 1 73.3935 -0.4115 16.4832 0.0000 0.0000 0.0000
# 2 -0.4115 103.1108 68.2228 0.0000 0.0000 0.0000
# 3 16.4832 68.2228 171.8866 0.0000 0.0000 0.0000
# 4 0.0000 0.0000 0.0000 17.4047 0.0000 0.0000
# 5 0.0000 0.0000 0.0000 0.0000 4.7790 0.0000
# 6 0.0000 0.0000 0.0000 0.0000 0.0000 10.4187
#
#
#
# Elastic Compliance Matrix: (Units=1/GPa)
#
#
# Indices 1 2 3 4 5 6 
#
# 1 0.014050 0.001285 -0.001857 0.000000 0.000000 0.000000
# 2 0.001285 0.013270 -0.005390 0.000000 0.000000 0.000000
# 3 -0.001857 -0.005390 0.008135 0.000000 0.000000 0.000000
# 4 0.000000 0.000000 0.000000 0.057456 0.000000 0.000000
# 5 0.000000 0.000000 0.000000 0.000000 0.209250 0.000000
# 6 0.000000 0.000000 0.000000 0.000000 0.000000 0.095982
#
#
# Mechanical properties :
#
#
# Convention : Reuss Voigt Hill
#
# Bulk Modulus (GPa) = 42.49950 57.44221 49.97086
# Shear Modulus (GPa) = 11.96428 24.12688 18.04558
#
# Velocity S-wave (km/s) = 2.42283 3.44057 2.97553
# Velocity P-wave (km/s) = 5.35523 6.63072 6.02682
#
# Compressibility (1/GPa) = 0.02352969
#
# Stress axis : x y z
#
# Youngs Moduli (GPa) = 71.17681 75.35935 122.92191
#
# Poissons Ratio (x) = -0.09683 0.22830
# Poissons Ratio (y) = -0.09146 0.66256
# Poissons Ratio (z) = 0.13220 0.40619
#
# Static dielectric constant tensor:
#      x y z
#    x 3.971460 0.000000 0.000000 
#    y 0.000000 3.641400 0.000000 
#    z 0.000000 0.000000 3.913150 
# 
# 
# High freq. dielectric constant tensor:
#      x y z
#    x 1.792720 0.000000 0.000000 
#    y 0.000000 1.783820 0.000000 
#    z 0.000000 0.000000 1.793730 
# 
# From -- ./inp_files/31089.got.cif
#   From: 2010.03.12/outbox.cif.g09.slc.cpg/sg63_16_cif.got.tgz:31089.got - 2010.04.10 19:34:48.
