data_PCOD8259818
_publ_section_title
;
Structure prediction by ZEFSAII (Michael W. Deem and Ramdas Pophale) SiO2 
 PCOD8259818
Probable space group: C M C M
;
_chemical_formula_sum "Si O2"
_cell_formula_units_Z 96
_cell_length_a 20.063381
_cell_length_b 15.324569
_cell_length_c 15.196328
_cell_angle_alpha 90.000000
_cell_angle_beta 90.000000
_cell_angle_gamma 90.000000
_cell_volume 4672.303528
_symmetry_space_group_name_H-M "C M C M"
_symmetry_group_IT_number 63
_symmetry_cell_setting 'orthorhombic'
loop_
_space_group_symop_operation_xyz
x,y,z
-x,-y,1/2+z
x,-y,-z
-x,y,1/2-z
-x,-y,-z
x,y,1/2-z
-x,y,z
x,-y,1/2+z
1/2+x,1/2+y,z
1/2-x,1/2-y,1/2+z
1/2+x,1/2-y,-z
1/2-x,1/2+y,1/2-z
1/2-x,1/2-y,-z
1/2+x,1/2+y,1/2-z
1/2-x,1/2+y,z
1/2+x,1/2-y,1/2+z
loop_
_atom_site_type_symbol
_atom_site_label
_atom_site_fract_x
_atom_site_fract_y
_atom_site_fract_z
Si Si1 0.893036 0.190873 0.148395
Si Si2 0.753765 0.332538 0.849249
Si Si3 0.316427 0.341826 0.352128
Si Si4 0.793421 0.518090 0.597926
Si Si5 0.075216 0.606707 0.850778
Si Si6 0.426495 0.594741 0.517320
O O1 0.906603 0.159641 0.250000
O O2 0.820141 0.164052 0.111225
O O3 0.905815 0.292863 0.141248
O O4 0.937949 0.143372 0.076318
O O5 0.742736 0.302232 0.750000
O O6 0.794915 0.252722 0.891336
O O7 0.790651 0.425294 0.852751
O O8 0.338230 0.338784 0.250000
O O9 0.255783 0.410947 0.359629
O O10 0.380385 0.360898 0.410388
O O11 0.768967 0.500000 0.500000
O O12 0.869954 0.550579 0.597103
O O13 0.078328 0.576654 0.750000
O O14 0.000000 0.590736 0.887893
O O15 0.395328 0.500000 0.500000
O O16 0.500000 0.587185 0.559847
#
# Coordination Sequence:
#
# PCOD8259818 Si02
#       6
#    16  16  16  16  16  16
#     4  10  20  39  66  94 121 161 214 266 318 371
#     4  10  21  37  62  91 120 157 209 262 312 375
#     4  11  23  42  65  88 123 170 214 264 320 375
#     4  12  24  37  62  97 127 162 204 264 325 385
#     4  10  21  39  62  88 125 169 211 261 318 380
#     4  11  25  41  59  90 128 165 210 265 322 380
#
# _framework density 20.546610000000001
#
# number of rings (size 3 to 8) (size 9 to 14) (size 15 to 20)
#    0.000    1.333    1.667    4.500    2.333    5.000 
#    0.000    2.500    0.000    1.000    0.000    0.000 
#    0.000    0.000    0.000    0.000    0.000    0.000 
#
# Total GULP energy -594974.690586 kJ/mol
# GULP energy per Si atom -12395.306054 kJ/mol
# Density = 2.049985 g / cm^3
# Si number density = 20.546610 Si / 1000 Ang^3
#
#
#
# Elastic Constant Matrix: (Units=GPa)
#
#
# Indices 1 2 3 4 5 6 
#
# 1 116.1072 42.6889 27.1315 0.0000 0.0000 0.0000
# 2 42.6889 128.5950 23.4063 0.0000 0.0000 0.0000
# 3 27.1315 23.4063 83.0538 0.0000 0.0000 0.0000
# 4 0.0000 0.0000 0.0000 23.7529 0.0000 0.0000
# 5 0.0000 0.0000 0.0000 0.0000 20.5870 0.0000
# 6 0.0000 0.0000 0.0000 0.0000 0.0000 -13.3357
#
#
#
# Elastic Compliance Matrix: (Units=1/GPa)
#
#
# Indices 1 2 3 4 5 6 
#
# 1 0.010290 -0.002956 -0.002529 0.000000 0.000000 0.000000
# 2 -0.002956 0.009046 -0.001584 0.000000 0.000000 0.000000
# 3 -0.002529 -0.001584 0.013313 0.000000 0.000000 0.000000
# 4 0.000000 0.000000 0.000000 0.042100 0.000000 0.000000
# 5 0.000000 0.000000 0.000000 0.000000 0.048574 0.000000
# 6 0.000000 0.000000 0.000000 0.000000 0.000000 -0.074987
#
#
# Mechanical properties :
#
#
# Convention : Reuss Voigt Hill
#
# Bulk Modulus (GPa) = 54.01688 57.13436 55.57562
# Shear Modulus (GPa) = 72.83995 21.83613 47.33804
#
# Velocity S-wave (km/s) = 5.96054 3.26354 4.80514
# Velocity P-wave (km/s) = 8.58590 6.48602 7.60875
#
# Compressibility (1/GPa) = 0.01851273
#
# Stress axis : x y z
#
# Youngs Moduli (GPa) = 97.17843 110.54815 75.11602
#
# Poissons Ratio (x) = 0.32676 0.18994
# Poissons Ratio (y) = 0.28724 0.11896
# Poissons Ratio (z) = 0.24572 0.17508
#
# Static dielectric constant tensor:
#      x y z
#    x 3.772480 0.000000 0.000000 
#    y 0.000000 3.741890 0.000000 
#    z 0.000000 0.000000 3.512230 
# 
# 
# High freq. dielectric constant tensor:
#      x y z
#    x 1.807820 0.000000 0.000000 
#    y 0.000000 1.806290 0.000000 
#    z 0.000000 0.000000 1.797220 
# 
# From -- ./inp_files/35360.got.cif
#   From: 2010.03.12/outbox.cif.g09.slc.cpg/sg63_18_cif.got.tgz:35360.got - 2010.04.10 19:34:48.
