data_PCOD8259997
_publ_section_title
;
Structure prediction by ZEFSAII (Michael W. Deem and Ramdas Pophale) SiO2 
 PCOD8259997
Probable space group: C M C M
;
_chemical_formula_sum "Si O2"
_cell_formula_units_Z 64
_cell_length_a 9.615327
_cell_length_b 10.039405
_cell_length_c 35.015496
_cell_angle_alpha 90.000000
_cell_angle_beta 90.000000
_cell_angle_gamma 90.000000
_cell_volume 3380.121531
_symmetry_space_group_name_H-M "C M C M"
_symmetry_group_IT_number 63
_symmetry_cell_setting 'orthorhombic'
loop_
_space_group_symop_operation_xyz
x,y,z
-x,-y,1/2+z
x,-y,-z
-x,y,1/2-z
-x,-y,-z
x,y,1/2-z
-x,y,z
x,-y,1/2+z
1/2+x,1/2+y,z
1/2-x,1/2-y,1/2+z
1/2+x,1/2-y,-z
1/2-x,1/2+y,1/2-z
1/2-x,1/2-y,-z
1/2+x,1/2+y,1/2-z
1/2-x,1/2+y,z
1/2+x,1/2-y,1/2+z
loop_
_atom_site_type_symbol
_atom_site_label
_atom_site_fract_x
_atom_site_fract_y
_atom_site_fract_z
Si Si1 0.337896 0.517215 0.043611
Si Si2 0.161234 0.720144 0.669581
Si Si3 0.160615 0.293086 0.418076
Si Si4 0.340756 0.054830 0.294038
O O1 0.500000 0.485236 0.049289
O O2 0.253001 0.417358 0.069949
O O3 0.301912 0.667294 0.055682
O O4 0.291084 0.500000 0.000000
O O5 0.195287 0.744880 0.625343
O O6 0.247442 0.820461 0.695270
O O7 0.205422 0.570789 0.680600
O O8 0.000000 0.744162 0.678890
O O9 0.000000 0.334437 0.422595
O O10 0.317942 0.017488 0.250000
O O11 0.500000 0.093327 0.302410
#
# Coordination Sequence:
#
# PCOD8259997 Si02
#       4
#    16  16  16  16
#     4  10  21  36  54  79 110 142 179 223 268 317
#     4  10  21  37  56  79 108 140 176 220 266 314
#     4  10  21  36  55  80 107 139 180 220 264 319
#     4  10  21  36  54  78 106 136 173 215 260 313
#
# _framework density 18.934229999999999
#
# number of rings (size 3 to 8) (size 9 to 14) (size 15 to 20)
#    0.000    2.000    0.000    3.000    0.000    5.000 
#    0.000    0.000    0.000    0.000    0.000    0.000 
#    0.000    0.000    0.000    0.000    0.000    0.000 
#
# Total GULP energy -397003.812130 kJ/mol
# GULP energy per Si atom -12406.369129 kJ/mol
# Density = 1.889114 g / cm^3
# Si number density = 18.934230 Si / 1000 Ang^3
#
#
#
# Elastic Constant Matrix: (Units=GPa)
#
#
# Indices 1 2 3 4 5 6 
#
# 1 59.1630 47.9140 28.1905 0.0000 0.0000 0.0000
# 2 47.9140 80.8802 21.4031 0.0000 0.0000 0.0000
# 3 28.1905 21.4031 63.8034 0.0000 0.0000 0.0000
# 4 0.0000 0.0000 0.0000 39.0082 0.0000 0.0000
# 5 0.0000 0.0000 0.0000 0.0000 29.1049 0.0000
# 6 0.0000 0.0000 0.0000 0.0000 0.0000 36.7763
#
#
#
# Elastic Compliance Matrix: (Units=1/GPa)
#
#
# Indices 1 2 3 4 5 6 
#
# 1 0.037537 -0.019587 -0.010015 0.000000 0.000000 0.000000
# 2 -0.019587 0.023789 0.000674 0.000000 0.000000 0.000000
# 3 -0.010015 0.000674 0.019872 0.000000 0.000000 0.000000
# 4 0.000000 0.000000 0.000000 0.025636 0.000000 0.000000
# 5 0.000000 0.000000 0.000000 0.000000 0.034359 0.000000
# 6 0.000000 0.000000 0.000000 0.000000 0.000000 0.027191
#
#
# Mechanical properties :
#
#
# Convention : Reuss Voigt Hill
#
# Bulk Modulus (GPa) = 42.83974 44.31800 43.57887
# Shear Modulus (GPa) = 21.36565 28.06713 24.71639
#
# Velocity S-wave (km/s) = 3.36283 3.85430 3.61693
# Velocity P-wave (km/s) = 6.14433 6.57759 6.36465
#
# Compressibility (1/GPa) = 0.02334281
#
# Stress axis : x y z
#
# Youngs Moduli (GPa) = 26.64015 42.03585 50.32247
#
# Poissons Ratio (x) = 0.82337 0.50396
# Poissons Ratio (y) = 0.52181 -0.03392
# Poissons Ratio (z) = 0.26679 -0.02834
#
# Static dielectric constant tensor:
#      x y z
#    x 3.409720 0.000000 0.000000 
#    y 0.000000 3.349100 0.000000 
#    z 0.000000 0.000000 3.597770 
# 
# 
# High freq. dielectric constant tensor:
#      x y z
#    x 1.731140 0.000000 0.000000 
#    y 0.000000 1.740730 0.000000 
#    z 0.000000 0.000000 1.751310 
# 
# From -- ./inp_files/71341.got.cif
#   From: 2010.03.12/outbox.cif.g09.slc.cpg/sg63_36_cif.got.tgz:71341.got - 2010.04.10 19:34:48.
