data_PCOD8259032
_publ_section_title
;
Structure prediction by ZEFSAII (Michael W. Deem and Ramdas Pophale) SiO2 
 PCOD8259032
Probable space group: C M C M
;
_chemical_formula_sum "Si O2"
_cell_formula_units_Z 80
_cell_length_a 9.172735
_cell_length_b 15.560519
_cell_length_c 28.455552
_cell_angle_alpha 90.000000
_cell_angle_beta 90.000000
_cell_angle_gamma 90.000000
_cell_volume 4061.532567
_symmetry_space_group_name_H-M "C M C M"
_symmetry_group_IT_number 63
_symmetry_cell_setting 'orthorhombic'
loop_
_space_group_symop_operation_xyz
x,y,z
-x,-y,1/2+z
x,-y,-z
-x,y,1/2-z
-x,-y,-z
x,y,1/2-z
-x,y,z
x,-y,1/2+z
1/2+x,1/2+y,z
1/2-x,1/2-y,1/2+z
1/2+x,1/2-y,-z
1/2-x,1/2+y,1/2-z
1/2-x,1/2-y,-z
1/2+x,1/2+y,1/2-z
1/2-x,1/2+y,z
1/2+x,1/2-y,1/2+z
loop_
_atom_site_type_symbol
_atom_site_label
_atom_site_fract_x
_atom_site_fract_y
_atom_site_fract_z
Si Si1 0.331997 0.424989 0.603931
Si Si2 0.828053 0.591713 0.611372
Si Si3 0.830894 0.837416 0.196495
Si Si4 0.335144 0.663974 0.302411
Si Si5 0.671116 0.745817 0.450800
O O1 0.500000 0.446330 0.593301
O O2 0.234457 0.505266 0.587316
O O3 0.305619 0.410050 0.659617
O O4 0.281084 0.340736 0.575782
O O5 0.757922 0.599082 0.662950
O O6 0.780099 0.672954 0.580269
O O7 0.000000 0.584267 0.616188
O O8 0.804322 0.867268 0.250000
O O9 0.776710 0.740576 0.189154
O O10 0.000000 0.841325 0.182894
O O11 0.316682 0.624830 0.250000
O O12 0.500000 0.700274 0.309648
O O13 0.500000 0.747835 0.459707
O O14 0.750000 0.750000 0.500000
#
# Coordination Sequence:
#
# PCOD8259032 Si02
#       5
#    16  16  16  16  16
#     4  10  21  39  60  88 122 156 197 242 291 353
#     4  11  23  40  61  89 121 155 197 244 294 352
#     4  10  20  34  56  87 121 158 200 241 285 343
#     4   9  17  33  58  84 117 159 196 236 288 343
#     4  10  23  43  64  86 117 153 195 245 302 357
#
# _framework density 19.696999000000002
#
# number of rings (size 3 to 8) (size 9 to 14) (size 15 to 20)
#    0.000    2.000    2.000    1.200    0.000    6.000 
#    0.000    6.000    0.000    0.000    0.000    0.000 
#    0.000    0.000    0.000    0.000    0.000    0.000 
#
# Total GULP energy -496083.897861 kJ/mol
# GULP energy per Si atom -12402.097447 kJ/mol
# Density = 1.965217 g / cm^3
# Si number density = 19.696999 Si / 1000 Ang^3
#
#
#
# Elastic Constant Matrix: (Units=GPa)
#
#
# Indices 1 2 3 4 5 6 
#
# 1 84.7375 64.3188 56.0090 0.0000 0.0000 0.0000
# 2 64.3188 146.8798 61.9745 0.0000 0.0000 0.0000
# 3 56.0090 61.9745 114.9758 0.0000 0.0000 0.0000
# 4 0.0000 0.0000 0.0000 11.6131 0.0000 0.0000
# 5 0.0000 0.0000 0.0000 0.0000 34.6282 0.0000
# 6 0.0000 0.0000 0.0000 0.0000 0.0000 36.5067
#
#
#
# Elastic Compliance Matrix: (Units=1/GPa)
#
#
# Indices 1 2 3 4 5 6 
#
# 1 0.021191 -0.006374 -0.006888 0.000000 0.000000 0.000000
# 2 -0.006374 0.010730 -0.002679 0.000000 0.000000 0.000000
# 3 -0.006888 -0.002679 0.013497 0.000000 0.000000 0.000000
# 4 0.000000 0.000000 0.000000 0.086109 0.000000 0.000000
# 5 0.000000 0.000000 0.000000 0.000000 0.028878 0.000000
# 6 0.000000 0.000000 0.000000 0.000000 0.000000 0.027392
#
#
# Mechanical properties :
#
#
# Convention : Reuss Voigt Hill
#
# Bulk Modulus (GPa) = 73.86726 79.02196 76.44461
# Shear Modulus (GPa) = 22.30256 27.50236 24.90246
#
# Velocity S-wave (km/s) = 3.36859 3.74073 3.55952
# Velocity P-wave (km/s) = 7.26038 7.67224 7.46915
#
# Compressibility (1/GPa) = 0.01353780
#
# Stress axis : x y z
#
# Youngs Moduli (GPa) = 47.18884 93.20094 74.09310
#
# Poissons Ratio (x) = 0.59402 0.51033
# Poissons Ratio (y) = 0.30076 0.19847
# Poissons Ratio (z) = 0.32502 0.24965
#
# Static dielectric constant tensor:
#      x y z
#    x 3.548570 0.000000 0.000000 
#    y 0.000000 3.509650 0.000000 
#    z 0.000000 0.000000 3.645330 
# 
# 
# High freq. dielectric constant tensor:
#      x y z
#    x 1.764670 0.000000 0.000000 
#    y 0.000000 1.762420 0.000000 
#    z 0.000000 0.000000 1.767890 
# 
# From -- ./inp_files/71593.got.cif
#   From: 2010.03.12/outbox.cif.g09.slc.cpg/sg63_36_cif.got.tgz:71593.got - 2010.04.10 19:34:48.
