data_PCOD8259231
_publ_section_title
;
Structure prediction by ZEFSAII (Michael W. Deem and Ramdas Pophale) SiO2 
 PCOD8259231
Probable space group: C M C M
;
_chemical_formula_sum "Si O2"
_cell_formula_units_Z 88
_cell_length_a 21.301535
_cell_length_b 9.547956
_cell_length_c 21.841316
_cell_angle_alpha 90.000000
_cell_angle_beta 90.000000
_cell_angle_gamma 90.000000
_cell_volume 4442.220493
_symmetry_space_group_name_H-M "C M C M"
_symmetry_group_IT_number 63
_symmetry_cell_setting 'orthorhombic'
loop_
_space_group_symop_operation_xyz
x,y,z
-x,-y,1/2+z
x,-y,-z
-x,y,1/2-z
-x,-y,-z
x,y,1/2-z
-x,y,z
x,-y,1/2+z
1/2+x,1/2+y,z
1/2-x,1/2-y,1/2+z
1/2+x,1/2-y,-z
1/2-x,1/2+y,1/2-z
1/2-x,1/2-y,-z
1/2+x,1/2+y,1/2-z
1/2-x,1/2+y,z
1/2+x,1/2-y,1/2+z
loop_
_atom_site_type_symbol
_atom_site_label
_atom_site_fract_x
_atom_site_fract_y
_atom_site_fract_z
Si Si1 0.568934 0.447656 0.250000
Si Si2 0.107351 0.719297 0.341230
Si Si3 0.201757 0.438652 0.068230
Si Si4 0.247271 0.303474 0.863320
Si Si5 0.426977 0.980274 0.250000
Si Si6 0.840387 0.791344 0.750000
Si Si7 0.067661 0.516165 0.428651
O O1 0.500000 0.516629 0.250000
O O2 0.573311 0.350542 0.310516
O O3 0.620581 0.566122 0.250000
O O4 0.180973 0.752689 0.338117
O O5 0.090548 0.572209 0.308733
O O6 0.082804 0.680753 0.409969
O O7 0.240124 0.537682 0.114686
O O8 0.232058 0.286364 0.076919
O O9 0.128905 0.425833 0.090046
O O10 0.207177 0.500000 0.000000
O O11 0.297710 0.289297 0.810010
O O12 0.500000 0.939327 0.250000
O O13 0.386401 0.839697 0.250000
O O14 0.059587 0.500000 0.500000
O O15 0.000000 0.468228 0.399305
#
# Coordination Sequence:
#
# PCOD8259231 Si02
#       7
#     8  16  16  16   8   8  16
#     4  11  22  35  52  77 114 151 180 218 274 343
#     4  10  20  35  57  80 106 144 186 225 270 328
#     4  10  21  37  57  81 110 145 185 229 276 329
#     4  11  22  36  56  82 111 146 183 226 277 330
#     4  11  22  37  58  81 108 143 186 232 272 321
#     4  12  23  36  54  82 117 146 180 228 284 338
#     4   9  17  31  53  80 106 135 180 234 277 315
#
# _framework density 19.809913000000002
#
# number of rings (size 3 to 8) (size 9 to 14) (size 15 to 20)
#    0.000    1.636    0.000    7.364    0.000    2.182 
#    0.000    0.909    0.000    0.000    0.000    0.000 
#    0.000   35.636    0.000    0.000    0.000    0.000 
#
# Total GULP energy -545121.647848 kJ/mol
# GULP energy per Si atom -12389.128360 kJ/mol
# Density = 1.976482 g / cm^3
# Si number density = 19.809913 Si / 1000 Ang^3
#
#
#
# Elastic Constant Matrix: (Units=GPa)
#
#
# Indices 1 2 3 4 5 6 
#
# 1 173.0107 53.0911 46.2867 0.0000 0.0000 0.0000
# 2 53.0911 80.2976 30.7942 0.0000 0.0000 0.0000
# 3 46.2867 30.7942 86.3609 0.0000 0.0000 0.0000
# 4 0.0000 0.0000 0.0000 15.2530 0.0000 0.0000
# 5 0.0000 0.0000 0.0000 0.0000 -11.8181 0.0000
# 6 0.0000 0.0000 0.0000 0.0000 0.0000 21.3112
#
#
#
# Elastic Compliance Matrix: (Units=1/GPa)
#
#
# Indices 1 2 3 4 5 6 
#
# 1 0.007758 -0.004095 -0.002698 0.000000 0.000000 0.000000
# 2 -0.004095 0.016588 -0.003720 0.000000 0.000000 0.000000
# 3 -0.002698 -0.003720 0.014352 0.000000 0.000000 0.000000
# 4 0.000000 0.000000 0.000000 0.065561 0.000000 0.000000
# 5 0.000000 0.000000 0.000000 0.000000 -0.084616 0.000000
# 6 0.000000 0.000000 0.000000 0.000000 0.000000 0.046924
#
#
# Mechanical properties :
#
#
# Convention : Reuss Voigt Hill
#
# Bulk Modulus (GPa) = 56.58702 66.66813 61.62757
# Shear Modulus (GPa) = 53.48545 18.91571 36.20058
#
# Velocity S-wave (km/s) = 5.20173 3.09343 4.27944
# Velocity P-wave (km/s) = 8.04390 6.81807 7.45622
#
# Compressibility (1/GPa) = 0.01767190
#
# Stress axis : x y z
#
# Youngs Moduli (GPa) = 128.89179 60.28513 69.67730
#
# Poissons Ratio (x) = 0.24687 0.18800
# Poissons Ratio (y) = 0.52781 0.25920
# Poissons Ratio (z) = 0.34776 0.22426
#
# Static dielectric constant tensor:
#      x y z
#    x 4.102900 0.000000 0.000000 
#    y 0.000000 3.375670 0.000000 
#    z 0.000000 0.000000 3.819080 
# 
# 
# High freq. dielectric constant tensor:
#      x y z
#    x 1.797820 0.000000 0.000000 
#    y 0.000000 1.740650 0.000000 
#    z 0.000000 0.000000 1.778800 
# 
# From -- ./inp_files/64473.got.cif
#   From: 2010.03.12/outbox.cif.g09.slc.cpg/sg63_33_cif.got.tgz:64473.got - 2010.04.10 19:34:48.
