data_PCOD8259622
_publ_section_title
;
Structure prediction by ZEFSAII (Michael W. Deem and Ramdas Pophale) SiO2 
 PCOD8259622
Probable space group: C M C M
;
_chemical_formula_sum "Si O2"
_cell_formula_units_Z 96
_cell_length_a 14.908954
_cell_length_b 23.868704
_cell_length_c 13.606570
_cell_angle_alpha 90.000000
_cell_angle_beta 90.000000
_cell_angle_gamma 90.000000
_cell_volume 4841.998759
_symmetry_space_group_name_H-M "C M C M"
_symmetry_group_IT_number 63
_symmetry_cell_setting 'orthorhombic'
loop_
_space_group_symop_operation_xyz
x,y,z
-x,-y,1/2+z
x,-y,-z
-x,y,1/2-z
-x,-y,-z
x,y,1/2-z
-x,y,z
x,-y,1/2+z
1/2+x,1/2+y,z
1/2-x,1/2-y,1/2+z
1/2+x,1/2-y,-z
1/2-x,1/2+y,1/2-z
1/2-x,1/2-y,-z
1/2+x,1/2+y,1/2-z
1/2-x,1/2+y,z
1/2+x,1/2-y,1/2+z
loop_
_atom_site_type_symbol
_atom_site_label
_atom_site_fract_x
_atom_site_fract_y
_atom_site_fract_z
Si Si1 0.000000 0.342519 0.988425
Si Si2 0.641764 0.441605 0.468605
Si Si3 0.000000 0.874021 0.362302
Si Si4 0.646274 0.646338 0.362306
Si Si5 0.837564 0.616358 0.140075
Si Si6 0.312645 0.011847 0.864243
Si Si7 0.500000 0.936384 0.364193
Si Si8 0.500000 0.287166 0.966317
O O1 0.912072 0.359831 0.930292
O O2 0.000000 0.277618 0.010581
O O3 0.000000 0.374770 0.090730
O O4 0.596878 0.500000 0.500000
O O5 0.587748 0.411614 0.381587
O O6 0.629920 0.406160 0.567643
O O7 0.742940 0.452290 0.429131
O O8 0.000000 0.853685 0.250000
O O9 0.000000 0.819011 0.429910
O O10 0.617391 0.632078 0.250000
O O11 0.752969 0.658986 0.365653
O O12 0.588719 0.698535 0.402555
O O13 0.877690 0.614025 0.250000
O O14 0.802949 0.554066 0.111359
O O15 0.294433 0.024238 0.750000
O O16 0.412645 0.028933 0.896973
O O17 0.500000 0.925773 0.250000
#
# Coordination Sequence:
#
# PCOD8259622 Si02
#       8
#     8  16   8  16  16  16   8   8
#     4  12  24  39  62  84 116 152 204 264 294 340
#     4  11  20  34  59  92 123 155 190 227 289 358
#     4  10  23  40  57  83 118 153 196 245 296 350
#     4  10  21  39  61  87 119 155 199 244 291 355
#     4  10  21  37  61  93 121 153 191 236 297 361
#     4  10  20  37  58  89 131 161 185 228 287 362
#     4  10  23  36  54  85 121 162 200 232 292 355
#     4  10  25  43  61  82 108 158 206 257 309 337
#
# _framework density 19.826523000000002
#
# number of rings (size 3 to 8) (size 9 to 14) (size 15 to 20)
#    0.000    1.667    1.667    2.750    0.000    4.667 
#    0.000    0.000    0.000    4.000    0.000    0.000 
#    0.000    0.000    0.000    0.000    0.000    0.000 
#
# Total GULP energy -595027.014397 kJ/mol
# GULP energy per Si atom -12396.396133 kJ/mol
# Density = 1.978140 g / cm^3
# Si number density = 19.826523 Si / 1000 Ang^3
#
#
#
# Elastic Constant Matrix: (Units=GPa)
#
#
# Indices 1 2 3 4 5 6 
#
# 1 121.2799 39.2327 45.2215 0.0000 0.0000 0.0000
# 2 39.2327 90.1826 37.8756 0.0000 0.0000 0.0000
# 3 45.2215 37.8756 126.0025 0.0000 0.0000 0.0000
# 4 0.0000 0.0000 0.0000 23.9658 0.0000 0.0000
# 5 0.0000 0.0000 0.0000 0.0000 7.8027 0.0000
# 6 0.0000 0.0000 0.0000 0.0000 0.0000 43.7773
#
#
#
# Elastic Compliance Matrix: (Units=1/GPa)
#
#
# Indices 1 2 3 4 5 6 
#
# 1 0.010340 -0.003365 -0.002700 0.000000 0.000000 0.000000
# 2 -0.003365 0.013786 -0.002936 0.000000 0.000000 0.000000
# 3 -0.002700 -0.002936 0.009788 0.000000 0.000000 0.000000
# 4 0.000000 0.000000 0.000000 0.041726 0.000000 0.000000
# 5 0.000000 0.000000 0.000000 0.000000 0.128160 0.000000
# 6 0.000000 0.000000 0.000000 0.000000 0.000000 0.022843
#
#
# Mechanical properties :
#
#
# Convention : Reuss Voigt Hill
#
# Bulk Modulus (GPa) = 62.84338 64.68052 63.76195
# Shear Modulus (GPa) = 20.00412 29.45152 24.72782
#
# Velocity S-wave (km/s) = 3.17986 3.85835 3.53542
# Velocity P-wave (km/s) = 6.72662 7.24867 6.99252
#
# Compressibility (1/GPa) = 0.01591258
#
# Stress axis : x y z
#
# Youngs Moduli (GPa) = 96.70759 72.53972 102.16680
#
# Poissons Ratio (x) = 0.24407 0.27582
# Poissons Ratio (y) = 0.32538 0.29999
# Poissons Ratio (z) = 0.26109 0.21300
#
# Static dielectric constant tensor:
#      x y z
#    x 3.985990 0.000000 0.000000 
#    y 0.000000 3.296940 0.000000 
#    z 0.000000 0.000000 3.779010 
# 
# 
# High freq. dielectric constant tensor:
#      x y z
#    x 1.786590 0.000000 0.000000 
#    y 0.000000 1.738390 0.000000 
#    z 0.000000 0.000000 1.794590 
# 
# From -- ./inp_files/32237.got.cif
#   From: 2010.03.12/outbox.cif.g09.slc.cpg/sg63_17_cif.got.tgz:32237.got - 2010.04.10 19:34:48.
