data_PCOD8259702
_publ_section_title
;
Structure prediction by ZEFSAII (Michael W. Deem and Ramdas Pophale) SiO2 
 PCOD8259702
Probable space group: C M C M
;
_chemical_formula_sum "Si O2"
_cell_formula_units_Z 96
_cell_length_a 14.123502
_cell_length_b 20.184167
_cell_length_c 17.246750
_cell_angle_alpha 90.000000
_cell_angle_beta 90.000000
_cell_angle_gamma 90.000000
_cell_volume 4916.550390
_symmetry_space_group_name_H-M "C M C M"
_symmetry_group_IT_number 63
_symmetry_cell_setting 'orthorhombic'
loop_
_space_group_symop_operation_xyz
x,y,z
-x,-y,1/2+z
x,-y,-z
-x,y,1/2-z
-x,-y,-z
x,y,1/2-z
-x,y,z
x,-y,1/2+z
1/2+x,1/2+y,z
1/2-x,1/2-y,1/2+z
1/2+x,1/2-y,-z
1/2-x,1/2+y,1/2-z
1/2-x,1/2-y,-z
1/2+x,1/2+y,1/2-z
1/2-x,1/2+y,z
1/2+x,1/2-y,1/2+z
loop_
_atom_site_type_symbol
_atom_site_label
_atom_site_fract_x
_atom_site_fract_y
_atom_site_fract_z
Si Si1 0.296115 0.259620 0.416381
Si Si2 0.797620 0.386644 0.340755
Si Si3 0.000000 0.666576 0.838513
Si Si4 0.199668 0.859877 0.662078
Si Si5 0.000000 0.189260 0.388238
Si Si6 0.185556 0.002788 0.090376
Si Si7 0.500000 0.443396 0.340643
Si Si8 0.000000 0.809708 0.436938
O O1 0.250000 0.250000 0.500000
O O2 0.259375 0.325748 0.376079
O O3 0.271239 0.197398 0.363341
O O4 0.409006 0.263840 0.423127
O O5 0.772921 0.392405 0.250000
O O6 0.768642 0.452877 0.385630
O O7 0.908998 0.378199 0.355517
O O8 0.000000 0.692435 0.750000
O O9 0.000000 0.730945 0.892850
O O10 0.222146 0.878840 0.750000
O O11 0.091826 0.835831 0.656362
O O12 0.219511 0.923423 0.609414
O O13 0.000000 0.161749 0.475703
O O14 0.091046 0.986237 0.137496
O O15 0.163391 0.000000 0.000000
O O16 0.500000 0.429291 0.250000
O O17 0.500000 0.372717 0.381604
#
# Coordination Sequence:
#
# PCOD8259702 Si02
#       8
#    16  16   8  16   8  16   8   8
#     4  12  23  41  64  93 131 173 213 261 320 382
#     4  11  22  41  66  92 125 168 218 266 316 383
#     4  10  20  37  66  97 122 160 222 276 310 361
#     4  12  24  39  63  96 132 167 213 272 327 376
#     4  12  21  38  64  94 130 162 210 270 328 371
#     4  12  25  43  63  92 131 172 213 261 325 392
#     4  12  24  41  66  95 130 170 212 262 320 387
#     4  12  24  40  66  98 130 168 216 260 310 391
#
# _framework density 19.525886
#
# number of rings (size 3 to 8) (size 9 to 14) (size 15 to 20)
#    0.000    0.333    5.000    5.500    0.000    0.667 
#    0.000    1.250    0.000    0.000    0.000    0.000 
#    0.000    0.000    0.000    0.000    0.000    0.000 
#
# Total GULP energy -595572.990382 kJ/mol
# GULP energy per Si atom -12407.770633 kJ/mol
# Density = 1.948144 g / cm^3
# Si number density = 19.525886 Si / 1000 Ang^3
#
#
#
# Elastic Constant Matrix: (Units=GPa)
#
#
# Indices 1 2 3 4 5 6 
#
# 1 128.4603 42.5071 22.7553 0.0000 0.0000 0.0000
# 2 42.5071 97.5781 2.5329 0.0000 0.0000 0.0000
# 3 22.7553 2.5329 96.0264 0.0000 0.0000 0.0000
# 4 0.0000 0.0000 0.0000 39.7492 0.0000 0.0000
# 5 0.0000 0.0000 0.0000 0.0000 -1.1987 0.0000
# 6 0.0000 0.0000 0.0000 0.0000 0.0000 -145.6586
#
#
#
# Elastic Compliance Matrix: (Units=1/GPa)
#
#
# Indices 1 2 3 4 5 6 
#
# 1 0.009519 -0.004091 -0.002148 0.000000 0.000000 0.000000
# 2 -0.004091 0.012013 0.000653 0.000000 0.000000 0.000000
# 3 -0.002148 0.000653 0.010906 0.000000 0.000000 0.000000
# 4 0.000000 0.000000 0.000000 0.025158 0.000000 0.000000
# 5 0.000000 0.000000 0.000000 0.000000 -0.834235 0.000000
# 6 0.000000 0.000000 0.000000 0.000000 0.000000 -0.006865
#
#
# Mechanical properties :
#
#
# Convention : Reuss Voigt Hill
#
# Bulk Modulus (GPa) = 47.02455 50.85060 48.93757
# Shear Modulus (GPa) = -6.53386 -4.47031 -5.50208
#
# Velocity S-wave (km/s) = -1.83126 -1.51473 -1.68046
# Velocity P-wave (km/s) = 4.43442 4.80000 4.62083
#
# Compressibility (1/GPa) = 0.02126549
#
# Stress axis : x y z
#
# Youngs Moduli (GPa) = 105.05790 83.24129 91.69661
#
# Poissons Ratio (x) = 0.34052 0.19694
# Poissons Ratio (y) = 0.42976 -0.05983
# Poissons Ratio (z) = 0.22563 -0.05432
#
# Static dielectric constant tensor:
#      x y z
#    x 3.819510 0.000000 0.000000 
#    y 0.000000 3.623580 0.000000 
#    z 0.000000 0.000000 3.653330 
# 
# 
# High freq. dielectric constant tensor:
#      x y z
#    x 1.760240 0.000000 0.000000 
#    y 0.000000 1.763410 0.000000 
#    z 0.000000 0.000000 1.776710 
# 
# From -- ./inp_files/32008.got.cif
#   From: 2010.03.12/outbox.cif.g09.slc.cpg/sg63_17_cif.got.tgz:32008.got - 2010.04.10 19:34:48.
