data_PCOD8259895
_publ_section_title
;
Structure prediction by ZEFSAII (Michael W. Deem and Ramdas Pophale) SiO2 
 PCOD8259895
Probable space group: C M C M
;
_chemical_formula_sum "Si O2"
_cell_formula_units_Z 112
_cell_length_a 29.179754
_cell_length_b 13.439157
_cell_length_c 14.083154
_cell_angle_alpha 90.000000
_cell_angle_beta 90.000000
_cell_angle_gamma 90.000000
_cell_volume 5522.727082
_symmetry_space_group_name_H-M "C M C M"
_symmetry_group_IT_number 63
_symmetry_cell_setting 'orthorhombic'
loop_
_space_group_symop_operation_xyz
x,y,z
-x,-y,1/2+z
x,-y,-z
-x,y,1/2-z
-x,-y,-z
x,y,1/2-z
-x,y,z
x,-y,1/2+z
1/2+x,1/2+y,z
1/2-x,1/2-y,1/2+z
1/2+x,1/2-y,-z
1/2-x,1/2+y,1/2-z
1/2-x,1/2-y,-z
1/2+x,1/2+y,1/2-z
1/2-x,1/2+y,z
1/2+x,1/2-y,1/2+z
loop_
_atom_site_type_symbol
_atom_site_label
_atom_site_fract_x
_atom_site_fract_y
_atom_site_fract_z
Si Si1 0.920328 0.523139 0.858023
Si Si2 0.623328 0.339998 0.463410
Si Si3 0.297800 0.207957 0.029374
Si Si4 0.326021 0.109071 0.852394
Si Si5 0.645674 0.535513 0.137195
Si Si6 0.249193 0.457218 0.855046
Si Si7 0.447479 0.164611 0.021890
O O1 0.938252 0.533453 0.750000
O O2 0.864952 0.524599 0.862641
O O3 0.938801 0.617394 0.917900
O O4 0.936544 0.418460 0.899300
O O5 0.669518 0.287887 0.420241
O O6 0.618559 0.435670 0.394374
O O7 0.626233 0.373811 0.574184
O O8 0.580995 0.264263 0.455799
O O9 0.286485 0.110341 0.087959
O O10 0.250000 0.250000 0.000000
O O11 0.329699 0.186832 0.937087
O O12 0.331918 0.163458 0.750000
O O13 0.274808 0.064304 0.857158
O O14 0.638803 0.553778 0.250000
O O15 0.699451 0.529817 0.106118
O O16 0.251958 0.411582 0.750000
O O17 0.500000 0.196680 0.029941
#
# Coordination Sequence:
#
# PCOD8259895 Si02
#       7
#    16  16  16  16  16  16  16
#     4  10  21  40  64  93 129 164 195 237 299 371
#     4  11  23  40  62  89 117 161 206 253 310 359
#     4  12  21  32  57  85 119 155 198 244 294 352
#     4  10  21  34  54  83 119 159 197 236 280 341
#     4  10  23  43  61  82 119 162 212 261 304 353
#     4  10  21  35  53  82 120 161 199 240 291 350
#     4  11  24  41  63  95 127 156 196 250 309 375
#
# _framework density 20.279834999999999
#
# number of rings (size 3 to 8) (size 9 to 14) (size 15 to 20)
#    0.000    1.429    2.857    3.000    4.000    4.000 
#    0.000    1.429    0.000    0.857    0.000    0.000 
#    0.000    0.000    0.000    0.000    0.000    0.000 
#
# Total GULP energy -694012.291454 kJ/mol
# GULP energy per Si atom -12393.076633 kJ/mol
# Density = 2.023368 g / cm^3
# Si number density = 20.279835 Si / 1000 Ang^3
#
#
#
# Elastic Constant Matrix: (Units=GPa)
#
#
# Indices 1 2 3 4 5 6 
#
# 1 112.7898 39.3603 15.9182 0.0000 0.0000 0.0000
# 2 39.3603 86.5408 24.3833 0.0000 0.0000 0.0000
# 3 15.9182 24.3833 106.7254 0.0000 0.0000 0.0000
# 4 0.0000 0.0000 0.0000 7.0152 0.0000 0.0000
# 5 0.0000 0.0000 0.0000 0.0000 14.9276 0.0000
# 6 0.0000 0.0000 0.0000 0.0000 0.0000 28.4938
#
#
#
# Elastic Compliance Matrix: (Units=1/GPa)
#
#
# Indices 1 2 3 4 5 6 
#
# 1 0.010565 -0.004661 -0.000511 0.000000 0.000000 0.000000
# 2 -0.004661 0.014407 -0.002596 0.000000 0.000000 0.000000
# 3 -0.000511 -0.002596 0.010039 0.000000 0.000000 0.000000
# 4 0.000000 0.000000 0.000000 0.142547 0.000000 0.000000
# 5 0.000000 0.000000 0.000000 0.000000 0.066990 0.000000
# 6 0.000000 0.000000 0.000000 0.000000 0.000000 0.035095
#
#
# Mechanical properties :
#
#
# Convention : Reuss Voigt Hill
#
# Bulk Modulus (GPa) = 51.34987 51.70886 51.52936
# Shear Modulus (GPa) = 16.57433 25.18026 20.87730
#
# Velocity S-wave (km/s) = 2.86191 3.52751 3.21200
# Velocity P-wave (km/s) = 6.02465 6.49185 6.26261
#
# Compressibility (1/GPa) = 0.01947425
#
# Stress axis : x y z
#
# Youngs Moduli (GPa) = 94.65452 69.41214 99.60963
#
# Poissons Ratio (x) = 0.32354 0.05088
# Poissons Ratio (y) = 0.44119 0.25861
# Poissons Ratio (z) = 0.04835 0.18021
#
# Static dielectric constant tensor:
#      x y z
#    x 3.508480 0.000000 0.000000 
#    y 0.000000 3.766730 0.000000 
#    z 0.000000 0.000000 1.844480 
# 
# 
# High freq. dielectric constant tensor:
#      x y z
#    x 1.775470 0.000000 0.000000 
#    y 0.000000 1.783130 0.000000 
#    z 0.000000 0.000000 1.796990 
# 
# From -- ./inp_files/38576.got.cif
#   From: 2010.03.12/outbox.cif.g09.slc.cpg/sg63_20_cif.got.tgz:38576.got - 2010.04.10 19:34:48.
