data_PCOD8259036
_publ_section_title
;
Structure prediction by ZEFSAII (Michael W. Deem and Ramdas Pophale) SiO2 
 PCOD8259036
Probable space group: C M C M
;
_chemical_formula_sum "Si O2"
_cell_formula_units_Z 80
_cell_length_a 13.664671
_cell_length_b 14.663441
_cell_length_c 22.751834
_cell_angle_alpha 90.000000
_cell_angle_beta 90.000000
_cell_angle_gamma 90.000000
_cell_volume 4558.809937
_symmetry_space_group_name_H-M "C M C M"
_symmetry_group_IT_number 63
_symmetry_cell_setting 'orthorhombic'
loop_
_space_group_symop_operation_xyz
x,y,z
-x,-y,1/2+z
x,-y,-z
-x,y,1/2-z
-x,-y,-z
x,y,1/2-z
-x,y,z
x,-y,1/2+z
1/2+x,1/2+y,z
1/2-x,1/2-y,1/2+z
1/2+x,1/2-y,-z
1/2-x,1/2+y,1/2-z
1/2-x,1/2-y,-z
1/2+x,1/2+y,1/2-z
1/2-x,1/2+y,z
1/2+x,1/2-y,1/2+z
loop_
_atom_site_type_symbol
_atom_site_label
_atom_site_fract_x
_atom_site_fract_y
_atom_site_fract_z
Si Si1 0.614621 0.787250 0.581706
Si Si2 0.752139 0.691740 0.316596
Si Si3 0.389233 0.531300 0.181980
Si Si4 0.229702 0.129344 0.622787
Si Si5 0.889839 0.402092 0.028645
O O1 0.500000 0.795201 0.591487
O O2 0.665046 0.840730 0.636733
O O3 0.649931 0.681870 0.582017
O O4 0.647095 0.829579 0.519692
O O5 0.790458 0.677775 0.250000
O O6 0.654439 0.632459 0.327541
O O7 0.730571 0.799574 0.327579
O O8 0.390173 0.504308 0.250000
O O9 0.500000 0.530291 0.156843
O O10 0.321689 0.458439 0.149606
O O11 0.321850 0.098196 0.585174
O O12 0.000000 0.378351 0.048941
O O13 0.885809 0.500000 0.000000
#
# Coordination Sequence:
#
# PCOD8259036 Si02
#       5
#    16  16  16  16  16
#     4   9  19  34  54  81 109 144 187 226 274 330
#     4   9  20  34  54  84 113 147 185 228 280 336
#     4  10  20  36  57  82 114 149 186 232 287 339
#     4  10  20  34  57  82 113 146 188 232 281 329
#     4  10  20  35  56  78 108 150 188 228 283 336
#
# _framework density 17.548439999999999
#
# number of rings (size 3 to 8) (size 9 to 14) (size 15 to 20)
#    1.200    1.200    0.000    3.000    0.000    1.200 
#    0.000    0.000    0.000    5.400    0.000    0.000 
#    0.000    0.000    0.000    0.000    0.000    0.000 
#
# Total GULP energy -495678.768686 kJ/mol
# GULP energy per Si atom -12391.969217 kJ/mol
# Density = 1.750850 g / cm^3
# Si number density = 17.548440 Si / 1000 Ang^3
#
#
#
# Elastic Constant Matrix: (Units=GPa)
#
#
# Indices 1 2 3 4 5 6 
#
# 1 111.5135 37.9734 64.1940 0.0000 0.0000 0.0000
# 2 37.9734 70.8885 22.8222 0.0000 0.0000 0.0000
# 3 64.1940 22.8222 62.6353 0.0000 0.0000 0.0000
# 4 0.0000 0.0000 0.0000 23.8008 0.0000 0.0000
# 5 0.0000 0.0000 0.0000 0.0000 36.6500 0.0000
# 6 0.0000 0.0000 0.0000 0.0000 0.0000 29.0840
#
#
#
# Elastic Compliance Matrix: (Units=1/GPa)
#
#
# Indices 1 2 3 4 5 6 
#
# 1 0.023628 -0.005507 -0.022209 0.000000 0.000000 0.000000
# 2 -0.005507 0.017265 -0.000647 0.000000 0.000000 0.000000
# 3 -0.022209 -0.000647 0.038963 0.000000 0.000000 0.000000
# 4 0.000000 0.000000 0.000000 0.042015 0.000000 0.000000
# 5 0.000000 0.000000 0.000000 0.000000 0.027285 0.000000
# 6 0.000000 0.000000 0.000000 0.000000 0.000000 0.034383
#
#
# Mechanical properties :
#
#
# Convention : Reuss Voigt Hill
#
# Bulk Modulus (GPa) = 43.23435 55.00183 49.11809
# Shear Modulus (GPa) = 20.16337 25.91015 23.03676
#
# Velocity S-wave (km/s) = 3.39339 3.84669 3.62712
# Velocity P-wave (km/s) = 6.32804 7.15124 6.75220
#
# Compressibility (1/GPa) = 0.02312976
#
# Stress axis : x y z
#
# Youngs Moduli (GPa) = 42.32337 57.92144 25.66544
#
# Poissons Ratio (x) = 0.31896 0.57001
# Poissons Ratio (y) = 0.23306 0.01660
# Poissons Ratio (z) = 0.93996 0.03747
#
# Static dielectric constant tensor:
#      x y z
#    x 3.196950 0.000000 0.000000 
#    y 0.000000 3.210080 0.000000 
#    z 0.000000 0.000000 3.267230 
# 
# 
# High freq. dielectric constant tensor:
#      x y z
#    x 1.674890 0.000000 0.000000 
#    y 0.000000 1.677620 0.000000 
#    z 0.000000 0.000000 1.671670 
# 
# From -- ./inp_files/61096.got.cif
#   From: 2010.03.12/outbox.cif.g09.slc.cpg/sg63_31_cif.got.tgz:61096.got - 2010.04.10 19:34:48.
