data_PCOD8259928
_publ_section_title
;
Structure prediction by ZEFSAII (Michael W. Deem and Ramdas Pophale) SiO2 
 PCOD8259928
Probable space group: C M C M
;
_chemical_formula_sum "Si O2"
_cell_formula_units_Z 80
_cell_length_a 25.833944
_cell_length_b 18.421804
_cell_length_c 8.671369
_cell_angle_alpha 90.000000
_cell_angle_beta 90.000000
_cell_angle_gamma 90.000000
_cell_volume 4126.772603
_symmetry_space_group_name_H-M "C M C M"
_symmetry_group_IT_number 63
_symmetry_cell_setting 'orthorhombic'
loop_
_space_group_symop_operation_xyz
x,y,z
-x,-y,1/2+z
x,-y,-z
-x,y,1/2-z
-x,-y,-z
x,y,1/2-z
-x,y,z
x,-y,1/2+z
1/2+x,1/2+y,z
1/2-x,1/2-y,1/2+z
1/2+x,1/2-y,-z
1/2-x,1/2+y,1/2-z
1/2-x,1/2-y,-z
1/2+x,1/2+y,1/2-z
1/2-x,1/2+y,z
1/2+x,1/2-y,1/2+z
loop_
_atom_site_type_symbol
_atom_site_label
_atom_site_fract_x
_atom_site_fract_y
_atom_site_fract_z
Si Si1 0.557147 0.666713 0.066791
Si Si2 0.347316 0.921046 0.431872
Si Si3 0.942509 0.329347 0.066655
Si Si4 0.154552 0.079012 0.066974
Si Si5 0.752695 0.170293 0.567390
O O1 0.558854 0.668538 0.250000
O O2 0.500000 0.641566 0.010306
O O3 0.568820 0.747975 0.004723
O O4 0.600006 0.610826 0.004035
O O5 0.351074 0.928211 0.250000
O O6 0.399602 0.884386 0.500403
O O7 0.299181 0.871657 0.481226
O O8 0.339556 0.000000 0.500000
O O9 0.939282 0.328372 0.250000
O O10 0.000000 0.354462 0.013268
O O11 0.155773 0.075256 0.250000
O O12 0.199259 0.131014 0.009460
O O13 0.163493 0.000000 0.000000
O O14 0.759711 0.172720 0.750000
O O15 0.750000 0.250000 0.500000
#
# Coordination Sequence:
#
# PCOD8259928 Si02
#       5
#    16  16  16  16  16
#     4   8  15  30  53  78 104 139 183 228 273 322
#     4  10  21  35  52  77 107 139 174 213 259 313
#     4   8  14  28  51  76 101 132 173 218 262 310
#     4  11  22  36  55  81 113 146 183 226 273 327
#     4  11  23  39  59  81 106 139 181 226 274 329
#
# _framework density 19.385608000000001
#
# number of rings (size 3 to 8) (size 9 to 14) (size 15 to 20)
#    0.000    2.400    0.000    4.200    0.000    7.200 
#    0.000    0.000    0.000    1.800    0.000    5.600 
#    0.000    0.000    0.000    0.000    0.000    0.000 
#
# Total GULP energy -495916.397332 kJ/mol
# GULP energy per Si atom -12397.909933 kJ/mol
# Density = 1.934149 g / cm^3
# Si number density = 19.385608 Si / 1000 Ang^3
#
#
#
# Elastic Constant Matrix: (Units=GPa)
#
#
# Indices 1 2 3 4 5 6 
#
# 1 172.8533 97.8434 40.3213 0.0000 0.0000 0.0000
# 2 97.8434 166.1317 35.4809 0.0000 0.0000 0.0000
# 3 40.3213 35.4809 37.2505 0.0000 0.0000 0.0000
# 4 0.0000 0.0000 0.0000 24.0005 0.0000 0.0000
# 5 0.0000 0.0000 0.0000 0.0000 21.0680 0.0000
# 6 0.0000 0.0000 0.0000 0.0000 0.0000 4.5082
#
#
#
# Elastic Compliance Matrix: (Units=1/GPa)
#
#
# Indices 1 2 3 4 5 6 
#
# 1 0.009755 -0.004381 -0.006386 0.000000 0.000000 0.000000
# 2 -0.004381 0.009524 -0.004329 0.000000 0.000000 0.000000
# 3 -0.006386 -0.004329 0.037881 0.000000 0.000000 0.000000
# 4 0.000000 0.000000 0.000000 0.041666 0.000000 0.000000
# 5 0.000000 0.000000 0.000000 0.000000 0.047465 0.000000
# 6 0.000000 0.000000 0.000000 0.000000 0.000000 0.221816
#
#
# Mechanical properties :
#
#
# Convention : Reuss Voigt Hill
#
# Bulk Modulus (GPa) = 37.08179 80.39186 58.73682
# Shear Modulus (GPa) = 12.27626 23.42134 17.84880
#
# Velocity S-wave (km/s) = 2.51921 3.47966 3.03764
# Velocity P-wave (km/s) = 5.25661 7.59631 6.53207
#
# Compressibility (1/GPa) = 0.02696742
#
# Stress axis : x y z
#
# Youngs Moduli (GPa) = 102.51211 104.99420 26.39819
#
# Poissons Ratio (x) = 0.46001 0.16858
# Poissons Ratio (y) = 0.44914 0.11429
# Poissons Ratio (z) = 0.65464 0.45456
#
# Static dielectric constant tensor:
#      x y z
#    x 4.044530 0.000000 0.000000 
#    y 0.000000 1.667250 0.000000 
#    z 0.000000 0.000000 3.186260 
# 
# 
# High freq. dielectric constant tensor:
#      x y z
#    x 1.776570 0.000000 0.000000 
#    y 0.000000 1.761490 0.000000 
#    z 0.000000 0.000000 1.716070 
# 
# From -- ./inp_files/12026.got.cif
#   From: 2010.03.12/outbox.cif.g09.slc.cpg/sg63_7_cif.got.tgz:12026.got - 2010.04.10 19:34:48.
