data_PCOD8259271
_publ_section_title
;
Structure prediction by ZEFSAII (Michael W. Deem and Ramdas Pophale) SiO2 
 PCOD8259271
Probable space group: C M C M
;
_chemical_formula_sum "Si O2"
_cell_formula_units_Z 112
_cell_length_a 15.281236
_cell_length_b 26.015033
_cell_length_c 13.745137
_cell_angle_alpha 90.000000
_cell_angle_beta 90.000000
_cell_angle_gamma 90.000000
_cell_volume 5464.267313
_symmetry_space_group_name_H-M "C M C M"
_symmetry_group_IT_number 63
_symmetry_cell_setting 'orthorhombic'
loop_
_space_group_symop_operation_xyz
x,y,z
-x,-y,1/2+z
x,-y,-z
-x,y,1/2-z
-x,-y,-z
x,y,1/2-z
-x,y,z
x,-y,1/2+z
1/2+x,1/2+y,z
1/2-x,1/2-y,1/2+z
1/2+x,1/2-y,-z
1/2-x,1/2+y,1/2-z
1/2-x,1/2-y,-z
1/2+x,1/2+y,1/2-z
1/2-x,1/2+y,z
1/2+x,1/2-y,1/2+z
loop_
_atom_site_type_symbol
_atom_site_label
_atom_site_fract_x
_atom_site_fract_y
_atom_site_fract_z
Si Si1 0.348698 0.357976 0.493291
Si Si2 0.684481 0.916454 0.541824
Si Si3 0.275776 0.269063 0.363205
Si Si4 0.900687 0.324214 0.862252
Si Si5 0.404782 0.279373 0.860162
Si Si6 0.405449 0.555212 0.639675
Si Si7 0.217131 0.479583 0.361268
O O1 0.277900 0.389599 0.555183
O O2 0.299706 0.319495 0.420962
O O3 0.408599 0.328897 0.570750
O O4 0.408036 0.395321 0.429368
O O5 0.610991 0.875279 0.572077
O O6 0.672974 0.936054 0.430005
O O7 0.678408 0.964855 0.614311
O O8 0.289309 0.280272 0.250000
O O9 0.335754 0.221038 0.396759
O O10 0.174535 0.257871 0.390352
O O11 0.881245 0.338468 0.750000
O O12 0.000000 0.304509 0.875609
O O13 0.389128 0.298526 0.750000
O O14 0.500000 0.251437 0.869402
O O15 0.397141 0.575246 0.750000
O O16 0.500000 0.526486 0.625111
O O17 0.322248 0.518711 0.617016
O O18 0.195678 0.465236 0.250000
#
# Coordination Sequence:
#
# PCOD8259271 Si02
#       7
#    16  16  16  16  16  16  16
#     4  11  20  34  55  83 111 150 189 233 278 330
#     4  10  20  35  58  83 111 144 188 232 287 341
#     4  10  21  38  57  81 115 153 193 236 284 336
#     4  10  21  37  59  86 114 147 190 239 288 337
#     4  10  21  35  51  75 111 154 193 227 268 324
#     4   9  18  33  54  82 113 144 185 236 285 335
#     4   9  19  36  57  80 110 150 186 229 291 350
#
# _framework density 20.496801000000001
#
# number of rings (size 3 to 8) (size 9 to 14) (size 15 to 20)
#    0.000    2.143    1.429    1.714    0.000    2.286 
#    0.000    9.286    0.000    3.000    0.000    0.000 
#    0.000    0.000    0.000    0.000    0.000    0.000 
#
# Total GULP energy -694178.173892 kJ/mol
# GULP energy per Si atom -12396.038819 kJ/mol
# Density = 2.045015 g / cm^3
# Si number density = 20.496801 Si / 1000 Ang^3
#
#
#
# Elastic Constant Matrix: (Units=GPa)
#
#
# Indices 1 2 3 4 5 6 
#
# 1 93.4819 16.4187 12.2209 0.0000 0.0000 0.0000
# 2 16.4187 55.4845 10.7558 0.0000 0.0000 0.0000
# 3 12.2209 10.7558 73.8391 0.0000 0.0000 0.0000
# 4 0.0000 0.0000 0.0000 22.5279 0.0000 0.0000
# 5 0.0000 0.0000 0.0000 0.0000 19.5207 0.0000
# 6 0.0000 0.0000 0.0000 0.0000 0.0000 13.4132
#
#
#
# Elastic Compliance Matrix: (Units=1/GPa)
#
#
# Indices 1 2 3 4 5 6 
#
# 1 0.011431 -0.003103 -0.001440 0.000000 0.000000 0.000000
# 2 -0.003103 0.019389 -0.002311 0.000000 0.000000 0.000000
# 3 -0.001440 -0.002311 0.014118 0.000000 0.000000 0.000000
# 4 0.000000 0.000000 0.000000 0.044389 0.000000 0.000000
# 5 0.000000 0.000000 0.000000 0.000000 0.051228 0.000000
# 6 0.000000 0.000000 0.000000 0.000000 0.000000 0.074554
#
#
# Mechanical properties :
#
#
# Convention : Reuss Voigt Hill
#
# Bulk Modulus (GPa) = 32.02054 33.51072 32.76563
# Shear Modulus (GPa) = 20.90071 23.31968 22.11020
#
# Velocity S-wave (km/s) = 3.19675 3.37667 3.28794
# Velocity P-wave (km/s) = 5.41126 5.62026 5.51675
#
# Compressibility (1/GPa) = 0.03122995
#
# Stress axis : x y z
#
# Youngs Moduli (GPa) = 87.48494 51.57474 70.83230
#
# Poissons Ratio (x) = 0.16006 0.10198
# Poissons Ratio (y) = 0.27150 0.16367
# Poissons Ratio (z) = 0.12596 0.11918
#
# Static dielectric constant tensor:
#      x y z
#    x 3.679810 0.000000 0.000000 
#    y 0.000000 3.492530 0.000000 
#    z 0.000000 0.000000 3.889770 
# 
# 
# High freq. dielectric constant tensor:
#      x y z
#    x 1.790080 0.000000 0.000000 
#    y 0.000000 1.777390 0.000000 
#    z 0.000000 0.000000 1.816820 
# 
# From -- ./inp_files/32348.got.cif
#   From: 2010.03.12/outbox.cif.g09.slc.cpg/sg63_17_cif.got.tgz:32348.got - 2010.04.10 19:34:48.
