data_PCOD8259868
_publ_section_title
;
Structure prediction by ZEFSAII (Michael W. Deem and Ramdas Pophale) SiO2 
 PCOD8259868
Probable space group: C M C M
;
_chemical_formula_sum "Si O2"
_cell_formula_units_Z 72
_cell_length_a 23.227402
_cell_length_b 16.725908
_cell_length_c 10.216413
_cell_angle_alpha 90.000000
_cell_angle_beta 90.000000
_cell_angle_gamma 90.000000
_cell_volume 3969.070208
_symmetry_space_group_name_H-M "C M C M"
_symmetry_group_IT_number 63
_symmetry_cell_setting 'orthorhombic'
loop_
_space_group_symop_operation_xyz
x,y,z
-x,-y,1/2+z
x,-y,-z
-x,y,1/2-z
-x,-y,-z
x,y,1/2-z
-x,y,z
x,-y,1/2+z
1/2+x,1/2+y,z
1/2-x,1/2-y,1/2+z
1/2+x,1/2-y,-z
1/2-x,1/2+y,1/2-z
1/2-x,1/2-y,-z
1/2+x,1/2+y,1/2-z
1/2-x,1/2+y,z
1/2+x,1/2-y,1/2+z
loop_
_atom_site_type_symbol
_atom_site_label
_atom_site_fract_x
_atom_site_fract_y
_atom_site_fract_z
Si Si1 0.231789 0.863224 0.102522
Si Si2 0.936017 0.747915 0.398658
Si Si3 0.817792 0.689117 0.397401
Si Si4 0.652370 0.500000 0.000000
Si Si5 0.064339 0.115818 0.106116
O O1 0.256496 0.865958 0.250000
O O2 0.196266 0.782306 0.078407
O O3 0.191387 0.939039 0.081212
O O4 0.284930 0.866900 0.000486
O O5 0.931744 0.781272 0.250000
O O6 0.886939 0.680105 0.418546
O O7 0.922283 0.819794 0.495710
O O8 0.000000 0.711913 0.425279
O O9 0.800052 0.663035 0.250000
O O10 0.611037 0.545546 0.101278
O O11 0.069587 0.155967 0.250000
O O12 0.000000 0.080565 0.086373
#
# Coordination Sequence:
#
# PCOD8259868 Si02
#       5
#    16  16  16   8  16
#     4  10  21  34  50  72  98 134 176 211 250 295
#     4   9  17  32  54  76 100 131 166 204 247 299
#     4   9  18  35  52  72  98 131 169 209 253 298
#     4  12  21  34  50  72 101 138 174 212 246 296
#     4  10  21  33  47  71 102 136 171 205 242 286
#
# _framework density 18.140269
#
# number of rings (size 3 to 8) (size 9 to 14) (size 15 to 20)
#    0.000    2.222    2.222    1.000    0.000    3.556 
#    0.000    2.222    0.000    0.000    0.000    0.778 
#    0.000    0.000    0.000    0.000    0.000    0.000 
#
# Total GULP energy -446211.187415 kJ/mol
# GULP energy per Si atom -12394.755206 kJ/mol
# Density = 1.809898 g / cm^3
# Si number density = 18.140269 Si / 1000 Ang^3
#
#
#
# Elastic Constant Matrix: (Units=GPa)
#
#
# Indices 1 2 3 4 5 6 
#
# 1 133.7201 32.9986 69.8434 0.0000 0.0000 0.0000
# 2 32.9986 30.2944 26.0456 0.0000 0.0000 0.0000
# 3 69.8434 26.0456 121.5431 0.0000 0.0000 0.0000
# 4 0.0000 0.0000 0.0000 17.2987 0.0000 0.0000
# 5 0.0000 0.0000 0.0000 0.0000 6.9016 0.0000
# 6 0.0000 0.0000 0.0000 0.0000 0.0000 32.6542
#
#
#
# Elastic Compliance Matrix: (Units=1/GPa)
#
#
# Indices 1 2 3 4 5 6 
#
# 1 0.012433 -0.009072 -0.005201 0.000000 0.000000 0.000000
# 2 -0.009072 0.047084 -0.004877 0.000000 0.000000 0.000000
# 3 -0.005201 -0.004877 0.012261 0.000000 0.000000 0.000000
# 4 0.000000 0.000000 0.000000 0.057808 0.000000 0.000000
# 5 0.000000 0.000000 0.000000 0.000000 0.144893 0.000000
# 6 0.000000 0.000000 0.000000 0.000000 0.000000 0.030624
#
#
# Mechanical properties :
#
#
# Convention : Reuss Voigt Hill
#
# Bulk Modulus (GPa) = 29.86869 60.37030 45.11949
# Shear Modulus (GPa) = 14.10192 21.81556 17.95874
#
# Velocity S-wave (km/s) = 2.79118 3.47162 3.14983
# Velocity P-wave (km/s) = 5.18544 7.03004 6.17698
#
# Compressibility (1/GPa) = 0.03347988
#
# Stress axis : x y z
#
# Youngs Moduli (GPa) = 80.42859 21.23874 81.55918
#
# Poissons Ratio (x) = 0.19268 0.42416
# Poissons Ratio (y) = 0.72965 0.39773
# Poissons Ratio (z) = 0.41828 0.10357
#
# Static dielectric constant tensor:
#      x y z
#    x 3.670100 0.000000 0.000000 
#    y 0.000000 2.804500 0.000000 
#    z 0.000000 0.000000 3.491940 
# 
# 
# High freq. dielectric constant tensor:
#      x y z
#    x 1.715600 0.000000 0.000000 
#    y 0.000000 1.635420 0.000000 
#    z 0.000000 0.000000 1.717240 
# 
# From -- ./inp_files/9878.got.cif
#   From: 2010.03.12/outbox.cif.g09.slc.cpg/sg63_5_cif.got.tgz:9878.got - 2010.04.10 19:34:48.
