data_PCOD8259716
_publ_section_title
;
Structure prediction by ZEFSAII (Michael W. Deem and Ramdas Pophale) SiO2 
 PCOD8259716
Probable space group: C M C M
;
_chemical_formula_sum "Si O2"
_cell_formula_units_Z 96
_cell_length_a 14.475630
_cell_length_b 9.927987
_cell_length_c 33.495178
_cell_angle_alpha 90.000000
_cell_angle_beta 90.000000
_cell_angle_gamma 90.000000
_cell_volume 4813.721538
_symmetry_space_group_name_H-M "C M C M"
_symmetry_group_IT_number 63
_symmetry_cell_setting 'orthorhombic'
loop_
_space_group_symop_operation_xyz
x,y,z
-x,-y,1/2+z
x,-y,-z
-x,y,1/2-z
-x,-y,-z
x,y,1/2-z
-x,y,z
x,-y,1/2+z
1/2+x,1/2+y,z
1/2-x,1/2-y,1/2+z
1/2+x,1/2-y,-z
1/2-x,1/2+y,1/2-z
1/2-x,1/2-y,-z
1/2+x,1/2+y,1/2-z
1/2-x,1/2+y,z
1/2+x,1/2-y,1/2+z
loop_
_atom_site_type_symbol
_atom_site_label
_atom_site_fract_x
_atom_site_fract_y
_atom_site_fract_z
Si Si1 0.500000 0.241582 0.794503
Si Si2 0.199081 0.482822 0.842066
Si Si3 0.500000 0.821443 0.051697
Si Si4 0.803583 0.693002 0.537003
Si Si5 0.500000 0.515487 0.451689
Si Si6 0.299911 0.737827 0.295521
Si Si7 0.500000 0.029005 0.635625
Si Si8 0.192246 0.028499 0.420980
O O1 0.500000 0.174229 0.750000
O O2 0.595644 0.326240 0.798926
O O3 0.500000 0.129144 0.827707
O O4 0.224056 0.364652 0.811676
O O5 0.201191 0.624464 0.819978
O O6 0.097154 0.447398 0.860407
O O7 0.279170 0.489531 0.875362
O O8 0.591374 0.847739 0.025266
O O9 0.500000 0.666745 0.063441
O O10 0.500000 0.903051 0.092634
O O11 0.750000 0.750000 0.500000
O O12 0.804306 0.811365 0.570176
O O13 0.762930 0.553116 0.551723
O O14 0.500000 0.500000 0.500000
O O15 0.593407 0.457298 0.431635
O O16 0.273772 0.770003 0.250000
#
# Coordination Sequence:
#
# PCOD8259716 Si02
#       8
#     8  16   8  16   8  16   8  16
#     4   8  18  34  61  88 114 155 203 237 279 353
#     4  11  22  38  63  89 120 161 206 251 296 355
#     4  10  20  38  61  82 117 161 203 245 295 364
#     4  11  22  39  60  84 116 156 201 250 309 360
#     4  10  22  38  60  86 120 156 199 251 314 368
#     4  10  21  39  62  92 125 158 199 246 299 357
#     4  10  20  38  59  85 121 165 206 236 289 366
#     4  11  22  38  60  88 116 155 202 250 301 360
#
# _framework density 19.942990000000002
#
# number of rings (size 3 to 8) (size 9 to 14) (size 15 to 20)
#    0.000    1.667    1.667    4.000    7.000    0.667 
#    0.000    7.500    0.000    0.000    0.000    0.000 
#    0.000    0.000    0.000    0.000    0.000    0.000 
#
# Total GULP energy -594656.418357 kJ/mol
# GULP energy per Si atom -12388.675382 kJ/mol
# Density = 1.989760 g / cm^3
# Si number density = 19.942990 Si / 1000 Ang^3
#
#
#
# Elastic Constant Matrix: (Units=GPa)
#
#
# Indices 1 2 3 4 5 6 
#
# 1 180.8896 36.6596 59.7286 0.0000 0.0000 0.0000
# 2 36.6596 53.8368 -1.4717 0.0000 0.0000 0.0000
# 3 59.7286 -1.4717 93.8358 0.0000 0.0000 0.0000
# 4 0.0000 0.0000 0.0000 33.0770 0.0000 0.0000
# 5 0.0000 0.0000 0.0000 0.0000 35.2299 0.0000
# 6 0.0000 0.0000 0.0000 0.0000 0.0000 28.3479
#
#
#
# Elastic Compliance Matrix: (Units=1/GPa)
#
#
# Indices 1 2 3 4 5 6 
#
# 1 0.008576 -0.005992 -0.005553 0.000000 0.000000 0.000000
# 2 -0.005992 0.022769 0.004171 0.000000 0.000000 0.000000
# 3 -0.005553 0.004171 0.014257 0.000000 0.000000 0.000000
# 4 0.000000 0.000000 0.000000 0.030233 0.000000 0.000000
# 5 0.000000 0.000000 0.000000 0.000000 0.028385 0.000000
# 6 0.000000 0.000000 0.000000 0.000000 0.000000 0.035276
#
#
# Mechanical properties :
#
#
# Convention : Reuss Voigt Hill
#
# Bulk Modulus (GPa) = 32.41034 57.59946 45.00490
# Shear Modulus (GPa) = 30.39024 34.90733 32.64879
#
# Velocity S-wave (km/s) = 3.90789 4.18826 4.05051
# Velocity P-wave (km/s) = 6.05384 7.23419 6.67017
#
# Compressibility (1/GPa) = 0.03085435
#
# Stress axis : x y z
#
# Youngs Moduli (GPa) = 116.60475 43.92032 70.14202
#
# Poissons Ratio (x) = 0.26315 0.38948
# Poissons Ratio (y) = 0.69864 -0.29255
# Poissons Ratio (z) = 0.64748 -0.18318
#
# Static dielectric constant tensor:
#      x y z
#    x 4.722800 0.000000 0.000000 
#    y 0.000000 4.063110 0.000000 
#    z 0.000000 0.000000 3.844170 
# 
# 
# High freq. dielectric constant tensor:
#      x y z
#    x 1.805600 0.000000 0.000000 
#    y 0.000000 1.744540 0.000000 
#    z 0.000000 0.000000 1.781250 
# 
# From -- ./inp_files/73387.got.cif
#   From: 2010.03.12/outbox.cif.g09.slc.cpg/sg63_37_cif.got.tgz:73387.got - 2010.04.10 19:34:48.
