data_PCOD8259395
_publ_section_title
;
Structure prediction by ZEFSAII (Michael W. Deem and Ramdas Pophale) SiO2 
 PCOD8259395
Probable space group: C M C M
;
_chemical_formula_sum "Si O2"
_cell_formula_units_Z 80
_cell_length_a 12.111382
_cell_length_b 19.688614
_cell_length_c 17.916967
_cell_angle_alpha 90.000000
_cell_angle_beta 90.000000
_cell_angle_gamma 90.000000
_cell_volume 4272.414110
_symmetry_space_group_name_H-M "C M C M"
_symmetry_group_IT_number 63
_symmetry_cell_setting 'orthorhombic'
loop_
_space_group_symop_operation_xyz
x,y,z
-x,-y,1/2+z
x,-y,-z
-x,y,1/2-z
-x,-y,-z
x,y,1/2-z
-x,y,z
x,-y,1/2+z
1/2+x,1/2+y,z
1/2-x,1/2-y,1/2+z
1/2+x,1/2-y,-z
1/2-x,1/2+y,1/2-z
1/2-x,1/2-y,-z
1/2+x,1/2+y,1/2-z
1/2-x,1/2+y,z
1/2+x,1/2-y,1/2+z
loop_
_atom_site_type_symbol
_atom_site_label
_atom_site_fract_x
_atom_site_fract_y
_atom_site_fract_z
Si Si1 0.129588 0.170423 0.952118
Si Si2 0.786278 0.561233 0.593277
Si Si3 0.124273 0.578681 0.059834
Si Si4 0.246238 0.202453 0.102204
Si Si5 0.373137 0.111188 0.750000
Si Si6 0.373059 0.728829 0.250000
O O1 0.167170 0.094530 0.926968
O O2 0.199242 0.223363 0.902499
O O3 0.000000 0.178184 0.937833
O O4 0.157048 0.186614 0.037957
O O5 0.788476 0.479397 0.585370
O O6 0.870597 0.590213 0.530072
O O7 0.818469 0.580202 0.676660
O O8 0.154798 0.648138 0.100797
O O9 0.000000 0.557739 0.082205
O O10 0.182315 0.194949 0.178816
O O11 0.500000 0.090089 0.750000
O O12 0.356112 0.191025 0.750000
O O13 0.500000 0.708542 0.250000
#
# Coordination Sequence:
#
# PCOD8259395 Si02
#       6
#    16  16  16  16   8   8
#     4  10  20  37  58  81 111 151 190 230 278 334
#     4  10  20  36  56  86 114 146 191 233 277 342
#     4  10  20  37  60  85 115 148 185 238 284 329
#     4  10  21  37  56  84 112 145 191 233 278 339
#     4  11  20  33  56  82 112 147 183 232 282 333
#     4  11  22  37  56  84 116 147 185 236 288 331
#
# _framework density 18.724777
#
# number of rings (size 3 to 8) (size 9 to 14) (size 15 to 20)
#    0.000    1.800    2.000    3.600    0.000    0.800 
#    0.000   13.500    0.000    0.000    0.000    0.000 
#    0.000    0.000    0.000    0.000    0.000    0.000 
#
# Total GULP energy -495901.108802 kJ/mol
# GULP energy per Si atom -12397.527720 kJ/mol
# Density = 1.868216 g / cm^3
# Si number density = 18.724777 Si / 1000 Ang^3
#
#
#
# Elastic Constant Matrix: (Units=GPa)
#
#
# Indices 1 2 3 4 5 6 
#
# 1 89.7454 32.9125 53.4307 0.0000 0.0000 0.0000
# 2 32.9125 78.7348 31.3393 0.0000 0.0000 0.0000
# 3 53.4307 31.3393 135.8165 0.0000 0.0000 0.0000
# 4 0.0000 0.0000 0.0000 -1.5196 0.0000 0.0000
# 5 0.0000 0.0000 0.0000 0.0000 16.4406 0.0000
# 6 0.0000 0.0000 0.0000 0.0000 0.0000 25.5070
#
#
#
# Elastic Compliance Matrix: (Units=1/GPa)
#
#
# Indices 1 2 3 4 5 6 
#
# 1 0.015924 -0.004584 -0.005207 0.000000 0.000000 0.000000
# 2 -0.004584 0.015305 -0.001728 0.000000 0.000000 0.000000
# 3 -0.005207 -0.001728 0.009810 0.000000 0.000000 0.000000
# 4 0.000000 0.000000 0.000000 -0.658080 0.000000 0.000000
# 5 0.000000 0.000000 0.000000 0.000000 0.060825 0.000000
# 6 0.000000 0.000000 0.000000 0.000000 0.000000 0.039205
#
#
# Mechanical properties :
#
#
# Convention : Reuss Voigt Hill
#
# Bulk Modulus (GPa) = 55.55291 59.96238 57.75765
# Shear Modulus (GPa) = -10.24646 20.52654 5.14004
#
# Velocity S-wave (km/s) = -2.34180 3.31452 1.65862
# Velocity P-wave (km/s) = 4.73503 6.83671 5.88052
#
# Compressibility (1/GPa) = 0.01800086
#
# Stress axis : x y z
#
# Youngs Moduli (GPa) = 62.80020 65.33853 101.93696
#
# Poissons Ratio (x) = 0.29950 0.53075
# Poissons Ratio (y) = 0.28787 0.17617
# Poissons Ratio (z) = 0.32698 0.11292
#
# Static dielectric constant tensor:
#      x y z
#    x 3.253350 0.000000 0.000000 
#    y 0.000000 3.516330 0.000000 
#    z 0.000000 0.000000 3.402830 
# 
# 
# High freq. dielectric constant tensor:
#      x y z
#    x 1.710200 0.000000 0.000000 
#    y 0.000000 1.729830 0.000000 
#    z 0.000000 0.000000 1.724150 
# 
# From -- ./inp_files/42155.got.cif
#   From: 2010.03.12/outbox.cif.g09.slc.cpg/sg63_22_cif.got.tgz:42155.got - 2010.04.10 19:34:48.
