data_PCOD8259066
_publ_section_title
;
Structure prediction by ZEFSAII (Michael W. Deem and Ramdas Pophale) SiO2 
 PCOD8259066
Probable space group: C M C M
;
_chemical_formula_sum "Si O2"
_cell_formula_units_Z 104
_cell_length_a 23.940738
_cell_length_b 16.977032
_cell_length_c 13.226551
_cell_angle_alpha 90.000000
_cell_angle_beta 90.000000
_cell_angle_gamma 90.000000
_cell_volume 5375.834771
_symmetry_space_group_name_H-M "C M C M"
_symmetry_group_IT_number 63
_symmetry_cell_setting 'orthorhombic'
loop_
_space_group_symop_operation_xyz
x,y,z
-x,-y,1/2+z
x,-y,-z
-x,y,1/2-z
-x,-y,-z
x,y,1/2-z
-x,y,z
x,-y,1/2+z
1/2+x,1/2+y,z
1/2-x,1/2-y,1/2+z
1/2+x,1/2-y,-z
1/2-x,1/2+y,1/2-z
1/2-x,1/2-y,-z
1/2+x,1/2+y,1/2-z
1/2-x,1/2+y,z
1/2+x,1/2-y,1/2+z
loop_
_atom_site_type_symbol
_atom_site_label
_atom_site_fract_x
_atom_site_fract_y
_atom_site_fract_z
Si Si1 0.290058 0.366667 0.865828
Si Si2 0.500000 0.907391 0.997401
Si Si3 0.752568 0.500000 0.000000
Si Si4 0.879280 0.753167 0.559269
Si Si5 0.096124 0.432753 0.862061
Si Si6 0.000000 0.268978 0.370307
Si Si7 0.841748 0.583626 0.867248
Si Si8 0.675716 0.203304 0.363220
O O1 0.284626 0.392641 0.750000
O O2 0.287088 0.446025 0.931199
O O3 0.348800 0.324156 0.883856
O O4 0.241003 0.303005 0.891922
O O5 0.555259 0.883600 0.934931
O O6 0.500000 0.863003 0.104598
O O7 0.500000 0.000000 0.000000
O O8 0.788419 0.439297 0.067069
O O9 0.945353 0.768587 0.576512
O O10 0.862185 0.670745 0.609561
O O11 0.859731 0.756090 0.441751
O O12 0.070082 0.431169 0.750000
O O13 0.107344 0.523439 0.894970
O O14 0.155188 0.387786 0.866684
O O15 0.000000 0.257187 0.250000
O O16 0.825905 0.575034 0.750000
O O17 0.667029 0.238601 0.250000
#
# Coordination Sequence:
#
# PCOD8259066 Si02
#       8
#    16   8   8  16  16   8  16  16
#     4  11  23  40  62  89 121 156 197 244 299 361
#     4  12  23  31  50  73 110 156 208 246 276 324
#     4  12  22  36  58  84 122 150 192 242 302 358
#     4  12  23  42  60  86 119 160 197 249 298 347
#     4  10  20  35  51  75 112 155 200 240 287 339
#     4  12  26  41  56  80 117 160 211 251 287 349
#     4  11  21  34  55  83 117 159 200 239 291 349
#     4  10  20  36  58  86 117 151 192 242 292 355
#
# _framework density 19.345832999999999
#
# number of rings (size 3 to 8) (size 9 to 14) (size 15 to 20)
#    0.000    0.923    4.615    3.462    1.077    1.846 
#    0.000    1.154    0.000    0.462    0.000    0.000 
#    0.000    0.000    0.000    0.000    0.000    0.000 
#
# Total GULP energy -644777.089933 kJ/mol
# GULP energy per Si atom -12399.559422 kJ/mol
# Density = 1.930180 g / cm^3
# Si number density = 19.345833 Si / 1000 Ang^3
#
#
#
# Elastic Constant Matrix: (Units=GPa)
#
#
# Indices 1 2 3 4 5 6 
#
# 1 122.1015 38.0251 43.2409 0.0000 0.0000 0.0000
# 2 38.0251 43.3312 28.0062 0.0000 0.0000 0.0000
# 3 43.2409 28.0062 121.7026 0.0000 0.0000 0.0000
# 4 0.0000 0.0000 0.0000 24.7479 0.0000 0.0000
# 5 0.0000 0.0000 0.0000 0.0000 25.8405 0.0000
# 6 0.0000 0.0000 0.0000 0.0000 0.0000 24.7980
#
#
#
# Elastic Compliance Matrix: (Units=1/GPa)
#
#
# Indices 1 2 3 4 5 6 
#
# 1 0.011714 -0.008915 -0.002110 0.000000 0.000000 0.000000
# 2 -0.008915 0.033896 -0.004632 0.000000 0.000000 0.000000
# 3 -0.002110 -0.004632 0.010033 0.000000 0.000000 0.000000
# 4 0.000000 0.000000 0.000000 0.040407 0.000000 0.000000
# 5 0.000000 0.000000 0.000000 0.000000 0.038699 0.000000
# 6 0.000000 0.000000 0.000000 0.000000 0.000000 0.040326
#
#
# Mechanical properties :
#
#
# Convention : Reuss Voigt Hill
#
# Bulk Modulus (GPa) = 41.10855 56.18664 48.64759
# Shear Modulus (GPa) = 23.31011 26.93482 25.12247
#
# Velocity S-wave (km/s) = 3.47496 3.73538 3.60752
# Velocity P-wave (km/s) = 6.11522 6.90727 6.52327
#
# Compressibility (1/GPa) = 0.02432584
#
# Stress axis : x y z
#
# Youngs Moduli (GPa) = 85.37027 29.50211 99.67547
#
# Poissons Ratio (x) = 0.26302 0.21034
# Poissons Ratio (y) = 0.76111 0.46175
# Poissons Ratio (z) = 0.18015 0.13667
#
# Static dielectric constant tensor:
#      x y z
#    x 3.691980 0.000000 0.000000 
#    y 0.000000 3.133270 0.000000 
#    z 0.000000 0.000000 3.986740 
# 
# 
# High freq. dielectric constant tensor:
#      x y z
#    x 1.742090 0.000000 0.000000 
#    y 0.000000 1.700040 0.000000 
#    z 0.000000 0.000000 1.779460 
# 
# From -- ./inp_files/37102.got.cif
#   From: 2010.03.12/outbox.cif.g09.slc.cpg/sg63_19_cif.got.tgz:37102.got - 2010.04.10 19:34:48.
