data_PCOD8259811
_publ_section_title
;
Structure prediction by ZEFSAII (Michael W. Deem and Ramdas Pophale) SiO2 
 PCOD8259811
Probable space group: C M C M
;
_chemical_formula_sum "Si O2"
_cell_formula_units_Z 80
_cell_length_a 13.927655
_cell_length_b 14.197889
_cell_length_c 19.124309
_cell_angle_alpha 90.000000
_cell_angle_beta 90.000000
_cell_angle_gamma 90.000000
_cell_volume 3781.703967
_symmetry_space_group_name_H-M "C M C M"
_symmetry_group_IT_number 63
_symmetry_cell_setting 'orthorhombic'
loop_
_space_group_symop_operation_xyz
x,y,z
-x,-y,1/2+z
x,-y,-z
-x,y,1/2-z
-x,-y,-z
x,y,1/2-z
-x,y,z
x,-y,1/2+z
1/2+x,1/2+y,z
1/2-x,1/2-y,1/2+z
1/2+x,1/2-y,-z
1/2-x,1/2+y,1/2-z
1/2-x,1/2-y,-z
1/2+x,1/2+y,1/2-z
1/2-x,1/2+y,z
1/2+x,1/2-y,1/2+z
loop_
_atom_site_type_symbol
_atom_site_label
_atom_site_fract_x
_atom_site_fract_y
_atom_site_fract_z
Si Si1 0.705412 0.621612 0.101881
Si Si2 0.110839 0.320165 0.124984
Si Si3 0.720089 0.565346 0.673165
Si Si4 0.893988 0.892146 0.036616
Si Si5 0.103875 0.325738 0.529703
O O1 0.648958 0.712483 0.129613
O O2 0.717233 0.547494 0.164373
O O3 0.813665 0.647822 0.082517
O O4 0.655362 0.565550 0.035211
O O5 0.173189 0.389586 0.173423
O O6 0.000000 0.320547 0.149576
O O7 0.122525 0.366601 0.047803
O O8 0.675488 0.587115 0.750000
O O9 0.660630 0.610342 0.610071
O O10 0.898988 0.784405 0.014174
O O11 0.000000 0.935907 0.046875
O O12 0.000000 0.360066 0.559089
#
# Coordination Sequence:
#
# PCOD8259811 Si02
#       5
#    16  16  16  16  16
#     4  11  20  39  66  94 120 160 207 260 307 367
#     4  10  21  41  66  92 123 159 205 261 315 365
#     4  12  26  39  57  90 129 166 206 249 306 375
#     4  10  20  39  65  91 118 153 203 260 312 363
#     4   9  17  34  66  97 114 145 202 260 310 365
#
# _framework density 21.154485000000001
#
# number of rings (size 3 to 8) (size 9 to 14) (size 15 to 20)
#    0.000    1.600    4.000    3.600    0.000    4.800 
#    0.000    2.000    0.000    0.000    0.000    0.000 
#    0.000    0.000    0.000    0.000    0.000    0.000 
#
# Total GULP energy -495708.923300 kJ/mol
# GULP energy per Si atom -12392.723082 kJ/mol
# Density = 2.110634 g / cm^3
# Si number density = 21.154485 Si / 1000 Ang^3
#
#
#
# Elastic Constant Matrix: (Units=GPa)
#
#
# Indices 1 2 3 4 5 6 
#
# 1 138.2870 30.5001 42.9876 0.0000 0.0000 0.0000
# 2 30.5001 48.4321 19.6491 0.0000 0.0000 0.0000
# 3 42.9876 19.6491 108.5245 0.0000 0.0000 0.0000
# 4 0.0000 0.0000 0.0000 10.1137 0.0000 0.0000
# 5 0.0000 0.0000 0.0000 0.0000 13.4488 0.0000
# 6 0.0000 0.0000 0.0000 0.0000 0.0000 11.5523
#
#
#
# Elastic Compliance Matrix: (Units=1/GPa)
#
#
# Indices 1 2 3 4 5 6 
#
# 1 0.009111 -0.004612 -0.002774 0.000000 0.000000 0.000000
# 2 -0.004612 0.024619 -0.002631 0.000000 0.000000 0.000000
# 3 -0.002774 -0.002631 0.010790 0.000000 0.000000 0.000000
# 4 0.000000 0.000000 0.000000 0.098876 0.000000 0.000000
# 5 0.000000 0.000000 0.000000 0.000000 0.074356 0.000000
# 6 0.000000 0.000000 0.000000 0.000000 0.000000 0.086563
#
#
# Mechanical properties :
#
#
# Convention : Reuss Voigt Hill
#
# Bulk Modulus (GPa) = 40.83892 53.50190 47.17041
# Shear Modulus (GPa) = 15.03718 20.49676 17.76697
#
# Velocity S-wave (km/s) = 2.66903 3.11611 2.90119
# Velocity P-wave (km/s) = 5.37078 6.18812 5.79388
#
# Compressibility (1/GPa) = 0.02448645
#
# Stress axis : x y z
#
# Youngs Moduli (GPa) = 109.75919 40.61871 92.68247
#
# Poissons Ratio (x) = 0.18734 0.25708
# Poissons Ratio (y) = 0.50623 0.24380
# Poissons Ratio (z) = 0.30445 0.10685
#
# Static dielectric constant tensor:
#      x y z
#    x 4.108060 0.000000 0.000000 
#    y 0.000000 3.884100 0.000000 
#    z 0.000000 0.000000 3.448800 
# 
# 
# High freq. dielectric constant tensor:
#      x y z
#    x 1.836570 0.000000 0.000000 
#    y 0.000000 1.835770 0.000000 
#    z 0.000000 0.000000 1.797830 
# 
# From -- ./inp_files/43986.got.cif
#   From: 2010.03.12/outbox.cif.g09.slc.cpg/sg63_22_cif.got.tgz:43986.got - 2010.04.10 19:34:48.
