data_PCOD8259456
_publ_section_title
;
Structure prediction by ZEFSAII (Michael W. Deem and Ramdas Pophale) SiO2 
 PCOD8259456
Probable space group: C M C M
;
_chemical_formula_sum "Si O2"
_cell_formula_units_Z 72
_cell_length_a 10.520158
_cell_length_b 14.643863
_cell_length_c 24.471911
_cell_angle_alpha 90.000000
_cell_angle_beta 90.000000
_cell_angle_gamma 90.000000
_cell_volume 3770.038664
_symmetry_space_group_name_H-M "C M C M"
_symmetry_group_IT_number 63
_symmetry_cell_setting 'orthorhombic'
loop_
_space_group_symop_operation_xyz
x,y,z
-x,-y,1/2+z
x,-y,-z
-x,y,1/2-z
-x,-y,-z
x,y,1/2-z
-x,y,z
x,-y,1/2+z
1/2+x,1/2+y,z
1/2-x,1/2-y,1/2+z
1/2+x,1/2-y,-z
1/2-x,1/2+y,1/2-z
1/2-x,1/2-y,-z
1/2+x,1/2+y,1/2-z
1/2-x,1/2+y,z
1/2+x,1/2-y,1/2+z
loop_
_atom_site_type_symbol
_atom_site_label
_atom_site_fract_x
_atom_site_fract_y
_atom_site_fract_z
Si Si1 0.252735 0.774035 0.610872
Si Si2 0.500000 0.510169 0.866761
Si Si3 0.143033 0.631894 0.811475
Si Si4 0.250386 0.944287 0.687425
Si Si5 0.000000 0.842810 0.556668
Si Si6 0.000000 0.192746 0.567503
O O1 0.234480 0.684298 0.647418
O O2 0.283980 0.859627 0.649248
O O3 0.375096 0.756315 0.573056
O O4 0.126757 0.789371 0.575017
O O5 0.381907 0.490697 0.827986
O O6 0.500000 0.444344 0.919302
O O7 0.500000 0.613950 0.887049
O O8 0.189585 0.652998 0.750000
O O9 0.144700 0.522938 0.821681
O O10 0.000000 0.667737 0.819981
O O11 0.246117 0.910021 0.750000
O O12 0.000000 0.852538 0.491819
#
# Coordination Sequence:
#
# PCOD8259456 Si02
#       6
#    16   8  16  16   8   8
#     4  11  22  39  61  86 118 152 195 242 294 345
#     4  10  20  38  62  84 114 152 196 250 287 346
#     4  10  20  36  58  82 115 157 192 228 284 360
#     4  10  21  37  57  87 119 152 186 232 291 355
#     4  10  23  41  62  81 113 161 202 239 296 349
#     4  12  23  39  60  89 117 149 200 257 293 329
#
# _framework density 19.097947000000001
#
# number of rings (size 3 to 8) (size 9 to 14) (size 15 to 20)
#    0.000    1.556    3.333    2.000    1.556    0.000 
#    0.000    1.667    0.000    1.333    0.000    0.000 
#    0.000    0.000    0.000    0.000    0.000    0.000 
#
# Total GULP energy -446448.724602 kJ/mol
# GULP energy per Si atom -12401.353461 kJ/mol
# Density = 1.905448 g / cm^3
# Si number density = 19.097947 Si / 1000 Ang^3
#
#
#
# Elastic Constant Matrix: (Units=GPa)
#
#
# Indices 1 2 3 4 5 6 
#
# 1 91.4700 16.1368 12.9286 0.0000 0.0000 0.0000
# 2 16.1368 71.5238 18.0088 0.0000 0.0000 0.0000
# 3 12.9286 18.0088 64.0455 0.0000 0.0000 0.0000
# 4 0.0000 0.0000 0.0000 22.4182 0.0000 0.0000
# 5 0.0000 0.0000 0.0000 0.0000 21.0620 0.0000
# 6 0.0000 0.0000 0.0000 0.0000 0.0000 25.7932
#
#
#
# Elastic Compliance Matrix: (Units=1/GPa)
#
#
# Indices 1 2 3 4 5 6 
#
# 1 0.011560 -0.002174 -0.001722 0.000000 0.000000 0.000000
# 2 -0.002174 0.015456 -0.003907 0.000000 0.000000 0.000000
# 3 -0.001722 -0.003907 0.017060 0.000000 0.000000 0.000000
# 4 0.000000 0.000000 0.000000 0.044607 0.000000 0.000000
# 5 0.000000 0.000000 0.000000 0.000000 0.047479 0.000000
# 6 0.000000 0.000000 0.000000 0.000000 0.000000 0.038770
#
#
# Mechanical properties :
#
#
# Convention : Reuss Voigt Hill
#
# Bulk Modulus (GPa) = 35.12669 35.68754 35.40711
# Shear Modulus (GPa) = 24.99660 25.85234 25.42447
#
# Velocity S-wave (km/s) = 3.62175 3.68322 3.65261
# Velocity P-wave (km/s) = 5.99352 6.06756 6.03065
#
# Compressibility (1/GPa) = 0.02846838
#
# Stress axis : x y z
#
# Youngs Moduli (GPa) = 86.50856 64.70119 58.61619
#
# Poissons Ratio (x) = 0.14069 0.10094
# Poissons Ratio (y) = 0.18810 0.22901
# Poissons Ratio (z) = 0.14897 0.25279
#
# Static dielectric constant tensor:
#      x y z
#    x 3.522520 0.000000 0.000000 
#    y 0.000000 3.433050 0.000000 
#    z 0.000000 0.000000 3.348440 
# 
# 
# High freq. dielectric constant tensor:
#      x y z
#    x 1.746760 0.000000 0.000000 
#    y 0.000000 1.745280 0.000000 
#    z 0.000000 0.000000 1.738000 
# 
# From -- ./inp_files/66389.got.cif
#   From: 2010.03.12/outbox.cif.g09.slc.cpg/sg63_34_cif.got.tgz:66389.got - 2010.04.10 19:34:48.
