data_PCOD8259877
_publ_section_title
;
Structure prediction by ZEFSAII (Michael W. Deem and Ramdas Pophale) SiO2 
 PCOD8259877
Probable space group: C M C M
;
_chemical_formula_sum "Si O2"
_cell_formula_units_Z 72
_cell_length_a 17.906518
_cell_length_b 13.499721
_cell_length_c 15.078686
_cell_angle_alpha 90.000000
_cell_angle_beta 90.000000
_cell_angle_gamma 90.000000
_cell_volume 3645.015959
_symmetry_space_group_name_H-M "C M C M"
_symmetry_group_IT_number 63
_symmetry_cell_setting 'orthorhombic'
loop_
_space_group_symop_operation_xyz
x,y,z
-x,-y,1/2+z
x,-y,-z
-x,y,1/2-z
-x,-y,-z
x,y,1/2-z
-x,y,z
x,-y,1/2+z
1/2+x,1/2+y,z
1/2-x,1/2-y,1/2+z
1/2+x,1/2-y,-z
1/2-x,1/2+y,1/2-z
1/2-x,1/2-y,-z
1/2+x,1/2+y,1/2-z
1/2-x,1/2+y,z
1/2+x,1/2-y,1/2+z
loop_
_atom_site_type_symbol
_atom_site_label
_atom_site_fract_x
_atom_site_fract_y
_atom_site_fract_z
Si Si1 0.000000 0.661838 0.938123
Si Si2 0.277249 0.314478 0.750000
Si Si3 0.369921 0.946712 0.750000
Si Si4 0.347444 0.732543 0.071575
Si Si5 0.000000 0.549377 0.378081
Si Si6 0.729126 0.404720 0.442804
Si Si7 0.250405 0.592033 0.750000
O O1 0.932253 0.735648 0.924356
O O2 0.000000 0.570224 0.870404
O O3 0.000000 0.605092 0.030648
O O4 0.208902 0.390273 0.750000
O O5 0.326486 0.327036 0.838753
O O6 0.239999 0.208432 0.750000
O O7 0.421834 0.918991 0.833167
O O8 0.338051 0.059851 0.750000
O O9 0.300503 0.832966 0.059862
O O10 0.337702 0.657103 0.988626
O O11 0.751427 0.500000 0.500000
O O12 0.709234 0.442013 0.342203
#
# Coordination Sequence:
#
# PCOD8259877 Si02
#       7
#     8   8   8  16   8  16   8
#     4  11  24  38  57  92 127 167 199 248 331 378
#     4  10  21  38  61  87 119 164 211 257 302 371
#     4  11  22  40  59  93 122 162 207 252 324 372
#     4  10  23  37  60  89 123 166 210 262 317 377
#     4  10  24  36  60  88 131 161 193 257 318 396
#     4  10  21  37  60  88 119 160 213 266 307 370
#     4  10  21  33  58  84 119 158 200 254 306 364
#
# _framework density 19.753
#
# number of rings (size 3 to 8) (size 9 to 14) (size 15 to 20)
#    0.000    1.778    0.000    4.000   15.556    1.333 
#    0.000    0.556    0.000    0.000    0.000    0.000 
#    0.000    0.000    0.000    0.000    0.000    0.000 
#
# Total GULP energy -446044.029652 kJ/mol
# GULP energy per Si atom -12390.111935 kJ/mol
# Density = 1.970804 g / cm^3
# Si number density = 19.753000 Si / 1000 Ang^3
#
#
#
# Elastic Constant Matrix: (Units=GPa)
#
#
# Indices 1 2 3 4 5 6 
#
# 1 140.1472 47.1430 50.3206 0.0000 0.0000 0.0000
# 2 47.1430 70.2584 43.1728 0.0000 0.0000 0.0000
# 3 50.3206 43.1728 158.1922 0.0000 0.0000 0.0000
# 4 0.0000 0.0000 0.0000 28.9715 0.0000 0.0000
# 5 0.0000 0.0000 0.0000 0.0000 24.2814 0.0000
# 6 0.0000 0.0000 0.0000 0.0000 0.0000 35.1563
#
#
#
# Elastic Compliance Matrix: (Units=1/GPa)
#
#
# Indices 1 2 3 4 5 6 
#
# 1 0.009519 -0.005439 -0.001544 0.000000 0.000000 0.000000
# 2 -0.005439 0.020208 -0.003785 0.000000 0.000000 0.000000
# 3 -0.001544 -0.003785 0.007845 0.000000 0.000000 0.000000
# 4 0.000000 0.000000 0.000000 0.034517 0.000000 0.000000
# 5 0.000000 0.000000 0.000000 0.000000 0.041184 0.000000
# 6 0.000000 0.000000 0.000000 0.000000 0.000000 0.028444
#
#
# Mechanical properties :
#
#
# Convention : Reuss Voigt Hill
#
# Bulk Modulus (GPa) = 62.35203 72.20786 67.27994
# Shear Modulus (GPa) = 29.65617 32.87925 31.26771
#
# Velocity S-wave (km/s) = 3.87893 4.08428 3.98293
# Velocity P-wave (km/s) = 7.18998 7.67310 7.43547
#
# Compressibility (1/GPa) = 0.01603797
#
# Stress axis : x y z
#
# Youngs Moduli (GPa) = 105.05188 49.48438 127.46183
#
# Poissons Ratio (x) = 0.26913 0.19677
# Poissons Ratio (y) = 0.57134 0.48246
# Poissons Ratio (z) = 0.16217 0.18730
#
# Static dielectric constant tensor:
#      x y z
#    x 3.280960 0.000000 0.000000 
#    y 0.000000 3.620460 0.000000 
#    z 0.000000 0.000000 4.304310 
# 
# 
# High freq. dielectric constant tensor:
#      x y z
#    x 1.732680 0.000000 0.000000 
#    y 0.000000 1.770040 0.000000 
#    z 0.000000 0.000000 1.794170 
# 
# From -- ./inp_files/33729.got.cif
#   From: 2010.03.12/outbox.cif.g09.slc.cpg/sg63_17_cif.got.tgz:33729.got - 2010.04.10 19:34:48.
