data_PCOD8259330
_publ_section_title
;
Structure prediction by ZEFSAII (Michael W. Deem and Ramdas Pophale) SiO2 
 PCOD8259330
Probable space group: C M C M
;
_chemical_formula_sum "Si O2"
_cell_formula_units_Z 88
_cell_length_a 25.257660
_cell_length_b 12.921293
_cell_length_c 12.906779
_cell_angle_alpha 90.000000
_cell_angle_beta 90.000000
_cell_angle_gamma 90.000000
_cell_volume 4212.277373
_symmetry_space_group_name_H-M "C M C M"
_symmetry_group_IT_number 63
_symmetry_cell_setting 'orthorhombic'
loop_
_space_group_symop_operation_xyz
x,y,z
-x,-y,1/2+z
x,-y,-z
-x,y,1/2-z
-x,-y,-z
x,y,1/2-z
-x,y,z
x,-y,1/2+z
1/2+x,1/2+y,z
1/2-x,1/2-y,1/2+z
1/2+x,1/2-y,-z
1/2-x,1/2+y,1/2-z
1/2-x,1/2-y,-z
1/2+x,1/2+y,1/2-z
1/2-x,1/2+y,z
1/2+x,1/2-y,1/2+z
loop_
_atom_site_type_symbol
_atom_site_label
_atom_site_fract_x
_atom_site_fract_y
_atom_site_fract_z
Si Si1 0.558422 0.402988 0.250000
Si Si2 0.357980 0.883652 0.750000
Si Si3 0.325811 0.885616 0.250000
Si Si4 0.942848 0.142794 0.250000
Si Si5 0.059549 0.601211 0.064913
Si Si6 0.614137 0.761001 0.418786
Si Si7 0.141172 0.101860 0.571543
Si Si8 0.206976 0.832286 0.250000
O O1 0.500000 0.347978 0.250000
O O2 0.548609 0.522967 0.250000
O O3 0.589699 0.374600 0.355583
O O4 0.396428 0.882582 0.651986
O O5 0.319372 0.783208 0.750000
O O6 0.322831 0.989156 0.750000
O O7 0.356045 0.848810 0.146758
O O8 0.269938 0.827105 0.250000
O O9 0.909686 0.171020 0.150253
O O10 0.000000 0.199496 0.250000
O O11 0.000000 0.599957 0.111708
O O12 0.072339 0.500000 0.000000
O O13 0.064954 0.691745 0.981066
O O14 0.652374 0.700853 0.498318
O O15 0.190818 0.099299 0.649592
O O16 0.136365 0.000000 0.500000
#
# Coordination Sequence:
#
# PCOD8259330 Si02
#       8
#     8   8   8   8  16  16  16   8
#     4  10  22  37  59  93 134 178 219 266 323 377
#     4  12  23  48  68 100 140 164 229 284 324 408
#     4  11  27  45  71  96 132 170 217 286 339 389
#     4  10  20  35  59  91 128 172 217 262 317 383
#     4  11  23  41  68 100 136 179 216 269 345 407
#     4  11  22  42  63  94 131 172 221 272 330 398
#     4  11  23  43  64  92 136 171 226 277 324 398
#     4  11  27  47  69 100 124 178 223 284 343 389
#
# _framework density 20.891313
#
# number of rings (size 3 to 8) (size 9 to 14) (size 15 to 20)
#    0.000    1.091    5.455    0.818    0.000    4.000 
#    3.273    0.000    0.000    0.000    0.000    0.000 
#    0.000    0.000    0.000    0.000    0.000    0.000 
#
# Total GULP energy -545244.456847 kJ/mol
# GULP energy per Si atom -12391.919474 kJ/mol
# Density = 2.084376 g / cm^3
# Si number density = 20.891313 Si / 1000 Ang^3
#
#
#
# Elastic Constant Matrix: (Units=GPa)
#
#
# Indices 1 2 3 4 5 6 
#
# 1 111.1103 26.1423 37.4202 0.0000 0.0000 0.0000
# 2 26.1423 90.1008 45.9745 0.0000 0.0000 0.0000
# 3 37.4202 45.9745 124.4342 0.0000 0.0000 0.0000
# 4 0.0000 0.0000 0.0000 65.9067 0.0000 0.0000
# 5 0.0000 0.0000 0.0000 0.0000 14.8741 0.0000
# 6 0.0000 0.0000 0.0000 0.0000 0.0000 27.1728
#
#
#
# Elastic Compliance Matrix: (Units=1/GPa)
#
#
# Indices 1 2 3 4 5 6 
#
# 1 0.010227 -0.001723 -0.002439 0.000000 0.000000 0.000000
# 2 -0.001723 0.013967 -0.004642 0.000000 0.000000 0.000000
# 3 -0.002439 -0.004642 0.010485 0.000000 0.000000 0.000000
# 4 0.000000 0.000000 0.000000 0.015173 0.000000 0.000000
# 5 0.000000 0.000000 0.000000 0.000000 0.067231 0.000000
# 6 0.000000 0.000000 0.000000 0.000000 0.000000 0.036802
#
#
# Mechanical properties :
#
#
# Convention : Reuss Voigt Hill
#
# Bulk Modulus (GPa) = 58.57900 60.52436 59.55168
# Shear Modulus (GPa) = 28.21935 35.99793 32.10864
#
# Velocity S-wave (km/s) = 3.67927 4.15553 3.92463
# Velocity P-wave (km/s) = 6.79339 7.21516 7.00745
#
# Compressibility (1/GPa) = 0.01707097
#
# Stress axis : x y z
#
# Youngs Moduli (GPa) = 97.78241 71.59544 95.37399
#
# Poissons Ratio (x) = 0.12334 0.23261
# Poissons Ratio (y) = 0.16846 0.44277
# Poissons Ratio (z) = 0.23848 0.33238
#
# Static dielectric constant tensor:
#      x y z
#    x 3.590360 0.000000 0.000000 
#    y 0.000000 3.888230 0.000000 
#    z 0.000000 0.000000 3.996800 
# 
# 
# High freq. dielectric constant tensor:
#      x y z
#    x 1.794420 0.000000 0.000000 
#    y 0.000000 1.827770 0.000000 
#    z 0.000000 0.000000 1.838530 
# 
# From -- ./inp_files/24935.got.cif
#   From: 2010.03.12/outbox.cif.g09.slc.cpg/sg63_13_cif.got.tgz:24935.got - 2010.04.10 19:34:48.
