data_PCOD8259643
_publ_section_title
;
Structure prediction by ZEFSAII (Michael W. Deem and Ramdas Pophale) SiO2 
 PCOD8259643
Probable space group: C M C M
;
_chemical_formula_sum "Si O2"
_cell_formula_units_Z 96
_cell_length_a 22.226908
_cell_length_b 9.520381
_cell_length_c 22.213405
_cell_angle_alpha 90.000000
_cell_angle_beta 90.000000
_cell_angle_gamma 90.000000
_cell_volume 4700.548258
_symmetry_space_group_name_H-M "C M C M"
_symmetry_group_IT_number 63
_symmetry_cell_setting 'orthorhombic'
loop_
_space_group_symop_operation_xyz
x,y,z
-x,-y,1/2+z
x,-y,-z
-x,y,1/2-z
-x,-y,-z
x,y,1/2-z
-x,y,z
x,-y,1/2+z
1/2+x,1/2+y,z
1/2-x,1/2-y,1/2+z
1/2+x,1/2-y,-z
1/2-x,1/2+y,1/2-z
1/2-x,1/2-y,-z
1/2+x,1/2+y,1/2-z
1/2-x,1/2+y,z
1/2+x,1/2-y,1/2+z
loop_
_atom_site_type_symbol
_atom_site_label
_atom_site_fract_x
_atom_site_fract_y
_atom_site_fract_z
Si Si1 0.933313 0.095670 0.419630
Si Si2 0.695611 0.153807 0.988393
Si Si3 0.332213 0.186048 0.250000
Si Si4 0.285163 0.874645 0.250000
Si Si5 0.132945 0.330961 0.138164
Si Si6 0.907876 0.798338 0.047472
Si Si7 0.933133 0.380232 0.655859
O O1 0.906515 0.188965 0.365753
O O2 0.938816 0.183927 0.482058
O O3 0.000000 0.046288 0.401347
O O4 0.893376 0.954806 0.427332
O O5 0.649933 0.201802 0.039655
O O6 0.671623 0.836583 0.078387
O O7 0.750000 0.250000 0.000000
O O8 0.718955 0.000000 0.000000
O O9 0.284585 0.317476 0.250000
O O10 0.378843 0.191847 0.306197
O O11 0.290504 0.045190 0.250000
O O12 0.320239 0.816020 0.307682
O O13 0.087067 0.460163 0.143608
O O14 0.945679 0.708594 0.095305
O O15 0.000000 0.385272 0.687292
#
# Coordination Sequence:
#
# PCOD8259643 Si02
#       7
#    16  16   8   8  16  16  16
#     4  10  20  37  59  90 124 163 203 248 314 378
#     4  11  24  38  59  91 127 163 207 258 315 380
#     4  10  25  42  64  92 119 164 210 262 314 374
#     4  10  24  44  62  88 126 164 212 258 306 374
#     4  10  23  40  62  91 125 165 211 257 315 371
#     4  10  21  37  58  90 124 160 203 254 319 371
#     4  11  21  40  64  91 124 162 210 265 315 377
#
# _framework density 20.423148999999999
#
# number of rings (size 3 to 8) (size 9 to 14) (size 15 to 20)
#    0.000    1.667    1.667    2.750    7.000    1.333 
#    0.000    3.750    0.000    0.000    0.000    1.167 
#    0.000    0.000    0.000    0.000    0.000    0.000 
#
# Total GULP energy -594660.787381 kJ/mol
# GULP energy per Si atom -12388.766404 kJ/mol
# Density = 2.037667 g / cm^3
# Si number density = 20.423149 Si / 1000 Ang^3
#
#
#
# Elastic Constant Matrix: (Units=GPa)
#
#
# Indices 1 2 3 4 5 6 
#
# 1 136.1223 59.5395 42.5950 0.0000 0.0000 0.0000
# 2 59.5395 115.2998 31.4827 0.0000 0.0000 0.0000
# 3 42.5950 31.4827 79.5332 0.0000 0.0000 0.0000
# 4 0.0000 0.0000 0.0000 29.9492 0.0000 0.0000
# 5 0.0000 0.0000 0.0000 0.0000 12.5561 0.0000
# 6 0.0000 0.0000 0.0000 0.0000 0.0000 35.6530
#
#
#
# Elastic Compliance Matrix: (Units=1/GPa)
#
#
# Indices 1 2 3 4 5 6 
#
# 1 0.010460 -0.004341 -0.003884 0.000000 0.000000 0.000000
# 2 -0.004341 0.011526 -0.002237 0.000000 0.000000 0.000000
# 3 -0.003884 -0.002237 0.015539 0.000000 0.000000 0.000000
# 4 0.000000 0.000000 0.000000 0.033390 0.000000 0.000000
# 5 0.000000 0.000000 0.000000 0.000000 0.079642 0.000000
# 6 0.000000 0.000000 0.000000 0.000000 0.000000 0.028048
#
#
# Mechanical properties :
#
#
# Convention : Reuss Voigt Hill
#
# Bulk Modulus (GPa) = 60.23941 66.46555 63.35248
# Shear Modulus (GPa) = 24.38266 28.78754 26.58510
#
# Velocity S-wave (km/s) = 3.45900 3.75848 3.61184
# Velocity P-wave (km/s) = 6.74630 7.17285 6.96284
#
# Compressibility (1/GPa) = 0.01660043
#
# Stress axis : x y z
#
# Youngs Moduli (GPa) = 95.59809 86.76264 64.35401
#
# Poissons Ratio (x) = 0.37665 0.24994
# Poissons Ratio (y) = 0.41501 0.14399
# Poissons Ratio (z) = 0.37128 0.19412
#
# Static dielectric constant tensor:
#      x y z
#    x 3.613410 0.000000 0.000000 
#    y 0.000000 3.912450 0.000000 
#    z 0.000000 0.000000 3.661070 
# 
# 
# High freq. dielectric constant tensor:
#      x y z
#    x 1.801520 0.000000 0.000000 
#    y 0.000000 1.803560 0.000000 
#    z 0.000000 0.000000 1.788450 
# 
# From -- ./inp_files/65019.got.cif
#   From: 2010.03.12/outbox.cif.g09.slc.cpg/sg63_33_cif.got.tgz:65019.got - 2010.04.10 19:34:48.
