data_PCOD8259733
_publ_section_title
;
Structure prediction by ZEFSAII (Michael W. Deem and Ramdas Pophale) SiO2 
 PCOD8259733
Probable space group: C M C M
;
_chemical_formula_sum "Si O2"
_cell_formula_units_Z 80
_cell_length_a 28.981856
_cell_length_b 8.611816
_cell_length_c 15.496731
_cell_angle_alpha 90.000000
_cell_angle_beta 90.000000
_cell_angle_gamma 90.000000
_cell_volume 3867.773476
_symmetry_space_group_name_H-M "C M C M"
_symmetry_group_IT_number 63
_symmetry_cell_setting 'orthorhombic'
loop_
_space_group_symop_operation_xyz
x,y,z
-x,-y,1/2+z
x,-y,-z
-x,y,1/2-z
-x,-y,-z
x,y,1/2-z
-x,y,z
x,-y,1/2+z
1/2+x,1/2+y,z
1/2-x,1/2-y,1/2+z
1/2+x,1/2-y,-z
1/2-x,1/2+y,1/2-z
1/2-x,1/2-y,-z
1/2+x,1/2+y,1/2-z
1/2-x,1/2+y,z
1/2+x,1/2-y,1/2+z
loop_
_atom_site_type_symbol
_atom_site_label
_atom_site_fract_x
_atom_site_fract_y
_atom_site_fract_z
Si Si1 0.448459 0.704795 0.750000
Si Si2 0.448827 0.663502 0.250000
Si Si3 0.289162 0.784567 0.346156
Si Si4 0.615726 0.302216 0.404979
Si Si5 0.206734 0.599098 0.412548
Si Si6 0.115555 0.160150 0.097647
O O1 0.500000 0.777288 0.750000
O O2 0.452223 0.520649 0.750000
O O3 0.422023 0.760702 0.836698
O O4 0.500000 0.736847 0.250000
O O5 0.422196 0.722538 0.334918
O O6 0.286680 0.713319 0.250000
O O7 0.249432 0.717523 0.408108
O O8 0.337160 0.751131 0.392788
O O9 0.285661 0.971017 0.338118
O O10 0.660584 0.196348 0.396023
O O11 0.627967 0.480616 0.383909
O O12 0.595608 0.301793 0.502463
O O13 0.205462 0.500000 0.500000
#
# Coordination Sequence:
#
# PCOD8259733 Si02
#       6
#     8   8  16  16  16  16
#     4   9  20  38  62  91 122 157 204 259 308 369
#     4   9  18  36  62  93 122 153 200 257 316 365
#     4  12  25  39  59  88 126 160 208 249 303 366
#     4  10  22  37  62  89 123 161 205 249 310 365
#     4  12  25  41  60  89 122 168 205 255 300 369
#     4  10  20  38  60  91 124 160 199 257 305 364
#
# _framework density 20.683734999999999
#
# number of rings (size 3 to 8) (size 9 to 14) (size 15 to 20)
#    0.000    1.400    3.000    2.400    5.600    0.800 
#    0.000    4.000    0.000    3.000    0.000    0.000 
#    0.000    0.000    0.000    0.000    0.000    0.000 
#
# Total GULP energy -495915.086784 kJ/mol
# GULP energy per Si atom -12397.877170 kJ/mol
# Density = 2.063666 g / cm^3
# Si number density = 20.683735 Si / 1000 Ang^3
#
#
#
# Elastic Constant Matrix: (Units=GPa)
#
#
# Indices 1 2 3 4 5 6 
#
# 1 179.4700 46.7632 78.9774 0.0000 0.0000 0.0000
# 2 46.7632 72.1691 29.2335 0.0000 0.0000 0.0000
# 3 78.9774 29.2335 152.7961 0.0000 0.0000 0.0000
# 4 0.0000 0.0000 0.0000 22.5834 0.0000 0.0000
# 5 0.0000 0.0000 0.0000 0.0000 19.2602 0.0000
# 6 0.0000 0.0000 0.0000 0.0000 0.0000 22.7783
#
#
#
# Elastic Compliance Matrix: (Units=1/GPa)
#
#
# Indices 1 2 3 4 5 6 
#
# 1 0.008091 -0.003847 -0.003446 0.000000 0.000000 0.000000
# 2 -0.003847 0.016849 -0.001235 0.000000 0.000000 0.000000
# 3 -0.003446 -0.001235 0.008562 0.000000 0.000000 0.000000
# 4 0.000000 0.000000 0.000000 0.044280 0.000000 0.000000
# 5 0.000000 0.000000 0.000000 0.000000 0.051921 0.000000
# 6 0.000000 0.000000 0.000000 0.000000 0.000000 0.043901
#
#
# Mechanical properties :
#
#
# Convention : Reuss Voigt Hill
#
# Bulk Modulus (GPa) = 60.80466 79.37591 70.09029
# Shear Modulus (GPa) = 25.49169 29.55514 27.52341
#
# Velocity S-wave (km/s) = 3.51444 3.78419 3.65180
# Velocity P-wave (km/s) = 6.77713 7.58635 7.19313
#
# Compressibility (1/GPa) = 0.01644611
#
# Stress axis : x y z
#
# Youngs Moduli (GPa) = 123.59904 59.34984 116.79260
#
# Poissons Ratio (x) = 0.22830 0.40246
# Poissons Ratio (y) = 0.47544 0.14429
# Poissons Ratio (z) = 0.42592 0.07332
#
# Static dielectric constant tensor:
#      x y z
#    x 3.741320 0.000000 0.000000 
#    y 0.000000 3.751470 0.000000 
#    z 0.000000 0.000000 3.976590 
# 
# 
# High freq. dielectric constant tensor:
#      x y z
#    x 1.796530 0.000000 0.000000 
#    y 0.000000 1.791500 0.000000 
#    z 0.000000 0.000000 1.828510 
# 
# From -- ./inp_files/48848.got.cif
#   From: 2010.03.12/outbox.cif.g09.slc.cpg/sg63_25_cif.got.tgz:48848.got - 2010.04.10 19:34:48.
