data_PCOD8259366
_publ_section_title
;
Structure prediction by ZEFSAII (Michael W. Deem and Ramdas Pophale) SiO2 
 PCOD8259366
Probable space group: C M C M
;
_chemical_formula_sum "Si O2"
_cell_formula_units_Z 112
_cell_length_a 27.131742
_cell_length_b 14.928809
_cell_length_c 13.807293
_cell_angle_alpha 90.000000
_cell_angle_beta 90.000000
_cell_angle_gamma 90.000000
_cell_volume 5592.569390
_symmetry_space_group_name_H-M "C M C M"
_symmetry_group_IT_number 63
_symmetry_cell_setting 'orthorhombic'
loop_
_space_group_symop_operation_xyz
x,y,z
-x,-y,1/2+z
x,-y,-z
-x,y,1/2-z
-x,-y,-z
x,y,1/2-z
-x,y,z
x,-y,1/2+z
1/2+x,1/2+y,z
1/2-x,1/2-y,1/2+z
1/2+x,1/2-y,-z
1/2-x,1/2+y,1/2-z
1/2-x,1/2-y,-z
1/2+x,1/2+y,1/2-z
1/2-x,1/2+y,z
1/2+x,1/2-y,1/2+z
loop_
_atom_site_type_symbol
_atom_site_label
_atom_site_fract_x
_atom_site_fract_y
_atom_site_fract_z
Si Si1 0.945138 0.973360 0.389562
Si Si2 0.860538 0.102190 0.356406
Si Si3 0.056682 0.766652 0.139895
Si Si4 0.717475 0.768257 0.858818
Si Si5 0.635325 0.236257 0.993836
Si Si6 0.257059 0.539442 0.362308
Si Si7 0.301784 0.870514 0.361799
O O1 0.930335 0.870851 0.373063
O O2 0.000000 0.990423 0.346486
O O3 0.943818 0.000000 0.500000
O O4 0.904776 0.033397 0.336835
O O5 0.845659 0.141309 0.250000
O O6 0.879175 0.182097 0.424055
O O7 0.812595 0.052899 0.403157
O O8 0.068774 0.736759 0.250000
O O9 0.000000 0.747685 0.114970
O O10 0.089070 0.710403 0.062560
O O11 0.697283 0.752635 0.750000
O O12 0.724527 0.872923 0.880921
O O13 0.769624 0.719518 0.871351
O O14 0.678759 0.730106 0.935078
O O15 0.650398 0.149722 0.928614
O O16 0.261992 0.515972 0.250000
O O17 0.229073 0.453458 0.408415
O O18 0.317418 0.888865 0.250000
#
# Coordination Sequence:
#
# PCOD8259366 Si02
#       7
#    16  16  16  16  16  16  16
#     4  10  20  36  55  80 111 147 197 245 282 335
#     4  11  22  35  54  79 114 158 198 235 282 338
#     4  10  22  40  59  80 111 151 195 243 293 346
#     4  10  21  38  54  79 115 150 199 246 281 333
#     4  12  22  35  55  84 111 149 192 242 284 338
#     4   9  20  37  55  78 114 157 196 233 281 344
#     4  10  21  37  56  80 115 155 193 238 291 342
#
# _framework density 20.026572999999999
#
# number of rings (size 3 to 8) (size 9 to 14) (size 15 to 20)
#    0.000    1.714    2.857    1.714    2.000    1.429 
#    0.000    0.000    0.000    1.286    0.000    2.000 
#    0.000    3.429    0.000    0.714    0.000    0.000 
#
# Total GULP energy -694295.285674 kJ/mol
# GULP energy per Si atom -12398.130101 kJ/mol
# Density = 1.998099 g / cm^3
# Si number density = 20.026573 Si / 1000 Ang^3
#
#
#
# Elastic Constant Matrix: (Units=GPa)
#
#
# Indices 1 2 3 4 5 6 
#
# 1 97.1896 26.8566 44.0043 0.0000 0.0000 0.0000
# 2 26.8566 72.4240 23.9816 0.0000 0.0000 0.0000
# 3 44.0043 23.9816 98.3088 0.0000 0.0000 0.0000
# 4 0.0000 0.0000 0.0000 20.5478 0.0000 0.0000
# 5 0.0000 0.0000 0.0000 0.0000 29.7730 0.0000
# 6 0.0000 0.0000 0.0000 0.0000 0.0000 28.0738
#
#
#
# Elastic Compliance Matrix: (Units=1/GPa)
#
#
# Indices 1 2 3 4 5 6 
#
# 1 0.013589 -0.003291 -0.005280 0.000000 0.000000 0.000000
# 2 -0.003291 0.015818 -0.002386 0.000000 0.000000 0.000000
# 3 -0.005280 -0.002386 0.013117 0.000000 0.000000 0.000000
# 4 0.000000 0.000000 0.000000 0.048667 0.000000 0.000000
# 5 0.000000 0.000000 0.000000 0.000000 0.033587 0.000000
# 6 0.000000 0.000000 0.000000 0.000000 0.000000 0.035620
#
#
# Mechanical properties :
#
#
# Convention : Reuss Voigt Hill
#
# Bulk Modulus (GPa) = 48.51639 50.84527 49.68083
# Shear Modulus (GPa) = 26.42952 27.21757 26.82355
#
# Velocity S-wave (km/s) = 3.63674 3.69056 3.66375
# Velocity P-wave (km/s) = 6.47403 6.60336 6.53902
#
# Compressibility (1/GPa) = 0.02061159
#
# Stress axis : x y z
#
# Youngs Moduli (GPa) = 73.58842 63.21970 76.23506
#
# Poissons Ratio (x) = 0.20805 0.40251
# Poissons Ratio (y) = 0.24217 0.18187
# Poissons Ratio (z) = 0.38854 0.15082
#
# Static dielectric constant tensor:
#      x y z
#    x 3.642770 0.000000 0.000000 
#    y 0.000000 3.352240 0.000000 
#    z 0.000000 0.000000 3.987490 
# 
# 
# High freq. dielectric constant tensor:
#      x y z
#    x 1.760820 0.000000 0.000000 
#    y 0.000000 1.745760 0.000000 
#    z 0.000000 0.000000 1.806310 
# 
# From -- ./inp_files/37914.got.cif
#   From: 2010.03.12/outbox.cif.g09.slc.cpg/sg63_19_cif.got.tgz:37914.got - 2010.04.10 19:34:48.
