data_PCOD8259232
_publ_section_title
;
Structure prediction by ZEFSAII (Michael W. Deem and Ramdas Pophale) SiO2 
 PCOD8259232
Probable space group: C M C M
;
_chemical_formula_sum "Si O2"
_cell_formula_units_Z 96
_cell_length_a 14.198369
_cell_length_b 32.043370
_cell_length_c 11.253324
_cell_angle_alpha 90.000000
_cell_angle_beta 90.000000
_cell_angle_gamma 90.000000
_cell_volume 5119.852701
_symmetry_space_group_name_H-M "C M C M"
_symmetry_group_IT_number 63
_symmetry_cell_setting 'orthorhombic'
loop_
_space_group_symop_operation_xyz
x,y,z
-x,-y,1/2+z
x,-y,-z
-x,y,1/2-z
-x,-y,-z
x,y,1/2-z
-x,y,z
x,-y,1/2+z
1/2+x,1/2+y,z
1/2-x,1/2-y,1/2+z
1/2+x,1/2-y,-z
1/2-x,1/2+y,1/2-z
1/2-x,1/2-y,-z
1/2+x,1/2+y,1/2-z
1/2-x,1/2+y,z
1/2+x,1/2-y,1/2+z
loop_
_atom_site_type_symbol
_atom_site_label
_atom_site_fract_x
_atom_site_fract_y
_atom_site_fract_z
Si Si1 0.610927 0.183462 0.250000
Si Si2 0.889134 0.547696 0.487738
Si Si3 0.767875 0.806667 0.110920
Si Si4 0.389229 0.527613 0.613584
Si Si5 0.888565 0.735749 0.478992
Si Si6 0.388308 0.909551 0.750000
Si Si7 0.255106 0.398601 0.114781
O O1 0.500000 0.178857 0.250000
O O2 0.643003 0.208322 0.134155
O O3 0.655747 0.136914 0.250000
O O4 0.856476 0.500000 0.500000
O O5 0.852670 0.564194 0.361693
O O6 0.839767 0.576576 0.584027
O O7 0.000000 0.552284 0.506515
O O8 0.790861 0.806332 0.250000
O O9 0.852458 0.782717 0.043225
O O10 0.765467 0.853298 0.053144
O O11 0.666714 0.784317 0.090095
O O12 0.354007 0.500000 0.500000
O O13 0.361150 0.511893 0.750000
O O14 0.500000 0.532505 0.606990
O O15 0.346079 0.573090 0.589715
O O16 0.000000 0.735505 0.503697
O O17 0.500000 0.907053 0.750000
O O18 0.243800 0.386915 0.250000
#
# Coordination Sequence:
#
# PCOD8259232 Si02
#       7
#     8  16  16  16  16   8  16
#     4   9  16  30  54  77  97 129 177 222 262 309
#     4  10  21  35  52  75 108 146 183 222 264 314
#     4  10  21  36  54  81 111 141 180 222 271 332
#     4   9  18  35  58  81 107 143 187 235 282 330
#     4  10  20  35  57  80 107 141 178 223 271 322
#     4   9  18  32  50  73  99 135 183 222 254 303
#     4  10  21  35  53  80 111 140 176 220 271 328
#
# _framework density 18.750540000000001
#
# number of rings (size 3 to 8) (size 9 to 14) (size 15 to 20)
#    0.000    2.333    0.833    1.500    1.167    3.333 
#    1.500    3.333    0.000    0.000    0.000    2.333 
#    0.000    0.000    0.000    0.000    0.000    0.000 
#
# Total GULP energy -594889.912983 kJ/mol
# GULP energy per Si atom -12393.539854 kJ/mol
# Density = 1.870786 g / cm^3
# Si number density = 18.750540 Si / 1000 Ang^3
#
#
#
# Elastic Constant Matrix: (Units=GPa)
#
#
# Indices 1 2 3 4 5 6 
#
# 1 56.3484 34.3906 21.8465 0.0000 0.0000 0.0000
# 2 34.3906 164.7480 42.7629 0.0000 0.0000 0.0000
# 3 21.8465 42.7629 54.0682 0.0000 0.0000 0.0000
# 4 0.0000 0.0000 0.0000 25.9872 0.0000 0.0000
# 5 0.0000 0.0000 0.0000 0.0000 20.4436 0.0000
# 6 0.0000 0.0000 0.0000 0.0000 0.0000 11.8634
#
#
#
# Elastic Compliance Matrix: (Units=1/GPa)
#
#
# Indices 1 2 3 4 5 6 
#
# 1 0.022083 -0.002886 -0.006640 0.000000 0.000000 0.000000
# 2 -0.002886 0.008015 -0.005173 0.000000 0.000000 0.000000
# 3 -0.006640 -0.005173 0.025269 0.000000 0.000000 0.000000
# 4 0.000000 0.000000 0.000000 0.038481 0.000000 0.000000
# 5 0.000000 0.000000 0.000000 0.000000 0.048915 0.000000
# 6 0.000000 0.000000 0.000000 0.000000 0.000000 0.084293
#
#
# Mechanical properties :
#
#
# Convention : Reuss Voigt Hill
#
# Bulk Modulus (GPa) = 38.50757 52.57385 45.54071
# Shear Modulus (GPa) = 18.86010 23.40314 21.13162
#
# Velocity S-wave (km/s) = 3.17494 3.53672 3.36071
# Velocity P-wave (km/s) = 5.83281 6.69159 6.27690
#
# Compressibility (1/GPa) = 0.02596892
#
# Stress axis : x y z
#
# Youngs Moduli (GPa) = 45.28470 124.76458 39.57358
#
# Poissons Ratio (x) = 0.36009 0.26276
# Poissons Ratio (y) = 0.13070 0.20471
# Poissons Ratio (z) = 0.30068 0.64541
#
# Static dielectric constant tensor:
#      x y z
#    x 3.190740 0.000000 0.000000 
#    y 0.000000 3.678650 0.000000 
#    z 0.000000 0.000000 3.801810 
# 
# 
# High freq. dielectric constant tensor:
#      x y z
#    x 1.712430 0.000000 0.000000 
#    y 0.000000 1.738890 0.000000 
#    z 0.000000 0.000000 1.723740 
# 
# From -- ./inp_files/20000.got.cif
#   From: 2010.03.12/outbox.cif.g09.slc.cpg/sg63_10_cif.got.tgz:20000.got - 2010.04.10 19:34:48.
