data_PCOD8259860
_publ_section_title
;
Structure prediction by ZEFSAII (Michael W. Deem and Ramdas Pophale) SiO2 
 PCOD8259860
Probable space group: C M C M
;
_chemical_formula_sum "Si O2"
_cell_formula_units_Z 112
_cell_length_a 13.150423
_cell_length_b 14.860619
_cell_length_c 33.085106
_cell_angle_alpha 90.000000
_cell_angle_beta 90.000000
_cell_angle_gamma 90.000000
_cell_volume 6465.604761
_symmetry_space_group_name_H-M "C M C M"
_symmetry_group_IT_number 63
_symmetry_cell_setting 'orthorhombic'
loop_
_space_group_symop_operation_xyz
x,y,z
-x,-y,1/2+z
x,-y,-z
-x,y,1/2-z
-x,-y,-z
x,y,1/2-z
-x,y,z
x,-y,1/2+z
1/2+x,1/2+y,z
1/2-x,1/2-y,1/2+z
1/2+x,1/2-y,-z
1/2-x,1/2+y,1/2-z
1/2-x,1/2-y,-z
1/2+x,1/2+y,1/2-z
1/2-x,1/2+y,z
1/2+x,1/2-y,1/2+z
loop_
_atom_site_type_symbol
_atom_site_label
_atom_site_fract_x
_atom_site_fract_y
_atom_site_fract_z
Si Si1 0.615046 0.152399 0.417135
Si Si2 0.113799 0.550985 0.797743
Si Si3 0.884457 0.843547 0.450664
Si Si4 0.617114 0.519102 0.406264
Si Si5 0.724921 0.406381 0.976992
Si Si6 0.752777 0.405113 0.658186
Si Si7 0.382087 0.255560 0.797740
O O1 0.500000 0.116467 0.415534
O O2 0.620893 0.258829 0.421721
O O3 0.664692 0.110907 0.457748
O O4 0.668431 0.129745 0.375204
O O5 0.113871 0.547962 0.750000
O O6 0.190094 0.473564 0.812201
O O7 0.144753 0.652808 0.811227
O O8 0.000000 0.530235 0.814050
O O9 0.813380 0.832109 0.490529
O O10 0.000000 0.863443 0.465205
O O11 0.842927 0.924180 0.423076
O O12 0.500000 0.519554 0.397547
O O13 0.645776 0.594579 0.439528
O O14 0.667145 0.536196 0.363271
O O15 0.725421 0.500000 0.000000
O O16 0.698276 0.322351 0.680975
O O17 0.368262 0.267278 0.750000
O O18 0.500000 0.277251 0.809632
#
# Coordination Sequence:
#
# PCOD8259860 Si02
#       7
#    16  16  16  16  16  16  16
#     4  10  21  32  45  71 101 133 165 204 255 303
#     4   9  19  36  56  76 101 137 176 209 247 302
#     4   9  17  31  49  67  95 128 164 207 252 300
#     4   9  18  30  47  74 100 125 161 205 255 300
#     4   9  17  31  50  68  88 128 173 211 245 296
#     4  11  20  31  54  77 105 134 167 208 253 309
#     4   9  19  36  57  80 104 133 172 215 256 300
#
# _framework density 17.322431000000002
#
# number of rings (size 3 to 8) (size 9 to 14) (size 15 to 20)
#    0.000    2.571    0.000    3.000    2.000    2.000 
#    0.000    0.000    0.000    0.857    0.000    6.000 
#    0.000    0.000    0.000    0.000    0.000    0.000 
#
# Total GULP energy -693989.250033 kJ/mol
# GULP energy per Si atom -12392.665179 kJ/mol
# Density = 1.728300 g / cm^3
# Si number density = 17.322431 Si / 1000 Ang^3
#
#
#
# Elastic Constant Matrix: (Units=GPa)
#
#
# Indices 1 2 3 4 5 6 
#
# 1 85.7562 40.1748 41.2359 0.0000 0.0000 0.0000
# 2 40.1748 72.0540 32.4716 0.0000 0.0000 0.0000
# 3 41.2359 32.4716 63.7772 0.0000 0.0000 0.0000
# 4 0.0000 0.0000 0.0000 24.2990 0.0000 0.0000
# 5 0.0000 0.0000 0.0000 0.0000 27.9029 0.0000
# 6 0.0000 0.0000 0.0000 0.0000 0.0000 30.9588
#
#
#
# Elastic Compliance Matrix: (Units=1/GPa)
#
#
# Indices 1 2 3 4 5 6 
#
# 1 0.019059 -0.006584 -0.008971 0.000000 0.000000 0.000000
# 2 -0.006584 0.020286 -0.006071 0.000000 0.000000 0.000000
# 3 -0.008971 -0.006071 0.024571 0.000000 0.000000 0.000000
# 4 0.000000 0.000000 0.000000 0.041154 0.000000 0.000000
# 5 0.000000 0.000000 0.000000 0.000000 0.035839 0.000000
# 6 0.000000 0.000000 0.000000 0.000000 0.000000 0.032301
#
#
# Mechanical properties :
#
#
# Convention : Reuss Voigt Hill
#
# Bulk Modulus (GPa) = 48.39435 49.92800 49.16118
# Shear Modulus (GPa) = 22.38656 23.81248 23.09952
#
# Velocity S-wave (km/s) = 3.59882 3.71166 3.65568
# Velocity P-wave (km/s) = 6.72805 6.87415 6.80149
#
# Compressibility (1/GPa) = 0.02066357
#
# Stress axis : x y z
#
# Youngs Moduli (GPa) = 52.46888 49.29626 40.69871
#
# Poissons Ratio (x) = 0.32456 0.36509
# Poissons Ratio (y) = 0.34545 0.24709
# Poissons Ratio (z) = 0.47068 0.29929
#
# Static dielectric constant tensor:
#      x y z
#    x 3.357800 0.000000 0.000000 
#    y 0.000000 3.267830 0.000000 
#    z 0.000000 0.000000 3.189650 
# 
# 
# High freq. dielectric constant tensor:
#      x y z
#    x 1.668800 0.000000 0.000000 
#    y 0.000000 1.666520 0.000000 
#    z 0.000000 0.000000 1.666780 
# 
# From -- ./inp_files/72860.got.cif
#   From: 2010.03.12/outbox.cif.g09.slc.cpg/sg63_37_cif.got.tgz:72860.got - 2010.04.10 19:34:48.
