data_PCOD8259929
_publ_section_title
;
Structure prediction by ZEFSAII (Michael W. Deem and Ramdas Pophale) SiO2 
 PCOD8259929
Probable space group: C M C M
;
_chemical_formula_sum "Si O2"
_cell_formula_units_Z 96
_cell_length_a 15.107482
_cell_length_b 22.110347
_cell_length_c 14.886718
_cell_angle_alpha 90.000000
_cell_angle_beta 90.000000
_cell_angle_gamma 90.000000
_cell_volume 4972.635264
_symmetry_space_group_name_H-M "C M C M"
_symmetry_group_IT_number 63
_symmetry_cell_setting 'orthorhombic'
loop_
_space_group_symop_operation_xyz
x,y,z
-x,-y,1/2+z
x,-y,-z
-x,y,1/2-z
-x,-y,-z
x,y,1/2-z
-x,y,z
x,-y,1/2+z
1/2+x,1/2+y,z
1/2-x,1/2-y,1/2+z
1/2+x,1/2-y,-z
1/2-x,1/2+y,1/2-z
1/2-x,1/2-y,-z
1/2+x,1/2+y,1/2-z
1/2-x,1/2+y,z
1/2+x,1/2-y,1/2+z
loop_
_atom_site_type_symbol
_atom_site_label
_atom_site_fract_x
_atom_site_fract_y
_atom_site_fract_z
Si Si1 0.098409 0.567103 0.355866
Si Si2 0.215525 0.978410 0.597880
Si Si3 0.652935 0.801992 0.849547
Si Si4 0.599200 0.307610 0.035495
Si Si5 0.846458 0.152844 0.151310
Si Si6 0.100592 0.083340 0.651466
O O1 0.111431 0.564992 0.250000
O O2 0.177035 0.525444 0.395596
O O3 0.106116 0.637062 0.386540
O O4 0.000000 0.543122 0.384089
O O5 0.169455 0.915913 0.622883
O O6 0.187887 0.000000 0.500000
O O7 0.170064 0.028390 0.660512
O O8 0.614889 0.783621 0.750000
O O9 0.646560 0.751670 0.926578
O O10 0.755496 0.812967 0.837931
O O11 0.500000 0.302039 0.070271
O O12 0.639905 0.367917 0.080708
O O13 0.600124 0.312620 0.927094
O O14 0.894519 0.155064 0.250000
O O15 0.097734 0.113680 0.750000
O O16 0.000000 0.062331 0.624296
#
# Coordination Sequence:
#
# PCOD8259929 Si02
#       6
#    16  16  16  16  16  16
#     4   9  18  33  55  83 110 139 179 225 275 328
#     4  11  20  35  55  75 108 144 183 229 272 320
#     4   9  18  34  57  81 107 139 178 224 270 318
#     4  11  21  33  53  82 111 139 176 221 271 322
#     4  10  21  37  54  76 107 145 185 220 263 321
#     4  10  21  35  52  77 109 144 182 224 272 324
#
# _framework density 19.305658000000001
#
# number of rings (size 3 to 8) (size 9 to 14) (size 15 to 20)
#    0.000    2.000    1.667    4.000    0.000    3.333 
#    0.000    0.000    0.000    0.000    0.000    0.000 
#    0.000    0.000    0.000    0.000    0.000    0.000 
#
# Total GULP energy -594737.470083 kJ/mol
# GULP energy per Si atom -12390.363960 kJ/mol
# Density = 1.926172 g / cm^3
# Si number density = 19.305658 Si / 1000 Ang^3
#
#
#
# Elastic Constant Matrix: (Units=GPa)
#
#
# Indices 1 2 3 4 5 6 
#
# 1 56.6652 31.8932 13.2851 0.0000 0.0000 0.0000
# 2 31.8932 93.5029 47.8829 0.0000 0.0000 0.0000
# 3 13.2851 47.8829 125.2873 0.0000 0.0000 0.0000
# 4 0.0000 0.0000 0.0000 25.1498 0.0000 0.0000
# 5 0.0000 0.0000 0.0000 0.0000 26.6937 0.0000
# 6 0.0000 0.0000 0.0000 0.0000 0.0000 14.2390
#
#
#
# Elastic Compliance Matrix: (Units=1/GPa)
#
#
# Indices 1 2 3 4 5 6 
#
# 1 0.021884 -0.007804 0.000662 0.000000 0.000000 0.000000
# 2 -0.007804 0.016080 -0.005318 0.000000 0.000000 0.000000
# 3 0.000662 -0.005318 0.009944 0.000000 0.000000 0.000000
# 4 0.000000 0.000000 0.000000 0.039762 0.000000 0.000000
# 5 0.000000 0.000000 0.000000 0.000000 0.037462 0.000000
# 6 0.000000 0.000000 0.000000 0.000000 0.000000 0.070229
#
#
# Mechanical properties :
#
#
# Convention : Reuss Voigt Hill
#
# Bulk Modulus (GPa) = 43.49939 51.28642 47.39290
# Shear Modulus (GPa) = 21.93521 25.37614 23.65567
#
# Velocity S-wave (km/s) = 3.37442 3.62945 3.50426
# Velocity P-wave (km/s) = 6.14517 6.64734 6.40118
#
# Compressibility (1/GPa) = 0.02298883
#
# Stress axis : x y z
#
# Youngs Moduli (GPa) = 45.69455 62.18914 100.56355
#
# Poissons Ratio (x) = 0.48530 -0.06656
# Poissons Ratio (y) = 0.35658 0.53480
# Poissons Ratio (z) = -0.03024 0.33073
#
# Static dielectric constant tensor:
#      x y z
#    x 3.448580 0.000000 0.000000 
#    y 0.000000 3.439960 0.000000 
#    z 0.000000 0.000000 3.868230 
# 
# 
# High freq. dielectric constant tensor:
#      x y z
#    x 1.740500 0.000000 0.000000 
#    y 0.000000 1.732840 0.000000 
#    z 0.000000 0.000000 1.756250 
# 
# From -- ./inp_files/31859.got.cif
#   From: 2010.03.12/outbox.cif.g09.slc.cpg/sg63_16_cif.got.tgz:31859.got - 2010.04.10 19:34:48.
