data_PCOD8259416
_publ_section_title
;
Structure prediction by ZEFSAII (Michael W. Deem and Ramdas Pophale) SiO2 
 PCOD8259416
Probable space group: C M C M
;
_chemical_formula_sum "Si O2"
_cell_formula_units_Z 112
_cell_length_a 18.535409
_cell_length_b 18.976336
_cell_length_c 17.339533
_cell_angle_alpha 90.000000
_cell_angle_beta 90.000000
_cell_angle_gamma 90.000000
_cell_volume 6098.905885
_symmetry_space_group_name_H-M "C M C M"
_symmetry_group_IT_number 63
_symmetry_cell_setting 'orthorhombic'
loop_
_space_group_symop_operation_xyz
x,y,z
-x,-y,1/2+z
x,-y,-z
-x,y,1/2-z
-x,-y,-z
x,y,1/2-z
-x,y,z
x,-y,1/2+z
1/2+x,1/2+y,z
1/2-x,1/2-y,1/2+z
1/2+x,1/2-y,-z
1/2-x,1/2+y,1/2-z
1/2-x,1/2-y,-z
1/2+x,1/2+y,1/2-z
1/2-x,1/2+y,z
1/2+x,1/2-y,1/2+z
loop_
_atom_site_type_symbol
_atom_site_label
_atom_site_fract_x
_atom_site_fract_y
_atom_site_fract_z
Si Si1 0.313020 0.934736 0.056850
Si Si2 0.420441 0.009465 0.160715
Si Si3 0.084868 0.941047 0.664046
Si Si4 0.152629 0.054000 0.929770
Si Si5 0.415334 0.338180 0.533202
Si Si6 0.414754 0.828148 0.660372
Si Si7 0.171424 0.715358 0.015871
O O1 0.233720 0.925411 0.092532
O O2 0.333689 0.864128 0.012612
O O3 0.368337 0.951131 0.124687
O O4 0.315482 0.000000 0.000000
O O5 0.422642 0.992273 0.250000
O O6 0.500000 0.999463 0.124464
O O7 0.395433 0.089794 0.147193
O O8 0.108325 0.919831 0.750000
O O9 0.115272 0.881025 0.606997
O O10 0.000000 0.947550 0.654911
O O11 0.116941 0.017760 0.644482
O O12 0.109404 0.124088 0.953884
O O13 0.148626 0.000000 0.000000
O O14 0.500000 0.333088 0.536018
O O15 0.383014 0.260338 0.536604
O O16 0.399953 0.807358 0.750000
O O17 0.500000 0.814132 0.641095
O O18 0.359904 0.784225 0.604415
O O19 0.250000 0.750000 0.000000
#
# Coordination Sequence:
#
# PCOD8259416 Si02
#       7
#    16  16  16  16  16  16  16
#     4  11  21  36  57  82 115 147 190 241 290 350
#     4   9  19  36  58  85 113 145 192 247 296 346
#     4   9  18  34  58  86 112 145 195 245 287 344
#     4   9  18  33  54  79 108 146 188 233 280 334
#     4  10  20  36  57  81 115 156 194 239 296 350
#     4   9  19  38  63  88 115 152 202 255 302 349
#     4  12  23  38  57  87 123 157 196 241 295 367
#
# _framework density 18.363951
#
# number of rings (size 3 to 8) (size 9 to 14) (size 15 to 20)
#    0.000    2.143    2.857    1.714    0.000    3.714 
#    0.000    4.286    0.000    4.286    0.000    0.000 
#    0.000    0.000    0.000    0.000    0.000    0.000 
#
# Total GULP energy -694079.542391 kJ/mol
# GULP energy per Si atom -12394.277543 kJ/mol
# Density = 1.832215 g / cm^3
# Si number density = 18.363951 Si / 1000 Ang^3
#
#
#
# Elastic Constant Matrix: (Units=GPa)
#
#
# Indices 1 2 3 4 5 6 
#
# 1 72.4813 38.9661 53.7926 0.0000 0.0000 0.0000
# 2 38.9661 102.6659 48.7378 0.0000 0.0000 0.0000
# 3 53.7926 48.7378 97.5784 0.0000 0.0000 0.0000
# 4 0.0000 0.0000 0.0000 24.2737 0.0000 0.0000
# 5 0.0000 0.0000 0.0000 0.0000 27.2451 0.0000
# 6 0.0000 0.0000 0.0000 0.0000 0.0000 33.9288
#
#
#
# Elastic Compliance Matrix: (Units=1/GPa)
#
#
# Indices 1 2 3 4 5 6 
#
# 1 0.024415 -0.003771 -0.011576 0.000000 0.000000 0.000000
# 2 -0.003771 0.013350 -0.004589 0.000000 0.000000 0.000000
# 3 -0.011576 -0.004589 0.018922 0.000000 0.000000 0.000000
# 4 0.000000 0.000000 0.000000 0.041197 0.000000 0.000000
# 5 0.000000 0.000000 0.000000 0.000000 0.036704 0.000000
# 6 0.000000 0.000000 0.000000 0.000000 0.000000 0.029474
#
#
# Mechanical properties :
#
#
# Convention : Reuss Voigt Hill
#
# Bulk Modulus (GPa) = 59.47143 61.74652 60.60897
# Shear Modulus (GPa) = 23.86189 25.83810 24.85000
#
# Velocity S-wave (km/s) = 3.60861 3.75507 3.68257
# Velocity P-wave (km/s) = 7.05818 7.24552 7.15246
#
# Compressibility (1/GPa) = 0.01681480
#
# Stress axis : x y z
#
# Youngs Moduli (GPa) = 40.95791 74.90506 52.84914
#
# Poissons Ratio (x) = 0.28249 0.61178
# Poissons Ratio (y) = 0.15447 0.24253
# Poissons Ratio (z) = 0.47412 0.34374
#
# Static dielectric constant tensor:
#      x y z
#    x 3.566440 0.000000 0.000000 
#    y 0.000000 3.469850 0.000000 
#    z 0.000000 0.000000 3.334140 
# 
# 
# High freq. dielectric constant tensor:
#      x y z
#    x 1.717890 0.000000 0.000000 
#    y 0.000000 1.703750 0.000000 
#    z 0.000000 0.000000 1.695870 
# 
# From -- ./inp_files/46128.got.cif
#   From: 2010.03.12/outbox.cif.g09.slc.cpg/sg63_24_cif.got.tgz:46128.got - 2010.04.10 19:34:48.
