data_PCOD8259061
_publ_section_title
;
Structure prediction by ZEFSAII (Michael W. Deem and Ramdas Pophale) SiO2 
 PCOD8259061
Probable space group: C M C M
;
_chemical_formula_sum "Si O2"
_cell_formula_units_Z 96
_cell_length_a 14.490567
_cell_length_b 13.343709
_cell_length_c 26.904773
_cell_angle_alpha 90.000000
_cell_angle_beta 90.000000
_cell_angle_gamma 90.000000
_cell_volume 5202.250657
_symmetry_space_group_name_H-M "C M C M"
_symmetry_group_IT_number 63
_symmetry_cell_setting 'orthorhombic'
loop_
_space_group_symop_operation_xyz
x,y,z
-x,-y,1/2+z
x,-y,-z
-x,y,1/2-z
-x,-y,-z
x,y,1/2-z
-x,y,z
x,-y,1/2+z
1/2+x,1/2+y,z
1/2-x,1/2-y,1/2+z
1/2+x,1/2-y,-z
1/2-x,1/2+y,1/2-z
1/2-x,1/2-y,-z
1/2+x,1/2+y,1/2-z
1/2-x,1/2+y,z
1/2+x,1/2-y,1/2+z
loop_
_atom_site_type_symbol
_atom_site_label
_atom_site_fract_x
_atom_site_fract_y
_atom_site_fract_z
Si Si1 0.605772 0.738047 0.429358
Si Si2 0.394729 0.394726 0.476970
Si Si3 0.252166 0.621020 0.607292
Si Si4 0.198896 0.267931 0.807568
Si Si5 0.500000 0.487825 0.193615
Si Si6 0.500000 0.250703 0.194112
Si Si7 0.182199 0.923305 0.645468
O O1 0.500000 0.755254 0.413341
O O2 0.612780 0.698511 0.485467
O O3 0.660221 0.843007 0.422098
O O4 0.653720 0.654516 0.396244
O O5 0.357218 0.500000 0.500000
O O6 0.500000 0.412601 0.460078
O O7 0.339646 0.361308 0.428320
O O8 0.259149 0.679458 0.659356
O O9 0.248499 0.503848 0.620814
O O10 0.195904 0.231850 0.750000
O O11 0.095480 0.291055 0.828986
O O12 0.260898 0.367211 0.811450
O O13 0.500000 0.527112 0.250000
O O14 0.500000 0.369774 0.190369
O O15 0.408741 0.526365 0.166932
O O16 0.500000 0.212360 0.250000
#
# Coordination Sequence:
#
# PCOD8259061 Si02
#       7
#    16  16  16  16   8   8  16
#     4  10  21  39  57  84 119 151 185 234 284 338
#     4  10  20  34  61  90 118 147 185 237 290 343
#     4  11  22  35  61  87 114 153 191 237 282 346
#     4  10  22  37  55  84 116 148 190 241 288 333
#     4  11  20  32  56  81 109 146 191 244 283 332
#     4   9  18  34  54  74 104 142 184 237 284 328
#     4  11  21  35  57  84 112 150 191 233 285 342
#
# _framework density 18.453551999999998
#
# number of rings (size 3 to 8) (size 9 to 14) (size 15 to 20)
#    0.000    1.667    4.167    1.000    2.333    0.667 
#    1.500    0.000    0.000    0.500    0.000    0.000 
#    0.000    0.000    0.000    0.000    0.000    0.000 
#
# Total GULP energy -595026.145392 kJ/mol
# GULP energy per Si atom -12396.378029 kJ/mol
# Density = 1.841155 g / cm^3
# Si number density = 18.453552 Si / 1000 Ang^3
#
#
#
# Elastic Constant Matrix: (Units=GPa)
#
#
# Indices 1 2 3 4 5 6 
#
# 1 84.2932 46.6038 18.5572 0.0000 0.0000 0.0000
# 2 46.6038 68.5083 26.8203 0.0000 0.0000 0.0000
# 3 18.5572 26.8203 73.1002 0.0000 0.0000 0.0000
# 4 0.0000 0.0000 0.0000 24.3329 0.0000 0.0000
# 5 0.0000 0.0000 0.0000 0.0000 -574.7797 0.0000
# 6 0.0000 0.0000 0.0000 0.0000 0.0000 24.8614
#
#
#
# Elastic Compliance Matrix: (Units=1/GPa)
#
#
# Indices 1 2 3 4 5 6 
#
# 1 0.019016 -0.012898 -0.000095 0.000000 0.000000 0.000000
# 2 -0.012898 0.025794 -0.006189 0.000000 0.000000 0.000000
# 3 -0.000095 -0.006189 0.015975 0.000000 0.000000 0.000000
# 4 0.000000 0.000000 0.000000 0.041097 0.000000 0.000000
# 5 0.000000 0.000000 0.000000 0.000000 -0.001740 0.000000
# 6 0.000000 0.000000 0.000000 0.000000 0.000000 0.040223
#
#
# Mechanical properties :
#
#
# Convention : Reuss Voigt Hill
#
# Bulk Modulus (GPa) = 44.60490 45.54047 45.07268
# Shear Modulus (GPa) = 26.85243 -96.18904 -34.66830
#
# Velocity S-wave (km/s) = 3.81876 -7.22759 -4.33908
# Velocity P-wave (km/s) = 6.60817 6.70215 0.79087
#
# Compressibility (1/GPa) = 0.02241906
#
# Stress axis : x y z
#
# Youngs Moduli (GPa) = 52.58864 38.76830 62.59845
#
# Poissons Ratio (x) = 0.50005 0.00594
# Poissons Ratio (y) = 0.67831 0.38745
# Poissons Ratio (z) = 0.00499 0.23995
#
# Static dielectric constant tensor:
#      x y z
#    x -155.074580 0.000000 0.000000 
#    y 0.000000 3.426030 0.000000 
#    z 0.000000 0.000000 3.418930 
# 
# 
# High freq. dielectric constant tensor:
#      x y z
#    x 1.717530 0.000000 0.000000 
#    y 0.000000 1.698510 0.000000 
#    z 0.000000 0.000000 1.719140 
# 
# From -- ./inp_files/69328.got.cif
#   From: 2010.03.12/outbox.cif.g09.slc.cpg/sg63_35_cif.got.tgz:69328.got - 2010.04.10 19:34:48.
