data_PCOD8259365
_publ_section_title
;
Structure prediction by ZEFSAII (Michael W. Deem and Ramdas Pophale) SiO2 
 PCOD8259365
Probable space group: C M C M
;
_chemical_formula_sum "Si O2"
_cell_formula_units_Z 72
_cell_length_a 15.020207
_cell_length_b 29.033273
_cell_length_c 8.651476
_cell_angle_alpha 90.000000
_cell_angle_beta 90.000000
_cell_angle_gamma 90.000000
_cell_volume 3772.785576
_symmetry_space_group_name_H-M "C M C M"
_symmetry_group_IT_number 63
_symmetry_cell_setting 'orthorhombic'
loop_
_space_group_symop_operation_xyz
x,y,z
-x,-y,1/2+z
x,-y,-z
-x,y,1/2-z
-x,-y,-z
x,y,1/2-z
-x,y,z
x,-y,1/2+z
1/2+x,1/2+y,z
1/2-x,1/2-y,1/2+z
1/2+x,1/2-y,-z
1/2-x,1/2+y,1/2-z
1/2-x,1/2-y,-z
1/2+x,1/2+y,1/2-z
1/2-x,1/2+y,z
1/2+x,1/2-y,1/2+z
loop_
_atom_site_type_symbol
_atom_site_label
_atom_site_fract_x
_atom_site_fract_y
_atom_site_fract_z
Si Si1 0.249068 0.139906 0.569494
Si Si2 0.500000 0.549124 0.429136
Si Si3 0.601541 0.702669 0.070615
Si Si4 0.693450 0.550944 0.432644
Si Si5 0.602889 0.799916 0.928650
O O1 0.229316 0.142098 0.750000
O O2 0.167238 0.162242 0.477438
O O3 0.260173 0.086965 0.513252
O O4 0.341014 0.165311 0.532529
O O5 0.500000 0.500000 0.500000
O O6 0.500000 0.540980 0.250000
O O7 0.594406 0.572014 0.475050
O O8 0.614887 0.714444 0.250000
O O9 0.500000 0.686750 0.037915
O O10 0.626534 0.747696 0.972728
O O11 0.708722 0.500000 0.500000
O O12 0.710419 0.549256 0.250000
O O13 0.627355 0.807215 0.750000
O O14 0.500000 0.810320 0.962938
#
# Coordination Sequence:
#
# PCOD8259365 Si02
#       5
#    16   8  16  16  16
#     4  12  24  36  55  83 114 150 189 229 275 330
#     4   8  16  30  50  72 100 138 176 216 262 314
#     4  10  21  37  57  82 115 151 186 228 276 328
#     4  10  20  36  55  79 110 146 187 229 277 326
#     4  10  21  39  61  83 109 143 185 233 283 334
#
# _framework density 19.084043999999999
#
# number of rings (size 3 to 8) (size 9 to 14) (size 15 to 20)
#    0.000    1.778    0.000    4.667    1.556    3.556 
#    0.000    0.000    0.000    0.667    0.000    0.000 
#    0.000    0.000    0.000    0.000    0.000    0.000 
#
# Total GULP energy -446292.159255 kJ/mol
# GULP energy per Si atom -12397.004424 kJ/mol
# Density = 1.904061 g / cm^3
# Si number density = 19.084044 Si / 1000 Ang^3
#
#
#
# Elastic Constant Matrix: (Units=GPa)
#
#
# Indices 1 2 3 4 5 6 
#
# 1 67.4221 46.7132 26.4963 0.0000 0.0000 0.0000
# 2 46.7132 98.9220 25.4357 0.0000 0.0000 0.0000
# 3 26.4963 25.4357 65.9911 0.0000 0.0000 0.0000
# 4 0.0000 0.0000 0.0000 33.1579 0.0000 0.0000
# 5 0.0000 0.0000 0.0000 0.0000 26.6475 0.0000
# 6 0.0000 0.0000 0.0000 0.0000 0.0000 22.6744
#
#
#
# Elastic Compliance Matrix: (Units=1/GPa)
#
#
# Indices 1 2 3 4 5 6 
#
# 1 0.023904 -0.009791 -0.005824 0.000000 0.000000 0.000000
# 2 -0.009791 0.015231 -0.001940 0.000000 0.000000 0.000000
# 3 -0.005824 -0.001940 0.018240 0.000000 0.000000 0.000000
# 4 0.000000 0.000000 0.000000 0.030159 0.000000 0.000000
# 5 0.000000 0.000000 0.000000 0.000000 0.037527 0.000000
# 6 0.000000 0.000000 0.000000 0.000000 0.000000 0.044103
#
#
# Mechanical properties :
#
#
# Convention : Reuss Voigt Hill
#
# Bulk Modulus (GPa) = 44.91120 47.73620 46.32370
# Shear Modulus (GPa) = 23.61902 25.40861 24.51381
#
# Velocity S-wave (km/s) = 3.52182 3.65280 3.58791
# Velocity P-wave (km/s) = 6.33420 6.54665 6.44130
#
# Compressibility (1/GPa) = 0.02226616
#
# Stress axis : x y z
#
# Youngs Moduli (GPa) = 41.83382 65.65548 54.82559
#
# Poissons Ratio (x) = 0.64280 0.31931
# Poissons Ratio (y) = 0.40957 0.10634
# Poissons Ratio (z) = 0.24365 0.12735
#
# Static dielectric constant tensor:
#      x y z
#    x 3.553840 0.000000 0.000000 
#    y 0.000000 3.372660 0.000000 
#    z 0.000000 0.000000 3.509470 
# 
# 
# High freq. dielectric constant tensor:
#      x y z
#    x 1.727630 0.000000 0.000000 
#    y 0.000000 1.736000 0.000000 
#    z 0.000000 0.000000 1.755870 
# 
# From -- ./inp_files/4595.got.cif
#   From: 2010.03.12/outbox.cif.g09.slc.cpg/sg63_3_cif.got.tgz:4595.got - 2010.04.10 19:34:48.
