data_PCOD8259648
_publ_section_title
;
Structure prediction by ZEFSAII (Michael W. Deem and Ramdas Pophale) SiO2 
 PCOD8259648
Probable space group: C M C M
;
_chemical_formula_sum "Si O2"
_cell_formula_units_Z 72
_cell_length_a 17.591065
_cell_length_b 23.643256
_cell_length_c 8.910081
_cell_angle_alpha 90.000000
_cell_angle_beta 90.000000
_cell_angle_gamma 90.000000
_cell_volume 3705.792262
_symmetry_space_group_name_H-M "C M C M"
_symmetry_group_IT_number 63
_symmetry_cell_setting 'orthorhombic'
loop_
_space_group_symop_operation_xyz
x,y,z
-x,-y,1/2+z
x,-y,-z
-x,y,1/2-z
-x,-y,-z
x,y,1/2-z
-x,y,z
x,-y,1/2+z
1/2+x,1/2+y,z
1/2-x,1/2-y,1/2+z
1/2+x,1/2-y,-z
1/2-x,1/2+y,1/2-z
1/2-x,1/2-y,-z
1/2+x,1/2+y,1/2-z
1/2-x,1/2+y,z
1/2+x,1/2-y,1/2+z
loop_
_atom_site_type_symbol
_atom_site_label
_atom_site_fract_x
_atom_site_fract_y
_atom_site_fract_z
Si Si1 0.083906 0.244229 0.427022
Si Si2 0.788169 0.440575 0.574780
Si Si3 0.089431 0.631851 0.576983
Si Si4 0.638226 0.625696 0.074104
Si Si5 0.500000 0.561284 0.927958
O O1 0.076607 0.250403 0.250000
O O2 0.112935 0.305471 0.485171
O O3 0.138857 0.192326 0.471458
O O4 0.000000 0.231052 0.493193
O O5 0.769924 0.500000 0.500000
O O6 0.794256 0.450802 0.750000
O O7 0.867298 0.415198 0.518210
O O8 0.720539 0.397876 0.532051
O O9 0.112675 0.624372 0.750000
O O10 0.000000 0.622358 0.554566
O O11 0.619058 0.617995 0.250000
O O12 0.575116 0.593776 0.978881
O O13 0.500000 0.555363 0.750000
O O14 0.500000 0.500000 0.000000
#
# Coordination Sequence:
#
# PCOD8259648 Si02
#       5
#    16  16  16  16   8
#     4   8  14  30  59  87 113 148 186 222 272 339
#     4  11  24  39  57  82 113 151 192 240 290 335
#     4   9  19  37  62  88 112 147 188 228 283 349
#     4  10  20  37  60  84 114 153 192 230 279 338
#     4  12  24  36  54  82 114 154 199 238 281 326
#
# _framework density 19.429044000000001
#
# number of rings (size 3 to 8) (size 9 to 14) (size 15 to 20)
#    0.000    2.222    1.111    3.667    0.000    5.333 
#    0.000    1.111    0.000    0.000    0.000    0.000 
#    0.000    0.000    0.000    0.000    0.000    0.000 
#
# Total GULP energy -446328.790262 kJ/mol
# GULP energy per Si atom -12398.021952 kJ/mol
# Density = 1.938482 g / cm^3
# Si number density = 19.429044 Si / 1000 Ang^3
#
#
#
# Elastic Constant Matrix: (Units=GPa)
#
#
# Indices 1 2 3 4 5 6 
#
# 1 80.6011 38.7228 41.3691 0.0000 0.0000 0.0000
# 2 38.7228 87.8034 32.4912 0.0000 0.0000 0.0000
# 3 41.3691 32.4912 73.3301 0.0000 0.0000 0.0000
# 4 0.0000 0.0000 0.0000 20.5791 0.0000 0.0000
# 5 0.0000 0.0000 0.0000 0.0000 25.2031 0.0000
# 6 0.0000 0.0000 0.0000 0.0000 0.0000 16.3127
#
#
#
# Elastic Compliance Matrix: (Units=1/GPa)
#
#
# Indices 1 2 3 4 5 6 
#
# 1 0.019381 -0.005384 -0.008548 0.000000 0.000000 0.000000
# 2 -0.005384 0.015118 -0.003661 0.000000 0.000000 0.000000
# 3 -0.008548 -0.003661 0.020082 0.000000 0.000000 0.000000
# 4 0.000000 0.000000 0.000000 0.048593 0.000000 0.000000
# 5 0.000000 0.000000 0.000000 0.000000 0.039678 0.000000
# 6 0.000000 0.000000 0.000000 0.000000 0.000000 0.061302
#
#
# Mechanical properties :
#
#
# Convention : Reuss Voigt Hill
#
# Bulk Modulus (GPa) = 51.56247 51.87786 51.72016
# Shear Modulus (GPa) = 20.34135 21.02909 20.68522
#
# Velocity S-wave (km/s) = 3.23918 3.29348 3.26644
# Velocity P-wave (km/s) = 6.37073 6.42043 6.39563
#
# Compressibility (1/GPa) = 0.01939395
#
# Stress axis : x y z
#
# Youngs Moduli (GPa) = 51.59751 66.14463 49.79684
#
# Poissons Ratio (x) = 0.35613 0.42567
# Poissons Ratio (y) = 0.27781 0.18232
# Poissons Ratio (z) = 0.44106 0.24217
#
# Static dielectric constant tensor:
#      x y z
#    x 3.395050 0.000000 0.000000 
#    y 0.000000 3.915790 0.000000 
#    z 0.000000 0.000000 3.292560 
# 
# 
# High freq. dielectric constant tensor:
#      x y z
#    x 1.748690 0.000000 0.000000 
#    y 0.000000 1.774850 0.000000 
#    z 0.000000 0.000000 1.730700 
# 
# From -- ./inp_files/6100.got.cif
#   From: 2010.03.12/outbox.cif.g09.slc.cpg/sg63_4_cif.got.tgz:6100.got - 2010.04.10 19:34:48.
