data_PCOD8259658
_publ_section_title
;
Structure prediction by ZEFSAII (Michael W. Deem and Ramdas Pophale) SiO2 
 PCOD8259658
Probable space group: C M C M
;
_chemical_formula_sum "Si O2"
_cell_formula_units_Z 80
_cell_length_a 28.373313
_cell_length_b 13.977152
_cell_length_c 9.836257
_cell_angle_alpha 90.000000
_cell_angle_beta 90.000000
_cell_angle_gamma 90.000000
_cell_volume 3900.844196
_symmetry_space_group_name_H-M "C M C M"
_symmetry_group_IT_number 63
_symmetry_cell_setting 'orthorhombic'
loop_
_space_group_symop_operation_xyz
x,y,z
-x,-y,1/2+z
x,-y,-z
-x,y,1/2-z
-x,-y,-z
x,y,1/2-z
-x,y,z
x,-y,1/2+z
1/2+x,1/2+y,z
1/2-x,1/2-y,1/2+z
1/2+x,1/2-y,-z
1/2-x,1/2+y,1/2-z
1/2-x,1/2-y,-z
1/2+x,1/2+y,1/2-z
1/2-x,1/2+y,z
1/2+x,1/2-y,1/2+z
loop_
_atom_site_type_symbol
_atom_site_label
_atom_site_fract_x
_atom_site_fract_y
_atom_site_fract_z
Si Si1 0.211243 0.607373 0.534939
Si Si2 0.633944 0.594126 0.411596
Si Si3 0.802469 0.792085 0.105625
Si Si4 0.052098 0.770770 0.590744
Si Si5 0.105957 0.586380 0.598569
O O1 0.227859 0.500000 0.500000
O O2 0.204409 0.677197 0.404797
O O3 0.252182 0.655658 0.623240
O O4 0.161772 0.602594 0.613556
O O5 0.641085 0.500000 0.500000
O O6 0.643685 0.578406 0.250000
O O7 0.670518 0.671149 0.471629
O O8 0.581186 0.632513 0.438622
O O9 0.829277 0.810766 0.250000
O O10 0.047256 0.756303 0.750000
O O11 0.080472 0.679297 0.533658
O O12 0.000000 0.778979 0.523798
O O13 0.092992 0.500000 0.500000
O O14 0.086770 0.563920 0.750000
#
# Coordination Sequence:
#
# PCOD8259658 Si02
#       5
#    16  16  16  16  16
#     4  10  22  38  58  88 124 163 198 243 290 348
#     4  11  23  41  63  88 120 157 200 250 305 364
#     4  11  23  38  61  91 124 162 205 247 294 354
#     4   9  19  38  62  86 116 156 198 245 305 365
#     4  10  20  37  60  87 120 158 197 241 291 351
#
# _framework density 20.508382000000001
#
# number of rings (size 3 to 8) (size 9 to 14) (size 15 to 20)
#    0.000    1.800    2.000    1.800    0.000    8.000 
#    0.000    0.000    0.000    4.200    0.000    0.000 
#    0.000    0.000    0.000    0.000    0.000    0.000 
#
# Total GULP energy -495622.407747 kJ/mol
# GULP energy per Si atom -12390.560194 kJ/mol
# Density = 2.046170 g / cm^3
# Si number density = 20.508382 Si / 1000 Ang^3
#
#
#
# Elastic Constant Matrix: (Units=GPa)
#
#
# Indices 1 2 3 4 5 6 
#
# 1 75.6389 22.8156 20.9428 0.0000 0.0000 0.0000
# 2 22.8156 139.5058 50.4996 0.0000 0.0000 0.0000
# 3 20.9428 50.4996 119.8893 0.0000 0.0000 0.0000
# 4 0.0000 0.0000 0.0000 19.9280 0.0000 0.0000
# 5 0.0000 0.0000 0.0000 0.0000 -74.6627 0.0000
# 6 0.0000 0.0000 0.0000 0.0000 0.0000 25.9059
#
#
#
# Elastic Compliance Matrix: (Units=1/GPa)
#
#
# Indices 1 2 3 4 5 6 
#
# 1 0.014220 -0.001683 -0.001775 0.000000 0.000000 0.000000
# 2 -0.001683 0.008657 -0.003352 0.000000 0.000000 0.000000
# 3 -0.001775 -0.003352 0.010063 0.000000 0.000000 0.000000
# 4 0.000000 0.000000 0.000000 0.050181 0.000000 0.000000
# 5 0.000000 0.000000 0.000000 0.000000 -0.013394 0.000000
# 6 0.000000 0.000000 0.000000 0.000000 0.000000 0.038601
#
#
# Mechanical properties :
#
#
# Convention : Reuss Voigt Hill
#
# Bulk Modulus (GPa) = 51.76279 58.17222 54.96750
# Shear Modulus (GPa) = 38.94414 10.28599 24.61506
#
# Velocity S-wave (km/s) = 4.36241 2.24196 3.46821
# Velocity P-wave (km/s) = 7.11820 5.92693 6.54971
#
# Compressibility (1/GPa) = 0.01931890
#
# Stress axis : x y z
#
# Youngs Moduli (GPa) = 70.32423 115.51373 99.37170
#
# Poissons Ratio (x) = 0.19442 0.17639
# Poissons Ratio (y) = 0.11836 0.33314
# Poissons Ratio (z) = 0.12483 0.38726
#
# Static dielectric constant tensor:
#      x y z
#    x 3.933870 0.000000 0.000000 
#    y 0.000000 3.829540 0.000000 
#    z 0.000000 0.000000 3.418660 
# 
# 
# High freq. dielectric constant tensor:
#      x y z
#    x 1.792370 0.000000 0.000000 
#    y 0.000000 1.812060 0.000000 
#    z 0.000000 0.000000 1.779830 
# 
# From -- ./inp_files/25640.got.cif
#   From: 2010.03.12/outbox.cif.g09.slc.cpg/sg63_13_cif.got.tgz:25640.got - 2010.04.10 19:34:48.
