data_PCOD8259402
_publ_section_title
;
Structure prediction by ZEFSAII (Michael W. Deem and Ramdas Pophale) SiO2 
 PCOD8259402
Probable space group: C M C M
;
_chemical_formula_sum "Si O2"
_cell_formula_units_Z 112
_cell_length_a 30.372773
_cell_length_b 11.464187
_cell_length_c 16.296772
_cell_angle_alpha 90.000000
_cell_angle_beta 90.000000
_cell_angle_gamma 90.000000
_cell_volume 5674.522148
_symmetry_space_group_name_H-M "C M C M"
_symmetry_group_IT_number 63
_symmetry_cell_setting 'orthorhombic'
loop_
_space_group_symop_operation_xyz
x,y,z
-x,-y,1/2+z
x,-y,-z
-x,y,1/2-z
-x,-y,-z
x,y,1/2-z
-x,y,z
x,-y,1/2+z
1/2+x,1/2+y,z
1/2-x,1/2-y,1/2+z
1/2+x,1/2-y,-z
1/2-x,1/2+y,1/2-z
1/2-x,1/2-y,-z
1/2+x,1/2+y,1/2-z
1/2-x,1/2+y,z
1/2+x,1/2-y,1/2+z
loop_
_atom_site_type_symbol
_atom_site_label
_atom_site_fract_x
_atom_site_fract_y
_atom_site_fract_z
Si Si1 0.691749 0.827474 0.399236
Si Si2 0.915058 0.886066 0.960647
Si Si3 0.549529 0.802878 0.344467
Si Si4 0.857628 0.718493 0.063461
Si Si5 0.161267 0.083398 0.341305
Si Si6 0.213568 0.860181 0.343902
Si Si7 0.620831 0.007190 0.843884
O O1 0.674693 0.823136 0.491735
O O2 0.679129 0.713426 0.348629
O O3 0.744249 0.839758 0.401099
O O4 0.669235 0.936982 0.353638
O O5 0.946585 0.812210 0.900874
O O6 0.875821 0.942076 0.907810
O O7 0.895820 0.803782 0.031847
O O8 0.939499 0.000000 0.000000
O O9 0.559988 0.768673 0.250000
O O10 0.500000 0.852065 0.352757
O O11 0.584004 0.900385 0.375325
O O12 0.827590 0.779868 0.131713
O O13 0.882899 0.608564 0.102059
O O14 0.141788 0.065568 0.250000
O O15 0.201201 0.994993 0.356830
O O16 0.225812 0.832056 0.250000
O O17 0.611780 0.973667 0.750000
#
# Coordination Sequence:
#
# PCOD8259402 Si02
#       7
#    16  16  16  16  16  16  16
#     4  11  23  37  59  81 118 158 210 258 300 350
#     4  11  21  39  62  88 124 157 200 240 304 360
#     4  10  22  42  70  96 118 153 201 250 304 374
#     4  11  23  39  57  87 122 161 203 249 303 358
#     4  10  20  36  57  79 112 159 206 248 290 350
#     4  11  23  37  54  84 121 164 212 254 298 350
#     4  11  22  40  62  87 120 159 200 251 309 367
#
# _framework density 19.737345000000001
#
# number of rings (size 3 to 8) (size 9 to 14) (size 15 to 20)
#    0.000    1.286    4.286    3.000    2.000    0.286 
#    5.143    1.429    0.000    0.000    0.000    2.000 
#    0.000    0.000    0.000    0.000    0.000    0.000 
#
# Total GULP energy -694539.471008 kJ/mol
# GULP energy per Si atom -12402.490554 kJ/mol
# Density = 1.969242 g / cm^3
# Si number density = 19.737345 Si / 1000 Ang^3
#
#
#
# Elastic Constant Matrix: (Units=GPa)
#
#
# Indices 1 2 3 4 5 6 
#
# 1 67.6744 28.6649 16.4468 0.0000 0.0000 0.0000
# 2 28.6649 119.0297 53.9469 0.0000 0.0000 0.0000
# 3 16.4468 53.9469 81.6187 0.0000 0.0000 0.0000
# 4 0.0000 0.0000 0.0000 33.5042 0.0000 0.0000
# 5 0.0000 0.0000 0.0000 0.0000 18.8829 0.0000
# 6 0.0000 0.0000 0.0000 0.0000 0.0000 14.2282
#
#
#
# Elastic Compliance Matrix: (Units=1/GPa)
#
#
# Indices 1 2 3 4 5 6 
#
# 1 0.016512 -0.003524 -0.000998 0.000000 0.000000 0.000000
# 2 -0.003524 0.012746 -0.007715 0.000000 0.000000 0.000000
# 3 -0.000998 -0.007715 0.017552 0.000000 0.000000 0.000000
# 4 0.000000 0.000000 0.000000 0.029847 0.000000 0.000000
# 5 0.000000 0.000000 0.000000 0.000000 0.052958 0.000000
# 6 0.000000 0.000000 0.000000 0.000000 0.000000 0.070283
#
#
# Mechanical properties :
#
#
# Convention : Reuss Voigt Hill
#
# Bulk Modulus (GPa) = 44.76882 51.82667 48.29775
# Shear Modulus (GPa) = 21.56863 24.60733 23.08798
#
# Velocity S-wave (km/s) = 3.30931 3.53475 3.42389
# Velocity P-wave (km/s) = 6.11012 6.55549 6.33672
#
# Compressibility (1/GPa) = 0.02233697
#
# Stress axis : x y z
#
# Youngs Moduli (GPa) = 60.56245 78.45309 56.97227
#
# Poissons Ratio (x) = 0.27648 0.05686
# Poissons Ratio (y) = 0.21343 0.43953
# Poissons Ratio (z) = 0.06044 0.60525
#
# Static dielectric constant tensor:
#      x y z
#    x 3.380940 0.000000 0.000000 
#    y 0.000000 3.643910 0.000000 
#    z 0.000000 0.000000 3.676090 
# 
# 
# High freq. dielectric constant tensor:
#      x y z
#    x 1.742180 0.000000 0.000000 
#    y 0.000000 1.773810 0.000000 
#    z 0.000000 0.000000 1.779460 
# 
# From -- ./inp_files/38577.got.cif
#   From: 2010.03.12/outbox.cif.g09.slc.cpg/sg63_20_cif.got.tgz:38577.got - 2010.04.10 19:34:48.
