data_PCOD8259122
_publ_section_title
;
Structure prediction by ZEFSAII (Michael W. Deem and Ramdas Pophale) SiO2 
 PCOD8259122
Probable space group: C M C M
;
_chemical_formula_sum "Si O2"
_cell_formula_units_Z 96
_cell_length_a 16.550387
_cell_length_b 15.511395
_cell_length_c 19.294358
_cell_angle_alpha 90.000000
_cell_angle_beta 90.000000
_cell_angle_gamma 90.000000
_cell_volume 4953.239678
_symmetry_space_group_name_H-M "C M C M"
_symmetry_group_IT_number 63
_symmetry_cell_setting 'orthorhombic'
loop_
_space_group_symop_operation_xyz
x,y,z
-x,-y,1/2+z
x,-y,-z
-x,y,1/2-z
-x,-y,-z
x,y,1/2-z
-x,y,z
x,-y,1/2+z
1/2+x,1/2+y,z
1/2-x,1/2-y,1/2+z
1/2+x,1/2-y,-z
1/2-x,1/2+y,1/2-z
1/2-x,1/2-y,-z
1/2+x,1/2+y,1/2-z
1/2-x,1/2+y,z
1/2+x,1/2-y,1/2+z
loop_
_atom_site_type_symbol
_atom_site_label
_atom_site_fract_x
_atom_site_fract_y
_atom_site_fract_z
Si Si1 0.323627 0.258996 0.049821
Si Si2 0.786328 0.308297 0.327951
Si Si3 0.091831 0.425217 0.949359
Si Si4 0.405453 0.587513 0.028176
Si Si5 0.590591 0.047912 0.670159
Si Si6 0.907168 0.849029 0.674278
O O1 0.292158 0.288828 0.125386
O O2 0.363794 0.165594 0.049817
O O3 0.250000 0.250000 0.000000
O O4 0.381981 0.330660 0.018043
O O5 0.754421 0.325581 0.250000
O O6 0.839273 0.388158 0.356681
O O7 0.849797 0.231936 0.327888
O O8 0.098679 0.458715 0.870915
O O9 0.000000 0.408053 0.972737
O O10 0.128496 0.500000 0.000000
O O11 0.500000 0.579726 0.020489
O O12 0.380837 0.591775 0.109547
O O13 0.363671 0.500000 0.000000
O O14 0.604334 0.025515 0.750000
O O15 0.500000 0.087203 0.658244
O O16 0.897283 0.895767 0.750000
O O17 0.000000 0.818535 0.664855
#
# Coordination Sequence:
#
# PCOD8259122 Si02
#       6
#    16  16  16  16  16  16
#     4  12  23  37  56  83 117 155 185 235 292 355
#     4  10  20  35  54  85 120 151 187 232 289 346
#     4  10  22  38  58  83 111 147 193 238 284 341
#     4  10  22  40  61  84 113 151 197 243 285 338
#     4   9  18  35  60  86 112 145 188 238 288 339
#     4   9  17  33  59  86 111 144 190 241 287 332
#
# _framework density 19.381254999999999
#
# number of rings (size 3 to 8) (size 9 to 14) (size 15 to 20)
#    0.000    2.000    1.667    2.000    0.000    4.667 
#    0.000    0.833    0.000    2.500    0.000    0.000 
#    0.000    0.000    0.000    0.000    0.000    0.000 
#
# Total GULP energy -594806.950293 kJ/mol
# GULP energy per Si atom -12391.811464 kJ/mol
# Density = 1.933714 g / cm^3
# Si number density = 19.381255 Si / 1000 Ang^3
#
#
#
# Elastic Constant Matrix: (Units=GPa)
#
#
# Indices 1 2 3 4 5 6 
#
# 1 41.8584 42.5528 42.8139 0.0000 0.0000 0.0000
# 2 42.5528 139.9728 67.8177 0.0000 0.0000 0.0000
# 3 42.8139 67.8177 137.5109 0.0000 0.0000 0.0000
# 4 0.0000 0.0000 0.0000 28.8426 0.0000 0.0000
# 5 0.0000 0.0000 0.0000 0.0000 42.6660 0.0000
# 6 0.0000 0.0000 0.0000 0.0000 0.0000 -34.8844
#
#
#
# Elastic Compliance Matrix: (Units=1/GPa)
#
#
# Indices 1 2 3 4 5 6 
#
# 1 0.041298 -0.008311 -0.008759 0.000000 0.000000 0.000000
# 2 -0.008311 0.011060 -0.002867 0.000000 0.000000 0.000000
# 3 -0.008759 -0.002867 0.011413 0.000000 0.000000 0.000000
# 4 0.000000 0.000000 0.000000 0.034671 0.000000 0.000000
# 5 0.000000 0.000000 0.000000 0.000000 0.023438 0.000000
# 6 0.000000 0.000000 0.000000 0.000000 0.000000 -0.028666
#
#
# Mechanical properties :
#
#
# Convention : Reuss Voigt Hill
#
# Bulk Modulus (GPa) = 41.84646 69.52340 55.68493
# Shear Modulus (GPa) = 35.44736 18.40201 26.92469
#
# Velocity S-wave (km/s) = 4.28126 3.08470 3.73126
# Velocity P-wave (km/s) = 6.78801 6.97399 6.88162
#
# Compressibility (1/GPa) = 0.02389688
#
# Stress axis : x y z
#
# Youngs Moduli (GPa) = 24.21412 90.41688 87.61743
#
# Poissons Ratio (x) = 0.75146 0.76747
# Poissons Ratio (y) = 0.20124 0.25119
# Poissons Ratio (z) = 0.21210 0.25922
#
# Static dielectric constant tensor:
#      x y z
#    x 5.046280 0.000000 0.000000 
#    y 0.000000 3.442290 0.000000 
#    z 0.000000 0.000000 22.006610 
# 
# 
# High freq. dielectric constant tensor:
#      x y z
#    x 1.741440 0.000000 0.000000 
#    y 0.000000 1.739640 0.000000 
#    z 0.000000 0.000000 1.772360 
# 
# From -- ./inp_files/54214.got.cif
#   From: 2010.03.12/outbox.cif.g09.slc.cpg/sg63_28_cif.got.tgz:54214.got - 2010.04.10 19:34:48.
