data_PCOD8259534
_publ_section_title
;
Structure prediction by ZEFSAII (Michael W. Deem and Ramdas Pophale) SiO2 
 PCOD8259534
Probable space group: C M C M
;
_chemical_formula_sum "Si O2"
_cell_formula_units_Z 116
_cell_length_a 17.076968
_cell_length_b 14.430497
_cell_length_c 23.463720
_cell_angle_alpha 90.000000
_cell_angle_beta 90.000000
_cell_angle_gamma 90.000000
_cell_volume 5782.144235
_symmetry_space_group_name_H-M "C M C M"
_symmetry_group_IT_number 63
_symmetry_cell_setting 'orthorhombic'
loop_
_space_group_symop_operation_xyz
x,y,z
-x,-y,1/2+z
x,-y,-z
-x,y,1/2-z
-x,-y,-z
x,y,1/2-z
-x,y,z
x,-y,1/2+z
1/2+x,1/2+y,z
1/2-x,1/2-y,1/2+z
1/2+x,1/2-y,-z
1/2-x,1/2+y,1/2-z
1/2-x,1/2-y,-z
1/2+x,1/2+y,1/2-z
1/2-x,1/2+y,z
1/2+x,1/2-y,1/2+z
loop_
_atom_site_type_symbol
_atom_site_label
_atom_site_fract_x
_atom_site_fract_y
_atom_site_fract_z
Si Si1 0.635210 0.152184 0.406812
Si Si2 0.587257 0.819884 0.030560
Si Si3 0.684888 0.323869 0.907837
Si Si4 0.590645 0.955023 0.369648
Si Si5 0.294852 0.177064 0.685205
Si Si6 0.000000 0.117215 0.750000
Si Si7 0.620828 0.343492 0.149950
Si Si8 0.589960 0.504180 0.434918
O O1 0.587543 0.148734 0.465354
O O2 0.725967 0.156681 0.423613
O O3 0.607445 0.237205 0.367878
O O4 0.616085 0.061413 0.370578
O O5 0.500000 0.785555 0.046399
O O6 0.646524 0.735010 0.040830
O O7 0.609797 0.908011 0.069393
O O8 0.677289 0.267909 0.849000
O O9 0.639514 0.420302 0.899823
O O10 0.500000 0.945965 0.352885
O O11 0.641604 0.904350 0.321378
O O12 0.290360 0.209409 0.750000
O O13 0.211557 0.138872 0.664446
O O14 0.932850 0.132207 0.702896
O O15 0.600284 0.405560 0.095012
O O16 0.620567 0.500000 0.500000
O O17 0.500000 0.535698 0.433550
#
# Coordination Sequence:
#
# PCOD8259534 Si02
#       8
#    16  16  16  16  16   4  16  16
#     4  11  22  37  60  90 121 160 200 244 306 370
#     4  10  20  36  60  85 123 157 194 250 303 364
#     4  10  22  38  59  91 118 156 203 249 305 360
#     4  10  22  38  59  90 121 156 202 248 303 367
#     4  10  22  45  63  84 120 159 206 259 305 360
#     4  12  24  44  62  88 124 166 212 254 298 368
#     4  11  24  42  64  90 122 163 206 254 308 367
#     4  11  23  40  63  94 127 160 203 258 318 381
#
# _framework density 20.061762000000002
#
# number of rings (size 3 to 8) (size 9 to 14) (size 15 to 20)
#    0.000    1.517    1.379    3.310    1.931    6.345 
#    2.483    1.379    0.000    0.000    0.000    0.000 
#    0.000    0.000    0.000    0.000    0.000    0.000 
#
# Total GULP energy -718630.895114 kJ/mol
# GULP energy per Si atom -12390.187847 kJ/mol
# Density = 2.001610 g / cm^3
# Si number density = 20.061762 Si / 1000 Ang^3
#
#
#
# Elastic Constant Matrix: (Units=GPa)
#
#
# Indices 1 2 3 4 5 6 
#
# 1 111.1924 43.6566 30.9938 0.0000 0.0000 0.0000
# 2 43.6566 106.5168 27.8497 0.0000 0.0000 0.0000
# 3 30.9938 27.8497 108.5714 0.0000 0.0000 0.0000
# 4 0.0000 0.0000 0.0000 15.5155 0.0000 0.0000
# 5 0.0000 0.0000 0.0000 0.0000 98.6624 0.0000
# 6 0.0000 0.0000 0.0000 0.0000 0.0000 30.5029
#
#
#
# Elastic Compliance Matrix: (Units=1/GPa)
#
#
# Indices 1 2 3 4 5 6 
#
# 1 0.011171 -0.004014 -0.002159 0.000000 0.000000 0.000000
# 2 -0.004014 0.011505 -0.001805 0.000000 0.000000 0.000000
# 3 -0.002159 -0.001805 0.010290 0.000000 0.000000 0.000000
# 4 0.000000 0.000000 0.000000 0.064452 0.000000 0.000000
# 5 0.000000 0.000000 0.000000 0.000000 0.010136 0.000000
# 6 0.000000 0.000000 0.000000 0.000000 0.000000 0.032784
#
#
# Mechanical properties :
#
#
# Convention : Reuss Voigt Hill
#
# Bulk Modulus (GPa) = 58.79197 59.03122 58.91160
# Shear Modulus (GPa) = 30.87081 43.85486 37.36283
#
# Velocity S-wave (km/s) = 3.92700 4.68053 4.32022
# Velocity P-wave (km/s) = 7.06618 7.66149 7.36985
#
# Compressibility (1/GPa) = 0.01700912
#
# Stress axis : x y z
#
# Youngs Moduli (GPa) = 89.51469 86.91565 97.18102
#
# Poissons Ratio (x) = 0.34888 0.20986
# Poissons Ratio (y) = 0.35932 0.17545
# Poissons Ratio (z) = 0.19330 0.15692
#
# Static dielectric constant tensor:
#      x y z
#    x 4.968640 0.000000 0.000000 
#    y 0.000000 3.569960 0.000000 
#    z 0.000000 0.000000 4.432830 
# 
# 
# High freq. dielectric constant tensor:
#      x y z
#    x 1.809180 0.000000 0.000000 
#    y 0.000000 1.772900 0.000000 
#    z 0.000000 0.000000 1.777130 
# 
# From -- ./inp_files/63923.got.cif
#   From: 2010.03.12/outbox.cif.g09.slc.cpg/sg63_32_cif.got.tgz:63923.got - 2010.04.10 19:34:48.
