data_PCOD8259780
_publ_section_title
;
Structure prediction by ZEFSAII (Michael W. Deem and Ramdas Pophale) SiO2 
 PCOD8259780
Probable space group: C M C M
;
_chemical_formula_sum "Si O2"
_cell_formula_units_Z 80
_cell_length_a 8.751818
_cell_length_b 24.845939
_cell_length_c 18.458674
_cell_angle_alpha 90.000000
_cell_angle_beta 90.000000
_cell_angle_gamma 90.000000
_cell_volume 4013.785799
_symmetry_space_group_name_H-M "C M C M"
_symmetry_group_IT_number 63
_symmetry_cell_setting 'orthorhombic'
loop_
_space_group_symop_operation_xyz
x,y,z
-x,-y,1/2+z
x,-y,-z
-x,y,1/2-z
-x,-y,-z
x,y,1/2-z
-x,y,z
x,-y,1/2+z
1/2+x,1/2+y,z
1/2-x,1/2-y,1/2+z
1/2+x,1/2-y,-z
1/2-x,1/2+y,1/2-z
1/2-x,1/2-y,-z
1/2+x,1/2+y,1/2-z
1/2-x,1/2+y,z
1/2+x,1/2-y,1/2+z
loop_
_atom_site_type_symbol
_atom_site_label
_atom_site_fract_x
_atom_site_fract_y
_atom_site_fract_z
Si Si1 0.821282 0.891085 0.070904
Si Si2 0.820421 0.724749 0.928439
Si Si3 0.321996 0.188975 0.166819
Si Si4 0.679085 0.915947 0.922077
Si Si5 0.323052 0.978444 0.334189
O O1 0.734262 0.835601 0.082999
O O2 0.780047 0.929832 0.137331
O O3 0.000000 0.879517 0.069576
O O4 0.770690 0.919611 0.996682
O O5 0.772798 0.759382 0.858750
O O6 0.000000 0.724770 0.937840
O O7 0.750000 0.750000 0.000000
O O8 0.283009 0.177123 0.250000
O O9 0.500000 0.201302 0.155705
O O10 0.270987 0.137417 0.120661
O O11 0.500000 0.915289 0.939706
O O12 0.725036 0.966860 0.874043
O O13 0.289423 0.986855 0.250000
O O14 0.500000 0.964811 0.348723
#
# Coordination Sequence:
#
# PCOD8259780 Si02
#       5
#    16  16  16  16  16
#     4  12  25  40  62  91 124 165 209 256 309 368
#     4  12  24  41  64  90 122 162 206 256 309 365
#     4  10  21  38  63  95 128 163 203 250 307 371
#     4  10  20  38  65  93 124 162 206 255 306 367
#     4  10  22  41  64  91 124 164 209 256 308 367
#
# _framework density 19.931307
#
# number of rings (size 3 to 8) (size 9 to 14) (size 15 to 20)
#    0.000    1.200    2.000    4.800    0.000    7.200 
#    0.000    0.000    0.000    3.600    0.000    0.000 
#    0.000    0.000    0.000    0.000    0.000    0.000 
#
# Total GULP energy -496292.631699 kJ/mol
# GULP energy per Si atom -12407.315792 kJ/mol
# Density = 1.988594 g / cm^3
# Si number density = 19.931307 Si / 1000 Ang^3
#
#
#
# Elastic Constant Matrix: (Units=GPa)
#
#
# Indices 1 2 3 4 5 6 
#
# 1 96.7491 42.1343 27.2282 0.0000 0.0000 0.0000
# 2 42.1343 126.2583 40.6369 0.0000 0.0000 0.0000
# 3 27.2282 40.6369 69.5692 0.0000 0.0000 0.0000
# 4 0.0000 0.0000 0.0000 35.6718 0.0000 0.0000
# 5 0.0000 0.0000 0.0000 0.0000 29.0185 0.0000
# 6 0.0000 0.0000 0.0000 0.0000 0.0000 31.9591
#
#
#
# Elastic Compliance Matrix: (Units=1/GPa)
#
#
# Indices 1 2 3 4 5 6 
#
# 1 0.012597 -0.003223 -0.003048 0.000000 0.000000 0.000000
# 2 -0.003223 0.010579 -0.004918 0.000000 0.000000 0.000000
# 3 -0.003048 -0.004918 0.018440 0.000000 0.000000 0.000000
# 4 0.000000 0.000000 0.000000 0.028033 0.000000 0.000000
# 5 0.000000 0.000000 0.000000 0.000000 0.034461 0.000000
# 6 0.000000 0.000000 0.000000 0.000000 0.000000 0.031290
#
#
# Mechanical properties :
#
#
# Convention : Reuss Voigt Hill
#
# Bulk Modulus (GPa) = 51.97910 56.95283 54.46597
# Shear Modulus (GPa) = 30.45258 31.50170 30.97714
#
# Velocity S-wave (km/s) = 3.91305 3.97988 3.94661
# Velocity P-wave (km/s) = 6.82288 7.05378 6.93929
#
# Compressibility (1/GPa) = 0.01923850
#
# Stress axis : x y z
#
# Youngs Moduli (GPa) = 79.38165 94.53004 54.23104
#
# Poissons Ratio (x) = 0.30467 0.16528
# Poissons Ratio (y) = 0.25585 0.26670
# Poissons Ratio (z) = 0.24194 0.46488
#
# Static dielectric constant tensor:
#      x y z
#    x 3.652980 0.000000 0.000000 
#    y 0.000000 3.889380 0.000000 
#    z 0.000000 0.000000 3.701960 
# 
# 
# High freq. dielectric constant tensor:
#      x y z
#    x 1.769760 0.000000 0.000000 
#    y 0.000000 1.792290 0.000000 
#    z 0.000000 0.000000 1.785420 
# 
# From -- ./inp_files/40526.got.cif
#   From: 2010.03.12/outbox.cif.g09.slc.cpg/sg63_21_cif.got.tgz:40526.got - 2010.04.10 19:34:48.
