data_PCOD8259180
_publ_section_title
;
Structure prediction by ZEFSAII (Michael W. Deem and Ramdas Pophale) SiO2 
 PCOD8259180
Probable space group: C M C M
;
_chemical_formula_sum "Si O2"
_cell_formula_units_Z 80
_cell_length_a 8.890034
_cell_length_b 18.128648
_cell_length_c 26.243008
_cell_angle_alpha 90.000000
_cell_angle_beta 90.000000
_cell_angle_gamma 90.000000
_cell_volume 4229.435938
_symmetry_space_group_name_H-M "C M C M"
_symmetry_group_IT_number 63
_symmetry_cell_setting 'orthorhombic'
loop_
_space_group_symop_operation_xyz
x,y,z
-x,-y,1/2+z
x,-y,-z
-x,y,1/2-z
-x,-y,-z
x,y,1/2-z
-x,y,z
x,-y,1/2+z
1/2+x,1/2+y,z
1/2-x,1/2-y,1/2+z
1/2+x,1/2-y,-z
1/2-x,1/2+y,1/2-z
1/2-x,1/2-y,-z
1/2+x,1/2+y,1/2-z
1/2-x,1/2+y,z
1/2+x,1/2-y,1/2+z
loop_
_atom_site_type_symbol
_atom_site_label
_atom_site_fract_x
_atom_site_fract_y
_atom_site_fract_z
Si Si1 0.825570 0.581346 0.694079
Si Si2 0.176124 0.329236 0.498402
Si Si3 0.327444 0.587276 0.593123
Si Si4 0.669707 0.412394 0.913315
Si Si5 0.329553 0.570182 0.195621
O O1 0.787702 0.616524 0.750000
O O2 0.728306 0.616911 0.648383
O O3 0.790467 0.494845 0.696771
O O4 0.000000 0.592113 0.681036
O O5 0.250000 0.250000 0.500000
O O6 0.230749 0.374018 0.449863
O O7 0.213784 0.373880 0.549572
O O8 0.000000 0.318716 0.494749
O O9 0.500000 0.609791 0.586000
O O10 0.302702 0.499932 0.587727
O O11 0.500000 0.394835 0.931904
O O12 0.697439 0.381024 0.855405
O O13 0.315461 0.614433 0.250000
O O14 0.500000 0.536978 0.190794
#
# Coordination Sequence:
#
# PCOD8259180 Si02
#       5
#    16  16  16  16  16
#     4   9  16  26  44  74 109 139 169 208 252 298
#     4  12  25  39  55  74 101 136 175 219 266 317
#     4  10  20  35  56  80 107 138 173 214 258 306
#     4   9  18  33  54  80 109 138 171 212 255 304
#     4   8  14  26  46  73 105 139 170 203 249 301
#
# _framework density 18.915051999999999
#
# number of rings (size 3 to 8) (size 9 to 14) (size 15 to 20)
#    0.000    2.400    0.000    4.800    0.000    7.600 
#    0.000    0.000    0.000    1.200    0.000    2.800 
#    0.000    0.000    0.000    0.000    0.000    0.000 
#
# Total GULP energy -495609.799481 kJ/mol
# GULP energy per Si atom -12390.244987 kJ/mol
# Density = 1.887200 g / cm^3
# Si number density = 18.915052 Si / 1000 Ang^3
#
#
#
# Elastic Constant Matrix: (Units=GPa)
#
#
# Indices 1 2 3 4 5 6 
#
# 1 121.8545 33.3562 69.0133 0.0000 0.0000 0.0000
# 2 33.3562 40.7890 41.5506 0.0000 0.0000 0.0000
# 3 69.0133 41.5506 186.4824 0.0000 0.0000 0.0000
# 4 0.0000 0.0000 0.0000 -5.2415 0.0000 0.0000
# 5 0.0000 0.0000 0.0000 0.0000 35.1453 0.0000
# 6 0.0000 0.0000 0.0000 0.0000 0.0000 23.2618
#
#
#
# Elastic Compliance Matrix: (Units=1/GPa)
#
#
# Indices 1 2 3 4 5 6 
#
# 1 0.011619 -0.006625 -0.002824 0.000000 0.000000 0.000000
# 2 -0.006625 0.035493 -0.005456 0.000000 0.000000 0.000000
# 3 -0.002824 -0.005456 0.007623 0.000000 0.000000 0.000000
# 4 0.000000 0.000000 0.000000 -0.190785 0.000000 0.000000
# 5 0.000000 0.000000 0.000000 0.000000 0.028453 0.000000
# 6 0.000000 0.000000 0.000000 0.000000 0.000000 0.042989
#
#
# Mechanical properties :
#
#
# Convention : Reuss Voigt Hill
#
# Bulk Modulus (GPa) = 40.12180 70.77402 55.44791
# Shear Modulus (GPa) = -188.76625 24.31352 -82.22637
#
# Velocity S-wave (km/s) = -10.00067 3.58915 -6.60044
# Velocity P-wave (km/s) = 10.58743 7.39418 5.35816
#
# Compressibility (1/GPa) = 0.02492410
#
# Stress axis : x y z
#
# Youngs Moduli (GPa) = 86.06236 28.17486 131.17816
#
# Poissons Ratio (x) = 0.18667 0.37043
# Poissons Ratio (y) = 0.57020 0.71574
# Poissons Ratio (z) = 0.24303 0.15373
#
# Static dielectric constant tensor:
#      x y z
#    x 3.508200 0.000000 0.000000 
#    y 0.000000 2.950840 0.000000 
#    z 0.000000 0.000000 4.292680 
# 
# 
# High freq. dielectric constant tensor:
#      x y z
#    x 1.741010 0.000000 0.000000 
#    y 0.000000 1.662480 0.000000 
#    z 0.000000 0.000000 1.771700 
# 
# From -- ./inp_files/66581.got.cif
#   From: 2010.03.12/outbox.cif.g09.slc.cpg/sg63_34_cif.got.tgz:66581.got - 2010.04.10 19:34:48.
