data_PCOD8259145
_publ_section_title
;
Structure prediction by ZEFSAII (Michael W. Deem and Ramdas Pophale) SiO2 
 PCOD8259145
Probable space group: C M C M
;
_chemical_formula_sum "Si O2"
_cell_formula_units_Z 96
_cell_length_a 23.693747
_cell_length_b 23.963320
_cell_length_c 8.902615
_cell_angle_alpha 90.000000
_cell_angle_beta 90.000000
_cell_angle_gamma 90.000000
_cell_volume 5054.734235
_symmetry_space_group_name_H-M "C M C M"
_symmetry_group_IT_number 63
_symmetry_cell_setting 'orthorhombic'
loop_
_space_group_symop_operation_xyz
x,y,z
-x,-y,1/2+z
x,-y,-z
-x,y,1/2-z
-x,-y,-z
x,y,1/2-z
-x,y,z
x,-y,1/2+z
1/2+x,1/2+y,z
1/2-x,1/2-y,1/2+z
1/2+x,1/2-y,-z
1/2-x,1/2+y,1/2-z
1/2-x,1/2-y,-z
1/2+x,1/2+y,1/2-z
1/2-x,1/2+y,z
1/2+x,1/2-y,1/2+z
loop_
_atom_site_type_symbol
_atom_site_label
_atom_site_fract_x
_atom_site_fract_y
_atom_site_fract_z
Si Si1 0.233913 0.840791 0.574881
Si Si2 0.859584 0.227991 0.927096
Si Si3 0.346194 0.444378 0.922358
Si Si4 0.936136 0.124681 0.925737
Si Si5 0.435655 0.057614 0.926719
Si Si6 0.854716 0.658029 0.928674
O O1 0.241188 0.825918 0.750000
O O2 0.201095 0.790087 0.494066
O O3 0.200008 0.897410 0.549437
O O4 0.293572 0.851495 0.498877
O O5 0.852777 0.236807 0.750000
O O6 0.906783 0.182835 0.968678
O O7 0.880152 0.284778 0.005343
O O8 0.356371 0.457137 0.750000
O O9 0.323231 0.500000 0.000000
O O10 0.405994 0.426438 0.991857
O O11 0.932120 0.113286 0.750000
O O12 0.000000 0.127861 0.982995
O O13 0.431461 0.049919 0.750000
O O14 0.500000 0.070928 0.976580
O O15 0.395667 0.107970 0.981080
O O16 0.414362 0.000000 0.000000
O O17 0.850582 0.661612 0.750000
#
# Coordination Sequence:
#
# PCOD8259145 Si02
#       6
#    16  16  16  16  16  16
#     4  10  21  37  55  77 107 141 178 219 264 312
#     4  10  20  35  55  79 109 142 176 217 264 311
#     4  10  21  36  55  78 105 140 179 220 266 314
#     4   9  19  36  56  78 106 140 178 221 266 310
#     4   9  20  39  59  79 106 139 174 215 262 310
#     4  11  22  35  55  82 109 139 175 213 259 316
#
# _framework density 18.992097000000001
#
# number of rings (size 3 to 8) (size 9 to 14) (size 15 to 20)
#    0.000    2.167    0.000    2.500    0.000    6.000 
#    0.000    3.333    0.000    0.000    0.000    0.000 
#    0.000    0.000    0.000    0.000    0.000    0.000 
#
# Total GULP energy -595357.107653 kJ/mol
# GULP energy per Si atom -12403.273076 kJ/mol
# Density = 1.894887 g / cm^3
# Si number density = 18.992097 Si / 1000 Ang^3
#
#
#
# Elastic Constant Matrix: (Units=GPa)
#
#
# Indices 1 2 3 4 5 6 
#
# 1 55.6647 16.8036 16.2011 0.0000 0.0000 0.0000
# 2 16.8036 105.9300 34.9168 0.0000 0.0000 0.0000
# 3 16.2011 34.9168 67.4822 0.0000 0.0000 0.0000
# 4 0.0000 0.0000 0.0000 37.8544 0.0000 0.0000
# 5 0.0000 0.0000 0.0000 0.0000 25.6983 0.0000
# 6 0.0000 0.0000 0.0000 0.0000 0.0000 26.6277
#
#
#
# Elastic Compliance Matrix: (Units=1/GPa)
#
#
# Indices 1 2 3 4 5 6 
#
# 1 0.019620 -0.001880 -0.003737 0.000000 0.000000 0.000000
# 2 -0.001880 0.011562 -0.005531 0.000000 0.000000 0.000000
# 3 -0.003737 -0.005531 0.018578 0.000000 0.000000 0.000000
# 4 0.000000 0.000000 0.000000 0.026417 0.000000 0.000000
# 5 0.000000 0.000000 0.000000 0.000000 0.038913 0.000000
# 6 0.000000 0.000000 0.000000 0.000000 0.000000 0.037555
#
#
# Mechanical properties :
#
#
# Convention : Reuss Voigt Hill
#
# Bulk Modulus (GPa) = 36.41361 40.54664 38.48013
# Shear Modulus (GPa) = 27.15981 28.77978 27.96979
#
# Velocity S-wave (km/s) = 3.78571 3.89698 3.84175
# Velocity P-wave (km/s) = 6.19060 6.45323 6.32328
#
# Compressibility (1/GPa) = 0.02746226
#
# Stress axis : x y z
#
# Youngs Moduli (GPa) = 50.96808 86.49372 53.82788
#
# Poissons Ratio (x) = 0.16264 0.20118
# Poissons Ratio (y) = 0.09584 0.29771
# Poissons Ratio (z) = 0.19049 0.47838
#
# Static dielectric constant tensor:
#      x y z
#    x 3.508520 0.000000 0.000000 
#    y 0.000000 3.629100 0.000000 
#    z 0.000000 0.000000 3.525950 
# 
# 
# High freq. dielectric constant tensor:
#      x y z
#    x 1.735270 0.000000 0.000000 
#    y 0.000000 1.747250 0.000000 
#    z 0.000000 0.000000 1.745400 
# 
# From -- ./inp_files/10481.got.cif
#   From: 2010.03.12/outbox.cif.g09.slc.cpg/sg63_6_cif.got.tgz:10481.got - 2010.04.10 19:34:48.
