data_PCOD8259554
_publ_section_title
;
Structure prediction by ZEFSAII (Michael W. Deem and Ramdas Pophale) SiO2 
 PCOD8259554
Probable space group: C M C M
;
_chemical_formula_sum "Si O2"
_cell_formula_units_Z 56
_cell_length_a 12.623716
_cell_length_b 18.982646
_cell_length_c 10.786030
_cell_angle_alpha 90.000000
_cell_angle_beta 90.000000
_cell_angle_gamma 90.000000
_cell_volume 2584.672893
_symmetry_space_group_name_H-M "C M C M"
_symmetry_group_IT_number 63
_symmetry_cell_setting 'orthorhombic'
loop_
_space_group_symop_operation_xyz
x,y,z
-x,-y,1/2+z
x,-y,-z
-x,y,1/2-z
-x,-y,-z
x,y,1/2-z
-x,y,z
x,-y,1/2+z
1/2+x,1/2+y,z
1/2-x,1/2-y,1/2+z
1/2+x,1/2-y,-z
1/2-x,1/2+y,1/2-z
1/2-x,1/2-y,-z
1/2+x,1/2+y,1/2-z
1/2-x,1/2+y,z
1/2+x,1/2-y,1/2+z
loop_
_atom_site_type_symbol
_atom_site_label
_atom_site_fract_x
_atom_site_fract_y
_atom_site_fract_z
Si Si1 0.500000 0.058955 0.605392
Si Si2 0.838573 0.322471 0.385661
Si Si3 0.116886 0.818065 0.022454
Si Si4 0.878168 0.956113 0.885717
O O1 0.500000 0.031248 0.750000
O O2 0.395136 0.104847 0.578095
O O3 0.500000 0.000000 0.500000
O O4 0.877013 0.299460 0.250000
O O5 0.874684 0.262216 0.479158
O O6 0.711405 0.333453 0.381821
O O7 0.000000 0.829241 0.083554
O O8 0.132085 0.872433 0.908792
O O9 0.825292 0.972275 0.750000
O O10 0.000000 0.979461 0.878084
O O11 0.824629 0.000000 0.000000
#
# Coordination Sequence:
#
# PCOD8259554 Si02
#       4
#     8  16  16  16
#     4  10  22  44  70  92 123 170 222 270 319 380
#     4  10  21  38  62  89 120 165 214 262 319 379
#     4  10  20  36  60  90 124 159 206 263 316 382
#     4   9  18  32  52  79 113 154 195 236 292 363
#
# _framework density 21.666184999999999
#
# number of rings (size 3 to 8) (size 9 to 14) (size 15 to 20)
#    0.000    2.286    1.429    0.857    0.000    4.000 
#    0.000   12.857    0.000    0.000    0.000    0.000 
#    0.000    0.000    0.000    0.000    0.000    0.000 
#
# Total GULP energy -346893.542373 kJ/mol
# GULP energy per Si atom -12389.055085 kJ/mol
# Density = 2.161687 g / cm^3
# Si number density = 21.666185 Si / 1000 Ang^3
#
#
#
# Elastic Constant Matrix: (Units=GPa)
#
#
# Indices 1 2 3 4 5 6 
#
# 1 129.3195 37.6841 20.0443 0.0000 0.0000 0.0000
# 2 37.6841 115.1174 66.2101 0.0000 0.0000 0.0000
# 3 20.0443 66.2101 123.7478 0.0000 0.0000 0.0000
# 4 0.0000 0.0000 0.0000 28.5326 0.0000 0.0000
# 5 0.0000 0.0000 0.0000 0.0000 18.7969 0.0000
# 6 0.0000 0.0000 0.0000 0.0000 0.0000 22.3582
#
#
#
# Elastic Compliance Matrix: (Units=1/GPa)
#
#
# Indices 1 2 3 4 5 6 
#
# 1 0.008550 -0.002893 0.000163 0.000000 0.000000 0.000000
# 2 -0.002893 0.013527 -0.006769 0.000000 0.000000 0.000000
# 3 0.000163 -0.006769 0.011676 0.000000 0.000000 0.000000
# 4 0.000000 0.000000 0.000000 0.035048 0.000000 0.000000
# 5 0.000000 0.000000 0.000000 0.000000 0.053200 0.000000
# 6 0.000000 0.000000 0.000000 0.000000 0.000000 0.044726
#
#
# Mechanical properties :
#
#
# Convention : Reuss Voigt Hill
#
# Bulk Modulus (GPa) = 67.76928 68.45131 68.11030
# Shear Modulus (GPa) = 26.22690 30.22062 28.22376
#
# Velocity S-wave (km/s) = 3.48300 3.73879 3.61316
# Velocity P-wave (km/s) = 6.89360 7.09227 6.99364
#
# Compressibility (1/GPa) = 0.01475595
#
# Stress axis : x y z
#
# Youngs Moduli (GPa) = 116.95247 73.92716 85.64416
#
# Poissons Ratio (x) = 0.21384 -0.01393
# Poissons Ratio (y) = 0.33830 0.57971
# Poissons Ratio (z) = -0.01903 0.50040
#
# Static dielectric constant tensor:
#      x y z
#    x 4.195710 0.000000 0.000000 
#    y 0.000000 3.756960 0.000000 
#    z 0.000000 0.000000 3.872330 
# 
# 
# High freq. dielectric constant tensor:
#      x y z
#    x 1.841000 0.000000 0.000000 
#    y 0.000000 1.850230 0.000000 
#    z 0.000000 0.000000 1.830650 
# 
# From -- ./inp_files/18801.got.cif
#   From: 2010.03.12/outbox.cif.g09.slc.cpg/sg63_10_cif.got.tgz:18801.got - 2010.04.10 19:34:48.
