data_PCOD8259396
_publ_section_title
;
Structure prediction by ZEFSAII (Michael W. Deem and Ramdas Pophale) SiO2 
 PCOD8259396
Probable space group: C M C M
;
_chemical_formula_sum "Si O2"
_cell_formula_units_Z 80
_cell_length_a 9.252000
_cell_length_b 27.741044
_cell_length_c 16.249143
_cell_angle_alpha 90.000000
_cell_angle_beta 90.000000
_cell_angle_gamma 90.000000
_cell_volume 4170.507302
_symmetry_space_group_name_H-M "C M C M"
_symmetry_group_IT_number 63
_symmetry_cell_setting 'orthorhombic'
loop_
_space_group_symop_operation_xyz
x,y,z
-x,-y,1/2+z
x,-y,-z
-x,y,1/2-z
-x,-y,-z
x,y,1/2-z
-x,y,z
x,-y,1/2+z
1/2+x,1/2+y,z
1/2-x,1/2-y,1/2+z
1/2+x,1/2-y,-z
1/2-x,1/2+y,1/2-z
1/2-x,1/2-y,-z
1/2+x,1/2+y,1/2-z
1/2-x,1/2+y,z
1/2+x,1/2-y,1/2+z
loop_
_atom_site_type_symbol
_atom_site_label
_atom_site_fract_x
_atom_site_fract_y
_atom_site_fract_z
Si Si1 0.665375 0.729525 0.577292
Si Si2 0.171627 0.532460 0.923584
Si Si3 0.658034 0.830704 0.872910
Si Si4 0.836884 0.640913 0.561698
Si Si5 0.171212 0.487892 0.750000
Si Si6 0.668359 0.388221 0.750000
O O1 0.500000 0.717983 0.552925
O O2 0.750000 0.750000 0.500000
O O3 0.672291 0.773076 0.643449
O O4 0.739843 0.680229 0.611100
O O5 0.229249 0.587238 0.930781
O O6 0.223118 0.514178 0.833811
O O7 0.000000 0.532028 0.930065
O O8 0.233356 0.500000 0.000000
O O9 0.500000 0.847504 0.839367
O O10 0.788942 0.857675 0.829659
O O11 0.666785 0.843604 0.967783
O O12 0.000000 0.642271 0.597208
O O13 0.243451 0.436668 0.750000
O O14 0.000000 0.481997 0.750000
O O15 0.500000 0.399333 0.750000
#
# Coordination Sequence:
#
# PCOD8259396 Si02
#       6
#    16  16  16  16   8   8
#     4   9  17  30  50  75 102 133 168 208 255 309
#     4   9  17  31  53  79 104 135 178 218 252 301
#     4   9  18  33  52  72  98 136 174 205 249 313
#     4   9  17  31  53  78 103 133 171 215 256 301
#     4  10  20  36  57  76 101 139 176 213 259 314
#     4  12  24  34  49  74 103 131 164 219 273 306
#
# _framework density 19.182317999999999
#
# number of rings (size 3 to 8) (size 9 to 14) (size 15 to 20)
#    0.000    2.600    0.000    3.900    0.000    7.200 
#    0.000    2.000    0.000    3.600    0.000    0.000 
#    0.000    0.000    0.000    0.000    0.000    0.000 
#
# Total GULP energy -495612.253906 kJ/mol
# GULP energy per Si atom -12390.306348 kJ/mol
# Density = 1.913866 g / cm^3
# Si number density = 19.182318 Si / 1000 Ang^3
#
#
#
# Elastic Constant Matrix: (Units=GPa)
#
#
# Indices 1 2 3 4 5 6 
#
# 1 51.6923 37.6673 17.5509 0.0000 0.0000 0.0000
# 2 37.6673 176.0542 46.3976 0.0000 0.0000 0.0000
# 3 17.5509 46.3976 79.2616 0.0000 0.0000 0.0000
# 4 0.0000 0.0000 0.0000 19.5939 0.0000 0.0000
# 5 0.0000 0.0000 0.0000 0.0000 6.2666 0.0000
# 6 0.0000 0.0000 0.0000 0.0000 0.0000 33.1898
#
#
#
# Elastic Compliance Matrix: (Units=1/GPa)
#
#
# Indices 1 2 3 4 5 6 
#
# 1 0.023383 -0.004302 -0.002659 0.000000 0.000000 0.000000
# 2 -0.004302 0.007508 -0.003442 0.000000 0.000000 0.000000
# 3 -0.002659 -0.003442 0.015220 0.000000 0.000000 0.000000
# 4 0.000000 0.000000 0.000000 0.051036 0.000000 0.000000
# 5 0.000000 0.000000 0.000000 0.000000 0.159576 0.000000
# 6 0.000000 0.000000 0.000000 0.000000 0.000000 0.030130
#
#
# Mechanical properties :
#
#
# Convention : Reuss Voigt Hill
#
# Bulk Modulus (GPa) = 39.51989 56.69330 48.10659
# Shear Modulus (GPa) = 15.81802 25.50288 20.66045
#
# Velocity S-wave (km/s) = 2.87473 3.65019 3.28541
# Velocity P-wave (km/s) = 5.62723 6.88362 6.28689
#
# Compressibility (1/GPa) = 0.02530371
#
# Stress axis : x y z
#
# Youngs Moduli (GPa) = 42.76620 133.19746 65.70176
#
# Poissons Ratio (x) = 0.57301 0.17473
# Poissons Ratio (y) = 0.18398 0.22616
# Poissons Ratio (z) = 0.11373 0.45849
#
# Static dielectric constant tensor:
#      x y z
#    x 3.485930 0.000000 0.000000 
#    y 0.000000 4.163930 0.000000 
#    z 0.000000 0.000000 3.353180 
# 
# 
# High freq. dielectric constant tensor:
#      x y z
#    x 1.716890 0.000000 0.000000 
#    y 0.000000 1.766620 0.000000 
#    z 0.000000 0.000000 1.717590 
# 
# From -- ./inp_files/40546.got.cif
#   From: 2010.03.12/outbox.cif.g09.slc.cpg/sg63_21_cif.got.tgz:40546.got - 2010.04.10 19:34:48.
