data_PCOD8259537
_publ_section_title
;
Structure prediction by ZEFSAII (Michael W. Deem and Ramdas Pophale) SiO2 
 PCOD8259537
Probable space group: C M C M
;
_chemical_formula_sum "Si O2"
_cell_formula_units_Z 80
_cell_length_a 7.863152
_cell_length_b 27.220686
_cell_length_c 18.000158
_cell_angle_alpha 90.000000
_cell_angle_beta 90.000000
_cell_angle_gamma 90.000000
_cell_volume 3852.760867
_symmetry_space_group_name_H-M "C M C M"
_symmetry_group_IT_number 63
_symmetry_cell_setting 'orthorhombic'
loop_
_space_group_symop_operation_xyz
x,y,z
-x,-y,1/2+z
x,-y,-z
-x,y,1/2-z
-x,-y,-z
x,y,1/2-z
-x,y,z
x,-y,1/2+z
1/2+x,1/2+y,z
1/2-x,1/2-y,1/2+z
1/2+x,1/2-y,-z
1/2-x,1/2+y,1/2-z
1/2-x,1/2-y,-z
1/2+x,1/2+y,1/2-z
1/2-x,1/2+y,z
1/2+x,1/2-y,1/2+z
loop_
_atom_site_type_symbol
_atom_site_label
_atom_site_fract_x
_atom_site_fract_y
_atom_site_fract_z
Si Si1 0.199796 0.644438 0.954333
Si Si2 0.000000 0.112691 0.331608
Si Si3 0.500000 0.514448 0.412014
Si Si4 0.199905 0.279324 0.164823
Si Si5 0.804778 0.324953 0.884547
Si Si6 0.314683 0.034528 0.570975
O O1 0.270884 0.675483 0.884618
O O2 0.258957 0.587873 0.951656
O O3 0.000000 0.645599 0.950336
O O4 0.259938 0.669573 0.030680
O O5 0.828081 0.144774 0.335092
O O6 0.000000 0.087877 0.250000
O O7 0.000000 0.072203 0.396446
O O8 0.500000 0.500000 0.500000
O O9 0.671599 0.490653 0.376410
O O10 0.241056 0.292026 0.250000
O O11 0.301384 0.231396 0.139601
O O12 0.000000 0.270021 0.152462
O O13 0.000000 0.344383 0.874625
O O14 0.500000 0.038579 0.611148
O O15 0.338113 0.000000 0.500000
#
# Coordination Sequence:
#
# PCOD8259537 Si02
#       6
#    16   8   8  16  16  16
#     4   9  19  35  59  91 119 157 206 252 298 364
#     4  12  26  42  62  92 126 160 199 251 316 369
#     4  10  20  36  60  86 112 152 196 235 290 353
#     4  10  20  37  58  83 123 165 199 246 307 362
#     4  11  22  39  63  87 119 159 206 252 301 361
#     4   9  17  33  57  84 115 144 186 242 292 336
#
# _framework density 20.764330000000001
#
# number of rings (size 3 to 8) (size 9 to 14) (size 15 to 20)
#    0.000    2.000    1.000    3.600    0.000    4.000 
#    3.600    1.000    0.000    1.200    0.000    0.000 
#    0.000    0.000    0.000    0.000    0.000    0.000 
#
# Total GULP energy -495699.518396 kJ/mol
# GULP energy per Si atom -12392.487960 kJ/mol
# Density = 2.071707 g / cm^3
# Si number density = 20.764330 Si / 1000 Ang^3
#
#
#
# Elastic Constant Matrix: (Units=GPa)
#
#
# Indices 1 2 3 4 5 6 
#
# 1 117.0381 34.1507 21.2908 0.0000 0.0000 0.0000
# 2 34.1507 135.2874 52.3537 0.0000 0.0000 0.0000
# 3 21.2908 52.3537 90.6221 0.0000 0.0000 0.0000
# 4 0.0000 0.0000 0.0000 14.3703 0.0000 0.0000
# 5 0.0000 0.0000 0.0000 0.0000 11.6172 0.0000
# 6 0.0000 0.0000 0.0000 0.0000 0.0000 14.1953
#
#
#
# Elastic Compliance Matrix: (Units=1/GPa)
#
#
# Indices 1 2 3 4 5 6 
#
# 1 0.009303 -0.001935 -0.001068 0.000000 0.000000 0.000000
# 2 -0.001935 0.009923 -0.005278 0.000000 0.000000 0.000000
# 3 -0.001068 -0.005278 0.014335 0.000000 0.000000 0.000000
# 4 0.000000 0.000000 0.000000 0.069588 0.000000 0.000000
# 5 0.000000 0.000000 0.000000 0.000000 0.086079 0.000000
# 6 0.000000 0.000000 0.000000 0.000000 0.000000 0.070446
#
#
# Mechanical properties :
#
#
# Convention : Reuss Voigt Hill
#
# Bulk Modulus (GPa) = 58.82662 62.05979 60.44321
# Shear Modulus (GPa) = 17.73672 23.71339 20.72505
#
# Velocity S-wave (km/s) = 2.92583 3.38305 3.16271
# Velocity P-wave (km/s) = 6.30920 6.72403 6.51992
#
# Compressibility (1/GPa) = 0.01699911
#
# Stress axis : x y z
#
# Youngs Moduli (GPa) = 107.49065 100.78028 69.76072
#
# Poissons Ratio (x) = 0.19503 0.07448
# Poissons Ratio (y) = 0.20802 0.36818
# Poissons Ratio (z) = 0.11477 0.53189
#
# Static dielectric constant tensor:
#      x y z
#    x 4.787770 0.000000 0.000000 
#    y 0.000000 4.025360 0.000000 
#    z 0.000000 0.000000 3.585780 
# 
# 
# High freq. dielectric constant tensor:
#      x y z
#    x 1.822830 0.000000 0.000000 
#    y 0.000000 1.815740 0.000000 
#    z 0.000000 0.000000 1.773350 
# 
# From -- ./inp_files/40578.got.cif
#   From: 2010.03.12/outbox.cif.g09.slc.cpg/sg63_21_cif.got.tgz:40578.got - 2010.04.10 19:34:48.
