data_PCOD8259100
_publ_section_title
;
Structure prediction by ZEFSAII (Michael W. Deem and Ramdas Pophale) SiO2 
 PCOD8259100
Probable space group: C M C M
;
_chemical_formula_sum "Si O2"
_cell_formula_units_Z 128
_cell_length_a 18.297276
_cell_length_b 19.827501
_cell_length_c 19.634037
_cell_angle_alpha 90.000000
_cell_angle_beta 90.000000
_cell_angle_gamma 90.000000
_cell_volume 7123.017718
_symmetry_space_group_name_H-M "C M C M"
_symmetry_group_IT_number 63
_symmetry_cell_setting 'orthorhombic'
loop_
_space_group_symop_operation_xyz
x,y,z
-x,-y,1/2+z
x,-y,-z
-x,y,1/2-z
-x,-y,-z
x,y,1/2-z
-x,y,z
x,-y,1/2+z
1/2+x,1/2+y,z
1/2-x,1/2-y,1/2+z
1/2+x,1/2-y,-z
1/2-x,1/2+y,1/2-z
1/2-x,1/2-y,-z
1/2+x,1/2+y,1/2-z
1/2-x,1/2+y,z
1/2+x,1/2-y,1/2+z
loop_
_atom_site_type_symbol
_atom_site_label
_atom_site_fract_x
_atom_site_fract_y
_atom_site_fract_z
Si Si1 0.918033 0.684593 0.099384
Si Si2 0.915972 0.534886 0.432188
Si Si3 0.273223 0.206436 0.327913
Si Si4 0.303335 0.020110 0.673999
Si Si5 0.583278 0.667526 0.934410
Si Si6 0.821999 0.089224 0.172700
Si Si7 0.792706 0.143769 0.830143
Si Si8 0.414781 0.562023 0.455312
O O1 0.906433 0.615552 0.057426
O O2 0.857022 0.686678 0.157325
O O3 0.907200 0.751773 0.053160
O O4 0.000000 0.685144 0.131778
O O5 0.885831 0.500000 0.500000
O O6 0.871358 0.503942 0.370058
O O7 0.000000 0.515829 0.418850
O O8 0.263418 0.190204 0.250000
O O9 0.212124 0.157752 0.360925
O O10 0.256088 0.283773 0.345942
O O11 0.333385 0.033153 0.750000
O O12 0.266167 0.088662 0.645586
O O13 0.242507 0.963739 0.674730
O O14 0.500000 0.649977 0.913896
O O15 0.632596 0.638465 0.873022
O O16 0.604085 0.631246 0.005030
O O17 0.854371 0.097654 0.250000
O O18 0.883069 0.063356 0.120792
O O19 0.812410 0.135643 0.750000
O O20 0.382476 0.500000 0.500000
O O21 0.500000 0.551369 0.445013
#
# Coordination Sequence:
#
# PCOD8259100 Si02
#       8
#    16  16  16  16  16  16  16  16
#     4   9  17  32  52  76 107 136 170 215 262 314
#     4  10  21  36  53  76 104 136 173 214 260 309
#     4   9  17  32  50  74 106 137 170 213 259 309
#     4  10  20  35  54  77 104 136 171 212 260 310
#     4   9  18  33  53  79 108 139 175 216 264 318
#     4  10  20  35  55  78 104 135 174 217 261 310
#     4   9  18  32  51  77 110 142 175 214 260 312
#     4  10  21  37  55  76 105 139 175 218 265 314
#
# _framework density 17.969911
#
# number of rings (size 3 to 8) (size 9 to 14) (size 15 to 20)
#    0.000    2.500    1.250    0.750    0.000    2.500 
#    2.250    5.000    0.000    4.500    0.000    3.500 
#    0.000    0.000    0.000    0.000    0.000    0.000 
#
# Total GULP energy -793134.451822 kJ/mol
# GULP energy per Si atom -12392.725810 kJ/mol
# Density = 1.792901 g / cm^3
# Si number density = 17.969911 Si / 1000 Ang^3
#
#
#
# Elastic Constant Matrix: (Units=GPa)
#
#
# Indices 1 2 3 4 5 6 
#
# 1 63.0883 43.5553 50.0710 0.0000 0.0000 0.0000
# 2 43.5553 118.7309 43.5787 0.0000 0.0000 0.0000
# 3 50.0710 43.5787 85.4934 0.0000 0.0000 0.0000
# 4 0.0000 0.0000 0.0000 23.1841 0.0000 0.0000
# 5 0.0000 0.0000 0.0000 0.0000 25.1131 0.0000
# 6 0.0000 0.0000 0.0000 0.0000 0.0000 27.4757
#
#
#
# Elastic Compliance Matrix: (Units=1/GPa)
#
#
# Indices 1 2 3 4 5 6 
#
# 1 0.032901 -0.006147 -0.016136 0.000000 0.000000 0.000000
# 2 -0.006147 0.011509 -0.002267 0.000000 0.000000 0.000000
# 3 -0.016136 -0.002267 0.022302 0.000000 0.000000 0.000000
# 4 0.000000 0.000000 0.000000 0.043133 0.000000 0.000000
# 5 0.000000 0.000000 0.000000 0.000000 0.039820 0.000000
# 6 0.000000 0.000000 0.000000 0.000000 0.000000 0.036396
#
#
# Mechanical properties :
#
#
# Convention : Reuss Voigt Hill
#
# Bulk Modulus (GPa) = 56.77303 60.19140 58.48222
# Shear Modulus (GPa) = 20.74418 23.82844 22.28631
#
# Velocity S-wave (km/s) = 3.40131 3.64540 3.52547
# Velocity P-wave (km/s) = 6.86201 7.16149 7.01335
#
# Compressibility (1/GPa) = 0.01761400
#
# Stress axis : x y z
#
# Youngs Moduli (GPa) = 30.39414 86.88656 44.83811
#
# Poissons Ratio (x) = 0.53409 0.72350
# Poissons Ratio (y) = 0.18683 0.10163
# Poissons Ratio (z) = 0.49044 0.19693
#
# Static dielectric constant tensor:
#      x y z
#    x 3.212400 0.000000 0.000000 
#    y 0.000000 3.730850 0.000000 
#    z 0.000000 0.000000 3.211400 
# 
# 
# High freq. dielectric constant tensor:
#      x y z
#    x 1.682210 0.000000 0.000000 
#    y 0.000000 1.716460 0.000000 
#    z 0.000000 0.000000 1.674150 
# 
# From -- ./inp_files/56061.got.cif
#   From: 2010.03.12/outbox.cif.g09.slc.cpg/sg63_29_cif.got.tgz:56061.got - 2010.04.10 19:34:48.
