data_PCOD8259752
_publ_section_title
;
Structure prediction by ZEFSAII (Michael W. Deem and Ramdas Pophale) SiO2 
 PCOD8259752
Probable space group: C M C M
;
_chemical_formula_sum "Si O2"
_cell_formula_units_Z 96
_cell_length_a 9.187838
_cell_length_b 19.556239
_cell_length_c 27.514558
_cell_angle_alpha 90.000000
_cell_angle_beta 90.000000
_cell_angle_gamma 90.000000
_cell_volume 4943.803560
_symmetry_space_group_name_H-M "C M C M"
_symmetry_group_IT_number 63
_symmetry_cell_setting 'orthorhombic'
loop_
_space_group_symop_operation_xyz
x,y,z
-x,-y,1/2+z
x,-y,-z
-x,y,1/2-z
-x,-y,-z
x,y,1/2-z
-x,y,z
x,-y,1/2+z
1/2+x,1/2+y,z
1/2-x,1/2-y,1/2+z
1/2+x,1/2-y,-z
1/2-x,1/2+y,1/2-z
1/2-x,1/2-y,-z
1/2+x,1/2+y,1/2-z
1/2-x,1/2+y,z
1/2+x,1/2-y,1/2+z
loop_
_atom_site_type_symbol
_atom_site_label
_atom_site_fract_x
_atom_site_fract_y
_atom_site_fract_z
Si Si1 0.668662 0.117486 0.305950
Si Si2 0.328559 0.263557 0.853869
Si Si3 0.165263 0.473056 0.148045
Si Si4 0.331751 0.050605 0.539558
Si Si5 0.327474 0.794016 0.459064
Si Si6 0.165552 0.853515 0.305562
O O1 0.716604 0.128107 0.250000
O O2 0.500000 0.136825 0.312815
O O3 0.764211 0.161907 0.342884
O O4 0.697708 0.039570 0.320474
O O5 0.500000 0.265463 0.847112
O O6 0.283832 0.238500 0.907389
O O7 0.260982 0.213519 0.813912
O O8 0.189992 0.486744 0.091094
O O9 0.277455 0.415162 0.162308
O O10 0.000000 0.446942 0.157024
O O11 0.500000 0.058746 0.526275
O O12 0.267204 0.127821 0.538987
O O13 0.256538 0.000000 0.500000
O O14 0.500000 0.791004 0.466756
O O15 0.250000 0.750000 0.500000
O O16 0.179206 0.875651 0.250000
O O17 0.000000 0.837365 0.320236
#
# Coordination Sequence:
#
# PCOD8259752 Si02
#       6
#    16  16  16  16  16  16
#     4  10  22  38  58  88 121 156 201 246 292 350
#     4  11  23  40  60  85 119 157 198 243 292 350
#     4  10  20  38  62  87 118 154 194 242 293 350
#     4   9  18  35  60  88 115 146 190 239 288 346
#     4  10  22  39  60  88 118 148 191 240 289 354
#     4  11  23  38  59  87 118 153 195 244 296 351
#
# _framework density 19.418246
#
# number of rings (size 3 to 8) (size 9 to 14) (size 15 to 20)
#    0.000    1.833    1.667    2.000    2.333    6.333 
#    0.000    0.000    0.000    1.000    0.000    0.000 
#    0.000    0.000    0.000    0.000    0.000    0.000 
#
# Total GULP energy -595278.952510 kJ/mol
# GULP energy per Si atom -12401.644844 kJ/mol
# Density = 1.937405 g / cm^3
# Si number density = 19.418246 Si / 1000 Ang^3
#
#
#
# Elastic Constant Matrix: (Units=GPa)
#
#
# Indices 1 2 3 4 5 6 
#
# 1 56.9643 33.2127 31.8918 0.0000 0.0000 0.0000
# 2 33.2127 86.6276 39.1013 0.0000 0.0000 0.0000
# 3 31.8918 39.1013 88.5351 0.0000 0.0000 0.0000
# 4 0.0000 0.0000 0.0000 43.0273 0.0000 0.0000
# 5 0.0000 0.0000 0.0000 0.0000 29.9450 0.0000
# 6 0.0000 0.0000 0.0000 0.0000 0.0000 34.8480
#
#
#
# Elastic Compliance Matrix: (Units=1/GPa)
#
#
# Indices 1 2 3 4 5 6 
#
# 1 0.024875 -0.006860 -0.005931 0.000000 0.000000 0.000000
# 2 -0.006860 0.016310 -0.004732 0.000000 0.000000 0.000000
# 3 -0.005931 -0.004732 0.015521 0.000000 0.000000 0.000000
# 4 0.000000 0.000000 0.000000 0.023241 0.000000 0.000000
# 5 0.000000 0.000000 0.000000 0.000000 0.033395 0.000000
# 6 0.000000 0.000000 0.000000 0.000000 0.000000 0.028696
#
#
# Mechanical properties :
#
#
# Convention : Reuss Voigt Hill
#
# Bulk Modulus (GPa) = 46.16733 48.94872 47.55802
# Shear Modulus (GPa) = 27.12927 30.09213 28.61070
#
# Velocity S-wave (km/s) = 3.74184 3.94087 3.84264
# Velocity P-wave (km/s) = 6.51884 6.78009 6.65075
#
# Compressibility (1/GPa) = 0.02166034
#
# Stress axis : x y z
#
# Youngs Moduli (GPa) = 40.20133 61.31329 64.42818
#
# Poissons Ratio (x) = 0.42061 0.38210
# Poissons Ratio (y) = 0.27578 0.30488
# Poissons Ratio (z) = 0.23842 0.29014
#
# Static dielectric constant tensor:
#      x y z
#    x 3.390770 0.000000 0.000000 
#    y 0.000000 3.750940 0.000000 
#    z 0.000000 0.000000 3.688630 
# 
# 
# High freq. dielectric constant tensor:
#      x y z
#    x 1.733900 0.000000 0.000000 
#    y 0.000000 1.764860 0.000000 
#    z 0.000000 0.000000 1.766840 
# 
# From -- ./inp_files/66912.got.cif
#   From: 2010.03.12/outbox.cif.g09.slc.cpg/sg63_34_cif.got.tgz:66912.got - 2010.04.10 19:34:48.
