data_PCOD8259455
_publ_section_title
;
Structure prediction by ZEFSAII (Michael W. Deem and Ramdas Pophale) SiO2 
 PCOD8259455
Probable space group: C M C M
;
_chemical_formula_sum "Si O2"
_cell_formula_units_Z 64
_cell_length_a 8.813691
_cell_length_b 15.320334
_cell_length_c 25.923381
_cell_angle_alpha 90.000000
_cell_angle_beta 90.000000
_cell_angle_gamma 90.000000
_cell_volume 3500.400174
_symmetry_space_group_name_H-M "C M C M"
_symmetry_group_IT_number 63
_symmetry_cell_setting 'orthorhombic'
loop_
_space_group_symop_operation_xyz
x,y,z
-x,-y,1/2+z
x,-y,-z
-x,y,1/2-z
-x,-y,-z
x,y,1/2-z
-x,y,z
x,-y,1/2+z
1/2+x,1/2+y,z
1/2-x,1/2-y,1/2+z
1/2+x,1/2-y,-z
1/2-x,1/2+y,1/2-z
1/2-x,1/2-y,-z
1/2+x,1/2+y,1/2-z
1/2-x,1/2+y,z
1/2+x,1/2-y,1/2+z
loop_
_atom_site_type_symbol
_atom_site_label
_atom_site_fract_x
_atom_site_fract_y
_atom_site_fract_z
Si Si1 0.325333 0.465059 0.309436
Si Si2 0.328583 0.281543 0.551440
Si Si3 0.321153 0.122945 0.364115
Si Si4 0.171552 0.291963 0.343396
O O1 0.300734 0.489515 0.250000
O O2 0.500000 0.474344 0.325629
O O3 0.224386 0.527884 0.344497
O O4 0.273127 0.366527 0.318704
O O5 0.500000 0.310964 0.538973
O O6 0.250000 0.250000 0.500000
O O7 0.238246 0.363687 0.576809
O O8 0.327404 0.202715 0.593746
O O9 0.500000 0.133512 0.362300
O O10 0.243593 0.197620 0.327878
O O11 0.000000 0.298047 0.321863
#
# Coordination Sequence:
#
# PCOD8259455 Si02
#       4
#    16  16  16  16
#     4  11  23  38  57  82 112 147 188 232 278 329
#     4   9  18  34  58  84 112 146 183 227 277 329
#     4  10  20  36  58  82 113 148 185 229 275 329
#     4   9  20  37  57  82 113 145 184 230 275 329
#
# _framework density 18.283624
#
# number of rings (size 3 to 8) (size 9 to 14) (size 15 to 20)
#    1.500    0.750    0.000    3.750    0.000    3.000 
#    0.000    1.250    0.000    7.500    0.000    0.000 
#    0.000    0.000    0.000    0.000    0.000    0.000 
#
# Total GULP energy -396549.265621 kJ/mol
# GULP energy per Si atom -12392.164551 kJ/mol
# Density = 1.824201 g / cm^3
# Si number density = 18.283624 Si / 1000 Ang^3
#
#
#
# Elastic Constant Matrix: (Units=GPa)
#
#
# Indices 1 2 3 4 5 6 
#
# 1 133.8155 17.1981 28.9882 0.0000 0.0000 0.0000
# 2 17.1981 59.8053 -2.7867 0.0000 0.0000 0.0000
# 3 28.9882 -2.7867 36.5214 0.0000 0.0000 0.0000
# 4 0.0000 0.0000 0.0000 25.8022 0.0000 0.0000
# 5 0.0000 0.0000 0.0000 0.0000 28.5524 0.0000
# 6 0.0000 0.0000 0.0000 0.0000 0.0000 35.1289
#
#
#
# Elastic Compliance Matrix: (Units=1/GPa)
#
#
# Indices 1 2 3 4 5 6 
#
# 1 0.009571 -0.003117 -0.007835 0.000000 0.000000 0.000000
# 2 -0.003117 0.017796 0.003832 0.000000 0.000000 0.000000
# 3 -0.007835 0.003832 0.033892 0.000000 0.000000 0.000000
# 4 0.000000 0.000000 0.000000 0.038756 0.000000 0.000000
# 5 0.000000 0.000000 0.000000 0.000000 0.035023 0.000000
# 6 0.000000 0.000000 0.000000 0.000000 0.000000 0.028467
#
#
# Mechanical properties :
#
#
# Convention : Reuss Voigt Hill
#
# Bulk Modulus (GPa) = 21.26770 35.21570 28.24170
# Shear Modulus (GPa) = 25.85080 30.34620 28.09850
#
# Velocity S-wave (km/s) = 3.76424 4.07842 3.92447
# Velocity P-wave (km/s) = 5.52720 6.44054 6.00127
#
# Compressibility (1/GPa) = 0.04701965
#
# Stress axis : x y z
#
# Youngs Moduli (GPa) = 104.48454 56.19256 29.50538
#
# Poissons Ratio (x) = 0.17517 0.23116
# Poissons Ratio (y) = 0.32571 -0.11307
# Poissons Ratio (z) = 0.81859 -0.21534
#
# Static dielectric constant tensor:
#      x y z
#    x 3.454500 0.000000 0.000000 
#    y 0.000000 3.090190 0.000000 
#    z 0.000000 0.000000 3.170940 
# 
# 
# High freq. dielectric constant tensor:
#      x y z
#    x 1.730770 0.000000 0.000000 
#    y 0.000000 1.688120 0.000000 
#    z 0.000000 0.000000 1.689800 
# 
# From -- ./inp_files/59216.got.cif
#   From: 2010.03.12/outbox.cif.g09.slc.cpg/sg63_30_cif.got.tgz:59216.got - 2010.04.10 19:34:48.
