data_PCOD8259596
_publ_section_title
;
Structure prediction by ZEFSAII (Michael W. Deem and Ramdas Pophale) SiO2 
 PCOD8259596
Probable space group: C M C M
;
_chemical_formula_sum "Si O2"
_cell_formula_units_Z 96
_cell_length_a 12.572912
_cell_length_b 23.712739
_cell_length_c 17.903519
_cell_angle_alpha 90.000000
_cell_angle_beta 90.000000
_cell_angle_gamma 90.000000
_cell_volume 5337.722583
_symmetry_space_group_name_H-M "C M C M"
_symmetry_group_IT_number 63
_symmetry_cell_setting 'orthorhombic'
loop_
_space_group_symop_operation_xyz
x,y,z
-x,-y,1/2+z
x,-y,-z
-x,y,1/2-z
-x,-y,-z
x,y,1/2-z
-x,y,z
x,-y,1/2+z
1/2+x,1/2+y,z
1/2-x,1/2-y,1/2+z
1/2+x,1/2-y,-z
1/2-x,1/2+y,1/2-z
1/2-x,1/2-y,-z
1/2+x,1/2+y,1/2-z
1/2-x,1/2+y,z
1/2+x,1/2-y,1/2+z
loop_
_atom_site_type_symbol
_atom_site_label
_atom_site_fract_x
_atom_site_fract_y
_atom_site_fract_z
Si Si1 0.298827 0.147128 0.066785
Si Si2 0.875184 0.748121 0.334581
Si Si3 0.378805 0.343214 0.049628
Si Si4 0.000000 0.496675 0.115859
Si Si5 0.121301 0.973304 0.077120
Si Si6 0.000000 0.403367 0.497942
Si Si7 0.782635 0.538710 0.166498
O O1 0.322662 0.194045 0.127910
O O2 0.396993 0.136192 0.010109
O O3 0.272754 0.090133 0.109891
O O4 0.197327 0.168519 0.020390
O O5 0.831833 0.755146 0.250000
O O6 0.845694 0.803808 0.381203
O O7 0.000000 0.737419 0.333260
O O8 0.500000 0.330814 0.024054
O O9 0.366002 0.406666 0.076864
O O10 0.894785 0.505952 0.164640
O O11 0.000000 0.544522 0.053578
O O12 0.000000 0.432559 0.083705
O O13 0.000000 0.992524 0.089183
O O14 0.190147 0.994989 0.146027
O O15 0.165625 0.000000 0.000000
O O16 0.764106 0.561071 0.250000
#
# Coordination Sequence:
#
# PCOD8259596 Si02
#       7
#    16  16  16   8  16   8  16
#     4  11  19  35  56  83 113 141 186 234 273 331
#     4  10  21  37  56  82 114 144 180 232 286 328
#     4  10  21  36  59  83 107 145 189 230 274 330
#     4   9  19  32  48  76 116 146 180 222 266 334
#     4  10  20  37  57  79 110 146 186 231 276 324
#     4   9  18  30  54  80 102 146 185 222 273 318
#     4  11  22  33  53  83 115 149 183 226 283 332
#
# _framework density 17.985199000000001
#
# number of rings (size 3 to 8) (size 9 to 14) (size 15 to 20)
#    0.000    1.833    2.500    2.250    2.333    1.000 
#    0.000    1.667    0.000    1.500    0.000    0.000 
#    0.000    0.000    0.000    0.000    0.000    0.000 
#
# Total GULP energy -595260.898340 kJ/mol
# GULP energy per Si atom -12401.268715 kJ/mol
# Density = 1.794426 g / cm^3
# Si number density = 17.985199 Si / 1000 Ang^3
#
#
#
# Elastic Constant Matrix: (Units=GPa)
#
#
# Indices 1 2 3 4 5 6 
#
# 1 78.1757 25.9785 51.6774 0.0000 0.0000 0.0000
# 2 25.9785 77.4548 43.4780 0.0000 0.0000 0.0000
# 3 51.6774 43.4780 114.2706 0.0000 0.0000 0.0000
# 4 0.0000 0.0000 0.0000 28.0279 0.0000 0.0000
# 5 0.0000 0.0000 0.0000 0.0000 16.5143 0.0000
# 6 0.0000 0.0000 0.0000 0.0000 0.0000 18.4683
#
#
#
# Elastic Compliance Matrix: (Units=1/GPa)
#
#
# Indices 1 2 3 4 5 6 
#
# 1 0.018467 -0.001915 -0.007623 0.000000 0.000000 0.000000
# 2 -0.001915 0.016616 -0.005456 0.000000 0.000000 0.000000
# 3 -0.007623 -0.005456 0.014274 0.000000 0.000000 0.000000
# 4 0.000000 0.000000 0.000000 0.035679 0.000000 0.000000
# 5 0.000000 0.000000 0.000000 0.000000 0.060553 0.000000
# 6 0.000000 0.000000 0.000000 0.000000 0.000000 0.054147
#
#
# Mechanical properties :
#
#
# Convention : Reuss Voigt Hill
#
# Bulk Modulus (GPa) = 51.62733 56.90764 54.26749
# Shear Modulus (GPa) = 21.17028 22.51994 21.84511
#
# Velocity S-wave (km/s) = 3.43460 3.54239 3.48892
# Velocity P-wave (km/s) = 6.67057 6.95999 6.81681
#
# Compressibility (1/GPa) = 0.01936958
#
# Stress axis : x y z
#
# Youngs Moduli (GPa) = 54.15037 60.18429 70.05539
#
# Poissons Ratio (x) = 0.11525 0.53403
# Poissons Ratio (y) = 0.10369 0.38222
# Poissons Ratio (z) = 0.41278 0.32836
#
# Static dielectric constant tensor:
#      x y z
#    x 3.426990 0.000000 0.000000 
#    y 0.000000 3.345700 0.000000 
#    z 0.000000 0.000000 3.251590 
# 
# 
# High freq. dielectric constant tensor:
#      x y z
#    x 1.695960 0.000000 0.000000 
#    y 0.000000 1.696160 0.000000 
#    z 0.000000 0.000000 1.683400 
# 
# From -- ./inp_files/42554.got.cif
#   From: 2010.03.12/outbox.cif.g09.slc.cpg/sg63_22_cif.got.tgz:42554.got - 2010.04.10 19:34:48.
