data_PCOD8259301
_publ_section_title
;
Structure prediction by ZEFSAII (Michael W. Deem and Ramdas Pophale) SiO2 
 PCOD8259301
Probable space group: C M C M
;
_chemical_formula_sum "Si O2"
_cell_formula_units_Z 112
_cell_length_a 22.372468
_cell_length_b 14.697082
_cell_length_c 16.358231
_cell_angle_alpha 90.000000
_cell_angle_beta 90.000000
_cell_angle_gamma 90.000000
_cell_volume 5378.749882
_symmetry_space_group_name_H-M "C M C M"
_symmetry_group_IT_number 63
_symmetry_cell_setting 'orthorhombic'
loop_
_space_group_symop_operation_xyz
x,y,z
-x,-y,1/2+z
x,-y,-z
-x,y,1/2-z
-x,-y,-z
x,y,1/2-z
-x,y,z
x,-y,1/2+z
1/2+x,1/2+y,z
1/2-x,1/2-y,1/2+z
1/2+x,1/2-y,-z
1/2-x,1/2+y,1/2-z
1/2-x,1/2-y,-z
1/2+x,1/2+y,1/2-z
1/2-x,1/2+y,z
1/2+x,1/2-y,1/2+z
loop_
_atom_site_type_symbol
_atom_site_label
_atom_site_fract_x
_atom_site_fract_y
_atom_site_fract_z
Si Si1 0.716500 0.093687 0.542902
Si Si2 0.932995 0.208760 0.067770
Si Si3 0.326924 0.387379 0.156955
Si Si4 0.350392 0.215532 0.067881
Si Si5 0.932684 0.578315 0.157041
Si Si6 0.932067 0.990003 0.596222
Si Si7 0.893590 0.619333 0.656212
O O1 0.780442 0.084045 0.586329
O O2 0.709790 0.174211 0.474555
O O3 0.669464 0.116637 0.612259
O O4 0.700872 0.000000 0.500000
O O5 0.917367 0.115845 0.116950
O O6 0.931754 0.293959 0.128693
O O7 0.000000 0.199172 0.031294
O O8 0.886785 0.220661 0.994114
O O9 0.304079 0.403280 0.250000
O O10 0.335861 0.278741 0.145489
O O11 0.387629 0.444458 0.145587
O O12 0.390388 0.130408 0.094578
O O13 0.911384 0.595828 0.250000
O O14 0.931200 0.471210 0.136991
O O15 0.000000 0.613341 0.144198
O O16 0.000000 0.015298 0.622155
O O17 0.922899 0.000000 0.500000
O O18 0.878240 0.629529 0.750000
#
# Coordination Sequence:
#
# PCOD8259301 Si02
#       7
#    16  16  16  16  16  16  16
#     4  11  23  43  68  89 119 166 213 263 309 371
#     4  10  21  36  63  94 124 165 210 256 303 363
#     4  12  26  43  65  94 126 162 207 263 322 377
#     4  11  22  40  63  92 123 165 209 259 307 375
#     4  10  20  35  58  91 132 171 204 249 313 377
#     4  10  21  42  67  93 127 167 209 256 310 372
#     4  10  21  39  60  91 131 168 206 257 313 363
#
# _framework density 20.822682
#
# number of rings (size 3 to 8) (size 9 to 14) (size 15 to 20)
#    0.000    1.429    2.857    2.571    0.000    2.286 
#    0.000    3.571    0.000    0.000    0.000    0.000 
#    0.000    0.000    0.000    0.000    0.000    0.000 
#
# Total GULP energy -694318.234478 kJ/mol
# GULP energy per Si atom -12398.539901 kJ/mol
# Density = 2.077529 g / cm^3
# Si number density = 20.822682 Si / 1000 Ang^3
#
#
#
# Elastic Constant Matrix: (Units=GPa)
#
#
# Indices 1 2 3 4 5 6 
#
# 1 87.2164 31.4427 26.1505 0.0000 0.0000 0.0000
# 2 31.4427 107.7844 39.3275 0.0000 0.0000 0.0000
# 3 26.1505 39.3275 76.4148 0.0000 0.0000 0.0000
# 4 0.0000 0.0000 0.0000 30.2772 0.0000 0.0000
# 5 0.0000 0.0000 0.0000 0.0000 22.2176 0.0000
# 6 0.0000 0.0000 0.0000 0.0000 0.0000 29.6783
#
#
#
# Elastic Compliance Matrix: (Units=1/GPa)
#
#
# Indices 1 2 3 4 5 6 
#
# 1 0.013410 -0.002755 -0.003171 0.000000 0.000000 0.000000
# 2 -0.002755 0.011989 -0.005227 0.000000 0.000000 0.000000
# 3 -0.003171 -0.005227 0.016862 0.000000 0.000000 0.000000
# 4 0.000000 0.000000 0.000000 0.033028 0.000000 0.000000
# 5 0.000000 0.000000 0.000000 0.000000 0.045009 0.000000
# 6 0.000000 0.000000 0.000000 0.000000 0.000000 0.033695
#
#
# Mechanical properties :
#
#
# Convention : Reuss Voigt Hill
#
# Bulk Modulus (GPa) = 50.11609 51.69523 50.90566
# Shear Modulus (GPa) = 27.32977 28.06761 27.69869
#
# Velocity S-wave (km/s) = 3.62677 3.67541 3.65117
# Velocity P-wave (km/s) = 6.45432 6.54918 6.50192
#
# Compressibility (1/GPa) = 0.01995367
#
# Stress axis : x y z
#
# Youngs Moduli (GPa) = 74.57280 83.41184 59.30474
#
# Poissons Ratio (x) = 0.22978 0.18807
# Poissons Ratio (y) = 0.20543 0.31001
# Poissons Ratio (z) = 0.23649 0.43602
#
# Static dielectric constant tensor:
#      x y z
#    x 3.668710 0.000000 0.000000 
#    y 0.000000 4.035650 0.000000 
#    z 0.000000 0.000000 3.699940 
# 
# 
# High freq. dielectric constant tensor:
#      x y z
#    x 1.809940 0.000000 0.000000 
#    y 0.000000 1.829740 0.000000 
#    z 0.000000 0.000000 1.804150 
# 
# From -- ./inp_files/36904.got.cif
#   From: 2010.03.12/outbox.cif.g09.slc.cpg/sg63_19_cif.got.tgz:36904.got - 2010.04.10 19:34:48.
