data_PCOD8259413
_publ_section_title
;
Structure prediction by ZEFSAII (Michael W. Deem and Ramdas Pophale) SiO2 
 PCOD8259413
Probable space group: C M C M
;
_chemical_formula_sum "Si O2"
_cell_formula_units_Z 104
_cell_length_a 28.481692
_cell_length_b 9.212909
_cell_length_c 19.851916
_cell_angle_alpha 90.000000
_cell_angle_beta 90.000000
_cell_angle_gamma 90.000000
_cell_volume 5209.127603
_symmetry_space_group_name_H-M "C M C M"
_symmetry_group_IT_number 63
_symmetry_cell_setting 'orthorhombic'
loop_
_space_group_symop_operation_xyz
x,y,z
-x,-y,1/2+z
x,-y,-z
-x,y,1/2-z
-x,-y,-z
x,y,1/2-z
-x,y,z
x,-y,1/2+z
1/2+x,1/2+y,z
1/2-x,1/2-y,1/2+z
1/2+x,1/2-y,-z
1/2-x,1/2+y,1/2-z
1/2-x,1/2-y,-z
1/2+x,1/2+y,1/2-z
1/2-x,1/2+y,z
1/2+x,1/2-y,1/2+z
loop_
_atom_site_type_symbol
_atom_site_label
_atom_site_fract_x
_atom_site_fract_y
_atom_site_fract_z
Si Si1 0.675571 0.098954 0.750000
Si Si2 0.377288 0.648286 0.610098
Si Si3 0.213930 0.991396 0.606870
Si Si4 0.852835 0.283235 0.750000
Si Si5 0.447759 0.420220 0.570967
Si Si6 0.308111 0.174434 0.602551
Si Si7 0.781974 0.945626 0.250000
Si Si8 0.897588 0.656825 0.514365
O O1 0.669815 0.184244 0.821206
O O2 0.727307 0.039185 0.750000
O O3 0.642681 0.956617 0.750000
O O4 0.327383 0.593926 0.578315
O O5 0.377063 0.722207 0.683005
O O6 0.412393 0.511132 0.617895
O O7 0.394414 0.767397 0.557770
O O8 0.212279 0.829479 0.577353
O O9 0.265441 0.059364 0.597034
O O10 0.198820 0.972800 0.684891
O O11 0.798794 0.223973 0.750000
O O12 0.448566 0.500000 0.500000
O O13 0.500000 0.416794 0.602745
O O14 0.429728 0.254814 0.563317
O O15 0.347722 0.126454 0.550306
O O16 0.921076 0.500000 0.500000
#
# Coordination Sequence:
#
# PCOD8259413 Si02
#       8
#     8  16  16   8  16  16   8  16
#     4  10  21  32  56  78 118 158 212 250 290 355
#     4  10  21  40  60  84 120 151 206 251 302 368
#     4  10  21  34  52  78 115 159 201 248 295 349
#     4  10  20  36  57  81 111 158 194 252 308 351
#     4   9  19  40  66  87 110 147 193 248 301 354
#     4  11  23  35  54  81 119 166 206 246 298 356
#     4   8  19  28  50  71 105 146 204 242 277 332
#     4  11  23  38  57  87 125 158 199 251 303 364
#
# _framework density 19.964955
#
# number of rings (size 3 to 8) (size 9 to 14) (size 15 to 20)
#    0.000    2.000    1.538    1.385   15.077    0.923 
#    0.000    0.385    0.000    0.000    0.000    1.077 
#    0.000    0.000    0.000    0.000    0.000    0.000 
#
# Total GULP energy -644321.419343 kJ/mol
# GULP energy per Si atom -12390.796526 kJ/mol
# Density = 1.991951 g / cm^3
# Si number density = 19.964955 Si / 1000 Ang^3
#
#
#
# Elastic Constant Matrix: (Units=GPa)
#
#
# Indices 1 2 3 4 5 6 
#
# 1 91.3108 29.5993 20.2179 0.0000 0.0000 0.0000
# 2 29.5993 124.2580 22.9253 0.0000 0.0000 0.0000
# 3 20.2179 22.9253 65.0914 0.0000 0.0000 0.0000
# 4 0.0000 0.0000 0.0000 11.9498 0.0000 0.0000
# 5 0.0000 0.0000 0.0000 0.0000 12.6872 0.0000
# 6 0.0000 0.0000 0.0000 0.0000 0.0000 24.2593
#
#
#
# Elastic Compliance Matrix: (Units=1/GPa)
#
#
# Indices 1 2 3 4 5 6 
#
# 1 0.012394 -0.002398 -0.003005 0.000000 0.000000 0.000000
# 2 -0.002398 0.009071 -0.002450 0.000000 0.000000 0.000000
# 3 -0.003005 -0.002450 0.017159 0.000000 0.000000 0.000000
# 4 0.000000 0.000000 0.000000 0.083683 0.000000 0.000000
# 5 0.000000 0.000000 0.000000 0.000000 0.078819 0.000000
# 6 0.000000 0.000000 0.000000 0.000000 0.000000 0.041221
#
#
# Mechanical properties :
#
#
# Convention : Reuss Voigt Hill
#
# Bulk Modulus (GPa) = 43.63319 47.34947 45.49133
# Shear Modulus (GPa) = 18.81862 23.64046 21.22954
#
# Velocity S-wave (km/s) = 3.07348 3.44481 3.26443
# Velocity P-wave (km/s) = 5.87345 6.29206 6.08635
#
# Compressibility (1/GPa) = 0.02291834
#
# Stress axis : x y z
#
# Youngs Moduli (GPa) = 80.68196 110.24135 58.27723
#
# Poissons Ratio (x) = 0.26436 0.17514
# Poissons Ratio (y) = 0.19347 0.14278
# Poissons Ratio (z) = 0.24247 0.27009
#
# Static dielectric constant tensor:
#      x y z
#    x 3.517450 0.000000 0.000000 
#    y 0.000000 3.679750 0.000000 
#    z 0.000000 0.000000 4.090240 
# 
# 
# High freq. dielectric constant tensor:
#      x y z
#    x 1.741650 0.000000 0.000000 
#    y 0.000000 1.787680 0.000000 
#    z 0.000000 0.000000 1.770780 
# 
# From -- ./inp_files/58241.got.cif
#   From: 2010.03.12/outbox.cif.g09.slc.cpg/sg63_30_cif.got.tgz:58241.got - 2010.04.10 19:34:48.
