data_PCOD8259436
_publ_section_title
;
Structure prediction by ZEFSAII (Michael W. Deem and Ramdas Pophale) SiO2 
 PCOD8259436
Probable space group: C M C M
;
_chemical_formula_sum "Si O2"
_cell_formula_units_Z 56
_cell_length_a 16.568897
_cell_length_b 10.021510
_cell_length_c 16.216848
_cell_angle_alpha 90.000000
_cell_angle_beta 90.000000
_cell_angle_gamma 90.000000
_cell_volume 2692.732477
_symmetry_space_group_name_H-M "C M C M"
_symmetry_group_IT_number 63
_symmetry_cell_setting 'orthorhombic'
loop_
_space_group_symop_operation_xyz
x,y,z
-x,-y,1/2+z
x,-y,-z
-x,y,1/2-z
-x,-y,-z
x,y,1/2-z
-x,y,z
x,-y,1/2+z
1/2+x,1/2+y,z
1/2-x,1/2-y,1/2+z
1/2+x,1/2-y,-z
1/2-x,1/2+y,1/2-z
1/2-x,1/2-y,-z
1/2+x,1/2+y,1/2-z
1/2-x,1/2+y,z
1/2+x,1/2-y,1/2+z
loop_
_atom_site_type_symbol
_atom_site_label
_atom_site_fract_x
_atom_site_fract_y
_atom_site_fract_z
Si Si1 0.909906 0.990401 0.750000
Si Si2 0.712280 0.835831 0.118390
Si Si3 0.328097 0.562560 0.422790
Si Si4 0.903943 0.553947 0.750000
Si Si5 0.163191 0.741218 0.250000
O O1 0.867234 0.936733 0.667697
O O2 0.908578 0.150309 0.750000
O O3 0.000000 0.935156 0.750000
O O4 0.688026 0.717959 0.054267
O O5 0.747538 0.969197 0.076838
O O6 0.632866 0.875457 0.169756
O O7 0.781216 0.762884 0.171177
O O8 0.380192 0.500000 0.500000
O O9 0.878391 0.400677 0.750000
O O10 0.000000 0.570286 0.750000
#
# Coordination Sequence:
#
# PCOD8259436 Si02
#       5
#     8  16  16   8   8
#     4  10  22  38  58  87 122 153 198 248 305 366
#     4  10  20  36  57  88 118 154 203 252 294 357
#     4  11  22  38  63  87 116 159 204 250 296 357
#     4  11  20  33  61  92 122 160 202 250 307 358
#     4   9  17  35  60  83 116 163 196 240 301 358
#
# _framework density 20.796719
#
# number of rings (size 3 to 8) (size 9 to 14) (size 15 to 20)
#    0.000    1.714    2.857    3.857    0.000    2.857 
#    0.000    0.000    0.000    0.857    0.000    0.000 
#    0.000    0.000    0.000    0.000    0.000    0.000 
#
# Total GULP energy -346866.873977 kJ/mol
# GULP energy per Si atom -12388.102642 kJ/mol
# Density = 2.074938 g / cm^3
# Si number density = 20.796719 Si / 1000 Ang^3
#
#
#
# Elastic Constant Matrix: (Units=GPa)
#
#
# Indices 1 2 3 4 5 6 
#
# 1 106.1128 38.6795 22.5886 0.0000 0.0000 0.0000
# 2 38.6795 148.5951 13.6572 0.0000 0.0000 0.0000
# 3 22.5886 13.6572 98.3597 0.0000 0.0000 0.0000
# 4 0.0000 0.0000 0.0000 32.8740 0.0000 0.0000
# 5 0.0000 0.0000 0.0000 0.0000 10.2165 0.0000
# 6 0.0000 0.0000 0.0000 0.0000 0.0000 17.3955
#
#
#
# Elastic Compliance Matrix: (Units=1/GPa)
#
#
# Indices 1 2 3 4 5 6 
#
# 1 0.010833 -0.002625 -0.002123 0.000000 0.000000 0.000000
# 2 -0.002625 0.007453 -0.000432 0.000000 0.000000 0.000000
# 3 -0.002123 -0.000432 0.010714 0.000000 0.000000 0.000000
# 4 0.000000 0.000000 0.000000 0.030419 0.000000 0.000000
# 5 0.000000 0.000000 0.000000 0.000000 0.097881 0.000000
# 6 0.000000 0.000000 0.000000 0.000000 0.000000 0.057486
#
#
# Mechanical properties :
#
#
# Convention : Reuss Voigt Hill
#
# Bulk Modulus (GPa) = 53.64899 55.87981 54.76440
# Shear Modulus (GPa) = 21.61140 30.64000 26.12570
#
# Velocity S-wave (km/s) = 3.22712 3.84254 3.54819
# Velocity P-wave (km/s) = 6.30385 6.82749 6.57089
#
# Compressibility (1/GPa) = 0.01863968
#
# Stress axis : x y z
#
# Youngs Moduli (GPa) = 92.31368 134.18152 93.33255
#
# Poissons Ratio (x) = 0.35217 0.19817
# Poissons Ratio (y) = 0.24229 0.04032
# Poissons Ratio (z) = 0.19601 0.05797
#
# Static dielectric constant tensor:
#      x y z
#    x 3.420820 0.000000 0.000000 
#    y 0.000000 4.100300 0.000000 
#    z 0.000000 0.000000 4.001820 
# 
# 
# High freq. dielectric constant tensor:
#      x y z
#    x 1.768980 0.000000 0.000000 
#    y 0.000000 1.846390 0.000000 
#    z 0.000000 0.000000 1.814230 
# 
# From -- ./inp_files/45028.got.cif
#   From: 2010.03.12/outbox.cif.g09.slc.cpg/sg63_23_cif.got.tgz:45028.got - 2010.04.10 19:34:48.
