data_PCOD8259387
_publ_section_title
;
Structure prediction by ZEFSAII (Michael W. Deem and Ramdas Pophale) SiO2 
 PCOD8259387
Probable space group: C M C M
;
_chemical_formula_sum "Si O2"
_cell_formula_units_Z 96
_cell_length_a 9.409406
_cell_length_b 20.144676
_cell_length_c 27.571636
_cell_angle_alpha 90.000000
_cell_angle_beta 90.000000
_cell_angle_gamma 90.000000
_cell_volume 5226.188032
_symmetry_space_group_name_H-M "C M C M"
_symmetry_group_IT_number 63
_symmetry_cell_setting 'orthorhombic'
loop_
_space_group_symop_operation_xyz
x,y,z
-x,-y,1/2+z
x,-y,-z
-x,y,1/2-z
-x,-y,-z
x,y,1/2-z
-x,y,z
x,-y,1/2+z
1/2+x,1/2+y,z
1/2-x,1/2-y,1/2+z
1/2+x,1/2-y,-z
1/2-x,1/2+y,1/2-z
1/2-x,1/2-y,-z
1/2+x,1/2+y,1/2-z
1/2-x,1/2+y,z
1/2+x,1/2-y,1/2+z
loop_
_atom_site_type_symbol
_atom_site_label
_atom_site_fract_x
_atom_site_fract_y
_atom_site_fract_z
Si Si1 0.664415 0.870819 0.107612
Si Si2 0.663663 0.172015 0.194841
Si Si3 0.665027 0.675297 0.805343
Si Si4 0.662729 0.261263 0.547976
Si Si5 0.834686 0.116377 0.389285
Si Si6 0.835177 0.982617 0.054853
O O1 0.500000 0.890061 0.114390
O O2 0.740693 0.871254 0.159981
O O3 0.683527 0.798481 0.085103
O O4 0.737673 0.922404 0.071593
O O5 0.689921 0.149837 0.250000
O O6 0.500000 0.164103 0.180532
O O7 0.710863 0.248254 0.187834
O O8 0.754539 0.123036 0.161577
O O9 0.692728 0.653036 0.750000
O O10 0.500000 0.665854 0.818766
O O11 0.500000 0.269909 0.532320
O O12 0.750000 0.250000 0.500000
O O13 0.720570 0.327874 0.573359
O O14 0.000000 0.127231 0.379041
O O15 0.801449 0.044820 0.411067
O O16 0.000000 0.961521 0.058117
O O17 0.793663 0.000000 0.000000
#
# Coordination Sequence:
#
# PCOD8259387 Si02
#       6
#    16  16  16  16  16  16
#     4  11  22  36  56  84 115 144 181 233 286 331
#     4   9  18  33  55  84 114 144 179 222 276 332
#     4   9  18  34  57  84 113 147 186 224 270 334
#     4  10  21  35  53  80 109 139 180 229 276 325
#     4  10  20  36  56  81 110 142 185 229 273 326
#     4  10  22  40  60  78 107 154 195 229 274 332
#
# _framework density 18.369029000000001
#
# number of rings (size 3 to 8) (size 9 to 14) (size 15 to 20)
#    0.000    2.167    1.667    2.500    0.000    5.000 
#    0.000    2.500    0.000    1.000    0.000    0.000 
#    0.000    0.000    0.000    0.000    0.000    0.000 
#
# Total GULP energy -595361.082527 kJ/mol
# GULP energy per Si atom -12403.355886 kJ/mol
# Density = 1.832722 g / cm^3
# Si number density = 18.369029 Si / 1000 Ang^3
#
#
#
# Elastic Constant Matrix: (Units=GPa)
#
#
# Indices 1 2 3 4 5 6 
#
# 1 72.2640 23.2096 48.7833 0.0000 0.0000 0.0000
# 2 23.2096 33.3410 6.3594 0.0000 0.0000 0.0000
# 3 48.7833 6.3594 97.3240 0.0000 0.0000 0.0000
# 4 0.0000 0.0000 0.0000 31.6438 0.0000 0.0000
# 5 0.0000 0.0000 0.0000 0.0000 36.6030 0.0000
# 6 0.0000 0.0000 0.0000 0.0000 0.0000 30.2105
#
#
#
# Elastic Compliance Matrix: (Units=1/GPa)
#
#
# Indices 1 2 3 4 5 6 
#
# 1 0.028061 -0.017064 -0.012951 0.000000 0.000000 0.000000
# 2 -0.017064 0.040748 0.005891 0.000000 0.000000 0.000000
# 3 -0.012951 0.005891 0.016381 0.000000 0.000000 0.000000
# 4 0.000000 0.000000 0.000000 0.031602 0.000000 0.000000
# 5 0.000000 0.000000 0.000000 0.000000 0.027320 0.000000
# 6 0.000000 0.000000 0.000000 0.000000 0.000000 0.033101
#
#
# Mechanical properties :
#
#
# Convention : Reuss Voigt Hill
#
# Bulk Modulus (GPa) = 27.06865 39.95928 33.51396
# Shear Modulus (GPa) = 21.02816 27.99658 24.51237
#
# Velocity S-wave (km/s) = 3.38710 3.90823 3.65696
# Velocity P-wave (km/s) = 5.48312 6.49358 6.00962
#
# Compressibility (1/GPa) = 0.03694311
#
# Stress axis : x y z
#
# Youngs Moduli (GPa) = 35.63624 24.54092 61.04448
#
# Poissons Ratio (x) = 0.41877 0.79056
# Poissons Ratio (y) = 0.60810 -0.35959
# Poissons Ratio (z) = 0.46151 -0.14456
#
# Static dielectric constant tensor:
#      x y z
#    x 3.346520 0.000000 0.000000 
#    y 0.000000 3.272080 0.000000 
#    z 0.000000 0.000000 3.331420 
# 
# 
# High freq. dielectric constant tensor:
#      x y z
#    x 1.709020 0.000000 0.000000 
#    y 0.000000 1.699050 0.000000 
#    z 0.000000 0.000000 1.721750 
# 
# From -- ./inp_files/61498.got.cif
#   From: 2010.03.12/outbox.cif.g09.slc.cpg/sg63_31_cif.got.tgz:61498.got - 2010.04.10 19:34:48.
