data_PCOD8259502
_publ_section_title
;
Structure prediction by ZEFSAII (Michael W. Deem and Ramdas Pophale) SiO2 
 PCOD8259502
Probable space group: C M C M
;
_chemical_formula_sum "Si O2"
_cell_formula_units_Z 96
_cell_length_a 8.775313
_cell_length_b 28.687006
_cell_length_c 20.182951
_cell_angle_alpha 90.000000
_cell_angle_beta 90.000000
_cell_angle_gamma 90.000000
_cell_volume 5080.804753
_symmetry_space_group_name_H-M "C M C M"
_symmetry_group_IT_number 63
_symmetry_cell_setting 'orthorhombic'
loop_
_space_group_symop_operation_xyz
x,y,z
-x,-y,1/2+z
x,-y,-z
-x,y,1/2-z
-x,-y,-z
x,y,1/2-z
-x,y,z
x,-y,1/2+z
1/2+x,1/2+y,z
1/2-x,1/2-y,1/2+z
1/2+x,1/2-y,-z
1/2-x,1/2+y,1/2-z
1/2-x,1/2-y,-z
1/2+x,1/2+y,1/2-z
1/2-x,1/2+y,z
1/2+x,1/2-y,1/2+z
loop_
_atom_site_type_symbol
_atom_site_label
_atom_site_fract_x
_atom_site_fract_y
_atom_site_fract_z
Si Si1 0.321630 0.871891 0.025936
Si Si2 0.676978 0.533179 0.940194
Si Si3 0.820885 0.777526 0.061074
Si Si4 0.175144 0.219564 0.325935
Si Si5 0.826511 0.963960 0.674646
Si Si6 0.677654 0.127763 0.372907
O O1 0.500000 0.863864 0.034345
O O2 0.275259 0.920126 0.059821
O O3 0.235001 0.830532 0.063196
O O4 0.272529 0.872230 0.949356
O O5 0.500000 0.546150 0.948420
O O6 0.712736 0.508007 0.871012
O O7 0.730723 0.500000 0.000000
O O8 0.776525 0.753561 0.129845
O O9 0.000000 0.775753 0.052566
O O10 0.750000 0.750000 0.000000
O O11 0.197160 0.234616 0.250000
O O12 0.227001 0.166343 0.334123
O O13 0.000000 0.223766 0.347977
O O14 0.803224 0.980265 0.750000
O O15 0.713379 0.921996 0.658720
O O16 0.000000 0.947354 0.661304
O O17 0.500000 0.138708 0.364760
#
# Coordination Sequence:
#
# PCOD8259502 Si02
#       6
#    16  16  16  16  16  16
#     4  11  23  38  59  89 120 153 197 246 296 348
#     4  10  20  36  59  84 112 151 197 241 289 349
#     4  12  24  40  64  90 120 158 201 248 297 353
#     4  11  24  41  62  89 123 161 199 243 299 360
#     4  10  21  37  57  83 117 154 193 241 298 355
#     4  11  22  35  57  88 122 156 193 243 298 356
#
# _framework density 18.894644
#
# number of rings (size 3 to 8) (size 9 to 14) (size 15 to 20)
#    0.000    1.167    3.333    3.500    0.000    6.000 
#    0.000    0.833    0.000    3.000    0.000    0.000 
#    0.000    0.000    0.000    0.000    0.000    0.000 
#
# Total GULP energy -595549.932760 kJ/mol
# GULP energy per Si atom -12407.290266 kJ/mol
# Density = 1.885164 g / cm^3
# Si number density = 18.894644 Si / 1000 Ang^3
#
#
#
# Elastic Constant Matrix: (Units=GPa)
#
#
# Indices 1 2 3 4 5 6 
#
# 1 97.2526 52.7165 46.1347 0.0000 0.0000 0.0000
# 2 52.7165 120.9899 49.9510 0.0000 0.0000 0.0000
# 3 46.1347 49.9510 108.0620 0.0000 0.0000 0.0000
# 4 0.0000 0.0000 0.0000 29.2973 0.0000 0.0000
# 5 0.0000 0.0000 0.0000 0.0000 28.1683 0.0000
# 6 0.0000 0.0000 0.0000 0.0000 0.0000 37.6374
#
#
#
# Elastic Compliance Matrix: (Units=1/GPa)
#
#
# Indices 1 2 3 4 5 6 
#
# 1 0.014817 -0.004751 -0.004130 0.000000 0.000000 0.000000
# 2 -0.004751 0.011738 -0.003397 0.000000 0.000000 0.000000
# 3 -0.004130 -0.003397 0.012587 0.000000 0.000000 0.000000
# 4 0.000000 0.000000 0.000000 0.034133 0.000000 0.000000
# 5 0.000000 0.000000 0.000000 0.000000 0.035501 0.000000
# 6 0.000000 0.000000 0.000000 0.000000 0.000000 0.026569
#
#
# Mechanical properties :
#
#
# Convention : Reuss Voigt Hill
#
# Bulk Modulus (GPa) = 68.55837 69.32321 68.94079
# Shear Modulus (GPa) = 30.34660 30.85408 30.60034
#
# Velocity S-wave (km/s) = 4.01196 4.04537 4.02870
# Velocity P-wave (km/s) = 7.60424 7.65434 7.62933
#
# Compressibility (1/GPa) = 0.01458611
#
# Stress axis : x y z
#
# Youngs Moduli (GPa) = 67.49104 85.19480 79.44426
#
# Poissons Ratio (x) = 0.40475 0.32808
# Poissons Ratio (y) = 0.32064 0.26991
# Poissons Ratio (z) = 0.27871 0.28944
#
# Static dielectric constant tensor:
#      x y z
#    x 3.518650 0.000000 0.000000 
#    y 0.000000 3.446150 0.000000 
#    z 0.000000 0.000000 3.636040 
# 
# 
# High freq. dielectric constant tensor:
#      x y z
#    x 1.741700 0.000000 0.000000 
#    y 0.000000 1.733600 0.000000 
#    z 0.000000 0.000000 1.733630 
# 
# From -- ./inp_files/51313.got.cif
#   From: 2010.03.12/outbox.cif.g09.slc.cpg/sg63_26_cif.got.tgz:51313.got - 2010.04.10 19:34:48.
