data_PCOD8259369
_publ_section_title
;
Structure prediction by ZEFSAII (Michael W. Deem and Ramdas Pophale) SiO2 
 PCOD8259369
Probable space group: C M C M
;
_chemical_formula_sum "Si O2"
_cell_formula_units_Z 64
_cell_length_a 9.988250
_cell_length_b 36.851984
_cell_length_c 9.600088
_cell_angle_alpha 90.000000
_cell_angle_beta 90.000000
_cell_angle_gamma 90.000000
_cell_volume 3533.665952
_symmetry_space_group_name_H-M "C M C M"
_symmetry_group_IT_number 63
_symmetry_cell_setting 'orthorhombic'
loop_
_space_group_symop_operation_xyz
x,y,z
-x,-y,1/2+z
x,-y,-z
-x,y,1/2-z
-x,-y,-z
x,y,1/2-z
-x,y,z
x,-y,1/2+z
1/2+x,1/2+y,z
1/2-x,1/2-y,1/2+z
1/2+x,1/2-y,-z
1/2-x,1/2+y,1/2-z
1/2-x,1/2-y,-z
1/2+x,1/2+y,1/2-z
1/2-x,1/2+y,z
1/2+x,1/2-y,1/2+z
loop_
_atom_site_type_symbol
_atom_site_label
_atom_site_fract_x
_atom_site_fract_y
_atom_site_fract_z
Si Si1 0.846246 0.964996 0.588465
Si Si2 0.221224 0.331908 0.411118
Si Si3 0.000000 0.725833 0.589392
Si Si4 0.500000 0.297881 0.088621
Si Si5 0.152144 0.598862 0.090095
O O1 0.821257 0.974121 0.750000
O O2 0.752138 0.932350 0.537115
O O3 0.000000 0.953738 0.560916
O O4 0.806066 0.000000 0.500000
O O5 0.204039 0.342604 0.250000
O O6 0.372895 0.322330 0.449651
O O7 0.173804 0.365492 0.500851
O O8 0.131320 0.297204 0.447883
O O9 0.000000 0.737694 0.750000
O O10 0.000000 0.761391 0.497798
O O11 0.500000 0.286586 0.250000
O O12 0.183310 0.608617 0.250000
O O13 0.000000 0.585029 0.071967
#
# Coordination Sequence:
#
# PCOD8259369 Si02
#       5
#    16  16   8   8  16
#     4   9  19  36  56  80 110 141 175 216 261 311
#     4  10  21  37  54  78 110 141 177 222 268 317
#     4  10  20  36  56  76 105 142 179 220 267 320
#     4  10  22  36  54  80 107 138 179 224 269 318
#     4  10  21  36  55  80 109 142 180 221 264 313
#
# _framework density 18.111502999999999
#
# number of rings (size 3 to 8) (size 9 to 14) (size 15 to 20)
#    0.000    2.250    1.250    0.750    1.750    3.500 
#    0.000    0.000    0.000    0.000    0.000    0.000 
#    0.000    0.000    0.000    0.000    0.000    0.000 
#
# Total GULP energy -396925.873514 kJ/mol
# GULP energy per Si atom -12403.933547 kJ/mol
# Density = 1.807028 g / cm^3
# Si number density = 18.111503 Si / 1000 Ang^3
#
#
#
# Elastic Constant Matrix: (Units=GPa)
#
#
# Indices 1 2 3 4 5 6 
#
# 1 108.1850 37.1012 29.7835 0.0000 0.0000 0.0000
# 2 37.1012 91.7896 49.3786 0.0000 0.0000 0.0000
# 3 29.7835 49.3786 56.6576 0.0000 0.0000 0.0000
# 4 0.0000 0.0000 0.0000 36.7852 0.0000 0.0000
# 5 0.0000 0.0000 0.0000 0.0000 20.8261 0.0000
# 6 0.0000 0.0000 0.0000 0.0000 0.0000 31.8431
#
#
#
# Elastic Compliance Matrix: (Units=1/GPa)
#
#
# Indices 1 2 3 4 5 6 
#
# 1 0.011113 -0.002540 -0.003628 0.000000 0.000000 0.000000
# 2 -0.002540 0.021091 -0.017046 0.000000 0.000000 0.000000
# 3 -0.003628 -0.017046 0.034413 0.000000 0.000000 0.000000
# 4 0.000000 0.000000 0.000000 0.027185 0.000000 0.000000
# 5 0.000000 0.000000 0.000000 0.000000 0.048017 0.000000
# 6 0.000000 0.000000 0.000000 0.000000 0.000000 0.031404
#
#
# Mechanical properties :
#
#
# Convention : Reuss Voigt Hill
#
# Bulk Modulus (GPa) = 49.53253 54.35098 51.94176
# Shear Modulus (GPa) = 22.08649 27.24881 24.66765
#
# Velocity S-wave (km/s) = 3.49588 3.88300 3.69452
# Velocity P-wave (km/s) = 6.61082 7.08363 6.85131
#
# Compressibility (1/GPa) = 0.02018875
#
# Stress axis : x y z
#
# Youngs Moduli (GPa) = 89.98130 47.41276 29.05846
#
# Poissons Ratio (x) = 0.12044 0.10543
# Poissons Ratio (y) = 0.22858 0.49534
# Poissons Ratio (z) = 0.32646 0.80821
#
# Static dielectric constant tensor:
#      x y z
#    x 3.822130 0.000000 0.000000 
#    y 0.000000 3.168110 0.000000 
#    z 0.000000 0.000000 3.313860 
# 
# 
# High freq. dielectric constant tensor:
#      x y z
#    x 1.720560 0.000000 0.000000 
#    y 0.000000 1.694960 0.000000 
#    z 0.000000 0.000000 1.699060 
# 
# From -- ./inp_files/3190.got.cif
#   From: 2010.03.12/outbox.cif.g09.slc.cpg/sg63_2_cif.got.tgz:3190.got - 2010.04.10 19:34:48.
