data_PCOD8259903
_publ_section_title
;
Structure prediction by ZEFSAII (Michael W. Deem and Ramdas Pophale) SiO2 
 PCOD8259903
Probable space group: C M C M
;
_chemical_formula_sum "Si O2"
_cell_formula_units_Z 64
_cell_length_a 11.721631
_cell_length_b 18.460752
_cell_length_c 15.354945
_cell_angle_alpha 90.000000
_cell_angle_beta 90.000000
_cell_angle_gamma 90.000000
_cell_volume 3322.658436
_symmetry_space_group_name_H-M "C M C M"
_symmetry_group_IT_number 63
_symmetry_cell_setting 'orthorhombic'
loop_
_space_group_symop_operation_xyz
x,y,z
-x,-y,1/2+z
x,-y,-z
-x,y,1/2-z
-x,-y,-z
x,y,1/2-z
-x,y,z
x,-y,1/2+z
1/2+x,1/2+y,z
1/2-x,1/2-y,1/2+z
1/2+x,1/2-y,-z
1/2-x,1/2+y,1/2-z
1/2-x,1/2-y,-z
1/2+x,1/2+y,1/2-z
1/2-x,1/2+y,z
1/2+x,1/2-y,1/2+z
loop_
_atom_site_type_symbol
_atom_site_label
_atom_site_fract_x
_atom_site_fract_y
_atom_site_fract_z
Si Si1 0.256508 0.200381 0.917026
Si Si2 0.215454 0.078674 0.466447
Si Si3 0.500000 0.391798 0.647164
Si Si4 0.370300 0.173476 0.152780
Si Si5 0.500000 0.219959 0.649907
O O1 0.191307 0.247368 0.843978
O O2 0.387501 0.184705 0.891796
O O3 0.250000 0.250000 0.000000
O O4 0.194080 0.125486 0.944763
O O5 0.108317 0.074496 0.401648
O O6 0.318656 0.115157 0.413494
O O7 0.250524 0.000000 0.500000
O O8 0.500000 0.412562 0.750000
O O9 0.500000 0.305908 0.635062
O O10 0.360117 0.141226 0.250000
O O11 0.500000 0.186403 0.124403
O O12 0.500000 0.199177 0.750000
#
# Coordination Sequence:
#
# PCOD8259903 Si02
#       5
#    16  16   8  16   8
#     4  10  21  34  62  86 115 146 198 250 290 342
#     4  11  24  38  60  88 123 156 199 240 299 354
#     4  11  21  39  65  86 117 158 199 241 298 363
#     4  10  21  38  61  86 117 157 199 244 300 351
#     4  11  20  37  62  88 112 152 204 249 296 342
#
# _framework density 19.261685
#
# number of rings (size 3 to 8) (size 9 to 14) (size 15 to 20)
#    0.000    1.500    5.000    1.875    8.750    0.500 
#    0.000    5.000    0.000    0.000    0.000    0.000 
#    0.000    0.000    0.000    0.000    0.000    0.000 
#
# Total GULP energy -396598.464307 kJ/mol
# GULP energy per Si atom -12393.702010 kJ/mol
# Density = 1.921784 g / cm^3
# Si number density = 19.261685 Si / 1000 Ang^3
#
#
#
# Elastic Constant Matrix: (Units=GPa)
#
#
# Indices 1 2 3 4 5 6 
#
# 1 142.8861 34.3399 49.5217 0.0000 0.0000 0.0000
# 2 34.3399 123.8049 43.9056 0.0000 0.0000 0.0000
# 3 49.5217 43.9056 94.2819 0.0000 0.0000 0.0000
# 4 0.0000 0.0000 0.0000 22.6597 0.0000 0.0000
# 5 0.0000 0.0000 0.0000 0.0000 36.9985 0.0000
# 6 0.0000 0.0000 0.0000 0.0000 0.0000 7.9316
#
#
#
# Elastic Compliance Matrix: (Units=1/GPa)
#
#
# Indices 1 2 3 4 5 6 
#
# 1 0.008647 -0.000944 -0.004103 0.000000 0.000000 0.000000
# 2 -0.000944 0.009778 -0.004058 0.000000 0.000000 0.000000
# 3 -0.004103 -0.004058 0.014651 0.000000 0.000000 0.000000
# 4 0.000000 0.000000 0.000000 0.044131 0.000000 0.000000
# 5 0.000000 0.000000 0.000000 0.000000 0.027028 0.000000
# 6 0.000000 0.000000 0.000000 0.000000 0.000000 0.126077
#
#
# Mechanical properties :
#
#
# Convention : Reuss Voigt Hill
#
# Bulk Modulus (GPa) = 67.25718 68.50081 67.87900
# Shear Modulus (GPa) = 19.72565 29.06501 24.39533
#
# Velocity S-wave (km/s) = 3.20361 3.88874 3.56268
# Velocity P-wave (km/s) = 6.97693 7.47018 7.22776
#
# Compressibility (1/GPa) = 0.01486830
#
# Stress axis : x y z
#
# Youngs Moduli (GPa) = 115.64405 102.27034 68.25455
#
# Poissons Ratio (x) = 0.09650 0.28002
# Poissons Ratio (y) = 0.10912 0.27697
# Poissons Ratio (z) = 0.47444 0.41500
#
# Static dielectric constant tensor:
#      x y z
#    x 3.662960 0.000000 0.000000 
#    y 0.000000 4.030790 0.000000 
#    z 0.000000 0.000000 4.404910 
# 
# 
# High freq. dielectric constant tensor:
#      x y z
#    x 1.755910 0.000000 0.000000 
#    y 0.000000 1.715660 0.000000 
#    z 0.000000 0.000000 1.760360 
# 
# From -- ./inp_files/29179.got.cif
#   From: 2010.03.12/outbox.cif.g09.slc.cpg/sg63_15_cif.got.tgz:29179.got - 2010.04.10 19:34:48.
