data_PCOD8259629
_publ_section_title
;
Structure prediction by ZEFSAII (Michael W. Deem and Ramdas Pophale) SiO2 
 PCOD8259629
Probable space group: C M C M
;
_chemical_formula_sum "Si O2"
_cell_formula_units_Z 96
_cell_length_a 8.315206
_cell_length_b 20.461787
_cell_length_c 28.461101
_cell_angle_alpha 90.000000
_cell_angle_beta 90.000000
_cell_angle_gamma 90.000000
_cell_volume 4842.484829
_symmetry_space_group_name_H-M "C M C M"
_symmetry_group_IT_number 63
_symmetry_cell_setting 'orthorhombic'
loop_
_space_group_symop_operation_xyz
x,y,z
-x,-y,1/2+z
x,-y,-z
-x,y,1/2-z
-x,-y,-z
x,y,1/2-z
-x,y,z
x,-y,1/2+z
1/2+x,1/2+y,z
1/2-x,1/2-y,1/2+z
1/2+x,1/2-y,-z
1/2-x,1/2+y,1/2-z
1/2-x,1/2-y,-z
1/2+x,1/2+y,1/2-z
1/2-x,1/2+y,z
1/2+x,1/2-y,1/2+z
loop_
_atom_site_type_symbol
_atom_site_label
_atom_site_fract_x
_atom_site_fract_y
_atom_site_fract_z
Si Si1 0.686043 0.250175 0.102507
Si Si2 0.185152 0.129367 0.450454
Si Si3 0.689913 0.499115 0.398736
Si Si4 0.683802 0.872844 0.052148
Si Si5 0.190935 0.949620 0.301056
Si Si6 0.190754 0.802917 0.198779
O O1 0.500000 0.229047 0.100414
O O2 0.794901 0.196343 0.077807
O O3 0.703074 0.319854 0.077042
O O4 0.750003 0.256729 0.156360
O O5 0.293894 0.130522 0.496381
O O6 0.000000 0.121246 0.465385
O O7 0.241542 0.069890 0.417375
O O8 0.500000 0.488009 0.402026
O O9 0.773864 0.445096 0.430734
O O10 0.751193 0.493902 0.344541
O O11 0.500000 0.856321 0.064015
O O12 0.251938 0.976515 0.250000
O O13 0.258483 0.876222 0.308513
O O14 0.000000 0.947778 0.300622
O O15 0.247442 0.775760 0.250000
O O16 0.000000 0.806606 0.196774
#
# Coordination Sequence:
#
# PCOD8259629 Si02
#       6
#    16  16  16  16  16  16
#     4  11  21  37  60  83 112 146 186 228 273 327
#     4  11  24  39  55  79 115 150 185 228 278 330
#     4  10  20  37  59  83 111 146 184 225 272 324
#     4  12  24  38  58  82 109 143 188 234 277 327
#     4   8  13  26  53  85 109 134 177 224 265 319
#     4   8  14  27  53  85 109 135 178 226 267 319
#
# _framework density 19.824532000000001
#
# number of rings (size 3 to 8) (size 9 to 14) (size 15 to 20)
#    0.000    2.000    1.667    4.500    0.000    3.333 
#    0.000    0.833    0.000    4.500    0.000    0.000 
#    0.000    0.000    0.000    0.000    0.000    0.000 
#
# Total GULP energy -595095.818069 kJ/mol
# GULP energy per Si atom -12397.829543 kJ/mol
# Density = 1.977941 g / cm^3
# Si number density = 19.824532 Si / 1000 Ang^3
#
#
#
# Elastic Constant Matrix: (Units=GPa)
#
#
# Indices 1 2 3 4 5 6 
#
# 1 34.4632 10.0412 12.2675 0.0000 0.0000 0.0000
# 2 10.0412 79.8128 40.6831 0.0000 0.0000 0.0000
# 3 12.2675 40.6831 161.6966 0.0000 0.0000 0.0000
# 4 0.0000 0.0000 0.0000 1.3295 0.0000 0.0000
# 5 0.0000 0.0000 0.0000 0.0000 16.3527 0.0000
# 6 0.0000 0.0000 0.0000 0.0000 0.0000 19.9188
#
#
#
# Elastic Compliance Matrix: (Units=1/GPa)
#
#
# Indices 1 2 3 4 5 6 
#
# 1 0.030453 -0.003044 -0.001545 0.000000 0.000000 0.000000
# 2 -0.003044 0.014677 -0.003462 0.000000 0.000000 0.000000
# 3 -0.001545 -0.003462 0.007173 0.000000 0.000000 0.000000
# 4 0.000000 0.000000 0.000000 0.752154 0.000000 0.000000
# 5 0.000000 0.000000 0.000000 0.000000 0.061152 0.000000
# 6 0.000000 0.000000 0.000000 0.000000 0.000000 0.050204
#
#
# Mechanical properties :
#
#
# Convention : Reuss Voigt Hill
#
# Bulk Modulus (GPa) = 27.62279 44.66181 36.14230
# Shear Modulus (GPa) = 5.29672 21.71892 13.50782
#
# Velocity S-wave (km/s) = 1.63634 3.31351 2.61314
# Velocity P-wave (km/s) = 4.18736 6.10054 5.23214
#
# Compressibility (1/GPa) = 0.03620199
#
# Stress axis : x y z
#
# Youngs Moduli (GPa) = 32.83731 68.13442 139.41966
#
# Poissons Ratio (x) = 0.20740 0.21534
# Poissons Ratio (y) = 0.09996 0.48264
# Poissons Ratio (z) = 0.05072 0.23587
#
# Static dielectric constant tensor:
#      x y z
#    x 3.188010 0.000000 0.000000 
#    y 0.000000 3.412270 0.000000 
#    z 0.000000 0.000000 4.195620 
# 
# 
# High freq. dielectric constant tensor:
#      x y z
#    x 1.741660 0.000000 0.000000 
#    y 0.000000 1.749990 0.000000 
#    z 0.000000 0.000000 1.795540 
# 
# From -- ./inp_files/66935.got.cif
#   From: 2010.03.12/outbox.cif.g09.slc.cpg/sg63_34_cif.got.tgz:66935.got - 2010.04.10 19:34:48.
