data_PCOD8259590
_publ_section_title
;
Structure prediction by ZEFSAII (Michael W. Deem and Ramdas Pophale) SiO2 
 PCOD8259590
Probable space group: C M C M
;
_chemical_formula_sum "Si O2"
_cell_formula_units_Z 96
_cell_length_a 12.817427
_cell_length_b 14.906911
_cell_length_c 23.456391
_cell_angle_alpha 90.000000
_cell_angle_beta 90.000000
_cell_angle_gamma 90.000000
_cell_volume 4481.771428
_symmetry_space_group_name_H-M "C M C M"
_symmetry_group_IT_number 63
_symmetry_cell_setting 'orthorhombic'
loop_
_space_group_symop_operation_xyz
x,y,z
-x,-y,1/2+z
x,-y,-z
-x,y,1/2-z
-x,-y,-z
x,y,1/2-z
-x,y,z
x,-y,1/2+z
1/2+x,1/2+y,z
1/2-x,1/2-y,1/2+z
1/2+x,1/2-y,-z
1/2-x,1/2+y,1/2-z
1/2-x,1/2-y,-z
1/2+x,1/2+y,1/2-z
1/2-x,1/2+y,z
1/2+x,1/2-y,1/2+z
loop_
_atom_site_type_symbol
_atom_site_label
_atom_site_fract_x
_atom_site_fract_y
_atom_site_fract_z
Si Si1 0.382656 0.085106 0.250000
Si Si2 0.262055 0.326740 0.132686
Si Si3 0.619168 0.702984 0.750000
Si Si4 0.214506 0.526737 0.135726
Si Si5 0.120726 0.782476 0.020117
Si Si6 0.121277 0.839530 0.603967
Si Si7 0.120216 0.412156 0.527172
O O1 0.500000 0.048172 0.250000
O O2 0.380204 0.190936 0.250000
O O3 0.320077 0.045007 0.301481
O O4 0.323525 0.330402 0.192656
O O5 0.204319 0.421218 0.124253
O O6 0.338964 0.321947 0.079043
O O7 0.178402 0.246055 0.132451
O O8 0.500000 0.666742 0.750000
O O9 0.331020 0.567240 0.127024
O O10 0.135132 0.581374 0.095025
O O11 0.171229 0.682836 0.006324
O O12 0.000000 0.764450 0.031454
O O13 0.137636 0.843617 0.964573
O O14 0.000000 0.834230 0.620692
O O15 0.176834 0.500000 0.500000
O O16 0.000000 0.413247 0.509294
#
# Coordination Sequence:
#
# PCOD8259590 Si02
#       7
#     8  16   8  16  16  16  16
#     4  11  23  46  72  95 124 162 218 280 330 392
#     4  12  24  42  67  95 133 173 221 270 333 393
#     4  11  23  44  72  95 120 162 220 280 326 386
#     4  12  25  40  67  96 132 172 221 266 333 390
#     4  10  21  40  65  93 130 175 219 270 324 387
#     4  11  25  43  63  96 141 179 218 267 331 397
#     4  10  20  36  63  98 129 163 215 274 331 382
#
# _framework density 21.420102
#
# number of rings (size 3 to 8) (size 9 to 14) (size 15 to 20)
#    0.000    1.000    3.333    3.000    2.333    6.667 
#    0.000    3.333    0.000    0.000    0.000    0.000 
#    0.000    0.000    0.000    0.000    0.000    0.000 
#
# Total GULP energy -595138.683757 kJ/mol
# GULP energy per Si atom -12398.722578 kJ/mol
# Density = 2.137135 g / cm^3
# Si number density = 21.420102 Si / 1000 Ang^3
#
#
#
# Elastic Constant Matrix: (Units=GPa)
#
#
# Indices 1 2 3 4 5 6 
#
# 1 71.7086 0.5664 23.3363 0.0000 0.0000 0.0000
# 2 0.5664 87.0221 23.7756 0.0000 0.0000 0.0000
# 3 23.3363 23.7756 125.1431 0.0000 0.0000 0.0000
# 4 0.0000 0.0000 0.0000 33.6621 0.0000 0.0000
# 5 0.0000 0.0000 0.0000 0.0000 43.8691 0.0000
# 6 0.0000 0.0000 0.0000 0.0000 0.0000 16.2303
#
#
#
# Elastic Compliance Matrix: (Units=1/GPa)
#
#
# Indices 1 2 3 4 5 6 
#
# 1 0.014886 0.000698 -0.002909 0.000000 0.000000 0.000000
# 2 0.000698 0.012153 -0.002439 0.000000 0.000000 0.000000
# 3 -0.002909 -0.002439 0.008997 0.000000 0.000000 0.000000
# 4 0.000000 0.000000 0.000000 0.029707 0.000000 0.000000
# 5 0.000000 0.000000 0.000000 0.000000 0.022795 0.000000
# 6 0.000000 0.000000 0.000000 0.000000 0.000000 0.061613
#
#
# Mechanical properties :
#
#
# Convention : Reuss Voigt Hill
#
# Bulk Modulus (GPa) = 37.40210 42.13672 39.76941
# Shear Modulus (GPa) = 29.69769 34.49866 32.09817
#
# Velocity S-wave (km/s) = 3.72753 4.01755 3.87525
# Velocity P-wave (km/s) = 6.00209 6.42147 6.21532
#
# Compressibility (1/GPa) = 0.02673646
#
# Stress axis : x y z
#
# Youngs Moduli (GPa) = 67.17562 82.28305 111.15292
#
# Poissons Ratio (x) = -0.05741 0.32329
# Poissons Ratio (y) = -0.04687 0.27111
# Poissons Ratio (z) = 0.19538 0.20069
#
# Static dielectric constant tensor:
#      x y z
#    x 3.997970 0.000000 0.000000 
#    y 0.000000 4.112150 0.000000 
#    z 0.000000 0.000000 3.804250 
# 
# 
# High freq. dielectric constant tensor:
#      x y z
#    x 1.844790 0.000000 0.000000 
#    y 0.000000 1.844150 0.000000 
#    z 0.000000 0.000000 1.844400 
# 
# From -- ./inp_files/62902.got.cif
#   From: 2010.03.12/outbox.cif.g09.slc.cpg/sg63_32_cif.got.tgz:62902.got - 2010.04.10 19:34:48.
