data_PCOD8259897
_publ_section_title
;
Structure prediction by ZEFSAII (Michael W. Deem and Ramdas Pophale) SiO2 
 PCOD8259897
Probable space group: C M C M
;
_chemical_formula_sum "Si O2"
_cell_formula_units_Z 92
_cell_length_a 7.620253
_cell_length_b 28.140313
_cell_length_c 21.921969
_cell_angle_alpha 90.000000
_cell_angle_beta 90.000000
_cell_angle_gamma 90.000000
_cell_volume 4700.866021
_symmetry_space_group_name_H-M "C M C M"
_symmetry_group_IT_number 63
_symmetry_cell_setting 'orthorhombic'
loop_
_space_group_symop_operation_xyz
x,y,z
-x,-y,1/2+z
x,-y,-z
-x,y,1/2-z
-x,-y,-z
x,y,1/2-z
-x,y,z
x,-y,1/2+z
1/2+x,1/2+y,z
1/2-x,1/2-y,1/2+z
1/2+x,1/2-y,-z
1/2-x,1/2+y,1/2-z
1/2-x,1/2-y,-z
1/2+x,1/2+y,1/2-z
1/2-x,1/2+y,z
1/2+x,1/2-y,1/2+z
loop_
_atom_site_type_symbol
_atom_site_label
_atom_site_fract_x
_atom_site_fract_y
_atom_site_fract_z
Si Si1 0.698483 0.240429 0.184220
Si Si2 0.198208 0.617878 0.516142
Si Si3 0.000000 0.002084 0.750000
Si Si4 0.500000 0.420814 0.850996
Si Si5 0.700783 0.841984 0.353227
Si Si6 0.000000 0.946334 0.510973
Si Si7 0.709086 0.916420 0.250000
Si Si8 0.794607 0.648737 0.118170
O O1 0.796159 0.237839 0.250000
O O2 0.500000 0.225151 0.193955
O O3 0.697875 0.293730 0.159561
O O4 0.774787 0.201081 0.137812
O O5 0.234228 0.649182 0.575621
O O6 0.326106 0.573525 0.520745
O O7 0.240264 0.647293 0.454638
O O8 0.000000 0.598413 0.516054
O O9 0.174822 0.035317 0.750000
O O10 0.000000 0.966506 0.692585
O O11 0.500000 0.440363 0.917932
O O12 0.677457 0.389227 0.843861
O O13 0.500000 0.831911 0.338142
O O14 0.762154 0.885679 0.310067
O O15 0.000000 0.000000 0.500000
O O16 0.500000 0.929309 0.250000
O O17 0.000000 0.638517 0.132209
#
# Coordination Sequence:
#
# PCOD8259897 Si02
#       8
#    16  16   4   8  16   8   8  16
#     4  10  21  34  56  88 115 158 201 232 297 357
#     4   9  20  38  59  83 116 155 193 247 298 346
#     4  12  28  40  66  90 114 162 208 244 306 346
#     4  10  24  42  58  96 114 154 208 244 294 359
#     4  10  21  37  58  87 119 158 198 241 296 359
#     4  10  22  38  62  86 116 152 202 246 304 349
#     4  10  24  42  57  83 125 157 196 248 298 357
#     4   9  20  41  61  84 124 155 191 251 295 350
#
# _framework density 19.570862000000002
#
# number of rings (size 3 to 8) (size 9 to 14) (size 15 to 20)
#    0.000    2.261    0.870    0.000    7.304    1.739 
#    0.000    0.000    0.000    0.000    0.000    0.000 
#    0.000    0.000    0.000    0.000    0.000    0.000 
#
# Total GULP energy -570037.007388 kJ/mol
# GULP energy per Si atom -12392.108856 kJ/mol
# Density = 1.952632 g / cm^3
# Si number density = 19.570862 Si / 1000 Ang^3
#
#
#
# Elastic Constant Matrix: (Units=GPa)
#
#
# Indices 1 2 3 4 5 6 
#
# 1 86.9701 61.7938 51.4256 0.0000 0.0000 0.0000
# 2 61.7938 147.7779 67.3615 0.0000 0.0000 0.0000
# 3 51.4256 67.3615 91.2606 0.0000 0.0000 0.0000
# 4 0.0000 0.0000 0.0000 5.0785 0.0000 0.0000
# 5 0.0000 0.0000 0.0000 0.0000 20.5495 0.0000
# 6 0.0000 0.0000 0.0000 0.0000 0.0000 19.6577
#
#
#
# Elastic Compliance Matrix: (Units=1/GPa)
#
#
# Indices 1 2 3 4 5 6 
#
# 1 0.019158 -0.004657 -0.007358 0.000000 0.000000 0.000000
# 2 -0.004657 0.011330 -0.005739 0.000000 0.000000 0.000000
# 3 -0.007358 -0.005739 0.019340 0.000000 0.000000 0.000000
# 4 0.000000 0.000000 0.000000 0.196907 0.000000 0.000000
# 5 0.000000 0.000000 0.000000 0.000000 0.048663 0.000000
# 6 0.000000 0.000000 0.000000 0.000000 0.000000 0.050871
#
#
# Mechanical properties :
#
#
# Convention : Reuss Voigt Hill
#
# Bulk Modulus (GPa) = 69.83161 76.35227 73.09194
# Shear Modulus (GPa) = 12.93494 18.75234 15.84364
#
# Velocity S-wave (km/s) = 2.57364 3.09880 2.84835
# Velocity P-wave (km/s) = 6.67760 7.20426 6.94593
#
# Compressibility (1/GPa) = 0.01432016
#
# Stress axis : x y z
#
# Youngs Moduli (GPa) = 52.19780 88.26022 51.70640
#
# Poissons Ratio (x) = 0.41102 0.38047
# Poissons Ratio (y) = 0.24308 0.29674
# Poissons Ratio (z) = 0.38408 0.50651
#
# Static dielectric constant tensor:
#      x y z
#    x 3.703740 0.000000 0.000000 
#    y 0.000000 3.402240 0.000000 
#    z 0.000000 0.000000 3.832000 
# 
# 
# High freq. dielectric constant tensor:
#      x y z
#    x 1.768110 0.000000 0.000000 
#    y 0.000000 1.751540 0.000000 
#    z 0.000000 0.000000 1.771930 
# 
# From -- ./inp_files/51143.got.cif
#   From: 2010.03.12/outbox.cif.g09.slc.cpg/sg63_26_cif.got.tgz:51143.got - 2010.04.10 19:34:48.
