data_PCOD8259863
_publ_section_title
;
Structure prediction by ZEFSAII (Michael W. Deem and Ramdas Pophale) SiO2 
 PCOD8259863
Probable space group: C M C M
;
_chemical_formula_sum "Si O2"
_cell_formula_units_Z 56
_cell_length_a 17.875750
_cell_length_b 16.573753
_cell_length_c 9.414820
_cell_angle_alpha 90.000000
_cell_angle_beta 90.000000
_cell_angle_gamma 90.000000
_cell_volume 2789.312388
_symmetry_space_group_name_H-M "C M C M"
_symmetry_group_IT_number 63
_symmetry_cell_setting 'orthorhombic'
loop_
_space_group_symop_operation_xyz
x,y,z
-x,-y,1/2+z
x,-y,-z
-x,y,1/2-z
-x,-y,-z
x,y,1/2-z
-x,y,z
x,-y,1/2+z
1/2+x,1/2+y,z
1/2-x,1/2-y,1/2+z
1/2+x,1/2-y,-z
1/2-x,1/2+y,1/2-z
1/2-x,1/2-y,-z
1/2+x,1/2+y,1/2-z
1/2-x,1/2+y,z
1/2+x,1/2-y,1/2+z
loop_
_atom_site_type_symbol
_atom_site_label
_atom_site_fract_x
_atom_site_fract_y
_atom_site_fract_z
Si Si1 0.000000 0.612484 0.403054
Si Si2 0.372721 0.000000 0.500000
Si Si3 0.855275 0.193654 0.415743
Si Si4 0.500000 0.712193 0.578721
Si Si5 0.722678 0.140904 0.906839
O O1 0.926042 0.558553 0.411362
O O2 0.000000 0.696067 0.490286
O O3 0.000000 0.652214 0.250000
O O4 0.320899 0.943984 0.402417
O O5 0.868618 0.173612 0.250000
O O6 0.927218 0.170284 0.509976
O O7 0.787010 0.139052 0.474113
O O8 0.835607 0.287536 0.441125
O O9 0.500000 0.701038 0.750000
O O10 0.757532 0.155178 0.750000
#
# Coordination Sequence:
#
# PCOD8259863 Si02
#       5
#     8   8  16   8  16
#     4  10  21  32  50  83 119 154 182 220 279 344
#     4  11  20  36  54  83 118 154 188 229 280 342
#     4  10  21  37  56  80 111 150 195 238 280 331
#     4  11  20  36  58  83 115 149 188 233 281 338
#     4  10  21  36  55  81 113 152 193 235 280 334
#
# _framework density 20.076630999999999
#
# number of rings (size 3 to 8) (size 9 to 14) (size 15 to 20)
#    0.000    1.714    2.857    2.143    0.000    3.429 
#    0.000    0.000    0.000    0.857    0.000    0.000 
#    0.000    0.000    0.000    0.000    0.000    0.000 
#
# Total GULP energy -346969.471658 kJ/mol
# GULP energy per Si atom -12391.766845 kJ/mol
# Density = 2.003094 g / cm^3
# Si number density = 20.076631 Si / 1000 Ang^3
#
#
#
# Elastic Constant Matrix: (Units=GPa)
#
#
# Indices 1 2 3 4 5 6 
#
# 1 126.1629 20.4038 67.7049 0.0000 0.0000 0.0000
# 2 20.4038 42.5256 7.1476 0.0000 0.0000 0.0000
# 3 67.7049 7.1476 132.4551 0.0000 0.0000 0.0000
# 4 0.0000 0.0000 0.0000 18.0563 0.0000 0.0000
# 5 0.0000 0.0000 0.0000 0.0000 18.0347 0.0000
# 6 0.0000 0.0000 0.0000 0.0000 0.0000 34.2263
#
#
#
# Elastic Compliance Matrix: (Units=1/GPa)
#
#
# Indices 1 2 3 4 5 6 
#
# 1 0.011779 -0.004682 -0.005768 0.000000 0.000000 0.000000
# 2 -0.004682 0.025592 0.001012 0.000000 0.000000 0.000000
# 3 -0.005768 0.001012 0.010444 0.000000 0.000000 0.000000
# 4 0.000000 0.000000 0.000000 0.055382 0.000000 0.000000
# 5 0.000000 0.000000 0.000000 0.000000 0.055449 0.000000
# 6 0.000000 0.000000 0.000000 0.000000 0.000000 0.029217
#
#
# Mechanical properties :
#
#
# Convention : Reuss Voigt Hill
#
# Bulk Modulus (GPa) = 34.55655 54.62846 44.59251
# Shear Modulus (GPa) = 23.10704 27.78928 25.44816
#
# Velocity S-wave (km/s) = 3.39623 3.72447 3.56413
# Velocity P-wave (km/s) = 5.71217 6.76495 6.26073
#
# Compressibility (1/GPa) = 0.02893807
#
# Stress axis : x y z
#
# Youngs Moduli (GPa) = 84.89727 39.07543 95.75306
#
# Poissons Ratio (x) = 0.18295 0.55232
# Poissons Ratio (y) = 0.39749 -0.09693
# Poissons Ratio (z) = 0.48970 -0.03955
#
# Static dielectric constant tensor:
#      x y z
#    x 3.543140 0.000000 0.000000 
#    y 0.000000 3.263340 0.000000 
#    z 0.000000 0.000000 3.483090 
# 
# 
# High freq. dielectric constant tensor:
#      x y z
#    x 1.784150 0.000000 0.000000 
#    y 0.000000 1.748940 0.000000 
#    z 0.000000 0.000000 1.782760 
# 
# From -- ./inp_files/5574.got.cif
#   From: 2010.03.12/outbox.cif.g09.slc.cpg/sg63_3_cif.got.tgz:5574.got - 2010.04.10 19:34:48.
