data_PCOD8259431
_publ_section_title
;
Structure prediction by ZEFSAII (Michael W. Deem and Ramdas Pophale) SiO2 
 PCOD8259431
Probable space group: C M C M
;
_chemical_formula_sum "Si O2"
_cell_formula_units_Z 104
_cell_length_a 31.716028
_cell_length_b 19.513746
_cell_length_c 9.081081
_cell_angle_alpha 90.000000
_cell_angle_beta 90.000000
_cell_angle_gamma 90.000000
_cell_volume 5620.267541
_symmetry_space_group_name_H-M "C M C M"
_symmetry_group_IT_number 63
_symmetry_cell_setting 'orthorhombic'
loop_
_space_group_symop_operation_xyz
x,y,z
-x,-y,1/2+z
x,-y,-z
-x,y,1/2-z
-x,-y,-z
x,y,1/2-z
-x,y,z
x,-y,1/2+z
1/2+x,1/2+y,z
1/2-x,1/2-y,1/2+z
1/2+x,1/2-y,-z
1/2-x,1/2+y,1/2-z
1/2-x,1/2-y,-z
1/2+x,1/2+y,1/2-z
1/2-x,1/2+y,z
1/2+x,1/2-y,1/2+z
loop_
_atom_site_type_symbol
_atom_site_label
_atom_site_fract_x
_atom_site_fract_y
_atom_site_fract_z
Si Si1 0.500000 0.427095 0.577908
Si Si2 0.768933 0.846130 0.080052
Si Si3 0.151245 0.928864 0.423319
Si Si4 0.402468 0.201941 0.075495
Si Si5 0.693259 0.797893 0.922188
Si Si6 0.048209 0.567325 0.422066
Si Si7 0.581830 0.340107 0.924875
O O1 0.500000 0.500000 0.500000
O O2 0.500000 0.441694 0.750000
O O3 0.458962 0.384274 0.530806
O O4 0.757519 0.841041 0.250000
O O5 0.799811 0.910009 0.048018
O O6 0.793062 0.777818 0.027140
O O7 0.724708 0.853951 0.994321
O O8 0.141356 0.933177 0.250000
O O9 0.122483 0.870924 0.495077
O O10 0.140431 0.000000 0.500000
O O11 0.405806 0.216677 0.250000
O O12 0.354332 0.191182 0.024242
O O13 0.426387 0.133680 0.026447
O O14 0.424247 0.263734 0.987027
O O15 0.696649 0.808327 0.750000
O O16 0.067126 0.500000 0.500000
O O17 0.052927 0.555607 0.250000
O O18 0.000000 0.578698 0.469988
O O19 0.588727 0.338556 0.750000
#
# Coordination Sequence:
#
# PCOD8259431 Si02
#       7
#     8  16  16  16  16  16  16
#     4  10  24  42  56  78 111 148 189 230 279 330
#     4   9  18  33  52  76 106 140 179 223 269 322
#     4  11  22  38  57  81 113 148 190 236 280 329
#     4  10  20  36  57  85 115 145 185 232 279 330
#     4   9  17  32  53  77 107 140 175 221 272 322
#     4   9  19  36  58  83 111 145 183 221 272 334
#     4  11  23  38  57  83 113 147 189 233 279 333
#
# _framework density 18.504456999999999
#
# number of rings (size 3 to 8) (size 9 to 14) (size 15 to 20)
#    0.000    2.154    1.538    1.385    1.077    4.923 
#    0.000    0.769    0.000    3.692    0.000    0.000 
#    0.000    0.000    0.000    0.000    0.000    0.000 
#
# Total GULP energy -644879.783131 kJ/mol
# GULP energy per Si atom -12401.534291 kJ/mol
# Density = 1.846234 g / cm^3
# Si number density = 18.504457 Si / 1000 Ang^3
#
#
#
# Elastic Constant Matrix: (Units=GPa)
#
#
# Indices 1 2 3 4 5 6 
#
# 1 109.2144 62.1586 44.0873 0.0000 0.0000 0.0000
# 2 62.1586 133.1215 52.1765 0.0000 0.0000 0.0000
# 3 44.0873 52.1765 62.1823 0.0000 0.0000 0.0000
# 4 0.0000 0.0000 0.0000 33.7321 0.0000 0.0000
# 5 0.0000 0.0000 0.0000 0.0000 26.8986 0.0000
# 6 0.0000 0.0000 0.0000 0.0000 0.0000 27.5753
#
#
#
# Elastic Compliance Matrix: (Units=1/GPa)
#
#
# Indices 1 2 3 4 5 6 
#
# 1 0.014111 -0.003975 -0.006669 0.000000 0.000000 0.000000
# 2 -0.003975 0.012313 -0.007513 0.000000 0.000000 0.000000
# 3 -0.006669 -0.007513 0.027115 0.000000 0.000000 0.000000
# 4 0.000000 0.000000 0.000000 0.029645 0.000000 0.000000
# 5 0.000000 0.000000 0.000000 0.000000 0.037177 0.000000
# 6 0.000000 0.000000 0.000000 0.000000 0.000000 0.036264
#
#
# Mechanical properties :
#
#
# Convention : Reuss Voigt Hill
#
# Bulk Modulus (GPa) = 58.06116 69.04036 63.55076
# Shear Modulus (GPa) = 25.16603 27.38094 26.27349
#
# Velocity S-wave (km/s) = 3.69182 3.85085 3.77217
# Velocity P-wave (km/s) = 7.04398 7.56064 7.30688
#
# Compressibility (1/GPa) = 0.01722322
#
# Stress axis : x y z
#
# Youngs Moduli (GPa) = 70.86790 81.21698 36.88030
#
# Poissons Ratio (x) = 0.32281 0.24597
# Poissons Ratio (y) = 0.28168 0.27710
# Poissons Ratio (z) = 0.47265 0.61021
#
# Static dielectric constant tensor:
#      x y z
#    x 3.550920 0.000000 0.000000 
#    y 0.000000 3.376780 0.000000 
#    z 0.000000 0.000000 3.326070 
# 
# 
# High freq. dielectric constant tensor:
#      x y z
#    x 1.722990 0.000000 0.000000 
#    y 0.000000 1.708800 0.000000 
#    z 0.000000 0.000000 1.715100 
# 
# From -- ./inp_files/14482.got.cif
#   From: 2010.03.12/outbox.cif.g09.slc.cpg/sg63_8_cif.got.tgz:14482.got - 2010.04.10 19:34:48.
