data_PCOD8259135
_publ_section_title
;
Structure prediction by ZEFSAII (Michael W. Deem and Ramdas Pophale) SiO2 
 PCOD8259135
Probable space group: C M C M
;
_chemical_formula_sum "Si O2"
_cell_formula_units_Z 104
_cell_length_a 26.008228
_cell_length_b 21.206934
_cell_length_c 9.590144
_cell_angle_alpha 90.000000
_cell_angle_beta 90.000000
_cell_angle_gamma 90.000000
_cell_volume 5289.489713
_symmetry_space_group_name_H-M "C M C M"
_symmetry_group_IT_number 63
_symmetry_cell_setting 'orthorhombic'
loop_
_space_group_symop_operation_xyz
x,y,z
-x,-y,1/2+z
x,-y,-z
-x,y,1/2-z
-x,-y,-z
x,y,1/2-z
-x,y,z
x,-y,1/2+z
1/2+x,1/2+y,z
1/2-x,1/2-y,1/2+z
1/2+x,1/2-y,-z
1/2-x,1/2+y,1/2-z
1/2-x,1/2-y,-z
1/2+x,1/2+y,1/2-z
1/2-x,1/2+y,z
1/2+x,1/2-y,1/2+z
loop_
_atom_site_type_symbol
_atom_site_label
_atom_site_fract_x
_atom_site_fract_y
_atom_site_fract_z
Si Si1 0.107996 0.055761 0.592796
Si Si2 0.807706 0.500000 0.500000
Si Si3 0.738336 0.810627 0.910120
Si Si4 0.560210 0.806985 0.088144
Si Si5 0.634102 0.879921 0.905350
Si Si6 0.059940 0.185930 0.590059
Si Si7 0.777201 0.085472 0.599563
O O1 0.087611 0.046734 0.750000
O O2 0.090271 0.124226 0.537801
O O3 0.169313 0.049213 0.583662
O O4 0.083412 0.000000 0.500000
O O5 0.844103 0.549610 0.421579
O O6 0.769881 0.464006 0.393509
O O7 0.754244 0.799844 0.750000
O O8 0.678680 0.828176 0.925035
O O9 0.750000 0.750000 0.000000
O O10 0.772609 0.867000 0.971118
O O11 0.575588 0.800947 0.250000
O O12 0.500000 0.820264 0.070074
O O13 0.590133 0.865805 0.019221
O O14 0.576915 0.743415 0.008459
O O15 0.610606 0.874484 0.750000
O O16 0.074332 0.203010 0.750000
O O17 0.000000 0.171703 0.574551
O O18 0.776526 0.121259 0.750000
#
# Coordination Sequence:
#
# PCOD8259135 Si02
#       7
#    16   8  16  16  16  16  16
#     4  10  21  35  54  81 111 150 195 239 285 338
#     4  10  20  38  61  84 111 154 194 236 284 346
#     4  10  22  37  54  81 115 149 188 233 284 340
#     4  10  22  40  62  89 117 147 188 237 291 347
#     4  10  22  38  60  87 115 151 194 236 286 349
#     4   9  19  37  59  82 113 152 191 236 291 346
#     4  10  20  35  55  78 111 150 190 236 282 334
#
# _framework density 19.661631
#
# number of rings (size 3 to 8) (size 9 to 14) (size 15 to 20)
#    0.000    2.154    0.769    1.385    2.154    6.769 
#    0.000    0.385    0.000    0.000    0.000    0.000 
#    0.000    0.000    0.000    0.000    0.000    0.000 
#
# Total GULP energy -644759.348055 kJ/mol
# GULP energy per Si atom -12399.218232 kJ/mol
# Density = 1.961688 g / cm^3
# Si number density = 19.661631 Si / 1000 Ang^3
#
#
#
# Elastic Constant Matrix: (Units=GPa)
#
#
# Indices 1 2 3 4 5 6 
#
# 1 51.4561 39.6717 38.0224 0.0000 0.0000 0.0000
# 2 39.6717 119.8645 63.5575 0.0000 0.0000 0.0000
# 3 38.0224 63.5575 139.5262 0.0000 0.0000 0.0000
# 4 0.0000 0.0000 0.0000 33.4657 0.0000 0.0000
# 5 0.0000 0.0000 0.0000 0.0000 27.9963 0.0000
# 6 0.0000 0.0000 0.0000 0.0000 0.0000 24.7076
#
#
#
# Elastic Compliance Matrix: (Units=1/GPa)
#
#
# Indices 1 2 3 4 5 6 
#
# 1 0.028090 -0.006906 -0.004509 0.000000 0.000000 0.000000
# 2 -0.006906 0.012698 -0.003902 0.000000 0.000000 0.000000
# 3 -0.004509 -0.003902 0.010173 0.000000 0.000000 0.000000
# 4 0.000000 0.000000 0.000000 0.029881 0.000000 0.000000
# 5 0.000000 0.000000 0.000000 0.000000 0.035719 0.000000
# 6 0.000000 0.000000 0.000000 0.000000 0.000000 0.040473
#
#
# Mechanical properties :
#
#
# Convention : Reuss Voigt Hill
#
# Bulk Modulus (GPa) = 49.19614 65.92780 57.56197
# Shear Modulus (GPa) = 25.71420 28.54027 27.12724
#
# Velocity S-wave (km/s) = 3.62033 3.81408 3.71847
# Velocity P-wave (km/s) = 6.52314 7.28013 6.91201
#
# Compressibility (1/GPa) = 0.02032680
#
# Stress axis : x y z
#
# Youngs Moduli (GPa) = 35.59933 78.75546 98.29639
#
# Poissons Ratio (x) = 0.54390 0.44322
# Poissons Ratio (y) = 0.24586 0.38355
# Poissons Ratio (z) = 0.16052 0.30730
#
# Static dielectric constant tensor:
#      x y z
#    x 3.438590 0.000000 0.000000 
#    y 0.000000 3.596340 0.000000 
#    z 0.000000 0.000000 3.760380 
# 
# 
# High freq. dielectric constant tensor:
#      x y z
#    x 1.753370 0.000000 0.000000 
#    y 0.000000 1.761120 0.000000 
#    z 0.000000 0.000000 1.772540 
# 
# From -- ./inp_files/12512.got.cif
#   From: 2010.03.12/outbox.cif.g09.slc.cpg/sg63_7_cif.got.tgz:12512.got - 2010.04.10 19:34:48.
