data_PCOD8259285
_publ_section_title
;
Structure prediction by ZEFSAII (Michael W. Deem and Ramdas Pophale) SiO2 
 PCOD8259285
Probable space group: C M C M
;
_chemical_formula_sum "Si O2"
_cell_formula_units_Z 80
_cell_length_a 22.622227
_cell_length_b 9.816133
_cell_length_c 20.061126
_cell_angle_alpha 90.000000
_cell_angle_beta 90.000000
_cell_angle_gamma 90.000000
_cell_volume 4454.829590
_symmetry_space_group_name_H-M "C M C M"
_symmetry_group_IT_number 63
_symmetry_cell_setting 'orthorhombic'
loop_
_space_group_symop_operation_xyz
x,y,z
-x,-y,1/2+z
x,-y,-z
-x,y,1/2-z
-x,-y,-z
x,y,1/2-z
-x,y,z
x,-y,1/2+z
1/2+x,1/2+y,z
1/2-x,1/2-y,1/2+z
1/2+x,1/2-y,-z
1/2-x,1/2+y,1/2-z
1/2-x,1/2-y,-z
1/2+x,1/2+y,1/2-z
1/2-x,1/2+y,z
1/2+x,1/2-y,1/2+z
loop_
_atom_site_type_symbol
_atom_site_label
_atom_site_fract_x
_atom_site_fract_y
_atom_site_fract_z
Si Si1 0.565568 0.533438 0.675303
Si Si2 0.837819 0.654605 0.493994
Si Si3 0.433307 0.638670 0.966537
Si Si4 0.255319 0.718870 0.606741
Si Si5 0.192982 0.953761 0.824355
O O1 0.569526 0.601683 0.750000
O O2 0.500000 0.461854 0.668686
O O3 0.571351 0.640966 0.614569
O O4 0.621688 0.432074 0.666911
O O5 0.857420 0.500000 0.500000
O O6 0.897237 0.740511 0.499862
O O7 0.793876 0.690290 0.552656
O O8 0.807411 0.688966 0.423579
O O9 0.500000 0.660628 0.990146
O O10 0.408541 0.500000 0.000000
O O11 0.282743 0.575518 0.629638
O O12 0.224650 0.809349 0.663673
O O13 0.208107 0.999654 0.750000
#
# Coordination Sequence:
#
# PCOD8259285 Si02
#       5
#    16  16  16  16  16
#     4   9  18  33  54  80 108 141 182 228 278 329
#     4  11  22  35  55  77 113 149 182 228 279 337
#     4  10  20  35  58  86 111 142 191 242 279 327
#     4  11  22  36  52  83 108 145 187 226 277 340
#     4  11  21  36  57  81 112 144 183 234 282 334
#
# _framework density 17.958037999999998
#
# number of rings (size 3 to 8) (size 9 to 14) (size 15 to 20)
#    0.000    1.600    4.000    1.800    0.000    0.400 
#    0.000    0.000    0.000    0.000    0.000    0.000 
#    0.000    8.000    0.000    0.000    0.000    0.000 
#
# Total GULP energy -495591.093889 kJ/mol
# GULP energy per Si atom -12389.777347 kJ/mol
# Density = 1.791716 g / cm^3
# Si number density = 17.958038 Si / 1000 Ang^3
#
#
#
# Elastic Constant Matrix: (Units=GPa)
#
#
# Indices 1 2 3 4 5 6 
#
# 1 108.3158 50.4436 27.0853 0.0000 0.0000 0.0000
# 2 50.4436 98.5040 16.3258 0.0000 0.0000 0.0000
# 3 27.0853 16.3258 75.2482 0.0000 0.0000 0.0000
# 4 0.0000 0.0000 0.0000 22.3878 0.0000 0.0000
# 5 0.0000 0.0000 0.0000 0.0000 11.0648 0.0000
# 6 0.0000 0.0000 0.0000 0.0000 0.0000 20.7895
#
#
#
# Elastic Compliance Matrix: (Units=1/GPa)
#
#
# Indices 1 2 3 4 5 6 
#
# 1 0.012878 -0.006044 -0.003324 0.000000 0.000000 0.000000
# 2 -0.006044 0.013367 -0.000725 0.000000 0.000000 0.000000
# 3 -0.003324 -0.000725 0.014643 0.000000 0.000000 0.000000
# 4 0.000000 0.000000 0.000000 0.044667 0.000000 0.000000
# 5 0.000000 0.000000 0.000000 0.000000 0.090377 0.000000
# 6 0.000000 0.000000 0.000000 0.000000 0.000000 0.048101
#
#
# Mechanical properties :
#
#
# Convention : Reuss Voigt Hill
#
# Bulk Modulus (GPa) = 48.30244 52.19749 50.24996
# Shear Modulus (GPa) = 19.91081 23.39597 21.65339
#
# Velocity S-wave (km/s) = 3.33339 3.61337 3.47620
# Velocity P-wave (km/s) = 6.46306 6.82188 6.64489
#
# Compressibility (1/GPa) = 0.02070289
#
# Stress axis : x y z
#
# Youngs Moduli (GPa) = 77.65040 74.81076 68.29160
#
# Poissons Ratio (x) = 0.45215 0.22701
# Poissons Ratio (y) = 0.46932 0.04948
# Poissons Ratio (z) = 0.25812 0.05421
#
# Static dielectric constant tensor:
#      x y z
#    x 3.617150 0.000000 0.000000 
#    y 0.000000 3.139110 0.000000 
#    z 0.000000 0.000000 3.546860 
# 
# 
# High freq. dielectric constant tensor:
#      x y z
#    x 1.713610 0.000000 0.000000 
#    y 0.000000 1.652020 0.000000 
#    z 0.000000 0.000000 1.708570 
# 
# From -- ./inp_files/48791.got.cif
#   From: 2010.03.12/outbox.cif.g09.slc.cpg/sg63_25_cif.got.tgz:48791.got - 2010.04.10 19:34:48.
