data_PCOD8259620
_publ_section_title
;
Structure prediction by ZEFSAII (Michael W. Deem and Ramdas Pophale) SiO2 
 PCOD8259620
Probable space group: C M C M
;
_chemical_formula_sum "Si O2"
_cell_formula_units_Z 96
_cell_length_a 19.615090
_cell_length_b 9.440050
_cell_length_c 25.791720
_cell_angle_alpha 90.000000
_cell_angle_beta 90.000000
_cell_angle_gamma 90.000000
_cell_volume 4775.786517
_symmetry_space_group_name_H-M "C M C M"
_symmetry_group_IT_number 63
_symmetry_cell_setting 'orthorhombic'
loop_
_space_group_symop_operation_xyz
x,y,z
-x,-y,1/2+z
x,-y,-z
-x,y,1/2-z
-x,-y,-z
x,y,1/2-z
-x,y,z
x,-y,1/2+z
1/2+x,1/2+y,z
1/2-x,1/2-y,1/2+z
1/2+x,1/2-y,-z
1/2-x,1/2+y,1/2-z
1/2-x,1/2-y,-z
1/2+x,1/2+y,1/2-z
1/2-x,1/2+y,z
1/2+x,1/2-y,1/2+z
loop_
_atom_site_type_symbol
_atom_site_label
_atom_site_fract_x
_atom_site_fract_y
_atom_site_fract_z
Si Si1 0.312507 0.884603 0.341221
Si Si2 0.924089 0.584839 0.191511
Si Si3 0.652210 0.350857 0.473864
Si Si4 0.695490 0.877749 0.458085
Si Si5 0.919915 0.859329 0.368508
Si Si6 0.819698 0.940561 0.689173
O O1 0.327434 0.923891 0.401150
O O2 0.305508 0.717241 0.331769
O O3 0.377753 0.945423 0.311461
O O4 0.245905 0.962574 0.320130
O O5 0.925572 0.640232 0.250000
O O6 0.894347 0.715195 0.158503
O O7 0.000000 0.543651 0.172484
O O8 0.644804 0.500000 0.500000
O O9 0.641998 0.238226 0.520300
O O10 0.727437 0.319588 0.450584
O O11 0.596286 0.339767 0.429115
O O12 0.695641 0.000000 0.500000
O O13 0.000000 0.883603 0.360645
O O14 0.882088 0.993985 0.343393
O O15 0.837641 0.936621 0.750000
#
# Coordination Sequence:
#
# PCOD8259620 Si02
#       6
#    16  16  16  16  16  16
#     4  12  24  41  64  93 126 162 205 264 312 371
#     4  10  22  41  63  87 120 163 205 248 307 371
#     4  10  20  37  58  87 120 158 200 247 305 366
#     4  10  21  35  62  88 120 157 198 248 308 372
#     4  11  23  41  65  91 125 166 210 259 308 369
#     4  12  25  40  61  92 125 163 210 259 313 368
#
# _framework density 20.101402
#
# number of rings (size 3 to 8) (size 9 to 14) (size 15 to 20)
#    0.000    1.167    1.667    5.000    4.667    2.000 
#    0.000    0.833    0.000    3.000    0.000    0.000 
#    0.000    0.000    0.000    0.000    0.000    0.000 
#
# Total GULP energy -595249.314608 kJ/mol
# GULP energy per Si atom -12401.027388 kJ/mol
# Density = 2.005565 g / cm^3
# Si number density = 20.101402 Si / 1000 Ang^3
#
#
#
# Elastic Constant Matrix: (Units=GPa)
#
#
# Indices 1 2 3 4 5 6 
#
# 1 91.3820 46.6235 22.4553 0.0000 0.0000 0.0000
# 2 46.6235 106.9896 11.8540 0.0000 0.0000 0.0000
# 3 22.4553 11.8540 107.7219 0.0000 0.0000 0.0000
# 4 0.0000 0.0000 0.0000 35.1338 0.0000 0.0000
# 5 0.0000 0.0000 0.0000 0.0000 38.3239 0.0000
# 6 0.0000 0.0000 0.0000 0.0000 0.0000 31.4944
#
#
#
# Elastic Compliance Matrix: (Units=1/GPa)
#
#
# Indices 1 2 3 4 5 6 
#
# 1 0.014651 -0.006121 -0.002381 0.000000 0.000000 0.000000
# 2 -0.006121 0.012019 -0.000047 0.000000 0.000000 0.000000
# 3 -0.002381 -0.000047 0.009785 0.000000 0.000000 0.000000
# 4 0.000000 0.000000 0.000000 0.028463 0.000000 0.000000
# 5 0.000000 0.000000 0.000000 0.000000 0.026093 0.000000
# 6 0.000000 0.000000 0.000000 0.000000 0.000000 0.031752
#
#
# Mechanical properties :
#
#
# Convention : Reuss Voigt Hill
#
# Bulk Modulus (GPa) = 51.65664 51.99547 51.82606
# Shear Modulus (GPa) = 34.17376 36.00113 35.08744
#
# Velocity S-wave (km/s) = 4.12766 4.23658 4.18248
# Velocity P-wave (km/s) = 6.96208 7.06076 7.01159
#
# Compressibility (1/GPa) = 0.01935860
#
# Stress axis : x y z
#
# Youngs Moduli (GPa) = 68.25532 83.20061 102.20206
#
# Poissons Ratio (x) = 0.50925 0.24329
# Poissons Ratio (y) = 0.41777 0.00477
# Poissons Ratio (z) = 0.16248 0.00389
#
# Static dielectric constant tensor:
#      x y z
#    x 3.553890 0.000000 0.000000 
#    y 0.000000 3.677980 0.000000 
#    z 0.000000 0.000000 3.782210 
# 
# 
# High freq. dielectric constant tensor:
#      x y z
#    x 1.765050 0.000000 0.000000 
#    y 0.000000 1.792000 0.000000 
#    z 0.000000 0.000000 1.802600 
# 
# From -- ./inp_files/70261.got.cif
#   From: 2010.03.12/outbox.cif.g09.slc.cpg/sg63_36_cif.got.tgz:70261.got - 2010.04.10 19:34:48.
