data_PCOD8259624
_publ_section_title
;
Structure prediction by ZEFSAII (Michael W. Deem and Ramdas Pophale) SiO2 
 PCOD8259624
Probable space group: C M C M
;
_chemical_formula_sum "Si O2"
_cell_formula_units_Z 80
_cell_length_a 26.708304
_cell_length_b 18.667234
_cell_length_c 8.740385
_cell_angle_alpha 90.000000
_cell_angle_beta 90.000000
_cell_angle_gamma 90.000000
_cell_volume 4357.695152
_symmetry_space_group_name_H-M "C M C M"
_symmetry_group_IT_number 63
_symmetry_cell_setting 'orthorhombic'
loop_
_space_group_symop_operation_xyz
x,y,z
-x,-y,1/2+z
x,-y,-z
-x,y,1/2-z
-x,-y,-z
x,y,1/2-z
-x,y,z
x,-y,1/2+z
1/2+x,1/2+y,z
1/2-x,1/2-y,1/2+z
1/2+x,1/2-y,-z
1/2-x,1/2+y,1/2-z
1/2-x,1/2-y,-z
1/2+x,1/2+y,1/2-z
1/2-x,1/2+y,z
1/2+x,1/2-y,1/2+z
loop_
_atom_site_type_symbol
_atom_site_label
_atom_site_fract_x
_atom_site_fract_y
_atom_site_fract_z
Si Si1 0.057870 0.571979 0.429191
Si Si2 0.846630 0.925405 0.568679
Si Si3 0.943241 0.135873 0.569128
Si Si4 0.702406 0.712226 0.928302
Si Si5 0.900601 0.282674 0.572948
O O1 0.081531 0.500000 0.500000
O O2 0.066806 0.567645 0.250000
O O3 0.084867 0.641569 0.503880
O O4 0.000000 0.578172 0.473511
O O5 0.844088 0.927625 0.750000
O O6 0.904301 0.915634 0.516057
O O7 0.810218 0.862900 0.508685
O O8 0.826627 0.000000 0.500000
O O9 0.932174 0.131149 0.750000
O O10 0.933930 0.216919 0.508808
O O11 0.000000 0.112609 0.529897
O O12 0.711068 0.697046 0.750000
O O13 0.657515 0.767770 0.956093
O O14 0.750000 0.750000 0.000000
O O15 0.913908 0.289638 0.750000
#
# Coordination Sequence:
#
# PCOD8259624 Si02
#       5
#    16  16  16  16  16
#     4   9  16  27  44  67  96 130 165 200 241 289
#     4  11  22  37  56  79 108 140 174 214 261 312
#     4   9  17  31  52  77 104 137 177 217 258 309
#     4  10  20  37  59  81 103 131 171 216 264 315
#     4   8  15  29  50  72  96 130 171 211 250 301
#
# _framework density 18.358329999999999
#
# number of rings (size 3 to 8) (size 9 to 14) (size 15 to 20)
#    0.000    2.600    0.000    4.200    0.000    3.200 
#    0.000    6.000    0.000    7.200    0.000    0.000 
#    0.000    0.000    0.000    0.000    0.000    0.000 
#
# Total GULP energy -495875.760730 kJ/mol
# GULP energy per Si atom -12396.894018 kJ/mol
# Density = 1.831655 g / cm^3
# Si number density = 18.358330 Si / 1000 Ang^3
#
#
#
# Elastic Constant Matrix: (Units=GPa)
#
#
# Indices 1 2 3 4 5 6 
#
# 1 79.7626 42.7766 49.6879 0.0000 0.0000 0.0000
# 2 42.7766 145.3900 52.8803 0.0000 0.0000 0.0000
# 3 49.6879 52.8803 90.7137 0.0000 0.0000 0.0000
# 4 0.0000 0.0000 0.0000 29.5139 0.0000 0.0000
# 5 0.0000 0.0000 0.0000 0.0000 26.6643 0.0000
# 6 0.0000 0.0000 0.0000 0.0000 0.0000 21.2505
#
#
#
# Elastic Compliance Matrix: (Units=1/GPa)
#
#
# Indices 1 2 3 4 5 6 
#
# 1 0.019654 -0.002369 -0.009384 0.000000 0.000000 0.000000
# 2 -0.002369 0.009014 -0.003957 0.000000 0.000000 0.000000
# 3 -0.009384 -0.003957 0.018470 0.000000 0.000000 0.000000
# 4 0.000000 0.000000 0.000000 0.033882 0.000000 0.000000
# 5 0.000000 0.000000 0.000000 0.000000 0.037503 0.000000
# 6 0.000000 0.000000 0.000000 0.000000 0.000000 0.047058
#
#
# Mechanical properties :
#
#
# Convention : Reuss Voigt Hill
#
# Bulk Modulus (GPa) = 63.62254 67.39509 65.50881
# Shear Modulus (GPa) = 24.72290 26.85384 25.78837
#
# Velocity S-wave (km/s) = 3.67370 3.82875 3.75203
# Velocity P-wave (km/s) = 7.26127 7.50576 7.38452
#
# Compressibility (1/GPa) = 0.01571770
#
# Stress axis : x y z
#
# Youngs Moduli (GPa) = 50.88124 110.93379 54.14080
#
# Poissons Ratio (x) = 0.26285 0.50805
# Poissons Ratio (y) = 0.12056 0.21423
# Poissons Ratio (z) = 0.47747 0.43896
#
# Static dielectric constant tensor:
#      x y z
#    x 3.283450 0.000000 0.000000 
#    y 0.000000 3.637290 0.000000 
#    z 0.000000 0.000000 3.196700 
# 
# 
# High freq. dielectric constant tensor:
#      x y z
#    x 1.693770 0.000000 0.000000 
#    y 0.000000 1.724250 0.000000 
#    z 0.000000 0.000000 1.693010 
# 
# From -- ./inp_files/12017.got.cif
#   From: 2010.03.12/outbox.cif.g09.slc.cpg/sg63_7_cif.got.tgz:12017.got - 2010.04.10 19:34:48.
