data_PCOD8259830
_publ_section_title
;
Structure prediction by ZEFSAII (Michael W. Deem and Ramdas Pophale) SiO2 
 PCOD8259830
Probable space group: C M C M
;
_chemical_formula_sum "Si O2"
_cell_formula_units_Z 64
_cell_length_a 10.376740
_cell_length_b 9.665642
_cell_length_c 33.090590
_cell_angle_alpha 90.000000
_cell_angle_beta 90.000000
_cell_angle_gamma 90.000000
_cell_volume 3318.915164
_symmetry_space_group_name_H-M "C M C M"
_symmetry_group_IT_number 63
_symmetry_cell_setting 'orthorhombic'
loop_
_space_group_symop_operation_xyz
x,y,z
-x,-y,1/2+z
x,-y,-z
-x,y,1/2-z
-x,-y,-z
x,y,1/2-z
-x,y,z
x,-y,1/2+z
1/2+x,1/2+y,z
1/2-x,1/2-y,1/2+z
1/2+x,1/2-y,-z
1/2-x,1/2+y,1/2-z
1/2-x,1/2-y,-z
1/2+x,1/2+y,1/2-z
1/2-x,1/2+y,z
1/2+x,1/2-y,1/2+z
loop_
_atom_site_type_symbol
_atom_site_label
_atom_site_fract_x
_atom_site_fract_y
_atom_site_fract_z
Si Si1 0.762091 0.307687 0.153667
Si Si2 0.759265 0.942919 0.596221
Si Si3 0.500000 0.825774 0.920618
Si Si4 0.000000 0.017508 0.547396
Si Si5 0.500000 0.779906 0.825989
Si Si6 0.500000 0.916189 0.203606
O O1 0.785270 0.156632 0.134572
O O2 0.751666 0.404818 0.114710
O O3 0.630869 0.308282 0.181074
O O4 0.875524 0.351170 0.182981
O O5 0.631696 0.908268 0.569427
O O6 0.876717 0.939029 0.565229
O O7 0.500000 0.679280 0.942370
O O8 0.500000 0.818869 0.872620
O O9 0.000000 0.000000 0.500000
O O10 0.500000 0.917922 0.799169
O O11 0.500000 0.871595 0.250000
#
# Coordination Sequence:
#
# PCOD8259830 Si02
#       6
#    16  16   8   8   8   8
#     4  11  20  41  70  91 120 170 218 247 309 382
#     4  11  20  41  70  90 122 170 213 256 301 386
#     4  10  20  40  62  92 125 158 222 247 304 376
#     4  12  25  40  62 100 133 158 205 276 320 356
#     4  10  20  40  67  88 126 165 213 255 306 371
#     4  12  25  40  62 100 131 156 205 272 316 356
#
# _framework density 19.28341
#
# number of rings (size 3 to 8) (size 9 to 14) (size 15 to 20)
#    0.000    1.000   10.000    0.750    0.000    2.000 
#    0.000    0.625    0.000    0.000    0.000    0.000 
#    0.000    0.000    0.000    0.000    0.000    0.000 
#
# Total GULP energy -396738.981222 kJ/mol
# GULP energy per Si atom -12398.093163 kJ/mol
# Density = 1.923952 g / cm^3
# Si number density = 19.283410 Si / 1000 Ang^3
#
#
#
# Elastic Constant Matrix: (Units=GPa)
#
#
# Indices 1 2 3 4 5 6 
#
# 1 221.5737 49.2476 58.2713 0.0000 0.0000 0.0000
# 2 49.2476 57.2874 7.9050 0.0000 0.0000 0.0000
# 3 58.2713 7.9050 90.5141 0.0000 0.0000 0.0000
# 4 0.0000 0.0000 0.0000 21.2219 0.0000 0.0000
# 5 0.0000 0.0000 0.0000 0.0000 6.0559 0.0000
# 6 0.0000 0.0000 0.0000 0.0000 0.0000 27.1774
#
#
#
# Elastic Compliance Matrix: (Units=1/GPa)
#
#
# Indices 1 2 3 4 5 6 
#
# 1 0.006684 -0.005215 -0.003848 0.000000 0.000000 0.000000
# 2 -0.005215 0.021738 0.001459 0.000000 0.000000 0.000000
# 3 -0.003848 0.001459 0.013398 0.000000 0.000000 0.000000
# 4 0.000000 0.000000 0.000000 0.047121 0.000000 0.000000
# 5 0.000000 0.000000 0.000000 0.000000 0.165128 0.000000
# 6 0.000000 0.000000 0.000000 0.000000 0.000000 0.036795
#
#
# Mechanical properties :
#
#
# Convention : Reuss Voigt Hill
#
# Bulk Modulus (GPa) = 37.57720 66.69144 52.13432
# Shear Modulus (GPa) = 15.87590 27.82114 21.84852
#
# Velocity S-wave (km/s) = 2.87242 3.80248 3.36969
# Velocity P-wave (km/s) = 5.52541 7.34428 6.49879
#
# Compressibility (1/GPa) = 0.02661188
#
# Stress axis : x y z
#
# Youngs Moduli (GPa) = 149.60600 46.00272 74.63987
#
# Poissons Ratio (x) = 0.23991 0.28719
# Poissons Ratio (y) = 0.78023 -0.10890
# Poissons Ratio (z) = 0.57564 -0.06712
#
# Static dielectric constant tensor:
#      x y z
#    x 5.444590 0.000000 0.000000 
#    y 0.000000 3.617170 0.000000 
#    z 0.000000 0.000000 2.702840 
# 
# 
# High freq. dielectric constant tensor:
#      x y z
#    x 1.780270 0.000000 0.000000 
#    y 0.000000 1.751870 0.000000 
#    z 0.000000 0.000000 1.711140 
# 
# From -- ./inp_files/72402.got.cif
#   From: 2010.03.12/outbox.cif.g09.slc.cpg/sg63_37_cif.got.tgz:72402.got - 2010.04.10 19:34:48.
