data_PCOD8259557
_publ_section_title
;
Structure prediction by ZEFSAII (Michael W. Deem and Ramdas Pophale) SiO2 
 PCOD8259557
Probable space group: C M C M
;
_chemical_formula_sum "Si O2"
_cell_formula_units_Z 52
_cell_length_a 7.833869
_cell_length_b 21.915691
_cell_length_c 15.287819
_cell_angle_alpha 90.000000
_cell_angle_beta 90.000000
_cell_angle_gamma 90.000000
_cell_volume 2624.683890
_symmetry_space_group_name_H-M "C M C M"
_symmetry_group_IT_number 63
_symmetry_cell_setting 'orthorhombic'
loop_
_space_group_symop_operation_xyz
x,y,z
-x,-y,1/2+z
x,-y,-z
-x,y,1/2-z
-x,-y,-z
x,y,1/2-z
-x,y,z
x,-y,1/2+z
1/2+x,1/2+y,z
1/2-x,1/2-y,1/2+z
1/2+x,1/2-y,-z
1/2-x,1/2+y,1/2-z
1/2-x,1/2-y,-z
1/2+x,1/2+y,1/2-z
1/2-x,1/2+y,z
1/2+x,1/2-y,1/2+z
loop_
_atom_site_type_symbol
_atom_site_label
_atom_site_fract_x
_atom_site_fract_y
_atom_site_fract_z
Si Si1 0.800826 0.520991 0.095875
Si Si2 0.000000 0.768393 0.847076
Si Si3 0.000000 0.651857 0.750000
Si Si4 0.689825 0.156300 0.145870
Si Si5 0.187555 0.939111 0.250000
O O1 0.752752 0.591584 0.106834
O O2 0.698980 0.480870 0.164791
O O3 0.000000 0.509965 0.113629
O O4 0.745116 0.500000 0.000000
O O5 0.000000 0.694530 0.837829
O O6 0.174859 0.793521 0.891059
O O7 0.000000 0.797954 0.750000
O O8 0.170830 0.613074 0.750000
O O9 0.684905 0.152058 0.250000
O O10 0.500000 0.174210 0.111470
O O11 0.000000 0.908061 0.250000
#
# Coordination Sequence:
#
# PCOD8259557 Si02
#       5
#    16   8   4  16   8
#     4  10  20  36  60  91 127 156 185 241 307 358
#     4   8  18  32  55  79 102 147 193 245 271 334
#     4  10  22  40  54  82 116 156 204 230 296 354
#     4   9  16  29  53  85 109 136 187 241 283 330
#     4  12  24  37  59  85 123 160 192 237 292 368
#
# _framework density 19.811909
#
# number of rings (size 3 to 8) (size 9 to 14) (size 15 to 20)
#    0.462    1.846    3.077    0.000    2.154    1.846 
#    0.000    0.000    0.000    1.846    0.000    0.000 
#    0.000    0.000    0.000    0.000    0.000    0.000 
#
# Total GULP energy -322243.636590 kJ/mol
# GULP energy per Si atom -12393.986023 kJ/mol
# Density = 1.976682 g / cm^3
# Si number density = 19.811909 Si / 1000 Ang^3
#
#
#
# Elastic Constant Matrix: (Units=GPa)
#
#
# Indices 1 2 3 4 5 6 
#
# 1 154.9130 77.5575 27.4263 0.0000 0.0000 0.0000
# 2 77.5575 97.9808 32.6638 0.0000 0.0000 0.0000
# 3 27.4263 32.6638 63.2106 0.0000 0.0000 0.0000
# 4 0.0000 0.0000 0.0000 -11.2297 0.0000 0.0000
# 5 0.0000 0.0000 0.0000 0.0000 -47.6358 0.0000
# 6 0.0000 0.0000 0.0000 0.0000 0.0000 25.9420
#
#
#
# Elastic Compliance Matrix: (Units=1/GPa)
#
#
# Indices 1 2 3 4 5 6 
#
# 1 0.010698 -0.008361 -0.000321 0.000000 0.000000 0.000000
# 2 -0.008361 0.018865 -0.006121 0.000000 0.000000 0.000000
# 3 -0.000321 -0.006121 0.019122 0.000000 0.000000 0.000000
# 4 0.000000 0.000000 0.000000 -0.089050 0.000000 0.000000
# 5 0.000000 0.000000 0.000000 0.000000 -0.020993 0.000000
# 6 0.000000 0.000000 0.000000 0.000000 0.000000 0.038547
#
#
# Mechanical properties :
#
#
# Convention : Reuss Voigt Hill
#
# Bulk Modulus (GPa) = 52.41231 65.71106 59.06169
# Shear Modulus (GPa) = 380.06602 5.31244 192.68923
#
# Velocity S-wave (km/s) = 13.86555 1.63929 9.87271
# Velocity P-wave (km/s) = 16.81816 6.06815 12.64265
#
# Compressibility (1/GPa) = 0.01907949
#
# Stress axis : x y z
#
# Youngs Moduli (GPa) = 93.47461 53.00892 52.29503
#
# Poissons Ratio (x) = 0.44321 0.01680
# Poissons Ratio (y) = 0.78155 0.32007
# Poissons Ratio (z) = 0.03003 0.32444
#
# Static dielectric constant tensor:
#      x y z
#    x 3.867150 0.000000 0.000000 
#    y 0.000000 3.417000 0.000000 
#    z 0.000000 0.000000 3.258950 
# 
# 
# High freq. dielectric constant tensor:
#      x y z
#    x 1.785250 0.000000 0.000000 
#    y 0.000000 1.760060 0.000000 
#    z 0.000000 0.000000 1.733710 
# 
# From -- ./inp_files/27140.got.cif
#   From: 2010.03.12/outbox.cif.g09.slc.cpg/sg63_14_cif.got.tgz:27140.got - 2010.04.10 19:34:48.
