data_PCOD8259593
_publ_section_title
;
Structure prediction by ZEFSAII (Michael W. Deem and Ramdas Pophale) SiO2 
 PCOD8259593
Probable space group: C M C M
;
_chemical_formula_sum "Si O2"
_cell_formula_units_Z 96
_cell_length_a 17.949567
_cell_length_b 18.661962
_cell_length_c 16.009745
_cell_angle_alpha 90.000000
_cell_angle_beta 90.000000
_cell_angle_gamma 90.000000
_cell_volume 5362.850519
_symmetry_space_group_name_H-M "C M C M"
_symmetry_group_IT_number 63
_symmetry_cell_setting 'orthorhombic'
loop_
_space_group_symop_operation_xyz
x,y,z
-x,-y,1/2+z
x,-y,-z
-x,y,1/2-z
-x,-y,-z
x,y,1/2-z
-x,y,z
x,-y,1/2+z
1/2+x,1/2+y,z
1/2-x,1/2-y,1/2+z
1/2+x,1/2-y,-z
1/2-x,1/2+y,1/2-z
1/2-x,1/2-y,-z
1/2+x,1/2+y,1/2-z
1/2-x,1/2+y,z
1/2+x,1/2-y,1/2+z
loop_
_atom_site_type_symbol
_atom_site_label
_atom_site_fract_x
_atom_site_fract_y
_atom_site_fract_z
Si Si1 0.916658 0.124227 0.750000
Si Si2 0.309228 0.430024 0.389747
Si Si3 0.820946 0.091837 0.084622
Si Si4 0.083298 0.292401 0.750000
Si Si5 0.310415 0.192539 0.096268
Si Si6 0.301866 0.182518 0.591039
Si Si7 0.417840 0.709847 0.154607
O O1 0.873804 0.101869 0.666885
O O2 0.923171 0.208374 0.750000
O O3 0.000000 0.090497 0.750000
O O4 0.311868 0.514672 0.372566
O O5 0.325270 0.413027 0.485571
O O6 0.226952 0.394265 0.371521
O O7 0.751992 0.135682 0.121498
O O8 0.893981 0.137123 0.107888
O O9 0.124823 0.315999 0.664744
O O10 0.000000 0.326426 0.750000
O O11 0.274905 0.271762 0.093258
O O12 0.337219 0.174804 0.001889
O O13 0.364909 0.220634 0.645468
O O14 0.419464 0.688146 0.250000
O O15 0.500000 0.731081 0.121985
#
# Coordination Sequence:
#
# PCOD8259593 Si02
#       7
#     8  16  16   8  16  16  16
#     4  11  24  33  48  80 114 142 173 214 267 325
#     4  10  20  37  54  81 106 140 180 218 264 317
#     4   9  21  36  57  77 106 141 179 219 265 314
#     4  11  22  33  52  80 110 138 169 220 277 319
#     4   9  18  34  53  79 101 134 180 218 257 316
#     4   9  18  34  56  75 101 140 180 220 257 308
#     4  10  22  35  51  78 107 141 181 219 263 314
#
# _framework density 17.900928
#
# number of rings (size 3 to 8) (size 9 to 14) (size 15 to 20)
#    0.000    2.333    1.667    1.000    7.000    2.000 
#    0.000    1.667    0.000    1.000    0.000    4.667 
#    0.000    0.000    0.000    0.000    0.000    0.000 
#
# Total GULP energy -594778.292510 kJ/mol
# GULP energy per Si atom -12391.214427 kJ/mol
# Density = 1.786018 g / cm^3
# Si number density = 17.900928 Si / 1000 Ang^3
#
#
#
# Elastic Constant Matrix: (Units=GPa)
#
#
# Indices 1 2 3 4 5 6 
#
# 1 111.0068 45.8155 47.7679 0.0000 0.0000 0.0000
# 2 45.8155 79.6440 21.1427 0.0000 0.0000 0.0000
# 3 47.7679 21.1427 68.5815 0.0000 0.0000 0.0000
# 4 0.0000 0.0000 0.0000 8.4563 0.0000 0.0000
# 5 0.0000 0.0000 0.0000 0.0000 24.7541 0.0000
# 6 0.0000 0.0000 0.0000 0.0000 0.0000 13.7424
#
#
#
# Elastic Compliance Matrix: (Units=1/GPa)
#
#
# Indices 1 2 3 4 5 6 
#
# 1 0.015499 -0.006590 -0.008764 0.000000 0.000000 0.000000
# 2 -0.006590 0.016477 -0.000490 0.000000 0.000000 0.000000
# 3 -0.008764 -0.000490 0.020837 0.000000 0.000000 0.000000
# 4 0.000000 0.000000 0.000000 0.118254 0.000000 0.000000
# 5 0.000000 0.000000 0.000000 0.000000 0.040397 0.000000
# 6 0.000000 0.000000 0.000000 0.000000 0.000000 0.072767
#
#
# Mechanical properties :
#
#
# Convention : Reuss Voigt Hill
#
# Bulk Modulus (GPa) = 47.33588 54.29828 50.81708
# Shear Modulus (GPa) = 15.48177 19.02431 17.25304
#
# Velocity S-wave (km/s) = 2.94404 3.26353 3.10789
# Velocity P-wave (km/s) = 6.16905 6.67827 6.42870
#
# Compressibility (1/GPa) = 0.02112562
#
# Stress axis : x y z
#
# Youngs Moduli (GPa) = 64.51828 60.69227 47.99270
#
# Poissons Ratio (x) = 0.39994 0.42061
# Poissons Ratio (y) = 0.42515 0.02351
# Poissons Ratio (z) = 0.56545 0.02973
#
# Static dielectric constant tensor:
#      x y z
#    x 3.399660 0.000000 0.000000 
#    y 0.000000 3.541100 0.000000 
#    z 0.000000 0.000000 3.302590 
# 
# 
# High freq. dielectric constant tensor:
#      x y z
#    x 1.672940 0.000000 0.000000 
#    y 0.000000 1.682820 0.000000 
#    z 0.000000 0.000000 1.700240 
# 
# From -- ./inp_files/45804.got.cif
#   From: 2010.03.12/outbox.cif.g09.slc.cpg/sg63_23_cif.got.tgz:45804.got - 2010.04.10 19:34:48.
