data_PCOD8259272
_publ_section_title
;
Structure prediction by ZEFSAII (Michael W. Deem and Ramdas Pophale) SiO2 
 PCOD8259272
Probable space group: C M C M
;
_chemical_formula_sum "Si O2"
_cell_formula_units_Z 48
_cell_length_a 18.500277
_cell_length_b 8.851800
_cell_length_c 15.606571
_cell_angle_alpha 90.000000
_cell_angle_beta 90.000000
_cell_angle_gamma 90.000000
_cell_volume 2555.743802
_symmetry_space_group_name_H-M "C M C M"
_symmetry_group_IT_number 63
_symmetry_cell_setting 'orthorhombic'
loop_
_space_group_symop_operation_xyz
x,y,z
-x,-y,1/2+z
x,-y,-z
-x,y,1/2-z
-x,-y,-z
x,y,1/2-z
-x,y,z
x,-y,1/2+z
1/2+x,1/2+y,z
1/2-x,1/2-y,1/2+z
1/2+x,1/2-y,-z
1/2-x,1/2+y,1/2-z
1/2-x,1/2-y,-z
1/2+x,1/2+y,1/2-z
1/2-x,1/2+y,z
1/2+x,1/2-y,1/2+z
loop_
_atom_site_type_symbol
_atom_site_label
_atom_site_fract_x
_atom_site_fract_y
_atom_site_fract_z
Si Si1 0.585325 0.936838 0.409655
Si Si2 0.079507 0.876306 0.844444
Si Si3 0.178890 0.923617 0.250000
Si Si4 0.334285 0.069330 0.250000
O O1 0.500000 0.956979 0.399314
O O2 0.606172 0.758180 0.406522
O O3 0.613454 0.000000 0.500000
O O4 0.622245 0.031351 0.335128
O O5 0.072833 0.799832 0.750000
O O6 0.000000 0.938201 0.873153
O O7 0.136828 0.014557 0.835988
O O8 0.181223 0.745849 0.250000
O O9 0.259895 0.980041 0.250000
#
# Coordination Sequence:
#
# PCOD8259272 Si02
#       4
#    16  16   8   8
#     4  10  20  35  58  84 109 142 181 220 267 323
#     4   8  15  33  56  75 105 142 174 216 269 314
#     4  10  21  34  57  81 107 147 183 220 273 322
#     4  12  21  36  55  79 111 143 181 224 267 322
#
# _framework density 18.781224000000002
#
# number of rings (size 3 to 8) (size 9 to 14) (size 15 to 20)
#    1.000    1.333    1.667    2.500    0.000    2.667 
#    0.000    8.333    0.000    6.000    0.000    0.000 
#    0.000    0.000    0.000    0.000    0.000    0.000 
#
# Total GULP energy -297344.143426 kJ/mol
# GULP energy per Si atom -12389.339309 kJ/mol
# Density = 1.873848 g / cm^3
# Si number density = 18.781224 Si / 1000 Ang^3
#
#
#
# Elastic Constant Matrix: (Units=GPa)
#
#
# Indices 1 2 3 4 5 6 
#
# 1 70.1399 44.9893 40.4282 0.0000 0.0000 0.0000
# 2 44.9893 114.3352 39.1857 0.0000 0.0000 0.0000
# 3 40.4282 39.1857 93.3823 0.0000 0.0000 0.0000
# 4 0.0000 0.0000 0.0000 14.2177 0.0000 0.0000
# 5 0.0000 0.0000 0.0000 0.0000 10.2332 0.0000
# 6 0.0000 0.0000 0.0000 0.0000 0.0000 33.1738
#
#
#
# Elastic Compliance Matrix: (Units=1/GPa)
#
#
# Indices 1 2 3 4 5 6 
#
# 1 0.022414 -0.006417 -0.007011 0.000000 0.000000 0.000000
# 2 -0.006417 0.012052 -0.002279 0.000000 0.000000 0.000000
# 3 -0.007011 -0.002279 0.014701 0.000000 0.000000 0.000000
# 4 0.000000 0.000000 0.000000 0.070335 0.000000 0.000000
# 5 0.000000 0.000000 0.000000 0.000000 0.097722 0.000000
# 6 0.000000 0.000000 0.000000 0.000000 0.000000 0.030144
#
#
# Mechanical properties :
#
#
# Convention : Reuss Voigt Hill
#
# Bulk Modulus (GPa) = 56.33068 58.56264 57.44666
# Shear Modulus (GPa) = 17.56231 21.74186 19.65209
#
# Velocity S-wave (km/s) = 3.06126 3.40610 3.23827
# Velocity P-wave (km/s) = 6.52329 6.83505 6.68098
#
# Compressibility (1/GPa) = 0.01775232
#
# Stress axis : x y z
#
# Youngs Moduli (GPa) = 44.61435 82.97122 68.02462
#
# Poissons Ratio (x) = 0.53241 0.47693
# Poissons Ratio (y) = 0.28628 0.15506
# Poissons Ratio (z) = 0.31280 0.18913
#
# Static dielectric constant tensor:
#      x y z
#    x 3.443810 0.000000 0.000000 
#    y 0.000000 3.292640 0.000000 
#    z 0.000000 0.000000 3.300210 
# 
# 
# High freq. dielectric constant tensor:
#      x y z
#    x 1.729920 0.000000 0.000000 
#    y 0.000000 1.725040 0.000000 
#    z 0.000000 0.000000 1.698730 
# 
# From -- ./inp_files/33127.got.cif
#   From: 2010.03.12/outbox.cif.g09.slc.cpg/sg63_17_cif.got.tgz:33127.got - 2010.04.10 19:34:48.
