data_PCOD8259887
_publ_section_title
;
Structure prediction by ZEFSAII (Michael W. Deem and Ramdas Pophale) SiO2 
 PCOD8259887
Probable space group: C M C M
;
_chemical_formula_sum "Si O2"
_cell_formula_units_Z 88
_cell_length_a 27.058920
_cell_length_b 17.890458
_cell_length_c 9.836821
_cell_angle_alpha 90.000000
_cell_angle_beta 90.000000
_cell_angle_gamma 90.000000
_cell_volume 4761.970340
_symmetry_space_group_name_H-M "C M C M"
_symmetry_group_IT_number 63
_symmetry_cell_setting 'orthorhombic'
loop_
_space_group_symop_operation_xyz
x,y,z
-x,-y,1/2+z
x,-y,-z
-x,y,1/2-z
-x,-y,-z
x,y,1/2-z
-x,y,z
x,-y,1/2+z
1/2+x,1/2+y,z
1/2-x,1/2-y,1/2+z
1/2+x,1/2-y,-z
1/2-x,1/2+y,1/2-z
1/2-x,1/2-y,-z
1/2+x,1/2+y,1/2-z
1/2-x,1/2+y,z
1/2+x,1/2-y,1/2+z
loop_
_atom_site_type_symbol
_atom_site_label
_atom_site_fract_x
_atom_site_fract_y
_atom_site_fract_z
Si Si1 0.055148 0.057513 0.600981
Si Si2 0.315875 0.063844 0.599259
Si Si3 0.904534 0.674648 0.596241
Si Si4 0.500000 0.924008 0.411186
Si Si5 0.874837 0.192364 0.598612
Si Si6 0.203736 0.928102 0.090392
O O1 0.055907 0.020587 0.750000
O O2 0.079841 0.136908 0.604907
O O3 0.000000 0.071621 0.547102
O O4 0.082847 0.000000 0.500000
O O5 0.315864 0.029143 0.750000
O O6 0.353480 0.130894 0.587470
O O7 0.260892 0.092184 0.562445
O O8 0.334682 0.000000 0.500000
O O9 0.914275 0.702611 0.750000
O O10 0.951267 0.624202 0.549636
O O11 0.894396 0.744103 0.500166
O O12 0.500000 0.944275 0.250000
O O13 0.500000 0.000000 0.500000
O O14 0.864072 0.225188 0.750000
O O15 0.827085 0.145570 0.545529
O O16 0.192869 0.945807 0.250000
O O17 0.188524 0.000000 0.000000
#
# Coordination Sequence:
#
# PCOD8259887 Si02
#       6
#    16  16  16   8  16  16
#     4   9  18  32  49  70  96 129 170 212 252 297
#     4   9  18  34  55  77 103 134 171 215 260 309
#     4  10  22  37  53  77 107 137 170 214 265 312
#     4  10  22  40  60  82 105 132 173 220 263 312
#     4  10  21  34  50  75 107 139 172 212 254 306
#     4   9  18  33  53  78 106 138 176 215 254 302
#
# _framework density 18.479745999999999
#
# number of rings (size 3 to 8) (size 9 to 14) (size 15 to 20)
#    0.000    2.545    0.000    1.091    1.273    3.636 
#    0.000    0.000    0.000    0.000    0.000    0.000 
#    0.000    0.000    0.000    0.000    0.000    0.000 
#
# Total GULP energy -545282.297884 kJ/mol
# GULP energy per Si atom -12392.779497 kJ/mol
# Density = 1.843769 g / cm^3
# Si number density = 18.479746 Si / 1000 Ang^3
#
#
#
# Elastic Constant Matrix: (Units=GPa)
#
#
# Indices 1 2 3 4 5 6 
#
# 1 102.1215 46.5775 37.9202 0.0000 0.0000 0.0000
# 2 46.5775 104.5778 73.4303 0.0000 0.0000 0.0000
# 3 37.9202 73.4303 97.9345 0.0000 0.0000 0.0000
# 4 0.0000 0.0000 0.0000 42.8764 0.0000 0.0000
# 5 0.0000 0.0000 0.0000 0.0000 18.8545 0.0000
# 6 0.0000 0.0000 0.0000 0.0000 0.0000 40.0941
#
#
#
# Elastic Compliance Matrix: (Units=1/GPa)
#
#
# Indices 1 2 3 4 5 6 
#
# 1 0.012378 -0.004535 -0.001392 0.000000 0.000000 0.000000
# 2 -0.004535 0.021856 -0.014631 0.000000 0.000000 0.000000
# 3 -0.001392 -0.014631 0.021720 0.000000 0.000000 0.000000
# 4 0.000000 0.000000 0.000000 0.023323 0.000000 0.000000
# 5 0.000000 0.000000 0.000000 0.000000 0.053038 0.000000
# 6 0.000000 0.000000 0.000000 0.000000 0.000000 0.024941
#
#
# Mechanical properties :
#
#
# Convention : Reuss Voigt Hill
#
# Bulk Modulus (GPa) = 67.40137 68.94330 68.17234
# Shear Modulus (GPa) = 24.59208 30.14538 27.36873
#
# Velocity S-wave (km/s) = 3.65191 4.04328 3.85257
# Velocity P-wave (km/s) = 7.37118 7.69324 7.53393
#
# Compressibility (1/GPa) = 0.01483649
#
# Stress axis : x y z
#
# Youngs Moduli (GPa) = 80.79000 45.75497 46.04047
#
# Poissons Ratio (x) = 0.20752 0.06409
# Poissons Ratio (y) = 0.36642 0.67362
# Poissons Ratio (z) = 0.11246 0.66944
#
# Static dielectric constant tensor:
#      x y z
#    x 3.650540 0.000000 0.000000 
#    y 0.000000 3.163850 0.000000 
#    z 0.000000 0.000000 3.726810 
# 
# 
# High freq. dielectric constant tensor:
#      x y z
#    x 1.737000 0.000000 0.000000 
#    y 0.000000 1.694650 0.000000 
#    z 0.000000 0.000000 1.719960 
# 
# From -- ./inp_files/14163.got.cif
#   From: 2010.03.12/outbox.cif.g09.slc.cpg/sg63_8_cif.got.tgz:14163.got - 2010.04.10 19:34:48.
