data_PCOD8259179
_publ_section_title
;
Structure prediction by ZEFSAII (Michael W. Deem and Ramdas Pophale) SiO2 
 PCOD8259179
Probable space group: C M C M
;
_chemical_formula_sum "Si O2"
_cell_formula_units_Z 64
_cell_length_a 24.046028
_cell_length_b 13.130460
_cell_length_c 9.412009
_cell_angle_alpha 90.000000
_cell_angle_beta 90.000000
_cell_angle_gamma 90.000000
_cell_volume 2971.704509
_symmetry_space_group_name_H-M "C M C M"
_symmetry_group_IT_number 63
_symmetry_cell_setting 'orthorhombic'
loop_
_space_group_symop_operation_xyz
x,y,z
-x,-y,1/2+z
x,-y,-z
-x,y,1/2-z
-x,-y,-z
x,y,1/2-z
-x,y,z
x,-y,1/2+z
1/2+x,1/2+y,z
1/2-x,1/2-y,1/2+z
1/2+x,1/2-y,-z
1/2-x,1/2+y,1/2-z
1/2-x,1/2-y,-z
1/2+x,1/2+y,1/2-z
1/2-x,1/2+y,z
1/2+x,1/2-y,1/2+z
loop_
_atom_site_type_symbol
_atom_site_label
_atom_site_fract_x
_atom_site_fract_y
_atom_site_fract_z
Si Si1 0.777519 0.097019 0.084538
Si Si2 0.679702 0.818020 0.411112
Si Si3 0.939544 0.717960 0.909924
Si Si4 0.563587 0.585990 0.595569
O O1 0.771546 0.070334 0.250000
O O2 0.816203 0.195889 0.058701
O O3 0.716016 0.119264 0.022143
O O4 0.802596 0.000000 0.000000
O O5 0.700343 0.840029 0.250000
O O6 0.614945 0.853131 0.430339
O O7 0.937537 0.763945 0.750000
O O8 0.000000 0.662031 0.932396
O O9 0.933268 0.805649 0.023370
O O10 0.593933 0.500000 0.500000
O O11 0.593259 0.590889 0.750000
O O12 0.500000 0.552856 0.617779
#
# Coordination Sequence:
#
# PCOD8259179 Si02
#       4
#    16  16  16  16
#     4  10  20  35  56  79 104 136 173 218 267 310
#     4   9  19  35  54  79 108 137 173 214 258 311
#     4   9  17  30  48  70  99 134 167 202 249 304
#     4   9  16  25  37  55  83 121 164 205 242 286
#
# _framework density 21.536462
#
# number of rings (size 3 to 8) (size 9 to 14) (size 15 to 20)
#    0.000    2.750    0.000    1.500    0.000    6.000 
#    0.000    2.500    0.000    0.750    0.000    0.000 
#    0.000    0.000    0.000    0.000    0.000    0.000 
#
# Total GULP energy -396456.099017 kJ/mol
# GULP energy per Si atom -12389.253094 kJ/mol
# Density = 2.148744 g / cm^3
# Si number density = 21.536462 Si / 1000 Ang^3
#
#
#
# Elastic Constant Matrix: (Units=GPa)
#
#
# Indices 1 2 3 4 5 6 
#
# 1 119.0524 -5.4707 24.6907 0.0000 0.0000 0.0000
# 2 -5.4707 30.0633 11.8175 0.0000 0.0000 0.0000
# 3 24.6907 11.8175 128.0835 0.0000 0.0000 0.0000
# 4 0.0000 0.0000 0.0000 30.3129 0.0000 0.0000
# 5 0.0000 0.0000 0.0000 0.0000 20.8637 0.0000
# 6 0.0000 0.0000 0.0000 0.0000 0.0000 8.4644
#
#
#
# Elastic Compliance Matrix: (Units=1/GPa)
#
#
# Indices 1 2 3 4 5 6 
#
# 1 0.008911 0.002383 -0.001938 0.000000 0.000000 0.000000
# 2 0.002383 0.035152 -0.003703 0.000000 0.000000 0.000000
# 3 -0.001938 -0.003703 0.008523 0.000000 0.000000 0.000000
# 4 0.000000 0.000000 0.000000 0.032989 0.000000 0.000000
# 5 0.000000 0.000000 0.000000 0.000000 0.047930 0.000000
# 6 0.000000 0.000000 0.000000 0.000000 0.000000 0.118141
#
#
# Mechanical properties :
#
#
# Convention : Reuss Voigt Hill
#
# Bulk Modulus (GPa) = 21.70532 37.69713 29.70122
# Shear Modulus (GPa) = 18.28033 28.33899 23.30966
#
# Velocity S-wave (km/s) = 2.91659 3.63142 3.29345
# Velocity P-wave (km/s) = 4.63058 5.92661 5.31823
#
# Compressibility (1/GPa) = 0.04607165
#
# Stress axis : x y z
#
# Youngs Moduli (GPa) = 112.22041 28.44762 117.33567
#
# Poissons Ratio (x) = -0.06780 0.22736
# Poissons Ratio (y) = -0.26745 0.43446
# Poissons Ratio (z) = 0.21745 0.10533
#
# Static dielectric constant tensor:
#      x y z
#    x 4.087660 0.000000 0.000000 
#    y 0.000000 3.310010 0.000000 
#    z 0.000000 0.000000 4.088010 
# 
# 
# High freq. dielectric constant tensor:
#      x y z
#    x 1.851210 0.000000 0.000000 
#    y 0.000000 1.784020 0.000000 
#    z 0.000000 0.000000 1.856580 
# 
# From -- ./inp_files/13734.got.cif
#   From: 2010.03.12/outbox.cif.g09.slc.cpg/sg63_7_cif.got.tgz:13734.got - 2010.04.10 19:34:48.
