data_PCOD8259871
_publ_section_title
;
Structure prediction by ZEFSAII (Michael W. Deem and Ramdas Pophale) SiO2 
 PCOD8259871
Probable space group: C M C M
;
_chemical_formula_sum "Si O2"
_cell_formula_units_Z 112
_cell_length_a 27.384538
_cell_length_b 11.676729
_cell_length_c 21.082177
_cell_angle_alpha 90.000000
_cell_angle_beta 90.000000
_cell_angle_gamma 90.000000
_cell_volume 6741.275477
_symmetry_space_group_name_H-M "C M C M"
_symmetry_group_IT_number 63
_symmetry_cell_setting 'orthorhombic'
loop_
_space_group_symop_operation_xyz
x,y,z
-x,-y,1/2+z
x,-y,-z
-x,y,1/2-z
-x,-y,-z
x,y,1/2-z
-x,y,z
x,-y,1/2+z
1/2+x,1/2+y,z
1/2-x,1/2-y,1/2+z
1/2+x,1/2-y,-z
1/2-x,1/2+y,1/2-z
1/2-x,1/2-y,-z
1/2+x,1/2+y,1/2-z
1/2-x,1/2+y,z
1/2+x,1/2-y,1/2+z
loop_
_atom_site_type_symbol
_atom_site_label
_atom_site_fract_x
_atom_site_fract_y
_atom_site_fract_z
Si Si1 0.445656 0.312114 0.497660
Si Si2 0.554743 0.506026 0.103095
Si Si3 0.269017 0.911069 0.558153
Si Si4 0.863510 0.629740 0.996307
Si Si5 0.748274 0.559842 0.676605
Si Si6 0.305364 0.752755 0.108224
Si Si7 0.852301 0.045546 0.321905
O O1 0.500000 0.261557 0.506334
O O2 0.431310 0.387256 0.558473
O O3 0.443629 0.389160 0.435554
O O4 0.408831 0.208945 0.488337
O O5 0.500000 0.522536 0.131563
O O6 0.595459 0.496403 0.156967
O O7 0.321486 0.851528 0.548923
O O8 0.227088 0.814682 0.556068
O O9 0.259361 0.000000 0.500000
O O10 0.270739 0.967865 0.627890
O O11 0.839700 0.655629 0.927407
O O12 0.882617 0.500000 0.000000
O O13 0.762481 0.531877 0.750000
O O14 0.769057 0.684538 0.658004
O O15 0.689359 0.551940 0.668190
O O16 0.339754 0.662991 0.143014
O O17 0.857425 0.081275 0.250000
#
# Coordination Sequence:
#
# PCOD8259871 Si02
#       7
#    16  16  16  16  16  16  16
#     4   9  19  34  54  78 104 134 167 216 280 326
#     4   9  18  35  56  80 105 132 171 219 274 328
#     4  10  21  33  50  78 104 135 182 224 265 308
#     4  11  20  32  51  79 105 134 179 223 260 316
#     4  10  21  36  50  72 110 146 180 218 261 320
#     4  11  20  34  51  73 108 145 175 217 264 320
#     4  10  21  34  52  79 104 139 181 217 270 320
#
# _framework density 16.614066000000001
#
# number of rings (size 3 to 8) (size 9 to 14) (size 15 to 20)
#    0.000    2.000    4.286    1.714    2.000    2.286 
#    0.000    0.000    0.000    0.000    0.000    0.000 
#    0.000    1.143    0.000    0.000    0.000    0.000 
#
# Total GULP energy -694091.054091 kJ/mol
# GULP energy per Si atom -12394.483109 kJ/mol
# Density = 1.657625 g / cm^3
# Si number density = 16.614066 Si / 1000 Ang^3
#
#
#
# Elastic Constant Matrix: (Units=GPa)
#
#
# Indices 1 2 3 4 5 6 
#
# 1 111.4478 49.7737 45.9258 0.0000 0.0000 0.0000
# 2 49.7737 80.4372 28.2795 0.0000 0.0000 0.0000
# 3 45.9258 28.2795 86.3222 0.0000 0.0000 0.0000
# 4 0.0000 0.0000 0.0000 17.3273 0.0000 0.0000
# 5 0.0000 0.0000 0.0000 0.0000 25.5479 0.0000
# 6 0.0000 0.0000 0.0000 0.0000 0.0000 32.6896
#
#
#
# Elastic Compliance Matrix: (Units=1/GPa)
#
#
# Indices 1 2 3 4 5 6 
#
# 1 0.014272 -0.006964 -0.005312 0.000000 0.000000 0.000000
# 2 -0.006964 0.017448 -0.002011 0.000000 0.000000 0.000000
# 3 -0.005312 -0.002011 0.015069 0.000000 0.000000 0.000000
# 4 0.000000 0.000000 0.000000 0.057713 0.000000 0.000000
# 5 0.000000 0.000000 0.000000 0.000000 0.039142 0.000000
# 6 0.000000 0.000000 0.000000 0.000000 0.000000 0.030591
#
#
# Mechanical properties :
#
#
# Convention : Reuss Voigt Hill
#
# Bulk Modulus (GPa) = 54.89635 58.46278 56.67956
# Shear Modulus (GPa) = 23.93719 25.39483 24.66601
#
# Velocity S-wave (km/s) = 3.79988 3.91386 3.85729
# Velocity P-wave (km/s) = 7.23643 7.46254 7.35036
#
# Compressibility (1/GPa) = 0.01821615
#
# Stress axis : x y z
#
# Youngs Moduli (GPa) = 70.06862 57.31233 66.36012
#
# Poissons Ratio (x) = 0.39911 0.35248
# Poissons Ratio (y) = 0.48794 0.13346
# Poissons Ratio (z) = 0.37218 0.11527
#
# Static dielectric constant tensor:
#      x y z
#    x 3.209600 0.000000 0.000000 
#    y 0.000000 3.073400 0.000000 
#    z 0.000000 0.000000 3.071530 
# 
# 
# High freq. dielectric constant tensor:
#      x y z
#    x 1.638750 0.000000 0.000000 
#    y 0.000000 1.633640 0.000000 
#    z 0.000000 0.000000 1.629760 
# 
# From -- ./inp_files/58311.got.cif
#   From: 2010.03.12/outbox.cif.g09.slc.cpg/sg63_30_cif.got.tgz:58311.got - 2010.04.10 19:34:48.
