data_PCOD8259555
_publ_section_title
;
Structure prediction by ZEFSAII (Michael W. Deem and Ramdas Pophale) SiO2 
 PCOD8259555
Probable space group: C M C M
;
_chemical_formula_sum "Si O2"
_cell_formula_units_Z 64
_cell_length_a 7.548088
_cell_length_b 23.766871
_cell_length_c 17.786640
_cell_angle_alpha 90.000000
_cell_angle_beta 90.000000
_cell_angle_gamma 90.000000
_cell_volume 3190.824212
_symmetry_space_group_name_H-M "C M C M"
_symmetry_group_IT_number 63
_symmetry_cell_setting 'orthorhombic'
loop_
_space_group_symop_operation_xyz
x,y,z
-x,-y,1/2+z
x,-y,-z
-x,y,1/2-z
-x,-y,-z
x,y,1/2-z
-x,y,z
x,-y,1/2+z
1/2+x,1/2+y,z
1/2-x,1/2-y,1/2+z
1/2+x,1/2-y,-z
1/2-x,1/2+y,1/2-z
1/2-x,1/2-y,-z
1/2+x,1/2+y,1/2-z
1/2-x,1/2+y,z
1/2+x,1/2-y,1/2+z
loop_
_atom_site_type_symbol
_atom_site_label
_atom_site_fract_x
_atom_site_fract_y
_atom_site_fract_z
Si Si1 0.802995 0.868360 0.913101
Si Si2 0.500000 0.937570 0.662848
Si Si3 0.207000 0.743489 0.163899
Si Si4 0.500000 0.930337 0.162835
Si Si5 0.292949 0.640973 0.585923
O O1 0.675111 0.912679 0.874322
O O2 0.808691 0.809109 0.870545
O O3 0.000000 0.894325 0.910249
O O4 0.743494 0.858200 0.998498
O O5 0.500000 0.920823 0.750000
O O6 0.500000 0.003498 0.649346
O O7 0.264067 0.751810 0.250000
O O8 0.263515 0.798929 0.119014
O O9 0.000000 0.730986 0.156139
O O10 0.500000 0.914464 0.250000
O O11 0.321206 0.906898 0.125943
O O12 0.500000 0.628507 0.601077
#
# Coordination Sequence:
#
# PCOD8259555 Si02
#       5
#    16   8  16   8  16
#     4  11  23  39  63  92 124 165 207 252 311 373
#     4  11  25  45  63  89 127 163 210 265 310 363
#     4  10  20  36  60  90 128 164 200 253 311 367
#     4  11  25  43  67  91 119 167 214 255 312 375
#     4  10  23  41  62  92 127 161 204 258 311 368
#
# _framework density 20.057514000000001
#
# number of rings (size 3 to 8) (size 9 to 14) (size 15 to 20)
#    0.000    1.500    1.250    3.000    1.750    6.500 
#    0.000    5.000    0.000    0.000    0.000    0.000 
#    0.000    0.000    0.000    0.000    0.000    0.000 
#
# Total GULP energy -396989.867621 kJ/mol
# GULP energy per Si atom -12405.933363 kJ/mol
# Density = 2.001186 g / cm^3
# Si number density = 20.057514 Si / 1000 Ang^3
#
#
#
# Elastic Constant Matrix: (Units=GPa)
#
#
# Indices 1 2 3 4 5 6 
#
# 1 91.7724 39.6633 39.3958 0.0000 0.0000 0.0000
# 2 39.6633 73.1405 36.4421 0.0000 0.0000 0.0000
# 3 39.3958 36.4421 110.8989 0.0000 0.0000 0.0000
# 4 0.0000 0.0000 0.0000 -83.0454 0.0000 0.0000
# 5 0.0000 0.0000 0.0000 0.0000 8.6276 0.0000
# 6 0.0000 0.0000 0.0000 0.0000 0.0000 46.0367
#
#
#
# Elastic Compliance Matrix: (Units=1/GPa)
#
#
# Indices 1 2 3 4 5 6 
#
# 1 0.015127 -0.006608 -0.003202 0.000000 0.000000 0.000000
# 2 -0.006608 0.019235 -0.003974 0.000000 0.000000 0.000000
# 3 -0.003202 -0.003974 0.011461 0.000000 0.000000 0.000000
# 4 0.000000 0.000000 0.000000 -0.012042 0.000000 0.000000
# 5 0.000000 0.000000 0.000000 0.000000 0.115907 0.000000
# 6 0.000000 0.000000 0.000000 0.000000 0.000000 0.021722
#
#
# Mechanical properties :
#
#
# Convention : Reuss Voigt Hill
#
# Bulk Modulus (GPa) = 54.77723 56.31268 55.54495
# Shear Modulus (GPa) = 24.38285 5.01115 14.69700
#
# Velocity S-wave (km/s) = 3.49040 1.58234 2.70986
# Velocity P-wave (km/s) = 6.60403 5.61026 6.12732
#
# Compressibility (1/GPa) = 0.01825576
#
# Stress axis : x y z
#
# Youngs Moduli (GPa) = 66.10697 51.98755 87.25549
#
# Poissons Ratio (x) = 0.34351 0.27943
# Poissons Ratio (y) = 0.43681 0.34672
# Poissons Ratio (z) = 0.21170 0.20658
#
# Static dielectric constant tensor:
#      x y z
#    x 3.508860 0.000000 0.000000 
#    y 0.000000 3.516490 0.000000 
#    z 0.000000 0.000000 3.874380 
# 
# 
# High freq. dielectric constant tensor:
#      x y z
#    x 1.793130 0.000000 0.000000 
#    y 0.000000 1.776980 0.000000 
#    z 0.000000 0.000000 1.802580 
# 
# From -- ./inp_files/27531.got.cif
#   From: 2010.03.12/outbox.cif.g09.slc.cpg/sg63_14_cif.got.tgz:27531.got - 2010.04.10 19:34:48.
