data_PCOD8259932
_publ_section_title
;
Structure prediction by ZEFSAII (Michael W. Deem and Ramdas Pophale) SiO2 
 PCOD8259932
Probable space group: C M C M
;
_chemical_formula_sum "Si O2"
_cell_formula_units_Z 96
_cell_length_a 8.741466
_cell_length_b 23.436948
_cell_length_c 25.178483
_cell_angle_alpha 90.000000
_cell_angle_beta 90.000000
_cell_angle_gamma 90.000000
_cell_volume 5158.398501
_symmetry_space_group_name_H-M "C M C M"
_symmetry_group_IT_number 63
_symmetry_cell_setting 'orthorhombic'
loop_
_space_group_symop_operation_xyz
x,y,z
-x,-y,1/2+z
x,-y,-z
-x,y,1/2-z
-x,-y,-z
x,y,1/2-z
-x,y,z
x,-y,1/2+z
1/2+x,1/2+y,z
1/2-x,1/2-y,1/2+z
1/2+x,1/2-y,-z
1/2-x,1/2+y,1/2-z
1/2-x,1/2-y,-z
1/2+x,1/2+y,1/2-z
1/2-x,1/2+y,z
1/2+x,1/2-y,1/2+z
loop_
_atom_site_type_symbol
_atom_site_label
_atom_site_fract_x
_atom_site_fract_y
_atom_site_fract_z
Si Si1 0.175271 0.431764 0.688387
Si Si2 0.676459 0.565472 0.502048
Si Si3 0.319751 0.864652 0.405255
Si Si4 0.179387 0.249424 0.941777
Si Si5 0.681921 0.059943 0.808595
Si Si6 0.324210 0.361054 0.600226
O O1 0.189553 0.415873 0.750000
O O2 0.237896 0.495848 0.678152
O O3 0.279715 0.387712 0.656505
O O4 0.000000 0.426334 0.669231
O O5 0.727498 0.500000 0.500000
O O6 0.500000 0.571957 0.519581
O O7 0.782905 0.597732 0.543513
O O8 0.706022 0.591688 0.444447
O O9 0.500000 0.855129 0.402116
O O10 0.238915 0.803799 0.407914
O O11 0.255649 0.896364 0.352679
O O12 0.220419 0.306199 0.910063
O O13 0.000000 0.243923 0.948886
O O14 0.250000 0.250000 0.000000
O O15 0.741781 0.078455 0.750000
O O16 0.500000 0.059100 0.808337
O O17 0.500000 0.341546 0.601129
#
# Coordination Sequence:
#
# PCOD8259932 Si02
#       6
#    16  16  16  16  16  16
#     4   9  18  35  59  85 115 151 188 230 279 328
#     4  10  21  35  52  78 114 149 180 227 286 338
#     4  11  21  34  57  85 111 146 190 233 281 338
#     4  12  24  40  59  79 109 149 190 235 284 339
#     4   8  16  33  57  85 116 149 186 228 275 330
#     4  11  22  36  56  82 113 149 188 230 280 338
#
# _framework density 18.610427999999999
#
# number of rings (size 3 to 8) (size 9 to 14) (size 15 to 20)
#    0.000    1.833    1.667    4.500    0.000    1.333 
#    0.000    1.667    0.000    7.000    0.000    0.000 
#    0.000    0.000    0.000    0.000    0.000    0.000 
#
# Total GULP energy -595352.720235 kJ/mol
# GULP energy per Si atom -12403.181672 kJ/mol
# Density = 1.856807 g / cm^3
# Si number density = 18.610428 Si / 1000 Ang^3
#
#
#
# Elastic Constant Matrix: (Units=GPa)
#
#
# Indices 1 2 3 4 5 6 
#
# 1 76.7221 35.7445 32.2422 0.0000 0.0000 0.0000
# 2 35.7445 127.4836 51.2073 0.0000 0.0000 0.0000
# 3 32.2422 51.2073 100.6675 0.0000 0.0000 0.0000
# 4 0.0000 0.0000 0.0000 27.1649 0.0000 0.0000
# 5 0.0000 0.0000 0.0000 0.0000 0.0923 0.0000
# 6 0.0000 0.0000 0.0000 0.0000 0.0000 29.0789
#
#
#
# Elastic Compliance Matrix: (Units=1/GPa)
#
#
# Indices 1 2 3 4 5 6 
#
# 1 0.015947 -0.003041 -0.003561 0.000000 0.000000 0.000000
# 2 -0.003041 0.010438 -0.004336 0.000000 0.000000 0.000000
# 3 -0.003561 -0.004336 0.013280 0.000000 0.000000 0.000000
# 4 0.000000 0.000000 0.000000 0.036812 0.000000 0.000000
# 5 0.000000 0.000000 0.000000 0.000000 10.830790 0.000000
# 6 0.000000 0.000000 0.000000 0.000000 0.000000 0.034389
#
#
# Mechanical properties :
#
#
# Convention : Reuss Voigt Hill
#
# Bulk Modulus (GPa) = 56.21091 60.36235 58.28663
# Shear Modulus (GPa) = 0.45581 23.64585 12.05083
#
# Velocity S-wave (km/s) = 0.49543 3.56837 2.54742
# Velocity P-wave (km/s) = 5.53144 7.03440 6.32770
#
# Compressibility (1/GPa) = 0.01779014
#
# Stress axis : x y z
#
# Youngs Moduli (GPa) = 62.70659 95.80006 75.30331
#
# Poissons Ratio (x) = 0.29134 0.26813
# Poissons Ratio (y) = 0.19070 0.32650
# Poissons Ratio (z) = 0.22328 0.41537
#
# Static dielectric constant tensor:
#      x y z
#    x 3.306050 0.000000 0.000000 
#    y 0.000000 3.608780 0.000000 
#    z 0.000000 0.000000 3.560090 
# 
# 
# High freq. dielectric constant tensor:
#      x y z
#    x 1.712060 0.000000 0.000000 
#    y 0.000000 1.727070 0.000000 
#    z 0.000000 0.000000 1.722010 
# 
# From -- ./inp_files/59904.got.cif
#   From: 2010.03.12/outbox.cif.g09.slc.cpg/sg63_30_cif.got.tgz:59904.got - 2010.04.10 19:34:48.
