data_PCOD8259001
_publ_section_title
;
Structure prediction by ZEFSAII (Michael W. Deem and Ramdas Pophale) SiO2 
 PCOD8259001
Probable space group: C M C M
;
_chemical_formula_sum "Si O2"
_cell_formula_units_Z 80
_cell_length_a 17.592843
_cell_length_b 9.697908
_cell_length_c 23.293656
_cell_angle_alpha 90.000000
_cell_angle_beta 90.000000
_cell_angle_gamma 90.000000
_cell_volume 3974.218534
_symmetry_space_group_name_H-M "C M C M"
_symmetry_group_IT_number 63
_symmetry_cell_setting 'orthorhombic'
loop_
_space_group_symop_operation_xyz
x,y,z
-x,-y,1/2+z
x,-y,-z
-x,y,1/2-z
-x,-y,-z
x,y,1/2-z
-x,y,z
x,-y,1/2+z
1/2+x,1/2+y,z
1/2-x,1/2-y,1/2+z
1/2+x,1/2-y,-z
1/2-x,1/2+y,1/2-z
1/2-x,1/2-y,-z
1/2+x,1/2+y,1/2-z
1/2-x,1/2+y,z
1/2+x,1/2-y,1/2+z
loop_
_atom_site_type_symbol
_atom_site_label
_atom_site_fract_x
_atom_site_fract_y
_atom_site_fract_z
Si Si1 0.413768 0.189633 0.448864
Si Si2 0.213306 0.847270 0.386044
Si Si3 0.414847 0.077132 0.812686
Si Si4 0.263938 0.911779 0.814483
Si Si5 0.630542 0.125770 0.930302
O O1 0.500000 0.210448 0.429014
O O2 0.364943 0.306649 0.416796
O O3 0.408848 0.208263 0.518009
O O4 0.384844 0.037966 0.433511
O O5 0.238978 0.744038 0.335816
O O6 0.279056 0.850135 0.434532
O O7 0.209329 0.995893 0.355148
O O8 0.405608 0.152287 0.750000
O O9 0.500000 0.013575 0.816760
O O10 0.401523 0.177623 0.867907
O O11 0.352298 0.957026 0.817670
O O12 0.232131 0.917825 0.750000
#
# Coordination Sequence:
#
# PCOD8259001 Si02
#       5
#    16  16  16  16  16
#     4  11  21  36  60  88 118 157 202 246 291 348
#     4  11  20  37  58  89 120 152 200 245 292 355
#     4   9  16  29  51  80 111 143 189 243 286 332
#     4  10  21  35  57  86 119 158 196 242 295 355
#     4  10  20  34  55  86 119 153 195 246 290 345
#
# _framework density 20.129743999999999
#
# number of rings (size 3 to 8) (size 9 to 14) (size 15 to 20)
#    0.000    1.800    4.000    3.600    0.000    0.800 
#    0.000    0.000    0.000   10.200    0.000    0.000 
#    0.000    0.000    0.000    0.000    0.000    0.000 
#
# Total GULP energy -495638.047399 kJ/mol
# GULP energy per Si atom -12390.951185 kJ/mol
# Density = 2.008393 g / cm^3
# Si number density = 20.129744 Si / 1000 Ang^3
#
#
#
# Elastic Constant Matrix: (Units=GPa)
#
#
# Indices 1 2 3 4 5 6 
#
# 1 134.5752 14.6669 30.1460 0.0000 0.0000 0.0000
# 2 14.6669 26.5835 12.8058 0.0000 0.0000 0.0000
# 3 30.1460 12.8058 135.9538 0.0000 0.0000 0.0000
# 4 0.0000 0.0000 0.0000 18.9339 0.0000 0.0000
# 5 0.0000 0.0000 0.0000 0.0000 27.7202 0.0000
# 6 0.0000 0.0000 0.0000 0.0000 0.0000 17.4995
#
#
#
# Elastic Compliance Matrix: (Units=1/GPa)
#
#
# Indices 1 2 3 4 5 6 
#
# 1 0.008171 -0.003808 -0.001453 0.000000 0.000000 0.000000
# 2 -0.003808 0.041180 -0.003034 0.000000 0.000000 0.000000
# 3 -0.001453 -0.003034 0.007963 0.000000 0.000000 0.000000
# 4 0.000000 0.000000 0.000000 0.052815 0.000000 0.000000
# 5 0.000000 0.000000 0.000000 0.000000 0.036075 0.000000
# 6 0.000000 0.000000 0.000000 0.000000 0.000000 0.057144
#
#
# Mechanical properties :
#
#
# Convention : Reuss Voigt Hill
#
# Bulk Modulus (GPa) = 24.55602 45.81665 35.18633
# Shear Modulus (GPa) = 21.41182 28.79697 25.10439
#
# Velocity S-wave (km/s) = 3.26496 3.78639 3.53530
# Velocity P-wave (km/s) = 5.14186 6.47501 5.84656
#
# Compressibility (1/GPa) = 0.04072321
#
# Stress axis : x y z
#
# Youngs Moduli (GPa) = 122.37844 24.28348 125.57319
#
# Poissons Ratio (x) = 0.09248 0.18248
# Poissons Ratio (y) = 0.46606 0.38104
# Poissons Ratio (z) = 0.17784 0.07369
#
# Static dielectric constant tensor:
#      x y z
#    x 3.697570 0.000000 0.000000 
#    y 0.000000 3.141570 0.000000 
#    z 0.000000 0.000000 4.415810 
# 
# 
# High freq. dielectric constant tensor:
#      x y z
#    x 1.782490 0.000000 0.000000 
#    y 0.000000 1.724480 0.000000 
#    z 0.000000 0.000000 1.816850 
# 
# From -- ./inp_files/69744.got.cif
#   From: 2010.03.12/outbox.cif.g09.slc.cpg/sg63_35_cif.got.tgz:69744.got - 2010.04.10 19:34:48.
