data_PCOD8259732
_publ_section_title
;
Structure prediction by ZEFSAII (Michael W. Deem and Ramdas Pophale) SiO2 
 PCOD8259732
Probable space group: C M C M
;
_chemical_formula_sum "Si O2"
_cell_formula_units_Z 104
_cell_length_a 11.843553
_cell_length_b 18.860938
_cell_length_c 24.291068
_cell_angle_alpha 90.000000
_cell_angle_beta 90.000000
_cell_angle_gamma 90.000000
_cell_volume 5426.151373
_symmetry_space_group_name_H-M "C M C M"
_symmetry_group_IT_number 63
_symmetry_cell_setting 'orthorhombic'
loop_
_space_group_symop_operation_xyz
x,y,z
-x,-y,1/2+z
x,-y,-z
-x,y,1/2-z
-x,-y,-z
x,y,1/2-z
-x,y,z
x,-y,1/2+z
1/2+x,1/2+y,z
1/2-x,1/2-y,1/2+z
1/2+x,1/2-y,-z
1/2-x,1/2+y,1/2-z
1/2-x,1/2-y,-z
1/2+x,1/2+y,1/2-z
1/2-x,1/2+y,z
1/2+x,1/2-y,1/2+z
loop_
_atom_site_type_symbol
_atom_site_label
_atom_site_fract_x
_atom_site_fract_y
_atom_site_fract_z
Si Si1 0.370006 0.493345 0.120025
Si Si2 0.000000 0.457724 0.138409
Si Si3 0.369362 0.621266 0.529312
Si Si4 0.500000 0.096060 0.068865
Si Si5 0.251179 0.129695 0.414198
Si Si6 0.786114 0.401997 0.313337
Si Si7 0.000000 0.654340 0.548224
Si Si8 0.787558 0.712610 0.595878
O O1 0.500000 0.511780 0.130194
O O2 0.352625 0.452775 0.061910
O O3 0.299044 0.565921 0.122021
O O4 0.328105 0.441964 0.168740
O O5 0.111457 0.457657 0.176330
O O6 0.000000 0.516973 0.091604
O O7 0.000000 0.385629 0.105405
O O8 0.500000 0.633271 0.513430
O O9 0.291827 0.616826 0.475915
O O10 0.328643 0.686970 0.567055
O O11 0.613322 0.133236 0.090409
O O12 0.500000 0.099897 0.002620
O O13 0.211517 0.204548 0.389659
O O14 0.778501 0.380397 0.250000
O O15 0.804770 0.329697 0.347346
O O16 0.113363 0.701570 0.550254
#
# Coordination Sequence:
#
# PCOD8259732 Si02
#       8
#    16   8  16   8  16  16   8  16
#     4  10  22  39  58  87 115 150 195 242 286 340
#     4  10  20  38  60  90 114 147 189 241 290 339
#     4  10  21  36  57  81 119 163 194 224 277 342
#     4  12  23  33  59  88 122 156 185 228 286 342
#     4  12  23  35  56  85 125 156 189 230 287 346
#     4  10  21  42  66  82 106 146 199 249 295 342
#     4  10  21  35  55  86 123 156 197 226 272 344
#     4  10  23  36  55  87 117 155 195 237 282 343
#
# _framework density 19.166437999999999
#
# number of rings (size 3 to 8) (size 9 to 14) (size 15 to 20)
#    0.000    1.538    3.077    1.846    3.231    2.769 
#    0.000    0.769    0.000    0.000    0.000    0.000 
#    0.000    0.000    0.000    0.000    0.000    0.000 
#
# Total GULP energy -644668.644046 kJ/mol
# GULP energy per Si atom -12397.473924 kJ/mol
# Density = 1.912281 g / cm^3
# Si number density = 19.166438 Si / 1000 Ang^3
#
#
#
# Elastic Constant Matrix: (Units=GPa)
#
#
# Indices 1 2 3 4 5 6 
#
# 1 135.1232 47.2568 38.8176 0.0000 0.0000 0.0000
# 2 47.2568 119.4601 34.8528 0.0000 0.0000 0.0000
# 3 38.8176 34.8528 79.0842 0.0000 0.0000 0.0000
# 4 0.0000 0.0000 0.0000 12.2737 0.0000 0.0000
# 5 0.0000 0.0000 0.0000 0.0000 18.1888 0.0000
# 6 0.0000 0.0000 0.0000 0.0000 0.0000 21.1698
#
#
#
# Elastic Compliance Matrix: (Units=1/GPa)
#
#
# Indices 1 2 3 4 5 6 
#
# 1 0.009316 -0.002698 -0.003384 0.000000 0.000000 0.000000
# 2 -0.002698 0.010388 -0.003253 0.000000 0.000000 0.000000
# 3 -0.003384 -0.003253 0.015739 0.000000 0.000000 0.000000
# 4 0.000000 0.000000 0.000000 0.081475 0.000000 0.000000
# 5 0.000000 0.000000 0.000000 0.000000 0.054979 0.000000
# 6 0.000000 0.000000 0.000000 0.000000 0.000000 0.047237
#
#
# Mechanical properties :
#
#
# Convention : Reuss Voigt Hill
#
# Bulk Modulus (GPa) = 59.62115 63.94687 61.78401
# Shear Modulus (GPa) = 20.54260 24.50912 22.52586
#
# Velocity S-wave (km/s) = 3.27739 3.57984 3.43195
# Velocity P-wave (km/s) = 6.74509 7.10799 6.92892
#
# Compressibility (1/GPa) = 0.01677257
#
# Stress axis : x y z
#
# Youngs Moduli (GPa) = 107.33792 96.26880 63.53472
#
# Poissons Ratio (x) = 0.25975 0.21498
# Poissons Ratio (y) = 0.28962 0.20671
# Poissons Ratio (z) = 0.36320 0.31321
#
# Static dielectric constant tensor:
#      x y z
#    x 3.944620 0.000000 0.000000 
#    y 0.000000 3.390800 0.000000 
#    z 0.000000 0.000000 3.094550 
# 
# 
# High freq. dielectric constant tensor:
#      x y z
#    x 1.765040 0.000000 0.000000 
#    y 0.000000 1.739280 0.000000 
#    z 0.000000 0.000000 1.704410 
# 
# From -- ./inp_files/68476.got.cif
#   From: 2010.03.12/outbox.cif.g09.slc.cpg/sg63_35_cif.got.tgz:68476.got - 2010.04.10 19:34:48.
