data_PCOD8259318
_publ_section_title
;
Structure prediction by ZEFSAII (Michael W. Deem and Ramdas Pophale) SiO2 
 PCOD8259318
Probable space group: C M C M
;
_chemical_formula_sum "Si O2"
_cell_formula_units_Z 88
_cell_length_a 17.322371
_cell_length_b 31.458843
_cell_length_c 8.163081
_cell_angle_alpha 90.000000
_cell_angle_beta 90.000000
_cell_angle_gamma 90.000000
_cell_volume 4448.403643
_symmetry_space_group_name_H-M "C M C M"
_symmetry_group_IT_number 63
_symmetry_cell_setting 'orthorhombic'
loop_
_space_group_symop_operation_xyz
x,y,z
-x,-y,1/2+z
x,-y,-z
-x,y,1/2-z
-x,-y,-z
x,y,1/2-z
-x,y,z
x,-y,1/2+z
1/2+x,1/2+y,z
1/2-x,1/2-y,1/2+z
1/2+x,1/2-y,-z
1/2-x,1/2+y,1/2-z
1/2-x,1/2-y,-z
1/2+x,1/2+y,1/2-z
1/2-x,1/2+y,z
1/2+x,1/2-y,1/2+z
loop_
_atom_site_type_symbol
_atom_site_label
_atom_site_fract_x
_atom_site_fract_y
_atom_site_fract_z
Si Si1 0.092166 0.920014 0.250000
Si Si2 0.776497 0.953584 0.429849
Si Si3 0.586331 0.326704 0.250000
Si Si4 0.353930 0.717187 0.431930
Si Si5 0.678309 0.805544 0.937651
Si Si6 0.500000 0.951295 0.944632
Si Si7 0.645504 0.898666 0.560448
O O1 0.132178 0.940885 0.087303
O O2 0.127661 0.872253 0.250000
O O3 0.000000 0.927159 0.250000
O O4 0.737381 0.953176 0.250000
O O5 0.728348 0.921024 0.539889
O O6 0.769846 0.000000 0.500000
O O7 0.500000 0.342135 0.250000
O O8 0.598246 0.300787 0.416586
O O9 0.388391 0.706636 0.250000
O O10 0.354549 0.768230 0.448517
O O11 0.270418 0.696242 0.446604
O O12 0.651089 0.798683 0.750000
O O13 0.649155 0.850630 0.011901
O O14 0.500000 0.950879 0.750000
O O15 0.424310 0.926757 0.015608
O O16 0.500000 0.000000 0.000000
O O17 0.629190 0.893024 0.750000
#
# Coordination Sequence:
#
# PCOD8259318 Si02
#       7
#     8  16   8  16  16   8  16
#     4   9  22  40  62  88 117 153 191 241 306 380
#     4  10  21  36  59  87 113 151 192 245 296 359
#     4  11  22  40  60  83 119 161 199 240 302 358
#     4  10  20  35  59  88 118 158 202 250 299 364
#     4   9  18  34  56  87 118 151 199 250 304 356
#     4  10  22  38  56  80 112 162 202 252 306 358
#     4  10  20  36  58  85 119 158 204 250 295 358
#
# _framework density 19.782377
#
# number of rings (size 3 to 8) (size 9 to 14) (size 15 to 20)
#    0.545    1.636    0.909    2.182    1.273    3.636 
#    1.636    0.909    0.000    2.182    0.000    0.000 
#    0.000    0.000    0.000    0.000    0.000    0.000 
#
# Total GULP energy -545079.303399 kJ/mol
# GULP energy per Si atom -12388.165986 kJ/mol
# Density = 1.973735 g / cm^3
# Si number density = 19.782377 Si / 1000 Ang^3
#
#
#
# Elastic Constant Matrix: (Units=GPa)
#
#
# Indices 1 2 3 4 5 6 
#
# 1 69.7221 24.7721 6.5270 0.0000 0.0000 0.0000
# 2 24.7721 134.3799 22.3917 0.0000 0.0000 0.0000
# 3 6.5270 22.3917 70.4037 0.0000 0.0000 0.0000
# 4 0.0000 0.0000 0.0000 18.8581 0.0000 0.0000
# 5 0.0000 0.0000 0.0000 0.0000 19.1674 0.0000
# 6 0.0000 0.0000 0.0000 0.0000 0.0000 39.8155
#
#
#
# Elastic Compliance Matrix: (Units=1/GPa)
#
#
# Indices 1 2 3 4 5 6 
#
# 1 0.015368 -0.002741 -0.000553 0.000000 0.000000 0.000000
# 2 -0.002741 0.008347 -0.002401 0.000000 0.000000 0.000000
# 3 -0.000553 -0.002401 0.015019 0.000000 0.000000 0.000000
# 4 0.000000 0.000000 0.000000 0.053027 0.000000 0.000000
# 5 0.000000 0.000000 0.000000 0.000000 0.052172 0.000000
# 6 0.000000 0.000000 0.000000 0.000000 0.000000 0.025116
#
#
# Mechanical properties :
#
#
# Convention : Reuss Voigt Hill
#
# Bulk Modulus (GPa) = 36.57022 42.43194 39.50108
# Shear Modulus (GPa) = 26.37786 30.28920 28.33353
#
# Velocity S-wave (km/s) = 3.65554 3.91720 3.78863
# Velocity P-wave (km/s) = 6.02857 6.47728 6.25695
#
# Compressibility (1/GPa) = 0.02734465
#
# Stress axis : x y z
#
# Youngs Moduli (GPa) = 65.06920 119.80545 66.58424
#
# Poissons Ratio (x) = 0.32837 0.03682
# Poissons Ratio (y) = 0.17835 0.15984
# Poissons Ratio (z) = 0.03599 0.28760
#
# Static dielectric constant tensor:
#      x y z
#    x 3.490110 0.000000 0.000000 
#    y 0.000000 4.480000 0.000000 
#    z 0.000000 0.000000 3.761290 
# 
# 
# High freq. dielectric constant tensor:
#      x y z
#    x 1.747730 0.000000 0.000000 
#    y 0.000000 1.788190 0.000000 
#    z 0.000000 0.000000 1.757850 
# 
# From -- ./inp_files/6925.got.cif
#   From: 2010.03.12/outbox.cif.g09.slc.cpg/sg63_4_cif.got.tgz:6925.got - 2010.04.10 19:34:48.
