data_PCOD8259968
_publ_section_title
;
Structure prediction by ZEFSAII (Michael W. Deem and Ramdas Pophale) SiO2 
 PCOD8259968
Probable space group: C M C M
;
_chemical_formula_sum "Si O2"
_cell_formula_units_Z 64
_cell_length_a 29.536264
_cell_length_b 5.247200
_cell_length_c 20.767062
_cell_angle_alpha 90.000000
_cell_angle_beta 90.000000
_cell_angle_gamma 90.000000
_cell_volume 3218.535017
_symmetry_space_group_name_H-M "C M C M"
_symmetry_group_IT_number 63
_symmetry_cell_setting 'orthorhombic'
loop_
_space_group_symop_operation_xyz
x,y,z
-x,-y,1/2+z
x,-y,-z
-x,y,1/2-z
-x,-y,-z
x,y,1/2-z
-x,y,z
x,-y,1/2+z
1/2+x,1/2+y,z
1/2-x,1/2-y,1/2+z
1/2+x,1/2-y,-z
1/2-x,1/2+y,1/2-z
1/2-x,1/2-y,-z
1/2+x,1/2+y,1/2-z
1/2-x,1/2+y,z
1/2+x,1/2-y,1/2+z
loop_
_atom_site_type_symbol
_atom_site_label
_atom_site_fract_x
_atom_site_fract_y
_atom_site_fract_z
Si Si1 0.227143 0.510870 0.075000
Si Si2 0.405345 0.555881 0.177642
Si Si3 0.372293 0.067308 0.377241
Si Si4 0.448942 0.660787 0.562196
O O1 0.252808 0.753056 0.106816
O O2 0.173711 0.532096 0.084246
O O3 0.238398 0.500000 0.000000
O O4 0.425046 0.548250 0.250000
O O5 0.380255 0.822789 0.167192
O O6 0.445928 0.521242 0.125761
O O7 0.369903 0.321493 0.167284
O O8 0.413811 0.103886 0.428767
O O9 0.434146 0.500000 0.500000
O O10 0.500000 0.766385 0.555069
#
# Coordination Sequence:
#
# PCOD8259968 Si02
#       4
#    16  16  16  16
#     4  10  21  35  59  93 123 153 199 253 306 366
#     4  10  22  39  61  88 121 165 210 247 299 366
#     4  10  22  37  65  85 124 161 199 250 311 355
#     4   9  22  40  62  94 126 159 203 254 310 367
#
# _framework density 19.884823000000001
#
# number of rings (size 3 to 8) (size 9 to 14) (size 15 to 20)
#    1.500    0.750    0.000    2.250    3.500    2.500 
#    0.000    2.500    0.000   15.000    0.000    0.000 
#    0.000    0.000    0.000    0.000    0.000    0.000 
#
# Total GULP energy -396481.364826 kJ/mol
# GULP energy per Si atom -12390.042651 kJ/mol
# Density = 1.983956 g / cm^3
# Si number density = 19.884823 Si / 1000 Ang^3
#
#
#
# Elastic Constant Matrix: (Units=GPa)
#
#
# Indices 1 2 3 4 5 6 
#
# 1 117.5822 43.7068 16.9959 0.0000 0.0000 0.0000
# 2 43.7068 152.6662 29.0570 0.0000 0.0000 0.0000
# 3 16.9959 29.0570 87.2600 0.0000 0.0000 0.0000
# 4 0.0000 0.0000 0.0000 13.8360 0.0000 0.0000
# 5 0.0000 0.0000 0.0000 0.0000 9.7189 0.0000
# 6 0.0000 0.0000 0.0000 0.0000 0.0000 15.3601
#
#
#
# Elastic Compliance Matrix: (Units=1/GPa)
#
#
# Indices 1 2 3 4 5 6 
#
# 1 0.009602 -0.002555 -0.001019 0.000000 0.000000 0.000000
# 2 -0.002555 0.007673 -0.002058 0.000000 0.000000 0.000000
# 3 -0.001019 -0.002058 0.012344 0.000000 0.000000 0.000000
# 4 0.000000 0.000000 0.000000 0.072275 0.000000 0.000000
# 5 0.000000 0.000000 0.000000 0.000000 0.102892 0.000000
# 6 0.000000 0.000000 0.000000 0.000000 0.000000 0.065104
#
#
# Mechanical properties :
#
#
# Convention : Reuss Voigt Hill
#
# Bulk Modulus (GPa) = 54.48074 59.66974 57.07524
# Shear Modulus (GPa) = 17.40514 25.63293 21.51903
#
# Velocity S-wave (km/s) = 2.96175 3.59426 3.29322
# Velocity P-wave (km/s) = 6.25728 6.87733 6.57462
#
# Compressibility (1/GPa) = 0.01835511
#
# Stress axis : x y z
#
# Youngs Moduli (GPa) = 104.14820 130.32243 81.01303
#
# Poissons Ratio (x) = 0.33295 0.08258
# Poissons Ratio (y) = 0.26608 0.16669
# Poissons Ratio (z) = 0.10617 0.26814
#
# Static dielectric constant tensor:
#      x y z
#    x 3.261100 0.000000 0.000000 
#    y 0.000000 3.839670 0.000000 
#    z 0.000000 0.000000 3.324140 
# 
# 
# High freq. dielectric constant tensor:
#      x y z
#    x 1.754260 0.000000 0.000000 
#    y 0.000000 1.788500 0.000000 
#    z 0.000000 0.000000 1.751820 
# 
# From -- ./inp_files/49319.got.cif
#   From: 2010.03.12/outbox.cif.g09.slc.cpg/sg63_25_cif.got.tgz:49319.got - 2010.04.10 19:34:48.
