data_PCOD8259058
_publ_section_title
;
Structure prediction by ZEFSAII (Michael W. Deem and Ramdas Pophale) SiO2 
 PCOD8259058
Probable space group: C M C M
;
_chemical_formula_sum "Si O2"
_cell_formula_units_Z 96
_cell_length_a 15.290270
_cell_length_b 15.318769
_cell_length_c 22.020388
_cell_angle_alpha 90.000000
_cell_angle_beta 90.000000
_cell_angle_gamma 90.000000
_cell_volume 5157.793952
_symmetry_space_group_name_H-M "C M C M"
_symmetry_group_IT_number 63
_symmetry_cell_setting 'orthorhombic'
loop_
_space_group_symop_operation_xyz
x,y,z
-x,-y,1/2+z
x,-y,-z
-x,y,1/2-z
-x,-y,-z
x,y,1/2-z
-x,y,z
x,-y,1/2+z
1/2+x,1/2+y,z
1/2-x,1/2-y,1/2+z
1/2+x,1/2-y,-z
1/2-x,1/2+y,1/2-z
1/2-x,1/2-y,-z
1/2+x,1/2+y,1/2-z
1/2-x,1/2+y,z
1/2+x,1/2-y,1/2+z
loop_
_atom_site_type_symbol
_atom_site_label
_atom_site_fract_x
_atom_site_fract_y
_atom_site_fract_z
Si Si1 0.188067 0.219818 0.369795
Si Si2 0.099351 0.822556 0.505523
Si Si3 0.690981 0.057678 0.367294
Si Si4 0.250249 0.607372 0.571952
Si Si5 0.897247 0.712974 0.750000
Si Si6 0.603478 0.016120 0.750000
Si Si7 0.901610 0.626988 0.480574
O O1 0.124813 0.189961 0.424299
O O2 0.252980 0.142601 0.353033
O O3 0.243550 0.305385 0.387920
O O4 0.131845 0.237225 0.310275
O O5 0.165237 0.889415 0.472234
O O6 0.109044 0.730591 0.470969
O O7 0.000000 0.858223 0.501357
O O8 0.619971 0.078380 0.418616
O O9 0.756154 0.978308 0.386038
O O10 0.637033 0.033856 0.308428
O O11 0.162699 0.594384 0.532849
O O12 0.859691 0.614753 0.750000
O O13 0.000000 0.710210 0.750000
O O14 0.500000 0.015108 0.750000
O O15 0.000000 0.603690 0.501176
#
# Coordination Sequence:
#
# PCOD8259058 Si02
#       7
#    16  16  16  16   8   8  16
#     4  11  21  40  61  86 121 160 200 244 296 358
#     4  10  20  38  61  90 123 161 201 246 298 356
#     4  12  22  38  62  86 119 157 198 243 300 356
#     4  11  21  38  59  89 127 155 193 245 299 357
#     4  11  23  42  62  85 118 158 200 249 300 354
#     4  11  25  40  58  91 120 150 200 253 306 364
#     4  10  20  34  59  89 120 155 192 239 302 360
#
# _framework density 18.612608999999999
#
# number of rings (size 3 to 8) (size 9 to 14) (size 15 to 20)
#    0.000    1.167    5.000    3.000    0.000    2.667 
#    0.000    2.500    0.000    0.000    0.000    2.333 
#    0.000    0.000    0.000    0.000    0.000    0.000 
#
# Total GULP energy -595291.017687 kJ/mol
# GULP energy per Si atom -12401.896202 kJ/mol
# Density = 1.857025 g / cm^3
# Si number density = 18.612609 Si / 1000 Ang^3
#
#
#
# Elastic Constant Matrix: (Units=GPa)
#
#
# Indices 1 2 3 4 5 6 
#
# 1 102.9728 45.6103 40.2538 0.0000 0.0000 0.0000
# 2 45.6103 99.0493 53.9056 0.0000 0.0000 0.0000
# 3 40.2538 53.9056 110.5174 0.0000 0.0000 0.0000
# 4 0.0000 0.0000 0.0000 24.5291 0.0000 0.0000
# 5 0.0000 0.0000 0.0000 0.0000 22.3855 0.0000
# 6 0.0000 0.0000 0.0000 0.0000 0.0000 19.3959
#
#
#
# Elastic Compliance Matrix: (Units=1/GPa)
#
#
# Indices 1 2 3 4 5 6 
#
# 1 0.012652 -0.004517 -0.002405 0.000000 0.000000 0.000000
# 2 -0.004517 0.015357 -0.005845 0.000000 0.000000 0.000000
# 3 -0.002405 -0.005845 0.012775 0.000000 0.000000 0.000000
# 4 0.000000 0.000000 0.000000 0.040768 0.000000 0.000000
# 5 0.000000 0.000000 0.000000 0.000000 0.044672 0.000000
# 6 0.000000 0.000000 0.000000 0.000000 0.000000 0.051557
#
#
# Mechanical properties :
#
#
# Convention : Reuss Voigt Hill
#
# Bulk Modulus (GPa) = 65.57446 65.78656 65.68051
# Shear Modulus (GPa) = 23.99227 24.78008 24.38617
#
# Velocity S-wave (km/s) = 3.59421 3.65274 3.62359
# Velocity P-wave (km/s) = 7.24790 7.29465 7.27131
#
# Compressibility (1/GPa) = 0.01524984
#
# Stress axis : x y z
#
# Youngs Moduli (GPa) = 79.03681 65.11567 78.27525
#
# Poissons Ratio (x) = 0.29414 0.18826
# Poissons Ratio (y) = 0.35703 0.45754
# Poissons Ratio (z) = 0.19009 0.38062
#
# Static dielectric constant tensor:
#      x y z
#    x 3.395440 0.000000 0.000000 
#    y 0.000000 3.577030 0.000000 
#    z 0.000000 0.000000 3.338780 
# 
# 
# High freq. dielectric constant tensor:
#      x y z
#    x 1.716440 0.000000 0.000000 
#    y 0.000000 1.730980 0.000000 
#    z 0.000000 0.000000 1.717990 
# 
# From -- ./inp_files/54268.got.cif
#   From: 2010.03.12/outbox.cif.g09.slc.cpg/sg63_28_cif.got.tgz:54268.got - 2010.04.10 19:34:48.
