data_PCOD8259329
_publ_section_title
;
Structure prediction by ZEFSAII (Michael W. Deem and Ramdas Pophale) SiO2 
 PCOD8259329
Probable space group: C M C M
;
_chemical_formula_sum "Si O2"
_cell_formula_units_Z 112
_cell_length_a 14.711175
_cell_length_b 24.763949
_cell_length_c 14.387498
_cell_angle_alpha 90.000000
_cell_angle_beta 90.000000
_cell_angle_gamma 90.000000
_cell_volume 5241.463176
_symmetry_space_group_name_H-M "C M C M"
_symmetry_group_IT_number 63
_symmetry_cell_setting 'orthorhombic'
loop_
_space_group_symop_operation_xyz
x,y,z
-x,-y,1/2+z
x,-y,-z
-x,y,1/2-z
-x,-y,-z
x,y,1/2-z
-x,y,z
x,-y,1/2+z
1/2+x,1/2+y,z
1/2-x,1/2-y,1/2+z
1/2+x,1/2-y,-z
1/2-x,1/2+y,1/2-z
1/2-x,1/2-y,-z
1/2+x,1/2+y,1/2-z
1/2-x,1/2+y,z
1/2+x,1/2-y,1/2+z
loop_
_atom_site_type_symbol
_atom_site_label
_atom_site_fract_x
_atom_site_fract_y
_atom_site_fract_z
Si Si1 0.332160 0.671908 0.851321
Si Si2 0.895985 0.381304 0.555978
Si Si3 0.658800 0.099315 0.852261
Si Si4 0.599303 0.441172 0.648442
Si Si5 0.599544 0.665016 0.454269
Si Si6 0.270083 0.206470 0.355630
Si Si7 0.716997 0.014539 0.103501
O O1 0.379227 0.664205 0.750000
O O2 0.256720 0.626143 0.866216
O O3 0.288720 0.730690 0.856258
O O4 0.403995 0.667097 0.933932
O O5 0.899425 0.384203 0.442927
O O6 0.847559 0.326322 0.588895
O O7 0.844035 0.431188 0.605569
O O8 0.000000 0.380927 0.590993
O O9 0.618308 0.117200 0.750000
O O10 0.664236 0.034221 0.847346
O O11 0.593316 0.413727 0.750000
O O12 0.500000 0.468628 0.626448
O O13 0.622423 0.396211 0.572588
O O14 0.684014 0.481689 0.651085
O O15 0.500000 0.682279 0.417284
O O16 0.674390 0.703139 0.408908
O O17 0.263252 0.184230 0.250000
O O18 0.740260 0.000000 0.000000
#
# Coordination Sequence:
#
# PCOD8259329 Si02
#       7
#    16  16  16  16  16  16  16
#     4  10  22  42  64  89 125 169 212 252 306 372
#     4  11  24  41  64  92 123 162 215 272 323 373
#     4  10  21  39  64  90 124 169 209 252 314 380
#     4  10  20  35  59  91 124 159 201 252 308 366
#     4  11  21  36  63  95 124 158 200 248 313 374
#     4  11  23  42  66  90 125 164 208 266 317 369
#     4  10  20  37  61  89 126 165 207 258 310 370
#
# _framework density 21.368079000000002
#
# number of rings (size 3 to 8) (size 9 to 14) (size 15 to 20)
#    0.000    1.571    2.857    2.143    0.000    5.714 
#    0.000    2.143    0.000    3.429    0.000    0.000 
#    0.000    0.000    0.000    0.000    0.000    0.000 
#
# Total GULP energy -693952.430988 kJ/mol
# GULP energy per Si atom -12392.007696 kJ/mol
# Density = 2.131944 g / cm^3
# Si number density = 21.368079 Si / 1000 Ang^3
#
#
#
# Elastic Constant Matrix: (Units=GPa)
#
#
# Indices 1 2 3 4 5 6 
#
# 1 108.7349 17.1110 27.7474 0.0000 0.0000 0.0000
# 2 17.1110 63.3460 19.5143 0.0000 0.0000 0.0000
# 3 27.7474 19.5143 123.5703 0.0000 0.0000 0.0000
# 4 0.0000 0.0000 0.0000 20.7702 0.0000 0.0000
# 5 0.0000 0.0000 0.0000 0.0000 77.0788 0.0000
# 6 0.0000 0.0000 0.0000 0.0000 0.0000 5.3294
#
#
#
# Elastic Compliance Matrix: (Units=1/GPa)
#
#
# Indices 1 2 3 4 5 6 
#
# 1 0.010018 -0.002116 -0.001915 0.000000 0.000000 0.000000
# 2 -0.002116 0.017041 -0.002216 0.000000 0.000000 0.000000
# 3 -0.001915 -0.002216 0.008873 0.000000 0.000000 0.000000
# 4 0.000000 0.000000 0.000000 0.048146 0.000000 0.000000
# 5 0.000000 0.000000 0.000000 0.000000 0.012974 0.000000
# 6 0.000000 0.000000 0.000000 0.000000 0.000000 0.187637
#
#
# Mechanical properties :
#
#
# Convention : Reuss Voigt Hill
#
# Bulk Modulus (GPa) = 42.66809 47.15518 44.91163
# Shear Modulus (GPa) = 16.39369 36.05424 26.22397
#
# Velocity S-wave (km/s) = 2.77285 4.11213 3.50701
# Velocity P-wave (km/s) = 5.50119 6.68297 6.12067
#
# Compressibility (1/GPa) = 0.02343672
#
# Stress axis : x y z
#
# Youngs Moduli (GPa) = 99.81560 58.68360 112.70648
#
# Poissons Ratio (x) = 0.12418 0.21588
# Poissons Ratio (y) = 0.21122 0.24974
# Poissons Ratio (z) = 0.19119 0.13004
#
# Static dielectric constant tensor:
#      x y z
#    x 3.631700 0.000000 0.000000 
#    y 0.000000 3.841110 0.000000 
#    z 0.000000 0.000000 4.366430 
# 
# 
# High freq. dielectric constant tensor:
#      x y z
#    x 1.822390 0.000000 0.000000 
#    y 0.000000 1.825170 0.000000 
#    z 0.000000 0.000000 1.859180 
# 
# From -- ./inp_files/32359.got.cif
#   From: 2010.03.12/outbox.cif.g09.slc.cpg/sg63_17_cif.got.tgz:32359.got - 2010.04.10 19:34:48.
