data_PCOD8259084
_publ_section_title
;
Structure prediction by ZEFSAII (Michael W. Deem and Ramdas Pophale) SiO2 
 PCOD8259084
Probable space group: C M C M
;
_chemical_formula_sum "Si O2"
_cell_formula_units_Z 96
_cell_length_a 9.211213
_cell_length_b 19.651229
_cell_length_c 29.201593
_cell_angle_alpha 90.000000
_cell_angle_beta 90.000000
_cell_angle_gamma 90.000000
_cell_volume 5285.828708
_symmetry_space_group_name_H-M "C M C M"
_symmetry_group_IT_number 63
_symmetry_cell_setting 'orthorhombic'
loop_
_space_group_symop_operation_xyz
x,y,z
-x,-y,1/2+z
x,-y,-z
-x,y,1/2-z
-x,-y,-z
x,y,1/2-z
-x,y,z
x,-y,1/2+z
1/2+x,1/2+y,z
1/2-x,1/2-y,1/2+z
1/2+x,1/2-y,-z
1/2-x,1/2+y,1/2-z
1/2-x,1/2-y,-z
1/2+x,1/2+y,1/2-z
1/2-x,1/2+y,z
1/2+x,1/2-y,1/2+z
loop_
_atom_site_type_symbol
_atom_site_label
_atom_site_fract_x
_atom_site_fract_y
_atom_site_fract_z
Si Si1 0.170055 0.190430 0.525594
Si Si2 0.164688 0.426275 0.521560
Si Si3 0.169544 0.017285 0.303074
Si Si4 0.829390 0.762263 0.375255
Si Si5 0.827044 0.135698 0.699322
Si Si6 0.171151 0.608383 0.376410
O O1 0.250000 0.250000 0.500000
O O2 0.227050 0.118684 0.508095
O O3 0.208500 0.197425 0.578760
O O4 0.000000 0.196238 0.516188
O O5 0.176697 0.500000 0.500000
O O6 0.211982 0.425797 0.574858
O O7 0.000000 0.397816 0.517835
O O8 0.202524 0.034361 0.250000
O O9 0.256099 0.068387 0.335106
O O10 0.000000 0.025548 0.313475
O O11 0.222243 0.940473 0.314500
O O12 0.760138 0.807625 0.334581
O O13 0.766535 0.685665 0.375896
O O14 0.000000 0.756537 0.368417
O O15 0.769622 0.153443 0.750000
O O16 0.000000 0.137353 0.698430
O O17 0.000000 0.606865 0.368308
#
# Coordination Sequence:
#
# PCOD8259084 Si02
#       6
#    16  16  16  16  16  16
#     4  11  21  36  57  80 111 146 184 226 272 327
#     4  10  22  39  55  77 114 150 182 227 279 326
#     4   9  19  35  54  77 106 137 171 216 268 320
#     4   9  18  32  51  77 106 133 172 225 265 308
#     4   8  15  30  52  76 101 131 167 212 267 315
#     4  10  20  35  53  77 108 140 177 219 265 321
#
# _framework density 18.161769
#
# number of rings (size 3 to 8) (size 9 to 14) (size 15 to 20)
#    0.000    2.500    1.667    1.500    2.333    2.000 
#    0.000    1.667    0.000    1.000    0.000    0.000 
#    0.000    0.000    0.000    0.000    0.000    0.000 
#
# Total GULP energy -595086.504242 kJ/mol
# GULP energy per Si atom -12397.635505 kJ/mol
# Density = 1.812043 g / cm^3
# Si number density = 18.161769 Si / 1000 Ang^3
#
#
#
# Elastic Constant Matrix: (Units=GPa)
#
#
# Indices 1 2 3 4 5 6 
#
# 1 46.9108 43.6835 49.0812 0.0000 0.0000 0.0000
# 2 43.6835 117.8940 87.8365 0.0000 0.0000 0.0000
# 3 49.0812 87.8365 143.0561 0.0000 0.0000 0.0000
# 4 0.0000 0.0000 0.0000 44.3392 0.0000 0.0000
# 5 0.0000 0.0000 0.0000 0.0000 26.9180 0.0000
# 6 0.0000 0.0000 0.0000 0.0000 0.0000 19.4728
#
#
#
# Elastic Compliance Matrix: (Units=1/GPa)
#
#
# Indices 1 2 3 4 5 6 
#
# 1 0.036762 -0.007786 -0.007832 0.000000 0.000000 0.000000
# 2 -0.007786 0.017283 -0.007941 0.000000 0.000000 0.000000
# 3 -0.007832 -0.007941 0.014553 0.000000 0.000000 0.000000
# 4 0.000000 0.000000 0.000000 0.022553 0.000000 0.000000
# 5 0.000000 0.000000 0.000000 0.000000 0.037150 0.000000
# 6 0.000000 0.000000 0.000000 0.000000 0.000000 0.051354
#
#
# Mechanical properties :
#
#
# Convention : Reuss Voigt Hill
#
# Bulk Modulus (GPa) = 46.55374 74.34039 60.44706
# Shear Modulus (GPa) = 21.37365 26.62997 24.00181
#
# Velocity S-wave (km/s) = 3.43424 3.83334 3.63927
# Velocity P-wave (km/s) = 6.43536 7.78549 7.14240
#
# Compressibility (1/GPa) = 0.02148055
#
# Stress axis : x y z
#
# Youngs Moduli (GPa) = 27.20202 57.85893 68.71531
#
# Poissons Ratio (x) = 0.45051 0.53816
# Poissons Ratio (y) = 0.21181 0.54564
# Poissons Ratio (z) = 0.21304 0.45943
#
# Static dielectric constant tensor:
#      x y z
#    x 3.165670 0.000000 0.000000 
#    y 0.000000 3.716110 0.000000 
#    z 0.000000 0.000000 3.531180 
# 
# 
# High freq. dielectric constant tensor:
#      x y z
#    x 1.666990 0.000000 0.000000 
#    y 0.000000 1.712600 0.000000 
#    z 0.000000 0.000000 1.715850 
# 
# From -- ./inp_files/66889.got.cif
#   From: 2010.03.12/outbox.cif.g09.slc.cpg/sg63_34_cif.got.tgz:66889.got - 2010.04.10 19:34:48.
