data_PCOD8259108
_publ_section_title
;
Structure prediction by ZEFSAII (Michael W. Deem and Ramdas Pophale) SiO2 
 PCOD8259108
Probable space group: C M C M
;
_chemical_formula_sum "Si O2"
_cell_formula_units_Z 96
_cell_length_a 11.263086
_cell_length_b 22.821329
_cell_length_c 20.839690
_cell_angle_alpha 90.000000
_cell_angle_beta 90.000000
_cell_angle_gamma 90.000000
_cell_volume 5356.604558
_symmetry_space_group_name_H-M "C M C M"
_symmetry_group_IT_number 63
_symmetry_cell_setting 'orthorhombic'
loop_
_space_group_symop_operation_xyz
x,y,z
-x,-y,1/2+z
x,-y,-z
-x,y,1/2-z
-x,-y,-z
x,y,1/2-z
-x,y,z
x,-y,1/2+z
1/2+x,1/2+y,z
1/2-x,1/2-y,1/2+z
1/2+x,1/2-y,-z
1/2-x,1/2+y,1/2-z
1/2-x,1/2-y,-z
1/2+x,1/2+y,1/2-z
1/2-x,1/2+y,z
1/2+x,1/2-y,1/2+z
loop_
_atom_site_type_symbol
_atom_site_label
_atom_site_fract_x
_atom_site_fract_y
_atom_site_fract_z
Si Si1 0.862117 0.730421 0.079241
Si Si2 0.000000 0.998302 0.392123
Si Si3 0.745513 0.481974 0.825066
Si Si4 0.500000 0.596058 0.499708
Si Si5 0.632108 0.136506 0.176673
Si Si6 0.735524 0.657837 0.526634
Si Si7 0.637972 0.959018 0.441283
O O1 0.828853 0.697145 0.144356
O O2 0.792885 0.792070 0.079156
O O3 0.000000 0.744600 0.072424
O O4 0.825445 0.686021 0.023346
O O5 0.000000 0.937447 0.431544
O O6 0.886991 0.001602 0.345660
O O7 0.000000 0.051350 0.441309
O O8 0.766680 0.498647 0.750000
O O9 0.770456 0.413309 0.836622
O O10 0.838916 0.514428 0.871140
O O11 0.614591 0.637126 0.492509
O O12 0.625275 0.152424 0.250000
O O13 0.500000 0.116670 0.151947
O O14 0.796891 0.602879 0.559690
O O15 0.500000 0.948809 0.452190
O O16 0.687940 0.000000 0.500000
#
# Coordination Sequence:
#
# PCOD8259108 Si02
#       7
#    16   8  16   8  16  16  16
#     4  10  20  35  54  77 110 142 180 233 274 321
#     4  11  21  34  56  80 116 150 178 220 276 346
#     4  11  22  36  56  84 114 145 184 231 283 340
#     4  11  20  34  56  82 112 148 183 224 280 340
#     4   9  18  34  56  78 102 137 181 225 270 318
#     4  11  21  34  53  81 111 142 184 226 278 330
#     4  11  22  37  59  84 111 144 186 232 282 338
#
# _framework density 17.921800999999999
#
# number of rings (size 3 to 8) (size 9 to 14) (size 15 to 20)
#    0.000    1.500    2.500    4.250    0.000    3.667 
#    0.000    0.833    0.000    0.000    0.000    0.000 
#    0.000    0.000    0.000    0.000    0.000    0.000 
#
# Total GULP energy -595117.744436 kJ/mol
# GULP energy per Si atom -12398.286342 kJ/mol
# Density = 1.788101 g / cm^3
# Si number density = 17.921801 Si / 1000 Ang^3
#
#
#
# Elastic Constant Matrix: (Units=GPa)
#
#
# Indices 1 2 3 4 5 6 
#
# 1 59.0349 25.4935 26.2111 0.0000 0.0000 0.0000
# 2 25.4935 106.4189 49.7410 0.0000 0.0000 0.0000
# 3 26.2111 49.7410 88.2733 0.0000 0.0000 0.0000
# 4 0.0000 0.0000 0.0000 27.5273 0.0000 0.0000
# 5 0.0000 0.0000 0.0000 0.0000 20.1020 0.0000
# 6 0.0000 0.0000 0.0000 0.0000 0.0000 20.8793
#
#
#
# Elastic Compliance Matrix: (Units=1/GPa)
#
#
# Indices 1 2 3 4 5 6 
#
# 1 0.020086 -0.002748 -0.004416 0.000000 0.000000 0.000000
# 2 -0.002748 0.013133 -0.006584 0.000000 0.000000 0.000000
# 3 -0.004416 -0.006584 0.016350 0.000000 0.000000 0.000000
# 4 0.000000 0.000000 0.000000 0.036328 0.000000 0.000000
# 5 0.000000 0.000000 0.000000 0.000000 0.049746 0.000000
# 6 0.000000 0.000000 0.000000 0.000000 0.000000 0.047894
#
#
# Mechanical properties :
#
#
# Convention : Reuss Voigt Hill
#
# Bulk Modulus (GPa) = 45.30427 50.73536 48.01982
# Shear Modulus (GPa) = 22.89481 23.85384 23.37433
#
# Velocity S-wave (km/s) = 3.57807 3.65224 3.61534
# Velocity P-wave (km/s) = 6.51182 6.79381 6.65431
#
# Compressibility (1/GPa) = 0.02207297
#
# Stress axis : x y z
#
# Youngs Moduli (GPa) = 49.78500 76.14661 61.16308
#
# Poissons Ratio (x) = 0.20924 0.27009
# Poissons Ratio (y) = 0.13680 0.40271
# Poissons Ratio (z) = 0.21984 0.50136
#
# Static dielectric constant tensor:
#      x y z
#    x 3.468180 0.000000 0.000000 
#    y 0.000000 3.395340 0.000000 
#    z 0.000000 0.000000 3.322220 
# 
# 
# High freq. dielectric constant tensor:
#      x y z
#    x 1.704050 0.000000 0.000000 
#    y 0.000000 1.695510 0.000000 
#    z 0.000000 0.000000 1.681790 
# 
# From -- ./inp_files/52925.got.cif
#   From: 2010.03.12/outbox.cif.g09.slc.cpg/sg63_27_cif.got.tgz:52925.got - 2010.04.10 19:34:48.
