data_PCOD8259669
_publ_section_title
;
Structure prediction by ZEFSAII (Michael W. Deem and Ramdas Pophale) SiO2 
 PCOD8259669
Probable space group: C M C M
;
_chemical_formula_sum "Si O2"
_cell_formula_units_Z 96
_cell_length_a 8.531615
_cell_length_b 20.332226
_cell_length_c 28.096556
_cell_angle_alpha 90.000000
_cell_angle_beta 90.000000
_cell_angle_gamma 90.000000
_cell_volume 4873.817534
_symmetry_space_group_name_H-M "C M C M"
_symmetry_group_IT_number 63
_symmetry_cell_setting 'orthorhombic'
loop_
_space_group_symop_operation_xyz
x,y,z
-x,-y,1/2+z
x,-y,-z
-x,y,1/2-z
-x,-y,-z
x,y,1/2-z
-x,y,z
x,-y,1/2+z
1/2+x,1/2+y,z
1/2-x,1/2-y,1/2+z
1/2+x,1/2-y,-z
1/2-x,1/2+y,1/2-z
1/2-x,1/2-y,-z
1/2+x,1/2+y,1/2-z
1/2-x,1/2+y,z
1/2+x,1/2-y,1/2+z
loop_
_atom_site_type_symbol
_atom_site_label
_atom_site_fract_x
_atom_site_fract_y
_atom_site_fract_z
Si Si1 0.816739 0.999982 0.400223
Si Si2 0.680176 0.871431 0.942833
Si Si3 0.819765 0.251612 0.104620
Si Si4 0.819525 0.866628 0.455269
Si Si5 0.685995 0.448609 0.198300
Si Si6 0.182464 0.199974 0.696307
O O1 0.779538 0.931043 0.425105
O O2 0.758760 0.994927 0.345116
O O3 0.000000 0.017428 0.403672
O O4 0.717136 0.054924 0.426456
O O5 0.500000 0.855168 0.932779
O O6 0.787373 0.821747 0.913242
O O7 0.711186 0.864385 0.998652
O O8 0.711776 0.302886 0.076524
O O9 0.779710 0.254002 0.160632
O O10 0.000000 0.269204 0.095827
O O11 0.000000 0.866450 0.471491
O O12 0.744940 0.475750 0.250000
O O13 0.500000 0.444658 0.198258
O O14 0.747144 0.374387 0.190923
O O15 0.210618 0.225458 0.750000
O O16 0.000000 0.203544 0.682791
#
# Coordination Sequence:
#
# PCOD8259669 Si02
#       6
#    16  16  16  16  16  16
#     4  10  20  37  61  88 118 153 192 235 289 351
#     4  12  26  41  57  81 118 158 198 244 296 347
#     4  12  24  39  60  87 120 155 197 242 290 346
#     4  11  22  40  64  88 115 151 196 242 293 351
#     4   8  14  29  57  89 116 146 186 229 278 340
#     4   9  17  34  61  90 118 151 192 237 288 344
#
# _framework density 19.697087
#
# number of rings (size 3 to 8) (size 9 to 14) (size 15 to 20)
#    0.000    1.667    1.667    5.500    0.000    3.667 
#    0.000    0.833    0.000    3.500    0.000    0.000 
#    0.000    0.000    0.000    0.000    0.000    0.000 
#
# Total GULP energy -595295.042212 kJ/mol
# GULP energy per Si atom -12401.980046 kJ/mol
# Density = 1.965226 g / cm^3
# Si number density = 19.697087 Si / 1000 Ang^3
#
#
#
# Elastic Constant Matrix: (Units=GPa)
#
#
# Indices 1 2 3 4 5 6 
#
# 1 57.5828 21.1745 29.7238 0.0000 0.0000 0.0000
# 2 21.1745 64.7472 18.9871 0.0000 0.0000 0.0000
# 3 29.7238 18.9871 114.6213 0.0000 0.0000 0.0000
# 4 0.0000 0.0000 0.0000 -9.6068 0.0000 0.0000
# 5 0.0000 0.0000 0.0000 0.0000 26.4117 0.0000
# 6 0.0000 0.0000 0.0000 0.0000 0.0000 21.0953
#
#
#
# Elastic Compliance Matrix: (Units=1/GPa)
#
#
# Indices 1 2 3 4 5 6 
#
# 1 0.021936 -0.005787 -0.004730 0.000000 0.000000 0.000000
# 2 -0.005787 0.017760 -0.001441 0.000000 0.000000 0.000000
# 3 -0.004730 -0.001441 0.010190 0.000000 0.000000 0.000000
# 4 0.000000 0.000000 0.000000 -0.104093 0.000000 0.000000
# 5 0.000000 0.000000 0.000000 0.000000 0.037862 0.000000
# 6 0.000000 0.000000 0.000000 0.000000 0.000000 0.047404
#
#
# Mechanical properties :
#
#
# Convention : Reuss Voigt Hill
#
# Bulk Modulus (GPa) = 38.50667 41.85800 40.18233
# Shear Modulus (GPa) = 78.57890 18.71775 48.64833
#
# Velocity S-wave (km/s) = 6.32300 3.08601 4.97512
# Velocity P-wave (km/s) = 8.53808 5.83051 7.31074
#
# Compressibility (1/GPa) = 0.02596953
#
# Stress axis : x y z
#
# Youngs Moduli (GPa) = 45.58781 56.30699 98.13848
#
# Poissons Ratio (x) = 0.32583 0.46418
# Poissons Ratio (y) = 0.26380 0.14145
# Poissons Ratio (z) = 0.21562 0.08116
#
# Static dielectric constant tensor:
#      x y z
#    x 3.322600 0.000000 0.000000 
#    y 0.000000 3.380990 0.000000 
#    z 0.000000 0.000000 3.992330 
# 
# 
# High freq. dielectric constant tensor:
#      x y z
#    x 1.748910 0.000000 0.000000 
#    y 0.000000 1.748460 0.000000 
#    z 0.000000 0.000000 1.786290 
# 
# From -- ./inp_files/67004.got.cif
#   From: 2010.03.12/outbox.cif.g09.slc.cpg/sg63_34_cif.got.tgz:67004.got - 2010.04.10 19:34:48.
