data_PCOD8259489
_publ_section_title
;
Structure prediction by ZEFSAII (Michael W. Deem and Ramdas Pophale) SiO2 
 PCOD8259489
Probable space group: C M C M
;
_chemical_formula_sum "Si O2"
_cell_formula_units_Z 96
_cell_length_a 17.511894
_cell_length_b 11.221918
_cell_length_c 23.474182
_cell_angle_alpha 90.000000
_cell_angle_beta 90.000000
_cell_angle_gamma 90.000000
_cell_volume 4613.076728
_symmetry_space_group_name_H-M "C M C M"
_symmetry_group_IT_number 63
_symmetry_cell_setting 'orthorhombic'
loop_
_space_group_symop_operation_xyz
x,y,z
-x,-y,1/2+z
x,-y,-z
-x,y,1/2-z
-x,-y,-z
x,y,1/2-z
-x,y,z
x,-y,1/2+z
1/2+x,1/2+y,z
1/2-x,1/2-y,1/2+z
1/2+x,1/2-y,-z
1/2-x,1/2+y,1/2-z
1/2-x,1/2-y,-z
1/2+x,1/2+y,1/2-z
1/2-x,1/2+y,z
1/2+x,1/2-y,1/2+z
loop_
_atom_site_type_symbol
_atom_site_label
_atom_site_fract_x
_atom_site_fract_y
_atom_site_fract_z
Si Si1 0.660482 0.325566 0.188585
Si Si2 0.335919 0.867819 0.186168
Si Si3 0.671477 0.108071 0.114377
Si Si4 0.590663 0.775409 0.982957
Si Si5 0.155671 0.809807 0.592181
Si Si6 0.413219 0.552894 0.592406
O O1 0.619760 0.330785 0.250000
O O2 0.749658 0.334574 0.197083
O O3 0.637507 0.202678 0.158822
O O4 0.633569 0.436223 0.150920
O O5 0.373819 0.883712 0.250000
O O6 0.371080 0.756358 0.150637
O O7 0.339831 0.982847 0.145652
O O8 0.618959 0.116368 0.057729
O O9 0.758214 0.140704 0.096779
O O10 0.500000 0.787597 0.994518
O O11 0.613824 0.648346 0.954423
O O12 0.641336 0.783738 0.040659
O O13 0.099446 0.917187 0.573815
O O14 0.500000 0.578930 0.606327
#
# Coordination Sequence:
#
# PCOD8259489 Si02
#       6
#    16  16  16  16  16  16
#     4   9  18  33  55  82 113 149 192 241 287 336
#     4  10  21  37  58  85 116 152 194 241 288 338
#     4  10  20  37  59  86 113 153 198 239 286 345
#     4  10  22  40  61  85 117 154 194 242 294 349
#     4  11  21  36  58  90 119 151 193 237 294 352
#     4  10  20  36  58  86 119 153 191 239 298 350
#
# _framework density 20.810406
#
# number of rings (size 3 to 8) (size 9 to 14) (size 15 to 20)
#    0.000    2.000    1.667    2.000    0.000    3.667 
#    3.000    2.500    0.000    5.000    0.000    0.000 
#    0.000    0.000    0.000    0.000    0.000    0.000 
#
# Total GULP energy -594803.072909 kJ/mol
# GULP energy per Si atom -12391.730686 kJ/mol
# Density = 2.076304 g / cm^3
# Si number density = 20.810406 Si / 1000 Ang^3
#
#
#
# Elastic Constant Matrix: (Units=GPa)
#
#
# Indices 1 2 3 4 5 6 
#
# 1 41.7311 11.4369 33.4432 0.0000 0.0000 0.0000
# 2 11.4369 68.8066 26.0025 0.0000 0.0000 0.0000
# 3 33.4432 26.0025 142.7435 0.0000 0.0000 0.0000
# 4 0.0000 0.0000 0.0000 13.1899 0.0000 0.0000
# 5 0.0000 0.0000 0.0000 0.0000 -3.6107 0.0000
# 6 0.0000 0.0000 0.0000 0.0000 0.0000 23.1180
#
#
#
# Elastic Compliance Matrix: (Units=1/GPa)
#
#
# Indices 1 2 3 4 5 6 
#
# 1 0.029895 -0.002494 -0.006550 0.000000 0.000000 0.000000
# 2 -0.002494 0.015816 -0.002297 0.000000 0.000000 0.000000
# 3 -0.006550 -0.002297 0.008959 0.000000 0.000000 0.000000
# 4 0.000000 0.000000 0.000000 0.075815 0.000000 0.000000
# 5 0.000000 0.000000 0.000000 0.000000 -0.276953 0.000000
# 6 0.000000 0.000000 0.000000 0.000000 0.000000 0.043256
#
#
# Mechanical properties :
#
#
# Convention : Reuss Voigt Hill
#
# Bulk Modulus (GPa) = 31.26092 43.89404 37.57748
# Shear Modulus (GPa) = -71.56462 18.69935 -26.43264
#
# Velocity S-wave (km/s) = -5.87056 3.00085 -3.56780
# Velocity P-wave (km/s) = 5.55850 5.75716 1.06018
#
# Compressibility (1/GPa) = 0.03198882
#
# Stress axis : x y z
#
# Youngs Moduli (GPa) = 33.44988 63.22715 111.62561
#
# Poissons Ratio (x) = 0.15768 0.73113
# Poissons Ratio (y) = 0.08342 0.25638
# Poissons Ratio (z) = 0.21909 0.14522
#
# Static dielectric constant tensor:
#      x y z
#    x 3.425530 0.000000 0.000000 
#    y 0.000000 3.757080 0.000000 
#    z 0.000000 0.000000 4.527960 
# 
# 
# High freq. dielectric constant tensor:
#      x y z
#    x 1.782210 0.000000 0.000000 
#    y 0.000000 1.808540 0.000000 
#    z 0.000000 0.000000 1.832580 
# 
# From -- ./inp_files/63670.got.cif
#   From: 2010.03.12/outbox.cif.g09.slc.cpg/sg63_32_cif.got.tgz:63670.got - 2010.04.10 19:34:48.
