data_PCOD8259900
_publ_section_title
;
Structure prediction by ZEFSAII (Michael W. Deem and Ramdas Pophale) SiO2 
 PCOD8259900
Probable space group: C M C M
;
_chemical_formula_sum "Si O2"
_cell_formula_units_Z 64
_cell_length_a 15.849342
_cell_length_b 18.456780
_cell_length_c 11.797511
_cell_angle_alpha 90.000000
_cell_angle_beta 90.000000
_cell_angle_gamma 90.000000
_cell_volume 3451.100156
_symmetry_space_group_name_H-M "C M C M"
_symmetry_group_IT_number 63
_symmetry_cell_setting 'orthorhombic'
loop_
_space_group_symop_operation_xyz
x,y,z
-x,-y,1/2+z
x,-y,-z
-x,y,1/2-z
-x,-y,-z
x,y,1/2-z
-x,y,z
x,-y,1/2+z
1/2+x,1/2+y,z
1/2-x,1/2-y,1/2+z
1/2+x,1/2-y,-z
1/2-x,1/2+y,1/2-z
1/2-x,1/2-y,-z
1/2+x,1/2+y,1/2-z
1/2-x,1/2+y,z
1/2+x,1/2-y,1/2+z
loop_
_atom_site_type_symbol
_atom_site_label
_atom_site_fract_x
_atom_site_fract_y
_atom_site_fract_z
Si Si1 0.826598 0.694773 0.989328
Si Si2 0.095353 0.186919 0.878516
Si Si3 0.200759 0.082374 0.469494
Si Si4 0.902640 0.117164 0.250000
Si Si5 0.597091 0.789234 0.250000
O O1 0.855959 0.679935 0.860684
O O2 0.750000 0.750000 0.000000
O O3 0.900730 0.734522 0.059142
O O4 0.793544 0.619545 0.045015
O O5 0.124436 0.198828 0.750000
O O6 0.000000 0.158833 0.887792
O O7 0.153737 0.124524 0.929854
O O8 0.143816 0.085423 0.358486
O O9 0.216733 0.000000 0.500000
O O10 0.896462 0.203077 0.250000
O O11 0.000000 0.091645 0.250000
O O12 0.500000 0.814956 0.250000
#
# Coordination Sequence:
#
# PCOD8259900 Si02
#       5
#    16  16  16   8   8
#     4  10  21  34  60  81 114 145 191 240 279 329
#     4  10  21  36  57  84 114 147 188 236 284 334
#     4  11  25  37  55  85 120 154 186 227 286 345
#     4  11  22  37  58  84 116 154 192 229 279 343
#     4  11  20  37  62  86 108 146 200 245 281 331
#
# _framework density 18.544812
#
# number of rings (size 3 to 8) (size 9 to 14) (size 15 to 20)
#    0.000    1.500    5.000    1.500   10.500    2.000 
#    0.000    0.000    0.000    3.000    0.000    0.000 
#    0.000    0.000    0.000    0.000    0.000    0.000 
#
# Total GULP energy -396693.728937 kJ/mol
# GULP energy per Si atom -12396.679029 kJ/mol
# Density = 1.850260 g / cm^3
# Si number density = 18.544812 Si / 1000 Ang^3
#
#
#
# Elastic Constant Matrix: (Units=GPa)
#
#
# Indices 1 2 3 4 5 6 
#
# 1 65.6865 34.3086 26.5302 0.0000 0.0000 0.0000
# 2 34.3086 122.4822 32.6972 0.0000 0.0000 0.0000
# 3 26.5302 32.6972 118.6353 0.0000 0.0000 0.0000
# 4 0.0000 0.0000 0.0000 -1.2418 0.0000 0.0000
# 5 0.0000 0.0000 0.0000 0.0000 36.6605 0.0000
# 6 0.0000 0.0000 0.0000 0.0000 0.0000 19.0204
#
#
#
# Elastic Compliance Matrix: (Units=1/GPa)
#
#
# Indices 1 2 3 4 5 6 
#
# 1 0.018751 -0.004461 -0.002964 0.000000 0.000000 0.000000
# 2 -0.004461 0.009874 -0.001724 0.000000 0.000000 0.000000
# 3 -0.002964 -0.001724 0.009567 0.000000 0.000000 0.000000
# 4 0.000000 0.000000 0.000000 -0.805313 0.000000 0.000000
# 5 0.000000 0.000000 0.000000 0.000000 0.027277 0.000000
# 6 0.000000 0.000000 0.000000 0.000000 0.000000 0.052575
#
#
# Mechanical properties :
#
#
# Convention : Reuss Voigt Hill
#
# Bulk Modulus (GPa) = 50.26410 54.87510 52.56960
# Shear Modulus (GPa) = -7.54900 25.10570 8.77835
#
# Velocity S-wave (km/s) = -2.01978 3.68337 2.17804
# Velocity P-wave (km/s) = 4.66086 6.90974 5.89356
#
# Compressibility (1/GPa) = 0.01989492
#
# Stress axis : x y z
#
# Youngs Moduli (GPa) = 53.33065 101.27346 104.52537
#
# Poissons Ratio (x) = 0.45180 0.30978
# Poissons Ratio (y) = 0.23792 0.18018
# Poissons Ratio (z) = 0.15806 0.17458
#
# Static dielectric constant tensor:
#      x y z
#    x 3.800640 0.000000 0.000000 
#    y 0.000000 3.537370 0.000000 
#    z 0.000000 0.000000 3.630160 
# 
# 
# High freq. dielectric constant tensor:
#      x y z
#    x 1.720470 0.000000 0.000000 
#    y 0.000000 1.687690 0.000000 
#    z 0.000000 0.000000 1.731810 
# 
# From -- ./inp_files/18980.got.cif
#   From: 2010.03.12/outbox.cif.g09.slc.cpg/sg63_10_cif.got.tgz:18980.got - 2010.04.10 19:34:48.
