data_PCOD8259675
_publ_section_title
;
Structure prediction by ZEFSAII (Michael W. Deem and Ramdas Pophale) SiO2 
 PCOD8259675
Probable space group: C M C M
;
_chemical_formula_sum "Si O2"
_cell_formula_units_Z 72
_cell_length_a 14.327133
_cell_length_b 29.852489
_cell_length_c 8.677924
_cell_angle_alpha 90.000000
_cell_angle_beta 90.000000
_cell_angle_gamma 90.000000
_cell_volume 3711.553130
_symmetry_space_group_name_H-M "C M C M"
_symmetry_group_IT_number 63
_symmetry_cell_setting 'orthorhombic'
loop_
_space_group_symop_operation_xyz
x,y,z
-x,-y,1/2+z
x,-y,-z
-x,y,1/2-z
-x,-y,-z
x,y,1/2-z
-x,y,z
x,-y,1/2+z
1/2+x,1/2+y,z
1/2-x,1/2-y,1/2+z
1/2+x,1/2-y,-z
1/2-x,1/2+y,1/2-z
1/2-x,1/2-y,-z
1/2+x,1/2+y,1/2-z
1/2-x,1/2+y,z
1/2+x,1/2-y,1/2+z
loop_
_atom_site_type_symbol
_atom_site_label
_atom_site_fract_x
_atom_site_fract_y
_atom_site_fract_z
Si Si1 0.810120 0.710549 0.570603
Si Si2 0.682126 0.373013 0.429399
Si Si3 0.000000 0.166313 0.430173
Si Si4 0.202357 0.549687 0.432750
Si Si5 0.500000 0.235396 0.068264
Si Si6 0.500000 0.047946 0.071351
O O1 0.821936 0.720150 0.750000
O O2 0.750000 0.750000 0.500000
O O3 0.760555 0.663811 0.536013
O O4 0.910839 0.708787 0.492866
O O5 0.656090 0.374697 0.250000
O O6 0.590158 0.362227 0.525650
O O7 0.719763 0.420697 0.484784
O O8 0.000000 0.176579 0.250000
O O9 0.000000 0.213143 0.518574
O O10 0.211350 0.500000 0.500000
O O11 0.219677 0.548958 0.250000
O O12 0.099014 0.571130 0.473743
O O13 0.500000 0.234040 0.250000
O O14 0.500000 0.039272 0.250000
O O15 0.500000 0.000000 0.000000
#
# Coordination Sequence:
#
# PCOD8259675 Si02
#       6
#    16  16   8  16   8   8
#     4  11  23  39  61  88 121 159 202 250 303 361
#     4  11  24  41  62  89 122 158 202 252 306 364
#     4  12  24  40  64  88 116 157 205 251 305 369
#     4  10  20  37  61  90 124 162 204 249 302 358
#     4  12  24  39  61  89 125 163 204 253 305 362
#     4   8  16  31  54  83 115 152 192 236 287 349
#
# _framework density 19.398887999999999
#
# number of rings (size 3 to 8) (size 9 to 14) (size 15 to 20)
#    0.000    1.333    2.222    4.000    0.000    4.444 
#    0.000    2.778    0.000    0.000    0.000    0.000 
#    0.000    0.000    0.000    0.000    0.000    0.000 
#
# Total GULP energy -446360.298279 kJ/mol
# GULP energy per Si atom -12398.897174 kJ/mol
# Density = 1.935474 g / cm^3
# Si number density = 19.398888 Si / 1000 Ang^3
#
#
#
# Elastic Constant Matrix: (Units=GPa)
#
#
# Indices 1 2 3 4 5 6 
#
# 1 143.7663 42.2532 60.6935 0.0000 0.0000 0.0000
# 2 42.2532 82.1477 38.5900 0.0000 0.0000 0.0000
# 3 60.6935 38.5900 106.4076 0.0000 0.0000 0.0000
# 4 0.0000 0.0000 0.0000 32.2880 0.0000 0.0000
# 5 0.0000 0.0000 0.0000 0.0000 34.5319 0.0000
# 6 0.0000 0.0000 0.0000 0.0000 0.0000 34.4916
#
#
#
# Elastic Compliance Matrix: (Units=1/GPa)
#
#
# Indices 1 2 3 4 5 6 
#
# 1 0.009696 -0.002880 -0.004486 0.000000 0.000000 0.000000
# 2 -0.002880 0.015528 -0.003989 0.000000 0.000000 0.000000
# 3 -0.004486 -0.003989 0.013403 0.000000 0.000000 0.000000
# 4 0.000000 0.000000 0.000000 0.030971 0.000000 0.000000
# 5 0.000000 0.000000 0.000000 0.000000 0.028959 0.000000
# 6 0.000000 0.000000 0.000000 0.000000 0.000000 0.028993
#
#
# Mechanical properties :
#
#
# Convention : Reuss Voigt Hill
#
# Bulk Modulus (GPa) = 62.82219 68.37723 65.59971
# Shear Modulus (GPa) = 32.14078 32.98130 32.56104
#
# Velocity S-wave (km/s) = 4.07484 4.12778 4.10140
# Velocity P-wave (km/s) = 7.38876 7.61857 7.50455
#
# Compressibility (1/GPa) = 0.01591794
#
# Stress axis : x y z
#
# Youngs Moduli (GPa) = 103.13547 64.39866 74.60877
#
# Poissons Ratio (x) = 0.18545 0.33470
# Poissons Ratio (y) = 0.29701 0.29761
# Poissons Ratio (z) = 0.46267 0.25688
#
# Static dielectric constant tensor:
#      x y z
#    x 3.956440 0.000000 0.000000 
#    y 0.000000 3.341450 0.000000 
#    z 0.000000 0.000000 3.672480 
# 
# 
# High freq. dielectric constant tensor:
#      x y z
#    x 1.770500 0.000000 0.000000 
#    y 0.000000 1.739090 0.000000 
#    z 0.000000 0.000000 1.772590 
# 
# From -- ./inp_files/4963.got.cif
#   From: 2010.03.12/outbox.cif.g09.slc.cpg/sg63_3_cif.got.tgz:4963.got - 2010.04.10 19:34:48.
