data_PCOD8259735
_publ_section_title
;
Structure prediction by ZEFSAII (Michael W. Deem and Ramdas Pophale) SiO2 
 PCOD8259735
Probable space group: C M C M
;
_chemical_formula_sum "Si O2"
_cell_formula_units_Z 40
_cell_length_a 23.609226
_cell_length_b 5.001058
_cell_length_c 17.998853
_cell_angle_alpha 90.000000
_cell_angle_beta 90.000000
_cell_angle_gamma 90.000000
_cell_volume 2125.144527
_symmetry_space_group_name_H-M "C M C M"
_symmetry_group_IT_number 63
_symmetry_cell_setting 'orthorhombic'
loop_
_space_group_symop_operation_xyz
x,y,z
-x,-y,1/2+z
x,-y,-z
-x,y,1/2-z
-x,-y,-z
x,y,1/2-z
-x,y,z
x,-y,1/2+z
1/2+x,1/2+y,z
1/2-x,1/2-y,1/2+z
1/2+x,1/2-y,-z
1/2-x,1/2+y,1/2-z
1/2-x,1/2-y,-z
1/2+x,1/2+y,1/2-z
1/2-x,1/2+y,z
1/2+x,1/2-y,1/2+z
loop_
_atom_site_type_symbol
_atom_site_label
_atom_site_fract_x
_atom_site_fract_y
_atom_site_fract_z
Si Si1 0.934454 0.486919 0.584715
Si Si2 0.606789 0.483961 0.667774
Si Si3 0.212463 0.106099 0.750000
O O1 0.913667 0.500000 0.500000
O O2 0.897493 0.689449 0.633465
O O3 0.000000 0.567955 0.590892
O O4 0.925306 0.188598 0.614373
O O5 0.578094 0.485873 0.750000
O O6 0.673560 0.557201 0.676610
O O7 0.233908 0.409686 0.750000
#
# Coordination Sequence:
#
# PCOD8259735 Si02
#       3
#    16  16   8
#     4  11  22  37  56  83 123 156 177 218 283 339
#     4  10  22  36  59  88 104 153 191 236 266 329
#     4  10  20  38  61  82 107 142 188 240 294 318
#
# _framework density 18.822247000000001
#
# number of rings (size 3 to 8) (size 9 to 14) (size 15 to 20)
#    1.200    0.400    0.000    6.000    0.000    8.000 
#    0.000    0.000    0.000   24.000    0.000    0.000 
#    0.000    0.000    0.000    0.000    0.000    0.000 
#
# Total GULP energy -248013.767369 kJ/mol
# GULP energy per Si atom -12400.688368 kJ/mol
# Density = 1.877941 g / cm^3
# Si number density = 18.822247 Si / 1000 Ang^3
#
#
#
# Elastic Constant Matrix: (Units=GPa)
#
#
# Indices 1 2 3 4 5 6 
#
# 1 50.4083 2.8790 29.5874 0.0000 0.0000 0.0000
# 2 2.8790 77.7710 22.9809 0.0000 0.0000 0.0000
# 3 29.5874 22.9809 111.3373 0.0000 0.0000 0.0000
# 4 0.0000 0.0000 0.0000 34.7064 0.0000 0.0000
# 5 0.0000 0.0000 0.0000 0.0000 -1.8466 0.0000
# 6 0.0000 0.0000 0.0000 0.0000 0.0000 38.1333
#
#
#
# Elastic Compliance Matrix: (Units=1/GPa)
#
#
# Indices 1 2 3 4 5 6 
#
# 1 0.023583 0.001042 -0.006482 0.000000 0.000000 0.000000
# 2 0.001042 0.013740 -0.003113 0.000000 0.000000 0.000000
# 3 -0.006482 -0.003113 0.011347 0.000000 0.000000 0.000000
# 4 0.000000 0.000000 0.000000 0.028813 0.000000 0.000000
# 5 0.000000 0.000000 0.000000 0.000000 -0.541524 0.000000
# 6 0.000000 0.000000 0.000000 0.000000 0.000000 0.026224
#
#
# Mechanical properties :
#
#
# Convention : Reuss Voigt Hill
#
# Bulk Modulus (GPa) = 31.68159 38.93456 35.30808
# Shear Modulus (GPa) = -12.18945 26.46990 7.14022
#
# Velocity S-wave (km/s) = -2.54758 3.75415 1.94980
# Velocity P-wave (km/s) = 2.86618 6.28664 4.88553
#
# Compressibility (1/GPa) = 0.03156407
#
# Stress axis : x y z
#
# Youngs Moduli (GPa) = 42.40291 72.78269 88.12976
#
# Poissons Ratio (x) = -0.07587 0.57129
# Poissons Ratio (y) = -0.04420 0.27435
# Poissons Ratio (z) = 0.27487 0.22657
#
# Static dielectric constant tensor:
#      x y z
#    x 3.187590 0.000000 0.000000 
#    y 0.000000 3.293220 0.000000 
#    z 0.000000 0.000000 3.377530 
# 
# 
# High freq. dielectric constant tensor:
#      x y z
#    x 1.713880 0.000000 0.000000 
#    y 0.000000 1.746510 0.000000 
#    z 0.000000 0.000000 1.723900 
# 
# From -- ./inp_files/36002.got.cif
#   From: 2010.03.12/outbox.cif.g09.slc.cpg/sg63_19_cif.got.tgz:36002.got - 2010.04.10 19:34:48.
