data_PCOD8259299
_publ_section_title
;
Structure prediction by ZEFSAII (Michael W. Deem and Ramdas Pophale) SiO2 
 PCOD8259299
Probable space group: C M C M
;
_chemical_formula_sum "Si O2"
_cell_formula_units_Z 112
_cell_length_a 22.412945
_cell_length_b 14.525069
_cell_length_c 16.431485
_cell_angle_alpha 90.000000
_cell_angle_beta 90.000000
_cell_angle_gamma 90.000000
_cell_volume 5349.262919
_symmetry_space_group_name_H-M "C M C M"
_symmetry_group_IT_number 63
_symmetry_cell_setting 'orthorhombic'
loop_
_space_group_symop_operation_xyz
x,y,z
-x,-y,1/2+z
x,-y,-z
-x,y,1/2-z
-x,-y,-z
x,y,1/2-z
-x,y,z
x,-y,1/2+z
1/2+x,1/2+y,z
1/2-x,1/2-y,1/2+z
1/2+x,1/2-y,-z
1/2-x,1/2+y,1/2-z
1/2-x,1/2-y,-z
1/2+x,1/2+y,1/2-z
1/2-x,1/2+y,z
1/2+x,1/2-y,1/2+z
loop_
_atom_site_type_symbol
_atom_site_label
_atom_site_fract_x
_atom_site_fract_y
_atom_site_fract_z
Si Si1 0.714784 0.092935 0.545723
Si Si2 0.932744 0.202568 0.059512
Si Si3 0.325464 0.385869 0.156962
Si Si4 0.349765 0.213552 0.069935
Si Si5 0.933128 0.575733 0.157536
Si Si6 0.932220 0.978832 0.656404
Si Si7 0.895530 0.625495 0.656199
O O1 0.778753 0.082133 0.588355
O O2 0.708353 0.174917 0.478399
O O3 0.668958 0.114671 0.616960
O O4 0.698556 0.000000 0.500000
O O5 0.912256 0.109626 0.104769
O O6 0.931639 0.289259 0.120046
O O7 0.000000 0.191456 0.026732
O O8 0.887812 0.217529 0.985785
O O9 0.304818 0.406296 0.250000
O O10 0.331428 0.275084 0.147456
O O11 0.387868 0.436704 0.137884
O O12 0.389195 0.126672 0.096176
O O13 0.912663 0.595520 0.250000
O O14 0.933054 0.466953 0.140224
O O15 0.000000 0.612508 0.142738
O O16 0.928075 0.949030 0.750000
O O17 0.000000 0.009959 0.634717
O O18 0.884933 0.645202 0.750000
#
# Coordination Sequence:
#
# PCOD8259299 Si02
#       7
#    16  16  16  16  16  16  16
#     4  11  23  42  65  88 121 161 203 263 313 362
#     4  10  21  35  59  93 127 162 203 254 306 361
#     4  11  25  44  66  90 120 162 207 252 308 376
#     4  11  23  40  61  90 123 163 201 255 310 367
#     4  10  20  35  58  89 125 166 208 249 302 371
#     4   9  20  40  64  92 124 160 203 253 308 366
#     4  10  20  37  60  89 125 167 209 253 305 364
#
# _framework density 20.937463999999999
#
# number of rings (size 3 to 8) (size 9 to 14) (size 15 to 20)
#    0.000    1.714    1.429    2.571    2.000    2.571 
#    0.000    5.000    0.000    0.000    0.000    0.000 
#    0.000    0.000    0.000    0.000    0.000    0.000 
#
# Total GULP energy -694341.773094 kJ/mol
# GULP energy per Si atom -12398.960234 kJ/mol
# Density = 2.088981 g / cm^3
# Si number density = 20.937464 Si / 1000 Ang^3
#
#
#
# Elastic Constant Matrix: (Units=GPa)
#
#
# Indices 1 2 3 4 5 6 
#
# 1 86.3407 23.4189 28.2562 0.0000 0.0000 0.0000
# 2 23.4189 80.8595 35.2674 0.0000 0.0000 0.0000
# 3 28.2562 35.2674 76.9083 0.0000 0.0000 0.0000
# 4 0.0000 0.0000 0.0000 40.9454 0.0000 0.0000
# 5 0.0000 0.0000 0.0000 0.0000 19.6990 0.0000
# 6 0.0000 0.0000 0.0000 0.0000 0.0000 28.9510
#
#
#
# Elastic Compliance Matrix: (Units=1/GPa)
#
#
# Indices 1 2 3 4 5 6 
#
# 1 0.013465 -0.002178 -0.003948 0.000000 0.000000 0.000000
# 2 -0.002178 0.015811 -0.006450 0.000000 0.000000 0.000000
# 3 -0.003948 -0.006450 0.017411 0.000000 0.000000 0.000000
# 4 0.000000 0.000000 0.000000 0.024423 0.000000 0.000000
# 5 0.000000 0.000000 0.000000 0.000000 0.050764 0.000000
# 6 0.000000 0.000000 0.000000 0.000000 0.000000 0.034541
#
#
# Mechanical properties :
#
#
# Convention : Reuss Voigt Hill
#
# Bulk Modulus (GPa) = 46.43765 46.44373 46.44069
# Shear Modulus (GPa) = 26.49065 28.39683 27.44374
#
# Velocity S-wave (km/s) = 3.56086 3.68675 3.62435
# Velocity P-wave (km/s) = 6.25569 6.35241 6.30424
#
# Compressibility (1/GPa) = 0.02153425
#
# Stress axis : x y z
#
# Youngs Moduli (GPa) = 74.26747 63.24629 57.43479
#
# Poissons Ratio (x) = 0.13773 0.22678
# Poissons Ratio (y) = 0.16173 0.37048
# Poissons Ratio (z) = 0.29324 0.40796
#
# Static dielectric constant tensor:
#      x y z
#    x 3.671560 0.000000 0.000000 
#    y 0.000000 3.733860 0.000000 
#    z 0.000000 0.000000 3.860400 
# 
# 
# High freq. dielectric constant tensor:
#      x y z
#    x 1.813760 0.000000 0.000000 
#    y 0.000000 1.823850 0.000000 
#    z 0.000000 0.000000 1.826230 
# 
# From -- ./inp_files/36903.got.cif
#   From: 2010.03.12/outbox.cif.g09.slc.cpg/sg63_19_cif.got.tgz:36903.got - 2010.04.10 19:34:48.
