data_PCOD8259801
_publ_section_title
;
Structure prediction by ZEFSAII (Michael W. Deem and Ramdas Pophale) SiO2 
 PCOD8259801
Probable space group: C M C M
;
_chemical_formula_sum "Si O2"
_cell_formula_units_Z 76
_cell_length_a 12.193635
_cell_length_b 20.219071
_cell_length_c 15.291796
_cell_angle_alpha 90.000000
_cell_angle_beta 90.000000
_cell_angle_gamma 90.000000
_cell_volume 3770.100122
_symmetry_space_group_name_H-M "C M C M"
_symmetry_group_IT_number 63
_symmetry_cell_setting 'orthorhombic'
loop_
_space_group_symop_operation_xyz
x,y,z
-x,-y,1/2+z
x,-y,-z
-x,y,1/2-z
-x,-y,-z
x,y,1/2-z
-x,y,z
x,-y,1/2+z
1/2+x,1/2+y,z
1/2-x,1/2-y,1/2+z
1/2+x,1/2-y,-z
1/2-x,1/2+y,1/2-z
1/2-x,1/2-y,-z
1/2+x,1/2+y,1/2-z
1/2-x,1/2+y,z
1/2+x,1/2-y,1/2+z
loop_
_atom_site_type_symbol
_atom_site_label
_atom_site_fract_x
_atom_site_fract_y
_atom_site_fract_z
Si Si1 0.500000 0.628271 0.153725
Si Si2 0.377262 0.070026 0.250000
Si Si3 0.238462 0.057299 0.750000
Si Si4 0.500000 0.498488 0.250000
Si Si5 0.877781 0.368488 0.110907
Si Si6 0.681952 0.277619 0.851599
Si Si7 0.377475 0.841138 0.918449
O O1 0.500000 0.661898 0.250000
O O2 0.500000 0.547637 0.163816
O O3 0.609659 0.659842 0.111579
O O4 0.500000 0.040033 0.250000
O O5 0.357036 0.110788 0.162553
O O6 0.284761 0.015563 0.250000
O O7 0.281722 0.095583 0.835566
O O8 0.105975 0.049874 0.750000
O O9 0.878851 0.290495 0.129410
O O10 0.000000 0.394908 0.136968
O O11 0.856443 0.381233 0.008260
O O12 0.712113 0.284415 0.750000
O O13 0.794515 0.279824 0.907424
O O14 0.500000 0.811645 0.917807
#
# Coordination Sequence:
#
# PCOD8259801 Si02
#       7
#     8   8   8   4  16  16  16
#     4   8  18  34  65  88 109 150 216 259 279 350
#     4  10  20  39  62  86 114 162 213 242 301 355
#     4  12  24  40  62  86 122 167 205 250 304 367
#     4  10  22  40  56  90 122 162 212 250 298 362
#     4  11  23  39  60  92 126 158 208 252 307 365
#     4  11  18  35  63  91 114 156 201 256 311 356
#     4  10  22  38  60  92 125 157 199 256 309 370
#
# _framework density 20.158614
#
# number of rings (size 3 to 8) (size 9 to 14) (size 15 to 20)
#    0.316    1.263    3.158    2.842    0.000    0.842 
#    1.895    4.211    0.000    2.526    0.000    0.000 
#    0.000    0.000    0.000    0.000    0.000    0.000 
#
# Total GULP energy -470927.650164 kJ/mol
# GULP energy per Si atom -12392.832899 kJ/mol
# Density = 2.011273 g / cm^3
# Si number density = 20.158614 Si / 1000 Ang^3
#
#
#
# Elastic Constant Matrix: (Units=GPa)
#
#
# Indices 1 2 3 4 5 6 
#
# 1 148.0698 49.2339 52.6567 0.0000 0.0000 0.0000
# 2 49.2339 67.0003 31.6487 0.0000 0.0000 0.0000
# 3 52.6567 31.6487 117.5131 0.0000 0.0000 0.0000
# 4 0.0000 0.0000 0.0000 0.2076 0.0000 0.0000
# 5 0.0000 0.0000 0.0000 0.0000 1.4883 0.0000
# 6 0.0000 0.0000 0.0000 0.0000 0.0000 32.1638
#
#
#
# Elastic Compliance Matrix: (Units=1/GPa)
#
#
# Indices 1 2 3 4 5 6 
#
# 1 0.009665 -0.005794 -0.002771 0.000000 0.000000 0.000000
# 2 -0.005794 0.020574 -0.002945 0.000000 0.000000 0.000000
# 3 -0.002771 -0.002945 0.010544 0.000000 0.000000 0.000000
# 4 0.000000 0.000000 0.000000 4.816661 0.000000 0.000000
# 5 0.000000 0.000000 0.000000 0.000000 0.671926 0.000000
# 6 0.000000 0.000000 0.000000 0.000000 0.000000 0.031091
#
#
# Mechanical properties :
#
#
# Convention : Reuss Voigt Hill
#
# Bulk Modulus (GPa) = 56.29003 66.62908 61.45956
# Shear Modulus (GPa) = 0.89455 20.04152 10.46804
#
# Velocity S-wave (km/s) = 0.66687 3.15650 2.28125
# Velocity P-wave (km/s) = 5.34576 6.81240 6.12315
#
# Compressibility (1/GPa) = 0.01776514
#
# Stress axis : x y z
#
# Youngs Moduli (GPa) = 103.46344 48.60578 94.83816
#
# Poissons Ratio (x) = 0.28160 0.26276
# Poissons Ratio (y) = 0.59943 0.27928
# Poissons Ratio (z) = 0.28665 0.14314
#
# Static dielectric constant tensor:
#      x y z
#    x 3.893040 0.000000 0.000000 
#    y 0.000000 3.326220 0.000000 
#    z 0.000000 0.000000 3.075490 
# 
# 
# High freq. dielectric constant tensor:
#      x y z
#    x 1.800950 0.000000 0.000000 
#    y 0.000000 1.758180 0.000000 
#    z 0.000000 0.000000 1.778300 
# 
# From -- ./inp_files/29815.got.cif
#   From: 2010.03.12/outbox.cif.g09.slc.cpg/sg63_15_cif.got.tgz:29815.got - 2010.04.10 19:34:48.
