data_PCOD8259209
_publ_section_title
;
Structure prediction by ZEFSAII (Michael W. Deem and Ramdas Pophale) SiO2 
 PCOD8259209
Probable space group: C M C M
;
_chemical_formula_sum "Si O2"
_cell_formula_units_Z 96
_cell_length_a 8.777121
_cell_length_b 22.850610
_cell_length_c 23.615296
_cell_angle_alpha 90.000000
_cell_angle_beta 90.000000
_cell_angle_gamma 90.000000
_cell_volume 4736.344431
_symmetry_space_group_name_H-M "C M C M"
_symmetry_group_IT_number 63
_symmetry_cell_setting 'orthorhombic'
loop_
_space_group_symop_operation_xyz
x,y,z
-x,-y,1/2+z
x,-y,-z
-x,y,1/2-z
-x,-y,-z
x,y,1/2-z
-x,y,z
x,-y,1/2+z
1/2+x,1/2+y,z
1/2-x,1/2-y,1/2+z
1/2+x,1/2-y,-z
1/2-x,1/2+y,1/2-z
1/2-x,1/2-y,-z
1/2+x,1/2+y,1/2-z
1/2-x,1/2+y,z
1/2+x,1/2-y,1/2+z
loop_
_atom_site_type_symbol
_atom_site_label
_atom_site_fract_x
_atom_site_fract_y
_atom_site_fract_z
Si Si1 0.820924 0.142931 0.913942
Si Si2 0.179336 0.062866 0.686253
Si Si3 0.171391 0.845834 0.813038
Si Si4 0.320626 0.877333 0.974350
Si Si5 0.324124 0.732109 0.083805
Si Si6 0.323938 0.049597 0.132507
O O1 0.770523 0.118293 0.852259
O O2 0.773865 0.209800 0.920828
O O3 0.000000 0.135987 0.922635
O O4 0.736273 0.105011 0.962952
O O5 0.251402 0.066931 0.750000
O O6 0.000000 0.060696 0.692643
O O7 0.228333 0.005506 0.652365
O O8 0.197651 0.822604 0.750000
O O9 0.198560 0.790204 0.852457
O O10 0.291091 0.897000 0.825177
O O11 0.000000 0.870825 0.821812
O O12 0.500000 0.866508 0.972925
O O13 0.237786 0.816491 0.959259
O O14 0.276123 0.929293 0.930765
O O15 0.500000 0.745456 0.069369
O O16 0.500000 0.032709 0.135515
#
# Coordination Sequence:
#
# PCOD8259209 Si02
#       6
#    16  16  16  16  16  16
#     4  11  23  38  57  81 110 146 187 226 268 323
#     4  10  23  42  60  79 109 150 188 222 268 327
#     4   9  18  33  54  80 110 145 184 226 274 329
#     4  10  21  38  59  84 114 144 178 224 278 329
#     4  10  20  35  56  82 113 148 185 226 275 327
#     4  10  21  36  57  85 112 140 179 229 279 324
#
# _framework density 20.268795999999998
#
# number of rings (size 3 to 8) (size 9 to 14) (size 15 to 20)
#    0.000    2.000    0.000    3.000    0.000    8.000 
#    0.000    3.333    0.000    0.000    0.000    0.000 
#    0.000    0.000    0.000    0.000    0.000    0.000 
#
# Total GULP energy -595176.854379 kJ/mol
# GULP energy per Si atom -12399.517800 kJ/mol
# Density = 2.022266 g / cm^3
# Si number density = 20.268796 Si / 1000 Ang^3
#
#
#
# Elastic Constant Matrix: (Units=GPa)
#
#
# Indices 1 2 3 4 5 6 
#
# 1 32.1192 8.1877 39.3824 0.0000 0.0000 0.0000
# 2 8.1877 50.8034 48.8803 0.0000 0.0000 0.0000
# 3 39.3824 48.8803 149.0207 0.0000 0.0000 0.0000
# 4 0.0000 0.0000 0.0000 17.0226 0.0000 0.0000
# 5 0.0000 0.0000 0.0000 0.0000 28.2322 0.0000
# 6 0.0000 0.0000 0.0000 0.0000 0.0000 26.9267
#
#
#
# Elastic Compliance Matrix: (Units=1/GPa)
#
#
# Indices 1 2 3 4 5 6 
#
# 1 0.047465 0.006457 -0.014662 0.000000 0.000000 0.000000
# 2 0.006457 0.029639 -0.011428 0.000000 0.000000 0.000000
# 3 -0.014662 -0.011428 0.014334 0.000000 0.000000 0.000000
# 4 0.000000 0.000000 0.000000 0.058745 0.000000 0.000000
# 5 0.000000 0.000000 0.000000 0.000000 0.035421 0.000000
# 6 0.000000 0.000000 0.000000 0.000000 0.000000 0.037138
#
#
# Mechanical properties :
#
#
# Convention : Reuss Voigt Hill
#
# Bulk Modulus (GPa) = 19.16738 47.20489 33.18613
# Shear Modulus (GPa) = 17.89559 23.46916 20.68238
#
# Velocity S-wave (km/s) = 2.97461 3.40648 3.19784
# Velocity P-wave (km/s) = 4.61247 6.22994 5.48119
#
# Compressibility (1/GPa) = 0.05217198
#
# Stress axis : x y z
#
# Youngs Moduli (GPa) = 21.06797 33.73968 69.76491
#
# Poissons Ratio (x) = -0.21787 1.02289
# Poissons Ratio (y) = -0.13604 0.79729
# Poissons Ratio (z) = 0.30890 0.38559
#
# Static dielectric constant tensor:
#      x y z
#    x 3.648320 0.000000 0.000000 
#    y 0.000000 3.471140 0.000000 
#    z 0.000000 0.000000 4.213420 
# 
# 
# High freq. dielectric constant tensor:
#      x y z
#    x 1.790690 0.000000 0.000000 
#    y 0.000000 1.774700 0.000000 
#    z 0.000000 0.000000 1.809700 
# 
# From -- ./inp_files/59933.got.cif
#   From: 2010.03.12/outbox.cif.g09.slc.cpg/sg63_30_cif.got.tgz:59933.got - 2010.04.10 19:34:48.
