data_PCOD8259746
_publ_section_title
;
Structure prediction by ZEFSAII (Michael W. Deem and Ramdas Pophale) SiO2 
 PCOD8259746
Probable space group: C M C M
;
_chemical_formula_sum "Si O2"
_cell_formula_units_Z 80
_cell_length_a 9.031790
_cell_length_b 19.028125
_cell_length_c 24.362386
_cell_angle_alpha 90.000000
_cell_angle_beta 90.000000
_cell_angle_gamma 90.000000
_cell_volume 4186.871642
_symmetry_space_group_name_H-M "C M C M"
_symmetry_group_IT_number 63
_symmetry_cell_setting 'orthorhombic'
loop_
_space_group_symop_operation_xyz
x,y,z
-x,-y,1/2+z
x,-y,-z
-x,y,1/2-z
-x,-y,-z
x,y,1/2-z
-x,y,z
x,-y,1/2+z
1/2+x,1/2+y,z
1/2-x,1/2-y,1/2+z
1/2+x,1/2-y,-z
1/2-x,1/2+y,1/2-z
1/2-x,1/2-y,-z
1/2+x,1/2+y,1/2-z
1/2-x,1/2+y,z
1/2+x,1/2-y,1/2+z
loop_
_atom_site_type_symbol
_atom_site_label
_atom_site_fract_x
_atom_site_fract_y
_atom_site_fract_z
Si Si1 0.174827 0.771995 0.149432
Si Si2 0.824830 0.864963 0.250000
Si Si3 0.677107 0.526585 0.250000
Si Si4 0.176342 0.609701 0.349085
Si Si5 0.833112 0.436348 0.532013
Si Si6 0.166261 0.300649 0.460201
O O1 0.233907 0.821576 0.197933
O O2 0.220835 0.691113 0.159702
O O3 0.250647 0.805011 0.096823
O O4 0.000000 0.776584 0.141194
O O5 0.000000 0.864330 0.250000
O O6 0.768329 0.945362 0.250000
O O7 0.500000 0.532281 0.250000
O O8 0.741239 0.563275 0.195960
O O9 0.236883 0.585698 0.409251
O O10 0.000000 0.600558 0.343008
O O11 0.749403 0.500000 0.500000
O O12 0.831833 0.375364 0.488169
O O13 0.000000 0.459982 0.546000
O O14 0.250000 0.250000 0.500000
O O15 0.000000 0.273209 0.450967
#
# Coordination Sequence:
#
# PCOD8259746 Si02
#       6
#    16   8   8  16  16  16
#     4  10  20  39  63  84 109 149 197 236 276 335
#     4   9  21  39  59  81 114 151 184 234 296 343
#     4  11  24  39  55  83 118 147 182 236 294 337
#     4  10  20  38  62  83 108 153 197 227 273 340
#     4   9  19  35  56  84 117 149 186 230 277 330
#     4  11  21  36  59  88 118 150 185 232 284 334
#
# _framework density 19.107344000000001
#
# number of rings (size 3 to 8) (size 9 to 14) (size 15 to 20)
#    0.000    2.000    2.000    1.500    2.800    2.400 
#    0.000    1.500    0.000    3.000    0.000    0.000 
#    0.000    0.000    0.000    0.000    0.000    0.000 
#
# Total GULP energy -495847.412617 kJ/mol
# GULP energy per Si atom -12396.185315 kJ/mol
# Density = 1.906386 g / cm^3
# Si number density = 19.107344 Si / 1000 Ang^3
#
#
#
# Elastic Constant Matrix: (Units=GPa)
#
#
# Indices 1 2 3 4 5 6 
#
# 1 41.0948 32.9338 44.0603 0.0000 0.0000 0.0000
# 2 32.9338 128.6967 81.6576 0.0000 0.0000 0.0000
# 3 44.0603 81.6576 186.5306 0.0000 0.0000 0.0000
# 4 0.0000 0.0000 0.0000 33.6749 0.0000 0.0000
# 5 0.0000 0.0000 0.0000 0.0000 33.1166 0.0000
# 6 0.0000 0.0000 0.0000 0.0000 0.0000 15.6345
#
#
#
# Elastic Compliance Matrix: (Units=1/GPa)
#
#
# Indices 1 2 3 4 5 6 
#
# 1 0.034862 -0.005118 -0.005994 0.000000 0.000000 0.000000
# 2 -0.005118 0.011510 -0.003830 0.000000 0.000000 0.000000
# 3 -0.005994 -0.003830 0.008454 0.000000 0.000000 0.000000
# 4 0.000000 0.000000 0.000000 0.029696 0.000000 0.000000
# 5 0.000000 0.000000 0.000000 0.000000 0.030196 0.000000
# 6 0.000000 0.000000 0.000000 0.000000 0.000000 0.063961
#
#
# Mechanical properties :
#
#
# Convention : Reuss Voigt Hill
#
# Bulk Modulus (GPa) = 40.09356 74.84730 57.47043
# Shear Modulus (GPa) = 23.05451 29.66322 26.35886
#
# Velocity S-wave (km/s) = 3.47735 3.94439 3.71821
# Velocity P-wave (km/s) = 6.09520 7.74605 6.96968
#
# Compressibility (1/GPa) = 0.02494166
#
# Stress axis : x y z
#
# Youngs Moduli (GPa) = 28.68415 86.88172 118.29376
#
# Poissons Ratio (x) = 0.44466 0.70909
# Poissons Ratio (y) = 0.14681 0.45304
# Poissons Ratio (z) = 0.17194 0.33274
#
# Static dielectric constant tensor:
#      x y z
#    x 3.297580 0.000000 0.000000 
#    y 0.000000 3.619390 0.000000 
#    z 0.000000 0.000000 3.676160 
# 
# 
# High freq. dielectric constant tensor:
#      x y z
#    x 1.710140 0.000000 0.000000 
#    y 0.000000 1.755680 0.000000 
#    z 0.000000 0.000000 1.762430 
# 
# From -- ./inp_files/66685.got.cif
#   From: 2010.03.12/outbox.cif.g09.slc.cpg/sg63_34_cif.got.tgz:66685.got - 2010.04.10 19:34:48.
