data_PCOD8259881
_publ_section_title
;
Structure prediction by ZEFSAII (Michael W. Deem and Ramdas Pophale) SiO2 
 PCOD8259881
Probable space group: C M C M
;
_chemical_formula_sum "Si O2"
_cell_formula_units_Z 80
_cell_length_a 7.718720
_cell_length_b 29.420387
_cell_length_c 18.727236
_cell_angle_alpha 90.000000
_cell_angle_beta 90.000000
_cell_angle_gamma 90.000000
_cell_volume 4252.725504
_symmetry_space_group_name_H-M "C M C M"
_symmetry_group_IT_number 63
_symmetry_cell_setting 'orthorhombic'
loop_
_space_group_symop_operation_xyz
x,y,z
-x,-y,1/2+z
x,-y,-z
-x,y,1/2-z
-x,-y,-z
x,y,1/2-z
-x,y,z
x,-y,1/2+z
1/2+x,1/2+y,z
1/2-x,1/2-y,1/2+z
1/2+x,1/2-y,-z
1/2-x,1/2+y,1/2-z
1/2-x,1/2-y,-z
1/2+x,1/2+y,1/2-z
1/2-x,1/2+y,z
1/2+x,1/2-y,1/2+z
loop_
_atom_site_type_symbol
_atom_site_label
_atom_site_fract_x
_atom_site_fract_y
_atom_site_fract_z
Si Si1 0.500000 0.744190 0.664553
Si Si2 0.802630 0.002505 0.077908
Si Si3 0.200938 0.912420 0.833563
Si Si4 0.296592 0.080656 0.830170
Si Si5 0.808427 0.317760 0.165021
Si Si6 0.000000 0.654210 0.165679
O O1 0.500000 0.743887 0.750000
O O2 0.329645 0.718367 0.635136
O O3 0.500000 0.795089 0.632807
O O4 0.725428 0.042975 0.126159
O O5 0.000000 0.015868 0.065425
O O6 0.793020 0.954409 0.117037
O O7 0.709717 0.000000 0.000000
O O8 0.224451 0.922347 0.750000
O O9 0.324041 0.871111 0.859017
O O10 0.000000 0.900488 0.850895
O O11 0.222904 0.073789 0.750000
O O12 0.500000 0.071987 0.830322
O O13 0.253920 0.131332 0.858517
O O14 0.814530 0.316926 0.250000
O O15 0.000000 0.305453 0.135069
O O16 0.000000 0.658483 0.250000
#
# Coordination Sequence:
#
# PCOD8259881 Si02
#       6
#     8  16  16  16  16   8
#     4   9  16  26  44  71  98 126 156 198 252 294
#     4  10  21  34  48  71 102 130 170 208 249 297
#     4   9  18  33  50  69  99 135 167 204 248 293
#     4   9  18  31  48  72 101 133 165 199 245 300
#     4   8  15  27  42  66 100 127 154 195 245 302
#     4   9  18  30  47  73  99 126 168 206 241 294
#
# _framework density 18.811465999999999
#
# number of rings (size 3 to 8) (size 9 to 14) (size 15 to 20)
#    0.000    3.000    0.000    1.800    2.800    2.400 
#    0.000    4.000    0.000    0.000    0.000    1.400 
#    0.000    0.000    0.000    0.000    0.000    0.000 
#
# Total GULP energy -495768.575793 kJ/mol
# GULP energy per Si atom -12394.214395 kJ/mol
# Density = 1.876865 g / cm^3
# Si number density = 18.811466 Si / 1000 Ang^3
#
#
#
# Elastic Constant Matrix: (Units=GPa)
#
#
# Indices 1 2 3 4 5 6 
#
# 1 92.8321 71.8615 25.2266 0.0000 0.0000 0.0000
# 2 71.8615 170.2173 44.3110 0.0000 0.0000 0.0000
# 3 25.2266 44.3110 56.5041 0.0000 0.0000 0.0000
# 4 0.0000 0.0000 0.0000 2.3798 0.0000 0.0000
# 5 0.0000 0.0000 0.0000 0.0000 7.8060 0.0000
# 6 0.0000 0.0000 0.0000 0.0000 0.0000 33.2309
#
#
#
# Elastic Compliance Matrix: (Units=1/GPa)
#
#
# Indices 1 2 3 4 5 6 
#
# 1 0.016247 -0.006246 -0.002356 0.000000 0.000000 0.000000
# 2 -0.006246 0.009783 -0.004883 0.000000 0.000000 0.000000
# 3 -0.002356 -0.004883 0.022579 0.000000 0.000000 0.000000
# 4 0.000000 0.000000 0.000000 0.420198 0.000000 0.000000
# 5 0.000000 0.000000 0.000000 0.000000 0.128106 0.000000
# 6 0.000000 0.000000 0.000000 0.000000 0.000000 0.030092
#
#
# Mechanical properties :
#
#
# Convention : Reuss Voigt Hill
#
# Bulk Modulus (GPa) = 46.21169 66.92797 56.56983
# Shear Modulus (GPa) = 7.56213 20.56031 14.06122
#
# Velocity S-wave (km/s) = 2.00716 3.30959 2.73698
# Velocity P-wave (km/s) = 5.47637 7.08943 6.33446
#
# Compressibility (1/GPa) = 0.02163955
#
# Stress axis : x y z
#
# Youngs Moduli (GPa) = 61.54885 102.21835 44.28893
#
# Poissons Ratio (x) = 0.63846 0.10432
# Poissons Ratio (y) = 0.38443 0.21628
# Poissons Ratio (z) = 0.14498 0.49917
#
# Static dielectric constant tensor:
#      x y z
#    x 3.548620 0.000000 0.000000 
#    y 0.000000 3.618210 0.000000 
#    z 0.000000 0.000000 3.134920 
# 
# 
# High freq. dielectric constant tensor:
#      x y z
#    x 1.733680 0.000000 0.000000 
#    y 0.000000 1.731310 0.000000 
#    z 0.000000 0.000000 1.675030 
# 
# From -- ./inp_files/40616.got.cif
#   From: 2010.03.12/outbox.cif.g09.slc.cpg/sg63_21_cif.got.tgz:40616.got - 2010.04.10 19:34:48.
