data_PCOD8259429
_publ_section_title
;
Structure prediction by ZEFSAII (Michael W. Deem and Ramdas Pophale) SiO2 
 PCOD8259429
Probable space group: C M C M
;
_chemical_formula_sum "Si O2"
_cell_formula_units_Z 96
_cell_length_a 9.018926
_cell_length_b 24.390701
_cell_length_c 21.358594
_cell_angle_alpha 90.000000
_cell_angle_beta 90.000000
_cell_angle_gamma 90.000000
_cell_volume 4698.419240
_symmetry_space_group_name_H-M "C M C M"
_symmetry_group_IT_number 63
_symmetry_cell_setting 'orthorhombic'
loop_
_space_group_symop_operation_xyz
x,y,z
-x,-y,1/2+z
x,-y,-z
-x,y,1/2-z
-x,-y,-z
x,y,1/2-z
-x,y,z
x,-y,1/2+z
1/2+x,1/2+y,z
1/2-x,1/2-y,1/2+z
1/2+x,1/2-y,-z
1/2-x,1/2+y,1/2-z
1/2-x,1/2-y,-z
1/2+x,1/2+y,1/2-z
1/2-x,1/2+y,z
1/2+x,1/2-y,1/2+z
loop_
_atom_site_type_symbol
_atom_site_label
_atom_site_fract_x
_atom_site_fract_y
_atom_site_fract_z
Si Si1 0.828056 0.683450 0.180999
Si Si2 0.676215 0.260839 0.067623
Si Si3 0.673151 0.423937 0.851867
Si Si4 0.833537 0.370492 0.405729
Si Si5 0.166056 0.557827 0.474381
Si Si6 0.167022 0.954545 0.178997
O O1 0.802216 0.711673 0.250000
O O2 0.768114 0.718824 0.121905
O O3 0.750689 0.624638 0.185438
O O4 0.000000 0.673155 0.169347
O O5 0.500000 0.258332 0.058927
O O6 0.722738 0.319577 0.094481
O O7 0.750000 0.250000 0.000000
O O8 0.500000 0.415109 0.844519
O O9 0.719490 0.420357 0.923867
O O10 0.722668 0.482704 0.824499
O O11 0.836521 0.395401 0.474325
O O12 0.778520 0.416433 0.358229
O O13 0.000000 0.352223 0.386543
O O14 0.226335 0.500000 0.500000
O O15 0.000000 0.549530 0.446537
O O16 0.169067 0.934331 0.250000
O O17 0.000000 0.950016 0.151235
#
# Coordination Sequence:
#
# PCOD8259429 Si02
#       6
#    16  16  16  16  16  16
#     4  10  23  43  65  88 118 163 213 256 308 376
#     4  11  24  43  66  92 124 162 207 259 316 374
#     4  11  22  36  60  92 125 157 198 252 306 361
#     4  11  23  39  61  89 119 154 199 248 299 357
#     4  10  20  36  57  84 121 160 197 241 295 359
#     4  10  22  39  57  82 120 161 196 237 296 362
#
# _framework density 20.432403999999998
#
# number of rings (size 3 to 8) (size 9 to 14) (size 15 to 20)
#    0.000    1.500    1.667    3.000    0.000    9.667 
#    0.000    1.667    0.000    0.000    0.000    0.000 
#    0.000    0.000    0.000    0.000    0.000    0.000 
#
# Total GULP energy -595186.938983 kJ/mol
# GULP energy per Si atom -12399.727895 kJ/mol
# Density = 2.038590 g / cm^3
# Si number density = 20.432404 Si / 1000 Ang^3
#
#
#
# Elastic Constant Matrix: (Units=GPa)
#
#
# Indices 1 2 3 4 5 6 
#
# 1 62.7597 39.1917 43.3072 0.0000 0.0000 0.0000
# 2 39.1917 103.8440 40.4640 0.0000 0.0000 0.0000
# 3 43.3072 40.4640 121.8239 0.0000 0.0000 0.0000
# 4 0.0000 0.0000 0.0000 20.6367 0.0000 0.0000
# 5 0.0000 0.0000 0.0000 0.0000 -20.3291 0.0000
# 6 0.0000 0.0000 0.0000 0.0000 0.0000 35.9327
#
#
#
# Elastic Compliance Matrix: (Units=1/GPa)
#
#
# Indices 1 2 3 4 5 6 
#
# 1 0.024656 -0.006766 -0.006518 0.000000 0.000000 0.000000
# 2 -0.006766 0.012918 -0.001886 0.000000 0.000000 0.000000
# 3 -0.006518 -0.001886 0.011152 0.000000 0.000000 0.000000
# 4 0.000000 0.000000 0.000000 0.048457 0.000000 0.000000
# 5 0.000000 0.000000 0.000000 0.000000 -0.049191 0.000000
# 6 0.000000 0.000000 0.000000 0.000000 0.000000 0.027830
#
#
# Mechanical properties :
#
#
# Convention : Reuss Voigt Hill
#
# Bulk Modulus (GPa) = 54.38351 59.37261 56.87806
# Shear Modulus (GPa) = 44.52726 18.27905 31.40315
#
# Velocity S-wave (km/s) = 4.67331 2.99425 3.92462
# Velocity P-wave (km/s) = 7.46952 6.40899 6.95949
#
# Compressibility (1/GPa) = 0.01838793
#
# Stress axis : x y z
#
# Youngs Moduli (GPa) = 40.55726 77.41100 89.67081
#
# Poissons Ratio (x) = 0.52375 0.58446
# Poissons Ratio (y) = 0.27440 0.16908
# Poissons Ratio (z) = 0.26435 0.14596
#
# Static dielectric constant tensor:
#      x y z
#    x 3.753480 0.000000 0.000000 
#    y 0.000000 3.740680 0.000000 
#    z 0.000000 0.000000 3.821890 
# 
# 
# High freq. dielectric constant tensor:
#      x y z
#    x 1.796930 0.000000 0.000000 
#    y 0.000000 1.799300 0.000000 
#    z 0.000000 0.000000 1.806010 
# 
# From -- ./inp_files/51339.got.cif
#   From: 2010.03.12/outbox.cif.g09.slc.cpg/sg63_26_cif.got.tgz:51339.got - 2010.04.10 19:34:48.
