data_PCOD8259973
_publ_section_title
;
Structure prediction by ZEFSAII (Michael W. Deem and Ramdas Pophale) SiO2 
 PCOD8259973
Probable space group: C M C M
;
_chemical_formula_sum "Si O2"
_cell_formula_units_Z 112
_cell_length_a 13.615238
_cell_length_b 27.547443
_cell_length_c 14.730352
_cell_angle_alpha 90.000000
_cell_angle_beta 90.000000
_cell_angle_gamma 90.000000
_cell_volume 5524.839366
_symmetry_space_group_name_H-M "C M C M"
_symmetry_group_IT_number 63
_symmetry_cell_setting 'orthorhombic'
loop_
_space_group_symop_operation_xyz
x,y,z
-x,-y,1/2+z
x,-y,-z
-x,y,1/2-z
-x,-y,-z
x,y,1/2-z
-x,y,z
x,-y,1/2+z
1/2+x,1/2+y,z
1/2-x,1/2-y,1/2+z
1/2+x,1/2-y,-z
1/2-x,1/2+y,1/2-z
1/2-x,1/2-y,-z
1/2+x,1/2+y,1/2-z
1/2-x,1/2+y,z
1/2+x,1/2-y,1/2+z
loop_
_atom_site_type_symbol
_atom_site_label
_atom_site_fract_x
_atom_site_fract_y
_atom_site_fract_z
Si Si1 0.698466 0.145881 0.033634
Si Si2 0.610424 0.228678 0.352149
Si Si3 0.613742 0.382719 0.641800
Si Si4 0.804324 0.982901 0.648288
Si Si5 0.890164 0.543251 0.428499
Si Si6 0.723553 0.326416 0.144840
Si Si7 0.607666 0.421088 0.357391
O O1 0.629207 0.182096 0.087450
O O2 0.807181 0.147751 0.081918
O O3 0.648111 0.093354 0.028841
O O4 0.692516 0.166029 0.930107
O O5 0.628719 0.211346 0.250000
O O6 0.500000 0.247098 0.366729
O O7 0.678691 0.274135 0.374836
O O8 0.636000 0.376124 0.750000
O O9 0.500000 0.367920 0.620998
O O10 0.631471 0.438321 0.609417
O O11 0.839679 0.989686 0.750000
O O12 0.687851 0.972016 0.648076
O O13 0.828504 0.034389 0.598997
O O14 0.890829 0.500000 0.500000
O O15 0.000000 0.549907 0.387718
O O16 0.759714 0.331517 0.250000
O O17 0.648431 0.368782 0.116158
O O18 0.604856 0.424711 0.250000
O O19 0.500000 0.425296 0.400086
#
# Coordination Sequence:
#
# PCOD8259973 Si02
#       7
#    16  16  16  16  16  16  16
#     4  11  21  36  58  82 108 145 187 225 270 329
#     4  10  21  38  60  85 111 139 177 228 280 327
#     4   9  18  32  50  77 113 146 177 218 267 320
#     4   9  17  30  50  76 105 139 179 221 268 323
#     4  10  21  36  52  73 105 142 181 228 275 318
#     4  10  21  36  55  80 111 144 179 225 277 328
#     4   9  16  28  49  76 107 144 182 220 268 328
#
# _framework density 20.272082000000001
#
# number of rings (size 3 to 8) (size 9 to 14) (size 15 to 20)
#    0.000    2.286    0.000    3.000    0.000    5.429 
#    0.000    0.000    0.000    7.286    0.000    2.000 
#    0.000    0.000    0.000    0.000    0.000    0.000 
#
# Total GULP energy -693769.294048 kJ/mol
# GULP energy per Si atom -12388.737394 kJ/mol
# Density = 2.022594 g / cm^3
# Si number density = 20.272082 Si / 1000 Ang^3
#
#
#
# Elastic Constant Matrix: (Units=GPa)
#
#
# Indices 1 2 3 4 5 6 
#
# 1 74.0888 16.6521 13.4096 0.0000 0.0000 0.0000
# 2 16.6521 103.3199 34.7387 0.0000 0.0000 0.0000
# 3 13.4096 34.7387 63.3761 0.0000 0.0000 0.0000
# 4 0.0000 0.0000 0.0000 24.0133 0.0000 0.0000
# 5 0.0000 0.0000 0.0000 0.0000 19.4931 0.0000
# 6 0.0000 0.0000 0.0000 0.0000 0.0000 26.1740
#
#
#
# Elastic Compliance Matrix: (Units=1/GPa)
#
#
# Indices 1 2 3 4 5 6 
#
# 1 0.014240 -0.001572 -0.002152 0.000000 0.000000 0.000000
# 2 -0.001572 0.012039 -0.006266 0.000000 0.000000 0.000000
# 3 -0.002152 -0.006266 0.019669 0.000000 0.000000 0.000000
# 4 0.000000 0.000000 0.000000 0.041644 0.000000 0.000000
# 5 0.000000 0.000000 0.000000 0.000000 0.051300 0.000000
# 6 0.000000 0.000000 0.000000 0.000000 0.000000 0.038206
#
#
# Mechanical properties :
#
#
# Convention : Reuss Voigt Hill
#
# Bulk Modulus (GPa) = 38.50807 41.15397 39.83102
# Shear Modulus (GPa) = 24.30334 25.66835 24.98585
#
# Velocity S-wave (km/s) = 3.46621 3.56222 3.51454
# Velocity P-wave (km/s) = 5.92084 6.10443 6.01334
#
# Compressibility (1/GPa) = 0.02596859
#
# Stress axis : x y z
#
# Youngs Moduli (GPa) = 70.22484 83.06407 50.84168
#
# Poissons Ratio (x) = 0.13055 0.10939
# Poissons Ratio (y) = 0.11037 0.31859
# Poissons Ratio (z) = 0.15109 0.52051
#
# Static dielectric constant tensor:
#      x y z
#    x 3.782620 0.000000 0.000000 
#    y 0.000000 3.796030 0.000000 
#    z 0.000000 0.000000 3.756540 
# 
# 
# High freq. dielectric constant tensor:
#      x y z
#    x 1.776150 0.000000 0.000000 
#    y 0.000000 1.798640 0.000000 
#    z 0.000000 0.000000 1.782240 
# 
# From -- ./inp_files/32553.got.cif
#   From: 2010.03.12/outbox.cif.g09.slc.cpg/sg63_17_cif.got.tgz:32553.got - 2010.04.10 19:34:48.
