data_PCOD8259621
_publ_section_title
;
Structure prediction by ZEFSAII (Michael W. Deem and Ramdas Pophale) SiO2 
 PCOD8259621
Probable space group: C M C M
;
_chemical_formula_sum "Si O2"
_cell_formula_units_Z 64
_cell_length_a 10.608736
_cell_length_b 17.151724
_cell_length_c 15.742729
_cell_angle_alpha 90.000000
_cell_angle_beta 90.000000
_cell_angle_gamma 90.000000
_cell_volume 2864.517244
_symmetry_space_group_name_H-M "C M C M"
_symmetry_group_IT_number 63
_symmetry_cell_setting 'orthorhombic'
loop_
_space_group_symop_operation_xyz
x,y,z
-x,-y,1/2+z
x,-y,-z
-x,y,1/2-z
-x,-y,-z
x,y,1/2-z
-x,y,z
x,-y,1/2+z
1/2+x,1/2+y,z
1/2-x,1/2-y,1/2+z
1/2+x,1/2-y,-z
1/2-x,1/2+y,1/2-z
1/2-x,1/2-y,-z
1/2+x,1/2+y,1/2-z
1/2-x,1/2+y,z
1/2+x,1/2-y,1/2+z
loop_
_atom_site_type_symbol
_atom_site_label
_atom_site_fract_x
_atom_site_fract_y
_atom_site_fract_z
Si Si1 0.000000 0.282243 0.593637
Si Si2 0.750684 0.548113 0.847474
Si Si3 0.500000 0.714837 0.095825
Si Si4 0.748667 0.217893 0.595311
Si Si5 0.500000 0.967256 0.906142
Si Si6 0.000000 0.044060 0.150501
O O1 0.875593 0.249140 0.641621
O O2 0.000000 0.247762 0.499191
O O3 0.000000 0.374681 0.593116
O O4 0.739872 0.574611 0.750000
O O5 0.759273 0.624508 0.905940
O O6 0.874382 0.495430 0.858510
O O7 0.625217 0.502641 0.875582
O O8 0.374693 0.747443 0.142960
O O9 0.500000 0.621941 0.095010
O O10 0.750000 0.250000 0.500000
O O11 0.500000 0.000000 0.000000
O O12 0.000000 0.065107 0.250000
#
# Coordination Sequence:
#
# PCOD8259621 Si02
#       6
#     8  16   8  16   8   8
#     4  10  21  37  58  87 121 157 205 257 313 373
#     4  11  24  43  65  93 129 171 216 267 325 386
#     4  10  20  37  58  87 122 156 205 259 310 369
#     4  10  20  38  60  89 124 161 208 257 314 380
#     4  12  23  41  67  94 127 166 213 268 323 390
#     4  10  23  41  62  90 127 169 212 256 314 384
#
# _framework density 22.342334000000001
#
# number of rings (size 3 to 8) (size 9 to 14) (size 15 to 20)
#    0.000    1.500    0.000    6.375    0.000    3.000 
#    0.000    8.125    0.000    0.000    0.000    0.000 
#    0.000    0.000    0.000    0.000    0.000    0.000 
#
# Total GULP energy -396754.126798 kJ/mol
# GULP energy per Si atom -12398.566462 kJ/mol
# Density = 2.229148 g / cm^3
# Si number density = 22.342334 Si / 1000 Ang^3
#
#
#
# Elastic Constant Matrix: (Units=GPa)
#
#
# Indices 1 2 3 4 5 6 
#
# 1 262.3701 87.7041 17.0432 0.0000 0.0000 0.0000
# 2 87.7041 205.5524 41.5924 0.0000 0.0000 0.0000
# 3 17.0432 41.5924 39.7603 0.0000 0.0000 0.0000
# 4 0.0000 0.0000 0.0000 20.0246 0.0000 0.0000
# 5 0.0000 0.0000 0.0000 0.0000 11.4791 0.0000
# 6 0.0000 0.0000 0.0000 0.0000 0.0000 46.2503
#
#
#
# Elastic Compliance Matrix: (Units=1/GPa)
#
#
# Indices 1 2 3 4 5 6 
#
# 1 0.004446 -0.001917 0.000100 0.000000 0.000000 0.000000
# 2 -0.001917 0.006998 -0.006499 0.000000 0.000000 0.000000
# 3 0.000100 -0.006499 0.031906 0.000000 0.000000 0.000000
# 4 0.000000 0.000000 0.000000 0.049939 0.000000 0.000000
# 5 0.000000 0.000000 0.000000 0.000000 0.087115 0.000000
# 6 0.000000 0.000000 0.000000 0.000000 0.000000 0.021621
#
#
# Mechanical properties :
#
#
# Convention : Reuss Voigt Hill
#
# Bulk Modulus (GPa) = 37.42826 88.92915 63.17870
# Shear Modulus (GPa) = 21.97202 39.64035 30.80618
#
# Velocity S-wave (km/s) = 3.13936 4.21673 3.71728
# Velocity P-wave (km/s) = 5.47077 7.97478 6.83836
#
# Compressibility (1/GPa) = 0.02671778
#
# Stress axis : x y z
#
# Youngs Moduli (GPa) = 224.93318 142.90093 31.34213
#
# Poissons Ratio (x) = 0.27395 -0.00313
# Poissons Ratio (y) = 0.43121 0.20368
# Poissons Ratio (z) = -0.02244 0.92865
#
# Static dielectric constant tensor:
#      x y z
#    x 10.129050 0.000000 0.000000 
#    y 0.000000 3.970940 0.000000 
#    z 0.000000 0.000000 3.581500 
# 
# 
# High freq. dielectric constant tensor:
#      x y z
#    x 1.923220 0.000000 0.000000 
#    y 0.000000 1.889190 0.000000 
#    z 0.000000 0.000000 1.839120 
# 
# From -- ./inp_files/41569.got.cif
#   From: 2010.03.12/outbox.cif.g09.slc.cpg/sg63_21_cif.got.tgz:41569.got - 2010.04.10 19:34:48.
