data_PCOD8259734
_publ_section_title
;
Structure prediction by ZEFSAII (Michael W. Deem and Ramdas Pophale) SiO2 
 PCOD8259734
Probable space group: C M C M
;
_chemical_formula_sum "Si O2"
_cell_formula_units_Z 72
_cell_length_a 27.209779
_cell_length_b 14.149911
_cell_length_c 9.962223
_cell_angle_alpha 90.000000
_cell_angle_beta 90.000000
_cell_angle_gamma 90.000000
_cell_volume 3835.614764
_symmetry_space_group_name_H-M "C M C M"
_symmetry_group_IT_number 63
_symmetry_cell_setting 'orthorhombic'
loop_
_space_group_symop_operation_xyz
x,y,z
-x,-y,1/2+z
x,-y,-z
-x,y,1/2-z
-x,-y,-z
x,y,1/2-z
-x,y,z
x,-y,1/2+z
1/2+x,1/2+y,z
1/2-x,1/2-y,1/2+z
1/2+x,1/2-y,-z
1/2-x,1/2+y,1/2-z
1/2-x,1/2-y,-z
1/2+x,1/2+y,1/2-z
1/2-x,1/2+y,z
1/2+x,1/2-y,1/2+z
loop_
_atom_site_type_symbol
_atom_site_label
_atom_site_fract_x
_atom_site_fract_y
_atom_site_fract_z
Si Si1 0.095105 0.790112 0.591625
Si Si2 0.613190 0.081823 0.906313
Si Si3 0.199293 0.155858 0.398959
Si Si4 0.000000 0.908019 0.909076
Si Si5 0.276262 0.125808 0.603901
O O1 0.101998 0.783970 0.750000
O O2 0.091085 0.681765 0.541378
O O3 0.144059 0.843210 0.537324
O O4 0.047249 0.847466 0.548502
O O5 0.600123 0.063313 0.750000
O O6 0.671542 0.080223 0.930754
O O7 0.589849 0.000000 0.000000
O O8 0.199934 0.110234 0.250000
O O9 0.235584 0.095153 0.493880
O O10 0.218492 0.261999 0.390828
O O11 0.000000 0.932548 0.750000
O O12 0.000000 0.000000 0.000000
O O13 0.258322 0.090228 0.750000
#
# Coordination Sequence:
#
# PCOD8259734 Si02
#       5
#    16  16  16   8  16
#     4   8  16  32  53  73  96 129 163 198 246 299
#     4   9  17  30  47  70 101 135 168 197 231 282
#     4   8  13  24  43  65  89 121 161 196 227 272
#     4  10  20  38  61  78  94 120 157 202 253 302
#     4   8  14  24  39  62  93 126 159 194 229 266
#
# _framework density 18.771435
#
# number of rings (size 3 to 8) (size 9 to 14) (size 15 to 20)
#    0.000    3.556    0.000    2.667    0.000    0.889 
#    0.000    7.222    0.000    5.333    0.000    0.000 
#    0.000    0.000    0.000    0.000    0.000    0.000 
#
# Total GULP energy -446095.205014 kJ/mol
# GULP energy per Si atom -12391.533473 kJ/mol
# Density = 1.872871 g / cm^3
# Si number density = 18.771435 Si / 1000 Ang^3
#
#
#
# Elastic Constant Matrix: (Units=GPa)
#
#
# Indices 1 2 3 4 5 6 
#
# 1 107.0783 41.3937 47.0203 0.0000 0.0000 0.0000
# 2 41.3937 78.4708 48.0533 0.0000 0.0000 0.0000
# 3 47.0203 48.0533 79.9671 0.0000 0.0000 0.0000
# 4 0.0000 0.0000 0.0000 24.8799 0.0000 0.0000
# 5 0.0000 0.0000 0.0000 0.0000 19.9497 0.0000
# 6 0.0000 0.0000 0.0000 0.0000 0.0000 14.4940
#
#
#
# Elastic Compliance Matrix: (Units=1/GPa)
#
#
# Indices 1 2 3 4 5 6 
#
# 1 0.013167 -0.003488 -0.005646 0.000000 0.000000 0.000000
# 2 -0.003488 0.021087 -0.010621 0.000000 0.000000 0.000000
# 3 -0.005646 -0.010621 0.022207 0.000000 0.000000 0.000000
# 4 0.000000 0.000000 0.000000 0.040193 0.000000 0.000000
# 5 0.000000 0.000000 0.000000 0.000000 0.050126 0.000000
# 6 0.000000 0.000000 0.000000 0.000000 0.000000 0.068994
#
#
# Mechanical properties :
#
#
# Convention : Reuss Voigt Hill
#
# Bulk Modulus (GPa) = 58.99121 59.82787 59.40954
# Shear Modulus (GPa) = 19.16192 20.46797 19.81494
#
# Velocity S-wave (km/s) = 3.19847 3.30567 3.25251
# Velocity P-wave (km/s) = 6.71822 6.81989 6.76925
#
# Compressibility (1/GPa) = 0.01695168
#
# Stress axis : x y z
#
# Youngs Moduli (GPa) = 75.94990 47.42164 45.03078
#
# Poissons Ratio (x) = 0.16541 0.25424
# Poissons Ratio (y) = 0.26492 0.47826
# Poissons Ratio (z) = 0.42880 0.50365
#
# Static dielectric constant tensor:
#      x y z
#    x 3.519270 0.000000 0.000000 
#    y 0.000000 3.218120 0.000000 
#    z 0.000000 0.000000 3.569360 
# 
# 
# High freq. dielectric constant tensor:
#      x y z
#    x 1.711730 0.000000 0.000000 
#    y 0.000000 1.716560 0.000000 
#    z 0.000000 0.000000 1.705330 
# 
# From -- ./inp_files/13934.got.cif
#   From: 2010.03.12/outbox.cif.g09.slc.cpg/sg63_7_cif.got.tgz:13934.got - 2010.04.10 19:34:48.
