data_PCOD8259023
_publ_section_title
;
Structure prediction by ZEFSAII (Michael W. Deem and Ramdas Pophale) SiO2 
 PCOD8259023
Probable space group: C M C M
;
_chemical_formula_sum "Si O2"
_cell_formula_units_Z 96
_cell_length_a 8.965812
_cell_length_b 20.590123
_cell_length_c 27.771567
_cell_angle_alpha 90.000000
_cell_angle_beta 90.000000
_cell_angle_gamma 90.000000
_cell_volume 5126.830442
_symmetry_space_group_name_H-M "C M C M"
_symmetry_group_IT_number 63
_symmetry_cell_setting 'orthorhombic'
loop_
_space_group_symop_operation_xyz
x,y,z
-x,-y,1/2+z
x,-y,-z
-x,y,1/2-z
-x,-y,-z
x,y,1/2-z
-x,y,z
x,-y,1/2+z
1/2+x,1/2+y,z
1/2-x,1/2-y,1/2+z
1/2+x,1/2-y,-z
1/2-x,1/2+y,1/2-z
1/2-x,1/2-y,-z
1/2+x,1/2+y,1/2-z
1/2-x,1/2+y,z
1/2+x,1/2-y,1/2+z
loop_
_atom_site_type_symbol
_atom_site_label
_atom_site_fract_x
_atom_site_fract_y
_atom_site_fract_z
Si Si1 0.325821 0.757578 0.608624
Si Si2 0.327187 0.500898 0.107112
Si Si3 0.674350 0.947440 0.804539
Si Si4 0.326814 0.310713 0.695479
Si Si5 0.324871 0.885059 0.549450
Si Si6 0.172226 0.130097 0.551116
O O1 0.500000 0.756239 0.620679
O O2 0.235668 0.756680 0.658943
O O3 0.279212 0.820607 0.578210
O O4 0.277494 0.694684 0.578788
O O5 0.500000 0.517417 0.112762
O O6 0.250946 0.501672 0.159626
O O7 0.256452 0.553160 0.071541
O O8 0.300261 0.429762 0.086441
O O9 0.708225 0.969674 0.750000
O O10 0.500000 0.944421 0.815413
O O11 0.738765 0.876626 0.815150
O O12 0.298537 0.286508 0.750000
O O13 0.500000 0.323779 0.686008
O O14 0.500000 0.897588 0.551751
O O15 0.276534 0.877058 0.494686
O O16 0.000000 0.133955 0.534593
#
# Coordination Sequence:
#
# PCOD8259023 Si02
#       6
#    16  16  16  16  16  16
#     4  10  21  38  58  82 113 149 188 229 277 330
#     4  11  22  37  58  83 113 149 188 231 276 328
#     4  10  20  35  57  84 112 143 182 229 279 330
#     4  10  20  34  56  86 114 143 183 228 275 329
#     4  11  22  36  58  85 110 145 192 237 279 327
#     4  10  23  40  56  79 114 153 190 228 275 332
#
# _framework density 18.725020000000001
#
# number of rings (size 3 to 8) (size 9 to 14) (size 15 to 20)
#    0.000    1.667    1.667    3.000    0.000    6.667 
#    0.000    0.833    0.000    5.000    0.000    0.000 
#    0.000    0.000    0.000    0.000    0.000    0.000 
#
# Total GULP energy -595434.205696 kJ/mol
# GULP energy per Si atom -12404.879285 kJ/mol
# Density = 1.868240 g / cm^3
# Si number density = 18.725020 Si / 1000 Ang^3
#
#
#
# Elastic Constant Matrix: (Units=GPa)
#
#
# Indices 1 2 3 4 5 6 
#
# 1 88.0190 32.7608 55.5224 0.0000 0.0000 0.0000
# 2 32.7608 54.6104 19.8361 0.0000 0.0000 0.0000
# 3 55.5224 19.8361 118.9268 0.0000 0.0000 0.0000
# 4 0.0000 0.0000 0.0000 -20.4246 0.0000 0.0000
# 5 0.0000 0.0000 0.0000 0.0000 39.6188 0.0000
# 6 0.0000 0.0000 0.0000 0.0000 0.0000 24.4405
#
#
#
# Elastic Compliance Matrix: (Units=1/GPa)
#
#
# Indices 1 2 3 4 5 6 
#
# 1 0.019481 -0.008924 -0.007606 0.000000 0.000000 0.000000
# 2 -0.008924 0.023580 0.000233 0.000000 0.000000 0.000000
# 3 -0.007606 0.000233 0.011921 0.000000 0.000000 0.000000
# 4 0.000000 0.000000 0.000000 -0.048960 0.000000 0.000000
# 5 0.000000 0.000000 0.000000 0.000000 0.025241 0.000000
# 6 0.000000 0.000000 0.000000 0.000000 0.000000 0.040916
#
#
# Mechanical properties :
#
#
# Convention : Reuss Voigt Hill
#
# Bulk Modulus (GPa) = 44.66718 53.08831 48.87774
# Shear Modulus (GPa) = 44.54990 18.95607 31.75299
#
# Velocity S-wave (km/s) = 4.88296 3.18518 4.12242
# Velocity P-wave (km/s) = 7.46305 6.47613 6.98704
#
# Compressibility (1/GPa) = 0.02238780
#
# Stress axis : x y z
#
# Youngs Moduli (GPa) = 51.33293 42.40863 83.88702
#
# Poissons Ratio (x) = 0.37844 0.63808
# Poissons Ratio (y) = 0.45807 -0.01956
# Poissons Ratio (z) = 0.39046 -0.00989
#
# Static dielectric constant tensor:
#      x y z
#    x 3.506740 0.000000 0.000000 
#    y 0.000000 3.337260 0.000000 
#    z 0.000000 0.000000 3.648300 
# 
# 
# High freq. dielectric constant tensor:
#      x y z
#    x 1.737250 0.000000 0.000000 
#    y 0.000000 1.710640 0.000000 
#    z 0.000000 0.000000 1.742590 
# 
# From -- ./inp_files/66914.got.cif
#   From: 2010.03.12/outbox.cif.g09.slc.cpg/sg63_34_cif.got.tgz:66914.got - 2010.04.10 19:34:48.
