data_PCOD8259825
_publ_section_title
;
Structure prediction by ZEFSAII (Michael W. Deem and Ramdas Pophale) SiO2 
 PCOD8259825
Probable space group: C M C M
;
_chemical_formula_sum "Si O2"
_cell_formula_units_Z 64
_cell_length_a 37.444251
_cell_length_b 9.288926
_cell_length_c 9.355905
_cell_angle_alpha 90.000000
_cell_angle_beta 90.000000
_cell_angle_gamma 90.000000
_cell_volume 3254.141655
_symmetry_space_group_name_H-M "C M C M"
_symmetry_group_IT_number 63
_symmetry_cell_setting 'orthorhombic'
loop_
_space_group_symop_operation_xyz
x,y,z
-x,-y,1/2+z
x,-y,-z
-x,y,1/2-z
-x,-y,-z
x,y,1/2-z
-x,y,z
x,-y,1/2+z
1/2+x,1/2+y,z
1/2-x,1/2-y,1/2+z
1/2+x,1/2-y,-z
1/2-x,1/2+y,1/2-z
1/2-x,1/2-y,-z
1/2+x,1/2+y,1/2-z
1/2-x,1/2+y,z
1/2+x,1/2-y,1/2+z
loop_
_atom_site_type_symbol
_atom_site_label
_atom_site_fract_x
_atom_site_fract_y
_atom_site_fract_z
Si Si1 0.396479 0.145214 0.412673
Si Si2 0.725132 0.595279 0.750000
Si Si3 0.705552 0.728535 0.250000
Si Si4 0.168180 0.838374 0.475766
Si Si5 0.960974 0.347756 0.418920
O O1 0.408323 0.108019 0.250000
O O2 0.362557 0.248622 0.399585
O O3 0.428279 0.232005 0.499036
O O4 0.386926 0.000000 0.500000
O O5 0.726252 0.422877 0.750000
O O6 0.766003 0.643670 0.750000
O O7 0.704671 0.655815 0.613210
O O8 0.678632 0.744345 0.381124
O O9 0.153603 0.000000 0.500000
O O10 0.961349 0.500000 0.500000
O O11 0.953110 0.363768 0.250000
O O12 0.000000 0.273222 0.441005
#
# Coordination Sequence:
#
# PCOD8259825 Si02
#       5
#    16   8   8  16  16
#     4  11  22  35  55  84 115 145 187 232 272 325
#     4  10  20  40  54  84 107 140 183 227 276 333
#     4  10  22  34  62  78 109 142 179 227 280 331
#     4  10  22  39  57  80 111 149 186 224 275 332
#     4   9  17  30  50  78 112 146 181 223 273 325
#
# _framework density 19.667244
#
# number of rings (size 3 to 8) (size 9 to 14) (size 15 to 20)
#    0.000    2.000    1.250    3.750    3.500    3.500 
#    0.000    0.000    0.000    0.750    0.000    0.000 
#    0.000    0.000    0.000    0.000    0.000    0.000 
#
# Total GULP energy -396496.994004 kJ/mol
# GULP energy per Si atom -12390.531063 kJ/mol
# Density = 1.962248 g / cm^3
# Si number density = 19.667244 Si / 1000 Ang^3
#
#
#
# Elastic Constant Matrix: (Units=GPa)
#
#
# Indices 1 2 3 4 5 6 
#
# 1 90.7163 27.2151 25.0095 0.0000 0.0000 0.0000
# 2 27.2151 37.7310 13.9640 0.0000 0.0000 0.0000
# 3 25.0095 13.9640 143.1014 0.0000 0.0000 0.0000
# 4 0.0000 0.0000 0.0000 29.2277 0.0000 0.0000
# 5 0.0000 0.0000 0.0000 0.0000 124.0929 0.0000
# 6 0.0000 0.0000 0.0000 0.0000 0.0000 14.5431
#
#
#
# Elastic Compliance Matrix: (Units=1/GPa)
#
#
# Indices 1 2 3 4 5 6 
#
# 1 0.014395 -0.009806 -0.001559 0.000000 0.000000 0.000000
# 2 -0.009806 0.034176 -0.001621 0.000000 0.000000 0.000000
# 3 -0.001559 -0.001621 0.007419 0.000000 0.000000 0.000000
# 4 0.000000 0.000000 0.000000 0.034214 0.000000 0.000000
# 5 0.000000 0.000000 0.000000 0.000000 0.008058 0.000000
# 6 0.000000 0.000000 0.000000 0.000000 0.000000 0.068761
#
#
# Mechanical properties :
#
#
# Convention : Reuss Voigt Hill
#
# Bulk Modulus (GPa) = 33.31352 44.88065 39.09709
# Shear Modulus (GPa) = 24.63028 47.26340 35.94684
#
# Velocity S-wave (km/s) = 3.54270 4.90752 4.27986
# Velocity P-wave (km/s) = 5.80600 7.41493 6.65923
#
# Compressibility (1/GPa) = 0.03001784
#
# Stress axis : x y z
#
# Youngs Moduli (GPa) = 69.46858 29.25991 134.79459
#
# Poissons Ratio (x) = 0.28692 0.21013
# Poissons Ratio (y) = 0.68121 0.21853
# Poissons Ratio (z) = 0.10829 0.04744
#
# Static dielectric constant tensor:
#      x y z
#    x 4.019570 0.000000 0.000000 
#    y 0.000000 3.097670 0.000000 
#    z 0.000000 0.000000 3.848580 
# 
# 
# High freq. dielectric constant tensor:
#      x y z
#    x 1.777040 0.000000 0.000000 
#    y 0.000000 1.711590 0.000000 
#    z 0.000000 0.000000 1.792430 
# 
# From -- ./inp_files/13748.got.cif
#   From: 2010.03.12/outbox.cif.g09.slc.cpg/sg63_7_cif.got.tgz:13748.got - 2010.04.10 19:34:48.
