data_PCOD8259808
_publ_section_title
;
Structure prediction by ZEFSAII (Michael W. Deem and Ramdas Pophale) SiO2 
 PCOD8259808
Probable space group: C M C M
;
_chemical_formula_sum "Si O2"
_cell_formula_units_Z 80
_cell_length_a 9.098341
_cell_length_b 24.820025
_cell_length_c 18.297150
_cell_angle_alpha 90.000000
_cell_angle_beta 90.000000
_cell_angle_gamma 90.000000
_cell_volume 4131.881645
_symmetry_space_group_name_H-M "C M C M"
_symmetry_group_IT_number 63
_symmetry_cell_setting 'orthorhombic'
loop_
_space_group_symop_operation_xyz
x,y,z
-x,-y,1/2+z
x,-y,-z
-x,y,1/2-z
-x,-y,-z
x,y,1/2-z
-x,y,z
x,-y,1/2+z
1/2+x,1/2+y,z
1/2-x,1/2-y,1/2+z
1/2+x,1/2-y,-z
1/2-x,1/2+y,1/2-z
1/2-x,1/2-y,-z
1/2+x,1/2+y,1/2-z
1/2-x,1/2+y,z
1/2+x,1/2-y,1/2+z
loop_
_atom_site_type_symbol
_atom_site_label
_atom_site_fract_x
_atom_site_fract_y
_atom_site_fract_z
Si Si1 0.330017 0.605321 0.581178
Si Si2 0.827020 0.516411 0.833678
Si Si3 0.826647 0.770859 0.427480
Si Si4 0.830480 0.812794 0.665252
Si Si5 0.329415 0.579122 0.415488
O O1 0.500000 0.598116 0.601224
O O2 0.235069 0.573716 0.640527
O O3 0.283083 0.667396 0.585194
O O4 0.297516 0.581588 0.501258
O O5 0.780697 0.506785 0.750000
O O6 0.763221 0.469130 0.882859
O O7 0.000000 0.517259 0.843431
O O8 0.750000 0.750000 0.500000
O O9 0.769139 0.737480 0.358139
O O10 0.000000 0.763914 0.436640
O O11 0.805032 0.824495 0.750000
O O12 0.778346 0.865103 0.620869
O O13 0.000000 0.799478 0.647454
O O14 0.500000 0.568310 0.398739
#
# Coordination Sequence:
#
# PCOD8259808 Si02
#       5
#    16  16  16  16  16
#     4  10  22  40  63  88 115 153 202 245 289 355
#     4  11  25  41  57  85 123 157 195 245 300 353
#     4  11  22  39  62  88 121 157 198 247 295 351
#     4  10  21  38  61  90 124 160 198 243 299 357
#     4  10  20  39  64  88 116 154 200 245 293 354
#
# _framework density 19.361640000000001
#
# number of rings (size 3 to 8) (size 9 to 14) (size 15 to 20)
#    0.000    1.600    2.000    2.400    0.000    9.200 
#    0.000    4.000    0.000    0.000    0.000    0.000 
#    0.000    0.000    0.000    0.000    0.000    0.000 
#
# Total GULP energy -496246.846545 kJ/mol
# GULP energy per Si atom -12406.171164 kJ/mol
# Density = 1.931757 g / cm^3
# Si number density = 19.361640 Si / 1000 Ang^3
#
#
#
# Elastic Constant Matrix: (Units=GPa)
#
#
# Indices 1 2 3 4 5 6 
#
# 1 66.1006 53.3959 26.8551 0.0000 0.0000 0.0000
# 2 53.3959 127.5412 28.8176 0.0000 0.0000 0.0000
# 3 26.8551 28.8176 48.6061 0.0000 0.0000 0.0000
# 4 0.0000 0.0000 0.0000 25.4853 0.0000 0.0000
# 5 0.0000 0.0000 0.0000 0.0000 33.8971 0.0000
# 6 0.0000 0.0000 0.0000 0.0000 0.0000 37.7805
#
#
#
# Elastic Compliance Matrix: (Units=1/GPa)
#
#
# Indices 1 2 3 4 5 6 
#
# 1 0.025941 -0.008801 -0.009115 0.000000 0.000000 0.000000
# 2 -0.008801 0.012039 -0.002275 0.000000 0.000000 0.000000
# 3 -0.009115 -0.002275 0.026958 0.000000 0.000000 0.000000
# 4 0.000000 0.000000 0.000000 0.039238 0.000000 0.000000
# 5 0.000000 0.000000 0.000000 0.000000 0.029501 0.000000
# 6 0.000000 0.000000 0.000000 0.000000 0.000000 0.026469
#
#
# Mechanical properties :
#
#
# Convention : Reuss Voigt Hill
#
# Bulk Modulus (GPa) = 40.72167 51.15390 45.93778
# Shear Modulus (GPa) = 23.95628 28.31119 26.13374
#
# Velocity S-wave (km/s) = 3.52135 3.82806 3.67791
# Velocity P-wave (km/s) = 6.13278 6.78353 6.46635
#
# Compressibility (1/GPa) = 0.02455695
#
# Stress axis : x y z
#
# Youngs Moduli (GPa) = 38.54930 83.06161 37.09430
#
# Poissons Ratio (x) = 0.73102 0.33810
# Poissons Ratio (y) = 0.33927 0.08440
# Poissons Ratio (z) = 0.35136 0.18899
#
# Static dielectric constant tensor:
#      x y z
#    x 3.571310 0.000000 0.000000 
#    y 0.000000 3.737330 0.000000 
#    z 0.000000 0.000000 3.604460 
# 
# 
# High freq. dielectric constant tensor:
#      x y z
#    x 1.750000 0.000000 0.000000 
#    y 0.000000 1.767190 0.000000 
#    z 0.000000 0.000000 1.760930 
# 
# From -- ./inp_files/40515.got.cif
#   From: 2010.03.12/outbox.cif.g09.slc.cpg/sg63_21_cif.got.tgz:40515.got - 2010.04.10 19:34:48.
