data_PCOD8259401
_publ_section_title
;
Structure prediction by ZEFSAII (Michael W. Deem and Ramdas Pophale) SiO2 
 PCOD8259401
Probable space group: C M C M
;
_chemical_formula_sum "Si O2"
_cell_formula_units_Z 96
_cell_length_a 9.164369
_cell_length_b 29.449762
_cell_length_c 18.829212
_cell_angle_alpha 90.000000
_cell_angle_beta 90.000000
_cell_angle_gamma 90.000000
_cell_volume 5081.787518
_symmetry_space_group_name_H-M "C M C M"
_symmetry_group_IT_number 63
_symmetry_cell_setting 'orthorhombic'
loop_
_space_group_symop_operation_xyz
x,y,z
-x,-y,1/2+z
x,-y,-z
-x,y,1/2-z
-x,-y,-z
x,y,1/2-z
-x,y,z
x,-y,1/2+z
1/2+x,1/2+y,z
1/2-x,1/2-y,1/2+z
1/2+x,1/2-y,-z
1/2-x,1/2+y,1/2-z
1/2-x,1/2-y,-z
1/2+x,1/2+y,1/2-z
1/2-x,1/2+y,z
1/2+x,1/2-y,1/2+z
loop_
_atom_site_type_symbol
_atom_site_label
_atom_site_fract_x
_atom_site_fract_y
_atom_site_fract_z
Si Si1 0.330725 0.413992 0.053839
Si Si2 0.667432 0.512177 0.831881
Si Si3 0.673209 0.065921 0.413980
Si Si4 0.669775 0.688254 0.553400
Si Si5 0.832608 0.859088 0.669181
Si Si6 0.166642 0.770063 0.902935
O O1 0.500000 0.413434 0.030389
O O2 0.307365 0.440631 0.127187
O O3 0.271899 0.362817 0.065631
O O4 0.239849 0.439441 0.992551
O O5 0.708310 0.520479 0.750000
O O6 0.500000 0.495759 0.839869
O O7 0.771927 0.474077 0.863493
O O8 0.500000 0.064409 0.418883
O O9 0.724195 0.113616 0.381251
O O10 0.500000 0.690076 0.568558
O O11 0.742968 0.723768 0.608116
O O12 0.712432 0.703197 0.474178
O O13 0.804396 0.873506 0.750000
O O14 0.802555 0.805195 0.661025
O O15 0.000000 0.869515 0.646516
O O16 0.000000 0.754876 0.906417
#
# Coordination Sequence:
#
# PCOD8259401 Si02
#       6
#    16  16  16  16  16  16
#     4  10  20  38  61  83 109 144 189 233 270 322
#     4  10  22  40  61  82 107 145 188 227 273 331
#     4  12  24  36  55  84 115 144 181 230 284 334
#     4   9  17  31  53  79 107 138 175 221 269 312
#     4  10  20  36  57  79 109 150 191 229 274 332
#     4   9  17  31  51  77 108 140 178 220 266 320
#
# _framework density 18.890989999999999
#
# number of rings (size 3 to 8) (size 9 to 14) (size 15 to 20)
#    0.000    2.000    1.667    2.500    0.000    6.667 
#    0.000    0.833    0.000    1.000    0.000    0.000 
#    0.000    0.000    0.000    0.000    0.000    0.000 
#
# Total GULP energy -595270.917982 kJ/mol
# GULP energy per Si atom -12401.477458 kJ/mol
# Density = 1.884799 g / cm^3
# Si number density = 18.890990 Si / 1000 Ang^3
#
#
#
# Elastic Constant Matrix: (Units=GPa)
#
#
# Indices 1 2 3 4 5 6 
#
# 1 84.9736 51.8313 48.5788 0.0000 0.0000 0.0000
# 2 51.8313 114.9787 54.9049 0.0000 0.0000 0.0000
# 3 48.5788 54.9049 97.5651 0.0000 0.0000 0.0000
# 4 0.0000 0.0000 0.0000 25.8553 0.0000 0.0000
# 5 0.0000 0.0000 0.0000 0.0000 15.4791 0.0000
# 6 0.0000 0.0000 0.0000 0.0000 0.0000 31.3831
#
#
#
# Elastic Compliance Matrix: (Units=1/GPa)
#
#
# Indices 1 2 3 4 5 6 
#
# 1 0.018639 -0.005430 -0.006225 0.000000 0.000000 0.000000
# 2 -0.005430 0.013475 -0.004880 0.000000 0.000000 0.000000
# 3 -0.006225 -0.004880 0.016095 0.000000 0.000000 0.000000
# 4 0.000000 0.000000 0.000000 0.038677 0.000000 0.000000
# 5 0.000000 0.000000 0.000000 0.000000 0.064603 0.000000
# 6 0.000000 0.000000 0.000000 0.000000 0.000000 0.031864
#
#
# Mechanical properties :
#
#
# Convention : Reuss Voigt Hill
#
# Bulk Modulus (GPa) = 66.04784 67.57193 66.80989
# Shear Modulus (GPa) = 22.57653 24.02368 23.30010
#
# Velocity S-wave (km/s) = 3.46077 3.56996 3.51579
# Velocity P-wave (km/s) = 7.14197 7.26910 7.20582
#
# Compressibility (1/GPa) = 0.01514054
#
# Stress axis : x y z
#
# Youngs Moduli (GPa) = 53.65048 74.21119 62.13089
#
# Poissons Ratio (x) = 0.40295 0.38677
# Poissons Ratio (y) = 0.29131 0.30317
# Poissons Ratio (z) = 0.33398 0.36212
#
# Static dielectric constant tensor:
#      x y z
#    x 3.355920 0.000000 0.000000 
#    y 0.000000 3.620080 0.000000 
#    z 0.000000 0.000000 3.381360 
# 
# 
# High freq. dielectric constant tensor:
#      x y z
#    x 1.717740 0.000000 0.000000 
#    y 0.000000 1.743090 0.000000 
#    z 0.000000 0.000000 1.716970 
# 
# From -- ./inp_files/51292.got.cif
#   From: 2010.03.12/outbox.cif.g09.slc.cpg/sg63_26_cif.got.tgz:51292.got - 2010.04.10 19:34:48.
