data_PCOD8259661
_publ_section_title
;
Structure prediction by ZEFSAII (Michael W. Deem and Ramdas Pophale) SiO2 
 PCOD8259661
Probable space group: C M C M
;
_chemical_formula_sum "Si O2"
_cell_formula_units_Z 96
_cell_length_a 22.730228
_cell_length_b 11.270801
_cell_length_c 17.865710
_cell_angle_alpha 90.000000
_cell_angle_beta 90.000000
_cell_angle_gamma 90.000000
_cell_volume 4576.978307
_symmetry_space_group_name_H-M "C M C M"
_symmetry_group_IT_number 63
_symmetry_cell_setting 'orthorhombic'
loop_
_space_group_symop_operation_xyz
x,y,z
-x,-y,1/2+z
x,-y,-z
-x,y,1/2-z
-x,-y,-z
x,y,1/2-z
-x,y,z
x,-y,1/2+z
1/2+x,1/2+y,z
1/2-x,1/2-y,1/2+z
1/2+x,1/2-y,-z
1/2-x,1/2+y,1/2-z
1/2-x,1/2-y,-z
1/2+x,1/2+y,1/2-z
1/2-x,1/2+y,z
1/2+x,1/2-y,1/2+z
loop_
_atom_site_type_symbol
_atom_site_label
_atom_site_fract_x
_atom_site_fract_y
_atom_site_fract_z
Si Si1 0.064354 0.246439 0.965380
Si Si2 0.565107 0.836543 0.369290
Si Si3 0.163422 0.929057 0.432072
Si Si4 0.776002 0.278012 0.839815
Si Si5 0.150084 0.858880 0.831450
Si Si6 0.638465 0.047297 0.084472
O O1 0.108297 0.136344 0.970037
O O2 0.090734 0.347664 0.912565
O O3 0.000000 0.207028 0.935127
O O4 0.057271 0.304780 0.045172
O O5 0.500000 0.864480 0.335495
O O6 0.593821 0.726438 0.326457
O O7 0.609916 0.946737 0.363085
O O8 0.204297 0.839010 0.385696
O O9 0.197033 0.000000 0.500000
O O10 0.134922 0.025580 0.378204
O O11 0.788182 0.265492 0.750000
O O12 0.707230 0.287155 0.860499
O O13 0.804391 0.398939 0.873554
O O14 0.165511 0.907684 0.750000
O O15 0.653321 0.000000 0.000000
#
# Coordination Sequence:
#
# PCOD8259661 Si02
#       6
#    16  16  16  16  16  16
#     4   9  18  36  61  90 123 157 197 247 307 363
#     4  10  20  37  60  90 125 159 203 253 305 364
#     4  11  22  40  63  92 116 155 209 260 302 362
#     4  10  24  43  63  86 125 169 205 251 315 381
#     4  11  25  41  58  86 124 164 201 248 315 374
#     4   9  19  37  63  97 122 159 205 258 302 358
#
# _framework density 20.974536000000001
#
# number of rings (size 3 to 8) (size 9 to 14) (size 15 to 20)
#    0.000    2.000    1.667    1.000    2.333    5.333 
#    0.000    0.000    0.000   16.000    0.000    0.000 
#    0.000    0.000    0.000    0.000    0.000    0.000 
#
# Total GULP energy -594835.552847 kJ/mol
# GULP energy per Si atom -12392.407351 kJ/mol
# Density = 2.092680 g / cm^3
# Si number density = 20.974536 Si / 1000 Ang^3
#
#
#
# Elastic Constant Matrix: (Units=GPa)
#
#
# Indices 1 2 3 4 5 6 
#
# 1 81.9175 18.3658 6.4919 0.0000 0.0000 0.0000
# 2 18.3658 111.8487 24.3318 0.0000 0.0000 0.0000
# 3 6.4919 24.3318 44.1236 0.0000 0.0000 0.0000
# 4 0.0000 0.0000 0.0000 20.9991 0.0000 0.0000
# 5 0.0000 0.0000 0.0000 0.0000 -25.5898 0.0000
# 6 0.0000 0.0000 0.0000 0.0000 0.0000 9.8206
#
#
#
# Elastic Compliance Matrix: (Units=1/GPa)
#
#
# Indices 1 2 3 4 5 6 
#
# 1 0.012700 -0.001908 -0.000817 0.000000 0.000000 0.000000
# 2 -0.001908 0.010446 -0.005480 0.000000 0.000000 0.000000
# 3 -0.000817 -0.005480 0.025806 0.000000 0.000000 0.000000
# 4 0.000000 0.000000 0.000000 0.047621 0.000000 0.000000
# 5 0.000000 0.000000 0.000000 0.000000 -0.039078 0.000000
# 6 0.000000 0.000000 0.000000 0.000000 0.000000 0.101827
#
#
# Mechanical properties :
#
#
# Convention : Reuss Voigt Hill
#
# Bulk Modulus (GPa) = 30.72820 37.36321 34.04571
# Shear Modulus (GPa) = 26.79855 13.62598 20.21227
#
# Velocity S-wave (km/s) = 3.57833 2.55158 3.10765
# Velocity P-wave (km/s) = 5.63513 5.15102 5.39850
#
# Compressibility (1/GPa) = 0.03254340
#
# Stress axis : x y z
#
# Youngs Moduli (GPa) = 78.74127 95.73071 38.75139
#
# Poissons Ratio (x) = 0.18263 0.03164
# Poissons Ratio (y) = 0.15022 0.21235
# Poissons Ratio (z) = 0.06430 0.52458
#
# Static dielectric constant tensor:
#      x y z
#    x 3.991420 0.000000 0.000000 
#    y 0.000000 3.885760 0.000000 
#    z 0.000000 0.000000 3.779130 
# 
# 
# High freq. dielectric constant tensor:
#      x y z
#    x 1.819630 0.000000 0.000000 
#    y 0.000000 1.828320 0.000000 
#    z 0.000000 0.000000 1.810540 
# 
# From -- ./inp_files/47998.got.cif
#   From: 2010.03.12/outbox.cif.g09.slc.cpg/sg63_24_cif.got.tgz:47998.got - 2010.04.10 19:34:48.
