data_PCOD8259155
_publ_section_title
;
Structure prediction by ZEFSAII (Michael W. Deem and Ramdas Pophale) SiO2 
 PCOD8259155
Probable space group: C M C M
;
_chemical_formula_sum "Si O2"
_cell_formula_units_Z 96
_cell_length_a 8.581695
_cell_length_b 22.673195
_cell_length_c 23.710368
_cell_angle_alpha 90.000000
_cell_angle_beta 90.000000
_cell_angle_gamma 90.000000
_cell_volume 4613.431675
_symmetry_space_group_name_H-M "C M C M"
_symmetry_group_IT_number 63
_symmetry_cell_setting 'orthorhombic'
loop_
_space_group_symop_operation_xyz
x,y,z
-x,-y,1/2+z
x,-y,-z
-x,y,1/2-z
-x,-y,-z
x,y,1/2-z
-x,y,z
x,-y,1/2+z
1/2+x,1/2+y,z
1/2-x,1/2-y,1/2+z
1/2+x,1/2-y,-z
1/2-x,1/2+y,1/2-z
1/2-x,1/2-y,-z
1/2+x,1/2+y,1/2-z
1/2-x,1/2+y,z
1/2+x,1/2-y,1/2+z
loop_
_atom_site_type_symbol
_atom_site_label
_atom_site_fract_x
_atom_site_fract_y
_atom_site_fract_z
Si Si1 0.316982 0.658342 0.188997
Si Si2 0.682653 0.112886 0.472616
Si Si3 0.815871 0.927255 0.313587
Si Si4 0.814573 0.955341 0.875347
Si Si5 0.318176 0.353568 0.082585
Si Si6 0.682008 0.272001 0.916089
O O1 0.239857 0.670164 0.250000
O O2 0.500000 0.650151 0.194945
O O3 0.250987 0.597801 0.163464
O O4 0.278489 0.713350 0.148981
O O5 0.500000 0.120595 0.464931
O O6 0.741299 0.055956 0.437347
O O7 0.727885 0.104222 0.538287
O O8 0.768459 0.172976 0.453968
O O9 0.744240 0.920836 0.250000
O O10 0.768769 0.871833 0.353409
O O11 0.000000 0.932606 0.307532
O O12 0.752465 0.985325 0.345797
O O13 0.000000 0.955573 0.882047
O O14 0.500000 0.364674 0.073968
O O15 0.278265 0.285981 0.069052
O O16 0.500000 0.259536 0.925761
#
# Coordination Sequence:
#
# PCOD8259155 Si02
#       6
#    16  16  16  16  16  16
#     4   8  14  26  49  79 105 132 172 222 269 315
#     4  11  22  37  57  81 110 141 179 227 279 328
#     4   9  19  36  59  85 112 146 185 222 263 317
#     4   9  17  33  58  84 109 139 180 226 270 319
#     4  11  22  36  55  80 112 147 183 222 267 322
#     4  10  20  35  55  80 110 144 184 227 275 328
#
# _framework density 20.808806000000001
#
# number of rings (size 3 to 8) (size 9 to 14) (size 15 to 20)
#    0.000    2.333    0.000    4.500    0.000    3.333 
#    0.000    5.000    0.000   20.000    0.000    0.000 
#    0.000    0.000    0.000    0.000    0.000    0.000 
#
# Total GULP energy -594982.061984 kJ/mol
# GULP energy per Si atom -12395.459625 kJ/mol
# Density = 2.076144 g / cm^3
# Si number density = 20.808806 Si / 1000 Ang^3
#
#
#
# Elastic Constant Matrix: (Units=GPa)
#
#
# Indices 1 2 3 4 5 6 
#
# 1 46.9289 10.9609 24.1569 0.0000 0.0000 0.0000
# 2 10.9609 57.8630 22.8330 0.0000 0.0000 0.0000
# 3 24.1569 22.8330 126.7950 0.0000 0.0000 0.0000
# 4 0.0000 0.0000 0.0000 22.6389 0.0000 0.0000
# 5 0.0000 0.0000 0.0000 0.0000 17.5894 0.0000
# 6 0.0000 0.0000 0.0000 0.0000 0.0000 19.8534
#
#
#
# Elastic Compliance Matrix: (Units=1/GPa)
#
#
# Indices 1 2 3 4 5 6 
#
# 1 0.024089 -0.002963 -0.004056 0.000000 0.000000 0.000000
# 2 -0.002963 0.018969 -0.002851 0.000000 0.000000 0.000000
# 3 -0.004056 -0.002851 0.009173 0.000000 0.000000 0.000000
# 4 0.000000 0.000000 0.000000 0.044172 0.000000 0.000000
# 5 0.000000 0.000000 0.000000 0.000000 0.056852 0.000000
# 6 0.000000 0.000000 0.000000 0.000000 0.000000 0.050369
#
#
# Mechanical properties :
#
#
# Convention : Reuss Voigt Hill
#
# Bulk Modulus (GPa) = 30.77831 38.60983 34.69407
# Shear Modulus (GPa) = 21.34989 23.59208 22.47098
#
# Velocity S-wave (km/s) = 3.20660 3.37078 3.28972
# Velocity P-wave (km/s) = 5.34161 5.80899 5.58020
#
# Compressibility (1/GPa) = 0.03249041
#
# Stress axis : x y z
#
# Youngs Moduli (GPa) = 41.51350 52.71875 109.01635
#
# Poissons Ratio (x) = 0.15618 0.44215
# Poissons Ratio (y) = 0.12299 0.31085
# Poissons Ratio (z) = 0.16837 0.15032
#
# Static dielectric constant tensor:
#      x y z
#    x 3.310370 0.000000 0.000000 
#    y 0.000000 3.644860 0.000000 
#    z 0.000000 0.000000 4.800190 
# 
# 
# High freq. dielectric constant tensor:
#      x y z
#    x 1.775340 0.000000 0.000000 
#    y 0.000000 1.801940 0.000000 
#    z 0.000000 0.000000 1.833250 
# 
# From -- ./inp_files/59922.got.cif
#   From: 2010.03.12/outbox.cif.g09.slc.cpg/sg63_30_cif.got.tgz:59922.got - 2010.04.10 19:34:48.
