data_PCOD8259270
_publ_section_title
;
Structure prediction by ZEFSAII (Michael W. Deem and Ramdas Pophale) SiO2 
 PCOD8259270
Probable space group: C M C M
;
_chemical_formula_sum "Si O2"
_cell_formula_units_Z 80
_cell_length_a 7.810814
_cell_length_b 28.884073
_cell_length_c 18.715435
_cell_angle_alpha 90.000000
_cell_angle_beta 90.000000
_cell_angle_gamma 90.000000
_cell_volume 4222.354138
_symmetry_space_group_name_H-M "C M C M"
_symmetry_group_IT_number 63
_symmetry_cell_setting 'orthorhombic'
loop_
_space_group_symop_operation_xyz
x,y,z
-x,-y,1/2+z
x,-y,-z
-x,y,1/2-z
-x,-y,-z
x,y,1/2-z
-x,y,z
x,-y,1/2+z
1/2+x,1/2+y,z
1/2-x,1/2-y,1/2+z
1/2+x,1/2-y,-z
1/2-x,1/2+y,1/2-z
1/2-x,1/2-y,-z
1/2+x,1/2+y,1/2-z
1/2-x,1/2+y,z
1/2+x,1/2-y,1/2+z
loop_
_atom_site_type_symbol
_atom_site_label
_atom_site_fract_x
_atom_site_fract_y
_atom_site_fract_z
Si Si1 0.810722 0.016158 0.335021
Si Si2 0.806659 0.696075 0.061244
Si Si3 0.500000 0.149868 0.834579
Si Si4 0.500000 0.044737 0.664850
Si Si5 0.193094 0.201450 0.591363
Si Si6 0.800000 0.879808 0.669368
O O1 0.815766 0.014820 0.250000
O O2 0.669554 0.980770 0.365688
O O3 0.000000 0.002524 0.364464
O O4 0.762450 0.068302 0.358634
O O5 0.751097 0.744689 0.096890
O O6 0.796892 0.655633 0.118765
O O7 0.000000 0.700829 0.033375
O O8 0.694169 0.685129 0.991401
O O9 0.500000 0.152292 0.750000
O O10 0.500000 0.097117 0.862582
O O11 0.673972 0.173017 0.861491
O O12 0.500000 0.042080 0.750000
O O13 0.000000 0.193472 0.620863
O O14 0.730191 0.873582 0.750000
O O15 0.000000 0.868959 0.667025
#
# Coordination Sequence:
#
# PCOD8259270 Si02
#       6
#    16  16   8   8  16  16
#     4   8  15  29  48  74 109 145 182 222 272 338
#     4  10  20  35  58  83 110 150 195 228 271 340
#     4  11  24  40  59  87 116 144 189 242 286 322
#     4   9  18  32  53  77 105 146 185 225 279 328
#     4  10  22  40  59  80 110 151 195 231 274 338
#     4   9  18  30  49  83 119 148 181 228 286 337
#
# _framework density 18.946777000000001
#
# number of rings (size 3 to 8) (size 9 to 14) (size 15 to 20)
#    0.000    2.600    1.000    1.800    4.200    2.400 
#    0.000    4.000    0.000    2.400    0.000    4.200 
#    0.000    0.000    0.000    0.000    0.000    0.000 
#
# Total GULP energy -495915.977259 kJ/mol
# GULP energy per Si atom -12397.899431 kJ/mol
# Density = 1.890365 g / cm^3
# Si number density = 18.946777 Si / 1000 Ang^3
#
#
#
# Elastic Constant Matrix: (Units=GPa)
#
#
# Indices 1 2 3 4 5 6 
#
# 1 116.8730 73.8967 35.5353 0.0000 0.0000 0.0000
# 2 73.8967 133.8023 45.5747 0.0000 0.0000 0.0000
# 3 35.5353 45.5747 49.2938 0.0000 0.0000 0.0000
# 4 0.0000 0.0000 0.0000 -6.9484 0.0000 0.0000
# 5 0.0000 0.0000 0.0000 0.0000 24.9478 0.0000
# 6 0.0000 0.0000 0.0000 0.0000 0.0000 28.4424
#
#
#
# Elastic Compliance Matrix: (Units=1/GPa)
#
#
# Indices 1 2 3 4 5 6 
#
# 1 0.013721 -0.006144 -0.004211 0.000000 0.000000 0.000000
# 2 -0.006144 0.013660 -0.008200 0.000000 0.000000 0.000000
# 3 -0.004211 -0.008200 0.030904 0.000000 0.000000 0.000000
# 4 0.000000 0.000000 0.000000 -0.143918 0.000000 0.000000
# 5 0.000000 0.000000 0.000000 0.000000 0.040084 0.000000
# 6 0.000000 0.000000 0.000000 0.000000 0.000000 0.035159
#
#
# Mechanical properties :
#
#
# Convention : Reuss Voigt Hill
#
# Bulk Modulus (GPa) = 47.22671 67.77583 57.50127
# Shear Modulus (GPa) = 148.02377 18.95255 83.48816
#
# Velocity S-wave (km/s) = 8.84849 3.16619 6.64532
# Velocity P-wave (km/s) = 11.37429 7.01539 9.44960
#
# Compressibility (1/GPa) = 0.02117446
#
# Stress axis : x y z
#
# Youngs Moduli (GPa) = 72.87980 73.20734 32.35804
#
# Poissons Ratio (x) = 0.44975 0.13627
# Poissons Ratio (y) = 0.44774 0.26535
# Poissons Ratio (z) = 0.30693 0.60033
#
# Static dielectric constant tensor:
#      x y z
#    x 3.654550 0.000000 0.000000 
#    y 0.000000 3.559200 0.000000 
#    z 0.000000 0.000000 3.036340 
# 
# 
# High freq. dielectric constant tensor:
#      x y z
#    x 1.749910 0.000000 0.000000 
#    y 0.000000 1.736230 0.000000 
#    z 0.000000 0.000000 1.692150 
# 
# From -- ./inp_files/40580.got.cif
#   From: 2010.03.12/outbox.cif.g09.slc.cpg/sg63_21_cif.got.tgz:40580.got - 2010.04.10 19:34:48.
