data_PCOD8259460
_publ_section_title
;
Structure prediction by ZEFSAII (Michael W. Deem and Ramdas Pophale) SiO2 
 PCOD8259460
Probable space group: C M C M
;
_chemical_formula_sum "Si O2"
_cell_formula_units_Z 80
_cell_length_a 9.298062
_cell_length_b 24.437627
_cell_length_c 18.582833
_cell_angle_alpha 90.000000
_cell_angle_beta 90.000000
_cell_angle_gamma 90.000000
_cell_volume 4222.439090
_symmetry_space_group_name_H-M "C M C M"
_symmetry_group_IT_number 63
_symmetry_cell_setting 'orthorhombic'
loop_
_space_group_symop_operation_xyz
x,y,z
-x,-y,1/2+z
x,-y,-z
-x,y,1/2-z
-x,-y,-z
x,y,1/2-z
-x,y,z
x,-y,1/2+z
1/2+x,1/2+y,z
1/2-x,1/2-y,1/2+z
1/2+x,1/2-y,-z
1/2-x,1/2+y,1/2-z
1/2-x,1/2-y,-z
1/2+x,1/2+y,1/2-z
1/2-x,1/2+y,z
1/2+x,1/2-y,1/2+z
loop_
_atom_site_type_symbol
_atom_site_label
_atom_site_fract_x
_atom_site_fract_y
_atom_site_fract_z
Si Si1 0.664536 0.035011 0.933067
Si Si2 0.832065 0.159222 0.101244
Si Si3 0.333126 0.354212 0.062376
Si Si4 0.166381 0.758708 0.333025
Si Si5 0.664490 0.937748 0.667695
O O1 0.500000 0.051091 0.949366
O O2 0.751501 0.090062 0.921765
O O3 0.679848 0.999527 0.860745
O O4 0.726323 0.000000 0.000000
O O5 0.757513 0.205429 0.148589
O O6 0.767177 0.100717 0.121460
O O7 0.000000 0.159190 0.119175
O O8 0.802034 0.169246 0.017040
O O9 0.500000 0.366905 0.073410
O O10 0.278107 0.309176 0.119055
O O11 0.190208 0.774152 0.250000
O O12 0.000000 0.745770 0.349618
O O13 0.714475 0.936778 0.750000
O O14 0.500000 0.917417 0.659414
#
# Coordination Sequence:
#
# PCOD8259460 Si02
#       5
#    16  16  16  16  16
#     4  10  20  36  58  83 110 145 187 228 271 327
#     4  11  22  36  57  85 114 144 185 234 279 328
#     4  10  22  38  58  84 113 147 186 229 279 333
#     4  10  22  40  59  80 111 150 188 227 278 337
#     4  10  21  37  57  82 113 149 187 228 279 334
#
# _framework density 18.946396
#
# number of rings (size 3 to 8) (size 9 to 14) (size 15 to 20)
#    0.000    1.800    2.000    1.800    0.000    6.800 
#    0.000    0.000    0.000    0.000    0.000    0.000 
#    0.000    0.000    0.000    0.000    0.000    0.000 
#
# Total GULP energy -496203.773885 kJ/mol
# GULP energy per Si atom -12405.094347 kJ/mol
# Density = 1.890327 g / cm^3
# Si number density = 18.946396 Si / 1000 Ang^3
#
#
#
# Elastic Constant Matrix: (Units=GPa)
#
#
# Indices 1 2 3 4 5 6 
#
# 1 63.0570 36.5552 32.7343 0.0000 0.0000 0.0000
# 2 36.5552 83.6027 24.5671 0.0000 0.0000 0.0000
# 3 32.7343 24.5671 96.6989 0.0000 0.0000 0.0000
# 4 0.0000 0.0000 0.0000 32.0202 0.0000 0.0000
# 5 0.0000 0.0000 0.0000 0.0000 24.7765 0.0000
# 6 0.0000 0.0000 0.0000 0.0000 0.0000 38.2545
#
#
#
# Elastic Compliance Matrix: (Units=1/GPa)
#
#
# Indices 1 2 3 4 5 6 
#
# 1 0.023999 -0.008760 -0.005899 0.000000 0.000000 0.000000
# 2 -0.008760 0.016124 -0.001131 0.000000 0.000000 0.000000
# 3 -0.005899 -0.001131 0.012625 0.000000 0.000000 0.000000
# 4 0.000000 0.000000 0.000000 0.031230 0.000000 0.000000
# 5 0.000000 0.000000 0.000000 0.000000 0.040361 0.000000
# 6 0.000000 0.000000 0.000000 0.000000 0.000000 0.026141
#
#
# Mechanical properties :
#
#
# Convention : Reuss Voigt Hill
#
# Bulk Modulus (GPa) = 47.23837 47.89684 47.56761
# Shear Modulus (GPa) = 26.43872 28.97705 27.70788
#
# Velocity S-wave (km/s) = 3.73962 3.91503 3.82833
# Velocity P-wave (km/s) = 6.60554 6.76547 6.68598
#
# Compressibility (1/GPa) = 0.02116923
#
# Stress axis : x y z
#
# Youngs Moduli (GPa) = 41.66798 62.01898 79.20503
#
# Poissons Ratio (x) = 0.54331 0.46719
# Poissons Ratio (y) = 0.36502 0.08958
# Poissons Ratio (z) = 0.24578 0.07014
#
# Static dielectric constant tensor:
#      x y z
#    x 3.429880 0.000000 0.000000 
#    y 0.000000 3.388950 0.000000 
#    z 0.000000 0.000000 3.630790 
# 
# 
# High freq. dielectric constant tensor:
#      x y z
#    x 1.730580 0.000000 0.000000 
#    y 0.000000 1.737160 0.000000 
#    z 0.000000 0.000000 1.747360 
# 
# From -- ./inp_files/40476.got.cif
#   From: 2010.03.12/outbox.cif.g09.slc.cpg/sg63_21_cif.got.tgz:40476.got - 2010.04.10 19:34:48.
