data_PCOD8259377
_publ_section_title
;
Structure prediction by ZEFSAII (Michael W. Deem and Ramdas Pophale) SiO2 
 PCOD8259377
Probable space group: C M C M
;
_chemical_formula_sum "Si O2"
_cell_formula_units_Z 96
_cell_length_a 27.610116
_cell_length_b 20.761382
_cell_length_c 8.795118
_cell_angle_alpha 90.000000
_cell_angle_beta 90.000000
_cell_angle_gamma 90.000000
_cell_volume 5041.574175
_symmetry_space_group_name_H-M "C M C M"
_symmetry_group_IT_number 63
_symmetry_cell_setting 'orthorhombic'
loop_
_space_group_symop_operation_xyz
x,y,z
-x,-y,1/2+z
x,-y,-z
-x,y,1/2-z
-x,-y,-z
x,y,1/2-z
-x,y,z
x,-y,1/2+z
1/2+x,1/2+y,z
1/2-x,1/2-y,1/2+z
1/2+x,1/2-y,-z
1/2-x,1/2+y,1/2-z
1/2-x,1/2-y,-z
1/2+x,1/2+y,1/2-z
1/2-x,1/2+y,z
1/2+x,1/2-y,1/2+z
loop_
_atom_site_type_symbol
_atom_site_label
_atom_site_fract_x
_atom_site_fract_y
_atom_site_fract_z
Si Si1 0.055331 0.433915 0.929537
Si Si2 0.722655 0.189537 0.069330
Si Si3 0.725862 0.567469 0.570224
Si Si4 0.388052 0.189442 0.430502
Si Si5 0.054783 0.187347 0.568542
Si Si6 0.885609 0.066150 0.571605
O O1 0.059710 0.439043 0.750000
O O2 0.087781 0.375753 0.994625
O O3 0.000000 0.421583 0.980127
O O4 0.075390 0.500000 0.000000
O O5 0.727692 0.190943 0.250000
O O6 0.667156 0.194112 0.015755
O O7 0.750000 0.250000 0.000000
O O8 0.743482 0.123523 0.005464
O O9 0.743718 0.500000 0.500000
O O10 0.734267 0.566953 0.750000
O O11 0.669957 0.579605 0.527331
O O12 0.391580 0.189597 0.250000
O O13 0.417503 0.250274 0.496445
O O14 0.055676 0.187918 0.750000
O O15 0.082014 0.124117 0.506001
O O16 0.000000 0.187580 0.506798
O O17 0.891766 0.059970 0.750000
O O18 0.904652 0.000000 0.500000
#
# Coordination Sequence:
#
# PCOD8259377 Si02
#       6
#    16  16  16  16  16  16
#     4   9  17  31  52  76 101 130 163 200 246 300
#     4  11  22  36  54  77 106 139 177 219 263 310
#     4  10  20  36  56  78 106 139 176 216 260 310
#     4   9  18  32  50  73 100 130 167 211 253 297
#     4   9  16  28  49  75 100 128 165 207 249 295
#     4   9  18  32  51  75 102 132 165 204 250 301
#
# _framework density 19.041672999999999
#
# number of rings (size 3 to 8) (size 9 to 14) (size 15 to 20)
#    0.000    2.500    0.000    2.500    0.000    6.333 
#    0.000    3.333    0.000    1.000    0.000    0.000 
#    0.000    0.000    0.000    0.000    0.000    0.000 
#
# Total GULP energy -595257.221315 kJ/mol
# GULP energy per Si atom -12401.192111 kJ/mol
# Density = 1.899833 g / cm^3
# Si number density = 19.041673 Si / 1000 Ang^3
#
#
#
# Elastic Constant Matrix: (Units=GPa)
#
#
# Indices 1 2 3 4 5 6 
#
# 1 142.2865 110.6218 32.8799 0.0000 0.0000 0.0000
# 2 110.6218 207.8544 36.4611 0.0000 0.0000 0.0000
# 3 32.8799 36.4611 35.3155 0.0000 0.0000 0.0000
# 4 0.0000 0.0000 0.0000 34.0409 0.0000 0.0000
# 5 0.0000 0.0000 0.0000 0.0000 16.4769 0.0000
# 6 0.0000 0.0000 0.0000 0.0000 0.0000 44.8415
#
#
#
# Elastic Compliance Matrix: (Units=1/GPa)
#
#
# Indices 1 2 3 4 5 6 
#
# 1 0.012964 -0.005840 -0.006041 0.000000 0.000000 0.000000
# 2 -0.005840 0.008506 -0.003344 0.000000 0.000000 0.000000
# 3 -0.006041 -0.003344 0.037393 0.000000 0.000000 0.000000
# 4 0.000000 0.000000 0.000000 0.029376 0.000000 0.000000
# 5 0.000000 0.000000 0.000000 0.000000 0.060691 0.000000
# 6 0.000000 0.000000 0.000000 0.000000 0.000000 0.022301
#
#
# Mechanical properties :
#
#
# Convention : Reuss Voigt Hill
#
# Bulk Modulus (GPa) = 35.19526 82.82022 59.00774
# Shear Modulus (GPa) = 23.67944 32.77143 28.22543
#
# Velocity S-wave (km/s) = 3.53024 4.15304 3.85424
# Velocity P-wave (km/s) = 5.92792 8.16000 7.13182
#
# Compressibility (1/GPa) = 0.02841292
#
# Stress axis : x y z
#
# Youngs Moduli (GPa) = 77.13401 117.56546 26.74278
#
# Poissons Ratio (x) = 0.68660 0.16155
# Poissons Ratio (y) = 0.45047 0.08944
# Poissons Ratio (z) = 0.46595 0.39319
#
# Static dielectric constant tensor:
#      x y z
#    x 3.636790 0.000000 0.000000 
#    y 0.000000 3.962930 0.000000 
#    z 0.000000 0.000000 3.142720 
# 
# 
# High freq. dielectric constant tensor:
#      x y z
#    x 1.742790 0.000000 0.000000 
#    y 0.000000 1.760180 0.000000 
#    z 0.000000 0.000000 1.704790 
# 
# From -- ./inp_files/12360.got.cif
#   From: 2010.03.12/outbox.cif.g09.slc.cpg/sg63_7_cif.got.tgz:12360.got - 2010.04.10 19:34:48.
