data_PCOD8259405
_publ_section_title
;
Structure prediction by ZEFSAII (Michael W. Deem and Ramdas Pophale) SiO2 
 PCOD8259405
Probable space group: C M C M
;
_chemical_formula_sum "Si O2"
_cell_formula_units_Z 96
_cell_length_a 27.135622
_cell_length_b 20.551647
_cell_length_c 8.925283
_cell_angle_alpha 90.000000
_cell_angle_beta 90.000000
_cell_angle_gamma 90.000000
_cell_volume 4977.467215
_symmetry_space_group_name_H-M "C M C M"
_symmetry_group_IT_number 63
_symmetry_cell_setting 'orthorhombic'
loop_
_space_group_symop_operation_xyz
x,y,z
-x,-y,1/2+z
x,-y,-z
-x,y,1/2-z
-x,-y,-z
x,y,1/2-z
-x,y,z
x,-y,1/2+z
1/2+x,1/2+y,z
1/2-x,1/2-y,1/2+z
1/2+x,1/2-y,-z
1/2-x,1/2+y,1/2-z
1/2-x,1/2-y,-z
1/2+x,1/2+y,1/2-z
1/2-x,1/2+y,z
1/2+x,1/2-y,1/2+z
loop_
_atom_site_type_symbol
_atom_site_label
_atom_site_fract_x
_atom_site_fract_y
_atom_site_fract_z
Si Si1 0.278145 0.308958 0.923145
Si Si2 0.443711 0.567337 0.925936
Si Si3 0.766406 0.432848 0.073575
Si Si4 0.055475 0.315215 0.071656
Si Si5 0.620103 0.066353 0.925698
Si Si6 0.392979 0.314340 0.922399
O O1 0.262335 0.312722 0.750000
O O2 0.335972 0.296786 0.940275
O O3 0.250000 0.250000 0.000000
O O4 0.265845 0.375920 0.004471
O O5 0.437828 0.559582 0.750000
O O6 0.500000 0.584284 0.971379
O O7 0.426865 0.500000 0.000000
O O8 0.407282 0.623104 0.981857
O O9 0.757373 0.436361 0.250000
O O10 0.823286 0.419381 0.033721
O O11 0.748498 0.500000 0.000000
O O12 0.057935 0.315874 0.250000
O O13 0.087890 0.374630 0.007743
O O14 0.076937 0.247072 0.012806
O O15 0.000000 0.323224 0.012007
O O16 0.612496 0.058910 0.750000
O O17 0.601356 0.000000 0.000000
O O18 0.406662 0.328295 0.750000
#
# Coordination Sequence:
#
# PCOD8259405 Si02
#       6
#    16  16  16  16  16  16
#     4  11  23  38  57  82 111 145 186 231 280 333
#     4  10  21  37  58  84 113 145 181 222 270 325
#     4  10  20  36  57  80 109 144 182 225 273 327
#     4   9  17  31  53  78 104 137 175 214 259 312
#     4   9  18  33  53  78 107 139 176 216 259 312
#     4  10  21  37  57  80 107 142 184 227 272 326
#
# _framework density 19.286916999999999
#
# number of rings (size 3 to 8) (size 9 to 14) (size 15 to 20)
#    0.000    2.167    0.000    3.000    0.000    7.333 
#    0.000    0.833    0.000    1.000    0.000    0.000 
#    0.000    0.000    0.000    0.000    0.000    0.000 
#
# Total GULP energy -595393.928642 kJ/mol
# GULP energy per Si atom -12404.040180 kJ/mol
# Density = 1.924302 g / cm^3
# Si number density = 19.286917 Si / 1000 Ang^3
#
#
#
# Elastic Constant Matrix: (Units=GPa)
#
#
# Indices 1 2 3 4 5 6 
#
# 1 56.9807 29.9175 23.9363 0.0000 0.0000 0.0000
# 2 29.9175 122.8919 37.4080 0.0000 0.0000 0.0000
# 3 23.9363 37.4080 68.1339 0.0000 0.0000 0.0000
# 4 0.0000 0.0000 0.0000 37.0625 0.0000 0.0000
# 5 0.0000 0.0000 0.0000 0.0000 21.6192 0.0000
# 6 0.0000 0.0000 0.0000 0.0000 0.0000 41.8597
#
#
#
# Elastic Compliance Matrix: (Units=1/GPa)
#
#
# Indices 1 2 3 4 5 6 
#
# 1 0.021824 -0.003577 -0.005703 0.000000 0.000000 0.000000
# 2 -0.003577 0.010356 -0.004429 0.000000 0.000000 0.000000
# 3 -0.005703 -0.004429 0.019112 0.000000 0.000000 0.000000
# 4 0.000000 0.000000 0.000000 0.026981 0.000000 0.000000
# 5 0.000000 0.000000 0.000000 0.000000 0.046255 0.000000
# 6 0.000000 0.000000 0.000000 0.000000 0.000000 0.023889
#
#
# Mechanical properties :
#
#
# Convention : Reuss Voigt Hill
#
# Bulk Modulus (GPa) = 41.88716 47.83667 44.86191
# Shear Modulus (GPa) = 27.20427 30.55792 28.88110
#
# Velocity S-wave (km/s) = 3.75974 3.98475 3.87388
# Velocity P-wave (km/s) = 6.37280 6.78436 6.58180
#
# Compressibility (1/GPa) = 0.02387366
#
# Stress axis : x y z
#
# Youngs Moduli (GPa) = 45.82213 96.55959 52.32197
#
# Poissons Ratio (x) = 0.34538 0.29840
# Poissons Ratio (y) = 0.16390 0.23175
# Poissons Ratio (z) = 0.26133 0.42770
#
# Static dielectric constant tensor:
#      x y z
#    x 3.562060 0.000000 0.000000 
#    y 0.000000 3.654740 0.000000 
#    z 0.000000 0.000000 3.381220 
# 
# 
# High freq. dielectric constant tensor:
#      x y z
#    x 1.750440 0.000000 0.000000 
#    y 0.000000 1.765860 0.000000 
#    z 0.000000 0.000000 1.736200 
# 
# From -- ./inp_files/12437.got.cif
#   From: 2010.03.12/outbox.cif.g09.slc.cpg/sg63_7_cif.got.tgz:12437.got - 2010.04.10 19:34:48.
