data_PCOD8259046
_publ_section_title
;
Structure prediction by ZEFSAII (Michael W. Deem and Ramdas Pophale) SiO2 
 PCOD8259046
Probable space group: C M C M
;
_chemical_formula_sum "Si O2"
_cell_formula_units_Z 96
_cell_length_a 23.070169
_cell_length_b 14.789566
_cell_length_c 14.391106
_cell_angle_alpha 90.000000
_cell_angle_beta 90.000000
_cell_angle_gamma 90.000000
_cell_volume 4910.213520
_symmetry_space_group_name_H-M "C M C M"
_symmetry_group_IT_number 63
_symmetry_cell_setting 'orthorhombic'
loop_
_space_group_symop_operation_xyz
x,y,z
-x,-y,1/2+z
x,-y,-z
-x,y,1/2-z
-x,-y,-z
x,y,1/2-z
-x,y,z
x,-y,1/2+z
1/2+x,1/2+y,z
1/2-x,1/2-y,1/2+z
1/2+x,1/2-y,-z
1/2-x,1/2+y,1/2-z
1/2-x,1/2-y,-z
1/2+x,1/2+y,1/2-z
1/2-x,1/2+y,z
1/2+x,1/2-y,1/2+z
loop_
_atom_site_type_symbol
_atom_site_label
_atom_site_fract_x
_atom_site_fract_y
_atom_site_fract_z
Si Si1 0.292539 0.872154 0.139911
Si Si2 0.500000 0.211014 0.646285
Si Si3 0.803985 0.105757 0.996070
Si Si4 0.500000 0.999665 0.391112
Si Si5 0.109934 0.257158 0.466513
Si Si6 0.784461 0.422861 0.851511
Si Si7 0.590441 0.146230 0.350373
O O1 0.294503 0.846763 0.250000
O O2 0.340840 0.820153 0.080038
O O3 0.304680 0.977181 0.119134
O O4 0.227504 0.858248 0.098329
O O5 0.500000 0.245660 0.750000
O O6 0.500000 0.102208 0.644753
O O7 0.557584 0.254563 0.603952
O O8 0.863121 0.160100 0.009686
O O9 0.760157 0.125912 0.080384
O O10 0.819951 0.000000 0.000000
O O11 0.500000 0.000000 0.500000
O O12 0.557530 0.050325 0.355654
O O13 0.077527 0.294373 0.559138
O O14 0.754732 0.425986 0.750000
O O15 0.840998 0.362891 0.850453
O O16 0.572764 0.190779 0.250000
#
# Coordination Sequence:
#
# PCOD8259046 Si02
#       7
#    16   8  16   8  16  16  16
#     4  10  20  34  57  87 121 154 194 239 295 353
#     4  12  26  41  61  89 124 156 195 238 288 349
#     4  10  22  40  60  83 117 154 199 247 301 348
#     4  12  22  39  61  86 124 161 190 232 287 355
#     4  12  23  39  59  88 116 159 198 249 291 347
#     4   9  19  34  54  83 119 158 191 234 289 349
#     4  11  22  35  56  85 120 159 196 233 283 347
#
# _framework density 19.551085
#
# number of rings (size 3 to 8) (size 9 to 14) (size 15 to 20)
#    0.000    1.333    3.333    2.750    0.000    3.333 
#    0.000    0.417    0.000    0.000    0.000    0.000 
#    0.000    0.000    0.000    0.000    0.000    0.000 
#
# Total GULP energy -594900.783407 kJ/mol
# GULP energy per Si atom -12393.766321 kJ/mol
# Density = 1.950659 g / cm^3
# Si number density = 19.551085 Si / 1000 Ang^3
#
#
#
# Elastic Constant Matrix: (Units=GPa)
#
#
# Indices 1 2 3 4 5 6 
#
# 1 97.0418 34.2411 39.1291 0.0000 0.0000 0.0000
# 2 34.2411 31.1196 22.8414 0.0000 0.0000 0.0000
# 3 39.1291 22.8414 146.8626 0.0000 0.0000 0.0000
# 4 0.0000 0.0000 0.0000 13.2569 0.0000 0.0000
# 5 0.0000 0.0000 0.0000 0.0000 14.0742 0.0000
# 6 0.0000 0.0000 0.0000 0.0000 0.0000 34.0152
#
#
#
# Elastic Compliance Matrix: (Units=1/GPa)
#
#
# Indices 1 2 3 4 5 6 
#
# 1 0.017283 -0.017652 -0.001859 0.000000 0.000000 0.000000
# 2 -0.017652 0.054304 -0.003743 0.000000 0.000000 0.000000
# 3 -0.001859 -0.003743 0.007887 0.000000 0.000000 0.000000
# 4 0.000000 0.000000 0.000000 0.075432 0.000000 0.000000
# 5 0.000000 0.000000 0.000000 0.000000 0.071052 0.000000
# 6 0.000000 0.000000 0.000000 0.000000 0.000000 0.029399
#
#
# Mechanical properties :
#
#
# Convention : Reuss Voigt Hill
#
# Bulk Modulus (GPa) = 30.33498 51.93858 41.13678
# Shear Modulus (GPa) = 15.98197 24.19009 20.08603
#
# Velocity S-wave (km/s) = 2.86220 3.52131 3.20873
# Velocity P-wave (km/s) = 5.14513 6.56933 5.90036
#
# Compressibility (1/GPa) = 0.03296525
#
# Stress axis : x y z
#
# Youngs Moduli (GPa) = 57.86029 18.41499 126.79742
#
# Poissons Ratio (x) = 0.32506 0.23577
# Poissons Ratio (y) = 1.02134 0.47457
# Poissons Ratio (z) = 0.10759 0.06892
#
# Static dielectric constant tensor:
#      x y z
#    x 3.539570 0.000000 0.000000 
#    y 0.000000 3.394830 0.000000 
#    z 0.000000 0.000000 4.165890 
# 
# 
# High freq. dielectric constant tensor:
#      x y z
#    x 1.747380 0.000000 0.000000 
#    y 0.000000 1.724040 0.000000 
#    z 0.000000 0.000000 1.789760 
# 
# From -- ./inp_files/36827.got.cif
#   From: 2010.03.12/outbox.cif.g09.slc.cpg/sg63_19_cif.got.tgz:36827.got - 2010.04.10 19:34:48.
