data_PCOD8259907
_publ_section_title
;
Structure prediction by ZEFSAII (Michael W. Deem and Ramdas Pophale) SiO2 
 PCOD8259907
Probable space group: C M C M
;
_chemical_formula_sum "Si O2"
_cell_formula_units_Z 80
_cell_length_a 9.281893
_cell_length_b 25.561868
_cell_length_c 18.994273
_cell_angle_alpha 90.000000
_cell_angle_beta 90.000000
_cell_angle_gamma 90.000000
_cell_volume 4506.629147
_symmetry_space_group_name_H-M "C M C M"
_symmetry_group_IT_number 63
_symmetry_cell_setting 'orthorhombic'
loop_
_space_group_symop_operation_xyz
x,y,z
-x,-y,1/2+z
x,-y,-z
-x,y,1/2-z
-x,-y,-z
x,y,1/2-z
-x,y,z
x,-y,1/2+z
1/2+x,1/2+y,z
1/2-x,1/2-y,1/2+z
1/2+x,1/2-y,-z
1/2-x,1/2+y,1/2-z
1/2-x,1/2-y,-z
1/2+x,1/2+y,1/2-z
1/2-x,1/2+y,z
1/2+x,1/2-y,1/2+z
loop_
_atom_site_type_symbol
_atom_site_label
_atom_site_fract_x
_atom_site_fract_y
_atom_site_fract_z
Si Si1 0.332814 0.045471 0.168714
Si Si2 0.162683 0.358837 0.416870
Si Si3 0.167179 0.354057 0.918033
Si Si4 0.833939 0.756655 0.571791
Si Si5 0.168208 0.942588 0.331430
O O1 0.300143 0.057903 0.250000
O O2 0.500000 0.033379 0.155760
O O3 0.280791 0.094761 0.123344
O O4 0.244450 0.995397 0.142081
O O5 0.198401 0.362351 0.499600
O O6 0.178021 0.299080 0.388207
O O7 0.275019 0.393682 0.375125
O O8 0.000000 0.378899 0.403255
O O9 0.258568 0.304854 0.887200
O O10 0.000000 0.342150 0.903851
O O11 0.750000 0.750000 0.500000
O O12 0.000000 0.770478 0.556720
O O13 0.204679 0.932468 0.250000
O O14 0.000000 0.948762 0.345040
#
# Coordination Sequence:
#
# PCOD8259907 Si02
#       5
#    16  16  16  16  16
#     4   9  18  34  54  72  95 131 166 195 237 292
#     4   9  18  32  50  72  98 129 162 196 237 287
#     4   9  18  32  51  76 102 127 160 200 238 282
#     4   9  17  30  49  73 100 130 161 195 240 287
#     4  10  21  35  50  70  96 126 162 205 248 286
#
# _framework density 17.751626000000002
#
# number of rings (size 3 to 8) (size 9 to 14) (size 15 to 20)
#    0.000    2.800    0.000    2.400    0.000    6.800 
#    0.000    5.000    0.000    3.600    0.000    0.000 
#    0.000    0.000    0.000    0.000    0.000    0.000 
#
# Total GULP energy -495905.965330 kJ/mol
# GULP energy per Si atom -12397.649133 kJ/mol
# Density = 1.771122 g / cm^3
# Si number density = 17.751626 Si / 1000 Ang^3
#
#
#
# Elastic Constant Matrix: (Units=GPa)
#
#
# Indices 1 2 3 4 5 6 
#
# 1 92.3616 77.8612 32.3079 0.0000 0.0000 0.0000
# 2 77.8612 156.4548 51.6701 0.0000 0.0000 0.0000
# 3 32.3079 51.6701 42.4620 0.0000 0.0000 0.0000
# 4 0.0000 0.0000 0.0000 -2.2403 0.0000 0.0000
# 5 0.0000 0.0000 0.0000 0.0000 22.9344 0.0000
# 6 0.0000 0.0000 0.0000 0.0000 0.0000 40.8783
#
#
#
# Elastic Compliance Matrix: (Units=1/GPa)
#
#
# Indices 1 2 3 4 5 6 
#
# 1 0.019267 -0.007937 -0.005002 0.000000 0.000000 0.000000
# 2 -0.007937 0.013955 -0.010943 0.000000 0.000000 0.000000
# 3 -0.005002 -0.010943 0.040673 0.000000 0.000000 0.000000
# 4 0.000000 0.000000 0.000000 -0.446377 0.000000 0.000000
# 5 0.000000 0.000000 0.000000 0.000000 0.043603 0.000000
# 6 0.000000 0.000000 0.000000 0.000000 0.000000 0.024463
#
#
# Mechanical properties :
#
#
# Convention : Reuss Voigt Hill
#
# Bulk Modulus (GPa) = 38.26772 68.32855 53.29814
# Shear Modulus (GPa) = -20.16597 20.94376 0.38890
#
# Velocity S-wave (km/s) = -3.37413 3.43858 0.46856
# Velocity P-wave (km/s) = 2.53465 7.37157 5.51201
#
# Compressibility (1/GPa) = 0.02613168
#
# Stress axis : x y z
#
# Youngs Moduli (GPa) = 51.90140 71.65752 24.58663
#
# Poissons Ratio (x) = 0.56871 0.12299
# Poissons Ratio (y) = 0.41192 0.26905
# Poissons Ratio (z) = 0.25962 0.78414
#
# Static dielectric constant tensor:
#      x y z
#    x 3.406630 0.000000 0.000000 
#    y 0.000000 3.751430 0.000000 
#    z 0.000000 0.000000 3.026270 
# 
# 
# High freq. dielectric constant tensor:
#      x y z
#    x 1.691440 0.000000 0.000000 
#    y 0.000000 1.701180 0.000000 
#    z 0.000000 0.000000 1.651300 
# 
# From -- ./inp_files/40448.got.cif
#   From: 2010.03.12/outbox.cif.g09.slc.cpg/sg63_21_cif.got.tgz:40448.got - 2010.04.10 19:34:48.
