data_PCOD8259719
_publ_section_title
;
Structure prediction by ZEFSAII (Michael W. Deem and Ramdas Pophale) SiO2 
 PCOD8259719
Probable space group: C M C M
;
_chemical_formula_sum "Si O2"
_cell_formula_units_Z 68
_cell_length_a 17.131493
_cell_length_b 19.711294
_cell_length_c 11.022846
_cell_angle_alpha 90.000000
_cell_angle_beta 90.000000
_cell_angle_gamma 90.000000
_cell_volume 3722.237573
_symmetry_space_group_name_H-M "C M C M"
_symmetry_group_IT_number 63
_symmetry_cell_setting 'orthorhombic'
loop_
_space_group_symop_operation_xyz
x,y,z
-x,-y,1/2+z
x,-y,-z
-x,y,1/2-z
-x,-y,-z
x,y,1/2-z
-x,y,z
x,-y,1/2+z
1/2+x,1/2+y,z
1/2-x,1/2-y,1/2+z
1/2+x,1/2-y,-z
1/2-x,1/2+y,1/2-z
1/2-x,1/2-y,-z
1/2+x,1/2+y,1/2-z
1/2-x,1/2+y,z
1/2+x,1/2-y,1/2+z
loop_
_atom_site_type_symbol
_atom_site_label
_atom_site_fract_x
_atom_site_fract_y
_atom_site_fract_z
Si Si1 0.591384 0.952292 0.611637
Si Si2 0.413083 0.598176 0.750000
Si Si3 0.000000 0.967891 0.750000
Si Si4 0.698798 0.826595 0.885121
Si Si5 0.500000 0.663105 0.382848
Si Si6 0.149565 0.181449 0.537846
O O1 0.611007 0.979697 0.750000
O O2 0.500000 0.939149 0.600830
O O3 0.632392 0.880995 0.587327
O O4 0.619396 0.000000 0.500000
O O5 0.500000 0.632050 0.750000
O O6 0.422708 0.516012 0.750000
O O7 0.366330 0.621474 0.867660
O O8 0.000000 0.919694 0.869657
O O9 0.731871 0.834227 0.750000
O O10 0.659661 0.753267 0.897585
O O11 0.771208 0.839553 0.972376
O O12 0.500000 0.697332 0.250000
O O13 0.577391 0.688565 0.447682
#
# Coordination Sequence:
#
# PCOD8259719 Si02
#       6
#    16   8   4  16   8  16
#     4   9  19  39  62  85 116 152 196 245 302 363
#     4  10  20  38  59  89 115 158 200 239 285 360
#     4   8  22  40  56  86 124 154 202 238 290 356
#     4  10  22  39  59  88 116 155 199 255 298 353
#     4  10  21  39  58  84 119 164 190 237 300 358
#     4  11  21  37  61  85 121 151 203 248 292 352
#
# _framework density 18.268581000000001
#
# number of rings (size 3 to 8) (size 9 to 14) (size 15 to 20)
#    0.706    1.412    2.353    0.706    1.647    1.882 
#    6.353    0.000    0.000    0.000    0.000    0.000 
#    0.000    0.000    0.000    0.000    0.000    0.000 
#
# Total GULP energy -421411.656171 kJ/mol
# GULP energy per Si atom -12394.460476 kJ/mol
# Density = 1.822700 g / cm^3
# Si number density = 18.268581 Si / 1000 Ang^3
#
#
#
# Elastic Constant Matrix: (Units=GPa)
#
#
# Indices 1 2 3 4 5 6 
#
# 1 67.1542 31.5694 32.3187 0.0000 0.0000 0.0000
# 2 31.5694 70.4744 29.1209 0.0000 0.0000 0.0000
# 3 32.3187 29.1209 99.9075 0.0000 0.0000 0.0000
# 4 0.0000 0.0000 0.0000 29.1513 0.0000 0.0000
# 5 0.0000 0.0000 0.0000 0.0000 100.0088 0.0000
# 6 0.0000 0.0000 0.0000 0.0000 0.0000 28.0918
#
#
#
# Elastic Compliance Matrix: (Units=1/GPa)
#
#
# Indices 1 2 3 4 5 6 
#
# 1 0.020498 -0.007324 -0.004496 0.000000 0.000000 0.000000
# 2 -0.007324 0.018750 -0.003096 0.000000 0.000000 0.000000
# 3 -0.004496 -0.003096 0.012366 0.000000 0.000000 0.000000
# 4 0.000000 0.000000 0.000000 0.034304 0.000000 0.000000
# 5 0.000000 0.000000 0.000000 0.000000 0.009999 0.000000
# 6 0.000000 0.000000 0.000000 0.000000 0.000000 0.035598
#
#
# Mechanical properties :
#
#
# Convention : Reuss Voigt Hill
#
# Bulk Modulus (GPa) = 45.91053 47.06156 46.48605
# Shear Modulus (GPa) = 29.65472 41.08552 35.37012
#
# Velocity S-wave (km/s) = 4.03335 4.74748 4.40491
# Velocity P-wave (km/s) = 6.84660 7.47451 7.16743
#
# Compressibility (1/GPa) = 0.02178149
#
# Stress axis : x y z
#
# Youngs Moduli (GPa) = 48.78512 53.33383 80.86701
#
# Poissons Ratio (x) = 0.39064 0.36357
# Poissons Ratio (y) = 0.35733 0.25035
# Poissons Ratio (z) = 0.21933 0.16511
#
# Static dielectric constant tensor:
#      x y z
#    x 3.296660 0.000000 0.000000 
#    y 0.000000 3.219100 0.000000 
#    z 0.000000 0.000000 3.671130 
# 
# 
# High freq. dielectric constant tensor:
#      x y z
#    x 1.708260 0.000000 0.000000 
#    y 0.000000 1.694630 0.000000 
#    z 0.000000 0.000000 1.723110 
# 
# From -- ./inp_files/19204.got.cif
#   From: 2010.03.12/outbox.cif.g09.slc.cpg/sg63_10_cif.got.tgz:19204.got - 2010.04.10 19:34:48.
