data_PCOD8259713
_publ_section_title
;
Structure prediction by ZEFSAII (Michael W. Deem and Ramdas Pophale) SiO2 
 PCOD8259713
Probable space group: C M C M
;
_chemical_formula_sum "Si O2"
_cell_formula_units_Z 72
_cell_length_a 21.772689
_cell_length_b 19.363310
_cell_length_c 9.030350
_cell_angle_alpha 90.000000
_cell_angle_beta 90.000000
_cell_angle_gamma 90.000000
_cell_volume 3807.117237
_symmetry_space_group_name_H-M "C M C M"
_symmetry_group_IT_number 63
_symmetry_cell_setting 'orthorhombic'
loop_
_space_group_symop_operation_xyz
x,y,z
-x,-y,1/2+z
x,-y,-z
-x,y,1/2-z
-x,-y,-z
x,y,1/2-z
-x,y,z
x,-y,1/2+z
1/2+x,1/2+y,z
1/2-x,1/2-y,1/2+z
1/2+x,1/2-y,-z
1/2-x,1/2+y,1/2-z
1/2-x,1/2-y,-z
1/2+x,1/2+y,1/2-z
1/2-x,1/2+y,z
1/2+x,1/2-y,1/2+z
loop_
_atom_site_type_symbol
_atom_site_label
_atom_site_fract_x
_atom_site_fract_y
_atom_site_fract_z
Si Si1 0.000000 0.925661 0.425701
Si Si2 0.571745 0.190305 0.919387
Si Si3 0.358759 0.070486 0.424371
Si Si4 0.606073 0.657117 0.421571
Si Si5 0.720293 0.568491 0.078793
O O1 0.060089 0.884325 0.474553
O O2 0.000000 0.934355 0.250000
O O3 0.000000 0.000000 0.500000
O O4 0.584919 0.169347 0.750000
O O5 0.500000 0.199512 0.949315
O O6 0.604523 0.262156 0.959993
O O7 0.597643 0.132086 0.026082
O O8 0.364524 0.061330 0.250000
O O9 0.288952 0.087574 0.475239
O O10 0.381605 0.000000 0.500000
O O11 0.587580 0.644624 0.250000
O O12 0.675186 0.632017 0.455973
O O13 0.721242 0.550170 0.250000
O O14 0.695077 0.500000 0.000000
#
# Coordination Sequence:
#
# PCOD8259713 Si02
#       5
#     8  16  16  16  16
#     4  12  24  36  54  82 115 152 195 236 276 324
#     4  10  21  38  59  82 112 151 188 228 283 340
#     4  10  21  38  59  85 113 144 185 235 285 338
#     4  10  20  38  59  81 113 152 189 229 280 336
#     4   9  19  35  57  83 113 147 187 232 280 332
#
# _framework density 18.911947000000001
#
# number of rings (size 3 to 8) (size 9 to 14) (size 15 to 20)
#    0.000    2.000    1.111    2.333    0.000    6.222 
#    0.000    0.000    0.000    0.000    0.000    0.000 
#    0.000    0.000    0.000    0.000    0.000    0.000 
#
# Total GULP energy -446528.644368 kJ/mol
# GULP energy per Si atom -12403.573455 kJ/mol
# Density = 1.886890 g / cm^3
# Si number density = 18.911947 Si / 1000 Ang^3
#
#
#
# Elastic Constant Matrix: (Units=GPa)
#
#
# Indices 1 2 3 4 5 6 
#
# 1 60.1830 50.7240 27.1489 0.0000 0.0000 0.0000
# 2 50.7240 138.2934 53.3247 0.0000 0.0000 0.0000
# 3 27.1489 53.3247 79.7191 0.0000 0.0000 0.0000
# 4 0.0000 0.0000 0.0000 33.9631 0.0000 0.0000
# 5 0.0000 0.0000 0.0000 0.0000 27.4125 0.0000
# 6 0.0000 0.0000 0.0000 0.0000 0.0000 36.7605
#
#
#
# Elastic Compliance Matrix: (Units=1/GPa)
#
#
# Indices 1 2 3 4 5 6 
#
# 1 0.024628 -0.007815 -0.003160 0.000000 0.000000 0.000000
# 2 -0.007815 0.012224 -0.005515 0.000000 0.000000 0.000000
# 3 -0.003160 -0.005515 0.017309 0.000000 0.000000 0.000000
# 4 0.000000 0.000000 0.000000 0.029444 0.000000 0.000000
# 5 0.000000 0.000000 0.000000 0.000000 0.036480 0.000000
# 6 0.000000 0.000000 0.000000 0.000000 0.000000 0.027203
#
#
# Mechanical properties :
#
#
# Convention : Reuss Voigt Hill
#
# Bulk Modulus (GPa) = 47.21120 60.06561 53.63840
# Shear Modulus (GPa) = 26.69110 29.42708 28.05909
#
# Velocity S-wave (km/s) = 3.76085 3.94890 3.85602
# Velocity P-wave (km/s) = 6.62394 7.25406 6.94615
#
# Compressibility (1/GPa) = 0.02118142
#
# Stress axis : x y z
#
# Youngs Moduli (GPa) = 40.60432 81.80620 57.77198
#
# Poissons Ratio (x) = 0.63929 0.18255
# Poissons Ratio (y) = 0.31731 0.31863
# Poissons Ratio (z) = 0.12830 0.45119
#
# Static dielectric constant tensor:
#      x y z
#    x 3.590270 0.000000 0.000000 
#    y 0.000000 3.474040 0.000000 
#    z 0.000000 0.000000 3.441820 
# 
# 
# High freq. dielectric constant tensor:
#      x y z
#    x 1.738010 0.000000 0.000000 
#    y 0.000000 1.737690 0.000000 
#    z 0.000000 0.000000 1.732560 
# 
# From -- ./inp_files/7862.got.cif
#   From: 2010.03.12/outbox.cif.g09.slc.cpg/sg63_4_cif.got.tgz:7862.got - 2010.04.10 19:34:48.
