data_PCOD8259433
_publ_section_title
;
Structure prediction by ZEFSAII (Michael W. Deem and Ramdas Pophale) SiO2 
 PCOD8259433
Probable space group: C M C M
;
_chemical_formula_sum "Si O2"
_cell_formula_units_Z 112
_cell_length_a 14.308218
_cell_length_b 14.034387
_cell_length_c 27.732919
_cell_angle_alpha 90.000000
_cell_angle_beta 90.000000
_cell_angle_gamma 90.000000
_cell_volume 5568.966171
_symmetry_space_group_name_H-M "C M C M"
_symmetry_group_IT_number 63
_symmetry_cell_setting 'orthorhombic'
loop_
_space_group_symop_operation_xyz
x,y,z
-x,-y,1/2+z
x,-y,-z
-x,y,1/2-z
-x,-y,-z
x,y,1/2-z
-x,y,z
x,-y,1/2+z
1/2+x,1/2+y,z
1/2-x,1/2-y,1/2+z
1/2+x,1/2-y,-z
1/2-x,1/2+y,1/2-z
1/2-x,1/2-y,-z
1/2+x,1/2+y,1/2-z
1/2-x,1/2+y,z
1/2+x,1/2-y,1/2+z
loop_
_atom_site_type_symbol
_atom_site_label
_atom_site_fract_x
_atom_site_fract_y
_atom_site_fract_z
Si Si1 0.893228 0.307436 0.037575
Si Si2 0.108346 0.772609 0.859008
Si Si3 0.753328 0.144925 0.805857
Si Si4 0.242190 0.942147 0.647527
Si Si5 0.106401 0.704584 0.342052
Si Si6 0.756757 0.959036 0.050747
Si Si7 0.105186 0.204375 0.557216
O O1 0.880640 0.239364 0.083599
O O2 0.841991 0.407398 0.044159
O O3 0.000000 0.334975 0.028561
O O4 0.852957 0.252603 0.990906
O O5 0.163435 0.686128 0.833851
O O6 0.153279 0.873272 0.843787
O O7 0.000000 0.770150 0.843062
O O8 0.728065 0.143772 0.750000
O O9 0.846244 0.207202 0.814448
O O10 0.774622 0.038456 0.823368
O O11 0.335781 0.891777 0.668106
O O12 0.254328 0.958934 0.590375
O O13 0.109880 0.721076 0.399350
O O14 0.000000 0.692952 0.323570
O O15 0.833079 0.885936 0.071363
O O16 0.792352 0.000000 0.000000
O O17 0.000000 0.168491 0.548108
#
# Coordination Sequence:
#
# PCOD8259433 Si02
#       7
#    16  16  16  16  16  16  16
#     4  10  20  36  57  85 125 167 202 242 295 359
#     4  10  22  42  65  89 125 164 202 250 306 366
#     4  11  24  44  65  88 122 159 204 258 310 365
#     4  11  22  38  61  96 123 156 204 258 306 356
#     4  10  22  42  65  89 125 164 202 250 306 366
#     4  12  21  32  56  88 124 163 203 245 299 360
#     4  10  20  36  57  85 125 167 202 242 295 359
#
# _framework density 20.111452
#
# number of rings (size 3 to 8) (size 9 to 14) (size 15 to 20)
#    0.000    1.429    2.857    3.000    0.000    5.714 
#    0.000    0.000    0.000    0.000    0.000    0.000 
#    0.000    0.000    0.000    0.000    0.000    0.000 
#
# Total GULP energy -694632.053506 kJ/mol
# GULP energy per Si atom -12404.143813 kJ/mol
# Density = 2.006568 g / cm^3
# Si number density = 20.111452 Si / 1000 Ang^3
#
#
#
# Elastic Constant Matrix: (Units=GPa)
#
#
# Indices 1 2 3 4 5 6 
#
# 1 101.4359 24.0336 1.6689 0.0000 0.0000 0.0000
# 2 24.0336 79.0175 13.7506 0.0000 0.0000 0.0000
# 3 1.6689 13.7506 74.1582 0.0000 0.0000 0.0000
# 4 0.0000 0.0000 0.0000 17.6065 0.0000 0.0000
# 5 0.0000 0.0000 0.0000 0.0000 16.9630 0.0000
# 6 0.0000 0.0000 0.0000 0.0000 0.0000 12.6739
#
#
#
# Elastic Compliance Matrix: (Units=1/GPa)
#
#
# Indices 1 2 3 4 5 6 
#
# 1 0.010634 -0.003299 0.000372 0.000000 0.000000 0.000000
# 2 -0.003299 0.014101 -0.002540 0.000000 0.000000 0.000000
# 3 0.000372 -0.002540 0.013947 0.000000 0.000000 0.000000
# 4 0.000000 0.000000 0.000000 0.056797 0.000000 0.000000
# 5 0.000000 0.000000 0.000000 0.000000 0.058952 0.000000
# 6 0.000000 0.000000 0.000000 0.000000 0.000000 0.078902
#
#
# Mechanical properties :
#
#
# Convention : Reuss Voigt Hill
#
# Bulk Modulus (GPa) = 36.03862 37.05753 36.54808
# Shear Modulus (GPa) = 19.72254 23.79259 21.75757
#
# Velocity S-wave (km/s) = 3.13495 3.44326 3.29272
# Velocity P-wave (km/s) = 5.57335 5.85441 5.71561
#
# Compressibility (1/GPa) = 0.02774801
#
# Stress axis : x y z
#
# Youngs Moduli (GPa) = 94.03795 70.91712 71.69826
#
# Poissons Ratio (x) = 0.23397 -0.02670
# Poissons Ratio (y) = 0.31025 0.18214
# Poissons Ratio (z) = -0.03502 0.18016
#
# Static dielectric constant tensor:
#      x y z
#    x 3.736330 0.000000 0.000000 
#    y 0.000000 3.537850 0.000000 
#    z 0.000000 0.000000 3.605200 
# 
# 
# High freq. dielectric constant tensor:
#      x y z
#    x 1.790590 0.000000 0.000000 
#    y 0.000000 1.780740 0.000000 
#    z 0.000000 0.000000 1.779630 
# 
# From -- ./inp_files/73452.got.cif
#   From: 2010.03.12/outbox.cif.g09.slc.cpg/sg63_37_cif.got.tgz:73452.got - 2010.04.10 19:34:48.
