data_PCOD8259535
_publ_section_title
;
Structure prediction by ZEFSAII (Michael W. Deem and Ramdas Pophale) SiO2 
 PCOD8259535
Probable space group: C M C M
;
_chemical_formula_sum "Si O2"
_cell_formula_units_Z 64
_cell_length_a 11.801653
_cell_length_b 18.869405
_cell_length_c 15.073006
_cell_angle_alpha 90.000000
_cell_angle_beta 90.000000
_cell_angle_gamma 90.000000
_cell_volume 3356.610270
_symmetry_space_group_name_H-M "C M C M"
_symmetry_group_IT_number 63
_symmetry_cell_setting 'orthorhombic'
loop_
_space_group_symop_operation_xyz
x,y,z
-x,-y,1/2+z
x,-y,-z
-x,y,1/2-z
-x,-y,-z
x,y,1/2-z
-x,y,z
x,-y,1/2+z
1/2+x,1/2+y,z
1/2-x,1/2-y,1/2+z
1/2+x,1/2-y,-z
1/2-x,1/2+y,1/2-z
1/2-x,1/2-y,-z
1/2+x,1/2+y,1/2-z
1/2-x,1/2+y,z
1/2+x,1/2-y,1/2+z
loop_
_atom_site_type_symbol
_atom_site_label
_atom_site_fract_x
_atom_site_fract_y
_atom_site_fract_z
Si Si1 0.000000 0.889466 0.052202
Si Si2 0.761924 0.832473 0.486003
Si Si3 0.631933 0.926419 0.147170
Si Si4 0.244713 0.070196 0.346508
Si Si5 0.000000 0.029830 0.372745
O O1 0.111363 0.841774 0.050700
O O2 0.000000 0.943471 0.972041
O O3 0.000000 0.943637 0.135403
O O4 0.750000 0.750000 0.500000
O O5 0.674790 0.861075 0.412361
O O6 0.735712 0.870086 0.579853
O O7 0.654333 0.907733 0.250000
O O8 0.500000 0.938888 0.128489
O O9 0.698472 0.997530 0.118679
O O10 0.297709 0.092238 0.250000
O O11 0.112225 0.058940 0.326530
#
# Coordination Sequence:
#
# PCOD8259535 Si02
#       5
#     8  16  16  16   8
#     4   9  18  34  54  86 112 142 195 233 278 344
#     4  11  23  37  58  84 122 157 186 233 288 347
#     4  10  22  40  61  85 112 149 197 240 282 338
#     4  10  20  36  60  86 111 147 194 241 285 337
#     4   9  15  32  60  84 111 137 183 248 286 319
#
# _framework density 19.066855
#
# number of rings (size 3 to 8) (size 9 to 14) (size 15 to 20)
#    0.000    2.000    2.500    1.125    1.750    3.000 
#    0.000    0.625    0.000    0.000    0.000    0.000 
#    0.000    0.000    0.000    0.000    0.000    0.000 
#
# Total GULP energy -396624.715789 kJ/mol
# GULP energy per Si atom -12394.522368 kJ/mol
# Density = 1.902346 g / cm^3
# Si number density = 19.066855 Si / 1000 Ang^3
#
#
#
# Elastic Constant Matrix: (Units=GPa)
#
#
# Indices 1 2 3 4 5 6 
#
# 1 104.4843 40.8304 30.6165 0.0000 0.0000 0.0000
# 2 40.8304 146.0574 62.5364 0.0000 0.0000 0.0000
# 3 30.6165 62.5364 100.3977 0.0000 0.0000 0.0000
# 4 0.0000 0.0000 0.0000 19.8755 0.0000 0.0000
# 5 0.0000 0.0000 0.0000 0.0000 23.7679 0.0000
# 6 0.0000 0.0000 0.0000 0.0000 0.0000 24.6739
#
#
#
# Elastic Compliance Matrix: (Units=1/GPa)
#
#
# Indices 1 2 3 4 5 6 
#
# 1 0.011022 -0.002239 -0.001966 0.000000 0.000000 0.000000
# 2 -0.002239 0.009792 -0.005416 0.000000 0.000000 0.000000
# 3 -0.001966 -0.005416 0.013934 0.000000 0.000000 0.000000
# 4 0.000000 0.000000 0.000000 0.050313 0.000000 0.000000
# 5 0.000000 0.000000 0.000000 0.000000 0.042074 0.000000
# 6 0.000000 0.000000 0.000000 0.000000 0.000000 0.040529
#
#
# Mechanical properties :
#
#
# Convention : Reuss Voigt Hill
#
# Bulk Modulus (GPa) = 64.50079 68.76733 66.63406
# Shear Modulus (GPa) = 26.03155 28.12718 27.07937
#
# Velocity S-wave (km/s) = 3.69897 3.84498 3.77269
# Velocity P-wave (km/s) = 7.22118 7.47373 7.34854
#
# Compressibility (1/GPa) = 0.01550369
#
# Stress axis : x y z
#
# Youngs Moduli (GPa) = 90.72689 102.12796 71.76831
#
# Poissons Ratio (x) = 0.22869 0.14112
# Poissons Ratio (y) = 0.20316 0.38871
# Poissons Ratio (z) = 0.17840 0.55315
#
# Static dielectric constant tensor:
#      x y z
#    x 3.771900 0.000000 0.000000 
#    y 0.000000 3.200040 0.000000 
#    z 0.000000 0.000000 0.932010 
# 
# 
# High freq. dielectric constant tensor:
#      x y z
#    x 1.747300 0.000000 0.000000 
#    y 0.000000 1.716590 0.000000 
#    z 0.000000 0.000000 1.750270 
# 
# From -- ./inp_files/41781.got.cif
#   From: 2010.03.12/outbox.cif.g09.slc.cpg/sg63_21_cif.got.tgz:41781.got - 2010.04.10 19:34:48.
