data_PCOD8259892
_publ_section_title
;
Structure prediction by ZEFSAII (Michael W. Deem and Ramdas Pophale) SiO2 
 PCOD8259892
Probable space group: C M C M
;
_chemical_formula_sum "Si O2"
_cell_formula_units_Z 80
_cell_length_a 33.365257
_cell_length_b 5.125302
_cell_length_c 22.441715
_cell_angle_alpha 90.000000
_cell_angle_beta 90.000000
_cell_angle_gamma 90.000000
_cell_volume 3837.690771
_symmetry_space_group_name_H-M "C M C M"
_symmetry_group_IT_number 63
_symmetry_cell_setting 'orthorhombic'
loop_
_space_group_symop_operation_xyz
x,y,z
-x,-y,1/2+z
x,-y,-z
-x,y,1/2-z
-x,-y,-z
x,y,1/2-z
-x,y,z
x,-y,1/2+z
1/2+x,1/2+y,z
1/2-x,1/2-y,1/2+z
1/2+x,1/2-y,-z
1/2-x,1/2+y,1/2-z
1/2-x,1/2-y,-z
1/2+x,1/2+y,1/2-z
1/2-x,1/2+y,z
1/2+x,1/2-y,1/2+z
loop_
_atom_site_type_symbol
_atom_site_label
_atom_site_fract_x
_atom_site_fract_y
_atom_site_fract_z
Si Si1 0.956192 0.086798 0.866073
Si Si2 0.148247 0.428733 0.110336
Si Si3 0.936975 0.408725 0.435643
Si Si4 0.628981 0.437582 0.317721
Si Si5 0.767114 0.702117 0.566570
O O1 0.953603 0.878187 0.920210
O O2 0.000000 0.055295 0.834921
O O3 0.953564 0.382224 0.888995
O O4 0.919601 0.041204 0.820656
O O5 0.111164 0.395373 0.065771
O O6 0.147170 0.713037 0.140383
O O7 0.186918 0.387839 0.068629
O O8 0.147505 0.212651 0.162284
O O9 0.951923 0.500000 0.500000
O O10 0.641449 0.382234 0.250000
O O11 0.750000 0.750000 0.500000
O O12 0.740530 0.477796 0.599496
#
# Coordination Sequence:
#
# PCOD8259892 Si02
#       5
#    16  16  16  16  16
#     4  10  21  36  53  82 114 145 195 246 282 331
#     4  10  21  38  58  85 120 145 191 239 276 344
#     4  10  21  34  53  80 113 159 188 223 284 353
#     4  10  21  39  62  83 108 155 198 237 290 330
#     4  10  21  36  57  89 118 151 176 227 287 340
#
# _framework density 20.845869
#
# number of rings (size 3 to 8) (size 9 to 14) (size 15 to 20)
#    0.000    2.000    0.000    3.000    2.800    2.800 
#    7.200    0.000    0.000   19.200    0.000    0.000 
#    0.000    0.000    0.000    0.000    0.000    0.000 
#
# Total GULP energy -495739.258039 kJ/mol
# GULP energy per Si atom -12393.481451 kJ/mol
# Density = 2.079842 g / cm^3
# Si number density = 20.845869 Si / 1000 Ang^3
#
#
#
# Elastic Constant Matrix: (Units=GPa)
#
#
# Indices 1 2 3 4 5 6 
#
# 1 130.3485 32.5830 19.0349 0.0000 0.0000 0.0000
# 2 32.5830 134.2203 1.8530 0.0000 0.0000 0.0000
# 3 19.0349 1.8530 54.2727 0.0000 0.0000 0.0000
# 4 0.0000 0.0000 0.0000 20.4012 0.0000 0.0000
# 5 0.0000 0.0000 0.0000 0.0000 11.4638 0.0000
# 6 0.0000 0.0000 0.0000 0.0000 0.0000 16.4576
#
#
#
# Elastic Compliance Matrix: (Units=1/GPa)
#
#
# Indices 1 2 3 4 5 6 
#
# 1 0.008615 -0.002051 -0.002952 0.000000 0.000000 0.000000
# 2 -0.002051 0.007942 0.000448 0.000000 0.000000 0.000000
# 3 -0.002952 0.000448 0.019445 0.000000 0.000000 0.000000
# 4 0.000000 0.000000 0.000000 0.049017 0.000000 0.000000
# 5 0.000000 0.000000 0.000000 0.000000 0.087231 0.000000
# 6 0.000000 0.000000 0.000000 0.000000 0.000000 0.060762
#
#
# Mechanical properties :
#
#
# Convention : Reuss Voigt Hill
#
# Bulk Modulus (GPa) = 37.18259 47.30928 42.24593
# Shear Modulus (GPa) = 19.91348 27.35590 23.63469
#
# Velocity S-wave (km/s) = 3.09410 3.62649 3.37082
# Velocity P-wave (km/s) = 5.53536 6.34660 5.95481
#
# Compressibility (1/GPa) = 0.02689431
#
# Stress axis : x y z
#
# Youngs Moduli (GPa) = 116.07144 125.91171 51.42612
#
# Poissons Ratio (x) = 0.25821 0.15179
# Poissons Ratio (y) = 0.23803 -0.02304
# Poissons Ratio (z) = 0.34260 -0.05642
#
# Static dielectric constant tensor:
#      x y z
#    x 3.901430 0.000000 0.000000 
#    y 0.000000 0.067980 0.000000 
#    z 0.000000 0.000000 3.013330 
# 
# 
# High freq. dielectric constant tensor:
#      x y z
#    x 1.819290 0.000000 0.000000 
#    y 0.000000 1.848540 0.000000 
#    z 0.000000 0.000000 1.761920 
# 
# From -- ./inp_files/65640.got.cif
#   From: 2010.03.12/outbox.cif.g09.slc.cpg/sg63_33_cif.got.tgz:65640.got - 2010.04.10 19:34:48.
