data_PCOD8259221
_publ_section_title
;
Structure prediction by ZEFSAII (Michael W. Deem and Ramdas Pophale) SiO2 
 PCOD8259221
Probable space group: C M C M
;
_chemical_formula_sum "Si O2"
_cell_formula_units_Z 96
_cell_length_a 9.059629
_cell_length_b 23.420637
_cell_length_c 24.983572
_cell_angle_alpha 90.000000
_cell_angle_beta 90.000000
_cell_angle_gamma 90.000000
_cell_volume 5301.071324
_symmetry_space_group_name_H-M "C M C M"
_symmetry_group_IT_number 63
_symmetry_cell_setting 'orthorhombic'
loop_
_space_group_symop_operation_xyz
x,y,z
-x,-y,1/2+z
x,-y,-z
-x,y,1/2-z
-x,-y,-z
x,y,1/2-z
-x,y,z
x,-y,1/2+z
1/2+x,1/2+y,z
1/2-x,1/2-y,1/2+z
1/2+x,1/2-y,-z
1/2-x,1/2+y,1/2-z
1/2-x,1/2-y,-z
1/2+x,1/2+y,1/2-z
1/2-x,1/2+y,z
1/2+x,1/2-y,1/2+z
loop_
_atom_site_type_symbol
_atom_site_label
_atom_site_fract_x
_atom_site_fract_y
_atom_site_fract_z
Si Si1 0.173572 0.114665 0.147892
Si Si2 0.327521 0.811450 0.937934
Si Si3 0.171370 0.505213 0.187944
Si Si4 0.325749 0.689687 0.750000
Si Si5 0.830740 0.621634 0.841214
Si Si6 0.331119 0.196869 0.940070
Si Si7 0.327595 0.689645 0.250000
O O1 0.247224 0.139137 0.094662
O O2 0.231476 0.051079 0.156979
O O3 0.217851 0.153517 0.198211
O O4 0.000000 0.112433 0.139491
O O5 0.500000 0.814153 0.925719
O O6 0.268810 0.749375 0.920288
O O7 0.289631 0.822488 0.000127
O O8 0.216900 0.502895 0.250000
O O9 0.209832 0.444791 0.161015
O O10 0.000000 0.520823 0.181340
O O11 0.500000 0.692354 0.750000
O O12 0.273154 0.657187 0.697448
O O13 0.265016 0.753263 0.750000
O O14 0.804415 0.642945 0.901671
O O15 0.000000 0.631033 0.822854
O O16 0.500000 0.218139 0.937564
O O17 0.500000 0.704963 0.250000
#
# Coordination Sequence:
#
# PCOD8259221 Si02
#       7
#    16  16  16   8  16  16   8
#     4  11  22  37  56  79 108 146 185 224 273 329
#     4  10  20  35  56  84 114 144 182 229 277 326
#     4  10  20  36  58  81 105 140 183 228 273 318
#     4  12  24  33  50  83 115 140 172 222 277 322
#     4  10  20  38  59  79 107 146 186 221 268 330
#     4   9  19  36  59  83 110 146 185 226 275 330
#     4  10  22  37  52  73 105 142 180 218 265 326
#
# _framework density 18.109546999999999
#
# number of rings (size 3 to 8) (size 9 to 14) (size 15 to 20)
#    0.000    1.833    1.667    2.750    0.000    7.333 
#    0.000    0.833    0.000    5.000    0.000    0.000 
#    0.000    0.000    0.000    0.000    0.000    0.000 
#
# Total GULP energy -595445.174762 kJ/mol
# GULP energy per Si atom -12405.107808 kJ/mol
# Density = 1.806833 g / cm^3
# Si number density = 18.109547 Si / 1000 Ang^3
#
#
#
# Elastic Constant Matrix: (Units=GPa)
#
#
# Indices 1 2 3 4 5 6 
#
# 1 79.5085 68.4217 45.1161 0.0000 0.0000 0.0000
# 2 68.4217 149.7849 71.1622 0.0000 0.0000 0.0000
# 3 45.1161 71.1622 102.0101 0.0000 0.0000 0.0000
# 4 0.0000 0.0000 0.0000 3.9724 0.0000 0.0000
# 5 0.0000 0.0000 0.0000 0.0000 23.0825 0.0000
# 6 0.0000 0.0000 0.0000 0.0000 0.0000 33.3705
#
#
#
# Elastic Compliance Matrix: (Units=1/GPa)
#
#
# Indices 1 2 3 4 5 6 
#
# 1 0.021776 -0.008034 -0.004026 0.000000 0.000000 0.000000
# 2 -0.008034 0.012950 -0.005481 0.000000 0.000000 0.000000
# 3 -0.004026 -0.005481 0.015407 0.000000 0.000000 0.000000
# 4 0.000000 0.000000 0.000000 0.251740 0.000000 0.000000
# 5 0.000000 0.000000 0.000000 0.000000 0.043323 0.000000
# 6 0.000000 0.000000 0.000000 0.000000 0.000000 0.029967
#
#
# Mechanical properties :
#
#
# Convention : Reuss Voigt Hill
#
# Bulk Modulus (GPa) = 66.44213 77.85594 72.14904
# Shear Modulus (GPa) = 12.04061 21.85864 16.94963
#
# Velocity S-wave (km/s) = 2.58132 3.47799 3.06265
# Velocity P-wave (km/s) = 6.75669 7.69503 7.24108
#
# Compressibility (1/GPa) = 0.01505069
#
# Stress axis : x y z
#
# Youngs Moduli (GPa) = 45.92229 77.21876 64.90633
#
# Poissons Ratio (x) = 0.62041 0.26131
# Poissons Ratio (y) = 0.36896 0.35573
# Poissons Ratio (z) = 0.18488 0.42321
#
# Static dielectric constant tensor:
#      x y z
#    x 3.356500 0.000000 0.000000 
#    y 0.000000 3.324410 0.000000 
#    z 0.000000 0.000000 3.412650 
# 
# 
# High freq. dielectric constant tensor:
#      x y z
#    x 1.703630 0.000000 0.000000 
#    y 0.000000 1.700950 0.000000 
#    z 0.000000 0.000000 1.703220 
# 
# From -- ./inp_files/60047.got.cif
#   From: 2010.03.12/outbox.cif.g09.slc.cpg/sg63_31_cif.got.tgz:60047.got - 2010.04.10 19:34:48.
