data_PCOD8259894
_publ_section_title
;
Structure prediction by ZEFSAII (Michael W. Deem and Ramdas Pophale) SiO2 
 PCOD8259894
Probable space group: C M C M
;
_chemical_formula_sum "Si O2"
_cell_formula_units_Z 80
_cell_length_a 18.799247
_cell_length_b 29.365420
_cell_length_c 7.701445
_cell_angle_alpha 90.000000
_cell_angle_beta 90.000000
_cell_angle_gamma 90.000000
_cell_volume 4251.565645
_symmetry_space_group_name_H-M "C M C M"
_symmetry_group_IT_number 63
_symmetry_cell_setting 'orthorhombic'
loop_
_space_group_symop_operation_xyz
x,y,z
-x,-y,1/2+z
x,-y,-z
-x,y,1/2-z
-x,-y,-z
x,y,1/2-z
-x,y,z
x,-y,1/2+z
1/2+x,1/2+y,z
1/2-x,1/2-y,1/2+z
1/2+x,1/2-y,-z
1/2-x,1/2+y,1/2-z
1/2-x,1/2-y,-z
1/2+x,1/2+y,1/2-z
1/2-x,1/2+y,z
1/2+x,1/2-y,1/2+z
loop_
_atom_site_type_symbol
_atom_site_label
_atom_site_fract_x
_atom_site_fract_y
_atom_site_fract_z
Si Si1 0.915783 0.392150 0.250000
Si Si2 0.818385 0.049908 0.049007
Si Si3 0.084590 0.226467 0.943949
Si Si4 0.415198 0.211071 0.750000
Si Si5 0.077102 0.127684 0.551285
Si Si6 0.844822 0.449373 0.954636
O O1 0.887430 0.340548 0.250000
O O2 0.889107 0.414901 0.427930
O O3 0.000000 0.394720 0.250000
O O4 0.825155 0.058050 0.250000
O O5 0.737265 0.055302 0.987314
O O6 0.866394 0.087628 0.960469
O O7 0.847341 0.000000 0.000000
O O8 0.116117 0.235636 0.750000
O O9 0.105774 0.176259 0.020980
O O10 0.000000 0.229473 0.936631
O O11 0.115030 0.264079 0.077326
O O12 0.500000 0.212742 0.750000
O O13 0.062806 0.138230 0.750000
O O14 0.000000 0.114214 0.466251
O O15 0.856294 0.438947 0.750000
O O16 0.871615 0.500000 0.000000
#
# Coordination Sequence:
#
# PCOD8259894 Si02
#       6
#     8  16  16   8  16  16
#     4  11  24  38  60  91 111 137 173 220 289 331
#     4  10  21  34  54  78 104 149 192 222 268 322
#     4   8  15  29  49  74 107 143 179 223 268 313
#     4   9  18  32  52  79 108 137 175 218 268 331
#     4   9  18  31  50  81 112 144 189 234 274 307
#     4  10  21  40  60  82 111 146 185 217 262 338
#
# _framework density 18.816597999999999
#
# number of rings (size 3 to 8) (size 9 to 14) (size 15 to 20)
#    0.000    2.600    1.000    1.800    4.200    2.400 
#    0.000    2.000    0.000    1.200    0.000    0.000 
#    0.000    0.000    0.000    0.000    0.000    0.000 
#
# Total GULP energy -495732.355022 kJ/mol
# GULP energy per Si atom -12393.308876 kJ/mol
# Density = 1.877377 g / cm^3
# Si number density = 18.816598 Si / 1000 Ang^3
#
#
#
# Elastic Constant Matrix: (Units=GPa)
#
#
# Indices 1 2 3 4 5 6 
#
# 1 48.5682 52.4214 27.9858 0.0000 0.0000 0.0000
# 2 52.4214 173.6069 64.9933 0.0000 0.0000 0.0000
# 3 27.9858 64.9933 97.6268 0.0000 0.0000 0.0000
# 4 0.0000 0.0000 0.0000 33.5894 0.0000 0.0000
# 5 0.0000 0.0000 0.0000 0.0000 20.6523 0.0000
# 6 0.0000 0.0000 0.0000 0.0000 0.0000 -8.1578
#
#
#
# Elastic Compliance Matrix: (Units=1/GPa)
#
#
# Indices 1 2 3 4 5 6 
#
# 1 0.031461 -0.008156 -0.003589 0.000000 0.000000 0.000000
# 2 -0.008156 0.009787 -0.004177 0.000000 0.000000 0.000000
# 3 -0.003589 -0.004177 0.014053 0.000000 0.000000 0.000000
# 4 0.000000 0.000000 0.000000 0.029771 0.000000 0.000000
# 5 0.000000 0.000000 0.000000 0.000000 0.048421 0.000000
# 6 0.000000 0.000000 0.000000 0.000000 0.000000 -0.122582
#
#
# Mechanical properties :
#
#
# Convention : Reuss Voigt Hill
#
# Bulk Modulus (GPa) = 42.63327 67.84478 55.23902
# Shear Modulus (GPa) = 98.86586 20.84354 59.85470
#
# Velocity S-wave (km/s) = 7.25644 3.33185 5.64611
# Velocity P-wave (km/s) = 9.63921 7.13693 8.48086
#
# Compressibility (1/GPa) = 0.02345586
#
# Stress axis : x y z
#
# Youngs Moduli (GPa) = 31.78564 102.17833 71.16013
#
# Poissons Ratio (x) = 0.83339 0.25537
# Poissons Ratio (y) = 0.25925 0.29726
# Poissons Ratio (z) = 0.11407 0.42683
#
# Static dielectric constant tensor:
#      x y z
#    x 3.151350 0.000000 0.000000 
#    y 0.000000 3.604030 0.000000 
#    z 0.000000 0.000000 3.592720 
# 
# 
# High freq. dielectric constant tensor:
#      x y z
#    x 1.688440 0.000000 0.000000 
#    y 0.000000 1.736060 0.000000 
#    z 0.000000 0.000000 1.740700 
# 
# From -- ./inp_files/8106.got.cif
#   From: 2010.03.12/outbox.cif.g09.slc.cpg/sg63_5_cif.got.tgz:8106.got - 2010.04.10 19:34:48.
