data_PCOD8259641
_publ_section_title
;
Structure prediction by ZEFSAII (Michael W. Deem and Ramdas Pophale) SiO2 
 PCOD8259641
Probable space group: C M C M
;
_chemical_formula_sum "Si O2"
_cell_formula_units_Z 96
_cell_length_a 25.067645
_cell_length_b 23.631403
_cell_length_c 8.704159
_cell_angle_alpha 90.000000
_cell_angle_beta 90.000000
_cell_angle_gamma 90.000000
_cell_volume 5156.201228
_symmetry_space_group_name_H-M "C M C M"
_symmetry_group_IT_number 63
_symmetry_cell_setting 'orthorhombic'
loop_
_space_group_symop_operation_xyz
x,y,z
-x,-y,1/2+z
x,-y,-z
-x,y,1/2-z
-x,-y,-z
x,y,1/2-z
-x,y,z
x,-y,1/2+z
1/2+x,1/2+y,z
1/2-x,1/2-y,1/2+z
1/2+x,1/2-y,-z
1/2-x,1/2+y,1/2-z
1/2-x,1/2-y,-z
1/2+x,1/2+y,1/2-z
1/2-x,1/2+y,z
1/2+x,1/2-y,1/2+z
loop_
_atom_site_type_symbol
_atom_site_label
_atom_site_fract_x
_atom_site_fract_y
_atom_site_fract_z
Si Si1 0.812016 0.940081 0.567350
Si Si2 0.500000 0.561539 0.569388
Si Si3 0.808834 0.557936 0.428655
Si Si4 0.061676 0.250844 0.431474
Si Si5 0.094117 0.366610 0.569586
Si Si6 0.599491 0.635724 0.932255
Si Si7 0.000000 0.561827 0.930885
O O1 0.819897 0.939843 0.750000
O O2 0.751112 0.928723 0.515127
O O3 0.845192 0.890058 0.489877
O O4 0.831922 0.000000 0.500000
O O5 0.500000 0.500000 0.500000
O O6 0.500000 0.555427 0.750000
O O7 0.448062 0.594950 0.512103
O O8 0.831205 0.500000 0.500000
O O9 0.808256 0.546780 0.250000
O O10 0.847095 0.610071 0.472177
O O11 0.066456 0.257656 0.250000
O O12 0.091127 0.302664 0.512778
O O13 0.092368 0.195571 0.486505
O O14 0.000000 0.248527 0.483845
O O15 0.082344 0.369772 0.750000
O O16 0.051875 0.404719 0.482182
O O17 0.599648 0.643968 0.750000
O O18 0.000000 0.556688 0.750000
O O19 0.000000 0.500000 0.000000
#
# Coordination Sequence:
#
# PCOD8259641 Si02
#       7
#    16   8  16  16  16  16   8
#     4  10  20  37  59  86 118 151 190 236 286 342
#     4  10  22  35  52  79 112 143 177 225 277 332
#     4   9  20  37  59  86 116 151 190 234 287 341
#     4  11  23  39  59  84 114 152 193 236 287 342
#     4  11  22  38  60  85 114 151 192 237 287 343
#     4  11  22  38  58  83 113 151 194 235 284 340
#     4  12  24  37  54  83 118 151 187 235 289 344
#
# _framework density 18.618358000000001
#
# number of rings (size 3 to 8) (size 9 to 14) (size 15 to 20)
#    0.000    1.500    1.667    3.750    0.000    6.667 
#    0.000    0.833    0.000    0.000    0.000    0.000 
#    0.000    0.000    0.000    0.000    0.000    0.000 
#
# Total GULP energy -595423.866935 kJ/mol
# GULP energy per Si atom -12404.663894 kJ/mol
# Density = 1.857598 g / cm^3
# Si number density = 18.618358 Si / 1000 Ang^3
#
#
#
# Elastic Constant Matrix: (Units=GPa)
#
#
# Indices 1 2 3 4 5 6 
#
# 1 104.2383 64.5934 35.5132 0.0000 0.0000 0.0000
# 2 64.5934 148.1626 34.8390 0.0000 0.0000 0.0000
# 3 35.5132 34.8390 68.6659 0.0000 0.0000 0.0000
# 4 0.0000 0.0000 0.0000 38.2365 0.0000 0.0000
# 5 0.0000 0.0000 0.0000 0.0000 24.9871 0.0000
# 6 0.0000 0.0000 0.0000 0.0000 0.0000 30.8812
#
#
#
# Elastic Compliance Matrix: (Units=1/GPa)
#
#
# Indices 1 2 3 4 5 6 
#
# 1 0.014441 -0.005155 -0.004853 0.000000 0.000000 0.000000
# 2 -0.005155 0.009503 -0.002156 0.000000 0.000000 0.000000
# 3 -0.004853 -0.002156 0.018167 0.000000 0.000000 0.000000
# 4 0.000000 0.000000 0.000000 0.026153 0.000000 0.000000
# 5 0.000000 0.000000 0.000000 0.000000 0.040021 0.000000
# 6 0.000000 0.000000 0.000000 0.000000 0.000000 0.032382
#
#
# Mechanical properties :
#
#
# Convention : Reuss Voigt Hill
#
# Bulk Modulus (GPa) = 56.23049 65.66200 60.94624
# Shear Modulus (GPa) = 29.25286 31.22904 30.24095
#
# Velocity S-wave (km/s) = 3.96812 4.09996 4.03458
# Velocity P-wave (km/s) = 7.15973 7.59979 7.38304
#
# Compressibility (1/GPa) = 0.01778395
#
# Stress axis : x y z
#
# Youngs Moduli (GPa) = 69.24702 105.22483 55.04405
#
# Poissons Ratio (x) = 0.54238 0.26716
# Poissons Ratio (y) = 0.35693 0.11867
# Poissons Ratio (z) = 0.33609 0.22686
#
# Static dielectric constant tensor:
#      x y z
#    x 3.881740 0.000000 0.000000 
#    y 0.000000 3.430360 0.000000 
#    z 0.000000 0.000000 3.518000 
# 
# 
# High freq. dielectric constant tensor:
#      x y z
#    x 1.724340 0.000000 0.000000 
#    y 0.000000 1.726940 0.000000 
#    z 0.000000 0.000000 1.734040 
# 
# From -- ./inp_files/10509.got.cif
#   From: 2010.03.12/outbox.cif.g09.slc.cpg/sg63_6_cif.got.tgz:10509.got - 2010.04.10 19:34:48.
