data_PCOD8259682
_publ_section_title
;
Structure prediction by ZEFSAII (Michael W. Deem and Ramdas Pophale) SiO2 
 PCOD8259682
Probable space group: C M C M
;
_chemical_formula_sum "Si O2"
_cell_formula_units_Z 96
_cell_length_a 14.183115
_cell_length_b 24.372475
_cell_length_c 13.903415
_cell_angle_alpha 90.000000
_cell_angle_beta 90.000000
_cell_angle_gamma 90.000000
_cell_volume 4806.099348
_symmetry_space_group_name_H-M "C M C M"
_symmetry_group_IT_number 63
_symmetry_cell_setting 'orthorhombic'
loop_
_space_group_symop_operation_xyz
x,y,z
-x,-y,1/2+z
x,-y,-z
-x,y,1/2-z
-x,-y,-z
x,y,1/2-z
-x,y,z
x,-y,1/2+z
1/2+x,1/2+y,z
1/2-x,1/2-y,1/2+z
1/2+x,1/2-y,-z
1/2-x,1/2+y,1/2-z
1/2-x,1/2-y,-z
1/2+x,1/2+y,1/2-z
1/2-x,1/2+y,z
1/2+x,1/2-y,1/2+z
loop_
_atom_site_type_symbol
_atom_site_label
_atom_site_fract_x
_atom_site_fract_y
_atom_site_fract_z
Si Si1 0.888460 0.607856 0.972915
Si Si2 0.255614 0.094190 0.361238
Si Si3 0.388021 0.213955 0.641755
Si Si4 0.609637 0.326167 0.550811
Si Si5 0.107717 0.880233 0.357370
Si Si6 0.262825 0.031355 0.639775
O O1 0.851276 0.658853 0.909085
O O2 0.850592 0.552408 0.923506
O O3 0.000000 0.604895 0.981535
O O4 0.845600 0.615685 0.079067
O O5 0.279592 0.102881 0.250000
O O6 0.161925 0.126964 0.389003
O O7 0.237485 0.030737 0.387777
O O8 0.347162 0.216145 0.750000
O O9 0.500000 0.212819 0.643844
O O10 0.351919 0.266594 0.582128
O O11 0.500000 0.332223 0.576948
O O12 0.627671 0.332875 0.436153
O O13 0.129746 0.857106 0.250000
O O14 0.170508 0.932867 0.382224
O O15 0.000000 0.900268 0.364288
O O16 0.294684 0.035747 0.750000
#
# Coordination Sequence:
#
# PCOD8259682 Si02
#       6
#    16  16  16  16  16  16
#     4  11  23  40  61  82 110 153 204 251 294 336
#     4  11  24  39  56  85 122 153 191 241 295 354
#     4   9  19  37  61  88 115 147 195 246 287 341
#     4  10  20  37  62  89 120 154 187 231 290 351
#     4   9  18  34  57  87 122 156 190 229 281 350
#     4  10  21  38  59  85 118 152 192 243 291 344
#
# _framework density 19.974618
#
# number of rings (size 3 to 8) (size 9 to 14) (size 15 to 20)
#    0.000    2.000    1.667    1.500    0.000    5.000 
#    0.000    5.833    0.000    3.000    0.000    0.000 
#    0.000    0.000    0.000    0.000    0.000    0.000 
#
# Total GULP energy -595275.547840 kJ/mol
# GULP energy per Si atom -12401.573913 kJ/mol
# Density = 1.992915 g / cm^3
# Si number density = 19.974618 Si / 1000 Ang^3
#
#
#
# Elastic Constant Matrix: (Units=GPa)
#
#
# Indices 1 2 3 4 5 6 
#
# 1 63.8555 20.7127 37.2791 0.0000 0.0000 0.0000
# 2 20.7127 101.5871 62.9220 0.0000 0.0000 0.0000
# 3 37.2791 62.9220 137.1925 0.0000 0.0000 0.0000
# 4 0.0000 0.0000 0.0000 32.4029 0.0000 0.0000
# 5 0.0000 0.0000 0.0000 0.0000 29.4039 0.0000
# 6 0.0000 0.0000 0.0000 0.0000 0.0000 28.0086
#
#
#
# Elastic Compliance Matrix: (Units=1/GPa)
#
#
# Indices 1 2 3 4 5 6 
#
# 1 0.018676 -0.000928 -0.004649 0.000000 0.000000 0.000000
# 2 -0.000928 0.013796 -0.006075 0.000000 0.000000 0.000000
# 3 -0.004649 -0.006075 0.011339 0.000000 0.000000 0.000000
# 4 0.000000 0.000000 0.000000 0.030861 0.000000 0.000000
# 5 0.000000 0.000000 0.000000 0.000000 0.034009 0.000000
# 6 0.000000 0.000000 0.000000 0.000000 0.000000 0.035703
#
#
# Mechanical properties :
#
#
# Convention : Reuss Voigt Hill
#
# Bulk Modulus (GPa) = 48.76771 60.49585 54.63178
# Shear Modulus (GPa) = 28.64942 30.07783 29.36362
#
# Velocity S-wave (km/s) = 3.79131 3.88468 3.83828
# Velocity P-wave (km/s) = 6.60555 7.10444 6.85953
#
# Compressibility (1/GPa) = 0.02050537
#
# Stress axis : x y z
#
# Youngs Moduli (GPa) = 53.54598 72.48531 88.19457
#
# Poissons Ratio (x) = 0.06729 0.41001
# Poissons Ratio (y) = 0.04970 0.53579
# Poissons Ratio (z) = 0.24893 0.44036
#
# Static dielectric constant tensor:
#      x y z
#    x 3.453300 0.000000 0.000000 
#    y 0.000000 3.723470 0.000000 
#    z 0.000000 0.000000 3.937080 
# 
# 
# High freq. dielectric constant tensor:
#      x y z
#    x 1.768840 0.000000 0.000000 
#    y 0.000000 1.773340 0.000000 
#    z 0.000000 0.000000 1.796260 
# 
# From -- ./inp_files/31865.got.cif
#   From: 2010.03.12/outbox.cif.g09.slc.cpg/sg63_16_cif.got.tgz:31865.got - 2010.04.10 19:34:48.
