data_PCOD8259204
_publ_section_title
;
Structure prediction by ZEFSAII (Michael W. Deem and Ramdas Pophale) SiO2 
 PCOD8259204
Probable space group: C M C M
;
_chemical_formula_sum "Si O2"
_cell_formula_units_Z 64
_cell_length_a 8.782567
_cell_length_b 15.404597
_cell_length_c 26.652416
_cell_angle_alpha 90.000000
_cell_angle_beta 90.000000
_cell_angle_gamma 90.000000
_cell_volume 3605.856140
_symmetry_space_group_name_H-M "C M C M"
_symmetry_group_IT_number 63
_symmetry_cell_setting 'orthorhombic'
loop_
_space_group_symop_operation_xyz
x,y,z
-x,-y,1/2+z
x,-y,-z
-x,y,1/2-z
-x,-y,-z
x,y,1/2-z
-x,y,z
x,-y,1/2+z
1/2+x,1/2+y,z
1/2-x,1/2-y,1/2+z
1/2+x,1/2-y,-z
1/2-x,1/2+y,1/2-z
1/2-x,1/2-y,-z
1/2+x,1/2+y,1/2-z
1/2-x,1/2+y,z
1/2+x,1/2-y,1/2+z
loop_
_atom_site_type_symbol
_atom_site_label
_atom_site_fract_x
_atom_site_fract_y
_atom_site_fract_z
Si Si1 0.178103 0.644366 0.390028
Si Si2 0.326548 0.184659 0.595922
Si Si3 0.673694 0.731371 0.305869
Si Si4 0.177235 0.985289 0.442578
O O1 0.264469 0.720382 0.421882
O O2 0.224585 0.654783 0.331058
O O3 0.226690 0.550264 0.408545
O O4 0.000000 0.656209 0.397096
O O5 0.500000 0.172130 0.577366
O O6 0.316309 0.183890 0.657373
O O7 0.219819 0.111920 0.572682
O O8 0.733988 0.753981 0.250000
O O9 0.500000 0.698243 0.303675
O O10 0.000000 0.001434 0.433076
O O11 0.222263 0.000000 0.500000
#
# Coordination Sequence:
#
# PCOD8259204 Si02
#       4
#    16  16  16  16
#     4  10  20  35  56  82 112 144 180 222 270 323
#     4   9  19  36  57  81 110 143 180 223 270 320
#     4   8  16  34  58  81 109 143 177 219 269 319
#     4  11  23  38  56  79 108 145 187 228 272 322
#
# _framework density 17.748906000000002
#
# number of rings (size 3 to 8) (size 9 to 14) (size 15 to 20)
#    1.500    1.000    0.000    3.000    0.000    3.500 
#    0.000    1.250    0.000    4.500    0.000    0.000 
#    0.000    0.000    0.000    0.000    0.000    0.000 
#
# Total GULP energy -396450.253399 kJ/mol
# GULP energy per Si atom -12389.070419 kJ/mol
# Density = 1.770851 g / cm^3
# Si number density = 17.748906 Si / 1000 Ang^3
#
#
#
# Elastic Constant Matrix: (Units=GPa)
#
#
# Indices 1 2 3 4 5 6 
#
# 1 79.8399 9.8809 25.8375 0.0000 0.0000 0.0000
# 2 9.8809 44.1492 -11.6721 0.0000 0.0000 0.0000
# 3 25.8375 -11.6721 42.8478 0.0000 0.0000 0.0000
# 4 0.0000 0.0000 0.0000 25.5913 0.0000 0.0000
# 5 0.0000 0.0000 0.0000 0.0000 12.1037 0.0000
# 6 0.0000 0.0000 0.0000 0.0000 0.0000 30.9654
#
#
#
# Elastic Compliance Matrix: (Units=1/GPa)
#
#
# Indices 1 2 3 4 5 6 
#
# 1 0.017460 -0.007211 -0.012493 0.000000 0.000000 0.000000
# 2 -0.007211 0.027386 0.011808 0.000000 0.000000 0.000000
# 3 -0.012493 0.011808 0.034089 0.000000 0.000000 0.000000
# 4 0.000000 0.000000 0.000000 0.039076 0.000000 0.000000
# 5 0.000000 0.000000 0.000000 0.000000 0.082620 0.000000
# 6 0.000000 0.000000 0.000000 0.000000 0.000000 0.032294
#
#
# Mechanical properties :
#
#
# Convention : Reuss Voigt Hill
#
# Bulk Modulus (GPa) = 15.83673 23.88106 19.85890
# Shear Modulus (GPa) = 18.53476 23.25145 20.89311
#
# Velocity S-wave (km/s) = 3.23503 3.62335 3.43468
# Velocity P-wave (km/s) = 4.78497 5.56678 5.19061
#
# Compressibility (1/GPa) = 0.06314435
#
# Stress axis : x y z
#
# Youngs Moduli (GPa) = 57.27247 36.51483 29.33540
#
# Poissons Ratio (x) = 0.26330 0.36649
# Poissons Ratio (y) = 0.41297 -0.34640
# Poissons Ratio (z) = 0.71550 -0.43118
#
# Static dielectric constant tensor:
#      x y z
#    x 3.252130 0.000000 0.000000 
#    y 0.000000 2.991520 0.000000 
#    z 0.000000 0.000000 3.283590 
# 
# 
# High freq. dielectric constant tensor:
#      x y z
#    x 1.697210 0.000000 0.000000 
#    y 0.000000 1.664530 0.000000 
#    z 0.000000 0.000000 1.672710 
# 
# From -- ./inp_files/71425.got.cif
#   From: 2010.03.12/outbox.cif.g09.slc.cpg/sg63_36_cif.got.tgz:71425.got - 2010.04.10 19:34:48.
