data_PCOD8259561
_publ_section_title
;
Structure prediction by ZEFSAII (Michael W. Deem and Ramdas Pophale) SiO2 
 PCOD8259561
Probable space group: C M C M
;
_chemical_formula_sum "Si O2"
_cell_formula_units_Z 88
_cell_length_a 20.963686
_cell_length_b 13.632307
_cell_length_c 15.921652
_cell_angle_alpha 90.000000
_cell_angle_beta 90.000000
_cell_angle_gamma 90.000000
_cell_volume 4550.143896
_symmetry_space_group_name_H-M "C M C M"
_symmetry_group_IT_number 63
_symmetry_cell_setting 'orthorhombic'
loop_
_space_group_symop_operation_xyz
x,y,z
-x,-y,1/2+z
x,-y,-z
-x,y,1/2-z
-x,-y,-z
x,y,1/2-z
-x,y,z
x,-y,1/2+z
1/2+x,1/2+y,z
1/2-x,1/2-y,1/2+z
1/2+x,1/2-y,-z
1/2-x,1/2+y,1/2-z
1/2-x,1/2-y,-z
1/2+x,1/2+y,1/2-z
1/2-x,1/2+y,z
1/2+x,1/2-y,1/2+z
loop_
_atom_site_type_symbol
_atom_site_label
_atom_site_fract_x
_atom_site_fract_y
_atom_site_fract_z
Si Si1 0.382974 0.500000 0.500000
Si Si2 0.426866 0.122359 0.654099
Si Si3 0.697142 0.424299 0.342388
Si Si4 0.694137 0.766112 0.569569
Si Si5 0.182276 0.514279 0.404477
Si Si6 0.571149 0.290279 0.972012
O O1 0.341745 0.529331 0.580882
O O2 0.424298 0.591301 0.465290
O O3 0.405428 0.131625 0.750000
O O4 0.500000 0.088809 0.645285
O O5 0.416798 0.231139 0.614786
O O6 0.386558 0.036002 0.609160
O O7 0.666387 0.444699 0.250000
O O8 0.705064 0.308212 0.354533
O O9 0.768526 0.464862 0.341349
O O10 0.750000 0.750000 0.500000
O O11 0.688832 0.870847 0.613334
O O12 0.623897 0.748684 0.534327
O O13 0.204027 0.500000 0.500000
O O14 0.500000 0.265573 0.005545
#
# Coordination Sequence:
#
# PCOD8259561 Si02
#       6
#     8  16  16  16  16  16
#     4  10  21  40  60  86 121 152 204 252 295 360
#     4  10  22  37  54  85 122 155 200 251 299 364
#     4  11  23  38  58  87 120 156 198 248 304 359
#     4  11  21  38  59  86 119 152 195 252 300 360
#     4  12  20  36  62  86 117 154 200 247 301 360
#     4  10  20  36  61  86 115 156 198 246 303 356
#
# _framework density 19.340047999999999
#
# number of rings (size 3 to 8) (size 9 to 14) (size 15 to 20)
#    0.000    1.273    4.545    1.909    0.000    3.273 
#    0.000    0.000    0.000   13.091    0.000    0.000 
#    0.000    0.000    0.000    0.000    0.000    0.000 
#
# Total GULP energy -545210.549192 kJ/mol
# GULP energy per Si atom -12391.148845 kJ/mol
# Density = 1.929603 g / cm^3
# Si number density = 19.340048 Si / 1000 Ang^3
#
#
#
# Elastic Constant Matrix: (Units=GPa)
#
#
# Indices 1 2 3 4 5 6 
#
# 1 106.8433 58.8831 34.8675 0.0000 0.0000 0.0000
# 2 58.8831 160.7043 53.1758 0.0000 0.0000 0.0000
# 3 34.8675 53.1758 117.4209 0.0000 0.0000 0.0000
# 4 0.0000 0.0000 0.0000 22.6370 0.0000 0.0000
# 5 0.0000 0.0000 0.0000 0.0000 17.9771 0.0000
# 6 0.0000 0.0000 0.0000 0.0000 0.0000 28.3655
#
#
#
# Elastic Compliance Matrix: (Units=1/GPa)
#
#
# Indices 1 2 3 4 5 6 
#
# 1 0.012063 -0.003805 -0.001859 0.000000 0.000000 0.000000
# 2 -0.003805 0.008520 -0.002728 0.000000 0.000000 0.000000
# 3 -0.001859 -0.002728 0.010304 0.000000 0.000000 0.000000
# 4 0.000000 0.000000 0.000000 0.044175 0.000000 0.000000
# 5 0.000000 0.000000 0.000000 0.000000 0.055626 0.000000
# 6 0.000000 0.000000 0.000000 0.000000 0.000000 0.035254
#
#
# Mechanical properties :
#
#
# Convention : Reuss Voigt Hill
#
# Bulk Modulus (GPa) = 70.91108 75.42458 73.16783
# Shear Modulus (GPa) = 26.67699 29.66541 28.17120
#
# Velocity S-wave (km/s) = 3.71801 3.92073 3.82072
# Velocity P-wave (km/s) = 7.42809 7.71881 7.57484
#
# Compressibility (1/GPa) = 0.01410217
#
# Stress axis : x y z
#
# Youngs Moduli (GPa) = 82.89749 117.37737 97.05002
#
# Poissons Ratio (x) = 0.44661 0.18041
# Poissons Ratio (y) = 0.31541 0.26479
# Poissons Ratio (z) = 0.15410 0.32025
#
# Static dielectric constant tensor:
#      x y z
#    x 3.585690 0.000000 0.000000 
#    y 0.000000 4.097410 0.000000 
#    z 0.000000 0.000000 3.194810 
# 
# 
# High freq. dielectric constant tensor:
#      x y z
#    x 1.755850 0.000000 0.000000 
#    y 0.000000 1.767750 0.000000 
#    z 0.000000 0.000000 1.735590 
# 
# From -- ./inp_files/35207.got.cif
#   From: 2010.03.12/outbox.cif.g09.slc.cpg/sg63_18_cif.got.tgz:35207.got - 2010.04.10 19:34:48.
