data_PCOD8259723
_publ_section_title
;
Structure prediction by ZEFSAII (Michael W. Deem and Ramdas Pophale) SiO2 
 PCOD8259723
Probable space group: C M C M
;
_chemical_formula_sum "Si O2"
_cell_formula_units_Z 64
_cell_length_a 9.289907
_cell_length_b 36.490936
_cell_length_c 9.631795
_cell_angle_alpha 90.000000
_cell_angle_beta 90.000000
_cell_angle_gamma 90.000000
_cell_volume 3265.153480
_symmetry_space_group_name_H-M "C M C M"
_symmetry_group_IT_number 63
_symmetry_cell_setting 'orthorhombic'
loop_
_space_group_symop_operation_xyz
x,y,z
-x,-y,1/2+z
x,-y,-z
-x,y,1/2-z
-x,-y,-z
x,y,1/2-z
-x,y,z
x,-y,1/2+z
1/2+x,1/2+y,z
1/2-x,1/2-y,1/2+z
1/2+x,1/2-y,-z
1/2-x,1/2+y,1/2-z
1/2-x,1/2-y,-z
1/2+x,1/2+y,1/2-z
1/2-x,1/2+y,z
1/2+x,1/2-y,1/2+z
loop_
_atom_site_type_symbol
_atom_site_label
_atom_site_fract_x
_atom_site_fract_y
_atom_site_fract_z
Si Si1 0.829954 0.034641 0.590171
Si Si2 0.835534 0.589109 0.094855
Si Si3 0.170508 0.275788 0.750000
Si Si4 0.670996 0.307265 0.250000
Si Si5 0.834333 0.671249 0.012456
O O1 0.778934 0.030279 0.750000
O O2 0.761478 0.070697 0.522937
O O3 0.000000 0.039061 0.582294
O O4 0.777107 0.000000 0.500000
O O5 0.788121 0.576613 0.250000
O O6 0.000000 0.577648 0.066954
O O7 0.818079 0.632657 0.088723
O O8 0.229878 0.234487 0.750000
O O9 0.224897 0.296886 0.613419
O O10 0.000000 0.276859 0.750000
O O11 0.500000 0.308807 0.250000
O O12 0.731459 0.328879 0.119202
O O13 0.000000 0.678178 0.968491
#
# Coordination Sequence:
#
# PCOD8259723 Si02
#       5
#    16  16   8   8  16
#     4  10  22  40  62  88 119 155 189 224 275 337
#     4  10  21  38  61  86 112 148 195 240 282 332
#     4   9  18  37  61  81 108 149 196 241 286 339
#     4  11  23  35  53  85 118 147 188 243 292 341
#     4  10  20  38  60  81 110 153 195 235 287 344
#
# _framework density 19.600916999999999
#
# number of rings (size 3 to 8) (size 9 to 14) (size 15 to 20)
#    0.000    2.000    1.250    1.875    1.750    3.500 
#    0.000    1.875    0.000    0.000    0.000    0.000 
#    0.000    0.000    0.000    0.000    0.000    0.000 
#
# Total GULP energy -396875.928168 kJ/mol
# GULP energy per Si atom -12402.372755 kJ/mol
# Density = 1.955630 g / cm^3
# Si number density = 19.600917 Si / 1000 Ang^3
#
#
#
# Elastic Constant Matrix: (Units=GPa)
#
#
# Indices 1 2 3 4 5 6 
#
# 1 47.7727 24.6850 43.4464 0.0000 0.0000 0.0000
# 2 24.6850 67.0954 33.3701 0.0000 0.0000 0.0000
# 3 43.4464 33.3701 151.5789 0.0000 0.0000 0.0000
# 4 0.0000 0.0000 0.0000 38.1381 0.0000 0.0000
# 5 0.0000 0.0000 0.0000 0.0000 18.8228 0.0000
# 6 0.0000 0.0000 0.0000 0.0000 0.0000 31.5358
#
#
#
# Elastic Compliance Matrix: (Units=1/GPa)
#
#
# Indices 1 2 3 4 5 6 
#
# 1 0.031753 -0.008035 -0.007332 0.000000 0.000000 0.000000
# 2 -0.008035 0.018770 -0.001829 0.000000 0.000000 0.000000
# 3 -0.007332 -0.001829 0.009101 0.000000 0.000000 0.000000
# 4 0.000000 0.000000 0.000000 0.026221 0.000000 0.000000
# 5 0.000000 0.000000 0.000000 0.000000 0.053127 0.000000
# 6 0.000000 0.000000 0.000000 0.000000 0.000000 0.031710
#
#
# Mechanical properties :
#
#
# Convention : Reuss Voigt Hill
#
# Bulk Modulus (GPa) = 39.63382 52.16109 45.89745
# Shear Modulus (GPa) = 23.42082 28.69571 26.05826
#
# Velocity S-wave (km/s) = 3.46046 3.83037 3.65011
# Velocity P-wave (km/s) = 6.01919 6.79939 6.42115
#
# Compressibility (1/GPa) = 0.02523098
#
# Stress axis : x y z
#
# Youngs Moduli (GPa) = 31.49350 53.27602 109.87241
#
# Poissons Ratio (x) = 0.42810 0.80560
# Poissons Ratio (y) = 0.25306 0.20097
# Poissons Ratio (z) = 0.23091 0.09745
#
# Static dielectric constant tensor:
#      x y z
#    x 3.315510 0.000000 0.000000 
#    y 0.000000 3.575590 0.000000 
#    z 0.000000 0.000000 3.699010 
# 
# 
# High freq. dielectric constant tensor:
#      x y z
#    x 1.741310 0.000000 0.000000 
#    y 0.000000 1.767500 0.000000 
#    z 0.000000 0.000000 1.777750 
# 
# From -- ./inp_files/3205.got.cif
#   From: 2010.03.12/outbox.cif.g09.slc.cpg/sg63_2_cif.got.tgz:3205.got - 2010.04.10 19:34:48.
