data_PCOD8259755
_publ_section_title
;
Structure prediction by ZEFSAII (Michael W. Deem and Ramdas Pophale) SiO2 
 PCOD8259755
Probable space group: C M C M
;
_chemical_formula_sum "Si O2"
_cell_formula_units_Z 48
_cell_length_a 13.096134
_cell_length_b 12.490468
_cell_length_c 15.696430
_cell_angle_alpha 90.000000
_cell_angle_beta 90.000000
_cell_angle_gamma 90.000000
_cell_volume 2567.572460
_symmetry_space_group_name_H-M "C M C M"
_symmetry_group_IT_number 63
_symmetry_cell_setting 'orthorhombic'
loop_
_space_group_symop_operation_xyz
x,y,z
-x,-y,1/2+z
x,-y,-z
-x,y,1/2-z
-x,-y,-z
x,y,1/2-z
-x,y,z
x,-y,1/2+z
1/2+x,1/2+y,z
1/2-x,1/2-y,1/2+z
1/2+x,1/2-y,-z
1/2-x,1/2+y,1/2-z
1/2-x,1/2-y,-z
1/2+x,1/2+y,1/2-z
1/2-x,1/2+y,z
1/2+x,1/2-y,1/2+z
loop_
_atom_site_type_symbol
_atom_site_label
_atom_site_fract_x
_atom_site_fract_y
_atom_site_fract_z
Si Si1 0.000000 0.328858 0.486781
Si Si2 0.671933 0.487845 0.651090
Si Si3 0.000000 0.096540 0.570122
Si Si4 0.169764 0.500000 0.500000
Si Si5 0.500000 0.681637 0.346323
O O1 0.101340 0.394381 0.507289
O O2 0.000000 0.298663 0.387720
O O3 0.000000 0.213704 0.531421
O O4 0.708130 0.490941 0.750000
O O5 0.599460 0.589015 0.630571
O O6 0.766477 0.495224 0.587030
O O7 0.603262 0.383361 0.630535
O O8 0.000000 0.000000 0.500000
O O9 0.500000 0.711172 0.250000
#
# Coordination Sequence:
#
# PCOD8259755 Si02
#       5
#     8  16   8   8   8
#     4  11  23  38  57  81 119 160 189 231 286 339
#     4  10  20  38  62  89 115 145 192 241 287 337
#     4  11  18  38  65  86 107 146 190 242 281 330
#     4  11  24  39  54  84 124 157 186 227 288 350
#     4   9  18  35  60  87 112 145 193 243 282 332
#
# _framework density 18.694701999999999
#
# number of rings (size 3 to 8) (size 9 to 14) (size 15 to 20)
#    0.000    1.667    5.000    1.500    0.000    6.667 
#    0.000    9.167    0.000    0.000    0.000    0.000 
#    0.000    0.000    0.000    0.000    0.000    0.000 
#
# Total GULP energy -297348.888336 kJ/mol
# GULP energy per Si atom -12389.537014 kJ/mol
# Density = 1.865215 g / cm^3
# Si number density = 18.694702 Si / 1000 Ang^3
#
#
#
# Elastic Constant Matrix: (Units=GPa)
#
#
# Indices 1 2 3 4 5 6 
#
# 1 140.4802 58.4040 79.0378 0.0000 0.0000 0.0000
# 2 58.4040 124.6489 55.5424 0.0000 0.0000 0.0000
# 3 79.0378 55.5424 137.7286 0.0000 0.0000 0.0000
# 4 0.0000 0.0000 0.0000 22.6669 0.0000 0.0000
# 5 0.0000 0.0000 0.0000 0.0000 13.6333 0.0000
# 6 0.0000 0.0000 0.0000 0.0000 0.0000 3.6554
#
#
#
# Elastic Compliance Matrix: (Units=1/GPa)
#
#
# Indices 1 2 3 4 5 6 
#
# 1 0.011333 -0.002940 -0.005318 0.000000 0.000000 0.000000
# 2 -0.002940 0.010543 -0.002564 0.000000 0.000000 0.000000
# 3 -0.005318 -0.002564 0.011346 0.000000 0.000000 0.000000
# 4 0.000000 0.000000 0.000000 0.044117 0.000000 0.000000
# 5 0.000000 0.000000 0.000000 0.000000 0.073350 0.000000
# 6 0.000000 0.000000 0.000000 0.000000 0.000000 0.273572
#
#
# Mechanical properties :
#
#
# Convention : Reuss Voigt Hill
#
# Bulk Modulus (GPa) = 86.37604 87.64735 87.01170
# Shear Modulus (GPa) = 11.11693 21.98267 16.54980
#
# Velocity S-wave (km/s) = 2.44120 3.43283 2.97857
# Velocity P-wave (km/s) = 7.36544 7.91819 7.64681
#
# Compressibility (1/GPa) = 0.01157728
#
# Stress axis : x y z
#
# Youngs Moduli (GPa) = 88.23944 94.85072 88.13366
#
# Poissons Ratio (x) = 0.27890 0.46867
# Poissons Ratio (y) = 0.25946 0.22600
# Poissons Ratio (z) = 0.46923 0.24322
#
# Static dielectric constant tensor:
#      x y z
#    x 3.430040 0.000000 0.000000 
#    y 0.000000 4.877500 0.000000 
#    z 0.000000 0.000000 3.775640 
# 
# 
# High freq. dielectric constant tensor:
#      x y z
#    x 1.723080 0.000000 0.000000 
#    y 0.000000 1.707220 0.000000 
#    z 0.000000 0.000000 1.740770 
# 
# From -- ./inp_files/30785.got.cif
#   From: 2010.03.12/outbox.cif.g09.slc.cpg/sg63_16_cif.got.tgz:30785.got - 2010.04.10 19:34:48.
