data_PCOD8259762
_publ_section_title
;
Structure prediction by ZEFSAII (Michael W. Deem and Ramdas Pophale) SiO2 
 PCOD8259762
Probable space group: C M C M
;
_chemical_formula_sum "Si O2"
_cell_formula_units_Z 96
_cell_length_a 8.810414
_cell_length_b 24.673371
_cell_length_c 23.505679
_cell_angle_alpha 90.000000
_cell_angle_beta 90.000000
_cell_angle_gamma 90.000000
_cell_volume 5109.725928
_symmetry_space_group_name_H-M "C M C M"
_symmetry_group_IT_number 63
_symmetry_cell_setting 'orthorhombic'
loop_
_space_group_symop_operation_xyz
x,y,z
-x,-y,1/2+z
x,-y,-z
-x,y,1/2-z
-x,-y,-z
x,y,1/2-z
-x,y,z
x,-y,1/2+z
1/2+x,1/2+y,z
1/2-x,1/2-y,1/2+z
1/2+x,1/2-y,-z
1/2-x,1/2+y,1/2-z
1/2-x,1/2-y,-z
1/2+x,1/2+y,1/2-z
1/2-x,1/2+y,z
1/2+x,1/2-y,1/2+z
loop_
_atom_site_type_symbol
_atom_site_label
_atom_site_fract_x
_atom_site_fract_y
_atom_site_fract_z
Si Si1 0.821006 0.852406 0.250000
Si Si2 0.174528 0.678066 0.634967
Si Si3 0.675605 0.110153 0.055356
Si Si4 0.321507 0.584864 0.561080
Si Si5 0.173206 0.509103 0.128205
Si Si6 0.174462 0.776441 0.554703
Si Si7 0.174546 0.531603 0.750000
O O1 0.756907 0.821794 0.304751
O O2 0.777619 0.915347 0.250000
O O3 0.000000 0.847570 0.250000
O O4 0.249195 0.635582 0.592671
O O5 0.191533 0.737671 0.608920
O O6 0.000000 0.661447 0.643441
O O7 0.500000 0.118246 0.039676
O O8 0.698545 0.071122 0.109613
O O9 0.746085 0.167683 0.071328
O O10 0.757891 0.081999 0.002411
O O11 0.500000 0.593126 0.559387
O O12 0.283797 0.529406 0.592935
O O13 0.212057 0.504721 0.194975
O O14 0.000000 0.490991 0.116060
O O15 0.250000 0.750000 0.500000
O O16 0.000000 0.787647 0.539662
O O17 0.000000 0.550756 0.750000
#
# Coordination Sequence:
#
# PCOD8259762 Si02
#       7
#     8  16  16  16  16  16   8
#     4  12  24  38  61  94 123 153 198 252 300 349
#     4  11  23  40  62  88 121 161 199 243 301 362
#     4  11  23  39  59  86 123 164 203 245 301 367
#     4  12  23  35  58  90 123 155 198 253 303 355
#     4  10  22  39  60  86 119 160 203 244 300 369
#     4  11  23  39  63  89 118 157 202 249 302 357
#     4  10  20  38  63  84 113 159 202 242 294 359
#
# _framework density 18.787700000000001
#
# number of rings (size 3 to 8) (size 9 to 14) (size 15 to 20)
#    0.000    1.000    3.333    4.250    0.000    5.333 
#    0.000    0.833    0.000    1.000    0.000    0.000 
#    0.000    0.000    0.000    0.000    0.000    0.000 
#
# Total GULP energy -595480.132626 kJ/mol
# GULP energy per Si atom -12405.836096 kJ/mol
# Density = 1.874494 g / cm^3
# Si number density = 18.787700 Si / 1000 Ang^3
#
#
#
# Elastic Constant Matrix: (Units=GPa)
#
#
# Indices 1 2 3 4 5 6 
#
# 1 152.0593 60.9449 63.9927 0.0000 0.0000 0.0000
# 2 60.9449 120.9168 57.4570 0.0000 0.0000 0.0000
# 3 63.9927 57.4570 134.8434 0.0000 0.0000 0.0000
# 4 0.0000 0.0000 0.0000 28.2844 0.0000 0.0000
# 5 0.0000 0.0000 0.0000 0.0000 21.2526 0.0000
# 6 0.0000 0.0000 0.0000 0.0000 0.0000 32.2526
#
#
#
# Elastic Compliance Matrix: (Units=1/GPa)
#
#
# Indices 1 2 3 4 5 6 
#
# 1 0.009097 -0.003177 -0.002963 0.000000 0.000000 0.000000
# 2 -0.003177 0.011479 -0.003384 0.000000 0.000000 0.000000
# 3 -0.002963 -0.003384 0.010264 0.000000 0.000000 0.000000
# 4 0.000000 0.000000 0.000000 0.035355 0.000000 0.000000
# 5 0.000000 0.000000 0.000000 0.000000 0.047053 0.000000
# 6 0.000000 0.000000 0.000000 0.000000 0.000000 0.031005
#
#
# Mechanical properties :
#
#
# Convention : Reuss Voigt Hill
#
# Bulk Modulus (GPa) = 84.80122 85.84540 85.32331
# Shear Modulus (GPa) = 29.89855 31.38624 30.64240
#
# Velocity S-wave (km/s) = 3.99355 4.09170 4.04292
# Velocity P-wave (km/s) = 8.15470 8.25313 8.20406
#
# Compressibility (1/GPa) = 0.01179228
#
# Stress axis : x y z
#
# Youngs Moduli (GPa) = 109.92910 87.11412 97.42657
#
# Poissons Ratio (x) = 0.27675 0.28871
# Poissons Ratio (y) = 0.34923 0.32966
# Poissons Ratio (z) = 0.32576 0.29477
#
# Static dielectric constant tensor:
#      x y z
#    x 3.624760 0.000000 0.000000 
#    y 0.000000 3.446370 0.000000 
#    z 0.000000 0.000000 3.605880 
# 
# 
# High freq. dielectric constant tensor:
#      x y z
#    x 1.743270 0.000000 0.000000 
#    y 0.000000 1.726920 0.000000 
#    z 0.000000 0.000000 1.732000 
# 
# From -- ./inp_files/60097.got.cif
#   From: 2010.03.12/outbox.cif.g09.slc.cpg/sg63_31_cif.got.tgz:60097.got - 2010.04.10 19:34:48.
