data_PCOD8259256
_publ_section_title
;
Structure prediction by ZEFSAII (Michael W. Deem and Ramdas Pophale) SiO2 
 PCOD8259256
Probable space group: C M C M
;
_chemical_formula_sum "Si O2"
_cell_formula_units_Z 64
_cell_length_a 8.383157
_cell_length_b 22.459525
_cell_length_c 16.361328
_cell_angle_alpha 90.000000
_cell_angle_beta 90.000000
_cell_angle_gamma 90.000000
_cell_volume 3080.539046
_symmetry_space_group_name_H-M "C M C M"
_symmetry_group_IT_number 63
_symmetry_cell_setting 'orthorhombic'
loop_
_space_group_symop_operation_xyz
x,y,z
-x,-y,1/2+z
x,-y,-z
-x,y,1/2-z
-x,-y,-z
x,y,1/2-z
-x,y,z
x,-y,1/2+z
1/2+x,1/2+y,z
1/2-x,1/2-y,1/2+z
1/2+x,1/2-y,-z
1/2-x,1/2+y,1/2-z
1/2-x,1/2-y,-z
1/2+x,1/2+y,1/2-z
1/2-x,1/2+y,z
1/2+x,1/2-y,1/2+z
loop_
_atom_site_type_symbol
_atom_site_label
_atom_site_fract_x
_atom_site_fract_y
_atom_site_fract_z
Si Si1 0.320402 0.160071 0.940710
Si Si2 0.314969 0.014947 0.250000
Si Si3 0.815931 0.965413 0.418024
Si Si4 0.185144 0.143744 0.250000
Si Si5 0.313733 0.714541 0.400820
O O1 0.500000 0.134689 0.933588
O O2 0.199977 0.105425 0.929980
O O3 0.291519 0.215047 0.877631
O O4 0.297380 0.193499 0.025908
O O5 0.500000 0.030551 0.250000
O O6 0.276305 0.980400 0.165839
O O7 0.212446 0.074081 0.250000
O O8 0.000000 0.982389 0.405709
O O9 0.751415 0.000000 0.500000
O O10 0.259005 0.174886 0.171256
O O11 0.000000 0.158073 0.250000
O O12 0.500000 0.701093 0.419992
#
# Coordination Sequence:
#
# PCOD8259256 Si02
#       5
#    16   8  16   8  16
#     4  10  20  35  57  85 115 148 191 240 289 341
#     4  12  26  41  60  89 121 152 196 250 297 348
#     4  11  24  42  63  86 118 161 202 242 295 357
#     4  10  20  37  58  79 109 148 188 228 281 348
#     4   9  19  35  56  82 113 150 188 232 289 351
#
# _framework density 20.775583000000001
#
# number of rings (size 3 to 8) (size 9 to 14) (size 15 to 20)
#    0.000    1.750    0.000    4.125    0.000   11.000 
#    0.000    2.500    0.000    0.000    0.000    0.000 
#    0.000    0.000    0.000    0.000    0.000    0.000 
#
# Total GULP energy -396592.749828 kJ/mol
# GULP energy per Si atom -12393.523432 kJ/mol
# Density = 2.072830 g / cm^3
# Si number density = 20.775583 Si / 1000 Ang^3
#
#
#
# Elastic Constant Matrix: (Units=GPa)
#
#
# Indices 1 2 3 4 5 6 
#
# 1 34.3422 -0.9855 8.3849 0.0000 0.0000 0.0000
# 2 -0.9855 129.5457 37.5541 0.0000 0.0000 0.0000
# 3 8.3849 37.5541 97.3324 0.0000 0.0000 0.0000
# 4 0.0000 0.0000 0.0000 30.0651 0.0000 0.0000
# 5 0.0000 0.0000 0.0000 0.0000 19.2670 0.0000
# 6 0.0000 0.0000 0.0000 0.0000 0.0000 26.2177
#
#
#
# Elastic Compliance Matrix: (Units=1/GPa)
#
#
# Indices 1 2 3 4 5 6 
#
# 1 0.029882 0.001096 -0.002997 0.000000 0.000000 0.000000
# 2 0.001096 0.008732 -0.003463 0.000000 0.000000 0.000000
# 3 -0.002997 -0.003463 0.011869 0.000000 0.000000 0.000000
# 4 0.000000 0.000000 0.000000 0.033261 0.000000 0.000000
# 5 0.000000 0.000000 0.000000 0.000000 0.051902 0.000000
# 6 0.000000 0.000000 0.000000 0.000000 0.000000 0.038142
#
#
# Mechanical properties :
#
#
# Convention : Reuss Voigt Hill
#
# Bulk Modulus (GPa) = 25.15516 39.01417 32.08467
# Shear Modulus (GPa) = 25.28220 29.52774 27.40497
#
# Velocity S-wave (km/s) = 3.49222 3.77407 3.63588
# Velocity P-wave (km/s) = 5.32871 6.14907 5.75353
#
# Compressibility (1/GPa) = 0.03975328
#
# Stress axis : x y z
#
# Youngs Moduli (GPa) = 33.46507 114.52616 84.25621
#
# Poissons Ratio (x) = -0.12554 0.25253
# Poissons Ratio (y) = -0.03668 0.29181
# Poissons Ratio (z) = 0.10030 0.39665
#
# Static dielectric constant tensor:
#      x y z
#    x 3.508070 0.000000 0.000000 
#    y 0.000000 3.842520 0.000000 
#    z 0.000000 0.000000 3.953300 
# 
# 
# High freq. dielectric constant tensor:
#      x y z
#    x 1.803340 0.000000 0.000000 
#    y 0.000000 1.827360 0.000000 
#    z 0.000000 0.000000 1.808040 
# 
# From -- ./inp_files/39878.got.cif
#   From: 2010.03.12/outbox.cif.g09.slc.cpg/sg63_20_cif.got.tgz:39878.got - 2010.04.10 19:34:48.
