data_PCOD8259728
_publ_section_title
;
Structure prediction by ZEFSAII (Michael W. Deem and Ramdas Pophale) SiO2 
 PCOD8259728
Probable space group: C M C M
;
_chemical_formula_sum "Si O2"
_cell_formula_units_Z 64
_cell_length_a 7.775479
_cell_length_b 14.648449
_cell_length_c 27.734368
_cell_angle_alpha 90.000000
_cell_angle_beta 90.000000
_cell_angle_gamma 90.000000
_cell_volume 3158.908671
_symmetry_space_group_name_H-M "C M C M"
_symmetry_group_IT_number 63
_symmetry_cell_setting 'orthorhombic'
loop_
_space_group_symop_operation_xyz
x,y,z
-x,-y,1/2+z
x,-y,-z
-x,y,1/2-z
-x,-y,-z
x,y,1/2-z
-x,y,z
x,-y,1/2+z
1/2+x,1/2+y,z
1/2-x,1/2-y,1/2+z
1/2+x,1/2-y,-z
1/2-x,1/2+y,1/2-z
1/2-x,1/2-y,-z
1/2+x,1/2+y,1/2-z
1/2-x,1/2+y,z
1/2+x,1/2-y,1/2+z
loop_
_atom_site_type_symbol
_atom_site_label
_atom_site_fract_x
_atom_site_fract_y
_atom_site_fract_z
Si Si1 0.500000 0.606306 0.196370
Si Si2 0.696189 0.257893 0.054745
Si Si3 0.190925 0.394573 0.129883
Si Si4 0.000000 0.110483 0.696176
Si Si5 0.804749 0.604338 0.128654
O O1 0.500000 0.648650 0.250000
O O2 0.500000 0.497797 0.199565
O O3 0.672088 0.640229 0.169167
O O4 0.500000 0.288390 0.058559
O O5 0.805561 0.336314 0.080941
O O6 0.728125 0.160223 0.079807
O O7 0.750000 0.250000 0.000000
O O8 0.329578 0.355419 0.168025
O O9 0.232400 0.499022 0.116180
O O10 0.000000 0.386921 0.152863
O O11 0.000000 0.152727 0.750000
O O12 0.000000 0.618734 0.147818
#
# Coordination Sequence:
#
# PCOD8259728 Si02
#       5
#     8  16  16   8  16
#     4   9  18  34  61  87 112 149 193 235 283 337
#     4  11  23  39  59  85 116 152 192 242 291 344
#     4  10  20  38  60  84 116 153 190 235 284 341
#     4   9  18  36  59  87 116 149 191 237 285 337
#     4   9  21  38  58  83 118 152 187 235 286 339
#
# _framework density 20.260162999999999
#
# number of rings (size 3 to 8) (size 9 to 14) (size 15 to 20)
#    0.000    2.250    1.250    0.750    3.500    2.000 
#    0.000   11.250    0.000    0.000    0.000    0.000 
#    0.000    0.000    0.000    0.000    0.000    0.000 
#
# Total GULP energy -396816.456575 kJ/mol
# GULP energy per Si atom -12400.514268 kJ/mol
# Density = 2.021405 g / cm^3
# Si number density = 20.260163 Si / 1000 Ang^3
#
#
#
# Elastic Constant Matrix: (Units=GPa)
#
#
# Indices 1 2 3 4 5 6 
#
# 1 143.6147 44.9998 80.3624 0.0000 0.0000 0.0000
# 2 44.9998 60.0334 44.9254 0.0000 0.0000 0.0000
# 3 80.3624 44.9254 171.0263 0.0000 0.0000 0.0000
# 4 0.0000 0.0000 0.0000 26.0571 0.0000 0.0000
# 5 0.0000 0.0000 0.0000 0.0000 31.9735 0.0000
# 6 0.0000 0.0000 0.0000 0.0000 0.0000 23.8907
#
#
#
# Elastic Compliance Matrix: (Units=1/GPa)
#
#
# Indices 1 2 3 4 5 6 
#
# 1 0.010636 -0.005268 -0.003614 0.000000 0.000000 0.000000
# 2 -0.005268 0.023342 -0.003656 0.000000 0.000000 0.000000
# 3 -0.003614 -0.003656 0.008506 0.000000 0.000000 0.000000
# 4 0.000000 0.000000 0.000000 0.038377 0.000000 0.000000
# 5 0.000000 0.000000 0.000000 0.000000 0.031276 0.000000
# 6 0.000000 0.000000 0.000000 0.000000 0.000000 0.041857
#
#
# Mechanical properties :
#
#
# Convention : Reuss Voigt Hill
#
# Bulk Modulus (GPa) = 57.44630 79.47217 68.45923
# Shear Modulus (GPa) = 27.04558 30.01005 28.52782
#
# Velocity S-wave (km/s) = 3.65761 3.85286 3.75650
# Velocity P-wave (km/s) = 6.80098 7.68789 7.25800
#
# Compressibility (1/GPa) = 0.01740756
#
# Stress axis : x y z
#
# Youngs Moduli (GPa) = 94.02073 42.84063 117.57045
#
# Poissons Ratio (x) = 0.22569 0.42488
# Poissons Ratio (y) = 0.49531 0.42986
# Poissons Ratio (z) = 0.33977 0.15663
#
# Static dielectric constant tensor:
#      x y z
#    x 3.985860 0.000000 0.000000 
#    y 0.000000 3.537560 0.000000 
#    z 0.000000 0.000000 4.050390 
# 
# 
# High freq. dielectric constant tensor:
#      x y z
#    x 1.810260 0.000000 0.000000 
#    y 0.000000 1.782930 0.000000 
#    z 0.000000 0.000000 1.773180 
# 
# From -- ./inp_files/66264.got.cif
#   From: 2010.03.12/outbox.cif.g09.slc.cpg/sg63_34_cif.got.tgz:66264.got - 2010.04.10 19:34:48.
