data_PCOD8259471
_publ_section_title
;
Structure prediction by ZEFSAII (Michael W. Deem and Ramdas Pophale) SiO2 
 PCOD8259471
Probable space group: C M C M
;
_chemical_formula_sum "Si O2"
_cell_formula_units_Z 80
_cell_length_a 18.285807
_cell_length_b 9.371513
_cell_length_c 24.161986
_cell_angle_alpha 90.000000
_cell_angle_beta 90.000000
_cell_angle_gamma 90.000000
_cell_volume 4140.535113
_symmetry_space_group_name_H-M "C M C M"
_symmetry_group_IT_number 63
_symmetry_cell_setting 'orthorhombic'
loop_
_space_group_symop_operation_xyz
x,y,z
-x,-y,1/2+z
x,-y,-z
-x,y,1/2-z
-x,-y,-z
x,y,1/2-z
-x,y,z
x,-y,1/2+z
1/2+x,1/2+y,z
1/2-x,1/2-y,1/2+z
1/2+x,1/2-y,-z
1/2-x,1/2+y,1/2-z
1/2-x,1/2-y,-z
1/2+x,1/2+y,1/2-z
1/2-x,1/2+y,z
1/2+x,1/2-y,1/2+z
loop_
_atom_site_type_symbol
_atom_site_label
_atom_site_fract_x
_atom_site_fract_y
_atom_site_fract_z
Si Si1 0.786658 0.866597 0.462092
Si Si2 0.084250 0.148364 0.616973
Si Si3 0.670508 0.559588 0.187467
Si Si4 0.916011 0.572759 0.187076
Si Si5 0.704135 0.126069 0.648802
O O1 0.750000 0.750000 0.500000
O O2 0.864970 0.820723 0.436303
O O3 0.729660 0.902143 0.413716
O O4 0.803192 0.000000 0.500000
O O5 0.098670 0.275096 0.659818
O O6 0.000000 0.139349 0.597864
O O7 0.106111 0.001648 0.648284
O O8 0.641273 0.582472 0.250000
O O9 0.699253 0.707184 0.162025
O O10 0.737586 0.448398 0.189383
O O11 0.888666 0.584503 0.250000
O O12 0.874336 0.446766 0.155613
O O13 0.000000 0.528732 0.183632
#
# Coordination Sequence:
#
# PCOD8259471 Si02
#       5
#    16  16  16  16  16
#     4  11  22  39  60  80 106 146 193 243 291 327
#     4  10  22  39  58  84 115 149 191 232 278 341
#     4  11  21  34  57  85 116 151 183 226 280 340
#     4  10  20  36  58  83 116 152 180 218 278 345
#     4  11  22  37  56  84 115 146 193 239 281 337
#
# _framework density 19.321173999999999
#
# number of rings (size 3 to 8) (size 9 to 14) (size 15 to 20)
#    0.000    1.400    0.000    8.400    0.000    2.400 
#    0.000    1.000    0.000    3.600    0.000    0.000 
#    0.000    0.000    0.000    0.000    0.000    0.000 
#
# Total GULP energy -496095.022975 kJ/mol
# GULP energy per Si atom -12402.375574 kJ/mol
# Density = 1.927720 g / cm^3
# Si number density = 19.321174 Si / 1000 Ang^3
#
#
#
# Elastic Constant Matrix: (Units=GPa)
#
#
# Indices 1 2 3 4 5 6 
#
# 1 131.6941 62.2263 68.3146 0.0000 0.0000 0.0000
# 2 62.2263 103.5694 29.0747 0.0000 0.0000 0.0000
# 3 68.3146 29.0747 122.0175 0.0000 0.0000 0.0000
# 4 0.0000 0.0000 0.0000 32.9310 0.0000 0.0000
# 5 0.0000 0.0000 0.0000 0.0000 31.6937 0.0000
# 6 0.0000 0.0000 0.0000 0.0000 0.0000 25.8452
#
#
#
# Elastic Compliance Matrix: (Units=1/GPa)
#
#
# Indices 1 2 3 4 5 6 
#
# 1 0.013966 -0.006640 -0.006237 0.000000 0.000000 0.000000
# 2 -0.006640 0.013505 0.000500 0.000000 0.000000 0.000000
# 3 -0.006237 0.000500 0.011568 0.000000 0.000000 0.000000
# 4 0.000000 0.000000 0.000000 0.030367 0.000000 0.000000
# 5 0.000000 0.000000 0.000000 0.000000 0.031552 0.000000
# 6 0.000000 0.000000 0.000000 0.000000 0.000000 0.038692
#
#
# Mechanical properties :
#
#
# Convention : Reuss Voigt Hill
#
# Bulk Modulus (GPa) = 70.00735 75.16804 72.58770
# Shear Modulus (GPa) = 29.55662 31.27166 30.41414
#
# Velocity S-wave (km/s) = 3.91545 4.02744 3.97184
# Velocity P-wave (km/s) = 7.53347 7.78563 7.66059
#
# Compressibility (1/GPa) = 0.01428421
#
# Stress axis : x y z
#
# Youngs Moduli (GPa) = 71.60031 74.04839 86.44170
#
# Poissons Ratio (x) = 0.49171 0.53915
# Poissons Ratio (y) = 0.47545 -0.04321
# Poissons Ratio (z) = 0.44658 -0.03701
#
# Static dielectric constant tensor:
#      x y z
#    x 3.566310 0.000000 0.000000 
#    y 0.000000 3.580690 0.000000 
#    z 0.000000 0.000000 3.608430 
# 
# 
# High freq. dielectric constant tensor:
#      x y z
#    x 1.750870 0.000000 0.000000 
#    y 0.000000 1.758670 0.000000 
#    z 0.000000 0.000000 1.754990 
# 
# From -- ./inp_files/69707.got.cif
#   From: 2010.03.12/outbox.cif.g09.slc.cpg/sg63_35_cif.got.tgz:69707.got - 2010.04.10 19:34:48.
