data_PCOD8259838
_publ_section_title
;
Structure prediction by ZEFSAII (Michael W. Deem and Ramdas Pophale) SiO2 
 PCOD8259838
Probable space group: C M C M
;
_chemical_formula_sum "Si O2"
_cell_formula_units_Z 80
_cell_length_a 8.786721
_cell_length_b 19.248511
_cell_length_c 23.492736
_cell_angle_alpha 90.000000
_cell_angle_beta 90.000000
_cell_angle_gamma 90.000000
_cell_volume 3973.356882
_symmetry_space_group_name_H-M "C M C M"
_symmetry_group_IT_number 63
_symmetry_cell_setting 'orthorhombic'
loop_
_space_group_symop_operation_xyz
x,y,z
-x,-y,1/2+z
x,-y,-z
-x,y,1/2-z
-x,-y,-z
x,y,1/2-z
-x,y,z
x,-y,1/2+z
1/2+x,1/2+y,z
1/2-x,1/2-y,1/2+z
1/2+x,1/2-y,-z
1/2-x,1/2+y,1/2-z
1/2-x,1/2-y,-z
1/2+x,1/2+y,1/2-z
1/2-x,1/2+y,z
1/2+x,1/2-y,1/2+z
loop_
_atom_site_type_symbol
_atom_site_label
_atom_site_fract_x
_atom_site_fract_y
_atom_site_fract_z
Si Si1 0.822437 0.252154 0.750000
Si Si2 0.179234 0.357361 0.849696
Si Si3 0.167602 0.554262 0.950775
Si Si4 0.319962 0.181134 0.024325
Si Si5 0.177789 0.995919 0.342236
Si Si6 0.320162 0.101339 0.750000
O O1 0.779064 0.296077 0.693925
O O2 0.727999 0.181616 0.750000
O O3 0.000000 0.233317 0.750000
O O4 0.240866 0.336020 0.912185
O O5 0.258393 0.427808 0.828274
O O6 0.000000 0.372236 0.850843
O O7 0.289924 0.524739 0.907045
O O8 0.000000 0.566404 0.922271
O O9 0.143889 0.500000 0.000000
O O10 0.233269 0.623690 0.979139
O O11 0.500000 0.187308 0.027072
O O12 0.250000 0.250000 0.000000
O O13 0.256775 0.936884 0.305188
O O14 0.000000 0.995811 0.329562
O O15 0.500000 0.097235 0.750000
#
# Coordination Sequence:
#
# PCOD8259838 Si02
#       6
#     8  16  16  16  16   8
#     4  10  23  42  67  95 125 159 205 262 317 370
#     4  10  21  42  66  91 126 171 210 253 315 379
#     4  10  20  40  65  90 126 169 211 252 306 374
#     4  10  22  38  60  90 127 168 210 255 310 373
#     4  12  25  41  66  97 128 161 212 268 312 366
#     4  12  27  46  67  91 125 167 209 256 319 382
#
# _framework density 20.13411
#
# number of rings (size 3 to 8) (size 9 to 14) (size 15 to 20)
#    0.000    1.400    2.000    3.300    2.800    3.600 
#    0.000    0.000    0.000    0.000    0.000    0.000 
#    0.000    0.000    0.000    0.000    0.000    0.000 
#
# Total GULP energy -496079.097062 kJ/mol
# GULP energy per Si atom -12401.977427 kJ/mol
# Density = 2.008828 g / cm^3
# Si number density = 20.134110 Si / 1000 Ang^3
#
#
#
# Elastic Constant Matrix: (Units=GPa)
#
#
# Indices 1 2 3 4 5 6 
#
# 1 96.2859 62.6667 44.4121 0.0000 0.0000 0.0000
# 2 62.6667 166.4933 51.2911 0.0000 0.0000 0.0000
# 3 44.4121 51.2911 93.7169 0.0000 0.0000 0.0000
# 4 0.0000 0.0000 0.0000 39.0438 0.0000 0.0000
# 5 0.0000 0.0000 0.0000 0.0000 19.9539 0.0000
# 6 0.0000 0.0000 0.0000 0.0000 0.0000 14.4180
#
#
#
# Elastic Compliance Matrix: (Units=1/GPa)
#
#
# Indices 1 2 3 4 5 6 
#
# 1 0.015478 -0.004289 -0.004987 0.000000 0.000000 0.000000
# 2 -0.004289 0.008413 -0.002572 0.000000 0.000000 0.000000
# 3 -0.004987 -0.002572 0.014441 0.000000 0.000000 0.000000
# 4 0.000000 0.000000 0.000000 0.025612 0.000000 0.000000
# 5 0.000000 0.000000 0.000000 0.000000 0.050116 0.000000
# 6 0.000000 0.000000 0.000000 0.000000 0.000000 0.069358
#
#
# Mechanical properties :
#
#
# Convention : Reuss Voigt Hill
#
# Bulk Modulus (GPa) = 68.32719 74.80399 71.56559
# Shear Modulus (GPa) = 23.58567 27.89153 25.73860
#
# Velocity S-wave (km/s) = 3.42633 3.72598 3.57929
# Velocity P-wave (km/s) = 7.04717 7.46620 7.25971
#
# Compressibility (1/GPa) = 0.01463546
#
# Stress axis : x y z
#
# Youngs Moduli (GPa) = 64.60864 118.86418 69.24517
#
# Poissons Ratio (x) = 0.50984 0.34535
# Poissons Ratio (y) = 0.27712 0.17808
# Poissons Ratio (z) = 0.32223 0.30569
#
# Static dielectric constant tensor:
#      x y z
#    x 3.533120 0.000000 0.000000 
#    y 0.000000 3.367170 0.000000 
#    z 0.000000 0.000000 3.704000 
# 
# 
# High freq. dielectric constant tensor:
#      x y z
#    x 1.773730 0.000000 0.000000 
#    y 0.000000 1.800530 0.000000 
#    z 0.000000 0.000000 1.797360 
# 
# From -- ./inp_files/66697.got.cif
#   From: 2010.03.12/outbox.cif.g09.slc.cpg/sg63_34_cif.got.tgz:66697.got - 2010.04.10 19:34:48.
