data_PCOD8259778
_publ_section_title
;
Structure prediction by ZEFSAII (Michael W. Deem and Ramdas Pophale) SiO2 
 PCOD8259778
Probable space group: C M C M
;
_chemical_formula_sum "Si O2"
_cell_formula_units_Z 72
_cell_length_a 27.458240
_cell_length_b 14.719384
_cell_length_c 8.876119
_cell_angle_alpha 90.000000
_cell_angle_beta 90.000000
_cell_angle_gamma 90.000000
_cell_volume 3587.446624
_symmetry_space_group_name_H-M "C M C M"
_symmetry_group_IT_number 63
_symmetry_cell_setting 'orthorhombic'
loop_
_space_group_symop_operation_xyz
x,y,z
-x,-y,1/2+z
x,-y,-z
-x,y,1/2-z
-x,-y,-z
x,y,1/2-z
-x,y,z
x,-y,1/2+z
1/2+x,1/2+y,z
1/2-x,1/2-y,1/2+z
1/2+x,1/2-y,-z
1/2-x,1/2+y,1/2-z
1/2-x,1/2-y,-z
1/2+x,1/2+y,1/2-z
1/2-x,1/2+y,z
1/2+x,1/2-y,1/2+z
loop_
_atom_site_type_symbol
_atom_site_label
_atom_site_fract_x
_atom_site_fract_y
_atom_site_fract_z
Si Si1 0.911127 0.720238 0.574815
Si Si2 0.763830 0.155024 0.071760
Si Si3 0.000000 0.399335 0.430963
Si Si4 0.172237 0.585333 0.925735
Si Si5 0.370541 0.405423 0.928863
O O1 0.922415 0.723801 0.750000
O O2 0.953942 0.658436 0.504792
O O3 0.858598 0.675741 0.543694
O O4 0.906962 0.824238 0.514964
O O5 0.763302 0.165894 0.250000
O O6 0.816068 0.118473 0.015993
O O7 0.750000 0.250000 0.000000
O O8 0.723267 0.085715 0.013922
O O9 0.000000 0.500000 0.500000
O O10 0.000000 0.409263 0.250000
O O11 0.181163 0.570194 0.750000
O O12 0.143441 0.500000 0.000000
O O13 0.372219 0.414112 0.750000
O O14 0.388389 0.500000 0.000000
#
# Coordination Sequence:
#
# PCOD8259778 Si02
#       5
#    16  16   8  16  16
#     4   9  19  37  58  81 112 147 184 230 285 342
#     4  11  21  35  55  79 112 151 191 233 279 332
#     4  10  20  38  65  88 112 146 181 226 287 346
#     4  11  21  35  53  79 114 148 188 233 279 337
#     4  10  21  38  56  79 111 149 190 231 275 328
#
# _framework density 20.069986
#
# number of rings (size 3 to 8) (size 9 to 14) (size 15 to 20)
#    0.000    1.778    2.222    2.667    0.000    3.556 
#    0.000    2.778    0.000    0.000    0.000    0.000 
#    0.000    0.000    0.000    0.000    0.000    0.000 
#
# Total GULP energy -446195.729971 kJ/mol
# GULP energy per Si atom -12394.325833 kJ/mol
# Density = 2.002431 g / cm^3
# Si number density = 20.069986 Si / 1000 Ang^3
#
#
#
# Elastic Constant Matrix: (Units=GPa)
#
#
# Indices 1 2 3 4 5 6 
#
# 1 98.3538 57.2346 25.6070 0.0000 0.0000 0.0000
# 2 57.2346 184.9049 37.6937 0.0000 0.0000 0.0000
# 3 25.6070 37.6937 45.2729 0.0000 0.0000 0.0000
# 4 0.0000 0.0000 0.0000 39.2811 0.0000 0.0000
# 5 0.0000 0.0000 0.0000 0.0000 17.7577 0.0000
# 6 0.0000 0.0000 0.0000 0.0000 0.0000 23.7934
#
#
#
# Elastic Compliance Matrix: (Units=1/GPa)
#
#
# Indices 1 2 3 4 5 6 
#
# 1 0.013251 -0.003100 -0.004914 0.000000 0.000000 0.000000
# 2 -0.003100 0.007239 -0.004274 0.000000 0.000000 0.000000
# 3 -0.004914 -0.004274 0.028426 0.000000 0.000000 0.000000
# 4 0.000000 0.000000 0.000000 0.025458 0.000000 0.000000
# 5 0.000000 0.000000 0.000000 0.000000 0.056313 0.000000
# 6 0.000000 0.000000 0.000000 0.000000 0.000000 0.042028
#
#
# Mechanical properties :
#
#
# Convention : Reuss Voigt Hill
#
# Bulk Modulus (GPa) = 41.08364 63.28913 52.18639
# Shear Modulus (GPa) = 24.34236 30.03285 27.18761
#
# Velocity S-wave (km/s) = 3.48641 3.87254 3.68454
# Velocity P-wave (km/s) = 6.05982 7.18318 6.64528
#
# Compressibility (1/GPa) = 0.02434059
#
# Stress axis : x y z
#
# Youngs Moduli (GPa) = 75.46835 138.14232 35.17920
#
# Poissons Ratio (x) = 0.42822 0.17287
# Poissons Ratio (y) = 0.23394 0.15035
# Poissons Ratio (z) = 0.37084 0.59038
#
# Static dielectric constant tensor:
#      x y z
#    x 1.871010 0.000000 0.000000 
#    y 0.000000 4.010050 0.000000 
#    z 0.000000 0.000000 3.438860 
# 
# 
# High freq. dielectric constant tensor:
#      x y z
#    x 1.766140 0.000000 0.000000 
#    y 0.000000 1.808330 0.000000 
#    z 0.000000 0.000000 1.754510 
# 
# From -- ./inp_files/11680.got.cif
#   From: 2010.03.12/outbox.cif.g09.slc.cpg/sg63_6_cif.got.tgz:11680.got - 2010.04.10 19:34:48.
