data_PCOD8259053
_publ_section_title
;
Structure prediction by ZEFSAII (Michael W. Deem and Ramdas Pophale) SiO2 
 PCOD8259053
Probable space group: C M C M
;
_chemical_formula_sum "Si O2"
_cell_formula_units_Z 112
_cell_length_a 22.175979
_cell_length_b 14.408420
_cell_length_c 18.245066
_cell_angle_alpha 90.000000
_cell_angle_beta 90.000000
_cell_angle_gamma 90.000000
_cell_volume 5829.678437
_symmetry_space_group_name_H-M "C M C M"
_symmetry_group_IT_number 63
_symmetry_cell_setting 'orthorhombic'
loop_
_space_group_symop_operation_xyz
x,y,z
-x,-y,1/2+z
x,-y,-z
-x,y,1/2-z
-x,-y,-z
x,y,1/2-z
-x,y,z
x,-y,1/2+z
1/2+x,1/2+y,z
1/2-x,1/2-y,1/2+z
1/2+x,1/2-y,-z
1/2-x,1/2+y,1/2-z
1/2-x,1/2-y,-z
1/2+x,1/2+y,1/2-z
1/2-x,1/2+y,z
1/2+x,1/2-y,1/2+z
loop_
_atom_site_type_symbol
_atom_site_label
_atom_site_fract_x
_atom_site_fract_y
_atom_site_fract_z
Si Si1 0.710010 0.085899 0.543507
Si Si2 0.931804 0.246219 0.102296
Si Si3 0.348651 0.435710 0.065440
Si Si4 0.363080 0.220599 0.039874
Si Si5 0.930688 0.613433 0.164952
Si Si6 0.929545 0.947225 0.663425
Si Si7 0.881884 0.584491 0.668511
O O1 0.776700 0.056958 0.568619
O O2 0.700621 0.174755 0.488331
O O3 0.676078 0.102109 0.618997
O O4 0.680544 0.000000 0.500000
O O5 0.903022 0.147915 0.127372
O O6 0.923998 0.324415 0.164571
O O7 0.000000 0.220908 0.090138
O O8 0.908298 0.292351 0.027563
O O9 0.360246 0.328480 0.054248
O O10 0.385326 0.469777 0.136960
O O11 0.374138 0.500000 0.000000
O O12 0.386738 0.173219 0.113854
O O13 0.915253 0.635142 0.250000
O O14 0.920633 0.505436 0.146260
O O15 0.000000 0.638615 0.148093
O O16 0.922838 0.938500 0.750000
O O17 0.000000 0.967293 0.642980
O O18 0.856707 0.572740 0.750000
#
# Coordination Sequence:
#
# PCOD8259053 Si02
#       7
#    16  16  16  16  16  16  16
#     4  10  21  39  61  85 114 148 193 242 289 344
#     4  10  20  34  58  88 118 153 194 243 292 346
#     4  11  23  40  61  85 113 153 196 238 291 347
#     4  11  21  38  60  87 116 155 197 245 294 354
#     4  10  21  36  56  86 123 160 197 241 298 363
#     4  10  22  40  61  89 122 155 196 246 296 349
#     4  10  20  36  57  84 118 155 192 239 296 354
#
# _framework density 19.212038
#
# number of rings (size 3 to 8) (size 9 to 14) (size 15 to 20)
#    0.000    1.714    2.857    1.714    0.000    4.000 
#    0.000    3.571    0.000    0.000    0.000    0.000 
#    0.000    0.000    0.000    0.000    0.000    0.000 
#
# Total GULP energy -693996.535771 kJ/mol
# GULP energy per Si atom -12392.795282 kJ/mol
# Density = 1.916831 g / cm^3
# Si number density = 19.212038 Si / 1000 Ang^3
#
#
#
# Elastic Constant Matrix: (Units=GPa)
#
#
# Indices 1 2 3 4 5 6 
#
# 1 68.5936 24.6930 39.5440 0.0000 0.0000 0.0000
# 2 24.6930 128.8581 40.1204 0.0000 0.0000 0.0000
# 3 39.5440 40.1204 94.3769 0.0000 0.0000 0.0000
# 4 0.0000 0.0000 0.0000 30.6742 0.0000 0.0000
# 5 0.0000 0.0000 0.0000 0.0000 57.8004 0.0000
# 6 0.0000 0.0000 0.0000 0.0000 0.0000 44.2908
#
#
#
# Elastic Compliance Matrix: (Units=1/GPa)
#
#
# Indices 1 2 3 4 5 6 
#
# 1 0.019429 -0.001370 -0.007559 0.000000 0.000000 0.000000
# 2 -0.001370 0.009041 -0.003269 0.000000 0.000000 0.000000
# 3 -0.007559 -0.003269 0.015153 0.000000 0.000000 0.000000
# 4 0.000000 0.000000 0.000000 0.032601 0.000000 0.000000
# 5 0.000000 0.000000 0.000000 0.000000 0.017301 0.000000
# 6 0.000000 0.000000 0.000000 0.000000 0.000000 0.022578
#
#
# Mechanical properties :
#
#
# Convention : Reuss Voigt Hill
#
# Bulk Modulus (GPa) = 52.00943 55.61593 53.81268
# Shear Modulus (GPa) = 34.03510 39.05116 36.54313
#
# Velocity S-wave (km/s) = 4.21355 4.51337 4.36603
# Velocity P-wave (km/s) = 7.12755 7.49480 7.31348
#
# Compressibility (1/GPa) = 0.01922728
#
# Stress axis : x y z
#
# Youngs Moduli (GPa) = 51.46886 110.60831 65.99481
#
# Poissons Ratio (x) = 0.15152 0.49882
# Poissons Ratio (y) = 0.07050 0.21576
# Poissons Ratio (z) = 0.38903 0.36162
#
# Static dielectric constant tensor:
#      x y z
#    x 3.343820 0.000000 0.000000 
#    y 0.000000 3.815730 0.000000 
#    z 0.000000 0.000000 3.583040 
# 
# 
# High freq. dielectric constant tensor:
#      x y z
#    x 1.731090 0.000000 0.000000 
#    y 0.000000 1.760210 0.000000 
#    z 0.000000 0.000000 1.748290 
# 
# From -- ./inp_files/36902.got.cif
#   From: 2010.03.12/outbox.cif.g09.slc.cpg/sg63_19_cif.got.tgz:36902.got - 2010.04.10 19:34:48.
