data_PCOD8259408
_publ_section_title
;
Structure prediction by ZEFSAII (Michael W. Deem and Ramdas Pophale) SiO2 
 PCOD8259408
Probable space group: C M C M
;
_chemical_formula_sum "Si O2"
_cell_formula_units_Z 80
_cell_length_a 19.762897
_cell_length_b 25.257020
_cell_length_c 8.600070
_cell_angle_alpha 90.000000
_cell_angle_beta 90.000000
_cell_angle_gamma 90.000000
_cell_volume 4292.741150
_symmetry_space_group_name_H-M "C M C M"
_symmetry_group_IT_number 63
_symmetry_cell_setting 'orthorhombic'
loop_
_space_group_symop_operation_xyz
x,y,z
-x,-y,1/2+z
x,-y,-z
-x,y,1/2-z
-x,-y,-z
x,y,1/2-z
-x,y,z
x,-y,1/2+z
1/2+x,1/2+y,z
1/2-x,1/2-y,1/2+z
1/2+x,1/2-y,-z
1/2-x,1/2+y,1/2-z
1/2-x,1/2-y,-z
1/2+x,1/2+y,1/2-z
1/2-x,1/2+y,z
1/2+x,1/2-y,1/2+z
loop_
_atom_site_type_symbol
_atom_site_label
_atom_site_fract_x
_atom_site_fract_y
_atom_site_fract_z
Si Si1 0.500000 0.233821 0.420626
Si Si2 0.257150 0.554461 0.430736
Si Si3 0.000000 0.387253 0.580295
Si Si4 0.237545 0.166483 0.931792
Si Si5 0.145879 0.743640 0.566646
Si Si6 0.611005 0.948284 0.432671
O O1 0.500000 0.262780 0.250000
O O2 0.500000 0.173126 0.382277
O O3 0.567625 0.245835 0.517718
O O4 0.290166 0.500000 0.500000
O O5 0.271311 0.552553 0.250000
O O6 0.284411 0.610300 0.494408
O O7 0.178389 0.555276 0.468008
O O8 0.935094 0.398644 0.473317
O O9 0.000000 0.416770 0.750000
O O10 0.236464 0.157086 0.750000
O O11 0.312568 0.189542 0.979554
O O12 0.180761 0.207849 0.979793
O O13 0.151371 0.752518 0.750000
O O14 0.626928 0.950559 0.250000
O O15 0.572021 0.000000 0.500000
#
# Coordination Sequence:
#
# PCOD8259408 Si02
#       6
#     8  16   8  16  16  16
#     4  11  23  36  52  75 104 137 174 218 265 314
#     4  11  21  34  52  75 103 134 171 214 262 312
#     4  11  22  34  47  65  92 129 171 212 255 304
#     4  10  20  36  57  81 109 141 179 221 268 320
#     4  10  21  36  56  80 108 142 179 221 268 320
#     4  11  21  33  47  65  92 128 170 213 257 302
#
# _framework density 18.636111
#
# number of rings (size 3 to 8) (size 9 to 14) (size 15 to 20)
#    0.000    1.400    0.000    8.100    0.000    7.200 
#    0.000    0.000    0.000    0.000    0.000    0.700 
#    0.000    0.000    0.000    0.000    0.000    0.000 
#
# Total GULP energy -495616.382189 kJ/mol
# GULP energy per Si atom -12390.409555 kJ/mol
# Density = 1.859369 g / cm^3
# Si number density = 18.636111 Si / 1000 Ang^3
#
#
#
# Elastic Constant Matrix: (Units=GPa)
#
#
# Indices 1 2 3 4 5 6 
#
# 1 63.9401 13.0646 15.5063 0.0000 0.0000 0.0000
# 2 13.0646 107.0331 47.7137 0.0000 0.0000 0.0000
# 3 15.5063 47.7137 109.9292 0.0000 0.0000 0.0000
# 4 0.0000 0.0000 0.0000 31.9409 0.0000 0.0000
# 5 0.0000 0.0000 0.0000 0.0000 31.7979 0.0000
# 6 0.0000 0.0000 0.0000 0.0000 0.0000 -0.6032
#
#
#
# Elastic Compliance Matrix: (Units=1/GPa)
#
#
# Indices 1 2 3 4 5 6 
#
# 1 0.016316 -0.001197 -0.001782 0.000000 0.000000 0.000000
# 2 -0.001197 0.011672 -0.004897 0.000000 0.000000 0.000000
# 3 -0.001782 -0.004897 0.011474 0.000000 0.000000 0.000000
# 4 0.000000 0.000000 0.000000 0.031308 0.000000 0.000000
# 5 0.000000 0.000000 0.000000 0.000000 0.031449 0.000000
# 6 0.000000 0.000000 0.000000 0.000000 0.000000 -1.657812
#
#
# Mechanical properties :
#
#
# Convention : Reuss Voigt Hill
#
# Bulk Modulus (GPa) = 42.17734 48.16350 45.17042
# Shear Modulus (GPa) = -3.26384 26.26831 11.50223
#
# Velocity S-wave (km/s) = -1.32482 3.75845 2.48705
# Velocity P-wave (km/s) = 4.51010 6.68842 5.70420
#
# Compressibility (1/GPa) = 0.02370941
#
# Stress axis : x y z
#
# Youngs Moduli (GPa) = 61.28804 85.67373 87.15553
#
# Poissons Ratio (x) = 0.10257 0.15530
# Poissons Ratio (y) = 0.07338 0.42683
# Poissons Ratio (z) = 0.10921 0.41957
#
# Static dielectric constant tensor:
#      x y z
#    x 3.107040 0.000000 0.000000 
#    y 0.000000 4.113010 0.000000 
#    z 0.000000 0.000000 3.584090 
# 
# 
# High freq. dielectric constant tensor:
#      x y z
#    x 1.682160 0.000000 0.000000 
#    y 0.000000 1.724760 0.000000 
#    z 0.000000 0.000000 1.745010 
# 
# From -- ./inp_files/8082.got.cif
#   From: 2010.03.12/outbox.cif.g09.slc.cpg/sg63_5_cif.got.tgz:8082.got - 2010.04.10 19:34:48.
