data_PCOD8259817
_publ_section_title
;
Structure prediction by ZEFSAII (Michael W. Deem and Ramdas Pophale) SiO2 
 PCOD8259817
Probable space group: C M C M
;
_chemical_formula_sum "Si O2"
_cell_formula_units_Z 112
_cell_length_a 15.371624
_cell_length_b 22.976476
_cell_length_c 14.528925
_cell_angle_alpha 90.000000
_cell_angle_beta 90.000000
_cell_angle_gamma 90.000000
_cell_volume 5131.409272
_symmetry_space_group_name_H-M "C M C M"
_symmetry_group_IT_number 63
_symmetry_cell_setting 'orthorhombic'
loop_
_space_group_symop_operation_xyz
x,y,z
-x,-y,1/2+z
x,-y,-z
-x,y,1/2-z
-x,-y,-z
x,y,1/2-z
-x,y,z
x,-y,1/2+z
1/2+x,1/2+y,z
1/2-x,1/2-y,1/2+z
1/2+x,1/2-y,-z
1/2-x,1/2+y,1/2-z
1/2-x,1/2-y,-z
1/2+x,1/2+y,1/2-z
1/2-x,1/2+y,z
1/2+x,1/2-y,1/2+z
loop_
_atom_site_type_symbol
_atom_site_label
_atom_site_fract_x
_atom_site_fract_y
_atom_site_fract_z
Si Si1 0.402123 0.818911 0.501901
Si Si2 0.597685 0.307421 0.544102
Si Si3 0.264385 0.144410 0.356658
Si Si4 0.275540 0.014092 0.401354
Si Si5 0.138995 0.853741 0.352261
Si Si6 0.331697 0.893322 0.349139
Si Si7 0.593727 0.484437 0.145150
O O1 0.500000 0.820101 0.541951
O O2 0.386126 0.761309 0.439698
O O3 0.334872 0.818439 0.586948
O O4 0.392496 0.874555 0.433746
O O5 0.500000 0.325117 0.577084
O O6 0.668314 0.345763 0.599649
O O7 0.603256 0.313420 0.433263
O O8 0.262930 0.163776 0.250000
O O9 0.297706 0.077754 0.363637
O O10 0.317377 0.000000 0.500000
O O11 0.313658 0.962688 0.338449
O O12 0.170782 0.012478 0.413138
O O13 0.119788 0.827427 0.250000
O O14 0.241553 0.860607 0.367433
O O15 0.091899 0.915194 0.361741
O O16 0.371612 0.874669 0.250000
O O17 0.609349 0.504188 0.250000
O O18 0.500000 0.507735 0.109396
#
# Coordination Sequence:
#
# PCOD8259817 Si02
#       7
#    16  16  16  16  16  16  16
#     4  11  25  46  68  92 125 169 225 279 327 379
#     4  11  24  42  64  95 135 174 217 262 317 391
#     4  12  25  43  66  95 136 176 214 266 335 395
#     4  11  20  37  62  88 124 168 212 262 324 392
#     4   9  17  32  59  91 125 166 212 260 315 380
#     4  10  20  39  66  93 122 159 212 270 325 378
#     4   9  17  29  47  79 121 161 206 254 300 366
#
# _framework density 21.826363000000001
#
# number of rings (size 3 to 8) (size 9 to 14) (size 15 to 20)
#    0.000    1.571    2.857    3.857    0.000    3.714 
#    0.000    4.286    0.000    1.714    0.000    0.000 
#    0.000    0.000    0.000    0.000    0.000    0.000 
#
# Total GULP energy -694038.683353 kJ/mol
# GULP energy per Si atom -12393.547917 kJ/mol
# Density = 2.177668 g / cm^3
# Si number density = 21.826363 Si / 1000 Ang^3
#
#
#
# Elastic Constant Matrix: (Units=GPa)
#
#
# Indices 1 2 3 4 5 6 
#
# 1 85.7278 17.6231 35.1626 0.0000 0.0000 0.0000
# 2 17.6231 66.3976 12.5758 0.0000 0.0000 0.0000
# 3 35.1626 12.5758 121.8973 0.0000 0.0000 0.0000
# 4 0.0000 0.0000 0.0000 20.6530 0.0000 0.0000
# 5 0.0000 0.0000 0.0000 0.0000 15.4844 0.0000
# 6 0.0000 0.0000 0.0000 0.0000 0.0000 17.3947
#
#
#
# Elastic Compliance Matrix: (Units=1/GPa)
#
#
# Indices 1 2 3 4 5 6 
#
# 1 0.013779 -0.002962 -0.003669 0.000000 0.000000 0.000000
# 2 -0.002962 0.015998 -0.000796 0.000000 0.000000 0.000000
# 3 -0.003669 -0.000796 0.009344 0.000000 0.000000 0.000000
# 4 0.000000 0.000000 0.000000 0.048419 0.000000 0.000000
# 5 0.000000 0.000000 0.000000 0.000000 0.064581 0.000000
# 6 0.000000 0.000000 0.000000 0.000000 0.000000 0.057489
#
#
# Mechanical properties :
#
#
# Convention : Reuss Voigt Hill
#
# Bulk Modulus (GPa) = 41.20957 44.97175 43.09066
# Shear Modulus (GPa) = 21.50051 24.61716 23.05883
#
# Velocity S-wave (km/s) = 3.14199 3.36201 3.25386
# Velocity P-wave (km/s) = 5.66431 5.97661 5.82256
#
# Compressibility (1/GPa) = 0.02426621
#
# Stress axis : x y z
#
# Youngs Moduli (GPa) = 72.57594 62.50875 107.01923
#
# Poissons Ratio (x) = 0.18516 0.39265
# Poissons Ratio (y) = 0.21498 0.08518
# Poissons Ratio (z) = 0.26628 0.04976
#
# Static dielectric constant tensor:
#      x y z
#    x 3.809180 0.000000 0.000000 
#    y 0.000000 3.735420 0.000000 
#    z 0.000000 0.000000 3.869040 
# 
# 
# High freq. dielectric constant tensor:
#      x y z
#    x 1.839900 0.000000 0.000000 
#    y 0.000000 1.843430 0.000000 
#    z 0.000000 0.000000 1.856600 
# 
# From -- ./inp_files/32281.got.cif
#   From: 2010.03.12/outbox.cif.g09.slc.cpg/sg63_17_cif.got.tgz:32281.got - 2010.04.10 19:34:48.
