data_PCOD8259595
_publ_section_title
;
Structure prediction by ZEFSAII (Michael W. Deem and Ramdas Pophale) SiO2 
 PCOD8259595
Probable space group: C M C M
;
_chemical_formula_sum "Si O2"
_cell_formula_units_Z 96
_cell_length_a 24.550941
_cell_length_b 12.914825
_cell_length_c 16.818072
_cell_angle_alpha 90.000000
_cell_angle_beta 90.000000
_cell_angle_gamma 90.000000
_cell_volume 5332.524700
_symmetry_space_group_name_H-M "C M C M"
_symmetry_group_IT_number 63
_symmetry_cell_setting 'orthorhombic'
loop_
_space_group_symop_operation_xyz
x,y,z
-x,-y,1/2+z
x,-y,-z
-x,y,1/2-z
-x,-y,-z
x,y,1/2-z
-x,y,z
x,-y,1/2+z
1/2+x,1/2+y,z
1/2-x,1/2-y,1/2+z
1/2+x,1/2-y,-z
1/2-x,1/2+y,1/2-z
1/2-x,1/2-y,-z
1/2+x,1/2+y,1/2-z
1/2-x,1/2+y,z
1/2+x,1/2-y,1/2+z
loop_
_atom_site_type_symbol
_atom_site_label
_atom_site_fract_x
_atom_site_fract_y
_atom_site_fract_z
Si Si1 0.226702 0.962056 0.842577
Si Si2 0.438321 0.053433 0.344326
Si Si3 0.640435 0.412497 0.442487
Si Si4 0.833048 0.542308 0.587633
Si Si5 0.437100 0.714055 0.839384
Si Si6 0.800751 0.769076 0.944401
O O1 0.211160 0.970297 0.750000
O O2 0.213898 0.846375 0.872433
O O3 0.192865 0.045875 0.893888
O O4 0.290781 0.985234 0.853661
O O5 0.432012 0.046130 0.250000
O O6 0.500000 0.020629 0.368629
O O7 0.426780 0.170792 0.373897
O O8 0.395117 0.978952 0.386655
O O9 0.616250 0.500000 0.500000
O O10 0.593542 0.376897 0.384172
O O11 0.654192 0.315495 0.497518
O O12 0.821234 0.500000 0.500000
O O13 0.823993 0.664799 0.593798
O O14 0.415222 0.712111 0.750000
O O15 0.500000 0.685723 0.843468
O O16 0.750000 0.750000 0.000000
#
# Coordination Sequence:
#
# PCOD8259595 Si02
#       6
#    16  16  16  16  16  16
#     4  11  23  36  54  83 113 144 187 230 277 334
#     4   9  20  37  55  81 114 142 180 232 276 323
#     4  10  20  37  56  77 111 149 182 229 280 328
#     4  12  21  35  58  80 109 149 185 222 279 336
#     4   9  18  34  57  84 111 142 185 234 279 324
#     4  11  21  39  54  78 116 148 180 227 274 332
#
# _framework density 18.00273
#
# number of rings (size 3 to 8) (size 9 to 14) (size 15 to 20)
#    0.000    1.667    3.333    3.500    0.000    2.000 
#    0.000    0.833    0.000    1.000    0.000    9.333 
#    0.000    0.000    0.000    0.000    0.000    0.000 
#
# Total GULP energy -595220.538546 kJ/mol
# GULP energy per Si atom -12400.427886 kJ/mol
# Density = 1.796175 g / cm^3
# Si number density = 18.002730 Si / 1000 Ang^3
#
#
#
# Elastic Constant Matrix: (Units=GPa)
#
#
# Indices 1 2 3 4 5 6 
#
# 1 94.3132 63.1352 37.9986 0.0000 0.0000 0.0000
# 2 63.1352 115.1711 43.7433 0.0000 0.0000 0.0000
# 3 37.9986 43.7433 80.3296 0.0000 0.0000 0.0000
# 4 0.0000 0.0000 0.0000 27.0571 0.0000 0.0000
# 5 0.0000 0.0000 0.0000 0.0000 34.5614 0.0000
# 6 0.0000 0.0000 0.0000 0.0000 0.0000 28.3400
#
#
#
# Elastic Compliance Matrix: (Units=1/GPa)
#
#
# Indices 1 2 3 4 5 6 
#
# 1 0.017662 -0.008206 -0.003886 0.000000 0.000000 0.000000
# 2 -0.008206 0.014760 -0.004156 0.000000 0.000000 0.000000
# 3 -0.003886 -0.004156 0.016550 0.000000 0.000000 0.000000
# 4 0.000000 0.000000 0.000000 0.036959 0.000000 0.000000
# 5 0.000000 0.000000 0.000000 0.000000 0.028934 0.000000
# 6 0.000000 0.000000 0.000000 0.000000 0.000000 0.035286
#
#
# Mechanical properties :
#
#
# Convention : Reuss Voigt Hill
#
# Bulk Modulus (GPa) = 60.69452 64.39645 62.54549
# Shear Modulus (GPa) = 26.57632 27.65415 27.11524
#
# Velocity S-wave (km/s) = 3.84635 3.92357 3.88516
# Velocity P-wave (km/s) = 7.31527 7.50826 7.41239
#
# Compressibility (1/GPa) = 0.01647595
#
# Stress axis : x y z
#
# Youngs Moduli (GPa) = 56.61878 67.75296 60.42357
#
# Poissons Ratio (x) = 0.55599 0.23481
# Poissons Ratio (y) = 0.46462 0.25109
# Poissons Ratio (z) = 0.22003 0.28155
#
# Static dielectric constant tensor:
#      x y z
#    x 3.236580 0.000000 0.000000 
#    y 0.000000 3.496370 0.000000 
#    z 0.000000 0.000000 3.280750 
# 
# 
# High freq. dielectric constant tensor:
#      x y z
#    x 1.691990 0.000000 0.000000 
#    y 0.000000 1.698910 0.000000 
#    z 0.000000 0.000000 1.695380 
# 
# From -- ./inp_files/48040.got.cif
#   From: 2010.03.12/outbox.cif.g09.slc.cpg/sg63_25_cif.got.tgz:48040.got - 2010.04.10 19:34:48.
