data_PCOD8259681
_publ_section_title
;
Structure prediction by ZEFSAII (Michael W. Deem and Ramdas Pophale) SiO2 
 PCOD8259681
Probable space group: C M C M
;
_chemical_formula_sum "Si O2"
_cell_formula_units_Z 96
_cell_length_a 22.604525
_cell_length_b 11.080154
_cell_length_c 18.565484
_cell_angle_alpha 90.000000
_cell_angle_beta 90.000000
_cell_angle_gamma 90.000000
_cell_volume 4649.941163
_symmetry_space_group_name_H-M "C M C M"
_symmetry_group_IT_number 63
_symmetry_cell_setting 'orthorhombic'
loop_
_space_group_symop_operation_xyz
x,y,z
-x,-y,1/2+z
x,-y,-z
-x,y,1/2-z
-x,-y,-z
x,y,1/2-z
-x,y,z
x,-y,1/2+z
1/2+x,1/2+y,z
1/2-x,1/2-y,1/2+z
1/2+x,1/2-y,-z
1/2-x,1/2+y,1/2-z
1/2-x,1/2-y,-z
1/2+x,1/2+y,1/2-z
1/2-x,1/2+y,z
1/2+x,1/2-y,1/2+z
loop_
_atom_site_type_symbol
_atom_site_label
_atom_site_fract_x
_atom_site_fract_y
_atom_site_fract_z
Si Si1 0.837623 0.682068 0.448449
Si Si2 0.066346 0.121050 0.538666
Si Si3 0.106429 0.999811 0.831097
Si Si4 0.664252 0.081066 0.597893
Si Si5 0.780528 0.149203 0.668347
Si Si6 0.568354 0.761619 0.165620
O O1 0.894144 0.760988 0.472907
O O2 0.854518 0.558321 0.408919
O O3 0.808880 0.641350 0.524625
O O4 0.794798 0.752650 0.393476
O O5 0.000000 0.148854 0.511410
O O6 0.092352 0.000000 0.500000
O O7 0.066322 0.092227 0.623805
O O8 0.083149 0.010118 0.750000
O O9 0.097282 0.864457 0.859645
O O10 0.175317 0.035399 0.839181
O O11 0.714611 0.098966 0.657937
O O12 0.602430 0.136832 0.622271
O O13 0.785471 0.203460 0.750000
O O14 0.576706 0.782571 0.250000
O O15 0.500000 0.763972 0.143056
#
# Coordination Sequence:
#
# PCOD8259681 Si02
#       6
#    16  16  16  16  16  16
#     4  10  24  41  58  89 123 155 203 252 309 367
#     4  10  20  37  62  89 118 156 200 246 299 358
#     4   9  19  36  58  87 117 149 195 251 303 351
#     4  11  23  40  60  85 122 164 201 246 310 373
#     4  10  22  40  63  87 116 156 204 257 307 365
#     4  10  21  37  60  91 125 163 206 250 301 365
#
# _framework density 20.645422
#
# number of rings (size 3 to 8) (size 9 to 14) (size 15 to 20)
#    0.000    2.000    0.000    2.500    2.333    5.000 
#   12.000    1.667    0.000    0.000    0.000    0.000 
#    0.000    0.000    0.000    0.000    0.000    0.000 
#
# Total GULP energy -594979.372598 kJ/mol
# GULP energy per Si atom -12395.403596 kJ/mol
# Density = 2.059843 g / cm^3
# Si number density = 20.645422 Si / 1000 Ang^3
#
#
#
# Elastic Constant Matrix: (Units=GPa)
#
#
# Indices 1 2 3 4 5 6 
#
# 1 93.9026 60.3591 45.4282 0.0000 0.0000 0.0000
# 2 60.3591 127.3506 38.6586 0.0000 0.0000 0.0000
# 3 45.4282 38.6586 59.1906 0.0000 0.0000 0.0000
# 4 0.0000 0.0000 0.0000 31.0063 0.0000 0.0000
# 5 0.0000 0.0000 0.0000 0.0000 25.0949 0.0000
# 6 0.0000 0.0000 0.0000 0.0000 0.0000 22.3014
#
#
#
# Elastic Compliance Matrix: (Units=1/GPa)
#
#
# Indices 1 2 3 4 5 6 
#
# 1 0.020075 -0.006034 -0.011467 0.000000 0.000000 0.000000
# 2 -0.006034 0.011608 -0.002950 0.000000 0.000000 0.000000
# 3 -0.011467 -0.002950 0.027622 0.000000 0.000000 0.000000
# 4 0.000000 0.000000 0.000000 0.032252 0.000000 0.000000
# 5 0.000000 0.000000 0.000000 0.000000 0.039849 0.000000
# 6 0.000000 0.000000 0.000000 0.000000 0.000000 0.044840
#
#
# Mechanical properties :
#
#
# Convention : Reuss Voigt Hill
#
# Bulk Modulus (GPa) = 54.33823 63.25949 58.79886
# Shear Modulus (GPa) = 22.39327 24.74706 23.57017
#
# Velocity S-wave (km/s) = 3.29699 3.46594 3.38252
# Velocity P-wave (km/s) = 6.39300 6.83553 6.61796
#
# Compressibility (1/GPa) = 0.01840325
#
# Stress axis : x y z
#
# Youngs Moduli (GPa) = 49.81269 86.14893 36.20318
#
# Poissons Ratio (x) = 0.51983 0.41513
# Poissons Ratio (y) = 0.30057 0.10681
# Poissons Ratio (z) = 0.57118 0.25416
#
# Static dielectric constant tensor:
#      x y z
#    x 3.483530 0.000000 0.000000 
#    y 0.000000 3.692910 0.000000 
#    z 0.000000 0.000000 3.971750 
# 
# 
# High freq. dielectric constant tensor:
#      x y z
#    x 1.792930 0.000000 0.000000 
#    y 0.000000 1.798970 0.000000 
#    z 0.000000 0.000000 1.829120 
# 
# From -- ./inp_files/56537.got.cif
#   From: 2010.03.12/outbox.cif.g09.slc.cpg/sg63_29_cif.got.tgz:56537.got - 2010.04.10 19:34:48.
