data_PCOD8259876
_publ_section_title
;
Structure prediction by ZEFSAII (Michael W. Deem and Ramdas Pophale) SiO2 
 PCOD8259876
Probable space group: C M C M
;
_chemical_formula_sum "Si O2"
_cell_formula_units_Z 80
_cell_length_a 23.552620
_cell_length_b 10.128352
_cell_length_c 17.563694
_cell_angle_alpha 90.000000
_cell_angle_beta 90.000000
_cell_angle_gamma 90.000000
_cell_volume 4189.805607
_symmetry_space_group_name_H-M "C M C M"
_symmetry_group_IT_number 63
_symmetry_cell_setting 'orthorhombic'
loop_
_space_group_symop_operation_xyz
x,y,z
-x,-y,1/2+z
x,-y,-z
-x,y,1/2-z
-x,-y,-z
x,y,1/2-z
-x,y,z
x,-y,1/2+z
1/2+x,1/2+y,z
1/2-x,1/2-y,1/2+z
1/2+x,1/2-y,-z
1/2-x,1/2+y,1/2-z
1/2-x,1/2-y,-z
1/2+x,1/2+y,1/2-z
1/2-x,1/2+y,z
1/2+x,1/2-y,1/2+z
loop_
_atom_site_type_symbol
_atom_site_label
_atom_site_fract_x
_atom_site_fract_y
_atom_site_fract_z
Si Si1 0.340698 0.508617 0.914112
Si Si2 0.755143 0.150703 0.338850
Si Si3 0.435087 0.006670 0.837856
Si Si4 0.859864 0.728635 0.905340
Si Si5 0.861627 0.698723 0.419453
O O1 0.287052 0.488887 0.856938
O O2 0.383107 0.381599 0.903569
O O3 0.371636 0.647007 0.898410
O O4 0.316369 0.500000 0.000000
O O5 0.744264 0.167766 0.250000
O O6 0.795525 0.269087 0.371098
O O7 0.695722 0.147515 0.381670
O O8 0.428030 0.969254 0.750000
O O9 0.500000 0.034812 0.859789
O O10 0.414322 0.882611 0.887028
O O11 0.399833 0.138902 0.854050
O O12 0.858209 0.672715 0.990713
#
# Coordination Sequence:
#
# PCOD8259876 Si02
#       5
#    16  16  16  16  16
#     4   8  20  36  58  86 117 152 194 243 299 360
#     4  10  21  33  56  90 124 159 194 242 307 365
#     4  11  25  43  62  88 122 163 211 259 307 362
#     4   9  21  39  61  85 121 159 203 247 301 372
#     4  11  21  38  61  89 122 158 204 254 305 361
#
# _framework density 19.093964
#
# number of rings (size 3 to 8) (size 9 to 14) (size 15 to 20)
#    1.200    1.000    0.000    2.400    2.800    3.200 
#    0.000    1.000    0.000    6.000    0.000    0.000 
#    0.000    0.000    0.000    0.000    0.000    0.000 
#
# Total GULP energy -495643.619849 kJ/mol
# GULP energy per Si atom -12391.090496 kJ/mol
# Density = 1.905051 g / cm^3
# Si number density = 19.093964 Si / 1000 Ang^3
#
#
#
# Elastic Constant Matrix: (Units=GPa)
#
#
# Indices 1 2 3 4 5 6 
#
# 1 73.0057 11.0083 23.0798 0.0000 0.0000 0.0000
# 2 11.0083 78.4442 5.6826 0.0000 0.0000 0.0000
# 3 23.0798 5.6826 71.5022 0.0000 0.0000 0.0000
# 4 0.0000 0.0000 0.0000 30.1371 0.0000 0.0000
# 5 0.0000 0.0000 0.0000 0.0000 22.1260 0.0000
# 6 0.0000 0.0000 0.0000 0.0000 0.0000 19.7465
#
#
#
# Elastic Compliance Matrix: (Units=1/GPa)
#
#
# Indices 1 2 3 4 5 6 
#
# 1 0.015509 -0.001824 -0.004861 0.000000 0.000000 0.000000
# 2 -0.001824 0.013036 -0.000447 0.000000 0.000000 0.000000
# 3 -0.004861 -0.000447 0.015590 0.000000 0.000000 0.000000
# 4 0.000000 0.000000 0.000000 0.033182 0.000000 0.000000
# 5 0.000000 0.000000 0.000000 0.000000 0.045196 0.000000
# 6 0.000000 0.000000 0.000000 0.000000 0.000000 0.050642
#
#
# Mechanical properties :
#
#
# Convention : Reuss Voigt Hill
#
# Bulk Modulus (GPa) = 33.47781 33.61040 33.54410
# Shear Modulus (GPa) = 25.33214 26.61401 25.97307
#
# Velocity S-wave (km/s) = 3.64635 3.73747 3.69219
# Velocity P-wave (km/s) = 5.94131 6.02211 5.98184
#
# Compressibility (1/GPa) = 0.02987053
#
# Stress axis : x y z
#
# Youngs Moduli (GPa) = 64.47682 76.70877 64.14261
#
# Poissons Ratio (x) = 0.13994 0.31181
# Poissons Ratio (y) = 0.11763 0.02868
# Poissons Ratio (z) = 0.31344 0.03430
#
# Static dielectric constant tensor:
#      x y z
#    x 3.147960 0.000000 0.000000 
#    y 0.000000 3.606820 0.000000 
#    z 0.000000 0.000000 3.531550 
# 
# 
# High freq. dielectric constant tensor:
#      x y z
#    x 1.702700 0.000000 0.000000 
#    y 0.000000 1.749510 0.000000 
#    z 0.000000 0.000000 1.752770 
# 
# From -- ./inp_files/36477.got.cif
#   From: 2010.03.12/outbox.cif.g09.slc.cpg/sg63_19_cif.got.tgz:36477.got - 2010.04.10 19:34:48.
