data_PCOD8259751
_publ_section_title
;
Structure prediction by ZEFSAII (Michael W. Deem and Ramdas Pophale) SiO2 
 PCOD8259751
Probable space group: C M C M
;
_chemical_formula_sum "Si O2"
_cell_formula_units_Z 80
_cell_length_a 8.702292
_cell_length_b 23.082405
_cell_length_c 20.473341
_cell_angle_alpha 90.000000
_cell_angle_beta 90.000000
_cell_angle_gamma 90.000000
_cell_volume 4112.476493
_symmetry_space_group_name_H-M "C M C M"
_symmetry_group_IT_number 63
_symmetry_cell_setting 'orthorhombic'
loop_
_space_group_symop_operation_xyz
x,y,z
-x,-y,1/2+z
x,-y,-z
-x,y,1/2-z
-x,-y,-z
x,y,1/2-z
-x,y,z
x,-y,1/2+z
1/2+x,1/2+y,z
1/2-x,1/2-y,1/2+z
1/2+x,1/2-y,-z
1/2-x,1/2+y,1/2-z
1/2-x,1/2-y,-z
1/2+x,1/2+y,1/2-z
1/2-x,1/2+y,z
1/2+x,1/2-y,1/2+z
loop_
_atom_site_type_symbol
_atom_site_label
_atom_site_fract_x
_atom_site_fract_y
_atom_site_fract_z
Si Si1 0.317498 0.114947 0.873812
Si Si2 0.318099 0.814379 0.250000
Si Si3 0.681719 0.498442 0.674135
Si Si4 0.681015 0.185867 0.499827
Si Si5 0.681654 0.119068 0.370053
Si Si6 0.817826 0.814144 0.750000
O O1 0.500000 0.104747 0.873009
O O2 0.258089 0.153186 0.813701
O O3 0.232996 0.053940 0.867183
O O4 0.262341 0.148579 0.938294
O O5 0.500000 0.811433 0.250000
O O6 0.249303 0.750257 0.250000
O O7 0.738980 0.500936 0.750000
O O8 0.500000 0.491548 0.672451
O O9 0.758055 0.446080 0.634642
O O10 0.500000 0.193756 0.502139
O O11 0.750000 0.250000 0.500000
O O12 0.734270 0.149170 0.437190
O O13 0.500000 0.119073 0.362340
O O14 0.758141 0.155143 0.313529
O O15 0.000000 0.815772 0.750000
#
# Coordination Sequence:
#
# PCOD8259751 Si02
#       6
#    16   8  16  16  16   8
#     4  10  20  38  62  87 117 158 201 244 299 359
#     4   9  18  32  57  86 111 148 196 241 292 349
#     4  11  23  39  60  89 121 154 199 254 307 356
#     4  10  23  41  62  90 125 162 202 248 300 360
#     4  11  23  39  60  87 120 161 201 244 302 362
#     4  11  21  36  59  88 117 152 202 255 298 351
#
# _framework density 19.452998999999998
#
# number of rings (size 3 to 8) (size 9 to 14) (size 15 to 20)
#    0.000    1.600    2.000    2.700    0.000    5.600 
#    0.000    6.000    0.000    0.000    0.000    0.000 
#    0.000    0.000    0.000    0.000    0.000    0.000 
#
# Total GULP energy -496075.579234 kJ/mol
# GULP energy per Si atom -12401.889481 kJ/mol
# Density = 1.940872 g / cm^3
# Si number density = 19.452999 Si / 1000 Ang^3
#
#
#
# Elastic Constant Matrix: (Units=GPa)
#
#
# Indices 1 2 3 4 5 6 
#
# 1 51.6939 37.0008 38.0302 0.0000 0.0000 0.0000
# 2 37.0008 179.0957 84.5537 0.0000 0.0000 0.0000
# 3 38.0302 84.5537 173.2781 0.0000 0.0000 0.0000
# 4 0.0000 0.0000 0.0000 45.1567 0.0000 0.0000
# 5 0.0000 0.0000 0.0000 0.0000 114.2931 0.0000
# 6 0.0000 0.0000 0.0000 0.0000 0.0000 36.9715
#
#
#
# Elastic Compliance Matrix: (Units=1/GPa)
#
#
# Indices 1 2 3 4 5 6 
#
# 1 0.024462 -0.003273 -0.003772 0.000000 0.000000 0.000000
# 2 -0.003273 0.007693 -0.003036 0.000000 0.000000 0.000000
# 3 -0.003772 -0.003036 0.008080 0.000000 0.000000 0.000000
# 4 0.000000 0.000000 0.000000 0.022145 0.000000 0.000000
# 5 0.000000 0.000000 0.000000 0.000000 0.008749 0.000000
# 6 0.000000 0.000000 0.000000 0.000000 0.000000 0.027048
#
#
# Mechanical properties :
#
#
# Convention : Reuss Voigt Hill
#
# Bulk Modulus (GPa) = 49.81433 80.35966 65.08700
# Shear Modulus (GPa) = 39.99047 55.58313 47.78680
#
# Velocity S-wave (km/s) = 4.53896 5.35117 4.96171
# Velocity P-wave (km/s) = 7.28921 8.92073 8.14592
#
# Compressibility (1/GPa) = 0.02007454
#
# Stress axis : x y z
#
# Youngs Moduli (GPa) = 40.87944 129.98911 123.76132
#
# Poissons Ratio (x) = 0.42548 0.46678
# Poissons Ratio (y) = 0.13381 0.37568
# Poissons Ratio (z) = 0.15418 0.39458
#
# Static dielectric constant tensor:
#      x y z
#    x 3.422830 0.000000 0.000000 
#    y 0.000000 3.856620 0.000000 
#    z 0.000000 0.000000 3.799390 
# 
# 
# High freq. dielectric constant tensor:
#      x y z
#    x 1.746920 0.000000 0.000000 
#    y 0.000000 1.778300 0.000000 
#    z 0.000000 0.000000 1.766250 
# 
# From -- ./inp_files/50929.got.cif
#   From: 2010.03.12/outbox.cif.g09.slc.cpg/sg63_26_cif.got.tgz:50929.got - 2010.04.10 19:34:48.
