data_PCOD8259312
_publ_section_title
;
Structure prediction by ZEFSAII (Michael W. Deem and Ramdas Pophale) SiO2 
 PCOD8259312
Probable space group: C M C M
;
_chemical_formula_sum "Si O2"
_cell_formula_units_Z 96
_cell_length_a 9.051657
_cell_length_b 19.983059
_cell_length_c 28.057583
_cell_angle_alpha 90.000000
_cell_angle_beta 90.000000
_cell_angle_gamma 90.000000
_cell_volume 5075.049886
_symmetry_space_group_name_H-M "C M C M"
_symmetry_group_IT_number 63
_symmetry_cell_setting 'orthorhombic'
loop_
_space_group_symop_operation_xyz
x,y,z
-x,-y,1/2+z
x,-y,-z
-x,y,1/2-z
-x,-y,-z
x,y,1/2-z
-x,y,z
x,-y,1/2+z
1/2+x,1/2+y,z
1/2-x,1/2-y,1/2+z
1/2+x,1/2-y,-z
1/2-x,1/2+y,1/2-z
1/2-x,1/2-y,-z
1/2+x,1/2+y,1/2-z
1/2-x,1/2+y,z
1/2+x,1/2-y,1/2+z
loop_
_atom_site_type_symbol
_atom_site_label
_atom_site_fract_x
_atom_site_fract_y
_atom_site_fract_z
Si Si1 0.827067 0.247895 0.305733
Si Si2 0.675372 0.443872 0.965728
Si Si3 0.666274 0.885908 0.806288
Si Si4 0.174031 0.147280 0.626941
Si Si5 0.325569 0.685253 0.520309
Si Si6 0.825919 0.992472 0.864281
O O1 0.793591 0.259106 0.250000
O O2 0.754705 0.179144 0.324857
O O3 0.759474 0.310022 0.333888
O O4 0.000000 0.243304 0.316159
O O5 0.500000 0.449420 0.967396
O O6 0.730890 0.456501 0.912343
O O7 0.744550 0.500000 0.000000
O O8 0.729705 0.372834 0.984996
O O9 0.666130 0.886258 0.750000
O O10 0.500000 0.882333 0.826565
O O11 0.743612 0.954758 0.821759
O O12 0.224619 0.169536 0.574209
O O13 0.218493 0.070192 0.634905
O O14 0.000000 0.157758 0.633755
O O15 0.500000 0.693709 0.518215
O O16 0.250000 0.750000 0.500000
O O17 0.000000 0.984362 0.857290
#
# Coordination Sequence:
#
# PCOD8259312 Si02
#       6
#    16  16  16  16  16  16
#     4  10  22  40  61  83 109 145 190 237 283 337
#     4   9  16  33  58  80 108 147 187 225 269 321
#     4  10  22  40  60  83 114 148 182 229 288 342
#     4  10  21  37  57  84 118 152 188 232 282 336
#     4  10  21  36  55  82 115 149 188 232 277 330
#     4  10  20  35  59  87 113 148 191 231 274 330
#
# _framework density 18.916070999999999
#
# number of rings (size 3 to 8) (size 9 to 14) (size 15 to 20)
#    0.000    2.167    1.667    1.000    2.333    4.000 
#    0.000    3.333    0.000    1.000    0.000    0.000 
#    0.000    0.000    0.000    0.000    0.000    0.000 
#
# Total GULP energy -595249.977048 kJ/mol
# GULP energy per Si atom -12401.041188 kJ/mol
# Density = 1.887302 g / cm^3
# Si number density = 18.916071 Si / 1000 Ang^3
#
#
#
# Elastic Constant Matrix: (Units=GPa)
#
#
# Indices 1 2 3 4 5 6 
#
# 1 70.0149 65.6528 42.7242 0.0000 0.0000 0.0000
# 2 65.6528 173.8564 63.6929 0.0000 0.0000 0.0000
# 3 42.7242 63.6929 61.2565 0.0000 0.0000 0.0000
# 4 0.0000 0.0000 0.0000 43.7222 0.0000 0.0000
# 5 0.0000 0.0000 0.0000 0.0000 24.2760 0.0000
# 6 0.0000 0.0000 0.0000 0.0000 0.0000 35.1801
#
#
#
# Elastic Compliance Matrix: (Units=1/GPa)
#
#
# Indices 1 2 3 4 5 6 
#
# 1 0.027755 -0.005475 -0.013666 0.000000 0.000000 0.000000
# 2 -0.005475 0.010371 -0.006965 0.000000 0.000000 0.000000
# 3 -0.013666 -0.006965 0.033099 0.000000 0.000000 0.000000
# 4 0.000000 0.000000 0.000000 0.022872 0.000000 0.000000
# 5 0.000000 0.000000 0.000000 0.000000 0.041193 0.000000
# 6 0.000000 0.000000 0.000000 0.000000 0.000000 0.028425
#
#
# Mechanical properties :
#
#
# Convention : Reuss Voigt Hill
#
# Bulk Modulus (GPa) = 52.59462 72.14084 62.36773
# Shear Modulus (GPa) = 22.49579 29.50619 26.00099
#
# Velocity S-wave (km/s) = 3.45228 3.95378 3.71151
# Velocity P-wave (km/s) = 6.61480 7.68526 7.17003
#
# Compressibility (1/GPa) = 0.01901335
#
# Stress axis : x y z
#
# Youngs Moduli (GPa) = 36.02902 96.42380 30.21285
#
# Poissons Ratio (x) = 0.52788 0.41289
# Poissons Ratio (y) = 0.19724 0.21043
# Poissons Ratio (z) = 0.49238 0.67160
#
# Static dielectric constant tensor:
#      x y z
#    x 3.292840 0.000000 0.000000 
#    y 0.000000 3.563500 0.000000 
#    z 0.000000 0.000000 3.547360 
# 
# 
# High freq. dielectric constant tensor:
#      x y z
#    x 1.714800 0.000000 0.000000 
#    y 0.000000 1.748710 0.000000 
#    z 0.000000 0.000000 1.739080 
# 
# From -- ./inp_files/66977.got.cif
#   From: 2010.03.12/outbox.cif.g09.slc.cpg/sg63_34_cif.got.tgz:66977.got - 2010.04.10 19:34:48.
