data_PCOD8259988
_publ_section_title
;
Structure prediction by ZEFSAII (Michael W. Deem and Ramdas Pophale) SiO2 
 PCOD8259988
Probable space group: C M C M
;
_chemical_formula_sum "Si O2"
_cell_formula_units_Z 104
_cell_length_a 20.092116
_cell_length_b 32.068148
_cell_length_c 8.783676
_cell_angle_alpha 90.000000
_cell_angle_beta 90.000000
_cell_angle_gamma 90.000000
_cell_volume 5659.471326
_symmetry_space_group_name_H-M "C M C M"
_symmetry_group_IT_number 63
_symmetry_cell_setting 'orthorhombic'
loop_
_space_group_symop_operation_xyz
x,y,z
-x,-y,1/2+z
x,-y,-z
-x,y,1/2-z
-x,-y,-z
x,y,1/2-z
-x,y,z
x,-y,1/2+z
1/2+x,1/2+y,z
1/2-x,1/2-y,1/2+z
1/2+x,1/2-y,-z
1/2-x,1/2+y,1/2-z
1/2-x,1/2-y,-z
1/2+x,1/2+y,1/2-z
1/2-x,1/2+y,z
1/2+x,1/2-y,1/2+z
loop_
_atom_site_type_symbol
_atom_site_label
_atom_site_fract_x
_atom_site_fract_y
_atom_site_fract_z
Si Si1 0.425523 0.686406 0.923503
Si Si2 0.762810 0.957328 0.076681
Si Si3 0.699525 0.366647 0.429002
Si Si4 0.423598 0.226837 0.572619
Si Si5 0.123695 0.420707 0.077056
Si Si6 0.173355 0.338124 0.570366
Si Si7 0.000000 0.456251 0.923691
O O1 0.415566 0.702064 0.750000
O O2 0.500000 0.668657 0.947425
O O3 0.374975 0.649025 0.961109
O O4 0.412462 0.724733 0.035985
O O5 0.784487 0.961332 0.250000
O O6 0.795353 0.914594 0.009686
O O7 0.683149 0.953868 0.057126
O O8 0.788493 0.000000 0.000000
O O9 0.718516 0.365591 0.250000
O O10 0.749022 0.335290 0.520727
O O11 0.409393 0.219066 0.750000
O O12 0.500000 0.213810 0.531629
O O13 0.370100 0.202179 0.471318
O O14 0.097643 0.420658 0.250000
O O15 0.146463 0.375110 0.032965
O O16 0.064838 0.430678 0.964042
O O17 0.167632 0.346765 0.750000
O O18 0.000000 0.466222 0.750000
O O19 0.000000 0.500000 0.000000
#
# Coordination Sequence:
#
# PCOD8259988 Si02
#       7
#    16  16  16  16  16  16   8
#     4   9  18  35  59  83 105 134 175 221 265 315
#     4   9  18  32  52  75 100 133 170 210 257 311
#     4   9  19  36  55  78 109 140 173 215 269 324
#     4  10  21  36  54  76 106 144 180 217 267 322
#     4  10  21  37  53  71 100 137 176 224 277 322
#     4  11  22  35  53  78 106 138 181 225 264 314
#     4  12  24  36  50  72 100 136 182 228 274 324
#
# _framework density 18.376273000000001
#
# number of rings (size 3 to 8) (size 9 to 14) (size 15 to 20)
#    0.000    2.154    0.000    4.385    1.077    6.462 
#    0.000    0.000    0.000    0.462    0.000    0.000 
#    0.000    0.000    0.000    0.000    0.000    0.308 
#
# Total GULP energy -644666.086747 kJ/mol
# GULP energy per Si atom -12397.424745 kJ/mol
# Density = 1.833445 g / cm^3
# Si number density = 18.376273 Si / 1000 Ang^3
#
#
#
# Elastic Constant Matrix: (Units=GPa)
#
#
# Indices 1 2 3 4 5 6 
#
# 1 102.2706 54.1218 33.1875 0.0000 0.0000 0.0000
# 2 54.1218 85.2549 29.4879 0.0000 0.0000 0.0000
# 3 33.1875 29.4879 79.3428 0.0000 0.0000 0.0000
# 4 0.0000 0.0000 0.0000 31.1730 0.0000 0.0000
# 5 0.0000 0.0000 0.0000 0.0000 20.7167 0.0000
# 6 0.0000 0.0000 0.0000 0.0000 0.0000 16.8020
#
#
#
# Elastic Compliance Matrix: (Units=1/GPa)
#
#
# Indices 1 2 3 4 5 6 
#
# 1 0.015412 -0.008668 -0.003225 0.000000 0.000000 0.000000
# 2 -0.008668 0.018335 -0.003189 0.000000 0.000000 0.000000
# 3 -0.003225 -0.003189 0.015137 0.000000 0.000000 0.000000
# 4 0.000000 0.000000 0.000000 0.032079 0.000000 0.000000
# 5 0.000000 0.000000 0.000000 0.000000 0.048270 0.000000
# 6 0.000000 0.000000 0.000000 0.000000 0.000000 0.059517
#
#
# Mechanical properties :
#
#
# Convention : Reuss Voigt Hill
#
# Bulk Modulus (GPa) = 53.41580 55.60695 54.51137
# Shear Modulus (GPa) = 22.20699 23.74307 22.97503
#
# Velocity S-wave (km/s) = 3.48006 3.59841 3.53973
# Velocity P-wave (km/s) = 6.72894 6.89859 6.81430
#
# Compressibility (1/GPa) = 0.01872105
#
# Stress axis : x y z
#
# Youngs Moduli (GPa) = 64.88547 54.53976 66.06135
#
# Poissons Ratio (x) = 0.47277 0.21304
# Poissons Ratio (y) = 0.56245 0.21064
# Poissons Ratio (z) = 0.20924 0.17390
#
# Static dielectric constant tensor:
#      x y z
#    x 3.491510 0.000000 0.000000 
#    y 0.000000 2.991740 0.000000 
#    z 0.000000 0.000000 3.327430 
# 
# 
# High freq. dielectric constant tensor:
#      x y z
#    x 1.701200 0.000000 0.000000 
#    y 0.000000 1.704420 0.000000 
#    z 0.000000 0.000000 1.714450 
# 
# From -- ./inp_files/9161.got.cif
#   From: 2010.03.12/outbox.cif.g09.slc.cpg/sg63_5_cif.got.tgz:9161.got - 2010.04.10 19:34:48.
