data_PCOD8259775
_publ_section_title
;
Structure prediction by ZEFSAII (Michael W. Deem and Ramdas Pophale) SiO2 
 PCOD8259775
Probable space group: C M C M
;
_chemical_formula_sum "Si O2"
_cell_formula_units_Z 64
_cell_length_a 8.762518
_cell_length_b 23.419457
_cell_length_c 15.313548
_cell_angle_alpha 90.000000
_cell_angle_beta 90.000000
_cell_angle_gamma 90.000000
_cell_volume 3142.545458
_symmetry_space_group_name_H-M "C M C M"
_symmetry_group_IT_number 63
_symmetry_cell_setting 'orthorhombic'
loop_
_space_group_symop_operation_xyz
x,y,z
-x,-y,1/2+z
x,-y,-z
-x,y,1/2-z
-x,-y,-z
x,y,1/2-z
-x,y,z
x,-y,1/2+z
1/2+x,1/2+y,z
1/2-x,1/2-y,1/2+z
1/2+x,1/2-y,-z
1/2-x,1/2+y,1/2-z
1/2-x,1/2-y,-z
1/2+x,1/2+y,1/2-z
1/2-x,1/2+y,z
1/2+x,1/2-y,1/2+z
loop_
_atom_site_type_symbol
_atom_site_label
_atom_site_fract_x
_atom_site_fract_y
_atom_site_fract_z
Si Si1 0.825164 0.693554 0.250000
Si Si2 0.320131 0.111924 0.584837
Si Si3 0.824988 0.828480 0.250000
Si Si4 0.175990 0.001534 0.851309
Si Si5 0.680782 0.624662 0.096892
O O1 0.810820 0.761060 0.250000
O O2 0.742846 0.671004 0.163867
O O3 0.000000 0.673280 0.250000
O O4 0.500000 0.117701 0.582403
O O5 0.255838 0.147593 0.664823
O O6 0.250640 0.138599 0.497144
O O7 0.273967 0.045439 0.591686
O O8 0.000000 0.849249 0.250000
O O9 0.201273 0.015592 0.750000
O O10 0.233201 0.937905 0.871264
O O11 0.000000 0.008683 0.878283
O O12 0.500000 0.629597 0.093153
#
# Coordination Sequence:
#
# PCOD8259775 Si02
#       5
#     8  16   8  16  16
#     4  11  25  44  67  94 123 158 210 269 314 359
#     4  12  25  40  63  97 129 163 207 261 313 360
#     4  11  25  46  67  88 121 168 212 257 314 375
#     4  10  20  38  64  93 127 167 206 246 305 380
#     4  11  23  42  67  94 127 170 208 247 309 380
#
# _framework density 20.365656000000001
#
# number of rings (size 3 to 8) (size 9 to 14) (size 15 to 20)
#    0.000    1.000    2.500    4.500    0.000    8.000 
#    0.000    0.000    0.000    0.000    0.000    0.000 
#    0.000    0.000    0.000    0.000    0.000    0.000 
#
# Total GULP energy -397045.296533 kJ/mol
# GULP energy per Si atom -12407.665517 kJ/mol
# Density = 2.031930 g / cm^3
# Si number density = 20.365656 Si / 1000 Ang^3
#
#
#
# Elastic Constant Matrix: (Units=GPa)
#
#
# Indices 1 2 3 4 5 6 
#
# 1 135.8443 47.8046 58.3605 0.0000 0.0000 0.0000
# 2 47.8046 77.9945 32.8712 0.0000 0.0000 0.0000
# 3 58.3605 32.8712 137.5972 0.0000 0.0000 0.0000
# 4 0.0000 0.0000 0.0000 8.8047 0.0000 0.0000
# 5 0.0000 0.0000 0.0000 0.0000 47.5164 0.0000
# 6 0.0000 0.0000 0.0000 0.0000 0.0000 31.6313
#
#
#
# Elastic Compliance Matrix: (Units=1/GPa)
#
#
# Indices 1 2 3 4 5 6 
#
# 1 0.010555 -0.005096 -0.003259 0.000000 0.000000 0.000000
# 2 -0.005096 0.016717 -0.001832 0.000000 0.000000 0.000000
# 3 -0.003259 -0.001832 0.009088 0.000000 0.000000 0.000000
# 4 0.000000 0.000000 0.000000 0.113576 0.000000 0.000000
# 5 0.000000 0.000000 0.000000 0.000000 0.021045 0.000000
# 6 0.000000 0.000000 0.000000 0.000000 0.000000 0.031614
#
#
# Mechanical properties :
#
#
# Convention : Reuss Voigt Hill
#
# Bulk Modulus (GPa) = 62.55943 69.94540 66.25242
# Shear Modulus (GPa) = 21.90117 31.75046 26.82581
#
# Velocity S-wave (km/s) = 3.28288 3.95273 3.63327
# Velocity P-wave (km/s) = 6.71971 7.43313 7.08541
#
# Compressibility (1/GPa) = 0.01598480
#
# Stress axis : x y z
#
# Youngs Moduli (GPa) = 94.74332 59.81979 110.03799
#
# Poissons Ratio (x) = 0.30482 0.35866
# Poissons Ratio (y) = 0.48277 0.20163
# Poissons Ratio (z) = 0.30881 0.10961
#
# Static dielectric constant tensor:
#      x y z
#    x 3.762960 0.000000 0.000000 
#    y 0.000000 3.697630 0.000000 
#    z 0.000000 0.000000 3.852810 
# 
# 
# High freq. dielectric constant tensor:
#      x y z
#    x 1.800770 0.000000 0.000000 
#    y 0.000000 1.795240 0.000000 
#    z 0.000000 0.000000 1.814050 
# 
# From -- ./inp_files/27540.got.cif
#   From: 2010.03.12/outbox.cif.g09.slc.cpg/sg63_14_cif.got.tgz:27540.got - 2010.04.10 19:34:48.
