data_PCOD8259468
_publ_section_title
;
Structure prediction by ZEFSAII (Michael W. Deem and Ramdas Pophale) SiO2 
 PCOD8259468
Probable space group: C M C M
;
_chemical_formula_sum "Si O2"
_cell_formula_units_Z 80
_cell_length_a 18.251567
_cell_length_b 19.385391
_cell_length_c 11.462336
_cell_angle_alpha 90.000000
_cell_angle_beta 90.000000
_cell_angle_gamma 90.000000
_cell_volume 4055.532229
_symmetry_space_group_name_H-M "C M C M"
_symmetry_group_IT_number 63
_symmetry_cell_setting 'orthorhombic'
loop_
_space_group_symop_operation_xyz
x,y,z
-x,-y,1/2+z
x,-y,-z
-x,y,1/2-z
-x,-y,-z
x,y,1/2-z
-x,y,z
x,-y,1/2+z
1/2+x,1/2+y,z
1/2-x,1/2-y,1/2+z
1/2+x,1/2-y,-z
1/2-x,1/2+y,1/2-z
1/2-x,1/2-y,-z
1/2+x,1/2+y,1/2-z
1/2-x,1/2+y,z
1/2+x,1/2-y,1/2+z
loop_
_atom_site_type_symbol
_atom_site_label
_atom_site_fract_x
_atom_site_fract_y
_atom_site_fract_z
Si Si1 0.500000 0.686866 0.380821
Si Si2 0.000000 0.349469 0.122722
Si Si3 0.212706 0.049417 0.884591
Si Si4 0.801210 0.684831 0.119656
Si Si5 0.364946 0.925730 0.025280
Si Si6 0.152161 0.820676 0.998911
O O1 0.500000 0.655784 0.250000
O O2 0.500000 0.768287 0.375094
O O3 0.427355 0.661259 0.447074
O O4 0.926627 0.373781 0.063284
O O5 0.000000 0.382292 0.250000
O O6 0.193075 0.022437 0.750000
O O7 0.299456 0.065762 0.881177
O O8 0.169144 0.120873 0.904267
O O9 0.196108 0.000000 0.000000
O O10 0.818620 0.703222 0.250000
O O11 0.713936 0.680862 0.101040
O O12 0.831324 0.608712 0.090620
O O13 0.844726 0.743838 0.050323
O O14 0.400518 0.000000 0.000000
#
# Coordination Sequence:
#
# PCOD8259468 Si02
#       6
#     8   8  16  16  16  16
#     4  11  22  37  60  88 119 159 202 251 307 356
#     4  11  21  35  53  78 119 161 202 243 292 352
#     4  10  22  40  65  93 121 157 201 252 309 367
#     4  10  20  36  58  83 113 154 202 252 300 351
#     4  10  21  36  56  84 121 158 204 245 293 353
#     4  10  21  38  59  86 117 151 200 250 302 361
#
# _framework density 19.726141999999999
#
# number of rings (size 3 to 8) (size 9 to 14) (size 15 to 20)
#    0.000    1.800    2.000    2.100    0.000    8.800 
#    0.000    4.000    0.000    0.000    0.000    0.000 
#    0.000    0.000    0.000    0.000    0.000    0.000 
#
# Total GULP energy -495529.302584 kJ/mol
# GULP energy per Si atom -12388.232565 kJ/mol
# Density = 1.968124 g / cm^3
# Si number density = 19.726142 Si / 1000 Ang^3
#
#
#
# Elastic Constant Matrix: (Units=GPa)
#
#
# Indices 1 2 3 4 5 6 
#
# 1 86.6650 13.2406 33.8191 0.0000 0.0000 0.0000
# 2 13.2406 75.3188 24.2172 0.0000 0.0000 0.0000
# 3 33.8191 24.2172 117.4488 0.0000 0.0000 0.0000
# 4 0.0000 0.0000 0.0000 22.3923 0.0000 0.0000
# 5 0.0000 0.0000 0.0000 0.0000 9.9871 0.0000
# 6 0.0000 0.0000 0.0000 0.0000 0.0000 6.8870
#
#
#
# Elastic Compliance Matrix: (Units=1/GPa)
#
#
# Indices 1 2 3 4 5 6 
#
# 1 0.013094 -0.001167 -0.003530 0.000000 0.000000 0.000000
# 2 -0.001167 0.014324 -0.002617 0.000000 0.000000 0.000000
# 3 -0.003530 -0.002617 0.010070 0.000000 0.000000 0.000000
# 4 0.000000 0.000000 0.000000 0.044658 0.000000 0.000000
# 5 0.000000 0.000000 0.000000 0.000000 0.100130 0.000000
# 6 0.000000 0.000000 0.000000 0.000000 0.000000 0.145201
#
#
# Mechanical properties :
#
#
# Convention : Reuss Voigt Hill
#
# Bulk Modulus (GPa) = 43.74456 46.88737 45.31596
# Shear Modulus (GPa) = 14.29691 21.73032 18.01361
#
# Velocity S-wave (km/s) = 2.69508 3.32264 3.02517
# Velocity P-wave (km/s) = 5.64877 6.20811 5.93504
#
# Compressibility (1/GPa) = 0.02285999
#
# Stress axis : x y z
#
# Youngs Moduli (GPa) = 76.36837 69.81479 99.30033
#
# Poissons Ratio (x) = 0.08147 0.35052
# Poissons Ratio (y) = 0.08912 0.25991
# Poissons Ratio (z) = 0.26957 0.18273
#
# Static dielectric constant tensor:
#      x y z
#    x 3.450810 0.000000 0.000000 
#    y 0.000000 3.658430 0.000000 
#    z 0.000000 0.000000 3.584770 
# 
# 
# High freq. dielectric constant tensor:
#      x y z
#    x 1.756320 0.000000 0.000000 
#    y 0.000000 1.773850 0.000000 
#    z 0.000000 0.000000 1.759490 
# 
# From -- ./inp_files/21053.got.cif
#   From: 2010.03.12/outbox.cif.g09.slc.cpg/sg63_11_cif.got.tgz:21053.got - 2010.04.10 19:34:48.
