data_PCOD8259289
_publ_section_title
;
Structure prediction by ZEFSAII (Michael W. Deem and Ramdas Pophale) SiO2 
 PCOD8259289
Probable space group: C M C M
;
_chemical_formula_sum "Si O2"
_cell_formula_units_Z 96
_cell_length_a 8.923518
_cell_length_b 24.836797
_cell_length_c 23.455053
_cell_angle_alpha 90.000000
_cell_angle_beta 90.000000
_cell_angle_gamma 90.000000
_cell_volume 5198.381044
_symmetry_space_group_name_H-M "C M C M"
_symmetry_group_IT_number 63
_symmetry_cell_setting 'orthorhombic'
loop_
_space_group_symop_operation_xyz
x,y,z
-x,-y,1/2+z
x,-y,-z
-x,y,1/2-z
-x,-y,-z
x,y,1/2-z
-x,y,z
x,-y,1/2+z
1/2+x,1/2+y,z
1/2-x,1/2-y,1/2+z
1/2+x,1/2-y,-z
1/2-x,1/2+y,1/2-z
1/2-x,1/2-y,-z
1/2+x,1/2+y,1/2-z
1/2-x,1/2+y,z
1/2+x,1/2-y,1/2+z
loop_
_atom_site_type_symbol
_atom_site_label
_atom_site_fract_x
_atom_site_fract_y
_atom_site_fract_z
Si Si1 0.825791 0.416686 0.942927
Si Si2 0.823307 0.145330 0.250000
Si Si3 0.322827 0.603030 0.560044
Si Si4 0.174060 0.774704 0.054758
Si Si5 0.174098 0.681118 0.137259
Si Si6 0.675492 0.982506 0.136616
Si Si7 0.678091 0.522680 0.250000
O O1 0.775385 0.364578 0.907305
O O2 0.789648 0.469105 0.906339
O O3 0.000000 0.413542 0.960343
O O4 0.726783 0.420645 0.999353
O O5 0.766875 0.176826 0.194838
O O6 0.762295 0.084169 0.250000
O O7 0.000000 0.145782 0.250000
O O8 0.500000 0.596087 0.566993
O O9 0.270061 0.664852 0.565724
O O10 0.238802 0.572293 0.610475
O O11 0.210655 0.739203 0.110434
O O12 0.000000 0.773996 0.041038
O O13 0.250000 0.750000 0.000000
O O14 0.000000 0.673871 0.152139
O O15 0.500000 0.976938 0.148703
O O16 0.760120 0.992295 0.195268
O O17 0.500000 0.520413 0.250000
#
# Coordination Sequence:
#
# PCOD8259289 Si02
#       7
#    16   8  16  16  16  16   8
#     4  10  20  35  58  86 116 151 191 234 282 343
#     4  11  23  37  58  89 120 147 184 238 295 340
#     4  11  23  37  56  86 121 155 191 237 293 342
#     4  10  21  37  59  85 114 151 193 235 284 339
#     4  10  20  37  60  85 115 152 192 233 281 339
#     4  11  23  39  59  84 115 153 197 236 281 347
#     4  11  23  39  60  85 116 149 186 238 293 344
#
# _framework density 18.467289000000001
#
# number of rings (size 3 to 8) (size 9 to 14) (size 15 to 20)
#    0.000    1.500    3.333    2.000    0.000    6.000 
#    0.000    0.833    0.000    2.000    0.000    0.000 
#    0.000    0.000    0.000    0.000    0.000    0.000 
#
# Total GULP energy -595474.495527 kJ/mol
# GULP energy per Si atom -12405.718657 kJ/mol
# Density = 1.842526 g / cm^3
# Si number density = 18.467289 Si / 1000 Ang^3
#
#
#
# Elastic Constant Matrix: (Units=GPa)
#
#
# Indices 1 2 3 4 5 6 
#
# 1 65.7252 47.0591 52.3133 0.0000 0.0000 0.0000
# 2 47.0591 131.7950 65.1686 0.0000 0.0000 0.0000
# 3 52.3133 65.1686 130.8811 0.0000 0.0000 0.0000
# 4 0.0000 0.0000 0.0000 26.0354 0.0000 0.0000
# 5 0.0000 0.0000 0.0000 0.0000 34.5345 0.0000
# 6 0.0000 0.0000 0.0000 0.0000 0.0000 28.1980
#
#
#
# Elastic Compliance Matrix: (Units=1/GPa)
#
#
# Indices 1 2 3 4 5 6 
#
# 1 0.024770 -0.005239 -0.007292 0.000000 0.000000 0.000000
# 2 -0.005239 0.011174 -0.003470 0.000000 0.000000 0.000000
# 3 -0.007292 -0.003470 0.012283 0.000000 0.000000 0.000000
# 4 0.000000 0.000000 0.000000 0.038409 0.000000 0.000000
# 5 0.000000 0.000000 0.000000 0.000000 0.028957 0.000000
# 6 0.000000 0.000000 0.000000 0.000000 0.000000 0.035464
#
#
# Mechanical properties :
#
#
# Convention : Reuss Voigt Hill
#
# Bulk Modulus (GPa) = 61.63171 73.05367 67.34269
# Shear Modulus (GPa) = 26.53010 28.67759 27.60384
#
# Velocity S-wave (km/s) = 3.79436 3.94494 3.87038
# Velocity P-wave (km/s) = 7.25549 7.77138 7.51786
#
# Compressibility (1/GPa) = 0.01622541
#
# Stress axis : x y z
#
# Youngs Moduli (GPa) = 40.37176 89.49537 81.41439
#
# Poissons Ratio (x) = 0.46884 0.59368
# Poissons Ratio (y) = 0.21149 0.28249
# Poissons Ratio (z) = 0.29439 0.31053
#
# Static dielectric constant tensor:
#      x y z
#    x 3.387570 0.000000 0.000000 
#    y 0.000000 3.627800 0.000000 
#    z 0.000000 0.000000 3.357860 
# 
# 
# High freq. dielectric constant tensor:
#      x y z
#    x 1.719150 0.000000 0.000000 
#    y 0.000000 1.720910 0.000000 
#    z 0.000000 0.000000 1.716940 
# 
# From -- ./inp_files/60054.got.cif
#   From: 2010.03.12/outbox.cif.g09.slc.cpg/sg63_31_cif.got.tgz:60054.got - 2010.04.10 19:34:48.
