data_PCOD8259615
_publ_section_title
;
Structure prediction by ZEFSAII (Michael W. Deem and Ramdas Pophale) SiO2 
 PCOD8259615
Probable space group: C M C M
;
_chemical_formula_sum "Si O2"
_cell_formula_units_Z 104
_cell_length_a 26.114157
_cell_length_b 23.947573
_cell_length_c 8.623728
_cell_angle_alpha 90.000000
_cell_angle_beta 90.000000
_cell_angle_gamma 90.000000
_cell_volume 5393.026653
_symmetry_space_group_name_H-M "C M C M"
_symmetry_group_IT_number 63
_symmetry_cell_setting 'orthorhombic'
loop_
_space_group_symop_operation_xyz
x,y,z
-x,-y,1/2+z
x,-y,-z
-x,y,1/2-z
-x,-y,-z
x,y,1/2-z
-x,y,z
x,-y,1/2+z
1/2+x,1/2+y,z
1/2-x,1/2-y,1/2+z
1/2+x,1/2-y,-z
1/2-x,1/2+y,1/2-z
1/2-x,1/2-y,-z
1/2+x,1/2+y,1/2-z
1/2-x,1/2+y,z
1/2+x,1/2-y,1/2+z
loop_
_atom_site_type_symbol
_atom_site_label
_atom_site_fract_x
_atom_site_fract_y
_atom_site_fract_z
Si Si1 0.610409 0.937987 0.566411
Si Si2 0.441376 0.350205 0.566325
Si Si3 0.286492 0.657073 0.430199
Si Si4 0.824248 0.343729 0.068880
Si Si5 0.867952 0.763245 0.431354
Si Si6 0.500000 0.059790 0.071270
Si Si7 0.139547 0.060706 0.070845
O O1 0.622029 0.937419 0.750000
O O2 0.652112 0.903087 0.473922
O O3 0.553967 0.910418 0.528407
O O4 0.613597 0.000000 0.500000
O O5 0.435498 0.343518 0.750000
O O6 0.500000 0.358322 0.514933
O O7 0.419173 0.294320 0.488627
O O8 0.408986 0.403800 0.506405
O O9 0.294613 0.672291 0.250000
O O10 0.227758 0.662275 0.473215
O O11 0.317548 0.700995 0.532498
O O12 0.308207 0.594837 0.464126
O O13 0.812090 0.340642 0.250000
O O14 0.863786 0.295661 0.019090
O O15 0.872074 0.751585 0.250000
O O16 0.500000 0.047295 0.250000
O O17 0.500000 0.000000 0.000000
O O18 0.131032 0.051144 0.250000
O O19 0.143219 0.000000 0.000000
#
# Coordination Sequence:
#
# PCOD8259615 Si02
#       7
#    16  16  16  16  16   8  16
#     4  10  20  37  58  83 112 145 182 228 278 331
#     4   9  19  38  60  82 114 154 193 237 290 341
#     4  10  21  39  59  80 111 150 188 233 286 339
#     4  12  24  38  57  84 113 147 189 233 282 340
#     4  11  22  38  59  84 112 145 187 235 285 342
#     4   8  16  32  56  78 102 136 174 214 261 314
#     4   9  19  34  55  83 115 151 190 232 280 335
#
# _framework density 19.284161999999998
#
# number of rings (size 3 to 8) (size 9 to 14) (size 15 to 20)
#    0.000    2.000    0.000    5.077    0.000    4.923 
#    1.385    1.538    0.000    0.000    0.000    0.000 
#    0.000    0.000    0.000    0.000    0.000    0.000 
#
# Total GULP energy -644654.454125 kJ/mol
# GULP energy per Si atom -12397.201041 kJ/mol
# Density = 1.924027 g / cm^3
# Si number density = 19.284162 Si / 1000 Ang^3
#
#
#
# Elastic Constant Matrix: (Units=GPa)
#
#
# Indices 1 2 3 4 5 6 
#
# 1 50.4632 17.4578 21.9603 0.0000 0.0000 0.0000
# 2 17.4578 96.8230 25.6095 0.0000 0.0000 0.0000
# 3 21.9603 25.6095 56.7473 0.0000 0.0000 0.0000
# 4 0.0000 0.0000 0.0000 35.3887 0.0000 0.0000
# 5 0.0000 0.0000 0.0000 0.0000 27.7198 0.0000
# 6 0.0000 0.0000 0.0000 0.0000 0.0000 17.9725
#
#
#
# Elastic Compliance Matrix: (Units=1/GPa)
#
#
# Indices 1 2 3 4 5 6 
#
# 1 0.024215 -0.002143 -0.008403 0.000000 0.000000 0.000000
# 2 -0.002143 0.011918 -0.004549 0.000000 0.000000 0.000000
# 3 -0.008403 -0.004549 0.022927 0.000000 0.000000 0.000000
# 4 0.000000 0.000000 0.000000 0.028258 0.000000 0.000000
# 5 0.000000 0.000000 0.000000 0.000000 0.036075 0.000000
# 6 0.000000 0.000000 0.000000 0.000000 0.000000 0.055641
#
#
# Mechanical properties :
#
#
# Convention : Reuss Voigt Hill
#
# Bulk Modulus (GPa) = 34.64047 37.12097 35.88072
# Shear Modulus (GPa) = 22.84697 25.48325 24.16511
#
# Velocity S-wave (km/s) = 3.44576 3.63913 3.54376
# Velocity P-wave (km/s) = 5.81663 6.07857 5.94904
#
# Compressibility (1/GPa) = 0.02886797
#
# Stress axis : x y z
#
# Youngs Moduli (GPa) = 41.29685 83.90823 43.61691
#
# Poissons Ratio (x) = 0.17985 0.36653
# Poissons Ratio (y) = 0.08852 0.19841
# Poissons Ratio (z) = 0.34704 0.38169
#
# Static dielectric constant tensor:
#      x y z
#    x 3.790230 0.000000 0.000000 
#    y 0.000000 3.617130 0.000000 
#    z 0.000000 0.000000 3.481840 
# 
# 
# High freq. dielectric constant tensor:
#      x y z
#    x 1.755630 0.000000 0.000000 
#    y 0.000000 1.742970 0.000000 
#    z 0.000000 0.000000 1.754150 
# 
# From -- ./inp_files/12600.got.cif
#   From: 2010.03.12/outbox.cif.g09.slc.cpg/sg63_7_cif.got.tgz:12600.got - 2010.04.10 19:34:48.
