data_PCOD8259392
_publ_section_title
;
Structure prediction by ZEFSAII (Michael W. Deem and Ramdas Pophale) SiO2 
 PCOD8259392
Probable space group: C M C M
;
_chemical_formula_sum "Si O2"
_cell_formula_units_Z 64
_cell_length_a 19.279111
_cell_length_b 5.344483
_cell_length_c 28.034845
_cell_angle_alpha 90.000000
_cell_angle_beta 90.000000
_cell_angle_gamma 90.000000
_cell_volume 2888.622988
_symmetry_space_group_name_H-M "C M C M"
_symmetry_group_IT_number 63
_symmetry_cell_setting 'orthorhombic'
loop_
_space_group_symop_operation_xyz
x,y,z
-x,-y,1/2+z
x,-y,-z
-x,y,1/2-z
-x,-y,-z
x,y,1/2-z
-x,y,z
x,-y,1/2+z
1/2+x,1/2+y,z
1/2-x,1/2-y,1/2+z
1/2+x,1/2-y,-z
1/2-x,1/2+y,1/2-z
1/2-x,1/2-y,-z
1/2+x,1/2+y,1/2-z
1/2-x,1/2+y,z
1/2+x,1/2-y,1/2+z
loop_
_atom_site_type_symbol
_atom_site_label
_atom_site_fract_x
_atom_site_fract_y
_atom_site_fract_z
Si Si1 0.778338 0.209759 0.553384
Si Si2 0.576091 0.126861 0.050813
Si Si3 0.417396 0.396830 0.195475
Si Si4 0.079514 0.604632 0.851793
O O1 0.750000 0.250000 0.500000
O O2 0.756806 0.471117 0.579427
O O3 0.861814 0.171803 0.554352
O O4 0.500000 0.257840 0.057785
O O5 0.586298 0.913106 0.090917
O O6 0.580509 0.000000 0.000000
O O7 0.393010 0.411769 0.250000
O O8 0.500000 0.393112 0.190797
O O9 0.386200 0.144416 0.171708
O O10 0.386063 0.638384 0.167427
O O11 0.000000 0.610899 0.835220
#
# Coordination Sequence:
#
# PCOD8259392 Si02
#       4
#    16  16  16  16
#     4  10  20  38  56  75 104 148 189 239 267 317
#     4  10  20  36  56  82 117 157 189 227 282 332
#     4   9  16  29  48  69 100 139 173 218 278 328
#     4   9  18  30  45  73 105 136 180 221 263 333
#
# _framework density 22.155888000000001
#
# number of rings (size 3 to 8) (size 9 to 14) (size 15 to 20)
#    0.000    2.500    2.500    0.750    0.000    5.000 
#    0.000    6.250    0.000    0.000    0.000    0.000 
#    0.000   20.000    0.000    0.000    0.000    0.000 
#
# Total GULP energy -396463.981890 kJ/mol
# GULP energy per Si atom -12389.499434 kJ/mol
# Density = 2.210546 g / cm^3
# Si number density = 22.155888 Si / 1000 Ang^3
#
#
#
# Elastic Constant Matrix: (Units=GPa)
#
#
# Indices 1 2 3 4 5 6 
#
# 1 117.5525 24.2067 -3.2495 0.0000 0.0000 0.0000
# 2 24.2067 178.5228 48.1565 0.0000 0.0000 0.0000
# 3 -3.2495 48.1565 126.0171 0.0000 0.0000 0.0000
# 4 0.0000 0.0000 0.0000 21.1838 0.0000 0.0000
# 5 0.0000 0.0000 0.0000 0.0000 -2.3473 0.0000
# 6 0.0000 0.0000 0.0000 0.0000 0.0000 12.4638
#
#
#
# Elastic Compliance Matrix: (Units=1/GPa)
#
#
# Indices 1 2 3 4 5 6 
#
# 1 0.008816 -0.001401 0.000763 0.000000 0.000000 0.000000
# 2 -0.001401 0.006468 -0.002508 0.000000 0.000000 0.000000
# 3 0.000763 -0.002508 0.008913 0.000000 0.000000 0.000000
# 4 0.000000 0.000000 0.000000 0.047206 0.000000 0.000000
# 5 0.000000 0.000000 0.000000 0.000000 -0.426014 0.000000
# 6 0.000000 0.000000 0.000000 0.000000 0.000000 0.080232
#
#
# Mechanical properties :
#
#
# Convention : Reuss Voigt Hill
#
# Bulk Modulus (GPa) = 55.84900 62.25776 59.05338
# Shear Modulus (GPa) = -19.07547 29.79197 5.35825
#
# Velocity S-wave (km/s) = -2.93741 3.67093 1.55682
# Velocity P-wave (km/s) = 3.70912 6.79180 5.47202
#
# Compressibility (1/GPa) = 0.01790542
#
# Stress axis : x y z
#
# Youngs Moduli (GPa) = 113.42406 154.60698 112.19000
#
# Poissons Ratio (x) = 0.21664 -0.08558
# Poissons Ratio (y) = 0.15893 0.28135
# Poissons Ratio (z) = -0.08652 0.38773
#
# Static dielectric constant tensor:
#      x y z
#    x 3.818780 0.000000 0.000000 
#    y 0.000000 8.168670 0.000000 
#    z 0.000000 0.000000 3.821310 
# 
# 
# High freq. dielectric constant tensor:
#      x y z
#    x 1.818890 0.000000 0.000000 
#    y 0.000000 1.873540 0.000000 
#    z 0.000000 0.000000 1.851970 
# 
# From -- ./inp_files/70150.got.cif
#   From: 2010.03.12/outbox.cif.g09.slc.cpg/sg63_36_cif.got.tgz:70150.got - 2010.04.10 19:34:48.
