data_PCOD8259389
_publ_section_title
;
Structure prediction by ZEFSAII (Michael W. Deem and Ramdas Pophale) SiO2 
 PCOD8259389
Probable space group: C M C M
;
_chemical_formula_sum "Si O2"
_cell_formula_units_Z 96
_cell_length_a 9.309027
_cell_length_b 29.636180
_cell_length_c 19.131363
_cell_angle_alpha 90.000000
_cell_angle_beta 90.000000
_cell_angle_gamma 90.000000
_cell_volume 5278.036946
_symmetry_space_group_name_H-M "C M C M"
_symmetry_group_IT_number 63
_symmetry_cell_setting 'orthorhombic'
loop_
_space_group_symop_operation_xyz
x,y,z
-x,-y,1/2+z
x,-y,-z
-x,y,1/2-z
-x,-y,-z
x,y,1/2-z
-x,y,z
x,-y,1/2+z
1/2+x,1/2+y,z
1/2-x,1/2-y,1/2+z
1/2+x,1/2-y,-z
1/2-x,1/2+y,1/2-z
1/2-x,1/2-y,-z
1/2+x,1/2+y,1/2-z
1/2-x,1/2+y,z
1/2+x,1/2-y,1/2+z
loop_
_atom_site_type_symbol
_atom_site_label
_atom_site_fract_x
_atom_site_fract_y
_atom_site_fract_z
Si Si1 0.834403 0.701036 0.167799
Si Si2 0.667356 0.534870 0.170339
Si Si3 0.332229 0.764621 0.430817
Si Si4 0.331308 0.889587 0.908881
Si Si5 0.834489 0.630706 0.934744
Si Si6 0.667589 0.431781 0.170843
O O1 0.811226 0.701376 0.250000
O O2 0.733381 0.739239 0.135620
O O3 0.785790 0.652546 0.138949
O O4 0.000000 0.710628 0.147069
O O5 0.714505 0.544760 0.250000
O O6 0.500000 0.545065 0.161026
O O7 0.754870 0.565631 0.117549
O O8 0.702327 0.483312 0.150616
O O9 0.500000 0.752906 0.439376
O O10 0.250000 0.750000 0.500000
O O11 0.308547 0.817242 0.417263
O O12 0.500000 0.897912 0.904893
O O13 0.279062 0.879627 0.987318
O O14 0.748788 0.601319 0.880091
O O15 0.000000 0.617565 0.927965
O O16 0.718225 0.422265 0.250000
O O17 0.500000 0.422212 0.163553
#
# Coordination Sequence:
#
# PCOD8259389 Si02
#       6
#    16  16  16  16  16  16
#     4  10  21  38  59  84 116 151 188 232 281 335
#     4   9  19  36  56  80 112 147 185 231 278 326
#     4  11  22  39  60  81 112 150 189 232 282 336
#     4  10  20  36  56  81 114 149 185 225 276 335
#     4  10  22  38  57  82 112 145 184 230 277 331
#     4   9  20  39  59  80 110 147 187 231 278 331
#
# _framework density 18.188580000000002
#
# number of rings (size 3 to 8) (size 9 to 14) (size 15 to 20)
#    0.000    2.167    1.667    2.000    0.000    6.333 
#    0.000    8.333    0.000    0.000    0.000    0.000 
#    0.000    0.000    0.000    0.000    0.000    0.000 
#
# Total GULP energy -595340.495805 kJ/mol
# GULP energy per Si atom -12402.926996 kJ/mol
# Density = 1.814718 g / cm^3
# Si number density = 18.188580 Si / 1000 Ang^3
#
#
#
# Elastic Constant Matrix: (Units=GPa)
#
#
# Indices 1 2 3 4 5 6 
#
# 1 76.2660 68.4240 63.8474 0.0000 0.0000 0.0000
# 2 68.4240 117.2772 76.6006 0.0000 0.0000 0.0000
# 3 63.8474 76.6006 123.1804 0.0000 0.0000 0.0000
# 4 0.0000 0.0000 0.0000 41.8935 0.0000 0.0000
# 5 0.0000 0.0000 0.0000 0.0000 36.4141 0.0000
# 6 0.0000 0.0000 0.0000 0.0000 0.0000 38.8762
#
#
#
# Elastic Compliance Matrix: (Units=1/GPa)
#
#
# Indices 1 2 3 4 5 6 
#
# 1 0.031920 -0.013164 -0.008359 0.000000 0.000000 0.000000
# 2 -0.013164 0.019788 -0.005482 0.000000 0.000000 0.000000
# 3 -0.008359 -0.005482 0.015860 0.000000 0.000000 0.000000
# 4 0.000000 0.000000 0.000000 0.023870 0.000000 0.000000
# 5 0.000000 0.000000 0.000000 0.000000 0.027462 0.000000
# 6 0.000000 0.000000 0.000000 0.000000 0.000000 0.025723
#
#
# Mechanical properties :
#
#
# Convention : Reuss Voigt Hill
#
# Bulk Modulus (GPa) = 73.75636 81.60750 77.68193
# Shear Modulus (GPa) = 24.61228 30.62687 27.61958
#
# Velocity S-wave (km/s) = 3.68254 4.10793 3.90104
# Velocity P-wave (km/s) = 7.66292 8.21370 7.94309
#
# Compressibility (1/GPa) = 0.01355815
#
# Stress axis : x y z
#
# Youngs Moduli (GPa) = 31.32844 50.53675 63.05202
#
# Poissons Ratio (x) = 0.66524 0.52705
# Poissons Ratio (y) = 0.41239 0.34566
# Poissons Ratio (z) = 0.26188 0.27705
#
# Static dielectric constant tensor:
#      x y z
#    x 3.367940 0.000000 0.000000 
#    y 0.000000 3.408290 0.000000 
#    z 0.000000 0.000000 3.438330 
# 
# 
# High freq. dielectric constant tensor:
#      x y z
#    x 1.701610 0.000000 0.000000 
#    y 0.000000 1.712510 0.000000 
#    z 0.000000 0.000000 1.711910 
# 
# From -- ./inp_files/51281.got.cif
#   From: 2010.03.12/outbox.cif.g09.slc.cpg/sg63_26_cif.got.tgz:51281.got - 2010.04.10 19:34:48.
