data_PCOD8259150
_publ_section_title
;
Structure prediction by ZEFSAII (Michael W. Deem and Ramdas Pophale) SiO2 
 PCOD8259150
Probable space group: C M C M
;
_chemical_formula_sum "Si O2"
_cell_formula_units_Z 96
_cell_length_a 9.600479
_cell_length_b 19.778971
_cell_length_c 28.434325
_cell_angle_alpha 90.000000
_cell_angle_beta 90.000000
_cell_angle_gamma 90.000000
_cell_volume 5399.325610
_symmetry_space_group_name_H-M "C M C M"
_symmetry_group_IT_number 63
_symmetry_cell_setting 'orthorhombic'
loop_
_space_group_symop_operation_xyz
x,y,z
-x,-y,1/2+z
x,-y,-z
-x,y,1/2-z
-x,-y,-z
x,y,1/2-z
-x,y,z
x,-y,1/2+z
1/2+x,1/2+y,z
1/2-x,1/2-y,1/2+z
1/2+x,1/2-y,-z
1/2-x,1/2+y,1/2-z
1/2-x,1/2-y,-z
1/2+x,1/2+y,1/2-z
1/2-x,1/2+y,z
1/2+x,1/2-y,1/2+z
loop_
_atom_site_type_symbol
_atom_site_label
_atom_site_fract_x
_atom_site_fract_y
_atom_site_fract_z
Si Si1 0.165486 0.499403 0.802250
Si Si2 0.660224 0.432553 0.526223
Si Si3 0.664769 0.102125 0.382580
Si Si4 0.158463 0.200437 0.530004
Si Si5 0.156431 0.649965 0.694614
Si Si6 0.338069 0.742922 0.867648
O O1 0.224212 0.481629 0.750000
O O2 0.219168 0.444485 0.839709
O O3 0.213920 0.574717 0.817739
O O4 0.000000 0.498917 0.799824
O O5 0.707546 0.500000 0.500000
O O6 0.500000 0.436133 0.543355
O O7 0.758084 0.420875 0.570556
O O8 0.681713 0.375122 0.487345
O O9 0.500000 0.094493 0.390916
O O10 0.705854 0.178795 0.370682
O O11 0.250000 0.250000 0.500000
O O12 0.202181 0.204866 0.584287
O O13 0.000000 0.224848 0.524068
O O14 0.156597 0.659957 0.750000
O O15 0.253863 0.707476 0.673555
O O16 0.000000 0.658981 0.674687
O O17 0.500000 0.736083 0.855599
#
# Coordination Sequence:
#
# PCOD8259150 Si02
#       6
#    16  16  16  16  16  16
#     4   8  16  33  55  77 102 133 169 212 260 306
#     4  10  22  37  53  75 106 144 177 211 262 315
#     4  10  20  35  55  80 105 133 176 220 257 304
#     4  10  20  36  54  75 106 141 175 213 258 309
#     4   9  19  36  56  78 104 135 173 212 255 313
#     4  10  21  34  52  80 109 135 171 217 263 311
#
# _framework density 17.779999
#
# number of rings (size 3 to 8) (size 9 to 14) (size 15 to 20)
#    0.000    2.500    1.667    1.000    2.333    2.667 
#    0.000    1.667    0.000    1.500    0.000    0.000 
#    0.000    0.000    0.000    0.000    0.000    0.000 
#
# Total GULP energy -595193.528594 kJ/mol
# GULP energy per Si atom -12399.865179 kJ/mol
# Density = 1.773953 g / cm^3
# Si number density = 17.779999 Si / 1000 Ang^3
#
#
#
# Elastic Constant Matrix: (Units=GPa)
#
#
# Indices 1 2 3 4 5 6 
#
# 1 47.2303 49.0637 42.1394 0.0000 0.0000 0.0000
# 2 49.0637 144.0369 76.1141 0.0000 0.0000 0.0000
# 3 42.1394 76.1141 93.7505 0.0000 0.0000 0.0000
# 4 0.0000 0.0000 0.0000 39.2758 0.0000 0.0000
# 5 0.0000 0.0000 0.0000 0.0000 31.3280 0.0000
# 6 0.0000 0.0000 0.0000 0.0000 0.0000 18.4398
#
#
#
# Elastic Compliance Matrix: (Units=1/GPa)
#
#
# Indices 1 2 3 4 5 6 
#
# 1 0.039051 -0.007052 -0.011828 0.000000 0.000000 0.000000
# 2 -0.007052 0.013433 -0.007736 0.000000 0.000000 0.000000
# 3 -0.011828 -0.007736 0.022264 0.000000 0.000000 0.000000
# 4 0.000000 0.000000 0.000000 0.025461 0.000000 0.000000
# 5 0.000000 0.000000 0.000000 0.000000 0.031920 0.000000
# 6 0.000000 0.000000 0.000000 0.000000 0.000000 0.054230
#
#
# Mechanical properties :
#
#
# Convention : Reuss Voigt Hill
#
# Bulk Modulus (GPa) = 46.47596 68.85025 57.66311
# Shear Modulus (GPa) = 20.26235 25.65542 22.95889
#
# Velocity S-wave (km/s) = 3.37948 3.80272 3.59733
# Velocity P-wave (km/s) = 6.43615 7.62158 7.05381
#
# Compressibility (1/GPa) = 0.02151650
#
# Stress axis : x y z
#
# Youngs Moduli (GPa) = 25.60727 74.44453 44.91638
#
# Poissons Ratio (x) = 0.52499 0.53125
# Poissons Ratio (y) = 0.18059 0.34747
# Poissons Ratio (z) = 0.30287 0.57590
#
# Static dielectric constant tensor:
#      x y z
#    x 3.161910 0.000000 0.000000 
#    y 0.000000 3.513640 0.000000 
#    z 0.000000 0.000000 3.415250 
# 
# 
# High freq. dielectric constant tensor:
#      x y z
#    x 1.667020 0.000000 0.000000 
#    y 0.000000 1.699770 0.000000 
#    z 0.000000 0.000000 1.690760 
# 
# From -- ./inp_files/66989.got.cif
#   From: 2010.03.12/outbox.cif.g09.slc.cpg/sg63_34_cif.got.tgz:66989.got - 2010.04.10 19:34:48.
