data_PCOD8259174
_publ_section_title
;
Structure prediction by ZEFSAII (Michael W. Deem and Ramdas Pophale) SiO2 
 PCOD8259174
Probable space group: C M C M
;
_chemical_formula_sum "Si O2"
_cell_formula_units_Z 112
_cell_length_a 14.971688
_cell_length_b 26.697333
_cell_length_c 13.886750
_cell_angle_alpha 90.000000
_cell_angle_beta 90.000000
_cell_angle_gamma 90.000000
_cell_volume 5550.591468
_symmetry_space_group_name_H-M "C M C M"
_symmetry_group_IT_number 63
_symmetry_cell_setting 'orthorhombic'
loop_
_space_group_symop_operation_xyz
x,y,z
-x,-y,1/2+z
x,-y,-z
-x,y,1/2-z
-x,-y,-z
x,y,1/2-z
-x,y,z
x,-y,1/2+z
1/2+x,1/2+y,z
1/2-x,1/2-y,1/2+z
1/2+x,1/2-y,-z
1/2-x,1/2+y,1/2-z
1/2-x,1/2-y,-z
1/2+x,1/2+y,1/2-z
1/2-x,1/2+y,z
1/2+x,1/2-y,1/2+z
loop_
_atom_site_type_symbol
_atom_site_label
_atom_site_fract_x
_atom_site_fract_y
_atom_site_fract_z
Si Si1 0.895777 0.734553 0.358614
Si Si2 0.599782 0.943012 0.476864
Si Si3 0.402246 0.504971 0.136759
Si Si4 0.141951 0.113960 0.358415
Si Si5 0.847828 0.373909 0.641796
Si Si6 0.226296 0.919634 0.364504
Si Si7 0.602055 0.336231 0.046100
O O1 0.864851 0.748238 0.250000
O O2 0.848978 0.683569 0.395077
O O3 0.868891 0.779584 0.429523
O O4 0.000000 0.723808 0.361789
O O5 0.500000 0.940544 0.430574
O O6 0.595881 0.910634 0.574493
O O7 0.673013 0.919656 0.404847
O O8 0.625537 0.000000 0.500000
O O9 0.390889 0.506983 0.250000
O O10 0.500000 0.484121 0.106752
O O11 0.394135 0.561579 0.098733
O O12 0.326483 0.468381 0.094933
O O13 0.106999 0.125785 0.250000
O O14 0.247236 0.107395 0.359260
O O15 0.107973 0.157088 0.430469
O O16 0.888031 0.376679 0.750000
O O17 0.231374 0.918919 0.250000
O O18 0.171814 0.871600 0.399666
O O19 0.500000 0.345845 0.081929
#
# Coordination Sequence:
#
# PCOD8259174 Si02
#       7
#    16  16  16  16  16  16  16
#     4   9  19  36  59  88 117 148 198 257 301 342
#     4  11  24  41  62  89 120 153 196 251 308 364
#     4   9  18  33  55  82 116 159 200 239 283 341
#     4  10  20  35  55  86 123 157 197 245 296 355
#     4  10  20  39  66  90 115 153 201 252 300 348
#     4  11  23  39  58  85 121 160 202 247 300 362
#     4  11  22  36  59  89 122 162 201 246 301 356
#
# _framework density 20.178028999999999
#
# number of rings (size 3 to 8) (size 9 to 14) (size 15 to 20)
#    0.000    1.857    1.429    2.571    0.000    5.714 
#    0.000    2.857    0.000    0.000    0.000    2.000 
#    0.000    0.000    0.000    0.000    0.000    0.000 
#
# Total GULP energy -694297.152769 kJ/mol
# GULP energy per Si atom -12398.163442 kJ/mol
# Density = 2.013210 g / cm^3
# Si number density = 20.178029 Si / 1000 Ang^3
#
#
#
# Elastic Constant Matrix: (Units=GPa)
#
#
# Indices 1 2 3 4 5 6 
#
# 1 106.6158 39.7508 26.4641 0.0000 0.0000 0.0000
# 2 39.7508 125.8929 58.4354 0.0000 0.0000 0.0000
# 3 26.4641 58.4354 101.1998 0.0000 0.0000 0.0000
# 4 0.0000 0.0000 0.0000 31.7680 0.0000 0.0000
# 5 0.0000 0.0000 0.0000 0.0000 15.5784 0.0000
# 6 0.0000 0.0000 0.0000 0.0000 0.0000 -0.9750
#
#
#
# Elastic Compliance Matrix: (Units=1/GPa)
#
#
# Indices 1 2 3 4 5 6 
#
# 1 0.010730 -0.002849 -0.001161 0.000000 0.000000 0.000000
# 2 -0.002849 0.011608 -0.005958 0.000000 0.000000 0.000000
# 3 -0.001161 -0.005958 0.013625 0.000000 0.000000 0.000000
# 4 0.000000 0.000000 0.000000 0.031478 0.000000 0.000000
# 5 0.000000 0.000000 0.000000 0.000000 0.064192 0.000000
# 6 0.000000 0.000000 0.000000 0.000000 0.000000 -1.025614
#
#
# Mechanical properties :
#
#
# Convention : Reuss Voigt Hill
#
# Bulk Modulus (GPa) = 62.39138 64.77880 63.58509
# Shear Modulus (GPa) = -5.75571 23.21147 8.72788
#
# Velocity S-wave (km/s) = -1.69076 3.39534 2.08203
# Velocity P-wave (km/s) = 5.21306 6.89525 6.11230
#
# Compressibility (1/GPa) = 0.01602785
#
# Stress axis : x y z
#
# Youngs Moduli (GPa) = 93.19767 86.14480 73.39341
#
# Poissons Ratio (x) = 0.24545 0.08519
# Poissons Ratio (y) = 0.26554 0.43727
# Poissons Ratio (z) = 0.10817 0.51324
#
# Static dielectric constant tensor:
#      x y z
#    x 3.644560 0.000000 0.000000 
#    y 0.000000 3.725410 0.000000 
#    z 0.000000 0.000000 3.738000 
# 
# 
# High freq. dielectric constant tensor:
#      x y z
#    x 1.790580 0.000000 0.000000 
#    y 0.000000 1.781830 0.000000 
#    z 0.000000 0.000000 1.782090 
# 
# From -- ./inp_files/32318.got.cif
#   From: 2010.03.12/outbox.cif.g09.slc.cpg/sg63_17_cif.got.tgz:32318.got - 2010.04.10 19:34:48.
