data_PCOD8259282
_publ_section_title
;
Structure prediction by ZEFSAII (Michael W. Deem and Ramdas Pophale) SiO2 
 PCOD8259282
Probable space group: C M C M
;
_chemical_formula_sum "Si O2"
_cell_formula_units_Z 112
_cell_length_a 15.424082
_cell_length_b 14.502649
_cell_length_c 24.537922
_cell_angle_alpha 90.000000
_cell_angle_beta 90.000000
_cell_angle_gamma 90.000000
_cell_volume 5488.888935
_symmetry_space_group_name_H-M "C M C M"
_symmetry_group_IT_number 63
_symmetry_cell_setting 'orthorhombic'
loop_
_space_group_symop_operation_xyz
x,y,z
-x,-y,1/2+z
x,-y,-z
-x,y,1/2-z
-x,-y,-z
x,y,1/2-z
-x,y,z
x,-y,1/2+z
1/2+x,1/2+y,z
1/2-x,1/2-y,1/2+z
1/2+x,1/2-y,-z
1/2-x,1/2+y,1/2-z
1/2-x,1/2-y,-z
1/2+x,1/2+y,1/2-z
1/2-x,1/2+y,z
1/2+x,1/2-y,1/2+z
loop_
_atom_site_type_symbol
_atom_site_label
_atom_site_fract_x
_atom_site_fract_y
_atom_site_fract_z
Si Si1 0.599454 0.816921 0.085100
Si Si2 0.249050 0.143894 0.987552
Si Si3 0.399211 0.294397 0.189225
Si Si4 0.295941 0.886196 0.686823
Si Si5 0.900115 0.431495 0.188878
Si Si6 0.097808 0.081170 0.909693
Si Si7 0.666522 0.613350 0.406701
O O1 0.500000 0.837687 0.068999
O O2 0.661540 0.877046 0.044789
O O3 0.619930 0.848902 0.146936
O O4 0.616228 0.707863 0.080717
O O5 0.163408 0.120665 0.953637
O O6 0.250000 0.250000 0.000000
O O7 0.239506 0.092436 0.046059
O O8 0.369401 0.323926 0.250000
O O9 0.500000 0.271527 0.188190
O O10 0.352802 0.201529 0.169760
O O11 0.374929 0.377703 0.149022
O O12 0.270580 0.883390 0.750000
O O13 0.208619 0.881976 0.652438
O O14 0.346803 0.978742 0.671728
O O15 0.875194 0.397746 0.250000
O O16 0.000000 0.460806 0.186608
O O17 0.000000 0.111467 0.925481
O O18 0.099255 0.970649 0.906682
#
# Coordination Sequence:
#
# PCOD8259282 Si02
#       7
#    16  16  16  16  16  16  16
#     4  10  21  39  61  85 116 153 192 239 293 344
#     4  10  22  39  58  82 114 147 189 240 281 332
#     4   9  18  34  56  83 115 150 194 247 293 338
#     4  10  20  35  58  85 114 152 195 240 294 348
#     4   9  18  34  57  84 113 148 193 244 295 345
#     4  11  23  39  61  87 118 158 196 232 286 350
#     4  11  23  38  56  84 119 153 192 238 282 341
#
# _framework density 20.404858999999998
#
# number of rings (size 3 to 8) (size 9 to 14) (size 15 to 20)
#    0.000    2.000    0.000    3.857    0.000    6.286 
#    0.000    5.000    0.000    7.714    0.000    0.000 
#    0.000    0.000    0.000    0.000    0.000    0.000 
#
# Total GULP energy -694301.208930 kJ/mol
# GULP energy per Si atom -12398.235874 kJ/mol
# Density = 2.035842 g / cm^3
# Si number density = 20.404859 Si / 1000 Ang^3
#
#
#
# Elastic Constant Matrix: (Units=GPa)
#
#
# Indices 1 2 3 4 5 6 
#
# 1 89.0956 34.8230 51.8161 0.0000 0.0000 0.0000
# 2 34.8230 93.0667 41.8172 0.0000 0.0000 0.0000
# 3 51.8161 41.8172 101.0861 0.0000 0.0000 0.0000
# 4 0.0000 0.0000 0.0000 31.3770 0.0000 0.0000
# 5 0.0000 0.0000 0.0000 0.0000 29.4585 0.0000
# 6 0.0000 0.0000 0.0000 0.0000 0.0000 29.0655
#
#
#
# Elastic Compliance Matrix: (Units=1/GPa)
#
#
# Indices 1 2 3 4 5 6 
#
# 1 0.016620 -0.002937 -0.007304 0.000000 0.000000 0.000000
# 2 -0.002937 0.013717 -0.004169 0.000000 0.000000 0.000000
# 3 -0.007304 -0.004169 0.015361 0.000000 0.000000 0.000000
# 4 0.000000 0.000000 0.000000 0.031870 0.000000 0.000000
# 5 0.000000 0.000000 0.000000 0.000000 0.033946 0.000000
# 6 0.000000 0.000000 0.000000 0.000000 0.000000 0.034405
#
#
# Mechanical properties :
#
#
# Convention : Reuss Voigt Hill
#
# Bulk Modulus (GPa) = 59.24892 60.01790 59.63341
# Shear Modulus (GPa) = 27.72139 28.29968 28.01053
#
# Velocity S-wave (km/s) = 3.68987 3.72816 3.70907
# Velocity P-wave (km/s) = 6.87410 6.92890 6.90155
#
# Compressibility (1/GPa) = 0.01687795
#
# Stress axis : x y z
#
# Youngs Moduli (GPa) = 60.16942 72.90175 65.09804
#
# Poissons Ratio (x) = 0.21408 0.47550
# Poissons Ratio (y) = 0.17669 0.27141
# Poissons Ratio (z) = 0.43950 0.30394
#
# Static dielectric constant tensor:
#      x y z
#    x 3.691470 0.000000 0.000000 
#    y 0.000000 3.666580 0.000000 
#    z 0.000000 0.000000 4.055220 
# 
# 
# High freq. dielectric constant tensor:
#      x y z
#    x 1.791260 0.000000 0.000000 
#    y 0.000000 1.796180 0.000000 
#    z 0.000000 0.000000 1.807180 
# 
# From -- ./inp_files/62965.got.cif
#   From: 2010.03.12/outbox.cif.g09.slc.cpg/sg63_32_cif.got.tgz:62965.got - 2010.04.10 19:34:48.
