data_PCOD8259700
_publ_section_title
;
Structure prediction by ZEFSAII (Michael W. Deem and Ramdas Pophale) SiO2 
 PCOD8259700
Probable space group: C M C M
;
_chemical_formula_sum "Si O2"
_cell_formula_units_Z 112
_cell_length_a 22.396569
_cell_length_b 15.264869
_cell_length_c 15.055725
_cell_angle_alpha 90.000000
_cell_angle_beta 90.000000
_cell_angle_gamma 90.000000
_cell_volume 5147.261679
_symmetry_space_group_name_H-M "C M C M"
_symmetry_group_IT_number 63
_symmetry_cell_setting 'orthorhombic'
loop_
_space_group_symop_operation_xyz
x,y,z
-x,-y,1/2+z
x,-y,-z
-x,y,1/2-z
-x,-y,-z
x,y,1/2-z
-x,y,z
x,-y,1/2+z
1/2+x,1/2+y,z
1/2-x,1/2-y,1/2+z
1/2+x,1/2-y,-z
1/2-x,1/2+y,1/2-z
1/2-x,1/2-y,-z
1/2+x,1/2+y,1/2-z
1/2-x,1/2+y,z
1/2+x,1/2-y,1/2+z
loop_
_atom_site_type_symbol
_atom_site_label
_atom_site_fract_x
_atom_site_fract_y
_atom_site_fract_z
Si Si1 0.138362 0.155137 0.917529
Si Si2 0.165558 0.664983 0.150095
Si Si3 0.933655 0.470003 0.855008
Si Si4 0.362448 0.138983 0.648362
Si Si5 0.763906 0.397779 0.009536
Si Si6 0.434328 0.497862 0.894050
Si Si7 0.570263 0.694288 0.410745
O O1 0.152050 0.231730 0.847982
O O2 0.195573 0.122629 0.971728
O O3 0.111636 0.072770 0.861747
O O4 0.090938 0.194241 0.987123
O O5 0.182992 0.635489 0.250000
O O6 0.108173 0.610616 0.114664
O O7 0.220465 0.647796 0.084051
O O8 0.939332 0.471091 0.750000
O O9 0.905041 0.561357 0.887947
O O10 0.000000 0.459323 0.897056
O O11 0.343004 0.121158 0.750000
O O12 0.303371 0.142755 0.588596
O O13 0.396930 0.230636 0.644384
O O14 0.775485 0.500000 0.000000
O O15 0.500000 0.519039 0.855385
O O16 0.414618 0.399993 0.864808
O O17 0.436015 0.500000 0.000000
O O18 0.500000 0.711988 0.408527
#
# Coordination Sequence:
#
# PCOD8259700 Si02
#       7
#    16  16  16  16  16  16  16
#     4  11  22  40  63  92 126 166 218 265 318 381
#     4  11  24  42  62  90 129 167 212 265 317 377
#     4   9  19  38  62  89 126 168 208 257 318 381
#     4  11  23  40  63  97 134 169 211 267 323 382
#     4  12  24  43  66  93 128 175 218 263 318 381
#     4   8  16  34  61  92 124 161 206 261 320 375
#     4  10  20  37  64  96 127 164 210 266 330 390
#
# _framework density 21.759143000000002
#
# number of rings (size 3 to 8) (size 9 to 14) (size 15 to 20)
#    0.000    1.714    2.857    3.429    0.000    2.571 
#    0.000    1.429    0.000    2.571    0.000    0.000 
#    0.000    1.143    0.000    0.000    0.000    0.000 
#
# Total GULP energy -694401.871737 kJ/mol
# GULP energy per Si atom -12400.033424 kJ/mol
# Density = 2.170962 g / cm^3
# Si number density = 21.759143 Si / 1000 Ang^3
#
#
#
# Elastic Constant Matrix: (Units=GPa)
#
#
# Indices 1 2 3 4 5 6 
#
# 1 107.6596 60.8700 27.5035 0.0000 0.0000 0.0000
# 2 60.8700 163.7235 23.0369 0.0000 0.0000 0.0000
# 3 27.5035 23.0369 70.0427 0.0000 0.0000 0.0000
# 4 0.0000 0.0000 0.0000 22.0496 0.0000 0.0000
# 5 0.0000 0.0000 0.0000 0.0000 -13.5000 0.0000
# 6 0.0000 0.0000 0.0000 0.0000 0.0000 31.4358
#
#
#
# Elastic Compliance Matrix: (Units=1/GPa)
#
#
# Indices 1 2 3 4 5 6 
#
# 1 0.012553 -0.004166 -0.003559 0.000000 0.000000 0.000000
# 2 -0.004166 0.007787 -0.000925 0.000000 0.000000 0.000000
# 3 -0.003559 -0.000925 0.015979 0.000000 0.000000 0.000000
# 4 0.000000 0.000000 0.000000 0.045352 0.000000 0.000000
# 5 0.000000 0.000000 0.000000 0.000000 -0.074074 0.000000
# 6 0.000000 0.000000 0.000000 0.000000 0.000000 0.031811
#
#
# Mechanical properties :
#
#
# Convention : Reuss Voigt Hill
#
# Bulk Modulus (GPa) = 52.58131 62.69407 57.63769
# Shear Modulus (GPa) = 79.30344 23.33143 51.31743
#
# Velocity S-wave (km/s) = 6.04360 3.27809 4.86164
# Velocity P-wave (km/s) = 8.53919 6.57291 7.61974
#
# Compressibility (1/GPa) = 0.01901816
#
# Stress axis : x y z
#
# Youngs Moduli (GPa) = 79.65976 128.41866 62.58302
#
# Poissons Ratio (x) = 0.53504 0.22273
# Poissons Ratio (y) = 0.33189 0.05790
# Poissons Ratio (z) = 0.28351 0.11880
#
# Static dielectric constant tensor:
#      x y z
#    x 3.997900 0.000000 0.000000 
#    y 0.000000 4.318440 0.000000 
#    z 0.000000 0.000000 3.469170 
# 
# 
# High freq. dielectric constant tensor:
#      x y z
#    x 1.852540 0.000000 0.000000 
#    y 0.000000 1.873470 0.000000 
#    z 0.000000 0.000000 1.824490 
# 
# From -- ./inp_files/36852.got.cif
#   From: 2010.03.12/outbox.cif.g09.slc.cpg/sg63_19_cif.got.tgz:36852.got - 2010.04.10 19:34:48.
