data_PCOD8259300
_publ_section_title
;
Structure prediction by ZEFSAII (Michael W. Deem and Ramdas Pophale) SiO2 
 PCOD8259300
Probable space group: C M C M
;
_chemical_formula_sum "Si O2"
_cell_formula_units_Z 112
_cell_length_a 13.867454
_cell_length_b 13.439813
_cell_length_c 27.631408
_cell_angle_alpha 90.000000
_cell_angle_beta 90.000000
_cell_angle_gamma 90.000000
_cell_volume 5149.830981
_symmetry_space_group_name_H-M "C M C M"
_symmetry_group_IT_number 63
_symmetry_cell_setting 'orthorhombic'
loop_
_space_group_symop_operation_xyz
x,y,z
-x,-y,1/2+z
x,-y,-z
-x,y,1/2-z
-x,-y,-z
x,y,1/2-z
-x,y,z
x,-y,1/2+z
1/2+x,1/2+y,z
1/2-x,1/2-y,1/2+z
1/2+x,1/2-y,-z
1/2-x,1/2+y,1/2-z
1/2-x,1/2-y,-z
1/2+x,1/2+y,1/2-z
1/2-x,1/2+y,z
1/2+x,1/2-y,1/2+z
loop_
_atom_site_type_symbol
_atom_site_label
_atom_site_fract_x
_atom_site_fract_y
_atom_site_fract_z
Si Si1 0.104920 0.576449 0.034881
Si Si2 0.284291 0.647344 0.193984
Si Si3 0.838917 0.267568 0.033673
Si Si4 0.891109 0.952649 0.547322
Si Si5 0.791733 0.655476 0.862392
Si Si6 0.386267 0.948495 0.641482
Si Si7 0.114360 0.968284 0.351617
O O1 0.152443 0.587787 0.087861
O O2 0.000000 0.529908 0.046689
O O3 0.163785 0.500000 0.000000
O O4 0.089894 0.675276 0.003011
O O5 0.282641 0.674276 0.250000
O O6 0.322448 0.744905 0.165820
O O7 0.175670 0.618419 0.178058
O O8 0.358755 0.555808 0.185853
O O9 0.888323 0.165796 0.049056
O O10 0.805237 0.328860 0.080380
O O11 0.750000 0.250000 0.000000
O O12 0.000000 0.990717 0.547478
O O13 0.838865 0.000000 0.500000
O O14 0.846118 0.993772 0.596505
O O15 0.863064 0.564507 0.848818
O O16 0.681301 0.629689 0.845178
O O17 0.500000 0.927935 0.649598
O O18 0.000000 0.942913 0.347912
#
# Coordination Sequence:
#
# PCOD8259300 Si02
#       7
#    16  16  16  16  16  16  16
#     4  10  20  35  58  91 129 169 206 248 304 384
#     4  11  25  46  67  94 128 168 219 277 335 390
#     4  12  22  32  57  90 128 172 213 251 314 382
#     4  10  21  37  57  87 128 171 214 259 311 381
#     4  11  23  40  65  98 129 171 218 272 324 384
#     4  10  23  43  68  99 135 171 213 265 325 390
#     4  10  23  44  68  93 128 170 216 270 327 386
#
# _framework density 21.748287000000001
#
# number of rings (size 3 to 8) (size 9 to 14) (size 15 to 20)
#    0.000    1.429    2.857    2.143    2.000    5.143 
#    0.000    3.571    0.000    0.000    0.000    0.000 
#    0.000    0.000    0.000    0.000    0.000    0.000 
#
# Total GULP energy -693881.630354 kJ/mol
# GULP energy per Si atom -12390.743399 kJ/mol
# Density = 2.169879 g / cm^3
# Si number density = 21.748287 Si / 1000 Ang^3
#
#
#
# Elastic Constant Matrix: (Units=GPa)
#
#
# Indices 1 2 3 4 5 6 
#
# 1 83.8363 -0.8748 15.1312 0.0000 0.0000 0.0000
# 2 -0.8748 81.3298 13.9293 0.0000 0.0000 0.0000
# 3 15.1312 13.9293 105.9784 0.0000 0.0000 0.0000
# 4 0.0000 0.0000 0.0000 27.6646 0.0000 0.0000
# 5 0.0000 0.0000 0.0000 0.0000 18.0048 0.0000
# 6 0.0000 0.0000 0.0000 0.0000 0.0000 -7.2753
#
#
#
# Elastic Compliance Matrix: (Units=1/GPa)
#
#
# Indices 1 2 3 4 5 6 
#
# 1 0.012259 0.000442 -0.001808 0.000000 0.000000 0.000000
# 2 0.000442 0.012595 -0.001718 0.000000 0.000000 0.000000
# 3 -0.001808 -0.001718 0.009920 0.000000 0.000000 0.000000
# 4 0.000000 0.000000 0.000000 0.036147 0.000000 0.000000
# 5 0.000000 0.000000 0.000000 0.000000 0.055541 0.000000
# 6 0.000000 0.000000 0.000000 0.000000 0.000000 -0.137451
#
#
# Mechanical properties :
#
#
# Convention : Reuss Voigt Hill
#
# Bulk Modulus (GPa) = 34.96110 36.39066 35.67588
# Shear Modulus (GPa) = 1060.39226 23.87607 542.13417
#
# Velocity S-wave (km/s) = 22.10506 3.31696 15.80563
# Velocity P-wave (km/s) = 25.83838 5.60701 18.69572
#
# Compressibility (1/GPa) = 0.02860322
#
# Stress axis : x y z
#
# Youngs Moduli (GPa) = 81.57282 79.39859 100.80709
#
# Poissons Ratio (x) = -0.03506 0.18229
# Poissons Ratio (y) = -0.03602 0.17323
# Poissons Ratio (z) = 0.14751 0.13644
#
# Static dielectric constant tensor:
#      x y z
#    x 3.673200 0.000000 0.000000 
#    y 0.000000 3.579030 0.000000 
#    z 0.000000 0.000000 3.878710 
# 
# 
# High freq. dielectric constant tensor:
#      x y z
#    x 1.854960 0.000000 0.000000 
#    y 0.000000 1.853920 0.000000 
#    z 0.000000 0.000000 1.842080 
# 
# From -- ./inp_files/63006.got.cif
#   From: 2010.03.12/outbox.cif.g09.slc.cpg/sg63_32_cif.got.tgz:63006.got - 2010.04.10 19:34:48.
