data_PCOD8259000
_publ_section_title
;
Structure prediction by ZEFSAII (Michael W. Deem and Ramdas Pophale) SiO2 
 PCOD8259000
Probable space group: C M C M
;
_chemical_formula_sum "Si O2"
_cell_formula_units_Z 96
_cell_length_a 22.480575
_cell_length_b 24.455788
_cell_length_c 8.838166
_cell_angle_alpha 90.000000
_cell_angle_beta 90.000000
_cell_angle_gamma 90.000000
_cell_volume 4859.048462
_symmetry_space_group_name_H-M "C M C M"
_symmetry_group_IT_number 63
_symmetry_cell_setting 'orthorhombic'
loop_
_space_group_symop_operation_xyz
x,y,z
-x,-y,1/2+z
x,-y,-z
-x,y,1/2-z
-x,-y,-z
x,y,1/2-z
-x,y,z
x,-y,1/2+z
1/2+x,1/2+y,z
1/2-x,1/2-y,1/2+z
1/2+x,1/2-y,-z
1/2-x,1/2+y,1/2-z
1/2-x,1/2-y,-z
1/2+x,1/2+y,1/2-z
1/2-x,1/2+y,z
1/2+x,1/2-y,1/2+z
loop_
_atom_site_type_symbol
_atom_site_label
_atom_site_fract_x
_atom_site_fract_y
_atom_site_fract_z
Si Si1 0.218688 0.299270 0.077981
Si Si2 0.145181 0.445886 0.573077
Si Si3 0.266540 0.585023 0.920547
Si Si4 0.000000 0.259823 0.072535
Si Si5 0.500000 0.639611 0.571184
Si Si6 0.602087 0.443196 0.429530
Si Si7 0.399338 0.830692 0.573793
O O1 0.197453 0.286539 0.250000
O O2 0.264337 0.349479 0.078567
O O3 0.250000 0.250000 0.000000
O O4 0.165372 0.309618 0.964119
O O5 0.116481 0.500000 0.500000
O O6 0.148307 0.453231 0.750000
O O7 0.213009 0.439527 0.517559
O O8 0.101705 0.395282 0.530288
O O9 0.259274 0.562647 0.750000
O O10 0.330748 0.568286 0.988123
O O11 0.000000 0.251016 0.250000
O O12 0.000000 0.199912 0.999399
O O13 0.056017 0.295996 0.025942
O O14 0.500000 0.647572 0.750000
O O15 0.558504 0.605940 0.518106
O O16 0.579124 0.500000 0.500000
O O17 0.600170 0.448193 0.250000
O O18 0.414241 0.822017 0.750000
#
# Coordination Sequence:
#
# PCOD8259000 Si02
#       7
#    16  16  16   8   8  16  16
#     4  10  20  34  55  85 120 156 197 246 296 351
#     4  10  20  35  59  89 119 153 192 233 288 350
#     4   9  19  34  53  81 117 154 194 237 290 350
#     4  12  26  43  64  91 117 148 196 250 301 352
#     4  10  23  41  61  81 111 156 199 240 296 356
#     4  10  21  37  57  83 113 153 197 242 292 345
#     4  10  22  41  62  85 116 158 198 239 295 354
#
# _framework density 19.756955999999999
#
# number of rings (size 3 to 8) (size 9 to 14) (size 15 to 20)
#    0.000    2.000    0.000    3.000    2.333    5.333 
#    0.000    0.417    0.000    0.000    0.000    0.000 
#    0.000    0.000    0.000    0.000    0.000    0.000 
#
# Total GULP energy -595073.146159 kJ/mol
# GULP energy per Si atom -12397.357212 kJ/mol
# Density = 1.971199 g / cm^3
# Si number density = 19.756956 Si / 1000 Ang^3
#
#
#
# Elastic Constant Matrix: (Units=GPa)
#
#
# Indices 1 2 3 4 5 6 
#
# 1 77.5901 54.4558 25.6624 0.0000 0.0000 0.0000
# 2 54.4558 162.6007 56.2261 0.0000 0.0000 0.0000
# 3 25.6624 56.2261 60.1359 0.0000 0.0000 0.0000
# 4 0.0000 0.0000 0.0000 37.6004 0.0000 0.0000
# 5 0.0000 0.0000 0.0000 0.0000 26.9188 0.0000
# 6 0.0000 0.0000 0.0000 0.0000 0.0000 3.0973
#
#
#
# Elastic Compliance Matrix: (Units=1/GPa)
#
#
# Indices 1 2 3 4 5 6 
#
# 1 0.017181 -0.004756 -0.002884 0.000000 0.000000 0.000000
# 2 -0.004756 0.010405 -0.007699 0.000000 0.000000 0.000000
# 3 -0.002884 -0.007699 0.025058 0.000000 0.000000 0.000000
# 4 0.000000 0.000000 0.000000 0.026595 0.000000 0.000000
# 5 0.000000 0.000000 0.000000 0.000000 0.037149 0.000000
# 6 0.000000 0.000000 0.000000 0.000000 0.000000 0.322862
#
#
# Mechanical properties :
#
#
# Convention : Reuss Voigt Hill
#
# Bulk Modulus (GPa) = 45.52821 63.66835 54.59828
# Shear Modulus (GPa) = 10.47666 24.45547 17.46606
#
# Velocity S-wave (km/s) = 2.30527 3.52208 2.97652
# Velocity P-wave (km/s) = 5.49362 6.98826 6.28553
#
# Compressibility (1/GPa) = 0.02196441
#
# Stress axis : x y z
#
# Youngs Moduli (GPa) = 58.20551 96.10553 39.90699
#
# Poissons Ratio (x) = 0.45712 0.11511
# Poissons Ratio (y) = 0.27685 0.30724
# Poissons Ratio (z) = 0.16789 0.73991
#
# Static dielectric constant tensor:
#      x y z
#    x 3.566780 0.000000 0.000000 
#    y 0.000000 3.635530 0.000000 
#    z 0.000000 0.000000 3.126510 
# 
# 
# High freq. dielectric constant tensor:
#      x y z
#    x 1.758740 0.000000 0.000000 
#    y 0.000000 1.786680 0.000000 
#    z 0.000000 0.000000 1.770440 
# 
# From -- ./inp_files/10520.got.cif
#   From: 2010.03.12/outbox.cif.g09.slc.cpg/sg63_6_cif.got.tgz:10520.got - 2010.04.10 19:34:48.
