data_PCOD8259275
_publ_section_title
;
Structure prediction by ZEFSAII (Michael W. Deem and Ramdas Pophale) SiO2 
 PCOD8259275
Probable space group: C M C M
;
_chemical_formula_sum "Si O2"
_cell_formula_units_Z 96
_cell_length_a 8.878113
_cell_length_b 19.113769
_cell_length_c 30.351538
_cell_angle_alpha 90.000000
_cell_angle_beta 90.000000
_cell_angle_gamma 90.000000
_cell_volume 5150.479991
_symmetry_space_group_name_H-M "C M C M"
_symmetry_group_IT_number 63
_symmetry_cell_setting 'orthorhombic'
loop_
_space_group_symop_operation_xyz
x,y,z
-x,-y,1/2+z
x,-y,-z
-x,y,1/2-z
-x,-y,-z
x,y,1/2-z
-x,y,z
x,-y,1/2+z
1/2+x,1/2+y,z
1/2-x,1/2-y,1/2+z
1/2+x,1/2-y,-z
1/2-x,1/2+y,1/2-z
1/2-x,1/2-y,-z
1/2+x,1/2+y,1/2-z
1/2-x,1/2+y,z
1/2+x,1/2-y,1/2+z
loop_
_atom_site_type_symbol
_atom_site_label
_atom_site_fract_x
_atom_site_fract_y
_atom_site_fract_z
Si Si1 0.326972 0.284361 0.141514
Si Si2 0.171339 0.890422 0.436550
Si Si3 0.677022 0.177501 0.014019
Si Si4 0.825097 0.153375 0.393750
Si Si5 0.674084 0.501257 0.865046
Si Si6 0.675084 0.101775 0.698884
O O1 0.500000 0.266357 0.151321
O O2 0.309185 0.323630 0.095079
O O3 0.231805 0.213221 0.139295
O O4 0.264773 0.331327 0.181064
O O5 0.278708 0.881966 0.478661
O O6 0.000000 0.896181 0.453422
O O7 0.220468 0.960420 0.410645
O O8 0.500000 0.187793 0.015414
O O9 0.731973 0.153075 0.061454
O O10 0.750000 0.250000 0.000000
O O11 0.796378 0.080700 0.368822
O O12 0.000000 0.164497 0.404849
O O13 0.500000 0.519451 0.855252
O O14 0.772485 0.530695 0.824955
O O15 0.711246 0.092939 0.750000
O O16 0.500000 0.113935 0.689601
#
# Coordination Sequence:
#
# PCOD8259275 Si02
#       6
#    16  16  16  16  16  16
#     4  10  20  35  58  84 112 146 184 229 279 332
#     4   9  18  35  55  77 108 146 190 234 276 329
#     4  12  23  34  52  79 111 151 196 241 283 328
#     4  11  22  37  57  82 114 151 189 235 285 333
#     4   9  21  39  59  83 113 150 188 229 285 341
#     4  10  21  38  62  89 114 143 182 228 277 335
#
# _framework density 18.639040000000001
#
# number of rings (size 3 to 8) (size 9 to 14) (size 15 to 20)
#    0.000    1.833    1.667    4.000    0.000    6.000 
#    0.000    4.167    0.000    1.000    0.000    0.000 
#    0.000    0.000    0.000    0.000    0.000    0.000 
#
# Total GULP energy -595415.722572 kJ/mol
# GULP energy per Si atom -12404.494220 kJ/mol
# Density = 1.859662 g / cm^3
# Si number density = 18.639040 Si / 1000 Ang^3
#
#
#
# Elastic Constant Matrix: (Units=GPa)
#
#
# Indices 1 2 3 4 5 6 
#
# 1 122.1510 46.5181 54.8718 0.0000 0.0000 0.0000
# 2 46.5181 105.6796 35.0693 0.0000 0.0000 0.0000
# 3 54.8718 35.0693 95.6692 0.0000 0.0000 0.0000
# 4 0.0000 0.0000 0.0000 16.4650 0.0000 0.0000
# 5 0.0000 0.0000 0.0000 0.0000 31.9964 0.0000
# 6 0.0000 0.0000 0.0000 0.0000 0.0000 30.9479
#
#
#
# Elastic Compliance Matrix: (Units=1/GPa)
#
#
# Indices 1 2 3 4 5 6 
#
# 1 0.012024 -0.003420 -0.005643 0.000000 0.000000 0.000000
# 2 -0.003420 0.011746 -0.002344 0.000000 0.000000 0.000000
# 3 -0.005643 -0.002344 0.014548 0.000000 0.000000 0.000000
# 4 0.000000 0.000000 0.000000 0.060735 0.000000 0.000000
# 5 0.000000 0.000000 0.000000 0.000000 0.031253 0.000000
# 6 0.000000 0.000000 0.000000 0.000000 0.000000 0.032312
#
#
# Mechanical properties :
#
#
# Convention : Reuss Voigt Hill
#
# Bulk Modulus (GPa) = 64.49781 66.26869 65.38325
# Shear Modulus (GPa) = 26.23288 28.35124 27.29206
#
# Velocity S-wave (km/s) = 3.75562 3.90432 3.83069
# Velocity P-wave (km/s) = 7.31334 7.48036 7.39732
#
# Compressibility (1/GPa) = 0.01550440
#
# Stress axis : x y z
#
# Youngs Moduli (GPa) = 83.16833 85.13609 68.73659
#
# Poissons Ratio (x) = 0.29118 0.38785
# Poissons Ratio (y) = 0.28445 0.16112
# Poissons Ratio (z) = 0.46929 0.19956
#
# Static dielectric constant tensor:
#      x y z
#    x 3.548410 0.000000 0.000000 
#    y 0.000000 3.452440 0.000000 
#    z 0.000000 0.000000 3.293150 
# 
# 
# High freq. dielectric constant tensor:
#      x y z
#    x 1.732500 0.000000 0.000000 
#    y 0.000000 1.722030 0.000000 
#    z 0.000000 0.000000 1.708640 
# 
# From -- ./inp_files/66975.got.cif
#   From: 2010.03.12/outbox.cif.g09.slc.cpg/sg63_34_cif.got.tgz:66975.got - 2010.04.10 19:34:48.
