data_PCOD8259834
_publ_section_title
;
Structure prediction by ZEFSAII (Michael W. Deem and Ramdas Pophale) SiO2 
 PCOD8259834
Probable space group: C M C M
;
_chemical_formula_sum "Si O2"
_cell_formula_units_Z 64
_cell_length_a 12.126599
_cell_length_b 15.277987
_cell_length_c 16.443019
_cell_angle_alpha 90.000000
_cell_angle_beta 90.000000
_cell_angle_gamma 90.000000
_cell_volume 3046.398490
_symmetry_space_group_name_H-M "C M C M"
_symmetry_group_IT_number 63
_symmetry_cell_setting 'orthorhombic'
loop_
_space_group_symop_operation_xyz
x,y,z
-x,-y,1/2+z
x,-y,-z
-x,y,1/2-z
-x,-y,-z
x,y,1/2-z
-x,y,z
x,-y,1/2+z
1/2+x,1/2+y,z
1/2-x,1/2-y,1/2+z
1/2+x,1/2-y,-z
1/2-x,1/2+y,1/2-z
1/2-x,1/2-y,-z
1/2+x,1/2+y,1/2-z
1/2-x,1/2+y,z
1/2+x,1/2-y,1/2+z
loop_
_atom_site_type_symbol
_atom_site_label
_atom_site_fract_x
_atom_site_fract_y
_atom_site_fract_z
Si Si1 0.872762 0.481245 0.094577
Si Si2 0.234278 0.821264 0.153945
Si Si3 0.290561 0.623798 0.343564
Si Si4 0.000000 0.953932 0.913294
Si Si5 0.000000 0.130266 0.658877
O O1 0.821139 0.386134 0.112125
O O2 0.810813 0.557506 0.143875
O O3 0.000000 0.480729 0.122649
O O4 0.861081 0.500000 0.000000
O O5 0.235807 0.840883 0.250000
O O6 0.259229 0.721814 0.132546
O O7 0.112192 0.837103 0.115978
O O8 0.328414 0.618522 0.250000
O O9 0.390866 0.603304 0.403729
O O10 0.000000 0.025414 0.841769
O O11 0.000000 0.000000 0.000000
O O12 0.000000 0.166786 0.750000
#
# Coordination Sequence:
#
# PCOD8259834 Si02
#       5
#    16  16  16   8   8
#     4  11  25  44  62  93 134 174 214 263 326 387
#     4  10  23  41  66  96 129 170 219 271 322 382
#     4  11  24  42  67  96 127 170 219 270 322 385
#     4  12  24  42  64  97 127 168 215 266 331 385
#     4  10  20  40  64  91 127 165 212 270 318 375
#
# _framework density 21.008413000000001
#
# number of rings (size 3 to 8) (size 9 to 14) (size 15 to 20)
#    0.000    1.250    2.500    2.625    3.500    3.000 
#    0.000    0.000    0.000    0.000    0.000    0.000 
#    0.000    0.000    0.000    0.000    0.000    0.000 
#
# Total GULP energy -396840.749999 kJ/mol
# GULP energy per Si atom -12401.273437 kJ/mol
# Density = 2.096060 g / cm^3
# Si number density = 21.008413 Si / 1000 Ang^3
#
#
#
# Elastic Constant Matrix: (Units=GPa)
#
#
# Indices 1 2 3 4 5 6 
#
# 1 189.1320 78.4011 29.3026 0.0000 0.0000 0.0000
# 2 78.4011 168.9152 26.0988 0.0000 0.0000 0.0000
# 3 29.3026 26.0988 50.3925 0.0000 0.0000 0.0000
# 4 0.0000 0.0000 0.0000 30.9185 0.0000 0.0000
# 5 0.0000 0.0000 0.0000 0.0000 25.5213 0.0000
# 6 0.0000 0.0000 0.0000 0.0000 0.0000 32.0960
#
#
#
# Elastic Compliance Matrix: (Units=1/GPa)
#
#
# Indices 1 2 3 4 5 6 
#
# 1 0.006832 -0.002780 -0.002533 0.000000 0.000000 0.000000
# 2 -0.002780 0.007566 -0.002302 0.000000 0.000000 0.000000
# 3 -0.002533 -0.002302 0.022510 0.000000 0.000000 0.000000
# 4 0.000000 0.000000 0.000000 0.032343 0.000000 0.000000
# 5 0.000000 0.000000 0.000000 0.000000 0.039183 0.000000
# 6 0.000000 0.000000 0.000000 0.000000 0.000000 0.031157
#
#
# Mechanical properties :
#
#
# Convention : Reuss Voigt Hill
#
# Bulk Modulus (GPa) = 46.13049 75.11606 60.62327
# Shear Modulus (GPa) = 30.85546 36.01632 33.43589
#
# Velocity S-wave (km/s) = 3.83654 4.14499 3.99375
# Velocity P-wave (km/s) = 6.45222 7.66426 7.08421
#
# Compressibility (1/GPa) = 0.02167764
#
# Stress axis : x y z
#
# Youngs Moduli (GPa) = 146.36936 132.17029 44.42568
#
# Poissons Ratio (x) = 0.36739 0.11254
# Poissons Ratio (y) = 0.40686 0.10228
# Poissons Ratio (z) = 0.37077 0.30428
#
# Static dielectric constant tensor:
#      x y z
#    x 4.193370 0.000000 0.000000 
#    y 0.000000 3.836970 0.000000 
#    z 0.000000 0.000000 3.655120 
# 
# 
# High freq. dielectric constant tensor:
#      x y z
#    x 1.839160 0.000000 0.000000 
#    y 0.000000 1.830730 0.000000 
#    z 0.000000 0.000000 1.815300 
# 
# From -- ./inp_files/41521.got.cif
#   From: 2010.03.12/outbox.cif.g09.slc.cpg/sg63_21_cif.got.tgz:41521.got - 2010.04.10 19:34:48.
