data_PCOD8259239
_publ_section_title
;
Structure prediction by ZEFSAII (Michael W. Deem and Ramdas Pophale) SiO2 
 PCOD8259239
Probable space group: C M C M
;
_chemical_formula_sum "Si O2"
_cell_formula_units_Z 80
_cell_length_a 9.521205
_cell_length_b 15.432525
_cell_length_c 28.759082
_cell_angle_alpha 90.000000
_cell_angle_beta 90.000000
_cell_angle_gamma 90.000000
_cell_volume 4225.751208
_symmetry_space_group_name_H-M "C M C M"
_symmetry_group_IT_number 63
_symmetry_cell_setting 'orthorhombic'
loop_
_space_group_symop_operation_xyz
x,y,z
-x,-y,1/2+z
x,-y,-z
-x,y,1/2-z
-x,-y,-z
x,y,1/2-z
-x,y,z
x,-y,1/2+z
1/2+x,1/2+y,z
1/2-x,1/2-y,1/2+z
1/2+x,1/2-y,-z
1/2-x,1/2+y,1/2-z
1/2-x,1/2-y,-z
1/2+x,1/2+y,1/2-z
1/2-x,1/2+y,z
1/2+x,1/2-y,1/2+z
loop_
_atom_site_type_symbol
_atom_site_label
_atom_site_fract_x
_atom_site_fract_y
_atom_site_fract_z
Si Si1 0.164615 0.516582 0.553168
Si Si2 0.662847 0.337372 0.397941
Si Si3 0.838048 0.353838 0.885769
Si Si4 0.337503 0.596712 0.197655
Si Si5 0.333918 0.600320 0.800038
O O1 0.203104 0.500000 0.500000
O O2 0.246763 0.601972 0.568796
O O3 0.215324 0.432482 0.582025
O O4 0.000000 0.533676 0.559962
O O5 0.500000 0.365789 0.401612
O O6 0.683219 0.237258 0.413009
O O7 0.718006 0.345308 0.344462
O O8 0.752342 0.346907 0.838022
O O9 0.000000 0.366384 0.872457
O O10 0.311770 0.630972 0.250000
O O11 0.500000 0.604782 0.183942
O O12 0.284217 0.498256 0.193035
O O13 0.273614 0.635147 0.750000
O O14 0.500000 0.602489 0.796854
#
# Coordination Sequence:
#
# PCOD8259239 Si02
#       5
#    16  16  16  16  16
#     4  10  22  40  57  75 107 145 176 219 282 335
#     4  10  20  35  57  83 107 136 180 226 264 313
#     4  10  21  35  54  82 111 138 177 226 270 315
#     4   9  17  31  53  79 108 144 181 213 254 315
#     4   8  14  27  49  75 103 136 170 205 251 307
#
# _framework density 18.931546000000001
#
# number of rings (size 3 to 8) (size 9 to 14) (size 15 to 20)
#    0.000    2.600    2.000    1.200    0.000    3.200 
#    0.000    2.000    0.000    0.600    0.000    0.000 
#    0.000    0.000    0.000    0.000    0.000    0.000 
#
# Total GULP energy -495822.488800 kJ/mol
# GULP energy per Si atom -12395.562220 kJ/mol
# Density = 1.888846 g / cm^3
# Si number density = 18.931546 Si / 1000 Ang^3
#
#
#
# Elastic Constant Matrix: (Units=GPa)
#
#
# Indices 1 2 3 4 5 6 
#
# 1 49.7706 38.3270 44.7801 0.0000 0.0000 0.0000
# 2 38.3270 91.7242 43.0227 0.0000 0.0000 0.0000
# 3 44.7801 43.0227 107.0167 0.0000 0.0000 0.0000
# 4 0.0000 0.0000 0.0000 14.3891 0.0000 0.0000
# 5 0.0000 0.0000 0.0000 0.0000 29.2340 0.0000
# 6 0.0000 0.0000 0.0000 0.0000 0.0000 24.0299
#
#
#
# Elastic Compliance Matrix: (Units=1/GPa)
#
#
# Indices 1 2 3 4 5 6 
#
# 1 0.039242 -0.010716 -0.012113 0.000000 0.000000 0.000000
# 2 -0.010716 0.016362 -0.002094 0.000000 0.000000 0.000000
# 3 -0.012113 -0.002094 0.015254 0.000000 0.000000 0.000000
# 4 0.000000 0.000000 0.000000 0.069497 0.000000 0.000000
# 5 0.000000 0.000000 0.000000 0.000000 0.034207 0.000000
# 6 0.000000 0.000000 0.000000 0.000000 0.000000 0.041615
#
#
# Mechanical properties :
#
#
# Convention : Reuss Voigt Hill
#
# Bulk Modulus (GPa) = 47.58731 55.64124 51.61428
# Shear Modulus (GPa) = 18.31320 21.68938 20.00129
#
# Velocity S-wave (km/s) = 3.11358 3.38845 3.25392
# Velocity P-wave (km/s) = 6.17389 6.69054 6.43740
#
# Compressibility (1/GPa) = 0.02101401
#
# Stress axis : x y z
#
# Youngs Moduli (GPa) = 25.48266 61.11697 65.55464
#
# Poissons Ratio (x) = 0.65494 0.79403
# Poissons Ratio (y) = 0.27308 0.13726
# Poissons Ratio (z) = 0.30866 0.12797
#
# Static dielectric constant tensor:
#      x y z
#    x 3.136690 0.000000 0.000000 
#    y 0.000000 3.413680 0.000000 
#    z 0.000000 0.000000 5.764920 
# 
# 
# High freq. dielectric constant tensor:
#      x y z
#    x 1.706110 0.000000 0.000000 
#    y 0.000000 1.732800 0.000000 
#    z 0.000000 0.000000 1.735440 
# 
# From -- ./inp_files/61141.got.cif
#   From: 2010.03.12/outbox.cif.g09.slc.cpg/sg63_31_cif.got.tgz:61141.got - 2010.04.10 19:34:48.
