data_PCOD8259924
_publ_section_title
;
Structure prediction by ZEFSAII (Michael W. Deem and Ramdas Pophale) SiO2 
 PCOD8259924
Probable space group: C M C M
;
_chemical_formula_sum "Si O2"
_cell_formula_units_Z 96
_cell_length_a 24.816800
_cell_length_b 23.506459
_cell_length_c 8.898272
_cell_angle_alpha 90.000000
_cell_angle_beta 90.000000
_cell_angle_gamma 90.000000
_cell_volume 5190.852279
_symmetry_space_group_name_H-M "C M C M"
_symmetry_group_IT_number 63
_symmetry_cell_setting 'orthorhombic'
loop_
_space_group_symop_operation_xyz
x,y,z
-x,-y,1/2+z
x,-y,-z
-x,y,1/2-z
-x,-y,-z
x,y,1/2-z
-x,y,z
x,-y,1/2+z
1/2+x,1/2+y,z
1/2-x,1/2-y,1/2+z
1/2+x,1/2-y,-z
1/2-x,1/2+y,1/2-z
1/2-x,1/2-y,-z
1/2+x,1/2+y,1/2-z
1/2-x,1/2+y,z
1/2+x,1/2-y,1/2+z
loop_
_atom_site_type_symbol
_atom_site_label
_atom_site_fract_x
_atom_site_fract_y
_atom_site_fract_z
Si Si1 0.146547 0.137759 0.571831
Si Si2 0.563146 0.441193 0.575601
Si Si3 0.808329 0.247275 0.425968
Si Si4 0.746663 0.560788 0.926938
Si Si5 0.938341 0.558278 0.073859
Si Si6 0.649314 0.871394 0.075463
O O1 0.141611 0.143494 0.750000
O O2 0.092156 0.111264 0.505114
O O3 0.154684 0.199567 0.501048
O O4 0.196444 0.098791 0.522249
O O5 0.582161 0.500000 0.500000
O O6 0.579116 0.443602 0.750000
O O7 0.500000 0.431518 0.552162
O O8 0.800741 0.235452 0.250000
O O9 0.750000 0.250000 0.500000
O O10 0.839447 0.305696 0.455786
O O11 0.747679 0.553427 0.750000
O O12 0.800548 0.591525 0.984622
O O13 0.740630 0.500000 0.000000
O O14 0.931202 0.551965 0.250000
O O15 0.000000 0.569830 0.027495
O O16 0.917027 0.500000 0.000000
O O17 0.903792 0.611222 0.015296
O O18 0.639306 0.883248 0.250000
#
# Coordination Sequence:
#
# PCOD8259924 Si02
#       6
#    16  16  16  16  16  16
#     4  11  22  38  58  83 116 151 194 239 285 344
#     4  10  21  38  60  87 118 153 194 239 290 346
#     4  11  22  39  60  83 114 153 194 237 288 343
#     4  10  21  35  51  79 114 144 179 228 280 336
#     4  10  21  37  58  85 115 148 188 232 281 336
#     4  10  21  38  57  81 113 147 189 233 280 337
#
# _framework density 18.494071999999999
#
# number of rings (size 3 to 8) (size 9 to 14) (size 15 to 20)
#    0.000    1.667    1.667    3.000    0.000    8.000 
#    0.000    0.833    0.000    1.000    0.000    0.000 
#    0.000    0.000    0.000    0.000    0.000    0.000 
#
# Total GULP energy -595476.622399 kJ/mol
# GULP energy per Si atom -12405.762967 kJ/mol
# Density = 1.845198 g / cm^3
# Si number density = 18.494072 Si / 1000 Ang^3
#
#
#
# Elastic Constant Matrix: (Units=GPa)
#
#
# Indices 1 2 3 4 5 6 
#
# 1 88.7935 55.5757 51.6936 0.0000 0.0000 0.0000
# 2 55.5757 119.5021 61.2730 0.0000 0.0000 0.0000
# 3 51.6936 61.2730 93.5951 0.0000 0.0000 0.0000
# 4 0.0000 0.0000 0.0000 37.4998 0.0000 0.0000
# 5 0.0000 0.0000 0.0000 0.0000 33.2779 0.0000
# 6 0.0000 0.0000 0.0000 0.0000 0.0000 27.4574
#
#
#
# Elastic Compliance Matrix: (Units=1/GPa)
#
#
# Indices 1 2 3 4 5 6 
#
# 1 0.018419 -0.005042 -0.006872 0.000000 0.000000 0.000000
# 2 -0.005042 0.013977 -0.006365 0.000000 0.000000 0.000000
# 3 -0.006872 -0.006365 0.018647 0.000000 0.000000 0.000000
# 4 0.000000 0.000000 0.000000 0.026667 0.000000 0.000000
# 5 0.000000 0.000000 0.000000 0.000000 0.030050 0.000000
# 6 0.000000 0.000000 0.000000 0.000000 0.000000 0.036420
#
#
# Mechanical properties :
#
#
# Convention : Reuss Voigt Hill
#
# Bulk Modulus (GPa) = 69.04368 70.99727 70.02047
# Shear Modulus (GPa) = 26.94475 28.53692 27.74083
#
# Velocity S-wave (km/s) = 3.82113 3.93240 3.87717
# Velocity P-wave (km/s) = 7.54201 7.68706 7.61488
#
# Compressibility (1/GPa) = 0.01448359
#
# Stress axis : x y z
#
# Youngs Moduli (GPa) = 54.29259 71.54805 53.62916
#
# Poissons Ratio (x) = 0.36077 0.36853
# Poissons Ratio (y) = 0.27377 0.34135
# Poissons Ratio (z) = 0.37309 0.45540
#
# Static dielectric constant tensor:
#      x y z
#    x 3.436140 0.000000 0.000000 
#    y 0.000000 3.330210 0.000000 
#    z 0.000000 0.000000 3.462110 
# 
# 
# High freq. dielectric constant tensor:
#      x y z
#    x 1.718030 0.000000 0.000000 
#    y 0.000000 1.720620 0.000000 
#    z 0.000000 0.000000 1.726850 
# 
# From -- ./inp_files/10462.got.cif
#   From: 2010.03.12/outbox.cif.g09.slc.cpg/sg63_6_cif.got.tgz:10462.got - 2010.04.10 19:34:48.
