data_PCOD8259336
_publ_section_title
;
Structure prediction by ZEFSAII (Michael W. Deem and Ramdas Pophale) SiO2 
 PCOD8259336
Probable space group: C M C M
;
_chemical_formula_sum "Si O2"
_cell_formula_units_Z 88
_cell_length_a 10.817215
_cell_length_b 28.199742
_cell_length_c 14.413580
_cell_angle_alpha 90.000000
_cell_angle_beta 90.000000
_cell_angle_gamma 90.000000
_cell_volume 4396.756959
_symmetry_space_group_name_H-M "C M C M"
_symmetry_group_IT_number 63
_symmetry_cell_setting 'orthorhombic'
loop_
_space_group_symop_operation_xyz
x,y,z
-x,-y,1/2+z
x,-y,-z
-x,y,1/2-z
-x,-y,-z
x,y,1/2-z
-x,y,z
x,-y,1/2+z
1/2+x,1/2+y,z
1/2-x,1/2-y,1/2+z
1/2+x,1/2-y,-z
1/2-x,1/2+y,1/2-z
1/2-x,1/2-y,-z
1/2+x,1/2+y,1/2-z
1/2-x,1/2+y,z
1/2+x,1/2-y,1/2+z
loop_
_atom_site_type_symbol
_atom_site_label
_atom_site_fract_x
_atom_site_fract_y
_atom_site_fract_z
Si Si1 0.000000 0.858090 0.472767
Si Si2 0.760882 0.256457 0.107006
Si Si3 0.853669 0.022404 0.358690
Si Si4 0.215159 0.072573 0.539575
Si Si5 0.860851 0.642743 0.645194
Si Si6 0.000000 0.804218 0.650154
Si Si7 0.500000 0.730553 0.848333
O O1 0.883530 0.887112 0.439498
O O2 0.000000 0.849303 0.582983
O O3 0.000000 0.805582 0.432729
O O4 0.773210 0.312091 0.129601
O O5 0.627389 0.238547 0.147037
O O6 0.876481 0.227437 0.145146
O O7 0.750000 0.250000 0.000000
O O8 0.817010 0.030723 0.250000
O O9 0.784062 0.058487 0.429929
O O10 0.000000 0.028768 0.373439
O O11 0.813550 0.970611 0.391649
O O12 0.339550 0.098821 0.573395
O O13 0.841206 0.623780 0.750000
O O14 0.000000 0.660366 0.628796
O O15 0.000000 0.828875 0.750000
O O16 0.500000 0.703355 0.750000
#
# Coordination Sequence:
#
# PCOD8259336 Si02
#       7
#     8  16  16  16  16   8   8
#     4  12  22  35  56  90 118 150 195 248 299 348
#     4  12  22  40  59  85 120 159 203 256 310 356
#     4  10  20  35  60  89 123 158 190 235 297 370
#     4  11  20  38  58  89 123 149 193 246 299 350
#     4  11  23  38  61  88 115 156 206 249 295 358
#     4  12  24  40  59  82 119 170 212 245 297 371
#     4  12  24  36  57  88 117 149 195 256 308 345
#
# _framework density 20.014752000000001
#
# number of rings (size 3 to 8) (size 9 to 14) (size 15 to 20)
#    0.000    0.727    6.364    2.727    0.000    1.455 
#    0.000    1.818    0.000    1.636    0.000    0.000 
#    0.000    0.000    0.000    0.000    0.000    0.000 
#
# Total GULP energy -545211.173984 kJ/mol
# GULP energy per Si atom -12391.163045 kJ/mol
# Density = 1.996920 g / cm^3
# Si number density = 20.014752 Si / 1000 Ang^3
#
#
#
# Elastic Constant Matrix: (Units=GPa)
#
#
# Indices 1 2 3 4 5 6 
#
# 1 118.7706 20.2238 24.3987 0.0000 0.0000 0.0000
# 2 20.2238 39.6140 -0.6350 0.0000 0.0000 0.0000
# 3 24.3987 -0.6350 124.6318 0.0000 0.0000 0.0000
# 4 0.0000 0.0000 0.0000 28.9992 0.0000 0.0000
# 5 0.0000 0.0000 0.0000 0.0000 -20.7441 0.0000
# 6 0.0000 0.0000 0.0000 0.0000 0.0000 -0.3534
#
#
#
# Elastic Compliance Matrix: (Units=1/GPa)
#
#
# Indices 1 2 3 4 5 6 
#
# 1 0.009658 -0.004961 -0.001916 0.000000 0.000000 0.000000
# 2 -0.004961 0.027794 0.001113 0.000000 0.000000 0.000000
# 3 -0.001916 0.001113 0.008404 0.000000 0.000000 0.000000
# 4 0.000000 0.000000 0.000000 0.034484 0.000000 0.000000
# 5 0.000000 0.000000 0.000000 0.000000 -0.048206 0.000000
# 6 0.000000 0.000000 0.000000 0.000000 0.000000 -2.829548
#
#
# Mechanical properties :
#
#
# Convention : Reuss Voigt Hill
#
# Bulk Modulus (GPa) = 29.13092 41.22127 35.17609
# Shear Modulus (GPa) = -1.80216 17.51559 7.85672
#
# Velocity S-wave (km/s) = -0.94993 2.96148 1.98343
# Velocity P-wave (km/s) = 3.65830 5.68629 4.78106
#
# Compressibility (1/GPa) = 0.03432779
#
# Stress axis : x y z
#
# Youngs Moduli (GPa) = 103.54131 35.97862 118.98542
#
# Poissons Ratio (x) = 0.17850 0.22797
# Poissons Ratio (y) = 0.51370 -0.13241
# Poissons Ratio (z) = 0.19838 -0.04004
#
# Static dielectric constant tensor:
#      x y z
#    x 3.152290 0.000000 0.000000 
#    y 0.000000 3.428780 0.000000 
#    z 0.000000 0.000000 3.900580 
# 
# 
# High freq. dielectric constant tensor:
#      x y z
#    x 1.776020 0.000000 0.000000 
#    y 0.000000 1.758070 0.000000 
#    z 0.000000 0.000000 1.798380 
# 
# From -- ./inp_files/30156.got.cif
#   From: 2010.03.12/outbox.cif.g09.slc.cpg/sg63_16_cif.got.tgz:30156.got - 2010.04.10 19:34:48.
