data_PCOD8259214
_publ_section_title
;
Structure prediction by ZEFSAII (Michael W. Deem and Ramdas Pophale) SiO2 
 PCOD8259214
Probable space group: C M C M
;
_chemical_formula_sum "Si O2"
_cell_formula_units_Z 64
_cell_length_a 10.492899
_cell_length_b 9.974057
_cell_length_c 29.501076
_cell_angle_alpha 90.000000
_cell_angle_beta 90.000000
_cell_angle_gamma 90.000000
_cell_volume 3087.487406
_symmetry_space_group_name_H-M "C M C M"
_symmetry_group_IT_number 63
_symmetry_cell_setting 'orthorhombic'
loop_
_space_group_symop_operation_xyz
x,y,z
-x,-y,1/2+z
x,-y,-z
-x,y,1/2-z
-x,-y,-z
x,y,1/2-z
-x,y,z
x,-y,1/2+z
1/2+x,1/2+y,z
1/2-x,1/2-y,1/2+z
1/2+x,1/2-y,-z
1/2-x,1/2+y,1/2-z
1/2-x,1/2-y,-z
1/2+x,1/2+y,1/2-z
1/2-x,1/2+y,z
1/2+x,1/2-y,1/2+z
loop_
_atom_site_type_symbol
_atom_site_label
_atom_site_fract_x
_atom_site_fract_y
_atom_site_fract_z
Si Si1 0.146362 0.074126 0.696645
Si Si2 0.709130 0.885844 0.561560
Si Si3 0.142562 0.368131 0.661436
Si Si4 0.137740 0.659094 0.536831
O O1 0.162338 0.060730 0.750000
O O2 0.181058 0.225014 0.682169
O O3 0.000000 0.039040 0.682152
O O4 0.248244 0.974723 0.673890
O O5 0.632657 0.857369 0.607243
O O6 0.839809 0.800236 0.562228
O O7 0.636429 0.824154 0.517676
O O8 0.736105 0.044083 0.553919
O O9 0.000000 0.409499 0.679042
O O10 0.000000 0.606009 0.552240
#
# Coordination Sequence:
#
# PCOD8259214 Si02
#       4
#    16  16  16  16
#     4  10  23  41  59  83 114 145 182 234 291 346
#     4  10  20  35  56  83 112 150 192 231 278 329
#     4  11  22  38  62  88 115 149 192 237 284 342
#     4  10  20  36  54  77 117 155 188 232 277 325
#
# _framework density 20.728829000000001
#
# number of rings (size 3 to 8) (size 9 to 14) (size 15 to 20)
#    0.000    1.750    0.000    5.250    0.000    3.500 
#    0.000   12.500    0.000    0.000    0.000    0.000 
#    0.000    0.000    0.000    0.000    0.000    0.000 
#
# Total GULP energy -396466.601014 kJ/mol
# GULP energy per Si atom -12389.581282 kJ/mol
# Density = 2.068165 g / cm^3
# Si number density = 20.728829 Si / 1000 Ang^3
#
#
#
# Elastic Constant Matrix: (Units=GPa)
#
#
# Indices 1 2 3 4 5 6 
#
# 1 101.3023 64.3453 29.4300 0.0000 0.0000 0.0000
# 2 64.3453 118.6936 28.4477 0.0000 0.0000 0.0000
# 3 29.4300 28.4477 73.5609 0.0000 0.0000 0.0000
# 4 0.0000 0.0000 0.0000 28.8633 0.0000 0.0000
# 5 0.0000 0.0000 0.0000 0.0000 14.1817 0.0000
# 6 0.0000 0.0000 0.0000 0.0000 0.0000 31.1768
#
#
#
# Elastic Compliance Matrix: (Units=1/GPa)
#
#
# Indices 1 2 3 4 5 6 
#
# 1 0.015753 -0.007747 -0.003306 0.000000 0.000000 0.000000
# 2 -0.007747 0.013096 -0.001965 0.000000 0.000000 0.000000
# 3 -0.003306 -0.001965 0.015677 0.000000 0.000000 0.000000
# 4 0.000000 0.000000 0.000000 0.034646 0.000000 0.000000
# 5 0.000000 0.000000 0.000000 0.000000 0.070513 0.000000
# 6 0.000000 0.000000 0.000000 0.000000 0.000000 0.032075
#
#
# Mechanical properties :
#
#
# Convention : Reuss Voigt Hill
#
# Bulk Modulus (GPa) = 54.08782 59.77807 56.93294
# Shear Modulus (GPa) = 23.36880 26.26664 24.81772
#
# Velocity S-wave (km/s) = 3.36126 3.56357 3.46389
# Velocity P-wave (km/s) = 6.41979 6.76999 6.59722
#
# Compressibility (1/GPa) = 0.01848845
#
# Stress axis : x y z
#
# Youngs Moduli (GPa) = 63.47985 76.35915 63.78841
#
# Poissons Ratio (x) = 0.59159 0.21090
# Poissons Ratio (y) = 0.49181 0.12534
# Poissons Ratio (z) = 0.20988 0.15004
#
# Static dielectric constant tensor:
#      x y z
#    x 3.788750 0.000000 0.000000 
#    y 0.000000 3.776150 0.000000 
#    z 0.000000 0.000000 3.779580 
# 
# 
# High freq. dielectric constant tensor:
#      x y z
#    x 1.797570 0.000000 0.000000 
#    y 0.000000 1.815560 0.000000 
#    z 0.000000 0.000000 1.813370 
# 
# From -- ./inp_files/72362.got.cif
#   From: 2010.03.12/outbox.cif.g09.slc.cpg/sg63_37_cif.got.tgz:72362.got - 2010.04.10 19:34:48.
