data_PCOD8259633
_publ_section_title
;
Structure prediction by ZEFSAII (Michael W. Deem and Ramdas Pophale) SiO2 
 PCOD8259633
Probable space group: C M C M
;
_chemical_formula_sum "Si O2"
_cell_formula_units_Z 72
_cell_length_a 15.601451
_cell_length_b 14.392321
_cell_length_c 17.238361
_cell_angle_alpha 90.000000
_cell_angle_beta 90.000000
_cell_angle_gamma 90.000000
_cell_volume 3870.720384
_symmetry_space_group_name_H-M "C M C M"
_symmetry_group_IT_number 63
_symmetry_cell_setting 'orthorhombic'
loop_
_space_group_symop_operation_xyz
x,y,z
-x,-y,1/2+z
x,-y,-z
-x,y,1/2-z
-x,-y,-z
x,y,1/2-z
-x,y,z
x,-y,1/2+z
1/2+x,1/2+y,z
1/2-x,1/2-y,1/2+z
1/2+x,1/2-y,-z
1/2-x,1/2+y,1/2-z
1/2-x,1/2-y,-z
1/2+x,1/2+y,1/2-z
1/2-x,1/2+y,z
1/2+x,1/2-y,1/2+z
loop_
_atom_site_type_symbol
_atom_site_label
_atom_site_fract_x
_atom_site_fract_y
_atom_site_fract_z
Si Si1 0.168188 0.408261 0.341125
Si Si2 0.678379 0.521429 0.409377
Si Si3 0.181914 0.223527 0.062900
Si Si4 0.500000 0.270618 0.939314
Si Si5 0.500000 0.946985 0.418609
Si Si6 0.500000 0.556114 0.341113
O O1 0.158054 0.400856 0.250000
O O2 0.257049 0.456498 0.362748
O O3 0.169211 0.303662 0.373989
O O4 0.088380 0.470451 0.373431
O O5 0.683059 0.500000 0.500000
O O6 0.708602 0.628042 0.395114
O O7 0.582943 0.504845 0.377072
O O8 0.089987 0.205554 0.017803
O O9 0.250000 0.250000 0.000000
O O10 0.500000 0.162540 0.924716
O O11 0.500000 0.333587 0.860713
O O12 0.500000 0.000000 0.500000
O O13 0.500000 0.542678 0.250000
#
# Coordination Sequence:
#
# PCOD8259633 Si02
#       6
#    16  16  16   8   8   8
#     4  11  23  38  59  88 119 152 194 244 296 341
#     4  11  21  37  60  85 116 151 198 237 286 350
#     4  10  20  37  59  84 113 151 195 237 284 347
#     4   8  20  33  56  81 106 142 194 232 275 325
#     4  10  21  36  58  82 114 150 194 238 284 346
#     4  10  21  37  58  85 116 150 190 240 292 337
#
# _framework density 18.601188
#
# number of rings (size 3 to 8) (size 9 to 14) (size 15 to 20)
#    0.000    1.778    2.222    2.000    3.111    8.889 
#    0.000    0.000    0.000    0.000    0.000    0.000 
#    0.000    0.000    0.000    0.000    0.000    0.000 
#
# Total GULP energy -446062.161504 kJ/mol
# GULP energy per Si atom -12390.615597 kJ/mol
# Density = 1.855885 g / cm^3
# Si number density = 18.601188 Si / 1000 Ang^3
#
#
#
# Elastic Constant Matrix: (Units=GPa)
#
#
# Indices 1 2 3 4 5 6 
#
# 1 131.0879 47.5159 61.0109 0.0000 0.0000 0.0000
# 2 47.5159 89.8852 31.5159 0.0000 0.0000 0.0000
# 3 61.0109 31.5159 133.2317 0.0000 0.0000 0.0000
# 4 0.0000 0.0000 0.0000 23.1099 0.0000 0.0000
# 5 0.0000 0.0000 0.0000 0.0000 29.2439 0.0000
# 6 0.0000 0.0000 0.0000 0.0000 0.0000 27.4596
#
#
#
# Elastic Compliance Matrix: (Units=1/GPa)
#
#
# Indices 1 2 3 4 5 6 
#
# 1 0.011127 -0.004466 -0.004039 0.000000 0.000000 0.000000
# 2 -0.004466 0.013924 -0.001249 0.000000 0.000000 0.000000
# 3 -0.004039 -0.001249 0.009651 0.000000 0.000000 0.000000
# 4 0.000000 0.000000 0.000000 0.043272 0.000000 0.000000
# 5 0.000000 0.000000 0.000000 0.000000 0.034195 0.000000
# 6 0.000000 0.000000 0.000000 0.000000 0.000000 0.036417
#
#
# Mechanical properties :
#
#
# Convention : Reuss Voigt Hill
#
# Bulk Modulus (GPa) = 65.81303 70.47667 68.14485
# Shear Modulus (GPa) = 28.87545 30.24015 29.55780
#
# Velocity S-wave (km/s) = 3.94425 4.03638 3.99059
# Velocity P-wave (km/s) = 7.49672 7.72617 7.61231
#
# Compressibility (1/GPa) = 0.01519456
#
# Stress axis : x y z
#
# Youngs Moduli (GPa) = 89.87083 71.81897 103.61974
#
# Poissons Ratio (x) = 0.32074 0.41852
# Poissons Ratio (y) = 0.40136 0.12938
# Poissons Ratio (z) = 0.36299 0.08967
#
# Static dielectric constant tensor:
#      x y z
#    x 4.206300 0.000000 0.000000 
#    y 0.000000 3.737600 0.000000 
#    z 0.000000 0.000000 3.336130 
# 
# 
# High freq. dielectric constant tensor:
#      x y z
#    x 1.752330 0.000000 0.000000 
#    y 0.000000 1.722750 0.000000 
#    z 0.000000 0.000000 1.691880 
# 
# From -- ./inp_files/43795.got.cif
#   From: 2010.03.12/outbox.cif.g09.slc.cpg/sg63_22_cif.got.tgz:43795.got - 2010.04.10 19:34:48.
