data_PCOD8259812
_publ_section_title
;
Structure prediction by ZEFSAII (Michael W. Deem and Ramdas Pophale) SiO2 
 PCOD8259812
Probable space group: C M C M
;
_chemical_formula_sum "Si O2"
_cell_formula_units_Z 64
_cell_length_a 8.783383
_cell_length_b 23.960626
_cell_length_c 15.263927
_cell_angle_alpha 90.000000
_cell_angle_beta 90.000000
_cell_angle_gamma 90.000000
_cell_volume 3212.375177
_symmetry_space_group_name_H-M "C M C M"
_symmetry_group_IT_number 63
_symmetry_cell_setting 'orthorhombic'
loop_
_space_group_symop_operation_xyz
x,y,z
-x,-y,1/2+z
x,-y,-z
-x,y,1/2-z
-x,-y,-z
x,y,1/2-z
-x,y,z
x,-y,1/2+z
1/2+x,1/2+y,z
1/2-x,1/2-y,1/2+z
1/2+x,1/2-y,-z
1/2-x,1/2+y,1/2-z
1/2-x,1/2-y,-z
1/2+x,1/2+y,1/2-z
1/2-x,1/2+y,z
1/2+x,1/2-y,1/2+z
loop_
_atom_site_type_symbol
_atom_site_label
_atom_site_fract_x
_atom_site_fract_y
_atom_site_fract_z
Si Si1 0.179680 0.198324 0.750000
Si Si2 0.321040 0.568756 0.750000
Si Si3 0.829911 0.372716 0.648719
Si Si4 0.179636 0.495475 0.899552
Si Si5 0.321479 0.265363 0.908763
O O1 0.225474 0.133502 0.750000
O O2 0.246766 0.226916 0.835609
O O3 0.000000 0.207165 0.750000
O O4 0.500000 0.560479 0.750000
O O5 0.256743 0.541886 0.838955
O O6 0.836692 0.358026 0.750000
O O7 0.768951 0.435071 0.634761
O O8 0.712322 0.330667 0.604547
O O9 0.000000 0.366225 0.607847
O O10 0.000000 0.504009 0.890933
O O11 0.234239 0.500000 0.000000
O O12 0.500000 0.254918 0.908679
O O13 0.250000 0.250000 0.000000
#
# Coordination Sequence:
#
# PCOD8259812 Si02
#       5
#     8   8  16  16  16
#     4  11  25  46  65  92 131 168 212 263 316 375
#     4  11  25  42  63  92 129 168 206 261 318 369
#     4  10  20  39  65  92 127 164 206 263 315 366
#     4  10  22  41  66  95 125 165 212 256 307 374
#     4  12  26  43  66  95 126 167 213 261 319 378
#
# _framework density 19.922954000000001
#
# number of rings (size 3 to 8) (size 9 to 14) (size 15 to 20)
#    0.000    1.250    2.500    3.000    3.500    3.500 
#    0.000    0.000    0.000    0.000    0.000    0.000 
#    0.000    0.000    0.000    0.000    0.000    0.000 
#
# Total GULP energy -396915.560448 kJ/mol
# GULP energy per Si atom -12403.611264 kJ/mol
# Density = 1.987761 g / cm^3
# Si number density = 19.922954 Si / 1000 Ang^3
#
#
#
# Elastic Constant Matrix: (Units=GPa)
#
#
# Indices 1 2 3 4 5 6 
#
# 1 104.6655 66.5029 55.6652 0.0000 0.0000 0.0000
# 2 66.5029 133.4996 57.0026 0.0000 0.0000 0.0000
# 3 55.6652 57.0026 146.8271 0.0000 0.0000 0.0000
# 4 0.0000 0.0000 0.0000 32.6643 0.0000 0.0000
# 5 0.0000 0.0000 0.0000 0.0000 32.6164 0.0000
# 6 0.0000 0.0000 0.0000 0.0000 0.0000 35.1655
#
#
#
# Elastic Compliance Matrix: (Units=1/GPa)
#
#
# Indices 1 2 3 4 5 6 
#
# 1 0.015275 -0.006157 -0.003401 0.000000 0.000000 0.000000
# 2 -0.006157 0.011461 -0.002115 0.000000 0.000000 0.000000
# 3 -0.003401 -0.002115 0.008921 0.000000 0.000000 0.000000
# 4 0.000000 0.000000 0.000000 0.030614 0.000000 0.000000
# 5 0.000000 0.000000 0.000000 0.000000 0.030659 0.000000
# 6 0.000000 0.000000 0.000000 0.000000 0.000000 0.028437
#
#
# Mechanical properties :
#
#
# Convention : Reuss Voigt Hill
#
# Bulk Modulus (GPa) = 81.22747 82.59262 81.91005
# Shear Modulus (GPa) = 32.71865 33.81068 33.26467
#
# Velocity S-wave (km/s) = 4.05688 4.12402 4.09059
# Velocity P-wave (km/s) = 7.92487 8.01391 7.96952
#
# Compressibility (1/GPa) = 0.01231111
#
# Stress axis : x y z
#
# Youngs Moduli (GPa) = 65.46613 87.25205 112.09289
#
# Poissons Ratio (x) = 0.53723 0.38119
# Poissons Ratio (y) = 0.40309 0.23710
# Poissons Ratio (z) = 0.22263 0.18455
#
# Static dielectric constant tensor:
#      x y z
#    x 3.670300 0.000000 0.000000 
#    y 0.000000 3.846760 0.000000 
#    z 0.000000 0.000000 3.745270 
# 
# 
# High freq. dielectric constant tensor:
#      x y z
#    x 1.773510 0.000000 0.000000 
#    y 0.000000 1.792820 0.000000 
#    z 0.000000 0.000000 1.788330 
# 
# From -- ./inp_files/27530.got.cif
#   From: 2010.03.12/outbox.cif.g09.slc.cpg/sg63_14_cif.got.tgz:27530.got - 2010.04.10 19:34:48.
