data_PCOD8259580
_publ_section_title
;
Structure prediction by ZEFSAII (Michael W. Deem and Ramdas Pophale) SiO2 
 PCOD8259580
Probable space group: C M C M
;
_chemical_formula_sum "Si O2"
_cell_formula_units_Z 72
_cell_length_a 17.753217
_cell_length_b 23.472842
_cell_length_c 8.773780
_cell_angle_alpha 90.000000
_cell_angle_beta 90.000000
_cell_angle_gamma 90.000000
_cell_volume 3656.196069
_symmetry_space_group_name_H-M "C M C M"
_symmetry_group_IT_number 63
_symmetry_cell_setting 'orthorhombic'
loop_
_space_group_symop_operation_xyz
x,y,z
-x,-y,1/2+z
x,-y,-z
-x,y,1/2-z
-x,-y,-z
x,y,1/2-z
-x,y,z
x,-y,1/2+z
1/2+x,1/2+y,z
1/2-x,1/2-y,1/2+z
1/2+x,1/2-y,-z
1/2-x,1/2+y,1/2-z
1/2-x,1/2-y,-z
1/2+x,1/2+y,1/2-z
1/2-x,1/2+y,z
1/2+x,1/2-y,1/2+z
loop_
_atom_site_type_symbol
_atom_site_label
_atom_site_fract_x
_atom_site_fract_y
_atom_site_fract_z
Si Si1 0.218697 0.062182 0.569571
Si Si2 0.140699 0.377350 0.573273
Si Si3 0.830465 0.249338 0.925031
Si Si4 0.000000 0.438296 0.429727
Si Si5 0.916529 0.140542 0.569724
O O1 0.230710 0.059240 0.750000
O O2 0.280360 0.103838 0.498025
O O3 0.137101 0.087684 0.525085
O O4 0.226814 0.000000 0.500000
O O5 0.138055 0.395444 0.750000
O O6 0.129143 0.309874 0.553473
O O7 0.073987 0.406194 0.482649
O O8 0.816226 0.234816 0.750000
O O9 0.882770 0.199733 0.997010
O O10 0.750000 0.250000 0.000000
O O11 0.000000 0.500000 0.500000
O O12 0.000000 0.443305 0.250000
O O13 0.922795 0.145768 0.750000
O O14 0.000000 0.130319 0.499719
#
# Coordination Sequence:
#
# PCOD8259580 Si02
#       5
#    16  16  16   8  16
#     4  11  22  38  61  86 117 157 203 250 300 360
#     4  11  23  39  62  92 123 157 199 247 303 364
#     4  10  20  36  62  89 119 154 195 243 294 355
#     4  12  26  44  64  88 124 162 203 252 301 360
#     4   9  19  36  59  87 119 157 197 243 299 356
#
# _framework density 19.692599999999999
#
# number of rings (size 3 to 8) (size 9 to 14) (size 15 to 20)
#    0.000    1.556    2.222    3.000    1.556    1.333 
#    0.000    0.000    0.000    4.667    0.000    0.000 
#    0.000    0.000    0.000    0.000    0.000    0.000 
#
# Total GULP energy -446450.136515 kJ/mol
# GULP energy per Si atom -12401.392681 kJ/mol
# Density = 1.964778 g / cm^3
# Si number density = 19.692600 Si / 1000 Ang^3
#
#
#
# Elastic Constant Matrix: (Units=GPa)
#
#
# Indices 1 2 3 4 5 6 
#
# 1 112.0950 6.8998 29.0029 0.0000 0.0000 0.0000
# 2 6.8998 73.2492 28.2266 0.0000 0.0000 0.0000
# 3 29.0029 28.2266 94.2199 0.0000 0.0000 0.0000
# 4 0.0000 0.0000 0.0000 20.3068 0.0000 0.0000
# 5 0.0000 0.0000 0.0000 0.0000 23.0782 0.0000
# 6 0.0000 0.0000 0.0000 0.0000 0.0000 33.1604
#
#
#
# Elastic Compliance Matrix: (Units=1/GPa)
#
#
# Indices 1 2 3 4 5 6 
#
# 1 0.009698 0.000268 -0.003065 0.000000 0.000000 0.000000
# 2 0.000268 0.015441 -0.004708 0.000000 0.000000 0.000000
# 3 -0.003065 -0.004708 0.012968 0.000000 0.000000 0.000000
# 4 0.000000 0.000000 0.000000 0.049245 0.000000 0.000000
# 5 0.000000 0.000000 0.000000 0.000000 0.043331 0.000000
# 6 0.000000 0.000000 0.000000 0.000000 0.000000 0.030156
#
#
# Mechanical properties :
#
#
# Convention : Reuss Voigt Hill
#
# Bulk Modulus (GPa) = 43.30028 45.31363 44.30695
# Shear Modulus (GPa) = 27.24075 29.67138 28.45607
#
# Velocity S-wave (km/s) = 3.72331 3.88587 3.80546
# Velocity P-wave (km/s) = 6.36552 6.57220 6.46968
#
# Compressibility (1/GPa) = 0.02309454
#
# Stress axis : x y z
#
# Youngs Moduli (GPa) = 103.11792 64.76199 77.11540
#
# Poissons Ratio (x) = -0.01734 0.23639
# Poissons Ratio (y) = -0.02761 0.36308
# Poissons Ratio (z) = 0.31609 0.30492
#
# Static dielectric constant tensor:
#      x y z
#    x 3.658850 0.000000 0.000000 
#    y 0.000000 3.962660 0.000000 
#    z 0.000000 0.000000 3.543690 
# 
# 
# High freq. dielectric constant tensor:
#      x y z
#    x 1.777740 0.000000 0.000000 
#    y 0.000000 1.783240 0.000000 
#    z 0.000000 0.000000 1.752070 
# 
# From -- ./inp_files/4662.got.cif
#   From: 2010.03.12/outbox.cif.g09.slc.cpg/sg63_3_cif.got.tgz:4662.got - 2010.04.10 19:34:48.
