data_PCOD8259509
_publ_section_title
;
Structure prediction by ZEFSAII (Michael W. Deem and Ramdas Pophale) SiO2 
 PCOD8259509
Probable space group: C M C M
;
_chemical_formula_sum "Si O2"
_cell_formula_units_Z 96
_cell_length_a 14.909636
_cell_length_b 16.558765
_cell_length_c 19.411045
_cell_angle_alpha 90.000000
_cell_angle_beta 90.000000
_cell_angle_gamma 90.000000
_cell_volume 4792.298927
_symmetry_space_group_name_H-M "C M C M"
_symmetry_group_IT_number 63
_symmetry_cell_setting 'orthorhombic'
loop_
_space_group_symop_operation_xyz
x,y,z
-x,-y,1/2+z
x,-y,-z
-x,y,1/2-z
-x,-y,-z
x,y,1/2-z
-x,y,z
x,-y,1/2+z
1/2+x,1/2+y,z
1/2-x,1/2-y,1/2+z
1/2+x,1/2-y,-z
1/2-x,1/2+y,1/2-z
1/2-x,1/2-y,-z
1/2+x,1/2+y,1/2-z
1/2-x,1/2+y,z
1/2+x,1/2-y,1/2+z
loop_
_atom_site_type_symbol
_atom_site_label
_atom_site_fract_x
_atom_site_fract_y
_atom_site_fract_z
Si Si1 0.354090 0.392063 0.460257
Si Si2 0.900867 0.287633 0.920356
Si Si3 0.397953 0.963990 0.326608
Si Si4 0.146794 0.587793 0.969924
Si Si5 0.772744 0.616336 0.328341
Si Si6 0.598619 0.550779 0.104520
O O1 0.382408 0.304514 0.437018
O O2 0.251020 0.397813 0.481705
O O3 0.409652 0.413889 0.527961
O O4 0.374666 0.455931 0.399222
O O5 0.820316 0.312549 0.870118
O O6 0.000000 0.294753 0.886054
O O7 0.903707 0.341990 0.989127
O O8 0.379300 0.926119 0.250000
O O9 0.500000 0.995466 0.329984
O O10 0.379931 0.901765 0.389079
O O11 0.331955 0.037508 0.340783
O O12 0.118455 0.500000 0.000000
O O13 0.770746 0.644171 0.250000
O O14 0.671078 0.600462 0.351606
O O15 0.500000 0.559286 0.139235
#
# Coordination Sequence:
#
# PCOD8259509 Si02
#       6
#    16  16  16  16  16  16
#     4  11  20  40  62  92 123 156 199 259 314 362
#     4  12  24  37  61  94 125 159 202 256 311 368
#     4  10  20  36  59  85 118 159 200 244 299 363
#     4  12  20  37  62  90 124 161 203 254 304 366
#     4  11  23  40  59  86 122 163 202 248 307 365
#     4  11  21  40  66  90 118 158 209 257 306 366
#
# _framework density 20.032139000000001
#
# number of rings (size 3 to 8) (size 9 to 14) (size 15 to 20)
#    0.000    0.833    6.667    3.500    0.000    2.000 
#    0.000    1.667    0.000    2.000    0.000    0.000 
#    0.000    0.000    0.000    0.000    0.000    0.000 
#
# Total GULP energy -595121.645077 kJ/mol
# GULP energy per Si atom -12398.367606 kJ/mol
# Density = 1.998655 g / cm^3
# Si number density = 20.032139 Si / 1000 Ang^3
#
#
#
# Elastic Constant Matrix: (Units=GPa)
#
#
# Indices 1 2 3 4 5 6 
#
# 1 133.0342 48.4879 22.8358 0.0000 0.0000 0.0000
# 2 48.4879 118.1563 48.9816 0.0000 0.0000 0.0000
# 3 22.8358 48.9816 110.4399 0.0000 0.0000 0.0000
# 4 0.0000 0.0000 0.0000 11.4715 0.0000 0.0000
# 5 0.0000 0.0000 0.0000 0.0000 20.2135 0.0000
# 6 0.0000 0.0000 0.0000 0.0000 0.0000 -18.4232
#
#
#
# Elastic Compliance Matrix: (Units=1/GPa)
#
#
# Indices 1 2 3 4 5 6 
#
# 1 0.008845 -0.003519 -0.000268 0.000000 0.000000 0.000000
# 2 -0.003519 0.011770 -0.004492 0.000000 0.000000 0.000000
# 3 -0.000268 -0.004492 0.011103 0.000000 0.000000 0.000000
# 4 0.000000 0.000000 0.000000 0.087172 0.000000 0.000000
# 5 0.000000 0.000000 0.000000 0.000000 0.049472 0.000000
# 6 0.000000 0.000000 0.000000 0.000000 0.000000 -0.054279
#
#
# Mechanical properties :
#
#
# Convention : Reuss Voigt Hill
#
# Bulk Modulus (GPa) = 65.96859 66.91567 66.44213
# Shear Modulus (GPa) = 36.84750 18.74070 27.79410
#
# Velocity S-wave (km/s) = 4.29350 3.06196 3.72892
# Velocity P-wave (km/s) = 7.58826 6.78067 7.19580
#
# Compressibility (1/GPa) = 0.01515873
#
# Stress axis : x y z
#
# Youngs Moduli (GPa) = 113.05316 84.96431 90.06844
#
# Poissons Ratio (x) = 0.29896 0.02418
# Poissons Ratio (y) = 0.39779 0.40463
# Poissons Ratio (z) = 0.03035 0.38170
#
# Static dielectric constant tensor:
#      x y z
#    x 3.871140 0.000000 0.000000 
#    y 0.000000 3.450860 0.000000 
#    z 0.000000 0.000000 3.697530 
# 
# 
# High freq. dielectric constant tensor:
#      x y z
#    x 1.804280 0.000000 0.000000 
#    y 0.000000 1.755950 0.000000 
#    z 0.000000 0.000000 1.767480 
# 
# From -- ./inp_files/54212.got.cif
#   From: 2010.03.12/outbox.cif.g09.slc.cpg/sg63_28_cif.got.tgz:54212.got - 2010.04.10 19:34:48.
