data_PCOD8259686
_publ_section_title
;
Structure prediction by ZEFSAII (Michael W. Deem and Ramdas Pophale) SiO2 
 PCOD8259686
Probable space group: C M C M
;
_chemical_formula_sum "Si O2"
_cell_formula_units_Z 96
_cell_length_a 16.148899
_cell_length_b 18.365310
_cell_length_c 15.728208
_cell_angle_alpha 90.000000
_cell_angle_beta 90.000000
_cell_angle_gamma 90.000000
_cell_volume 4664.664635
_symmetry_space_group_name_H-M "C M C M"
_symmetry_group_IT_number 63
_symmetry_cell_setting 'orthorhombic'
loop_
_space_group_symop_operation_xyz
x,y,z
-x,-y,1/2+z
x,-y,-z
-x,y,1/2-z
-x,-y,-z
x,y,1/2-z
-x,y,z
x,-y,1/2+z
1/2+x,1/2+y,z
1/2-x,1/2-y,1/2+z
1/2+x,1/2-y,-z
1/2-x,1/2+y,1/2-z
1/2-x,1/2-y,-z
1/2+x,1/2+y,1/2-z
1/2-x,1/2+y,z
1/2+x,1/2-y,1/2+z
loop_
_atom_site_type_symbol
_atom_site_label
_atom_site_fract_x
_atom_site_fract_y
_atom_site_fract_z
Si Si1 0.799896 0.763942 0.843990
Si Si2 0.907399 0.980357 0.149562
Si Si3 0.744027 0.572313 0.153933
Si Si4 0.908413 0.718873 0.998750
Si Si5 0.408149 0.065065 0.436625
Si Si6 0.364344 0.316183 0.346283
O O1 0.843408 0.761942 0.750000
O O2 0.755058 0.841030 0.856858
O O3 0.860274 0.756908 0.922675
O O4 0.733609 0.699106 0.848850
O O5 0.911973 0.990280 0.250000
O O6 0.881338 0.898490 0.125554
O O7 0.000000 0.997367 0.112198
O O8 0.837114 0.034614 0.109363
O O9 0.737031 0.547077 0.250000
O O10 0.833614 0.542237 0.125460
O O11 0.000000 0.714882 0.962916
O O12 0.876570 0.637268 0.014861
O O13 0.908146 0.763649 0.086539
O O14 0.500000 0.078952 0.393351
O O15 0.420661 0.000000 0.500000
O O16 0.398124 0.301411 0.250000
#
# Coordination Sequence:
#
# PCOD8259686 Si02
#       6
#    16  16  16  16  16  16
#     4  10  22  39  60  88 118 156 205 249 299 365
#     4   9  19  35  57  88 124 159 196 242 301 369
#     4  10  21  38  62  89 118 159 202 246 307 365
#     4  11  23  38  60  88 120 159 199 250 314 365
#     4  10  23  40  57  83 117 157 204 253 308 364
#     4  10  20  37  62  91 120 154 200 251 302 361
#
# _framework density 20.580258000000001
#
# number of rings (size 3 to 8) (size 9 to 14) (size 15 to 20)
#    0.000    2.000    1.667    1.000    2.333    2.333 
#    0.000    3.333    0.000    5.500    0.000    0.000 
#    0.000    0.000    0.000    0.000    0.000    0.000 
#
# Total GULP energy -594749.367735 kJ/mol
# GULP energy per Si atom -12390.611828 kJ/mol
# Density = 2.053342 g / cm^3
# Si number density = 20.580258 Si / 1000 Ang^3
#
#
#
# Elastic Constant Matrix: (Units=GPa)
#
#
# Indices 1 2 3 4 5 6 
#
# 1 144.2387 48.0491 39.9390 0.0000 0.0000 0.0000
# 2 48.0491 69.3549 26.3622 0.0000 0.0000 0.0000
# 3 39.9390 26.3622 71.7934 0.0000 0.0000 0.0000
# 4 0.0000 0.0000 0.0000 19.9194 0.0000 0.0000
# 5 0.0000 0.0000 0.0000 0.0000 19.5581 0.0000
# 6 0.0000 0.0000 0.0000 0.0000 0.0000 33.8767
#
#
#
# Elastic Compliance Matrix: (Units=1/GPa)
#
#
# Indices 1 2 3 4 5 6 
#
# 1 0.009676 -0.005413 -0.003395 0.000000 0.000000 0.000000
# 2 -0.005413 0.019786 -0.004254 0.000000 0.000000 0.000000
# 3 -0.003395 -0.004254 0.017380 0.000000 0.000000 0.000000
# 4 0.000000 0.000000 0.000000 0.050202 0.000000 0.000000
# 5 0.000000 0.000000 0.000000 0.000000 0.051130 0.000000
# 6 0.000000 0.000000 0.000000 0.000000 0.000000 0.029519
#
#
# Mechanical properties :
#
#
# Convention : Reuss Voigt Hill
#
# Bulk Modulus (GPa) = 48.26932 57.12084 52.69508
# Shear Modulus (GPa) = 23.72785 26.07330 24.90057
#
# Velocity S-wave (km/s) = 3.39918 3.56323 3.48217
# Velocity P-wave (km/s) = 6.23787 6.68911 6.46743
#
# Compressibility (1/GPa) = 0.02071709
#
# Stress axis : x y z
#
# Youngs Moduli (GPa) = 103.34477 50.54141 57.53849
#
# Poissons Ratio (x) = 0.27359 0.19536
# Poissons Ratio (y) = 0.55943 0.24476
# Poissons Ratio (z) = 0.35089 0.21499
#
# Static dielectric constant tensor:
#      x y z
#    x 4.069210 0.000000 0.000000 
#    y 0.000000 3.763460 0.000000 
#    z 0.000000 0.000000 3.547680 
# 
# 
# High freq. dielectric constant tensor:
#      x y z
#    x 1.813170 0.000000 0.000000 
#    y 0.000000 1.807100 0.000000 
#    z 0.000000 0.000000 1.781510 
# 
# From -- ./inp_files/31923.got.cif
#   From: 2010.03.12/outbox.cif.g09.slc.cpg/sg63_16_cif.got.tgz:31923.got - 2010.04.10 19:34:48.
