data_PCOD8259447
_publ_section_title
;
Structure prediction by ZEFSAII (Michael W. Deem and Ramdas Pophale) SiO2 
 PCOD8259447
Probable space group: C M C M
;
_chemical_formula_sum "Si O2"
_cell_formula_units_Z 80
_cell_length_a 9.443336
_cell_length_b 15.426860
_cell_length_c 28.734344
_cell_angle_alpha 90.000000
_cell_angle_beta 90.000000
_cell_angle_gamma 90.000000
_cell_volume 4186.048612
_symmetry_space_group_name_H-M "C M C M"
_symmetry_group_IT_number 63
_symmetry_cell_setting 'orthorhombic'
loop_
_space_group_symop_operation_xyz
x,y,z
-x,-y,1/2+z
x,-y,-z
-x,y,1/2-z
-x,-y,-z
x,y,1/2-z
-x,y,z
x,-y,1/2+z
1/2+x,1/2+y,z
1/2-x,1/2-y,1/2+z
1/2+x,1/2-y,-z
1/2-x,1/2+y,1/2-z
1/2-x,1/2-y,-z
1/2+x,1/2+y,1/2-z
1/2-x,1/2+y,z
1/2+x,1/2-y,1/2+z
loop_
_atom_site_type_symbol
_atom_site_label
_atom_site_fract_x
_atom_site_fract_y
_atom_site_fract_z
Si Si1 0.164000 0.154843 0.350163
Si Si2 0.835929 0.654539 0.864933
Si Si3 0.335496 0.006976 0.303446
Si Si4 0.832505 0.893801 0.450529
Si Si5 0.833212 0.090586 0.448086
O O1 0.186106 0.255530 0.336534
O O2 0.252062 0.094199 0.315892
O O3 0.218870 0.144256 0.403441
O O4 0.000000 0.127286 0.346146
O O5 0.780740 0.574987 0.833414
O O6 0.748914 0.663406 0.912686
O O7 0.000000 0.642873 0.877845
O O8 0.306598 0.983901 0.250000
O O9 0.500000 0.024475 0.312930
O O10 0.781100 0.867580 0.502897
O O11 0.000000 0.881475 0.443432
O O12 0.781224 0.992249 0.442186
O O13 0.000000 0.087993 0.451842
#
# Coordination Sequence:
#
# PCOD8259447 Si02
#       5
#    16  16  16  16  16
#     4  10  20  36  58  82 107 139 182 221 257 315
#     4  10  21  35  54  82 112 138 171 221 273 315
#     4  10  22  40  57  75 105 139 170 216 278 327
#     4   9  16  30  53  77 107 148 184 213 255 311
#     4   8  15  29  51  78 107 143 182 219 256 301
#
# _framework density 19.111101000000001
#
# number of rings (size 3 to 8) (size 9 to 14) (size 15 to 20)
#    0.000    2.600    2.000    1.200    0.000    2.800 
#    0.000    5.000    0.000    0.000    0.000    0.000 
#    0.000    0.000    0.000    0.000    0.000    0.000 
#
# Total GULP energy -495817.804900 kJ/mol
# GULP energy per Si atom -12395.445123 kJ/mol
# Density = 1.906760 g / cm^3
# Si number density = 19.111101 Si / 1000 Ang^3
#
#
#
# Elastic Constant Matrix: (Units=GPa)
#
#
# Indices 1 2 3 4 5 6 
#
# 1 41.0303 25.0866 31.8588 0.0000 0.0000 0.0000
# 2 25.0866 78.1941 27.3956 0.0000 0.0000 0.0000
# 3 31.8588 27.3956 87.4411 0.0000 0.0000 0.0000
# 4 0.0000 0.0000 0.0000 16.8436 0.0000 0.0000
# 5 0.0000 0.0000 0.0000 0.0000 29.5718 0.0000
# 6 0.0000 0.0000 0.0000 0.0000 0.0000 24.6692
#
#
#
# Elastic Compliance Matrix: (Units=1/GPa)
#
#
# Indices 1 2 3 4 5 6 
#
# 1 0.038248 -0.008300 -0.011335 0.000000 0.000000 0.000000
# 2 -0.008300 0.016167 -0.002041 0.000000 0.000000 0.000000
# 3 -0.011335 -0.002041 0.016206 0.000000 0.000000 0.000000
# 4 0.000000 0.000000 0.000000 0.059370 0.000000 0.000000
# 5 0.000000 0.000000 0.000000 0.000000 0.033816 0.000000
# 6 0.000000 0.000000 0.000000 0.000000 0.000000 0.040536
#
#
# Mechanical properties :
#
#
# Convention : Reuss Voigt Hill
#
# Bulk Modulus (GPa) = 36.67240 41.70528 39.18884
# Shear Modulus (GPa) = 19.47160 22.37188 20.92174
#
# Velocity S-wave (km/s) = 3.19543 3.42515 3.31228
# Velocity P-wave (km/s) = 5.73106 6.12471 5.93115
#
# Compressibility (1/GPa) = 0.02726846
#
# Stress axis : x y z
#
# Youngs Moduli (GPa) = 26.14498 61.85618 61.70664
#
# Poissons Ratio (x) = 0.51338 0.69946
# Poissons Ratio (y) = 0.21699 0.12595
# Poissons Ratio (z) = 0.29636 0.12625
#
# Static dielectric constant tensor:
#      x y z
#    x 3.163660 0.000000 0.000000 
#    y 0.000000 3.458640 0.000000 
#    z 0.000000 0.000000 3.699580 
# 
# 
# High freq. dielectric constant tensor:
#      x y z
#    x 1.712170 0.000000 0.000000 
#    y 0.000000 1.739650 0.000000 
#    z 0.000000 0.000000 1.744050 
# 
# From -- ./inp_files/61107.got.cif
#   From: 2010.03.12/outbox.cif.g09.slc.cpg/sg63_31_cif.got.tgz:61107.got - 2010.04.10 19:34:48.
