data_PCOD8259119
_publ_section_title
;
Structure prediction by ZEFSAII (Michael W. Deem and Ramdas Pophale) SiO2 
 PCOD8259119
Probable space group: C M C M
;
_chemical_formula_sum "Si O2"
_cell_formula_units_Z 112
_cell_length_a 23.557176
_cell_length_b 14.685576
_cell_length_c 14.692601
_cell_angle_alpha 90.000000
_cell_angle_beta 90.000000
_cell_angle_gamma 90.000000
_cell_volume 5082.915579
_symmetry_space_group_name_H-M "C M C M"
_symmetry_group_IT_number 63
_symmetry_cell_setting 'orthorhombic'
loop_
_space_group_symop_operation_xyz
x,y,z
-x,-y,1/2+z
x,-y,-z
-x,y,1/2-z
-x,-y,-z
x,y,1/2-z
-x,y,z
x,-y,1/2+z
1/2+x,1/2+y,z
1/2-x,1/2-y,1/2+z
1/2+x,1/2-y,-z
1/2-x,1/2+y,1/2-z
1/2-x,1/2-y,-z
1/2+x,1/2+y,1/2-z
1/2-x,1/2+y,z
1/2+x,1/2-y,1/2+z
loop_
_atom_site_type_symbol
_atom_site_label
_atom_site_fract_x
_atom_site_fract_y
_atom_site_fract_z
Si Si1 0.564999 0.800805 0.534022
Si Si2 0.435072 0.379475 0.146180
Si Si3 0.243551 0.710607 0.854175
Si Si4 0.117779 0.248317 0.355111
Si Si5 0.743085 0.997021 0.099651
Si Si6 0.664796 0.148105 0.351353
Si Si7 0.138078 0.046269 0.354156
O O1 0.500000 0.832172 0.551616
O O2 0.577727 0.703231 0.579114
O O3 0.575366 0.799051 0.424886
O O4 0.609453 0.867373 0.584746
O O5 0.417335 0.354023 0.250000
O O6 0.500000 0.408882 0.143492
O O7 0.400590 0.465293 0.107067
O O8 0.242395 0.740498 0.750000
O O9 0.181194 0.732400 0.892683
O O10 0.256062 0.603904 0.864258
O O11 0.293369 0.774377 0.896964
O O12 0.108721 0.282203 0.250000
O O13 0.104716 0.141127 0.362739
O O14 0.697966 0.052260 0.160046
O O15 0.802397 0.051282 0.093447
O O16 0.715877 0.000000 0.000000
O O17 0.644777 0.177076 0.250000
O O18 0.153523 0.026011 0.250000
#
# Coordination Sequence:
#
# PCOD8259119 Si02
#       7
#    16  16  16  16  16  16  16
#     4  11  24  39  60  88 119 159 211 259 309 376
#     4   9  19  35  55  82 117 158 204 253 302 361
#     4  10  21  39  62  89 122 162 204 254 311 373
#     4  10  22  39  59  83 122 164 205 255 310 373
#     4  12  24  34  59  94 126 162 201 254 313 379
#     4  11  23  41  65  93 129 166 205 260 319 375
#     4  10  20  35  54  82 121 163 204 246 301 373
#
# _framework density 22.034597999999999
#
# number of rings (size 3 to 8) (size 9 to 14) (size 15 to 20)
#    0.000    1.571    1.429    3.429    4.000    5.143 
#    0.000    2.857    0.000    3.857    0.000    4.000 
#    0.000    0.000    0.000    0.000    0.000    0.000 
#
# Total GULP energy -694288.826190 kJ/mol
# GULP energy per Si atom -12398.014753 kJ/mol
# Density = 2.198445 g / cm^3
# Si number density = 22.034598 Si / 1000 Ang^3
#
#
#
# Elastic Constant Matrix: (Units=GPa)
#
#
# Indices 1 2 3 4 5 6 
#
# 1 103.7541 14.6421 32.3509 0.0000 0.0000 0.0000
# 2 14.6421 57.2922 7.1670 0.0000 0.0000 0.0000
# 3 32.3509 7.1670 87.1078 0.0000 0.0000 0.0000
# 4 0.0000 0.0000 0.0000 18.9705 0.0000 0.0000
# 5 0.0000 0.0000 0.0000 0.0000 31.2640 0.0000
# 6 0.0000 0.0000 0.0000 0.0000 0.0000 33.8727
#
#
#
# Elastic Compliance Matrix: (Units=1/GPa)
#
#
# Indices 1 2 3 4 5 6 
#
# 1 0.011210 -0.002368 -0.003968 0.000000 0.000000 0.000000
# 2 -0.002368 0.018136 -0.000613 0.000000 0.000000 0.000000
# 3 -0.003968 -0.000613 0.013004 0.000000 0.000000 0.000000
# 4 0.000000 0.000000 0.000000 0.052713 0.000000 0.000000
# 5 0.000000 0.000000 0.000000 0.000000 0.031986 0.000000
# 6 0.000000 0.000000 0.000000 0.000000 0.000000 0.029522
#
#
# Mechanical properties :
#
#
# Convention : Reuss Voigt Hill
#
# Bulk Modulus (GPa) = 35.14744 39.60825 37.37784
# Shear Modulus (GPa) = 27.78485 29.75439 28.76962
#
# Velocity S-wave (km/s) = 3.55486 3.67870 3.61731
# Velocity P-wave (km/s) = 5.73018 6.00485 5.86912
#
# Compressibility (1/GPa) = 0.02845157
#
# Stress axis : x y z
#
# Youngs Moduli (GPa) = 89.20800 55.13801 76.89813
#
# Poissons Ratio (x) = 0.13059 0.30516
# Poissons Ratio (y) = 0.21129 0.04711
# Poissons Ratio (z) = 0.35401 0.03378
#
# Static dielectric constant tensor:
#      x y z
#    x 3.892850 0.000000 0.000000 
#    y 0.000000 3.667350 0.000000 
#    z 0.000000 0.000000 3.930790 
# 
# 
# High freq. dielectric constant tensor:
#      x y z
#    x 1.854980 0.000000 0.000000 
#    y 0.000000 1.841740 0.000000 
#    z 0.000000 0.000000 1.868940 
# 
# From -- ./inp_files/36868.got.cif
#   From: 2010.03.12/outbox.cif.g09.slc.cpg/sg63_19_cif.got.tgz:36868.got - 2010.04.10 19:34:48.
