data_PCOD8259354
_publ_section_title
;
Structure prediction by ZEFSAII (Michael W. Deem and Ramdas Pophale) SiO2 
 PCOD8259354
Probable space group: C M C M
;
_chemical_formula_sum "Si O2"
_cell_formula_units_Z 88
_cell_length_a 26.289470
_cell_length_b 19.335800
_cell_length_c 9.598956
_cell_angle_alpha 90.000000
_cell_angle_beta 90.000000
_cell_angle_gamma 90.000000
_cell_volume 4879.417472
_symmetry_space_group_name_H-M "C M C M"
_symmetry_group_IT_number 63
_symmetry_cell_setting 'orthorhombic'
loop_
_space_group_symop_operation_xyz
x,y,z
-x,-y,1/2+z
x,-y,-z
-x,y,1/2-z
-x,-y,-z
x,y,1/2-z
-x,y,z
x,-y,1/2+z
1/2+x,1/2+y,z
1/2-x,1/2-y,1/2+z
1/2+x,1/2-y,-z
1/2-x,1/2+y,1/2-z
1/2-x,1/2-y,-z
1/2+x,1/2+y,1/2-z
1/2-x,1/2+y,z
1/2+x,1/2-y,1/2+z
loop_
_atom_site_type_symbol
_atom_site_label
_atom_site_fract_x
_atom_site_fract_y
_atom_site_fract_z
Si Si1 0.093825 0.665752 0.414895
Si Si2 0.407908 0.677859 0.585779
Si Si3 0.442143 0.441037 0.595536
Si Si4 0.706565 0.671806 0.902945
Si Si5 0.294516 0.163708 0.404824
Si Si6 0.500000 0.071024 0.083647
O O1 0.097597 0.667627 0.250000
O O2 0.081295 0.743578 0.463677
O O3 0.150051 0.642746 0.469391
O O4 0.049989 0.613414 0.464681
O O5 0.420591 0.668434 0.750000
O O6 0.442518 0.631097 0.487736
O O7 0.350490 0.653375 0.551589
O O8 0.414928 0.500000 0.500000
O O9 0.416250 0.435566 0.750000
O O10 0.500000 0.463148 0.619326
O O11 0.718008 0.642278 0.750000
O O12 0.710208 0.754159 0.900227
O O13 0.748107 0.635226 0.002294
O O14 0.288404 0.132565 0.250000
O O15 0.500000 0.058071 0.250000
O O16 0.500000 0.000000 0.000000
#
# Coordination Sequence:
#
# PCOD8259354 Si02
#       6
#    16  16  16  16  16   8
#     4   8  16  30  50  74  96 125 165 204 243 293
#     4   9  17  30  50  75  99 126 163 204 242 287
#     4  10  21  35  49  68  96 131 166 199 236 281
#     4   8  14  24  40  67  99 124 150 191 242 288
#     4   8  13  24  42  65  93 123 158 195 234 287
#     4  10  20  36  54  72  97 130 165 204 253 302
#
# _framework density 18.034941
#
# number of rings (size 3 to 8) (size 9 to 14) (size 15 to 20)
#    0.000    3.273    0.000    2.727    1.273    1.818 
#    0.000    4.545    0.000    1.091    0.000    5.091 
#    0.000    0.000    0.000    0.000    0.000    0.000 
#
# Total GULP energy -545138.673211 kJ/mol
# GULP energy per Si atom -12389.515300 kJ/mol
# Density = 1.799389 g / cm^3
# Si number density = 18.034941 Si / 1000 Ang^3
#
#
#
# Elastic Constant Matrix: (Units=GPa)
#
#
# Indices 1 2 3 4 5 6 
#
# 1 95.6188 35.8470 39.7740 0.0000 0.0000 0.0000
# 2 35.8470 78.1264 41.9408 0.0000 0.0000 0.0000
# 3 39.7740 41.9408 85.8925 0.0000 0.0000 0.0000
# 4 0.0000 0.0000 0.0000 22.1723 0.0000 0.0000
# 5 0.0000 0.0000 0.0000 0.0000 27.4510 0.0000
# 6 0.0000 0.0000 0.0000 0.0000 0.0000 5.1834
#
#
#
# Elastic Compliance Matrix: (Units=1/GPa)
#
#
# Indices 1 2 3 4 5 6 
#
# 1 0.013789 -0.003929 -0.004467 0.000000 0.000000 0.000000
# 2 -0.003929 0.018466 -0.007198 0.000000 0.000000 0.000000
# 3 -0.004467 -0.007198 0.017225 0.000000 0.000000 0.000000
# 4 0.000000 0.000000 0.000000 0.045101 0.000000 0.000000
# 5 0.000000 0.000000 0.000000 0.000000 0.036429 0.000000
# 6 0.000000 0.000000 0.000000 0.000000 0.000000 0.192923
#
#
# Mechanical properties :
#
#
# Convention : Reuss Voigt Hill
#
# Bulk Modulus (GPa) = 54.66229 54.97349 54.81789
# Shear Modulus (GPa) = 13.84203 20.43308 17.13755
#
# Velocity S-wave (km/s) = 2.77341 3.36962 3.08594
# Velocity P-wave (km/s) = 6.37421 6.75921 6.56953
#
# Compressibility (1/GPa) = 0.01829415
#
# Stress axis : x y z
#
# Youngs Moduli (GPa) = 72.52054 54.15225 58.05360
#
# Poissons Ratio (x) = 0.21276 0.25931
# Poissons Ratio (y) = 0.28493 0.41785
# Poissons Ratio (z) = 0.32394 0.38977
#
# Static dielectric constant tensor:
#      x y z
#    x 3.639390 0.000000 0.000000 
#    y 0.000000 2.940010 0.000000 
#    z 0.000000 0.000000 3.449070 
# 
# 
# High freq. dielectric constant tensor:
#      x y z
#    x 1.698900 0.000000 0.000000 
#    y 0.000000 1.654200 0.000000 
#    z 0.000000 0.000000 1.681880 
# 
# From -- ./inp_files/14202.got.cif
#   From: 2010.03.12/outbox.cif.g09.slc.cpg/sg63_8_cif.got.tgz:14202.got - 2010.04.10 19:34:48.
