data_PCOD8259132
_publ_section_title
;
Structure prediction by ZEFSAII (Michael W. Deem and Ramdas Pophale) SiO2 
 PCOD8259132
Probable space group: C M C M
;
_chemical_formula_sum "Si O2"
_cell_formula_units_Z 80
_cell_length_a 18.270307
_cell_length_b 25.800717
_cell_length_c 8.814465
_cell_angle_alpha 90.000000
_cell_angle_beta 90.000000
_cell_angle_gamma 90.000000
_cell_volume 4155.024393
_symmetry_space_group_name_H-M "C M C M"
_symmetry_group_IT_number 63
_symmetry_cell_setting 'orthorhombic'
loop_
_space_group_symop_operation_xyz
x,y,z
-x,-y,1/2+z
x,-y,-z
-x,y,1/2-z
-x,-y,-z
x,y,1/2-z
-x,y,z
x,-y,1/2+z
1/2+x,1/2+y,z
1/2-x,1/2-y,1/2+z
1/2+x,1/2-y,-z
1/2-x,1/2+y,1/2-z
1/2-x,1/2-y,-z
1/2+x,1/2+y,1/2-z
1/2-x,1/2+y,z
1/2+x,1/2-y,1/2+z
loop_
_atom_site_type_symbol
_atom_site_label
_atom_site_fract_x
_atom_site_fract_y
_atom_site_fract_z
Si Si1 0.581883 0.250950 0.070023
Si Si2 0.416247 0.554336 0.428395
Si Si3 0.674101 0.152313 0.429962
Si Si4 0.082920 0.447101 0.928758
Si Si5 0.168318 0.148551 0.570258
O O1 0.578169 0.251217 0.250000
O O2 0.500000 0.249752 0.001495
O O3 0.625018 0.200339 0.014728
O O4 0.622383 0.302277 0.010547
O O5 0.392360 0.500000 0.500000
O O6 0.404787 0.550843 0.250000
O O7 0.500000 0.567561 0.471525
O O8 0.363747 0.597464 0.495303
O O9 0.688090 0.153470 0.250000
O O10 0.633317 0.100151 0.482159
O O11 0.749138 0.156399 0.519156
O O12 0.084922 0.452848 0.750000
O O13 0.000000 0.436843 0.985446
O O14 0.114285 0.500000 0.000000
O O15 0.163886 0.143173 0.750000
#
# Coordination Sequence:
#
# PCOD8259132 Si02
#       5
#    16  16  16  16  16
#     4   9  18  34  57  81 104 137 183 231 278 328
#     4  10  21  38  60  84 110 142 182 226 270 319
#     4  10  20  35  55  78 107 142 182 227 272 323
#     4   9  18  33  54  78 103 135 176 221 268 318
#     4  11  22  35  54  81 114 147 179 220 272 330
#
# _framework density 19.253798
#
# number of rings (size 3 to 8) (size 9 to 14) (size 15 to 20)
#    0.000    2.200    0.000    3.000    0.000    6.000 
#    0.000    3.000    0.000    4.200    0.000    0.000 
#    0.000    0.000    0.000    0.000    0.000    0.000 
#
# Total GULP energy -496123.571709 kJ/mol
# GULP energy per Si atom -12403.089293 kJ/mol
# Density = 1.920998 g / cm^3
# Si number density = 19.253798 Si / 1000 Ang^3
#
#
#
# Elastic Constant Matrix: (Units=GPa)
#
#
# Indices 1 2 3 4 5 6 
#
# 1 143.3622 93.4534 30.2299 0.0000 0.0000 0.0000
# 2 93.4534 174.6440 36.6553 0.0000 0.0000 0.0000
# 3 30.2299 36.6553 40.4165 0.0000 0.0000 0.0000
# 4 0.0000 0.0000 0.0000 23.9510 0.0000 0.0000
# 5 0.0000 0.0000 0.0000 0.0000 31.0422 0.0000
# 6 0.0000 0.0000 0.0000 0.0000 0.0000 25.0672
#
#
#
# Elastic Compliance Matrix: (Units=1/GPa)
#
#
# Indices 1 2 3 4 5 6 
#
# 1 0.011122 -0.005194 -0.003608 0.000000 0.000000 0.000000
# 2 -0.005194 0.009498 -0.004729 0.000000 0.000000 0.000000
# 3 -0.003608 -0.004729 0.031730 0.000000 0.000000 0.000000
# 4 0.000000 0.000000 0.000000 0.041752 0.000000 0.000000
# 5 0.000000 0.000000 0.000000 0.000000 0.032214 0.000000
# 6 0.000000 0.000000 0.000000 0.000000 0.000000 0.039893
#
#
# Mechanical properties :
#
#
# Convention : Reuss Voigt Hill
#
# Bulk Modulus (GPa) = 39.54522 75.45555 57.50039
# Shear Modulus (GPa) = 24.78920 29.21767 27.00344
#
# Velocity S-wave (km/s) = 3.59206 3.89974 3.74906
# Velocity P-wave (km/s) = 6.14715 7.71701 6.97638
#
# Compressibility (1/GPa) = 0.02528750
#
# Stress axis : x y z
#
# Youngs Moduli (GPa) = 89.91089 105.28561 31.51595
#
# Poissons Ratio (x) = 0.54688 0.11371
# Poissons Ratio (y) = 0.46702 0.14904
# Poissons Ratio (z) = 0.32440 0.49790
#
# Static dielectric constant tensor:
#      x y z
#    x 3.648370 0.000000 0.000000 
#    y 0.000000 3.733920 0.000000 
#    z 0.000000 0.000000 3.282610 
# 
# 
# High freq. dielectric constant tensor:
#      x y z
#    x 1.755850 0.000000 0.000000 
#    y 0.000000 1.766940 0.000000 
#    z 0.000000 0.000000 1.727910 
# 
# From -- ./inp_files/6405.got.cif
#   From: 2010.03.12/outbox.cif.g09.slc.cpg/sg63_4_cif.got.tgz:6405.got - 2010.04.10 19:34:48.
