data_PCOD8259488
_publ_section_title
;
Structure prediction by ZEFSAII (Michael W. Deem and Ramdas Pophale) SiO2 
 PCOD8259488
Probable space group: C M C M
;
_chemical_formula_sum "Si O2"
_cell_formula_units_Z 80
_cell_length_a 15.709021
_cell_length_b 27.017168
_cell_length_c 9.250874
_cell_angle_alpha 90.000000
_cell_angle_beta 90.000000
_cell_angle_gamma 90.000000
_cell_volume 3926.193587
_symmetry_space_group_name_H-M "C M C M"
_symmetry_group_IT_number 63
_symmetry_cell_setting 'orthorhombic'
loop_
_space_group_symop_operation_xyz
x,y,z
-x,-y,1/2+z
x,-y,-z
-x,y,1/2-z
-x,-y,-z
x,y,1/2-z
-x,y,z
x,-y,1/2+z
1/2+x,1/2+y,z
1/2-x,1/2-y,1/2+z
1/2+x,1/2-y,-z
1/2-x,1/2+y,1/2-z
1/2-x,1/2-y,-z
1/2+x,1/2+y,1/2-z
1/2-x,1/2+y,z
1/2+x,1/2-y,1/2+z
loop_
_atom_site_type_symbol
_atom_site_label
_atom_site_fract_x
_atom_site_fract_y
_atom_site_fract_z
Si Si1 0.334631 0.233542 0.919327
Si Si2 0.500000 0.607163 0.921072
Si Si3 0.500000 0.278425 0.074848
Si Si4 0.833125 0.948447 0.080328
Si Si5 0.403107 0.042281 0.404819
Si Si6 0.828276 0.382873 0.411856
O O1 0.336752 0.250170 0.750000
O O2 0.329299 0.175021 0.930696
O O3 0.250000 0.250000 0.000000
O O4 0.416651 0.253389 0.004975
O O5 0.500000 0.608059 0.750000
O O6 0.500000 0.664198 0.972903
O O7 0.418352 0.577646 0.979894
O O8 0.500000 0.271674 0.250000
O O9 0.839553 0.959344 0.250000
O O10 0.760789 0.908073 0.044249
O O11 0.817165 0.000000 0.000000
O O12 0.356228 0.044332 0.250000
O O13 0.500000 0.026987 0.381116
O O14 0.399573 0.095235 0.482188
O O15 0.356152 0.000000 0.500000
O O16 0.853087 0.398125 0.250000
#
# Coordination Sequence:
#
# PCOD8259488 Si02
#       6
#    16   8   8  16  16  16
#     4  11  24  43  65  93 126 166 214 267 324 386
#     4   9  19  38  62  84 116 159 199 240 303 376
#     4  11  23  42  68  94 125 169 216 268 325 386
#     4  10  20  36  58  86 117 154 197 243 297 364
#     4  10  21  36  55  81 112 148 191 236 287 348
#     4  10  22  38  58  82 116 157 199 244 300 364
#
# _framework density 20.375969999999999
#
# number of rings (size 3 to 8) (size 9 to 14) (size 15 to 20)
#    0.000    1.800    0.000    3.600    1.400    8.400 
#    0.000    4.000    0.000    0.000    0.000    0.000 
#    0.000    0.000    0.000    0.000    0.000    0.000 
#
# Total GULP energy -495811.400842 kJ/mol
# GULP energy per Si atom -12395.285021 kJ/mol
# Density = 2.032959 g / cm^3
# Si number density = 20.375970 Si / 1000 Ang^3
#
#
#
# Elastic Constant Matrix: (Units=GPa)
#
#
# Indices 1 2 3 4 5 6 
#
# 1 105.1799 41.1884 52.3663 0.0000 0.0000 0.0000
# 2 41.1884 109.6687 65.7007 0.0000 0.0000 0.0000
# 3 52.3663 65.7007 140.2378 0.0000 0.0000 0.0000
# 4 0.0000 0.0000 0.0000 36.0573 0.0000 0.0000
# 5 0.0000 0.0000 0.0000 0.0000 22.9747 0.0000
# 6 0.0000 0.0000 0.0000 0.0000 0.0000 39.4718
#
#
#
# Elastic Compliance Matrix: (Units=1/GPa)
#
#
# Indices 1 2 3 4 5 6 
#
# 1 0.012179 -0.002571 -0.003343 0.000000 0.000000 0.000000
# 2 -0.002571 0.013219 -0.005233 0.000000 0.000000 0.000000
# 3 -0.003343 -0.005233 0.010831 0.000000 0.000000 0.000000
# 4 0.000000 0.000000 0.000000 0.027734 0.000000 0.000000
# 5 0.000000 0.000000 0.000000 0.000000 0.043526 0.000000
# 6 0.000000 0.000000 0.000000 0.000000 0.000000 0.025335
#
#
# Mechanical properties :
#
#
# Convention : Reuss Voigt Hill
#
# Bulk Modulus (GPa) = 71.76661 74.84411 73.30536
# Shear Modulus (GPa) = 31.29655 32.75617 32.02636
#
# Velocity S-wave (km/s) = 3.92338 4.01382 3.96886
# Velocity P-wave (km/s) = 7.47138 7.63494 7.55360
#
# Compressibility (1/GPa) = 0.01393406
#
# Stress axis : x y z
#
# Youngs Moduli (GPa) = 82.10958 75.64869 92.33025
#
# Poissons Ratio (x) = 0.19451 0.30867
# Poissons Ratio (y) = 0.21112 0.48316
# Poissons Ratio (z) = 0.27450 0.39586
#
# Static dielectric constant tensor:
#      x y z
#    x 3.809490 0.000000 0.000000 
#    y 0.000000 3.814660 0.000000 
#    z 0.000000 0.000000 4.017270 
# 
# 
# High freq. dielectric constant tensor:
#      x y z
#    x 1.802700 0.000000 0.000000 
#    y 0.000000 1.805160 0.000000 
#    z 0.000000 0.000000 1.797470 
# 
# From -- ./inp_files/6493.got.cif
#   From: 2010.03.12/outbox.cif.g09.slc.cpg/sg63_4_cif.got.tgz:6493.got - 2010.04.10 19:34:48.
