data_PCOD8259667
_publ_section_title
;
Structure prediction by ZEFSAII (Michael W. Deem and Ramdas Pophale) SiO2 
 PCOD8259667
Probable space group: C M C M
;
_chemical_formula_sum "Si O2"
_cell_formula_units_Z 96
_cell_length_a 18.114417
_cell_length_b 29.558994
_cell_length_c 8.795380
_cell_angle_alpha 90.000000
_cell_angle_beta 90.000000
_cell_angle_gamma 90.000000
_cell_volume 4709.432951
_symmetry_space_group_name_H-M "C M C M"
_symmetry_group_IT_number 63
_symmetry_cell_setting 'orthorhombic'
loop_
_space_group_symop_operation_xyz
x,y,z
-x,-y,1/2+z
x,-y,-z
-x,y,1/2-z
-x,-y,-z
x,y,1/2-z
-x,y,z
x,-y,1/2+z
1/2+x,1/2+y,z
1/2-x,1/2-y,1/2+z
1/2+x,1/2-y,-z
1/2-x,1/2+y,1/2-z
1/2-x,1/2-y,-z
1/2+x,1/2+y,1/2-z
1/2-x,1/2+y,z
1/2+x,1/2-y,1/2+z
loop_
_atom_site_type_symbol
_atom_site_label
_atom_site_fract_x
_atom_site_fract_y
_atom_site_fract_z
Si Si1 0.586285 0.790583 0.415779
Si Si2 0.694688 0.045323 0.072870
Si Si3 0.585468 0.891711 0.421598
Si Si4 0.148376 0.047497 0.569836
Si Si5 0.319729 0.725159 0.576107
Si Si6 0.916810 0.142429 0.930700
O O1 0.610404 0.770728 0.250000
O O2 0.500000 0.793601 0.426519
O O3 0.617284 0.841092 0.430258
O O4 0.614023 0.760402 0.554562
O O5 0.711561 0.039361 0.250000
O O6 0.632488 0.082398 0.046788
O O7 0.769627 0.058100 0.986948
O O8 0.661857 0.000000 0.000000
O O9 0.596876 0.910604 0.250000
O O10 0.500000 0.894847 0.468120
O O11 0.148047 0.042108 0.750000
O O12 0.099852 0.090760 0.518021
O O13 0.118168 0.000000 0.500000
O O14 0.298895 0.717954 0.750000
O O15 0.250000 0.750000 0.500000
O O16 0.352894 0.677469 0.507998
O O17 0.915843 0.146045 0.750000
O O18 0.000000 0.154750 0.990266
#
# Coordination Sequence:
#
# PCOD8259667 Si02
#       6
#    16  16  16  16  16  16
#     4   9  19  37  59  82 112 150 189 234 290 347
#     4  11  22  36  55  80 112 149 191 239 291 349
#     4   9  19  36  57  80 109 148 192 236 289 351
#     4  10  20  37  61  87 116 152 193 239 294 354
#     4  11  23  38  58  87 119 156 199 243 289 344
#     4   9  20  39  62  87 117 156 197 237 289 354
#
# _framework density 20.384620000000002
#
# number of rings (size 3 to 8) (size 9 to 14) (size 15 to 20)
#    0.000    2.167    0.000    5.000    2.333    2.667 
#    0.000    4.167    0.000    5.500    0.000    0.000 
#    0.000    0.000    0.000    0.000    0.000    0.000 
#
# Total GULP energy -594739.307017 kJ/mol
# GULP energy per Si atom -12390.402230 kJ/mol
# Density = 2.033822 g / cm^3
# Si number density = 20.384620 Si / 1000 Ang^3
#
#
#
# Elastic Constant Matrix: (Units=GPa)
#
#
# Indices 1 2 3 4 5 6 
#
# 1 69.7609 72.8453 24.2327 0.0000 0.0000 0.0000
# 2 72.8453 133.2537 37.5767 0.0000 0.0000 0.0000
# 3 24.2327 37.5767 66.3639 0.0000 0.0000 0.0000
# 4 0.0000 0.0000 0.0000 32.0043 0.0000 0.0000
# 5 0.0000 0.0000 0.0000 0.0000 28.4633 0.0000
# 6 0.0000 0.0000 0.0000 0.0000 0.0000 41.4867
#
#
#
# Elastic Compliance Matrix: (Units=1/GPa)
#
#
# Indices 1 2 3 4 5 6 
#
# 1 0.033676 -0.017781 -0.002229 0.000000 0.000000 0.000000
# 2 -0.017781 0.018319 -0.003880 0.000000 0.000000 0.000000
# 3 -0.002229 -0.003880 0.018079 0.000000 0.000000 0.000000
# 4 0.000000 0.000000 0.000000 0.031246 0.000000 0.000000
# 5 0.000000 0.000000 0.000000 0.000000 0.035133 0.000000
# 6 0.000000 0.000000 0.000000 0.000000 0.000000 0.024104
#
#
# Mechanical properties :
#
#
# Convention : Reuss Voigt Hill
#
# Bulk Modulus (GPa) = 44.85349 59.85420 52.35384
# Shear Modulus (GPa) = 23.17302 29.37245 26.27273
#
# Velocity S-wave (km/s) = 3.37529 3.80005 3.59395
# Velocity P-wave (km/s) = 6.10258 6.97711 6.55445
#
# Compressibility (1/GPa) = 0.02229481
#
# Stress axis : x y z
#
# Youngs Moduli (GPa) = 29.69454 54.58837 55.31250
#
# Poissons Ratio (x) = 0.97064 0.12328
# Poissons Ratio (y) = 0.52800 0.21460
# Poissons Ratio (z) = 0.06618 0.21179
#
# Static dielectric constant tensor:
#      x y z
#    x 3.689250 0.000000 0.000000 
#    y 0.000000 4.395420 0.000000 
#    z 0.000000 0.000000 3.347890 
# 
# 
# High freq. dielectric constant tensor:
#      x y z
#    x 1.796110 0.000000 0.000000 
#    y 0.000000 1.805580 0.000000 
#    z 0.000000 0.000000 1.774870 
# 
# From -- ./inp_files/8611.got.cif
#   From: 2010.03.12/outbox.cif.g09.slc.cpg/sg63_5_cif.got.tgz:8611.got - 2010.04.10 19:34:48.
