data_PCOD8259837
_publ_section_title
;
Structure prediction by ZEFSAII (Michael W. Deem and Ramdas Pophale) SiO2 
 PCOD8259837
Probable space group: C M C M
;
_chemical_formula_sum "Si O2"
_cell_formula_units_Z 76
_cell_length_a 7.888046
_cell_length_b 29.333890
_cell_length_c 16.268884
_cell_angle_alpha 90.000000
_cell_angle_beta 90.000000
_cell_angle_gamma 90.000000
_cell_volume 3764.409461
_symmetry_space_group_name_H-M "C M C M"
_symmetry_group_IT_number 63
_symmetry_cell_setting 'orthorhombic'
loop_
_space_group_symop_operation_xyz
x,y,z
-x,-y,1/2+z
x,-y,-z
-x,y,1/2-z
-x,-y,-z
x,y,1/2-z
-x,y,z
x,-y,1/2+z
1/2+x,1/2+y,z
1/2-x,1/2-y,1/2+z
1/2+x,1/2-y,-z
1/2-x,1/2+y,1/2-z
1/2-x,1/2-y,-z
1/2+x,1/2+y,1/2-z
1/2-x,1/2+y,z
1/2+x,1/2-y,1/2+z
loop_
_atom_site_type_symbol
_atom_site_label
_atom_site_fract_x
_atom_site_fract_y
_atom_site_fract_z
Si Si1 0.807642 0.773809 0.914979
Si Si2 0.000000 0.387262 0.412845
Si Si3 0.688966 0.627599 0.477256
Si Si4 0.309716 0.527694 0.416354
Si Si5 0.000000 0.518077 0.841772
Si Si6 0.500000 0.165351 0.750000
Si Si7 0.687773 0.268320 0.250000
O O1 0.792155 0.828422 0.919562
O O2 0.701207 0.760608 0.834378
O O3 0.000000 0.758208 0.899105
O O4 0.750000 0.750000 0.000000
O O5 0.169950 0.368327 0.453509
O O6 0.000000 0.442047 0.409813
O O7 0.000000 0.368711 0.323519
O O8 0.500000 0.626862 0.517480
O O9 0.718197 0.581680 0.426059
O O10 0.281307 0.500000 0.500000
O O11 0.500000 0.517972 0.382909
O O12 0.169619 0.511811 0.351616
O O13 0.000000 0.537941 0.750000
O O14 0.671165 0.193595 0.750000
O O15 0.500000 0.290259 0.250000
#
# Coordination Sequence:
#
# PCOD8259837 Si02
#       7
#    16   8  16  16   8   4   8
#     4  11  23  43  67  96 131 171 220 274 332 396
#     4  12  23  38  66  93 129 165 216 262 328 390
#     4  10  23  40  65  96 122 164 217 266 323 391
#     4  10  20  40  65  88 123 166 212 262 316 379
#     4  12  24  40  59  95 132 168 211 267 325 386
#     4  12  26  44  62  92 130 180 206 266 324 398
#     4  12  26  46  66  93 133 173 221 276 330 393
#
# _framework density 20.18909
#
# number of rings (size 3 to 8) (size 9 to 14) (size 15 to 20)
#    0.000    1.053    3.684    2.842    2.947    2.947 
#    1.895    0.000    0.000    0.000    0.000    0.000 
#    0.000    0.000    0.000    0.000    0.000    0.000 
#
# Total GULP energy -471120.436249 kJ/mol
# GULP energy per Si atom -12397.906217 kJ/mol
# Density = 2.014314 g / cm^3
# Si number density = 20.189090 Si / 1000 Ang^3
#
#
#
# Elastic Constant Matrix: (Units=GPa)
#
#
# Indices 1 2 3 4 5 6 
#
# 1 166.6416 35.2519 48.6393 0.0000 0.0000 0.0000
# 2 35.2519 101.1505 20.0162 0.0000 0.0000 0.0000
# 3 48.6393 20.0162 98.0596 0.0000 0.0000 0.0000
# 4 0.0000 0.0000 0.0000 38.8793 0.0000 0.0000
# 5 0.0000 0.0000 0.0000 0.0000 21.8070 0.0000
# 6 0.0000 0.0000 0.0000 0.0000 0.0000 -24.2591
#
#
#
# Elastic Compliance Matrix: (Units=1/GPa)
#
#
# Indices 1 2 3 4 5 6 
#
# 1 0.007358 -0.001920 -0.003258 0.000000 0.000000 0.000000
# 2 -0.001920 0.010803 -0.001253 0.000000 0.000000 0.000000
# 3 -0.003258 -0.001253 0.012070 0.000000 0.000000 0.000000
# 4 0.000000 0.000000 0.000000 0.025721 0.000000 0.000000
# 5 0.000000 0.000000 0.000000 0.000000 0.045857 0.000000
# 6 0.000000 0.000000 0.000000 0.000000 0.000000 -0.041222
#
#
# Mechanical properties :
#
#
# Convention : Reuss Voigt Hill
#
# Bulk Modulus (GPa) = 57.57118 63.74070 60.65594
# Shear Modulus (GPa) = 63.10169 24.74841 43.92505
#
# Velocity S-wave (km/s) = 5.59671 3.50498 4.66948
# Velocity P-wave (km/s) = 8.38702 6.92967 7.69293
#
# Compressibility (1/GPa) = 0.01736980
#
# Stress axis : x y z
#
# Youngs Moduli (GPa) = 135.90896 92.56500 82.85300
#
# Poissons Ratio (x) = 0.17769 0.26992
# Poissons Ratio (y) = 0.26089 0.10382
# Poissons Ratio (z) = 0.44276 0.11599
#
# Static dielectric constant tensor:
#      x y z
#    x 3.926640 0.000000 0.000000 
#    y 0.000000 3.806320 0.000000 
#    z 0.000000 0.000000 3.433480 
# 
# 
# High freq. dielectric constant tensor:
#      x y z
#    x 1.811620 0.000000 0.000000 
#    y 0.000000 1.800310 0.000000 
#    z 0.000000 0.000000 1.765120 
# 
# From -- ./inp_files/40767.got.cif
#   From: 2010.03.12/outbox.cif.g09.slc.cpg/sg63_21_cif.got.tgz:40767.got - 2010.04.10 19:34:48.
