data_PCOD8259744
_publ_section_title
;
Structure prediction by ZEFSAII (Michael W. Deem and Ramdas Pophale) SiO2 
 PCOD8259744
Probable space group: C M C M
;
_chemical_formula_sum "Si O2"
_cell_formula_units_Z 88
_cell_length_a 21.939489
_cell_length_b 9.115187
_cell_length_c 22.929075
_cell_angle_alpha 90.000000
_cell_angle_beta 90.000000
_cell_angle_gamma 90.000000
_cell_volume 4585.414771
_symmetry_space_group_name_H-M "C M C M"
_symmetry_group_IT_number 63
_symmetry_cell_setting 'orthorhombic'
loop_
_space_group_symop_operation_xyz
x,y,z
-x,-y,1/2+z
x,-y,-z
-x,y,1/2-z
-x,-y,-z
x,y,1/2-z
-x,y,z
x,-y,1/2+z
1/2+x,1/2+y,z
1/2-x,1/2-y,1/2+z
1/2+x,1/2-y,-z
1/2-x,1/2+y,1/2-z
1/2-x,1/2-y,-z
1/2+x,1/2+y,1/2-z
1/2-x,1/2+y,z
1/2+x,1/2-y,1/2+z
loop_
_atom_site_type_symbol
_atom_site_label
_atom_site_fract_x
_atom_site_fract_y
_atom_site_fract_z
Si Si1 0.212567 0.802670 0.250000
Si Si2 0.644844 0.505603 0.660879
Si Si3 0.354168 0.739515 0.250000
Si Si4 0.794294 0.114914 0.451952
Si Si5 0.569349 0.774181 0.864670
Si Si6 0.661588 0.150733 0.467358
Si Si7 0.110719 0.427645 0.750000
O O1 0.196294 0.900093 0.306118
O O2 0.282398 0.762771 0.250000
O O3 0.177369 0.647059 0.250000
O O4 0.626484 0.355677 0.693687
O O5 0.671479 0.465526 0.599096
O O6 0.585468 0.607368 0.653767
O O7 0.386991 0.895867 0.250000
O O8 0.726999 0.174055 0.433890
O O9 0.840378 0.233014 0.479512
O O10 0.774959 0.000000 0.500000
O O11 0.500000 0.777821 0.886119
O O12 0.610478 0.825911 0.918617
O O13 0.575800 0.879228 0.808477
O O14 0.648723 0.000000 0.500000
#
# Coordination Sequence:
#
# PCOD8259744 Si02
#       7
#     8  16   8  16  16  16   8
#     4   9  21  36  56  93 129 159 190 245 327 378
#     4  10  22  38  61  90 123 164 200 253 308 371
#     4  11  23  35  61  98 123 152 206 269 312 361
#     4  10  20  38  61  92 126 154 197 246 314 371
#     4  11  24  45  64  84 123 174 212 246 308 379
#     4  10  23  37  61  93 123 161 196 253 310 365
#     4  10  23  39  61  91 122 165 207 254 313 361
#
# _framework density 19.191284
#
# number of rings (size 3 to 8) (size 9 to 14) (size 15 to 20)
#    0.000    1.818    1.818    1.909   10.182    0.364 
#    0.000    3.636    0.000    0.000    0.000    0.000 
#    0.000    0.000    0.000    0.000    0.000    0.000 
#
# Total GULP energy -545458.867431 kJ/mol
# GULP energy per Si atom -12396.792442 kJ/mol
# Density = 1.914760 g / cm^3
# Si number density = 19.191284 Si / 1000 Ang^3
#
#
#
# Elastic Constant Matrix: (Units=GPa)
#
#
# Indices 1 2 3 4 5 6 
#
# 1 112.2953 47.0400 63.9599 0.0000 0.0000 0.0000
# 2 47.0400 142.1284 56.6096 0.0000 0.0000 0.0000
# 3 63.9599 56.6096 119.7679 0.0000 0.0000 0.0000
# 4 0.0000 0.0000 0.0000 38.1344 0.0000 0.0000
# 5 0.0000 0.0000 0.0000 0.0000 28.4526 0.0000
# 6 0.0000 0.0000 0.0000 0.0000 0.0000 10.4739
#
#
#
# Elastic Compliance Matrix: (Units=1/GPa)
#
#
# Indices 1 2 3 4 5 6 
#
# 1 0.013212 -0.001925 -0.006146 0.000000 0.000000 0.000000
# 2 -0.001925 0.008948 -0.003201 0.000000 0.000000 0.000000
# 3 -0.006146 -0.003201 0.013145 0.000000 0.000000 0.000000
# 4 0.000000 0.000000 0.000000 0.026223 0.000000 0.000000
# 5 0.000000 0.000000 0.000000 0.000000 0.035146 0.000000
# 6 0.000000 0.000000 0.000000 0.000000 0.000000 0.095476
#
#
# Mechanical properties :
#
#
# Convention : Reuss Voigt Hill
#
# Bulk Modulus (GPa) = 78.36683 78.82340 78.59512
# Shear Modulus (GPa) = 22.83655 29.18432 26.01044
#
# Velocity S-wave (km/s) = 3.45330 3.90386 3.68547
# Velocity P-wave (km/s) = 7.53814 7.84103 7.69108
#
# Compressibility (1/GPa) = 0.01276050
#
# Stress axis : x y z
#
# Youngs Moduli (GPa) = 75.68971 111.75554 76.07619
#
# Poissons Ratio (x) = 0.21511 0.46754
# Poissons Ratio (y) = 0.14569 0.24356
# Poissons Ratio (z) = 0.46517 0.35778
#
# Static dielectric constant tensor:
#      x y z
#    x 3.186900 0.000000 0.000000 
#    y 0.000000 4.011300 0.000000 
#    z 0.000000 0.000000 3.584540 
# 
# 
# High freq. dielectric constant tensor:
#      x y z
#    x 1.714200 0.000000 0.000000 
#    y 0.000000 1.763230 0.000000 
#    z 0.000000 0.000000 1.753660 
# 
# From -- ./inp_files/64439.got.cif
#   From: 2010.03.12/outbox.cif.g09.slc.cpg/sg63_33_cif.got.tgz:64439.got - 2010.04.10 19:34:48.
