data_PCOD8259916
_publ_section_title
;
Structure prediction by ZEFSAII (Michael W. Deem and Ramdas Pophale) SiO2 
 PCOD8259916
Probable space group: C M C M
;
_chemical_formula_sum "Si O2"
_cell_formula_units_Z 80
_cell_length_a 26.179852
_cell_length_b 13.171366
_cell_length_c 13.208115
_cell_angle_alpha 90.000000
_cell_angle_beta 90.000000
_cell_angle_gamma 90.000000
_cell_volume 4554.480495
_symmetry_space_group_name_H-M "C M C M"
_symmetry_group_IT_number 63
_symmetry_cell_setting 'orthorhombic'
loop_
_space_group_symop_operation_xyz
x,y,z
-x,-y,1/2+z
x,-y,-z
-x,y,1/2-z
-x,-y,-z
x,y,1/2-z
-x,y,z
x,-y,1/2+z
1/2+x,1/2+y,z
1/2-x,1/2-y,1/2+z
1/2+x,1/2-y,-z
1/2-x,1/2+y,1/2-z
1/2-x,1/2-y,-z
1/2+x,1/2+y,1/2-z
1/2-x,1/2+y,z
1/2+x,1/2-y,1/2+z
loop_
_atom_site_type_symbol
_atom_site_label
_atom_site_fract_x
_atom_site_fract_y
_atom_site_fract_z
Si Si1 0.797556 0.115104 0.470841
Si Si2 0.000000 0.385294 0.972135
Si Si3 0.389290 0.117207 0.029915
Si Si4 0.389235 0.709929 0.131727
Si Si5 0.202903 0.285808 0.867174
Si Si6 0.500000 0.724820 0.136027
O O1 0.850548 0.125462 0.409745
O O2 0.799054 0.180001 0.573361
O O3 0.752161 0.150084 0.398249
O O4 0.788254 0.000000 0.500000
O O5 0.945532 0.360395 0.918163
O O6 0.000000 0.500000 0.000000
O O7 0.000000 0.329875 0.078614
O O8 0.347296 0.146827 0.112378
O O9 0.381160 0.184408 0.928464
O O10 0.382935 0.000000 0.000000
O O11 0.378959 0.731549 0.250000
O O12 0.446957 0.664705 0.113306
O O13 0.205980 0.258116 0.750000
O O14 0.500000 0.761980 0.250000
#
# Coordination Sequence:
#
# PCOD8259916 Si02
#       6
#    16   8  16  16  16   8
#     4  10  21  37  54  74  97 125 162 199 240 290
#     4   8  14  26  44  65  96 133 165 198 235 280
#     4   9  17  30  47  72 103 134 167 200 238 285
#     4   9  17  30  50  74  99 129 165 203 242 284
#     4  10  21  35  51  73 100 128 160 199 242 288
#     4   8  14  26  45  69  96 125 160 202 241 278
#
# _framework density 17.56512
#
# number of rings (size 3 to 8) (size 9 to 14) (size 15 to 20)
#    0.000    2.800    0.000    1.200    0.000    2.400 
#    0.000    4.000    0.000    0.000    0.000    0.000 
#    0.000    0.000    0.000    0.000    0.000    0.000 
#
# Total GULP energy -495579.728400 kJ/mol
# GULP energy per Si atom -12389.493210 kJ/mol
# Density = 1.752514 g / cm^3
# Si number density = 17.565120 Si / 1000 Ang^3
#
#
#
# Elastic Constant Matrix: (Units=GPa)
#
#
# Indices 1 2 3 4 5 6 
#
# 1 155.3385 36.9194 54.7022 0.0000 0.0000 0.0000
# 2 36.9194 73.6875 24.7971 0.0000 0.0000 0.0000
# 3 54.7022 24.7971 95.5804 0.0000 0.0000 0.0000
# 4 0.0000 0.0000 0.0000 9.4909 0.0000 0.0000
# 5 0.0000 0.0000 0.0000 0.0000 22.1087 0.0000
# 6 0.0000 0.0000 0.0000 0.0000 0.0000 16.8729
#
#
#
# Elastic Compliance Matrix: (Units=1/GPa)
#
#
# Indices 1 2 3 4 5 6 
#
# 1 0.008595 -0.002904 -0.004165 0.000000 0.000000 0.000000
# 2 -0.002904 0.015850 -0.002450 0.000000 0.000000 0.000000
# 3 -0.004165 -0.002450 0.013482 0.000000 0.000000 0.000000
# 4 0.000000 0.000000 0.000000 0.105364 0.000000 0.000000
# 5 0.000000 0.000000 0.000000 0.000000 0.045231 0.000000
# 6 0.000000 0.000000 0.000000 0.000000 0.000000 0.059267
#
#
# Mechanical properties :
#
#
# Convention : Reuss Voigt Hill
#
# Bulk Modulus (GPa) = 52.94487 61.93821 57.44154
# Shear Modulus (GPa) = 18.30672 23.57368 20.94020
#
# Velocity S-wave (km/s) = 3.23185 3.66741 3.45649
# Velocity P-wave (km/s) = 6.64334 7.29875 6.97874
#
# Compressibility (1/GPa) = 0.01888757
#
# Stress axis : x y z
#
# Youngs Moduli (GPa) = 116.35101 63.08957 74.17352
#
# Poissons Ratio (x) = 0.18324 0.30896
# Poissons Ratio (y) = 0.33794 0.18172
# Poissons Ratio (z) = 0.48464 0.15457
#
# Static dielectric constant tensor:
#      x y z
#    x 4.065100 0.000000 0.000000 
#    y 0.000000 2.943330 0.000000 
#    z 0.000000 0.000000 3.015180 
# 
# 
# High freq. dielectric constant tensor:
#      x y z
#    x 1.713060 0.000000 0.000000 
#    y 0.000000 1.649980 0.000000 
#    z 0.000000 0.000000 1.660460 
# 
# From -- ./inp_files/25680.got.cif
#   From: 2010.03.12/outbox.cif.g09.slc.cpg/sg63_13_cif.got.tgz:25680.got - 2010.04.10 19:34:48.
