data_PCOD8259545
_publ_section_title
;
Structure prediction by ZEFSAII (Michael W. Deem and Ramdas Pophale) SiO2 
 PCOD8259545
Probable space group: C M C M
;
_chemical_formula_sum "Si O2"
_cell_formula_units_Z 80
_cell_length_a 18.474561
_cell_length_b 15.709300
_cell_length_c 13.726062
_cell_angle_alpha 90.000000
_cell_angle_beta 90.000000
_cell_angle_gamma 90.000000
_cell_volume 3983.610946
_symmetry_space_group_name_H-M "C M C M"
_symmetry_group_IT_number 63
_symmetry_cell_setting 'orthorhombic'
loop_
_space_group_symop_operation_xyz
x,y,z
-x,-y,1/2+z
x,-y,-z
-x,y,1/2-z
-x,-y,-z
x,y,1/2-z
-x,y,z
x,-y,1/2+z
1/2+x,1/2+y,z
1/2-x,1/2-y,1/2+z
1/2+x,1/2-y,-z
1/2-x,1/2+y,1/2-z
1/2-x,1/2-y,-z
1/2+x,1/2+y,1/2-z
1/2-x,1/2+y,z
1/2+x,1/2-y,1/2+z
loop_
_atom_site_type_symbol
_atom_site_label
_atom_site_fract_x
_atom_site_fract_y
_atom_site_fract_z
Si Si1 0.773198 0.542957 0.134872
Si Si2 0.582114 0.289270 0.476592
Si Si3 0.194116 0.786806 0.635750
Si Si4 0.704022 0.370617 0.365162
Si Si5 0.920597 0.385245 0.637761
O O1 0.764767 0.538364 0.250000
O O2 0.731064 0.626352 0.097093
O O3 0.740953 0.455959 0.090091
O O4 0.858183 0.548768 0.105508
O O5 0.500000 0.321605 0.488977
O O6 0.617197 0.277169 0.583006
O O7 0.625589 0.359416 0.413980
O O8 0.585441 0.200015 0.422714
O O9 0.178536 0.787618 0.750000
O O10 0.246641 0.709678 0.606240
O O11 0.693554 0.378018 0.250000
O O12 0.908248 0.358706 0.750000
O O13 0.000000 0.427897 0.622995
#
# Coordination Sequence:
#
# PCOD8259545 Si02
#       5
#    16  16  16  16  16
#     4   9  18  34  57  84 113 149 189 229 278 337
#     4  11  22  36  57  86 116 149 191 235 288 336
#     4  10  21  39  57  78 113 153 195 235 275 336
#     4  10  20  36  60  88 113 145 190 235 283 337
#     4   9  17  32  56  86 118 147 180 233 293 340
#
# _framework density 20.082281999999999
#
# number of rings (size 3 to 8) (size 9 to 14) (size 15 to 20)
#    0.000    2.200    2.000    1.200    0.000    2.400 
#    0.000    3.000    0.000    9.600    0.000    0.000 
#    0.000    0.000    0.000    0.000    0.000    0.000 
#
# Total GULP energy -496019.091730 kJ/mol
# GULP energy per Si atom -12400.477293 kJ/mol
# Density = 2.003657 g / cm^3
# Si number density = 20.082282 Si / 1000 Ang^3
#
#
#
# Elastic Constant Matrix: (Units=GPa)
#
#
# Indices 1 2 3 4 5 6 
#
# 1 200.8890 77.7925 53.8423 0.0000 0.0000 0.0000
# 2 77.7925 134.8745 33.0806 0.0000 0.0000 0.0000
# 3 53.8423 33.0806 47.0460 0.0000 0.0000 0.0000
# 4 0.0000 0.0000 0.0000 14.1545 0.0000 0.0000
# 5 0.0000 0.0000 0.0000 0.0000 34.1669 0.0000
# 6 0.0000 0.0000 0.0000 0.0000 0.0000 33.0760
#
#
#
# Elastic Compliance Matrix: (Units=1/GPa)
#
#
# Indices 1 2 3 4 5 6 
#
# 1 0.008001 -0.002863 -0.007144 0.000000 0.000000 0.000000
# 2 -0.002863 0.009984 -0.003744 0.000000 0.000000 0.000000
# 3 -0.007144 -0.003744 0.032064 0.000000 0.000000 0.000000
# 4 0.000000 0.000000 0.000000 0.070649 0.000000 0.000000
# 5 0.000000 0.000000 0.000000 0.000000 0.029268 0.000000
# 6 0.000000 0.000000 0.000000 0.000000 0.000000 0.030233
#
#
# Mechanical properties :
#
#
# Convention : Reuss Voigt Hill
#
# Bulk Modulus (GPa) = 44.34982 79.13781 61.74381
# Shear Modulus (GPa) = 23.23236 30.81909 27.02572
#
# Velocity S-wave (km/s) = 3.40495 3.92170 3.67243
# Velocity P-wave (km/s) = 6.13109 7.74588 6.98530
#
# Compressibility (1/GPa) = 0.02254801
#
# Stress axis : x y z
#
# Youngs Moduli (GPa) = 124.98142 100.16353 31.18716
#
# Poissons Ratio (x) = 0.28673 0.22281
# Poissons Ratio (y) = 0.35778 0.11676
# Poissons Ratio (z) = 0.89289 0.37500
#
# Static dielectric constant tensor:
#      x y z
#    x 3.900130 0.000000 0.000000 
#    y 0.000000 3.708620 0.000000 
#    z 0.000000 0.000000 3.579700 
# 
# 
# High freq. dielectric constant tensor:
#      x y z
#    x 1.779460 0.000000 0.000000 
#    y 0.000000 1.769870 0.000000 
#    z 0.000000 0.000000 1.795850 
# 
# From -- ./inp_files/33857.got.cif
#   From: 2010.03.12/outbox.cif.g09.slc.cpg/sg63_17_cif.got.tgz:33857.got - 2010.04.10 19:34:48.
