data_PCOD8259524
_publ_section_title
;
Structure prediction by ZEFSAII (Michael W. Deem and Ramdas Pophale) SiO2 
 PCOD8259524
Probable space group: C M C M
;
_chemical_formula_sum "Si O2"
_cell_formula_units_Z 64
_cell_length_a 8.390265
_cell_length_b 29.580923
_cell_length_c 12.850351
_cell_angle_alpha 90.000000
_cell_angle_beta 90.000000
_cell_angle_gamma 90.000000
_cell_volume 3189.351526
_symmetry_space_group_name_H-M "C M C M"
_symmetry_group_IT_number 63
_symmetry_cell_setting 'orthorhombic'
loop_
_space_group_symop_operation_xyz
x,y,z
-x,-y,1/2+z
x,-y,-z
-x,y,1/2-z
-x,-y,-z
x,y,1/2-z
-x,y,z
x,-y,1/2+z
1/2+x,1/2+y,z
1/2-x,1/2-y,1/2+z
1/2+x,1/2-y,-z
1/2-x,1/2+y,1/2-z
1/2-x,1/2-y,-z
1/2+x,1/2+y,1/2-z
1/2-x,1/2+y,z
1/2+x,1/2-y,1/2+z
loop_
_atom_site_type_symbol
_atom_site_label
_atom_site_fract_x
_atom_site_fract_y
_atom_site_fract_z
Si Si1 0.500000 0.015156 0.372710
Si Si2 0.000000 0.198286 0.870375
Si Si3 0.826690 0.064365 0.130128
Si Si4 0.000000 0.586730 0.626226
Si Si5 0.251438 0.856293 0.494382
Si Si6 0.500000 0.195131 0.129274
O O1 0.500000 0.011271 0.250000
O O2 0.333800 0.038813 0.409056
O O3 0.500000 0.964579 0.421187
O O4 0.153659 0.178053 0.924805
O O5 0.000000 0.251576 0.885651
O O6 0.000000 0.184579 0.750000
O O7 0.800758 0.077206 0.250000
O O8 0.000000 0.038124 0.117509
O O9 0.851124 0.109929 0.064540
O O10 0.152340 0.613434 0.587023
O O11 0.000000 0.584617 0.750000
O O12 0.347954 0.825872 0.574454
O O13 0.500000 0.181193 0.250000
#
# Coordination Sequence:
#
# PCOD8259524 Si02
#       6
#     8   8  16   8  16   8
#     4   9  19  38  59  84 122 162 200 250 302 348
#     4  11  23  40  58  86 122 156 197 246 297 363
#     4  10  20  36  59  88 121 153 196 250 303 356
#     4  10  22  39  59  83 116 161 204 240 288 357
#     4  11  21  38  61  85 117 155 196 244 301 356
#     4  10  22  39  63  89 116 151 196 248 308 367
#
# _framework density 20.066776000000001
#
# number of rings (size 3 to 8) (size 9 to 14) (size 15 to 20)
#    0.000    1.750    1.250    3.750    0.000    3.000 
#    2.250    1.250    0.000    6.000    0.000    0.000 
#    0.000    0.000    0.000    0.000    0.000    0.000 
#
# Total GULP energy -396521.738566 kJ/mol
# GULP energy per Si atom -12391.304330 kJ/mol
# Density = 2.002110 g / cm^3
# Si number density = 20.066776 Si / 1000 Ang^3
#
#
#
# Elastic Constant Matrix: (Units=GPa)
#
#
# Indices 1 2 3 4 5 6 
#
# 1 169.6198 64.8896 59.4294 0.0000 0.0000 0.0000
# 2 64.8896 115.8017 65.0632 0.0000 0.0000 0.0000
# 3 59.4294 65.0632 117.0973 0.0000 0.0000 0.0000
# 4 0.0000 0.0000 0.0000 35.5469 0.0000 0.0000
# 5 0.0000 0.0000 0.0000 0.0000 27.2711 0.0000
# 6 0.0000 0.0000 0.0000 0.0000 0.0000 169.0816
#
#
#
# Elastic Compliance Matrix: (Units=1/GPa)
#
#
# Indices 1 2 3 4 5 6 
#
# 1 0.007892 -0.003158 -0.002251 0.000000 0.000000 0.000000
# 2 -0.003158 0.013818 -0.006075 0.000000 0.000000 0.000000
# 3 -0.002251 -0.006075 0.013058 0.000000 0.000000 0.000000
# 4 0.000000 0.000000 0.000000 0.028132 0.000000 0.000000
# 5 0.000000 0.000000 0.000000 0.000000 0.036669 0.000000
# 6 0.000000 0.000000 0.000000 0.000000 0.000000 0.005914
#
#
# Mechanical properties :
#
#
# Convention : Reuss Voigt Hill
#
# Bulk Modulus (GPa) = 84.74185 86.80926 85.77556
# Shear Modulus (GPa) = 37.76868 60.58903 49.17886
#
# Velocity S-wave (km/s) = 4.34308 5.50084 4.95589
# Velocity P-wave (km/s) = 8.21410 9.14876 8.69400
#
# Compressibility (1/GPa) = 0.01180054
#
# Stress axis : x y z
#
# Youngs Moduli (GPa) = 126.70722 72.36792 76.58183
#
# Poissons Ratio (x) = 0.22852 0.17238
# Poissons Ratio (y) = 0.40011 0.46526
# Poissons Ratio (z) = 0.28521 0.43966
#
# Static dielectric constant tensor:
#      x y z
#    x 3.766410 0.000000 0.000000 
#    y 0.000000 3.649190 0.000000 
#    z 0.000000 0.000000 3.761670 
# 
# 
# High freq. dielectric constant tensor:
#      x y z
#    x 1.793790 0.000000 0.000000 
#    y 0.000000 1.776930 0.000000 
#    z 0.000000 0.000000 1.806920 
# 
# From -- ./inp_files/27640.got.cif
#   From: 2010.03.12/outbox.cif.g09.slc.cpg/sg63_14_cif.got.tgz:27640.got - 2010.04.10 19:34:48.
