data_PCOD8259458
_publ_section_title
;
Structure prediction by ZEFSAII (Michael W. Deem and Ramdas Pophale) SiO2 
 PCOD8259458
Probable space group: C M C M
;
_chemical_formula_sum "Si O2"
_cell_formula_units_Z 88
_cell_length_a 29.854090
_cell_length_b 17.908530
_cell_length_c 8.931357
_cell_angle_alpha 90.000000
_cell_angle_beta 90.000000
_cell_angle_gamma 90.000000
_cell_volume 4775.086307
_symmetry_space_group_name_H-M "C M C M"
_symmetry_group_IT_number 63
_symmetry_cell_setting 'orthorhombic'
loop_
_space_group_symop_operation_xyz
x,y,z
-x,-y,1/2+z
x,-y,-z
-x,y,1/2-z
-x,-y,-z
x,y,1/2-z
-x,y,z
x,-y,1/2+z
1/2+x,1/2+y,z
1/2-x,1/2-y,1/2+z
1/2+x,1/2-y,-z
1/2-x,1/2+y,1/2-z
1/2-x,1/2-y,-z
1/2+x,1/2+y,1/2-z
1/2-x,1/2+y,z
1/2+x,1/2-y,1/2+z
loop_
_atom_site_type_symbol
_atom_site_label
_atom_site_fract_x
_atom_site_fract_y
_atom_site_fract_z
Si Si1 0.326071 0.076370 0.076915
Si Si2 0.920429 0.637845 0.086120
Si Si3 0.878515 0.201663 0.921009
Si Si4 0.500000 0.077667 0.579863
Si Si5 0.550817 0.421476 0.427145
Si Si6 0.203372 0.271442 0.071689
O O1 0.309945 0.079723 0.250000
O O2 0.379729 0.080069 0.067562
O O3 0.306672 0.145662 0.985683
O O4 0.309293 0.000000 0.000000
O O5 0.942331 0.625995 0.250000
O O6 0.904974 0.721884 0.069353
O O7 0.956285 0.624853 0.958145
O O8 0.864130 0.184499 0.750000
O O9 0.912217 0.138195 0.983908
O O10 0.833728 0.210251 0.020295
O O11 0.500000 0.058064 0.750000
O O12 0.500000 0.000000 0.500000
O O13 0.563701 0.500000 0.500000
O O14 0.553519 0.429530 0.250000
O O15 0.500000 0.397441 0.474314
O O16 0.206021 0.271043 0.250000
O O17 0.250000 0.250000 0.000000
#
# Coordination Sequence:
#
# PCOD8259458 Si02
#       6
#    16  16  16   8  16  16
#     4  10  20  36  58  83 109 141 180 221 270 327
#     4   9  19  34  53  74 101 138 178 220 262 313
#     4   9  19  36  58  81 107 143 186 226 275 336
#     4  12  24  34  46  68 101 138 177 218 261 306
#     4   9  18  33  55  82 113 150 188 230 281 337
#     4  11  22  38  60  84 113 145 183 232 285 338
#
# _framework density 18.428985999999998
#
# number of rings (size 3 to 8) (size 9 to 14) (size 15 to 20)
#    0.000    2.182    0.000    4.636    1.273    5.818 
#    0.000    0.909    0.000    2.182    0.000    0.000 
#    0.000    0.000    0.000    0.000    0.000    0.000 
#
# Total GULP energy -545500.320741 kJ/mol
# GULP energy per Si atom -12397.734562 kJ/mol
# Density = 1.838704 g / cm^3
# Si number density = 18.428986 Si / 1000 Ang^3
#
#
#
# Elastic Constant Matrix: (Units=GPa)
#
#
# Indices 1 2 3 4 5 6 
#
# 1 118.9669 58.0521 64.3657 0.0000 0.0000 0.0000
# 2 58.0521 97.5718 43.6220 0.0000 0.0000 0.0000
# 3 64.3657 43.6220 129.7334 0.0000 0.0000 0.0000
# 4 0.0000 0.0000 0.0000 32.2871 0.0000 0.0000
# 5 0.0000 0.0000 0.0000 0.0000 30.4004 0.0000
# 6 0.0000 0.0000 0.0000 0.0000 0.0000 19.0603
#
#
#
# Elastic Compliance Matrix: (Units=1/GPa)
#
#
# Indices 1 2 3 4 5 6 
#
# 1 0.014076 -0.006182 -0.004905 0.000000 0.000000 0.000000
# 2 -0.006182 0.014777 -0.001902 0.000000 0.000000 0.000000
# 3 -0.004905 -0.001902 0.010781 0.000000 0.000000 0.000000
# 4 0.000000 0.000000 0.000000 0.030972 0.000000 0.000000
# 5 0.000000 0.000000 0.000000 0.000000 0.032894 0.000000
# 6 0.000000 0.000000 0.000000 0.000000 0.000000 0.052465
#
#
# Mechanical properties :
#
#
# Convention : Reuss Voigt Hill
#
# Bulk Modulus (GPa) = 73.22192 75.37243 74.29717
# Shear Modulus (GPa) = 26.81032 28.36503 27.58768
#
# Velocity S-wave (km/s) = 3.81831 3.92746 3.87327
# Velocity P-wave (km/s) = 7.69789 7.84565 7.77212
#
# Compressibility (1/GPa) = 0.01365711
#
# Stress axis : x y z
#
# Youngs Moduli (GPa) = 71.04240 67.67245 92.75482
#
# Poissons Ratio (x) = 0.41834 0.45497
# Poissons Ratio (y) = 0.43918 0.17638
# Poissons Ratio (z) = 0.34847 0.12869
#
# Static dielectric constant tensor:
#      x y z
#    x 3.461960 0.000000 0.000000 
#    y 0.000000 3.319000 0.000000 
#    z 0.000000 0.000000 3.556810 
# 
# 
# High freq. dielectric constant tensor:
#      x y z
#    x 1.707580 0.000000 0.000000 
#    y 0.000000 1.713460 0.000000 
#    z 0.000000 0.000000 1.717440 
# 
# From -- ./inp_files/14145.got.cif
#   From: 2010.03.12/outbox.cif.g09.slc.cpg/sg63_8_cif.got.tgz:14145.got - 2010.04.10 19:34:48.
