data_PCOD8259677
_publ_section_title
;
Structure prediction by ZEFSAII (Michael W. Deem and Ramdas Pophale) SiO2 
 PCOD8259677
Probable space group: C M C M
;
_chemical_formula_sum "Si O2"
_cell_formula_units_Z 88
_cell_length_a 16.128251
_cell_length_b 24.029409
_cell_length_c 12.181484
_cell_angle_alpha 90.000000
_cell_angle_beta 90.000000
_cell_angle_gamma 90.000000
_cell_volume 4720.962626
_symmetry_space_group_name_H-M "C M C M"
_symmetry_group_IT_number 63
_symmetry_cell_setting 'orthorhombic'
loop_
_space_group_symop_operation_xyz
x,y,z
-x,-y,1/2+z
x,-y,-z
-x,y,1/2-z
-x,-y,-z
x,y,1/2-z
-x,y,z
x,-y,1/2+z
1/2+x,1/2+y,z
1/2-x,1/2-y,1/2+z
1/2+x,1/2-y,-z
1/2-x,1/2+y,1/2-z
1/2-x,1/2-y,-z
1/2+x,1/2+y,1/2-z
1/2-x,1/2+y,z
1/2+x,1/2-y,1/2+z
loop_
_atom_site_type_symbol
_atom_site_label
_atom_site_fract_x
_atom_site_fract_y
_atom_site_fract_z
Si Si1 0.290951 0.500000 0.000000
Si Si2 0.000000 0.648851 0.625720
Si Si3 0.331436 0.705818 0.622439
Si Si4 0.595072 0.588472 0.620289
Si Si5 0.000000 0.442306 0.557459
Si Si6 0.176280 0.414959 0.873830
Si Si7 0.342098 0.192183 0.978244
O O1 0.349112 0.540559 0.930948
O O2 0.233115 0.464680 0.918923
O O3 0.000000 0.597991 0.544964
O O4 0.082066 0.684222 0.604039
O O5 0.000000 0.627034 0.750000
O O6 0.350253 0.714791 0.750000
O O7 0.372990 0.648726 0.580119
O O8 0.370291 0.757556 0.557224
O O9 0.233588 0.706759 0.600991
O O10 0.604074 0.583738 0.750000
O O11 0.500000 0.580866 0.582447
O O12 0.000000 0.500000 0.500000
O O13 0.080976 0.434568 0.631759
O O14 0.205019 0.400699 0.750000
O O15 0.184241 0.360876 0.949513
#
# Coordination Sequence:
#
# PCOD8259677 Si02
#       7
#     8   8  16  16   8  16  16
#     4  12  21  39  58  88 114 156 194 239 295 350
#     4  10  22  37  58  83 117 156 187 234 293 350
#     4  10  20  37  62  85 112 150 190 242 291 341
#     4  10  22  39  61  87 113 148 195 243 293 348
#     4  10  21  39  52  84 115 152 199 234 280 336
#     4  11  22  37  57  82 119 156 192 238 290 347
#     4  10  21  38  57  86 118 146 196 235 289 354
#
# _framework density 18.640267000000001
#
# number of rings (size 3 to 8) (size 9 to 14) (size 15 to 20)
#    0.000    1.636    2.727    2.182    1.273    0.727 
#    0.000    0.909    0.000    0.000    0.000    0.000 
#    0.000    0.000    0.000    0.000    0.000    0.000 
#
# Total GULP energy -545637.158004 kJ/mol
# GULP energy per Si atom -12400.844500 kJ/mol
# Density = 1.859784 g / cm^3
# Si number density = 18.640267 Si / 1000 Ang^3
#
#
#
# Elastic Constant Matrix: (Units=GPa)
#
#
# Indices 1 2 3 4 5 6 
#
# 1 98.7807 29.4815 23.2856 0.0000 0.0000 0.0000
# 2 29.4815 99.0461 18.0728 0.0000 0.0000 0.0000
# 3 23.2856 18.0728 72.0826 0.0000 0.0000 0.0000
# 4 0.0000 0.0000 0.0000 26.8346 0.0000 0.0000
# 5 0.0000 0.0000 0.0000 0.0000 19.0604 0.0000
# 6 0.0000 0.0000 0.0000 0.0000 0.0000 -33.7284
#
#
#
# Elastic Compliance Matrix: (Units=1/GPa)
#
#
# Indices 1 2 3 4 5 6 
#
# 1 0.011717 -0.002931 -0.003050 0.000000 0.000000 0.000000
# 2 -0.002931 0.011314 -0.001890 0.000000 0.000000 0.000000
# 3 -0.003050 -0.001890 0.015332 0.000000 0.000000 0.000000
# 4 0.000000 0.000000 0.000000 0.037265 0.000000 0.000000
# 5 0.000000 0.000000 0.000000 0.000000 0.052465 0.000000
# 6 0.000000 0.000000 0.000000 0.000000 0.000000 -0.029649
#
#
# Mechanical properties :
#
#
# Convention : Reuss Voigt Hill
#
# Bulk Modulus (GPa) = 44.20710 45.73215 44.96963
# Shear Modulus (GPa) = 41.07551 15.70461 28.39006
#
# Velocity S-wave (km/s) = 4.69933 2.90575 3.90686
# Velocity P-wave (km/s) = 7.29468 5.98708 6.67299
#
# Compressibility (1/GPa) = 0.02262080
#
# Stress axis : x y z
#
# Youngs Moduli (GPa) = 85.34407 88.38937 65.22254
#
# Poissons Ratio (x) = 0.25908 0.19895
# Poissons Ratio (y) = 0.25015 0.12325
# Poissons Ratio (z) = 0.26032 0.16703
#
# Static dielectric constant tensor:
#      x y z
#    x 3.588600 0.000000 0.000000 
#    y 0.000000 3.523030 0.000000 
#    z 0.000000 0.000000 3.282860 
# 
# 
# High freq. dielectric constant tensor:
#      x y z
#    x 1.732460 0.000000 0.000000 
#    y 0.000000 1.732980 0.000000 
#    z 0.000000 0.000000 1.720310 
# 
# From -- ./inp_files/19556.got.cif
#   From: 2010.03.12/outbox.cif.g09.slc.cpg/sg63_10_cif.got.tgz:19556.got - 2010.04.10 19:34:48.
