data_PCOD8259378
_publ_section_title
;
Structure prediction by ZEFSAII (Michael W. Deem and Ramdas Pophale) SiO2 
 PCOD8259378
Probable space group: C M C M
;
_chemical_formula_sum "Si O2"
_cell_formula_units_Z 88
_cell_length_a 10.943378
_cell_length_b 17.129851
_cell_length_c 23.914209
_cell_angle_alpha 90.000000
_cell_angle_beta 90.000000
_cell_angle_gamma 90.000000
_cell_volume 4482.920183
_symmetry_space_group_name_H-M "C M C M"
_symmetry_group_IT_number 63
_symmetry_cell_setting 'orthorhombic'
loop_
_space_group_symop_operation_xyz
x,y,z
-x,-y,1/2+z
x,-y,-z
-x,y,1/2-z
-x,-y,-z
x,y,1/2-z
-x,y,z
x,-y,1/2+z
1/2+x,1/2+y,z
1/2-x,1/2-y,1/2+z
1/2+x,1/2-y,-z
1/2-x,1/2+y,1/2-z
1/2-x,1/2-y,-z
1/2+x,1/2+y,1/2-z
1/2-x,1/2+y,z
1/2+x,1/2-y,1/2+z
loop_
_atom_site_type_symbol
_atom_site_label
_atom_site_fract_x
_atom_site_fract_y
_atom_site_fract_z
Si Si1 0.713673 0.000000 0.000000
Si Si2 0.698134 0.228053 0.912044
Si Si3 0.139697 0.005386 0.815164
Si Si4 0.367032 0.345556 0.003674
Si Si5 0.631577 0.939987 0.386695
Si Si6 0.141377 0.176032 0.187123
O O1 0.790223 0.078086 0.009897
O O2 0.635428 0.010012 0.943780
O O3 0.822743 0.203652 0.942688
O O4 0.619326 0.150917 0.901705
O O5 0.725303 0.271592 0.853373
O O6 0.625115 0.288948 0.950441
O O7 0.156130 0.025386 0.750000
O O8 0.246444 0.049224 0.849306
O O9 0.000000 0.028865 0.833736
O O10 0.159656 0.914488 0.826621
O O11 0.500000 0.376446 0.018851
O O12 0.500000 0.962470 0.357677
O O13 0.184145 0.194071 0.250000
O O14 0.000000 0.199325 0.178953
#
# Coordination Sequence:
#
# PCOD8259378 Si02
#       6
#     8  16  16  16  16  16
#     4  10  22  36  56  82 105 142 187 228 273 322
#     4  10  21  34  52  80 110 142 175 219 275 327
#     4   9  20  39  61  83 108 143 188 234 274 317
#     4  10  20  36  56  78 107 142 185 231 272 322
#     4  11  22  35  54  82 116 148 179 221 276 333
#     4   9  17  33  57  79 101 135 180 225 268 320
#
# _framework density 19.630061000000001
#
# number of rings (size 3 to 8) (size 9 to 14) (size 15 to 20)
#    0.000    2.182    0.000    4.364    0.000    6.182 
#    0.000    7.273    0.000    1.636    0.000    0.000 
#    0.000    0.000    0.000    0.000    0.000    0.000 
#
# Total GULP energy -545218.830190 kJ/mol
# GULP energy per Si atom -12391.337050 kJ/mol
# Density = 1.958538 g / cm^3
# Si number density = 19.630061 Si / 1000 Ang^3
#
#
#
# Elastic Constant Matrix: (Units=GPa)
#
#
# Indices 1 2 3 4 5 6 
#
# 1 129.4735 43.4679 52.1605 0.0000 0.0000 0.0000
# 2 43.4679 101.5808 48.9021 0.0000 0.0000 0.0000
# 3 52.1605 48.9021 101.2188 0.0000 0.0000 0.0000
# 4 0.0000 0.0000 0.0000 37.4312 0.0000 0.0000
# 5 0.0000 0.0000 0.0000 0.0000 14.2785 0.0000
# 6 0.0000 0.0000 0.0000 0.0000 0.0000 0.8753
#
#
#
# Elastic Compliance Matrix: (Units=1/GPa)
#
#
# Indices 1 2 3 4 5 6 
#
# 1 0.010172 -0.002384 -0.004090 0.000000 0.000000 0.000000
# 2 -0.002384 0.013387 -0.005239 0.000000 0.000000 0.000000
# 3 -0.004090 -0.005239 0.014519 0.000000 0.000000 0.000000
# 4 0.000000 0.000000 0.000000 0.026716 0.000000 0.000000
# 5 0.000000 0.000000 0.000000 0.000000 0.070035 0.000000
# 6 0.000000 0.000000 0.000000 0.000000 0.000000 1.142505
#
#
# Mechanical properties :
#
#
# Convention : Reuss Voigt Hill
#
# Bulk Modulus (GPa) = 68.25467 69.03713 68.64590
# Shear Modulus (GPa) = 3.82953 23.03316 13.43135
#
# Velocity S-wave (km/s) = 1.39824 3.42915 2.61860
# Velocity P-wave (km/s) = 6.11987 7.13612 6.64744
#
# Compressibility (1/GPa) = 0.01465101
#
# Stress axis : x y z
#
# Youngs Moduli (GPa) = 98.31317 74.70192 68.87751
#
# Poissons Ratio (x) = 0.17806 0.28172
# Poissons Ratio (y) = 0.23433 0.36086
# Poissons Ratio (z) = 0.40211 0.39138
#
# Static dielectric constant tensor:
#      x y z
#    x 3.404200 0.000000 0.000000 
#    y 0.000000 3.580440 0.000000 
#    z 0.000000 0.000000 3.606490 
# 
# 
# High freq. dielectric constant tensor:
#      x y z
#    x 1.748690 0.000000 0.000000 
#    y 0.000000 1.767770 0.000000 
#    z 0.000000 0.000000 1.764420 
# 
# From -- ./inp_files/61268.got.cif
#   From: 2010.03.12/outbox.cif.g09.slc.cpg/sg63_31_cif.got.tgz:61268.got - 2010.04.10 19:34:48.
