data_PCOD8259169
_publ_section_title
;
Structure prediction by ZEFSAII (Michael W. Deem and Ramdas Pophale) SiO2 
 PCOD8259169
Probable space group: C M C M
;
_chemical_formula_sum "Si O2"
_cell_formula_units_Z 80
_cell_length_a 29.276614
_cell_length_b 15.019000
_cell_length_c 8.847007
_cell_angle_alpha 90.000000
_cell_angle_beta 90.000000
_cell_angle_gamma 90.000000
_cell_volume 3890.077333
_symmetry_space_group_name_H-M "C M C M"
_symmetry_group_IT_number 63
_symmetry_cell_setting 'orthorhombic'
loop_
_space_group_symop_operation_xyz
x,y,z
-x,-y,1/2+z
x,-y,-z
-x,y,1/2-z
-x,-y,-z
x,y,1/2-z
-x,y,z
x,-y,1/2+z
1/2+x,1/2+y,z
1/2-x,1/2-y,1/2+z
1/2+x,1/2-y,-z
1/2-x,1/2+y,1/2-z
1/2-x,1/2-y,-z
1/2+x,1/2+y,1/2-z
1/2-x,1/2+y,z
1/2+x,1/2-y,1/2+z
loop_
_atom_site_type_symbol
_atom_site_label
_atom_site_fract_x
_atom_site_fract_y
_atom_site_fract_z
Si Si1 0.315617 0.907552 0.927758
Si Si2 0.219323 0.906549 0.069871
Si Si3 0.359788 0.276555 0.425081
Si Si4 0.052203 0.582759 0.415959
Si Si5 0.449851 0.267515 0.572457
O O1 0.307186 0.920588 0.750000
O O2 0.352290 0.828955 0.960088
O O3 0.268157 0.878392 0.003670
O O4 0.333478 0.000000 0.000000
O O5 0.222619 0.913669 0.250000
O O6 0.183356 0.832190 0.015365
O O7 0.203269 0.000000 0.000000
O O8 0.365936 0.293972 0.250000
O O9 0.406041 0.316581 0.500788
O O10 0.076746 0.500000 0.500000
O O11 0.075500 0.600234 0.250000
O O12 0.055970 0.666078 0.524713
O O13 0.000000 0.557498 0.385588
O O14 0.447067 0.276511 0.750000
O O15 0.500000 0.303356 0.516276
#
# Coordination Sequence:
#
# PCOD8259169 Si02
#       5
#    16  16  16  16  16
#     4  10  20  35  55  82 115 148 181 217 262 318
#     4  10  20  36  58  84 112 142 178 221 273 329
#     4  10  22  37  55  80 110 146 185 224 270 325
#     4   9  16  27  44  64  89 124 166 212 260 310
#     4  10  21  35  51  73 101 136 180 228 276 323
#
# _framework density 20.565144
#
# number of rings (size 3 to 8) (size 9 to 14) (size 15 to 20)
#    0.000    2.200    0.000    4.200    0.000    7.600 
#    0.000    2.000    0.000    0.600    0.000    0.000 
#    0.000    0.000    0.000    0.000    0.000    0.000 
#
# Total GULP energy -495730.943245 kJ/mol
# GULP energy per Si atom -12393.273581 kJ/mol
# Density = 2.051834 g / cm^3
# Si number density = 20.565144 Si / 1000 Ang^3
#
#
#
# Elastic Constant Matrix: (Units=GPa)
#
#
# Indices 1 2 3 4 5 6 
#
# 1 144.9867 25.4503 48.6440 0.0000 0.0000 0.0000
# 2 25.4503 41.6199 21.3363 0.0000 0.0000 0.0000
# 3 48.6440 21.3363 73.8966 0.0000 0.0000 0.0000
# 4 0.0000 0.0000 0.0000 25.1767 0.0000 0.0000
# 5 0.0000 0.0000 0.0000 0.0000 29.5473 0.0000
# 6 0.0000 0.0000 0.0000 0.0000 0.0000 144.5092
#
#
#
# Elastic Compliance Matrix: (Units=1/GPa)
#
#
# Indices 1 2 3 4 5 6 
#
# 1 0.009149 -0.002943 -0.005173 0.000000 0.000000 0.000000
# 2 -0.002943 0.029148 -0.006479 0.000000 0.000000 0.000000
# 3 -0.005173 -0.006479 0.018808 0.000000 0.000000 0.000000
# 4 0.000000 0.000000 0.000000 0.039719 0.000000 0.000000
# 5 0.000000 0.000000 0.000000 0.000000 0.033844 0.000000
# 6 0.000000 0.000000 0.000000 0.000000 0.000000 0.006920
#
#
# Mechanical properties :
#
#
# Convention : Reuss Voigt Hill
#
# Bulk Modulus (GPa) = 35.82145 50.15160 42.98652
# Shear Modulus (GPa) = 28.39565 50.85149 39.62357
#
# Velocity S-wave (km/s) = 3.71990 4.97802 4.39422
# Velocity P-wave (km/s) = 5.99220 7.58160 6.83327
#
# Compressibility (1/GPa) = 0.02791624
#
# Stress axis : x y z
#
# Youngs Moduli (GPa) = 109.29743 34.30792 53.16798
#
# Poissons Ratio (x) = 0.10096 0.27504
# Poissons Ratio (y) = 0.32164 0.34446
# Poissons Ratio (z) = 0.56540 0.22227
#
# Static dielectric constant tensor:
#      x y z
#    x 4.152690 0.000000 0.000000 
#    y 0.000000 3.494780 0.000000 
#    z 0.000000 0.000000 3.990430 
# 
# 
# High freq. dielectric constant tensor:
#      x y z
#    x 1.822270 0.000000 0.000000 
#    y 0.000000 1.763950 0.000000 
#    z 0.000000 0.000000 1.810930 
# 
# From -- ./inp_files/12037.got.cif
#   From: 2010.03.12/outbox.cif.g09.slc.cpg/sg63_7_cif.got.tgz:12037.got - 2010.04.10 19:34:48.
