data_PCOD8259427
_publ_section_title
;
Structure prediction by ZEFSAII (Michael W. Deem and Ramdas Pophale) SiO2 
 PCOD8259427
Probable space group: C M C M
;
_chemical_formula_sum "Si O2"
_cell_formula_units_Z 96
_cell_length_a 25.196012
_cell_length_b 9.544841
_cell_length_c 19.182927
_cell_angle_alpha 90.000000
_cell_angle_beta 90.000000
_cell_angle_gamma 90.000000
_cell_volume 4613.339106
_symmetry_space_group_name_H-M "C M C M"
_symmetry_group_IT_number 63
_symmetry_cell_setting 'orthorhombic'
loop_
_space_group_symop_operation_xyz
x,y,z
-x,-y,1/2+z
x,-y,-z
-x,y,1/2-z
-x,-y,-z
x,y,1/2-z
-x,y,z
x,-y,1/2+z
1/2+x,1/2+y,z
1/2-x,1/2-y,1/2+z
1/2+x,1/2-y,-z
1/2-x,1/2+y,1/2-z
1/2-x,1/2-y,-z
1/2+x,1/2+y,1/2-z
1/2-x,1/2+y,z
1/2+x,1/2-y,1/2+z
loop_
_atom_site_type_symbol
_atom_site_label
_atom_site_fract_x
_atom_site_fract_y
_atom_site_fract_z
Si Si1 0.939428 0.799927 0.331095
Si Si2 0.601329 0.933071 0.931753
Si Si3 0.781621 0.650528 0.052692
Si Si4 0.244028 0.901406 0.134571
Si Si5 0.641663 0.156359 0.827888
Si Si6 0.861849 0.035622 0.327592
O O1 0.923810 0.758773 0.250000
O O2 0.933241 0.676362 0.387562
O O3 0.000000 0.850444 0.332515
O O4 0.902598 0.925189 0.361594
O O5 0.655806 0.865450 0.962734
O O6 0.609281 0.056591 0.877274
O O7 0.571792 0.000000 0.000000
O O8 0.757128 0.493418 0.063585
O O9 0.776427 0.742769 0.122877
O O10 0.750000 0.750000 0.000000
O O11 0.198017 0.979908 0.175497
O O12 0.297470 0.894127 0.178973
O O13 0.617634 0.151586 0.750000
O O14 0.637501 0.311225 0.863321
O O15 0.882288 0.059467 0.250000
#
# Coordination Sequence:
#
# PCOD8259427 Si02
#       6
#    16  16  16  16  16  16
#     4  10  22  43  69  92 114 150 202 256 309 358
#     4  11  23  39  60  88 124 161 200 246 297 358
#     4  11  21  34  51  82 122 167 202 232 286 362
#     4  11  19  33  52  81 120 157 198 244 287 353
#     4  10  21  37  57  88 125 160 201 244 299 362
#     4  10  20  36  57  84 115 151 194 245 301 353
#
# _framework density 20.809222999999999
#
# number of rings (size 3 to 8) (size 9 to 14) (size 15 to 20)
#    0.000    1.500    3.333    3.500    0.000    0.333 
#    0.000    1.667    0.000    4.000    0.000    0.000 
#    0.000    0.000    0.000    0.000    0.000    0.000 
#
# Total GULP energy -594684.823034 kJ/mol
# GULP energy per Si atom -12389.267147 kJ/mol
# Density = 2.076186 g / cm^3
# Si number density = 20.809223 Si / 1000 Ang^3
#
#
#
# Elastic Constant Matrix: (Units=GPa)
#
#
# Indices 1 2 3 4 5 6 
#
# 1 72.5622 38.1408 21.6587 0.0000 0.0000 0.0000
# 2 38.1408 132.5781 28.5742 0.0000 0.0000 0.0000
# 3 21.6587 28.5742 77.5703 0.0000 0.0000 0.0000
# 4 0.0000 0.0000 0.0000 29.8209 0.0000 0.0000
# 5 0.0000 0.0000 0.0000 0.0000 17.8606 0.0000
# 6 0.0000 0.0000 0.0000 0.0000 0.0000 19.2546
#
#
#
# Elastic Compliance Matrix: (Units=1/GPa)
#
#
# Indices 1 2 3 4 5 6 
#
# 1 0.016932 -0.004184 -0.003186 0.000000 0.000000 0.000000
# 2 -0.004184 0.009227 -0.002231 0.000000 0.000000 0.000000
# 3 -0.003186 -0.002231 0.014603 0.000000 0.000000 0.000000
# 4 0.000000 0.000000 0.000000 0.033534 0.000000 0.000000
# 5 0.000000 0.000000 0.000000 0.000000 0.055989 0.000000
# 6 0.000000 0.000000 0.000000 0.000000 0.000000 0.051936
#
#
# Mechanical properties :
#
#
# Convention : Reuss Voigt Hill
#
# Bulk Modulus (GPa) = 46.38339 51.05089 48.71714
# Shear Modulus (GPa) = 23.96825 26.34299 25.15562
#
# Velocity S-wave (km/s) = 3.39751 3.56185 3.48065
# Velocity P-wave (km/s) = 6.14239 6.44219 6.29408
#
# Compressibility (1/GPa) = 0.02155944
#
# Stress axis : x y z
#
# Youngs Moduli (GPa) = 59.06079 108.37460 68.47965
#
# Poissons Ratio (x) = 0.45347 0.21819
# Poissons Ratio (y) = 0.24713 0.15276
# Poissons Ratio (z) = 0.18818 0.24175
#
# Static dielectric constant tensor:
#      x y z
#    x 3.399310 0.000000 0.000000 
#    y 0.000000 4.407910 0.000000 
#    z 0.000000 0.000000 3.796980 
# 
# 
# High freq. dielectric constant tensor:
#      x y z
#    x 1.776400 0.000000 0.000000 
#    y 0.000000 1.835660 0.000000 
#    z 0.000000 0.000000 1.804740 
# 
# From -- ./inp_files/58076.got.cif
#   From: 2010.03.12/outbox.cif.g09.slc.cpg/sg63_30_cif.got.tgz:58076.got - 2010.04.10 19:34:48.
