data_PCOD8259400
_publ_section_title
;
Structure prediction by ZEFSAII (Michael W. Deem and Ramdas Pophale) SiO2 
 PCOD8259400
Probable space group: C M C M
;
_chemical_formula_sum "Si O2"
_cell_formula_units_Z 72
_cell_length_a 17.853314
_cell_length_b 23.714178
_cell_length_c 8.999741
_cell_angle_alpha 90.000000
_cell_angle_beta 90.000000
_cell_angle_gamma 90.000000
_cell_volume 3810.280340
_symmetry_space_group_name_H-M "C M C M"
_symmetry_group_IT_number 63
_symmetry_cell_setting 'orthorhombic'
loop_
_space_group_symop_operation_xyz
x,y,z
-x,-y,1/2+z
x,-y,-z
-x,y,1/2-z
-x,-y,-z
x,y,1/2-z
-x,y,z
x,-y,1/2+z
1/2+x,1/2+y,z
1/2-x,1/2-y,1/2+z
1/2+x,1/2-y,-z
1/2-x,1/2+y,1/2-z
1/2-x,1/2-y,-z
1/2+x,1/2+y,1/2-z
1/2-x,1/2+y,z
1/2+x,1/2-y,1/2+z
loop_
_atom_site_type_symbol
_atom_site_label
_atom_site_fract_x
_atom_site_fract_y
_atom_site_fract_z
Si Si1 0.583784 0.145730 0.573621
Si Si2 0.143803 0.129355 0.575453
Si Si3 0.290977 0.060494 0.574720
Si Si4 0.000000 0.059046 0.922976
Si Si5 0.329965 0.743547 0.426372
O O1 0.581450 0.145359 0.750000
O O2 0.500000 0.138341 0.507742
O O3 0.635596 0.094097 0.517977
O O4 0.617726 0.205076 0.519408
O O5 0.144935 0.143775 0.750000
O O6 0.218894 0.096849 0.527340
O O7 0.133189 0.186128 0.482381
O O8 0.073710 0.092023 0.527675
O O9 0.292112 0.051396 0.750000
O O10 0.288346 0.000000 0.500000
O O11 0.000000 0.047868 0.750000
O O12 0.000000 0.000000 0.000000
O O13 0.320676 0.743482 0.250000
O O14 0.250000 0.750000 0.500000
#
# Coordination Sequence:
#
# PCOD8259400 Si02
#       5
#    16  16  16   8  16
#     4   9  19  36  56  80 112 148 181 223 277 329
#     4  10  21  38  56  82 116 151 187 232 288 333
#     4  10  20  36  57  79 108 144 185 230 275 330
#     4  10  22  38  58  82 120 158 191 240 287 338
#     4  11  21  36  60  85 112 146 187 233 279 339
#
# _framework density 18.896248
#
# number of rings (size 3 to 8) (size 9 to 14) (size 15 to 20)
#    0.000    2.000    2.222    1.333    1.556    2.222 
#    0.000    0.000    0.000    2.667    0.000    0.000 
#    0.000    0.000    0.000    0.000    0.000    0.000 
#
# Total GULP energy -446459.720254 kJ/mol
# GULP energy per Si atom -12401.658896 kJ/mol
# Density = 1.885324 g / cm^3
# Si number density = 18.896248 Si / 1000 Ang^3
#
#
#
# Elastic Constant Matrix: (Units=GPa)
#
#
# Indices 1 2 3 4 5 6 
#
# 1 135.6795 38.3249 19.2889 0.0000 0.0000 0.0000
# 2 38.3249 125.9214 32.7843 0.0000 0.0000 0.0000
# 3 19.2889 32.7843 34.5929 0.0000 0.0000 0.0000
# 4 0.0000 0.0000 0.0000 37.4330 0.0000 0.0000
# 5 0.0000 0.0000 0.0000 0.0000 13.4162 0.0000
# 6 0.0000 0.0000 0.0000 0.0000 0.0000 23.0102
#
#
#
# Elastic Compliance Matrix: (Units=1/GPa)
#
#
# Indices 1 2 3 4 5 6 
#
# 1 0.008286 -0.001751 -0.002961 0.000000 0.000000 0.000000
# 2 -0.001751 0.010913 -0.009366 0.000000 0.000000 0.000000
# 3 -0.002961 -0.009366 0.039435 0.000000 0.000000 0.000000
# 4 0.000000 0.000000 0.000000 0.026714 0.000000 0.000000
# 5 0.000000 0.000000 0.000000 0.000000 0.074537 0.000000
# 6 0.000000 0.000000 0.000000 0.000000 0.000000 0.043459
#
#
# Mechanical properties :
#
#
# Convention : Reuss Voigt Hill
#
# Bulk Modulus (GPa) = 32.81031 52.99887 42.90459
# Shear Modulus (GPa) = 20.69036 28.49160 24.59098
#
# Velocity S-wave (km/s) = 3.31259 3.88724 3.61136
# Velocity P-wave (km/s) = 5.65969 6.94663 6.33592
#
# Compressibility (1/GPa) = 0.03047822
#
# Stress axis : x y z
#
# Youngs Moduli (GPa) = 120.68819 91.63497 25.35828
#
# Poissons Ratio (x) = 0.16045 0.07508
# Poissons Ratio (y) = 0.21133 0.23750
# Poissons Ratio (z) = 0.35732 0.85825
#
# Static dielectric constant tensor:
#      x y z
#    x 3.841270 0.000000 0.000000 
#    y 0.000000 3.686840 0.000000 
#    z 0.000000 0.000000 5.951830 
# 
# 
# High freq. dielectric constant tensor:
#      x y z
#    x 1.748860 0.000000 0.000000 
#    y 0.000000 1.748150 0.000000 
#    z 0.000000 0.000000 1.707020 
# 
# From -- ./inp_files/6080.got.cif
#   From: 2010.03.12/outbox.cif.g09.slc.cpg/sg63_4_cif.got.tgz:6080.got - 2010.04.10 19:34:48.
