data_PCOD8259680
_publ_section_title
;
Structure prediction by ZEFSAII (Michael W. Deem and Ramdas Pophale) SiO2 
 PCOD8259680
Probable space group: C M C M
;
_chemical_formula_sum "Si O2"
_cell_formula_units_Z 112
_cell_length_a 22.143445
_cell_length_b 11.222310
_cell_length_c 21.997340
_cell_angle_alpha 90.000000
_cell_angle_beta 90.000000
_cell_angle_gamma 90.000000
_cell_volume 5466.352282
_symmetry_space_group_name_H-M "C M C M"
_symmetry_group_IT_number 63
_symmetry_cell_setting 'orthorhombic'
loop_
_space_group_symop_operation_xyz
x,y,z
-x,-y,1/2+z
x,-y,-z
-x,y,1/2-z
-x,-y,-z
x,y,1/2-z
-x,y,z
x,-y,1/2+z
1/2+x,1/2+y,z
1/2-x,1/2-y,1/2+z
1/2+x,1/2-y,-z
1/2-x,1/2+y,1/2-z
1/2-x,1/2-y,-z
1/2+x,1/2+y,1/2-z
1/2-x,1/2+y,z
1/2+x,1/2-y,1/2+z
loop_
_atom_site_type_symbol
_atom_site_label
_atom_site_fract_x
_atom_site_fract_y
_atom_site_fract_z
Si Si1 0.145044 0.087803 0.909238
Si Si2 0.878397 0.701334 0.999475
Si Si3 0.429950 0.166350 0.682194
Si Si4 0.618151 0.055060 0.387587
Si Si5 0.568566 0.727950 0.820864
Si Si6 0.725833 0.945887 0.061804
Si Si7 0.567702 0.638972 0.407940
O O1 0.139305 0.185448 0.960775
O O2 0.107520 0.122189 0.849349
O O3 0.217027 0.087722 0.896236
O O4 0.117612 0.958876 0.926891
O O5 0.904943 0.598480 0.045006
O O6 0.821042 0.657970 0.958848
O O7 0.930197 0.749921 0.954988
O O8 0.400666 0.154299 0.750000
O O9 0.500000 0.138414 0.687511
O O10 0.418771 0.301295 0.658004
O O11 0.404457 0.073771 0.632799
O O12 0.600499 0.146962 0.335352
O O13 0.690385 0.044263 0.397694
O O14 0.567964 0.707283 0.750000
O O15 0.500000 0.727506 0.846600
O O16 0.753737 0.000000 0.000000
O O17 0.500000 0.583853 0.409574
#
# Coordination Sequence:
#
# PCOD8259680 Si02
#       7
#    16  16  16  16  16  16  16
#     4  11  23  38  62  86 120 162 203 242 288 361
#     4  10  21  37  61  89 121 158 195 244 302 361
#     4  10  21  38  60  84 114 157 204 248 299 359
#     4  10  20  37  62  89 116 149 200 249 305 358
#     4  10  22  41  64  87 114 154 205 257 305 355
#     4  10  20  38  61  89 120 158 195 236 295 361
#     4  11  23  37  56  87 124 157 194 243 299 359
#
# _framework density 20.488983000000001
#
# number of rings (size 3 to 8) (size 9 to 14) (size 15 to 20)
#    0.000    1.714    1.429    3.000    0.000    8.000 
#    0.000    4.286    0.000    0.000    0.000    0.000 
#    0.000    0.000    0.000    0.000    0.000    0.000 
#
# Total GULP energy -693732.179897 kJ/mol
# GULP energy per Si atom -12388.074641 kJ/mol
# Density = 2.044235 g / cm^3
# Si number density = 20.488983 Si / 1000 Ang^3
#
#
#
# Elastic Constant Matrix: (Units=GPa)
#
#
# Indices 1 2 3 4 5 6 
#
# 1 107.2992 42.7763 56.0132 0.0000 0.0000 0.0000
# 2 42.7763 79.7434 39.1570 0.0000 0.0000 0.0000
# 3 56.0132 39.1570 81.0960 0.0000 0.0000 0.0000
# 4 0.0000 0.0000 0.0000 26.8594 0.0000 0.0000
# 5 0.0000 0.0000 0.0000 0.0000 23.4756 0.0000
# 6 0.0000 0.0000 0.0000 0.0000 0.0000 27.6084
#
#
#
# Elastic Compliance Matrix: (Units=1/GPa)
#
#
# Indices 1 2 3 4 5 6 
#
# 1 0.015493 -0.004006 -0.008767 0.000000 0.000000 0.000000
# 2 -0.004006 0.017473 -0.005670 0.000000 0.000000 0.000000
# 3 -0.008767 -0.005670 0.021124 0.000000 0.000000 0.000000
# 4 0.000000 0.000000 0.000000 0.037231 0.000000 0.000000
# 5 0.000000 0.000000 0.000000 0.000000 0.042597 0.000000
# 6 0.000000 0.000000 0.000000 0.000000 0.000000 0.036221
#
#
# Mechanical properties :
#
#
# Convention : Reuss Voigt Hill
#
# Bulk Modulus (GPa) = 58.12319 60.44797 59.28558
# Shear Modulus (GPa) = 23.50052 24.26815 23.88433
#
# Velocity S-wave (km/s) = 3.39039 3.44532 3.41796
# Velocity P-wave (km/s) = 6.61483 6.73748 6.67643
#
# Compressibility (1/GPa) = 0.01720484
#
# Stress axis : x y z
#
# Youngs Moduli (GPa) = 64.54338 57.22999 47.33913
#
# Poissons Ratio (x) = 0.22927 0.41502
# Poissons Ratio (y) = 0.25857 0.26841
# Poissons Ratio (z) = 0.56585 0.32449
#
# Static dielectric constant tensor:
#      x y z
#    x 3.598250 0.000000 0.000000 
#    y 0.000000 3.941670 0.000000 
#    z 0.000000 0.000000 3.856650 
# 
# 
# High freq. dielectric constant tensor:
#      x y z
#    x 1.785940 0.000000 0.000000 
#    y 0.000000 1.808640 0.000000 
#    z 0.000000 0.000000 1.793070 
# 
# From -- ./inp_files/57616.got.cif
#   From: 2010.03.12/outbox.cif.g09.slc.cpg/sg63_29_cif.got.tgz:57616.got - 2010.04.10 19:34:48.
