data_PCOD8259445
_publ_section_title
;
Structure prediction by ZEFSAII (Michael W. Deem and Ramdas Pophale) SiO2 
 PCOD8259445
Probable space group: C M C M
;
_chemical_formula_sum "Si O2"
_cell_formula_units_Z 104
_cell_length_a 20.503087
_cell_length_b 29.784962
_cell_length_c 8.922863
_cell_angle_alpha 90.000000
_cell_angle_beta 90.000000
_cell_angle_gamma 90.000000
_cell_volume 5449.046699
_symmetry_space_group_name_H-M "C M C M"
_symmetry_group_IT_number 63
_symmetry_cell_setting 'orthorhombic'
loop_
_space_group_symop_operation_xyz
x,y,z
-x,-y,1/2+z
x,-y,-z
-x,y,1/2-z
-x,-y,-z
x,y,1/2-z
-x,y,z
x,-y,1/2+z
1/2+x,1/2+y,z
1/2-x,1/2-y,1/2+z
1/2+x,1/2-y,-z
1/2-x,1/2+y,1/2-z
1/2-x,1/2-y,-z
1/2+x,1/2+y,1/2-z
1/2-x,1/2+y,z
1/2+x,1/2-y,1/2+z
loop_
_atom_site_type_symbol
_atom_site_label
_atom_site_fract_x
_atom_site_fract_y
_atom_site_fract_z
Si Si1 0.193403 0.219956 0.428393
Si Si2 0.000000 0.953461 0.578667
Si Si3 0.222160 0.872958 0.426264
Si Si4 0.641763 0.549242 0.427508
Si Si5 0.874040 0.628330 0.575179
Si Si6 0.923654 0.457664 0.914418
Si Si7 0.572522 0.222027 0.927651
O O1 0.202854 0.220235 0.250000
O O2 0.250000 0.250000 0.500000
O O3 0.192151 0.169818 0.490715
O O4 0.123405 0.239905 0.477395
O O5 0.068970 0.929199 0.540621
O O6 0.000000 0.966355 0.750000
O O7 0.000000 0.000000 0.500000
O O8 0.207655 0.869656 0.250000
O O9 0.192787 0.918296 0.493393
O O10 0.298214 0.874015 0.461902
O O11 0.648520 0.500000 0.500000
O O12 0.655990 0.546230 0.250000
O O13 0.887651 0.625140 0.750000
O O14 0.911714 0.587918 0.500562
O O15 0.903209 0.674304 0.507789
O O16 0.891372 0.455134 0.750000
O O17 0.000000 0.465702 0.899625
O O18 0.891388 0.500000 0.000000
O O19 0.571099 0.218881 0.750000
O O20 0.500000 0.233218 0.990064
#
# Coordination Sequence:
#
# PCOD8259445 Si02
#       7
#    16   8  16  16  16  16  16
#     4  11  21  38  62  87 117 155 193 237 290 347
#     4   8  16  32  56  82 110 144 190 232 280 342
#     4  11  23  39  58  85 116 151 195 237 282 342
#     4  10  20  37  60  87 116 152 191 237 290 343
#     4  10  20  36  58  81 108 146 190 233 280 336
#     4  10  21  36  54  79 111 146 185 230 281 333
#     4   9  18  35  60  87 112 144 189 236 283 338
#
# _framework density 19.085906000000001
#
# number of rings (size 3 to 8) (size 9 to 14) (size 15 to 20)
#    0.000    2.000    1.538    2.308    0.000    4.000 
#    1.385    0.000    0.000    2.308    0.000    0.000 
#    0.000    0.000    0.000    0.000    0.000    0.000 
#
# Total GULP energy -644589.652590 kJ/mol
# GULP energy per Si atom -12395.954857 kJ/mol
# Density = 1.904247 g / cm^3
# Si number density = 19.085906 Si / 1000 Ang^3
#
#
#
# Elastic Constant Matrix: (Units=GPa)
#
#
# Indices 1 2 3 4 5 6 
#
# 1 106.2188 43.7696 52.9857 0.0000 0.0000 0.0000
# 2 43.7696 110.8415 33.1195 0.0000 0.0000 0.0000
# 3 52.9857 33.1195 50.3406 0.0000 0.0000 0.0000
# 4 0.0000 0.0000 0.0000 35.7586 0.0000 0.0000
# 5 0.0000 0.0000 0.0000 0.0000 25.2593 0.0000
# 6 0.0000 0.0000 0.0000 0.0000 0.0000 1802.0120
#
#
#
# Elastic Compliance Matrix: (Units=1/GPa)
#
#
# Indices 1 2 3 4 5 6 
#
# 1 0.020179 -0.002019 -0.019911 0.000000 0.000000 0.000000
# 2 -0.002019 0.011431 -0.005396 0.000000 0.000000 0.000000
# 3 -0.019911 -0.005396 0.044371 0.000000 0.000000 0.000000
# 4 0.000000 0.000000 0.000000 0.027965 0.000000 0.000000
# 5 0.000000 0.000000 0.000000 0.000000 0.039589 0.000000
# 6 0.000000 0.000000 0.000000 0.000000 0.000000 0.000555
#
#
# Mechanical properties :
#
#
# Convention : Reuss Voigt Hill
#
# Bulk Modulus (GPa) = 46.88068 58.57228 52.72648
# Shear Modulus (GPa) = 24.28927 381.77437 203.03182
#
# Velocity S-wave (km/s) = 3.57126 14.15852 10.32515
# Velocity P-wave (km/s) = 6.45147 17.26384 13.03192
#
# Compressibility (1/GPa) = 0.02133075
#
# Stress axis : x y z
#
# Youngs Moduli (GPa) = 49.55746 87.47825 22.53699
#
# Poissons Ratio (x) = 0.17661 0.44873
# Poissons Ratio (y) = 0.10005 0.12161
# Poissons Ratio (z) = 0.98672 0.47202
#
# Static dielectric constant tensor:
#      x y z
#    x 4.093490 0.000000 0.000000 
#    y 0.000000 3.462150 0.000000 
#    z 0.000000 0.000000 3.538880 
# 
# 
# High freq. dielectric constant tensor:
#      x y z
#    x 1.748310 0.000000 0.000000 
#    y 0.000000 1.739790 0.000000 
#    z 0.000000 0.000000 1.738170 
# 
# From -- ./inp_files/8829.got.cif
#   From: 2010.03.12/outbox.cif.g09.slc.cpg/sg63_5_cif.got.tgz:8829.got - 2010.04.10 19:34:48.
