data_PCOD8259003
_publ_section_title
;
Structure prediction by ZEFSAII (Michael W. Deem and Ramdas Pophale) SiO2 
 PCOD8259003
Probable space group: C M C M
;
_chemical_formula_sum "Si O2"
_cell_formula_units_Z 112
_cell_length_a 14.905393
_cell_length_b 23.015535
_cell_length_c 13.521481
_cell_angle_alpha 90.000000
_cell_angle_beta 90.000000
_cell_angle_gamma 90.000000
_cell_volume 4638.619700
_symmetry_space_group_name_H-M "C M C M"
_symmetry_group_IT_number 63
_symmetry_cell_setting 'orthorhombic'
loop_
_space_group_symop_operation_xyz
x,y,z
-x,-y,1/2+z
x,-y,-z
-x,y,1/2-z
-x,-y,-z
x,y,1/2-z
-x,y,z
x,-y,1/2+z
1/2+x,1/2+y,z
1/2-x,1/2-y,1/2+z
1/2+x,1/2-y,-z
1/2-x,1/2+y,1/2-z
1/2-x,1/2-y,-z
1/2+x,1/2+y,1/2-z
1/2-x,1/2+y,z
1/2+x,1/2-y,1/2+z
loop_
_atom_site_type_symbol
_atom_site_label
_atom_site_fract_x
_atom_site_fract_y
_atom_site_fract_z
Si Si1 0.398404 0.479455 0.366847
Si Si2 0.637103 0.175437 0.859432
Si Si3 0.159958 0.857336 0.360849
Si Si4 0.898223 0.806869 0.632602
Si Si5 0.599536 0.121485 0.049887
Si Si6 0.103523 0.261253 0.641148
Si Si7 0.778363 0.914030 0.868517
O O1 0.388529 0.476397 0.250000
O O2 0.500000 0.493205 0.399132
O O3 0.367538 0.417516 0.413758
O O4 0.335482 0.530787 0.406823
O O5 0.593132 0.172373 0.750000
O O6 0.734988 0.149078 0.856569
O O7 0.634260 0.242081 0.898334
O O8 0.584851 0.131876 0.932816
O O9 0.117995 0.857788 0.250000
O O10 0.120212 0.799866 0.416888
O O11 0.897323 0.813166 0.750000
O O12 0.829882 0.856259 0.590847
O O13 0.000000 0.816893 0.593489
O O14 0.500000 0.103734 0.092216
O O15 0.642470 0.182398 0.088222
O O16 0.678555 0.077625 0.082649
O O17 0.150203 0.257132 0.750000
O O18 0.000000 0.273588 0.652336
O O19 0.768044 0.913413 0.750000
#
# Coordination Sequence:
#
# PCOD8259003 Si02
#       7
#    16  16  16  16  16  16  16
#     4   9  17  32  58  90 122 158 196 233 280 339
#     4  10  21  37  57  79 106 143 190 247 303 350
#     4   9  17  31  54  83 114 152 196 237 281 335
#     4   9  17  31  53  82 117 154 188 227 281 342
#     4  11  23  37  56  82 111 150 197 242 296 355
#     4   9  17  30  50  81 121 156 185 223 275 341
#     4  10  20  34  55  86 123 158 191 230 279 343
#
# _framework density 24.145112999999998
#
# number of rings (size 3 to 8) (size 9 to 14) (size 15 to 20)
#    0.000    2.429    0.000    2.571    0.000    9.714 
#    0.000    0.714    0.000    6.000    0.000    8.000 
#    0.000    0.000    0.000    0.000    0.000    0.000 
#
# Total GULP energy -693940.415155 kJ/mol
# GULP energy per Si atom -12391.793128 kJ/mol
# Density = 2.409016 g / cm^3
# Si number density = 24.145113 Si / 1000 Ang^3
#
#
#
# Elastic Constant Matrix: (Units=GPa)
#
#
# Indices 1 2 3 4 5 6 
#
# 1 161.3040 72.9161 12.1782 0.0000 0.0000 0.0000
# 2 72.9161 105.8636 16.0287 0.0000 0.0000 0.0000
# 3 12.1782 16.0287 18.1181 0.0000 0.0000 0.0000
# 4 0.0000 0.0000 0.0000 1.4040 0.0000 0.0000
# 5 0.0000 0.0000 0.0000 0.0000 8.9551 0.0000
# 6 0.0000 0.0000 0.0000 0.0000 0.0000 -19.8419
#
#
#
# Elastic Compliance Matrix: (Units=1/GPa)
#
#
# Indices 1 2 3 4 5 6 
#
# 1 0.009009 -0.006106 -0.000653 0.000000 0.000000 0.000000
# 2 -0.006106 0.015046 -0.009206 0.000000 0.000000 0.000000
# 3 -0.000653 -0.009206 0.063777 0.000000 0.000000 0.000000
# 4 0.000000 0.000000 0.000000 0.712259 0.000000 0.000000
# 5 0.000000 0.000000 0.000000 0.000000 0.111668 0.000000
# 6 0.000000 0.000000 0.000000 0.000000 0.000000 -0.050398
#
#
# Mechanical properties :
#
#
# Convention : Reuss Voigt Hill
#
# Bulk Modulus (GPa) = 17.88909 54.17018 36.02964
# Shear Modulus (GPa) = 5.48290 10.38097 7.93193
#
# Velocity S-wave (km/s) = 1.50856 2.07575 1.81445
# Velocity P-wave (km/s) = 3.23410 5.31309 4.39820
#
# Compressibility (1/GPa) = 0.05590001
#
# Stress axis : x y z
#
# Youngs Moduli (GPa) = 110.99880 66.46321 15.67958
#
# Poissons Ratio (x) = 0.40584 0.01024
# Poissons Ratio (y) = 0.67779 0.14435
# Poissons Ratio (z) = 0.07253 0.61189
#
# Static dielectric constant tensor:
#      x y z
#    x 4.137930 0.000000 0.000000 
#    y 0.000000 4.340410 0.000000 
#    z 0.000000 0.000000 4.542780 
# 
# 
# High freq. dielectric constant tensor:
#      x y z
#    x 1.954570 0.000000 0.000000 
#    y 0.000000 1.933360 0.000000 
#    z 0.000000 0.000000 1.961560 
# 
# From -- ./inp_files/32273.got.cif
#   From: 2010.03.12/outbox.cif.g09.slc.cpg/sg63_17_cif.got.tgz:32273.got - 2010.04.10 19:34:48.
