data_PCOD8259691
_publ_section_title
;
Structure prediction by ZEFSAII (Michael W. Deem and Ramdas Pophale) SiO2 
 PCOD8259691
Probable space group: C M C M
;
_chemical_formula_sum "Si O2"
_cell_formula_units_Z 64
_cell_length_a 22.729495
_cell_length_b 8.815333
_cell_length_c 12.886578
_cell_angle_alpha 90.000000
_cell_angle_beta 90.000000
_cell_angle_gamma 90.000000
_cell_volume 2582.058729
_symmetry_space_group_name_H-M "C M C M"
_symmetry_group_IT_number 63
_symmetry_cell_setting 'orthorhombic'
loop_
_space_group_symop_operation_xyz
x,y,z
-x,-y,1/2+z
x,-y,-z
-x,y,1/2-z
-x,-y,-z
x,y,1/2-z
-x,y,z
x,-y,1/2+z
1/2+x,1/2+y,z
1/2-x,1/2-y,1/2+z
1/2+x,1/2-y,-z
1/2-x,1/2+y,1/2-z
1/2-x,1/2-y,-z
1/2+x,1/2+y,1/2-z
1/2-x,1/2+y,z
1/2+x,1/2-y,1/2+z
loop_
_atom_site_type_symbol
_atom_site_label
_atom_site_fract_x
_atom_site_fract_y
_atom_site_fract_z
Si Si1 0.898875 0.903909 0.635686
Si Si2 0.216003 0.733689 0.870541
Si Si3 0.065776 0.227527 0.931731
Si Si4 0.826361 0.411595 0.625861
O O1 0.917044 0.846198 0.750000
O O2 0.830154 0.870801 0.614027
O O3 0.938271 0.812914 0.553632
O O4 0.908478 0.083663 0.629829
O O5 0.226957 0.700330 0.750000
O O6 0.189613 0.578650 0.920598
O O7 0.278848 0.787905 0.918569
O O8 0.107920 0.369694 0.909962
O O9 0.000000 0.267627 0.893192
O O10 0.823409 0.416200 0.750000
#
# Coordination Sequence:
#
# PCOD8259691 Si02
#       4
#    16  16  16  16
#     4  10  21  40  63  87 118 154 200 255 302 353
#     4   9  19  37  64  95 123 158 201 249 309 359
#     4  11  24  39  60  90 121 163 207 240 295 363
#     4  10  20  37  62  93 128 159 198 251 299 355
#
# _framework density 24.786425000000001
#
# number of rings (size 3 to 8) (size 9 to 14) (size 15 to 20)
#    0.000    2.000    0.000    3.750    0.000    9.500 
#    0.000    3.750    0.000    9.000    0.000    0.000 
#    0.000    0.000    0.000    0.000    0.000    0.000 
#
# Total GULP energy -396919.820710 kJ/mol
# GULP energy per Si atom -12403.744397 kJ/mol
# Density = 2.473001 g / cm^3
# Si number density = 24.786425 Si / 1000 Ang^3
#
#
#
# Elastic Constant Matrix: (Units=GPa)
#
#
# Indices 1 2 3 4 5 6 
#
# 1 215.4060 106.2071 33.5393 0.0000 0.0000 0.0000
# 2 106.2071 144.5703 37.5952 0.0000 0.0000 0.0000
# 3 33.5393 37.5952 61.6940 0.0000 0.0000 0.0000
# 4 0.0000 0.0000 0.0000 30.1316 0.0000 0.0000
# 5 0.0000 0.0000 0.0000 0.0000 22.1414 0.0000
# 6 0.0000 0.0000 0.0000 0.0000 0.0000 36.2470
#
#
#
# Elastic Compliance Matrix: (Units=1/GPa)
#
#
# Indices 1 2 3 4 5 6 
#
# 1 0.007315 -0.005157 -0.000834 0.000000 0.000000 0.000000
# 2 -0.005157 0.011855 -0.004421 0.000000 0.000000 0.000000
# 3 -0.000834 -0.004421 0.019356 0.000000 0.000000 0.000000
# 4 0.000000 0.000000 0.000000 0.033188 0.000000 0.000000
# 5 0.000000 0.000000 0.000000 0.000000 0.045164 0.000000
# 6 0.000000 0.000000 0.000000 0.000000 0.000000 0.027588
#
#
# Mechanical properties :
#
#
# Convention : Reuss Voigt Hill
#
# Bulk Modulus (GPa) = 56.48829 86.26150 71.37490
# Shear Modulus (GPa) = 29.20704 33.99259 31.59981
#
# Velocity S-wave (km/s) = 3.43643 3.70729 3.57443
# Velocity P-wave (km/s) = 6.21167 7.29402 6.77450
#
# Compressibility (1/GPa) = 0.01770278
#
# Stress axis : x y z
#
# Youngs Moduli (GPa) = 136.70686 84.35157 51.66235
#
# Poissons Ratio (x) = 0.43499 0.04309
# Poissons Ratio (y) = 0.70499 0.22839
# Poissons Ratio (z) = 0.11404 0.37290
#
# Static dielectric constant tensor:
#      x y z
#    x 4.279120 0.000000 0.000000 
#    y 0.000000 4.353650 0.000000 
#    z 0.000000 0.000000 4.686210 
# 
# 
# High freq. dielectric constant tensor:
#      x y z
#    x 1.974350 0.000000 0.000000 
#    y 0.000000 1.968870 0.000000 
#    z 0.000000 0.000000 2.020670 
# 
# From -- ./inp_files/36182.got.cif
#   From: 2010.03.12/outbox.cif.g09.slc.cpg/sg63_19_cif.got.tgz:36182.got - 2010.04.10 19:34:48.
