data_PCOD8259374
_publ_section_title
;
Structure prediction by ZEFSAII (Michael W. Deem and Ramdas Pophale) SiO2 
 PCOD8259374
Probable space group: C M C M
;
_chemical_formula_sum "Si O2"
_cell_formula_units_Z 104
_cell_length_a 31.210762
_cell_length_b 19.309199
_cell_length_c 9.709846
_cell_angle_alpha 90.000000
_cell_angle_beta 90.000000
_cell_angle_gamma 90.000000
_cell_volume 5851.685439
_symmetry_space_group_name_H-M "C M C M"
_symmetry_group_IT_number 63
_symmetry_cell_setting 'orthorhombic'
loop_
_space_group_symop_operation_xyz
x,y,z
-x,-y,1/2+z
x,-y,-z
-x,y,1/2-z
-x,-y,-z
x,y,1/2-z
-x,y,z
x,-y,1/2+z
1/2+x,1/2+y,z
1/2-x,1/2-y,1/2+z
1/2+x,1/2-y,-z
1/2-x,1/2+y,1/2-z
1/2-x,1/2-y,-z
1/2+x,1/2+y,1/2-z
1/2-x,1/2+y,z
1/2+x,1/2-y,1/2+z
loop_
_atom_site_type_symbol
_atom_site_label
_atom_site_fract_x
_atom_site_fract_y
_atom_site_fract_z
Si Si1 0.452923 0.792475 0.087004
Si Si2 0.815505 0.564245 0.908113
Si Si3 0.000000 0.936281 0.597071
Si Si4 0.906645 0.932247 0.591755
Si Si5 0.626699 0.709913 0.412863
Si Si6 0.085162 0.562924 0.591941
Si Si7 0.712503 0.783601 0.412632
O O1 0.453225 0.782274 0.250000
O O2 0.500000 0.772460 0.027437
O O3 0.415472 0.745514 0.020591
O O4 0.443244 0.871791 0.049779
O O5 0.808074 0.543169 0.750000
O O6 0.865172 0.580251 0.937432
O O7 0.789636 0.634297 0.944047
O O8 0.798720 0.500000 0.000000
O O9 0.000000 0.966865 0.750000
O O10 0.000000 0.000000 0.500000
O O11 0.045397 0.897206 0.573192
O O12 0.899467 0.954461 0.750000
O O13 0.873531 0.871887 0.548400
O O14 0.899075 0.000000 0.500000
O O15 0.624492 0.720286 0.250000
O O16 0.669482 0.746174 0.467744
O O17 0.068705 0.500000 0.500000
O O18 0.078439 0.542215 0.750000
O O19 0.719477 0.770307 0.250000
O O20 0.750000 0.750000 0.500000
#
# Coordination Sequence:
#
# PCOD8259374 Si02
#       7
#    16  16   8  16  16  16  16
#     4   9  16  26  45  73 101 130 167 205 240 285
#     4   9  17  31  52  75 101 132 166 205 247 294
#     4   8  14  24  40  66  94 120 157 196 230 278
#     4   9  17  29  47  70  96 128 162 198 242 290
#     4   9  17  31  50  71  99 131 162 203 250 293
#     4   9  16  28  46  70  99 132 166 202 241 283
#     4  10  20  36  56  78 103 131 166 209 257 303
#
# _framework density 17.772656000000001
#
# number of rings (size 3 to 8) (size 9 to 14) (size 15 to 20)
#    0.000    2.923    1.538    0.000    1.077    0.923 
#    0.000    1.538    0.000    4.615    0.000    0.000 
#    0.000    0.000    0.000    0.000    0.000    0.000 
#
# Total GULP energy -644322.639490 kJ/mol
# GULP energy per Si atom -12390.819990 kJ/mol
# Density = 1.773220 g / cm^3
# Si number density = 17.772656 Si / 1000 Ang^3
#
#
#
# Elastic Constant Matrix: (Units=GPa)
#
#
# Indices 1 2 3 4 5 6 
#
# 1 106.8332 70.7042 34.7887 0.0000 0.0000 0.0000
# 2 70.7042 112.6893 47.2852 0.0000 0.0000 0.0000
# 3 34.7887 47.2852 46.8653 0.0000 0.0000 0.0000
# 4 0.0000 0.0000 0.0000 26.9471 0.0000 0.0000
# 5 0.0000 0.0000 0.0000 0.0000 18.2590 0.0000
# 6 0.0000 0.0000 0.0000 0.0000 0.0000 25.1095
#
#
#
# Elastic Compliance Matrix: (Units=1/GPa)
#
#
# Indices 1 2 3 4 5 6 
#
# 1 0.016260 -0.008909 -0.003081 0.000000 0.000000 0.000000
# 2 -0.008909 0.020271 -0.013839 0.000000 0.000000 0.000000
# 3 -0.003081 -0.013839 0.037588 0.000000 0.000000 0.000000
# 4 0.000000 0.000000 0.000000 0.037110 0.000000 0.000000
# 5 0.000000 0.000000 0.000000 0.000000 0.054767 0.000000
# 6 0.000000 0.000000 0.000000 0.000000 0.000000 0.039826
#
#
# Mechanical properties :
#
#
# Convention : Reuss Voigt Hill
#
# Bulk Modulus (GPa) = 44.52315 63.54932 54.03623
# Shear Modulus (GPa) = 18.87036 21.63712 20.25374
#
# Velocity S-wave (km/s) = 3.26201 3.49297 3.37946
# Velocity P-wave (km/s) = 6.26845 7.21818 6.76002
#
# Compressibility (1/GPa) = 0.02246022
#
# Stress axis : x y z
#
# Youngs Moduli (GPa) = 61.50114 49.33238 26.60438
#
# Poissons Ratio (x) = 0.43950 0.08197
# Poissons Ratio (y) = 0.54792 0.36818
# Poissons Ratio (z) = 0.18949 0.68271
#
# Static dielectric constant tensor:
#      x y z
#    x 4.355450 0.000000 0.000000 
#    y 0.000000 3.161930 0.000000 
#    z 0.000000 0.000000 2.978340 
# 
# 
# High freq. dielectric constant tensor:
#      x y z
#    x 1.677440 0.000000 0.000000 
#    y 0.000000 1.691240 0.000000 
#    z 0.000000 0.000000 1.646250 
# 
# From -- ./inp_files/25047.got.cif
#   From: 2010.03.12/outbox.cif.g09.slc.cpg/sg63_13_cif.got.tgz:25047.got - 2010.04.10 19:34:48.
