data_PCOD8260183
_publ_section_title
;
Structure prediction by ZEFSAII (Michael W. Deem and Ramdas Pophale) SiO2 
 PCOD8260183
Probable space group: C M C M
;
_chemical_formula_sum "Si O2"
_cell_formula_units_Z 80
_cell_length_a 16.342963
_cell_length_b 28.517696
_cell_length_c 8.706870
_cell_angle_alpha 90.000000
_cell_angle_beta 90.000000
_cell_angle_gamma 90.000000
_cell_volume 4057.955617
_symmetry_space_group_name_H-M "C M C M"
_symmetry_group_IT_number 63
_symmetry_cell_setting 'orthorhombic'
loop_
_space_group_symop_operation_xyz
x,y,z
-x,-y,1/2+z
x,-y,-z
-x,y,1/2-z
-x,-y,-z
x,y,1/2-z
-x,y,z
x,-y,1/2+z
1/2+x,1/2+y,z
1/2-x,1/2-y,1/2+z
1/2+x,1/2-y,-z
1/2-x,1/2+y,1/2-z
1/2-x,1/2-y,-z
1/2+x,1/2+y,1/2-z
1/2-x,1/2+y,z
1/2+x,1/2-y,1/2+z
loop_
_atom_site_type_symbol
_atom_site_label
_atom_site_fract_x
_atom_site_fract_y
_atom_site_fract_z
Si Si1 0.673380 0.453372 0.930179
Si Si2 0.262047 0.133079 0.577469
Si Si3 0.405472 0.806385 0.429153
Si Si4 0.637887 0.286291 0.424495
Si Si5 0.000000 0.933909 0.427840
Si Si6 0.000000 0.838819 0.923143
O O1 0.669834 0.458041 0.750000
O O2 0.716719 0.500000 0.000000
O O3 0.724252 0.406489 0.968338
O O4 0.581205 0.453361 0.993399
O O5 0.248909 0.114094 0.750000
O O6 0.357988 0.143873 0.543113
O O7 0.220953 0.184351 0.558257
O O8 0.400343 0.792685 0.250000
O O9 0.500000 0.811601 0.482366
O O10 0.356067 0.768178 0.530222
O O11 0.604630 0.290248 0.250000
O O12 0.577943 0.306921 0.552150
O O13 0.000000 0.947536 0.250000
O O14 0.000000 0.878292 0.447195
O O15 0.000000 0.859699 0.750000
#
# Coordination Sequence:
#
# PCOD8260183 Si02
#       6
#    16  16  16  16   8   8
#     4  12  25  41  62  87 116 152 192 238 288 343
#     4  10  22  39  58  83 117 155 194 240 292 343
#     4  10  21  37  58  84 117 155 195 240 289 346
#     4  11  21  34  55  82 117 158 196 238 284 336
#     4  12  23  39  60  86 121 156 194 235 279 337
#     4  12  22  33  53  82 118 160 198 233 278 333
#
# _framework density 19.714361
#
# number of rings (size 3 to 8) (size 9 to 14) (size 15 to 20)
#    0.000    1.000    3.000    5.100    0.000    1.600 
#    0.000    0.000    0.000    0.600    0.000    0.000 
#    0.000    0.000    0.000    0.000    0.000    0.000 
#
# Total GULP energy -495805.904077 kJ/mol
# GULP energy per Si atom -12395.147602 kJ/mol
# Density = 1.966949 g / cm^3
# Si number density = 19.714361 Si / 1000 Ang^3
#
#
#
# Elastic Constant Matrix: (Units=GPa)
#
#
# Indices 1 2 3 4 5 6 
#
# 1 78.4053 51.5837 39.3213 0.0000 0.0000 0.0000
# 2 51.5837 105.8400 49.9354 0.0000 0.0000 0.0000
# 3 39.3213 49.9354 129.2581 0.0000 0.0000 0.0000
# 4 0.0000 0.0000 0.0000 34.7789 0.0000 0.0000
# 5 0.0000 0.0000 0.0000 0.0000 16.9202 0.0000
# 6 0.0000 0.0000 0.0000 0.0000 0.0000 17.6445
#
#
#
# Elastic Compliance Matrix: (Units=1/GPa)
#
#
# Indices 1 2 3 4 5 6 
#
# 1 0.019554 -0.008222 -0.002772 0.000000 0.000000 0.000000
# 2 -0.008222 0.015012 -0.003298 0.000000 0.000000 0.000000
# 3 -0.002772 -0.003298 0.009854 0.000000 0.000000 0.000000
# 4 0.000000 0.000000 0.000000 0.028753 0.000000 0.000000
# 5 0.000000 0.000000 0.000000 0.000000 0.059101 0.000000
# 6 0.000000 0.000000 0.000000 0.000000 0.000000 0.056675
#
#
# Mechanical properties :
#
#
# Convention : Reuss Voigt Hill
#
# Bulk Modulus (GPa) = 63.15232 66.13156 64.64194
# Shear Modulus (GPa) = 22.44051 25.37958 23.91005
#
# Velocity S-wave (km/s) = 3.37750 3.59188 3.48634
# Velocity P-wave (km/s) = 6.87846 7.12880 7.00475
#
# Compressibility (1/GPa) = 0.01583473
#
# Stress axis : x y z
#
# Youngs Moduli (GPa) = 51.14056 66.61536 101.48336
#
# Poissons Ratio (x) = 0.54773 0.28131
# Poissons Ratio (y) = 0.42049 0.33470
# Poissons Ratio (z) = 0.14176 0.21970
#
# Static dielectric constant tensor:
#      x y z
#    x 3.549960 0.000000 0.000000 
#    y 0.000000 3.609220 0.000000 
#    z 0.000000 0.000000 3.562680 
# 
# 
# High freq. dielectric constant tensor:
#      x y z
#    x 1.751680 0.000000 0.000000 
#    y 0.000000 1.760100 0.000000 
#    z 0.000000 0.000000 1.773440 
# 
# From -- ./inp_files/6478.got.cif
#   From: 2010.03.12/outbox.cif.g09.slc.cpg/sg63_4_cif.got.tgz:6478.got - 2010.04.10 19:34:48.
