data_PCOD8260838
_publ_section_title
;
Structure prediction by ZEFSAII (Michael W. Deem and Ramdas Pophale) SiO2 
 PCOD8260838
Probable space group: C M C M
;
_chemical_formula_sum "Si O2"
_cell_formula_units_Z 112
_cell_length_a 22.284183
_cell_length_b 14.872204
_cell_length_c 15.654604
_cell_angle_alpha 90.000000
_cell_angle_beta 90.000000
_cell_angle_gamma 90.000000
_cell_volume 5188.169263
_symmetry_space_group_name_H-M "C M C M"
_symmetry_group_IT_number 63
_symmetry_cell_setting 'orthorhombic'
loop_
_space_group_symop_operation_xyz
x,y,z
-x,-y,1/2+z
x,-y,-z
-x,y,1/2-z
-x,-y,-z
x,y,1/2-z
-x,y,z
x,-y,1/2+z
1/2+x,1/2+y,z
1/2-x,1/2-y,1/2+z
1/2+x,1/2-y,-z
1/2-x,1/2+y,1/2-z
1/2-x,1/2-y,-z
1/2+x,1/2+y,1/2-z
1/2-x,1/2+y,z
1/2+x,1/2-y,1/2+z
loop_
_atom_site_type_symbol
_atom_site_label
_atom_site_fract_x
_atom_site_fract_y
_atom_site_fract_z
Si Si1 0.069880 0.723751 0.652455
Si Si2 0.184570 0.834928 0.151705
Si Si3 0.749090 0.503376 0.405675
Si Si4 0.368235 0.591786 0.348085
Si Si5 0.435135 0.583312 0.650617
Si Si6 0.841063 0.360226 0.654235
Si Si7 0.930900 0.604296 0.006560
O O1 0.084476 0.692197 0.750000
O O2 0.109081 0.809957 0.626595
O O3 0.087833 0.646560 0.584993
O O4 0.000000 0.748807 0.645504
O O5 0.178225 0.860492 0.250000
O O6 0.119516 0.859097 0.108995
O O7 0.199299 0.729798 0.136886
O O8 0.237854 0.899324 0.119127
O O9 0.776021 0.500000 0.500000
O O10 0.688604 0.562796 0.404784
O O11 0.799632 0.551465 0.348821
O O12 0.346756 0.588376 0.250000
O O13 0.422352 0.522400 0.363677
O O14 0.440119 0.605945 0.750000
O O15 0.500000 0.605967 0.607408
O O16 0.868693 0.355099 0.750000
O O17 0.894183 0.356859 0.586012
O O18 0.000000 0.624604 0.026782
O O19 0.917316 0.500000 0.000000
#
# Coordination Sequence:
#
# PCOD8260838 Si02
#       7
#    16  16  16  16  16  16  16
#     4   9  18  35  63  95 126 164 208 254 306 368
#     4   9  20  38  59  84 119 158 202 255 308 368
#     4  11  23  39  61  87 122 163 203 260 317 375
#     4   9  17  32  56  87 123 159 200 246 299 366
#     4   8  13  25  50  82 116 151 187 233 292 359
#     4  11  24  43  66  89 120 164 214 264 318 376
#     4  10  23  43  64  90 127 163 205 264 319 370
#
# _framework density 21.587577
#
# number of rings (size 3 to 8) (size 9 to 14) (size 15 to 20)
#    0.000    2.429    0.000    3.000    2.000    3.714 
#    2.571    2.857    0.000    2.143    0.000    0.000 
#    0.000    0.000    0.000    0.000    0.000    0.000 
#
# Total GULP energy -694101.591021 kJ/mol
# GULP energy per Si atom -12394.671268 kJ/mol
# Density = 2.153844 g / cm^3
# Si number density = 21.587577 Si / 1000 Ang^3
#
#
#
# Elastic Constant Matrix: (Units=GPa)
#
#
# Indices 1 2 3 4 5 6 
#
# 1 50.6176 20.6003 27.0040 0.0000 0.0000 0.0000
# 2 20.6003 106.2222 50.5767 0.0000 0.0000 0.0000
# 3 27.0040 50.5767 102.7915 0.0000 0.0000 0.0000
# 4 0.0000 0.0000 0.0000 28.2199 0.0000 0.0000
# 5 0.0000 0.0000 0.0000 0.0000 29.7453 0.0000
# 6 0.0000 0.0000 0.0000 0.0000 0.0000 27.4984
#
#
#
# Elastic Compliance Matrix: (Units=1/GPa)
#
#
# Indices 1 2 3 4 5 6 
#
# 1 0.023329 -0.002098 -0.005096 0.000000 0.000000 0.000000
# 2 -0.002098 0.012483 -0.005591 0.000000 0.000000 0.000000
# 3 -0.005096 -0.005591 0.013818 0.000000 0.000000 0.000000
# 4 0.000000 0.000000 0.000000 0.035436 0.000000 0.000000
# 5 0.000000 0.000000 0.000000 0.000000 0.033619 0.000000
# 6 0.000000 0.000000 0.000000 0.000000 0.000000 0.036366
#
#
# Mechanical properties :
#
#
# Convention : Reuss Voigt Hill
#
# Bulk Modulus (GPa) = 41.56322 50.66592 46.11457
# Shear Modulus (GPa) = 26.50543 27.85609 27.18076
#
# Velocity S-wave (km/s) = 3.50781 3.59608 3.55222
# Velocity P-wave (km/s) = 5.97507 6.38461 6.18323
#
# Compressibility (1/GPa) = 0.02405973
#
# Stress axis : x y z
#
# Youngs Moduli (GPa) = 42.86588 80.10801 72.36795
#
# Poissons Ratio (x) = 0.16804 0.36882
# Poissons Ratio (y) = 0.08992 0.40461
# Poissons Ratio (z) = 0.21846 0.44789
#
# Static dielectric constant tensor:
#      x y z
#    x 3.784820 0.000000 0.000000 
#    y 0.000000 3.874080 0.000000 
#    z 0.000000 0.000000 3.749190 
# 
# 
# High freq. dielectric constant tensor:
#      x y z
#    x 1.835020 0.000000 0.000000 
#    y 0.000000 1.847710 0.000000 
#    z 0.000000 0.000000 1.832410 
# 
# From -- ./inp_files/36958.got.cif
#   From: 2010.03.12/outbox.cif.g09.slc.cpg/sg63_19_cif.got.tgz:36958.got - 2010.04.10 19:34:48.
