data_PCOD8260761
_publ_section_title
;
Structure prediction by ZEFSAII (Michael W. Deem and Ramdas Pophale) SiO2 
 PCOD8260761
Probable space group: C M C M
;
_chemical_formula_sum "Si O2"
_cell_formula_units_Z 72
_cell_length_a 13.455719
_cell_length_b 29.163899
_cell_length_c 8.449697
_cell_angle_alpha 90.000000
_cell_angle_beta 90.000000
_cell_angle_gamma 90.000000
_cell_volume 3315.840489
_symmetry_space_group_name_H-M "C M C M"
_symmetry_group_IT_number 63
_symmetry_cell_setting 'orthorhombic'
loop_
_space_group_symop_operation_xyz
x,y,z
-x,-y,1/2+z
x,-y,-z
-x,y,1/2-z
-x,-y,-z
x,y,1/2-z
-x,y,z
x,-y,1/2+z
1/2+x,1/2+y,z
1/2-x,1/2-y,1/2+z
1/2+x,1/2-y,-z
1/2-x,1/2+y,1/2-z
1/2-x,1/2-y,-z
1/2+x,1/2+y,1/2-z
1/2-x,1/2+y,z
1/2+x,1/2-y,1/2+z
loop_
_atom_site_type_symbol
_atom_site_label
_atom_site_fract_x
_atom_site_fract_y
_atom_site_fract_z
Si Si1 0.784928 0.298138 0.564904
Si Si2 0.701649 0.045175 0.433215
Si Si3 0.000000 0.335602 0.938551
Si Si4 0.176689 0.117971 0.569006
Si Si5 0.000000 0.436428 0.062416
Si Si6 0.000000 0.947216 0.061268
O O1 0.785249 0.296023 0.750000
O O2 0.750000 0.250000 0.500000
O O3 0.898340 0.309119 0.508789
O O4 0.697828 0.333893 0.515542
O O5 0.727804 0.053530 0.250000
O O6 0.724131 0.089036 0.542015
O O7 0.586873 0.038517 0.466909
O O8 0.759244 0.000000 0.500000
O O9 0.000000 0.344987 0.750000
O O10 0.000000 0.382235 0.034765
O O11 0.153352 0.129026 0.750000
O O12 0.092083 0.083841 0.497552
O O13 0.000000 0.446987 0.250000
O O14 0.000000 0.950093 0.250000
O O15 0.000000 0.000000 0.000000
#
# Coordination Sequence:
#
# PCOD8260761 Si02
#       6
#    16  16   8  16   8   8
#     4  11  24  43  68  97 130 171 218 273 331 395
#     4  12  24  39  59  89 128 168 211 259 313 377
#     4  10  22  42  66  92 129 169 209 259 322 380
#     4  11  23  42  65  93 127 168 217 272 333 394
#     4  12  23  37  61  91 124 165 207 250 304 369
#     4  10  24  43  66  95 132 174 222 279 338 399
#
# _framework density 21.713951000000002
#
# number of rings (size 3 to 8) (size 9 to 14) (size 15 to 20)
#    0.000    0.889    2.222    5.333    0.000    5.333 
#    0.000    4.444    0.000    0.000    0.000    0.000 
#    0.000    0.000    0.000    0.000    0.000    0.000 
#
# Total GULP energy -446013.931769 kJ/mol
# GULP energy per Si atom -12389.275882 kJ/mol
# Density = 2.166453 g / cm^3
# Si number density = 21.713951 Si / 1000 Ang^3
#
#
#
# Elastic Constant Matrix: (Units=GPa)
#
#
# Indices 1 2 3 4 5 6 
#
# 1 98.2649 57.5158 24.7790 0.0000 0.0000 0.0000
# 2 57.5158 186.1532 31.1741 0.0000 0.0000 0.0000
# 3 24.7790 31.1741 65.8183 0.0000 0.0000 0.0000
# 4 0.0000 0.0000 0.0000 42.6431 0.0000 0.0000
# 5 0.0000 0.0000 0.0000 0.0000 28.1456 0.0000
# 6 0.0000 0.0000 0.0000 0.0000 0.0000 59.1173
#
#
#
# Elastic Compliance Matrix: (Units=1/GPa)
#
#
# Indices 1 2 3 4 5 6 
#
# 1 0.013036 -0.003482 -0.003259 0.000000 0.000000 0.000000
# 2 -0.003482 0.006765 -0.001893 0.000000 0.000000 0.000000
# 3 -0.003259 -0.001893 0.017317 0.000000 0.000000 0.000000
# 4 0.000000 0.000000 0.000000 0.023450 0.000000 0.000000
# 5 0.000000 0.000000 0.000000 0.000000 0.035530 0.000000
# 6 0.000000 0.000000 0.000000 0.000000 0.000000 0.016916
#
#
# Mechanical properties :
#
#
# Convention : Reuss Voigt Hill
#
# Bulk Modulus (GPa) = 50.37724 64.13046 57.25385
# Shear Modulus (GPa) = 36.52349 41.76570 39.14460
#
# Velocity S-wave (km/s) = 4.10570 4.39047 4.25047
# Velocity P-wave (km/s) = 6.76214 7.43640 7.10727
#
# Compressibility (1/GPa) = 0.01985023
#
# Stress axis : x y z
#
# Youngs Moduli (GPa) = 76.70802 147.82313 57.74741
#
# Poissons Ratio (x) = 0.51475 0.18818
# Poissons Ratio (y) = 0.26711 0.10932
# Poissons Ratio (z) = 0.24996 0.27985
#
# Static dielectric constant tensor:
#      x y z
#    x 4.333380 0.000000 0.000000 
#    y 0.000000 4.020420 0.000000 
#    z 0.000000 0.000000 3.521310 
# 
# 
# High freq. dielectric constant tensor:
#      x y z
#    x 1.859000 0.000000 0.000000 
#    y 0.000000 1.867920 0.000000 
#    z 0.000000 0.000000 1.844900 
# 
# From -- ./inp_files/4710.got.cif
#   From: 2010.03.12/outbox.cif.g09.slc.cpg/sg63_3_cif.got.tgz:4710.got - 2010.04.10 19:34:48.
