data_PCOD8260428
_publ_section_title
;
Structure prediction by ZEFSAII (Michael W. Deem and Ramdas Pophale) SiO2 
 PCOD8260428
Probable space group: C M C M
;
_chemical_formula_sum "Si O2"
_cell_formula_units_Z 56
_cell_length_a 19.250917
_cell_length_b 14.546440
_cell_length_c 9.515728
_cell_angle_alpha 90.000000
_cell_angle_beta 90.000000
_cell_angle_gamma 90.000000
_cell_volume 2664.711284
_symmetry_space_group_name_H-M "C M C M"
_symmetry_group_IT_number 63
_symmetry_cell_setting 'orthorhombic'
loop_
_space_group_symop_operation_xyz
x,y,z
-x,-y,1/2+z
x,-y,-z
-x,y,1/2-z
-x,-y,-z
x,y,1/2-z
-x,y,z
x,-y,1/2+z
1/2+x,1/2+y,z
1/2-x,1/2-y,1/2+z
1/2+x,1/2-y,-z
1/2-x,1/2+y,1/2-z
1/2-x,1/2-y,-z
1/2+x,1/2+y,1/2-z
1/2-x,1/2+y,z
1/2+x,1/2-y,1/2+z
loop_
_atom_site_type_symbol
_atom_site_label
_atom_site_fract_x
_atom_site_fract_y
_atom_site_fract_z
Si Si1 0.809109 0.121081 0.250000
Si Si2 0.577535 0.227373 0.750000
Si Si3 0.921726 0.606646 0.017895
Si Si4 0.580588 0.613137 0.750000
Si Si5 0.356875 0.500000 0.000000
Si Si6 0.837652 0.300113 0.750000
O O1 0.878166 0.180942 0.250000
O O2 0.745635 0.193096 0.250000
O O3 0.808649 0.061042 0.105233
O O4 0.500000 0.266510 0.750000
O O5 0.592074 0.160609 0.622807
O O6 0.000000 0.622853 0.075193
O O7 0.907437 0.500000 0.000000
O O8 0.864082 0.645407 0.117682
O O9 0.500000 0.645857 0.750000
O O10 0.593952 0.558023 0.605367
O O11 0.635060 0.696526 0.750000
#
# Coordination Sequence:
#
# PCOD8260428 Si02
#       6
#     8   8  16   8   8   8
#     4  11  26  45  64  94 129 172 220 261 329 380
#     4  10  22  41  66  93 128 167 212 266 317 378
#     4  10  21  39  63  95 128 167 212 258 317 382
#     4  11  23  43  71 100 128 166 217 271 323 377
#     4  10  25  46  66  92 129 174 218 268 315 386
#     4  12  25  39  63  95 131 171 209 270 317 389
#
# _framework density 21.015409999999999
#
# number of rings (size 3 to 8) (size 9 to 14) (size 15 to 20)
#    0.000    1.429    0.000    4.286    2.000   12.571 
#    5.143    0.000    0.000    0.000    0.000    0.000 
#    0.000    0.000    0.000    0.000    0.000    0.000 
#
# Total GULP energy -347090.309834 kJ/mol
# GULP energy per Si atom -12396.082494 kJ/mol
# Density = 2.096758 g / cm^3
# Si number density = 21.015410 Si / 1000 Ang^3
#
#
#
# Elastic Constant Matrix: (Units=GPa)
#
#
# Indices 1 2 3 4 5 6 
#
# 1 122.5364 61.8828 62.5375 0.0000 0.0000 0.0000
# 2 61.8828 127.8644 58.1388 0.0000 0.0000 0.0000
# 3 62.5375 58.1388 149.6782 0.0000 0.0000 0.0000
# 4 0.0000 0.0000 0.0000 34.9173 0.0000 0.0000
# 5 0.0000 0.0000 0.0000 0.0000 28.8183 0.0000
# 6 0.0000 0.0000 0.0000 0.0000 0.0000 37.1694
#
#
#
# Elastic Compliance Matrix: (Units=1/GPa)
#
#
# Indices 1 2 3 4 5 6 
#
# 1 0.012050 -0.004303 -0.003364 0.000000 0.000000 0.000000
# 2 -0.004303 0.011035 -0.002488 0.000000 0.000000 0.000000
# 3 -0.003364 -0.002488 0.009053 0.000000 0.000000 0.000000
# 4 0.000000 0.000000 0.000000 0.028639 0.000000 0.000000
# 5 0.000000 0.000000 0.000000 0.000000 0.034700 0.000000
# 6 0.000000 0.000000 0.000000 0.000000 0.000000 0.026904
#
#
# Mechanical properties :
#
#
# Convention : Reuss Voigt Hill
#
# Bulk Modulus (GPa) = 84.54058 85.02191 84.78124
# Shear Modulus (GPa) = 34.09873 34.68234 34.39053
#
# Velocity S-wave (km/s) = 4.03247 4.06683 4.04969
# Velocity P-wave (km/s) = 7.87377 7.91182 7.89282
#
# Compressibility (1/GPa) = 0.01182864
#
# Stress axis : x y z
#
# Youngs Moduli (GPa) = 82.98509 90.62388 110.46201
#
# Poissons Ratio (x) = 0.38992 0.37154
# Poissons Ratio (y) = 0.35706 0.27488
# Poissons Ratio (z) = 0.27912 0.22551
#
# Static dielectric constant tensor:
#      x y z
#    x 3.675220 0.000000 0.000000 
#    y 0.000000 3.922700 0.000000 
#    z 0.000000 0.000000 4.019050 
# 
# 
# High freq. dielectric constant tensor:
#      x y z
#    x 1.814780 0.000000 0.000000 
#    y 0.000000 1.835270 0.000000 
#    z 0.000000 0.000000 1.844870 
# 
# From -- ./inp_files/7363.got.cif
#   From: 2010.03.12/outbox.cif.g09.slc.cpg/sg63_4_cif.got.tgz:7363.got - 2010.04.10 19:34:48.
