data_PCOD8260693
_publ_section_title
;
Structure prediction by ZEFSAII (Michael W. Deem and Ramdas Pophale) SiO2 
 PCOD8260693
Probable space group: C M C M
;
_chemical_formula_sum "Si O2"
_cell_formula_units_Z 88
_cell_length_a 12.943417
_cell_length_b 14.445900
_cell_length_c 22.544983
_cell_angle_alpha 90.000000
_cell_angle_beta 90.000000
_cell_angle_gamma 90.000000
_cell_volume 4215.445312
_symmetry_space_group_name_H-M "C M C M"
_symmetry_group_IT_number 63
_symmetry_cell_setting 'orthorhombic'
loop_
_space_group_symop_operation_xyz
x,y,z
-x,-y,1/2+z
x,-y,-z
-x,y,1/2-z
-x,-y,-z
x,y,1/2-z
-x,y,z
x,-y,1/2+z
1/2+x,1/2+y,z
1/2-x,1/2-y,1/2+z
1/2+x,1/2-y,-z
1/2-x,1/2+y,1/2-z
1/2-x,1/2-y,-z
1/2+x,1/2+y,1/2-z
1/2-x,1/2+y,z
1/2+x,1/2-y,1/2+z
loop_
_atom_site_type_symbol
_atom_site_label
_atom_site_fract_x
_atom_site_fract_y
_atom_site_fract_z
Si Si1 0.000000 0.414141 0.451098
Si Si2 0.883102 0.952860 0.120618
Si Si3 0.174517 0.330264 0.981946
Si Si4 0.500000 0.982505 0.318032
Si Si5 0.718885 0.922976 0.815402
Si Si6 0.193490 0.000000 0.000000
Si Si7 0.615446 0.243595 0.139943
O O1 0.000000 0.500000 0.500000
O O2 0.100710 0.352389 0.462727
O O3 0.000000 0.425021 0.379521
O O4 0.851167 0.850948 0.142923
O O5 0.000000 0.977413 0.140365
O O6 0.803266 0.028951 0.143599
O O7 0.877943 0.951521 0.049223
O O8 0.236811 0.423705 0.966365
O O9 0.108029 0.297650 0.926131
O O10 0.250000 0.250000 0.000000
O O11 0.500000 0.935786 0.250000
O O12 0.397193 0.041968 0.324552
O O13 0.760782 0.941042 0.750000
O O14 0.706052 0.812546 0.826142
O O15 0.500000 0.233338 0.167665
#
# Coordination Sequence:
#
# PCOD8260693 Si02
#       7
#     8  16  16   8  16   8  16
#     4  12  22  38  68  99 130 171 220 282 336 401
#     4  11  25  41  65  98 134 176 217 264 328 406
#     4  12  23  36  62 100 133 166 213 271 335 390
#     4  10  22  40  66  98 128 172 224 278 344 400
#     4  11  23  43  69  94 127 168 219 282 334 386
#     4  12  21  39  64  92 138 173 212 265 332 396
#     4  11  22  40  65  97 128 166 222 275 325 395
#
# _framework density 20.875612
#
# number of rings (size 3 to 8) (size 9 to 14) (size 15 to 20)
#    0.000    0.727    6.364    2.455    0.000    1.091 
#    1.636    1.818    2.000    0.000    0.000    0.000 
#    0.000    0.000    0.000    0.000    0.000    0.000 
#
# Total GULP energy -545172.462336 kJ/mol
# GULP energy per Si atom -12390.283235 kJ/mol
# Density = 2.082810 g / cm^3
# Si number density = 20.875612 Si / 1000 Ang^3
#
#
#
# Elastic Constant Matrix: (Units=GPa)
#
#
# Indices 1 2 3 4 5 6 
#
# 1 114.8440 62.0689 36.2744 0.0000 0.0000 0.0000
# 2 62.0689 115.6203 18.8161 0.0000 0.0000 0.0000
# 3 36.2744 18.8161 102.2689 0.0000 0.0000 0.0000
# 4 0.0000 0.0000 0.0000 21.4980 0.0000 0.0000
# 5 0.0000 0.0000 0.0000 0.0000 23.2049 0.0000
# 6 0.0000 0.0000 0.0000 0.0000 0.0000 35.2024
#
#
#
# Elastic Compliance Matrix: (Units=1/GPa)
#
#
# Indices 1 2 3 4 5 6 
#
# 1 0.013402 -0.006619 -0.003536 0.000000 0.000000 0.000000
# 2 -0.006619 0.012185 0.000106 0.000000 0.000000 0.000000
# 3 -0.003536 0.000106 0.011013 0.000000 0.000000 0.000000
# 4 0.000000 0.000000 0.000000 0.046516 0.000000 0.000000
# 5 0.000000 0.000000 0.000000 0.000000 0.043094 0.000000
# 6 0.000000 0.000000 0.000000 0.000000 0.000000 0.028407
#
#
# Mechanical properties :
#
#
# Convention : Reuss Voigt Hill
#
# Bulk Modulus (GPa) = 60.59971 63.00577 61.80274
# Shear Modulus (GPa) = 27.74462 30.35264 29.04863
#
# Velocity S-wave (km/s) = 3.64956 3.81724 3.73434
# Velocity P-wave (km/s) = 6.84478 7.04808 6.94718
#
# Compressibility (1/GPa) = 0.01650173
#
# Stress axis : x y z
#
# Youngs Moduli (GPa) = 74.61811 82.06749 90.80375
#
# Poissons Ratio (x) = 0.54321 0.32105
# Poissons Ratio (y) = 0.49390 -0.00961
# Poissons Ratio (z) = 0.26383 -0.00869
#
# Static dielectric constant tensor:
#      x y z
#    x 3.732510 0.000000 0.000000 
#    y 0.000000 3.746900 0.000000 
#    z 0.000000 0.000000 4.091500 
# 
# 
# High freq. dielectric constant tensor:
#      x y z
#    x 1.817960 0.000000 0.000000 
#    y 0.000000 1.808530 0.000000 
#    z 0.000000 0.000000 1.813960 
# 
# From -- ./inp_files/61287.got.cif
#   From: 2010.03.12/outbox.cif.g09.slc.cpg/sg63_31_cif.got.tgz:61287.got - 2010.04.10 19:34:48.
