data_PCOD8260144
_publ_section_title
;
Structure prediction by ZEFSAII (Michael W. Deem and Ramdas Pophale) SiO2 
 PCOD8260144
Probable space group: C M C M
;
_chemical_formula_sum "Si O2"
_cell_formula_units_Z 72
_cell_length_a 21.574887
_cell_length_b 17.733378
_cell_length_c 9.218983
_cell_angle_alpha 90.000000
_cell_angle_beta 90.000000
_cell_angle_gamma 90.000000
_cell_volume 3527.142576
_symmetry_space_group_name_H-M "C M C M"
_symmetry_group_IT_number 63
_symmetry_cell_setting 'orthorhombic'
loop_
_space_group_symop_operation_xyz
x,y,z
-x,-y,1/2+z
x,-y,-z
-x,y,1/2-z
-x,-y,-z
x,y,1/2-z
-x,y,z
x,-y,1/2+z
1/2+x,1/2+y,z
1/2-x,1/2-y,1/2+z
1/2+x,1/2-y,-z
1/2-x,1/2+y,1/2-z
1/2-x,1/2-y,-z
1/2+x,1/2+y,1/2-z
1/2-x,1/2+y,z
1/2+x,1/2-y,1/2+z
loop_
_atom_site_type_symbol
_atom_site_label
_atom_site_fract_x
_atom_site_fract_y
_atom_site_fract_z
Si Si1 0.250935 0.074608 0.915439
Si Si2 0.373315 0.840583 0.417681
Si Si3 0.355152 0.311777 0.078852
Si Si4 0.500000 0.079201 0.579924
Si Si5 0.072961 0.929127 0.587657
O O1 0.237741 0.055615 0.750000
O O2 0.322733 0.094204 0.942309
O O3 0.208390 0.145316 0.963326
O O4 0.231960 0.000000 0.000000
O O5 0.374240 0.813935 0.250000
O O6 0.352852 0.772490 0.519701
O O7 0.439844 0.872733 0.465867
O O8 0.367107 0.310119 0.250000
O O9 0.411812 0.353307 0.999328
O O10 0.500000 0.062078 0.750000
O O11 0.500000 0.000000 0.500000
O O12 0.101526 0.927603 0.750000
O O13 0.000000 0.936770 0.598365
O O14 0.101509 0.000000 0.500000
#
# Coordination Sequence:
#
# PCOD8260144 Si02
#       5
#    16  16  16   8  16
#     4  10  22  39  60  86 118 155 197 244 297 353
#     4  10  22  40  60  86 120 156 196 245 295 351
#     4  11  23  37  57  87 119 154 197 242 294 352
#     4  10  22  40  64  90 117 152 197 242 292 348
#     4  10  21  37  57  81 113 154 197 243 294 349
#
# _framework density 20.413124
#
# number of rings (size 3 to 8) (size 9 to 14) (size 15 to 20)
#    0.000    1.778    0.000    3.333    1.556    6.667 
#    0.000    0.000    0.000    0.000    0.000    0.000 
#    0.000    0.000    0.000    0.000    0.000    0.000 
#
# Total GULP energy -446535.115392 kJ/mol
# GULP energy per Si atom -12403.753205 kJ/mol
# Density = 2.036666 g / cm^3
# Si number density = 20.413124 Si / 1000 Ang^3
#
#
#
# Elastic Constant Matrix: (Units=GPa)
#
#
# Indices 1 2 3 4 5 6 
#
# 1 100.9559 50.7077 47.3296 0.0000 0.0000 0.0000
# 2 50.7077 127.0161 70.8613 0.0000 0.0000 0.0000
# 3 47.3296 70.8613 115.9360 0.0000 0.0000 0.0000
# 4 0.0000 0.0000 0.0000 45.1381 0.0000 0.0000
# 5 0.0000 0.0000 0.0000 0.0000 20.0636 0.0000
# 6 0.0000 0.0000 0.0000 0.0000 0.0000 25.8067
#
#
#
# Elastic Compliance Matrix: (Units=1/GPa)
#
#
# Indices 1 2 3 4 5 6 
#
# 1 0.013164 -0.003425 -0.003280 0.000000 0.000000 0.000000
# 2 -0.003425 0.012838 -0.006448 0.000000 0.000000 0.000000
# 3 -0.003280 -0.006448 0.013906 0.000000 0.000000 0.000000
# 4 0.000000 0.000000 0.000000 0.022154 0.000000 0.000000
# 5 0.000000 0.000000 0.000000 0.000000 0.049842 0.000000
# 6 0.000000 0.000000 0.000000 0.000000 0.000000 0.038750
#
#
# Mechanical properties :
#
#
# Convention : Reuss Voigt Hill
#
# Bulk Modulus (GPa) = 73.53149 75.74501 74.63825
# Shear Modulus (GPa) = 27.54914 29.86898 28.70906
#
# Velocity S-wave (km/s) = 3.67765 3.82936 3.75427
# Velocity P-wave (km/s) = 7.35754 7.53250 7.44553
#
# Compressibility (1/GPa) = 0.01359962
#
# Stress axis : x y z
#
# Youngs Moduli (GPa) = 75.96729 77.89439 71.91148
#
# Poissons Ratio (x) = 0.26679 0.23590
# Poissons Ratio (y) = 0.26019 0.46371
# Poissons Ratio (z) = 0.24921 0.50230
#
# Static dielectric constant tensor:
#      x y z
#    x 3.763500 0.000000 0.000000 
#    y 0.000000 3.552010 0.000000 
#    z 0.000000 0.000000 3.840740 
# 
# 
# High freq. dielectric constant tensor:
#      x y z
#    x 1.806800 0.000000 0.000000 
#    y 0.000000 1.796600 0.000000 
#    z 0.000000 0.000000 1.800090 
# 
# From -- ./inp_files/11712.got.cif
#   From: 2010.03.12/outbox.cif.g09.slc.cpg/sg63_6_cif.got.tgz:11712.got - 2010.04.10 19:34:48.
