data_PCOD8260961
_publ_section_title
;
Structure prediction by ZEFSAII (Michael W. Deem and Ramdas Pophale) SiO2 
 PCOD8260961
Probable space group: C M C M
;
_chemical_formula_sum "Si O2"
_cell_formula_units_Z 96
_cell_length_a 19.295640
_cell_length_b 17.960807
_cell_length_c 14.618149
_cell_angle_alpha 90.000000
_cell_angle_beta 90.000000
_cell_angle_gamma 90.000000
_cell_volume 5066.142696
_symmetry_space_group_name_H-M "C M C M"
_symmetry_group_IT_number 63
_symmetry_cell_setting 'orthorhombic'
loop_
_space_group_symop_operation_xyz
x,y,z
-x,-y,1/2+z
x,-y,-z
-x,y,1/2-z
-x,-y,-z
x,y,1/2-z
-x,y,z
x,-y,1/2+z
1/2+x,1/2+y,z
1/2-x,1/2-y,1/2+z
1/2+x,1/2-y,-z
1/2-x,1/2+y,1/2-z
1/2-x,1/2-y,-z
1/2+x,1/2+y,1/2-z
1/2-x,1/2+y,z
1/2+x,1/2-y,1/2+z
loop_
_atom_site_type_symbol
_atom_site_label
_atom_site_fract_x
_atom_site_fract_y
_atom_site_fract_z
Si Si1 0.716757 0.190886 0.853458
Si Si2 0.077382 0.904405 0.250000
Si Si3 0.129537 0.803552 0.401299
Si Si4 0.662164 0.343389 0.595173
Si Si5 0.078898 0.645578 0.355375
Si Si6 0.421435 0.579560 0.250000
Si Si7 0.801599 0.586556 0.480450
O O1 0.718320 0.158560 0.750000
O O2 0.791051 0.220362 0.887352
O O3 0.669618 0.264075 0.855194
O O4 0.688345 0.128026 0.922237
O O5 0.115288 0.875015 0.339728
O O6 0.000000 0.872818 0.250000
O O7 0.079560 0.991727 0.250000
O O8 0.117048 0.829673 0.504482
O O9 0.082300 0.733550 0.376176
O O10 0.617704 0.396011 0.659222
O O11 0.735398 0.382392 0.573762
O O12 0.099686 0.631332 0.250000
O O13 0.129769 0.598527 0.419887
O O14 0.000000 0.619495 0.373727
O O15 0.500000 0.610365 0.250000
O O16 0.790886 0.500000 0.500000
#
# Coordination Sequence:
#
# PCOD8260961 Si02
#       7
#    16   8  16  16  16   8  16
#     4  11  20  39  64  92 122 159 210 265 301 357
#     4  11  24  39  58  90 127 161 200 255 312 363
#     4  11  20  37  63  91 121 158 209 257 306 360
#     4  11  23  41  65  89 123 166 209 255 301 365
#     4  11  22  38  63  94 123 159 206 256 312 368
#     4  11  28  43  58  92 132 169 204 249 313 371
#     4  11  25  40  63  97 126 161 208 256 314 367
#
# _framework density 18.949328000000001
#
# number of rings (size 3 to 8) (size 9 to 14) (size 15 to 20)
#    0.000    1.000    5.833    1.500    5.833    2.333 
#    0.000    1.667    0.000    0.000    0.000    0.000 
#    0.000    0.000    0.000    0.000    0.000    0.000 
#
# Total GULP energy -595346.801429 kJ/mol
# GULP energy per Si atom -12403.058363 kJ/mol
# Density = 1.890620 g / cm^3
# Si number density = 18.949328 Si / 1000 Ang^3
#
#
#
# Elastic Constant Matrix: (Units=GPa)
#
#
# Indices 1 2 3 4 5 6 
#
# 1 80.2580 27.4728 44.1123 0.0000 0.0000 0.0000
# 2 27.4728 95.7835 32.3598 0.0000 0.0000 0.0000
# 3 44.1123 32.3598 141.4882 0.0000 0.0000 0.0000
# 4 0.0000 0.0000 0.0000 35.9167 0.0000 0.0000
# 5 0.0000 0.0000 0.0000 0.0000 16.5506 0.0000
# 6 0.0000 0.0000 0.0000 0.0000 0.0000 18.8365
#
#
#
# Elastic Compliance Matrix: (Units=1/GPa)
#
#
# Indices 1 2 3 4 5 6 
#
# 1 0.015851 -0.003118 -0.004229 0.000000 0.000000 0.000000
# 2 -0.003118 0.011928 -0.001756 0.000000 0.000000 0.000000
# 3 -0.004229 -0.001756 0.008788 0.000000 0.000000 0.000000
# 4 0.000000 0.000000 0.000000 0.027842 0.000000 0.000000
# 5 0.000000 0.000000 0.000000 0.000000 0.060421 0.000000
# 6 0.000000 0.000000 0.000000 0.000000 0.000000 0.053088
#
#
# Mechanical properties :
#
#
# Convention : Reuss Voigt Hill
#
# Bulk Modulus (GPa) = 54.46180 58.37995 56.42087
# Shear Modulus (GPa) = 24.72260 28.49976 26.61118
#
# Velocity S-wave (km/s) = 3.61594 3.88235 3.75151
# Velocity P-wave (km/s) = 6.79974 7.13948 6.97168
#
# Compressibility (1/GPa) = 0.01836149
#
# Stress axis : x y z
#
# Youngs Moduli (GPa) = 63.08573 83.83845 113.79397
#
# Poissons Ratio (x) = 0.26139 0.48123
# Poissons Ratio (y) = 0.19669 0.19981
# Poissons Ratio (z) = 0.26679 0.14721
#
# Static dielectric constant tensor:
#      x y z
#    x 3.464350 0.000000 0.000000 
#    y 0.000000 3.292440 0.000000 
#    z 0.000000 0.000000 3.623980 
# 
# 
# High freq. dielectric constant tensor:
#      x y z
#    x 1.728790 0.000000 0.000000 
#    y 0.000000 1.729390 0.000000 
#    z 0.000000 0.000000 1.752120 
# 
# From -- ./inp_files/35434.got.cif
#   From: 2010.03.12/outbox.cif.g09.slc.cpg/sg63_18_cif.got.tgz:35434.got - 2010.04.10 19:34:48.
