data_PCOD8260488
_publ_section_title
;
Structure prediction by ZEFSAII (Michael W. Deem and Ramdas Pophale) SiO2 
 PCOD8260488
Probable space group: C M C M
;
_chemical_formula_sum "Si O2"
_cell_formula_units_Z 112
_cell_length_a 16.618838
_cell_length_b 11.553384
_cell_length_c 27.348141
_cell_angle_alpha 90.000000
_cell_angle_beta 90.000000
_cell_angle_gamma 90.000000
_cell_volume 5250.947461
_symmetry_space_group_name_H-M "C M C M"
_symmetry_group_IT_number 63
_symmetry_cell_setting 'orthorhombic'
loop_
_space_group_symop_operation_xyz
x,y,z
-x,-y,1/2+z
x,-y,-z
-x,y,1/2-z
-x,-y,-z
x,y,1/2-z
-x,y,z
x,-y,1/2+z
1/2+x,1/2+y,z
1/2-x,1/2-y,1/2+z
1/2+x,1/2-y,-z
1/2-x,1/2+y,1/2-z
1/2-x,1/2-y,-z
1/2+x,1/2+y,1/2-z
1/2-x,1/2+y,z
1/2+x,1/2-y,1/2+z
loop_
_atom_site_type_symbol
_atom_site_label
_atom_site_fract_x
_atom_site_fract_y
_atom_site_fract_z
Si Si1 0.092854 0.260917 0.646061
Si Si2 0.406707 0.348938 0.603985
Si Si3 0.593606 0.208300 0.696243
Si Si4 0.341126 0.128135 0.946292
Si Si5 0.409189 0.891480 0.548198
Si Si6 0.820633 0.528973 0.193242
Si Si7 0.198168 0.945216 0.381216
O O1 0.101556 0.296941 0.589695
O O2 0.124510 0.359289 0.682615
O O3 0.147309 0.146636 0.650852
O O4 0.000000 0.234047 0.659441
O O5 0.500000 0.376602 0.598479
O O6 0.383499 0.309750 0.659015
O O7 0.383093 0.247206 0.567609
O O8 0.360575 0.466699 0.590335
O O9 0.623526 0.247207 0.750000
O O10 0.500000 0.182573 0.695895
O O11 0.633232 0.088715 0.679882
O O12 0.252554 0.118252 0.922352
O O13 0.392994 0.017695 0.927842
O O14 0.342602 0.128611 0.005727
O O15 0.500000 0.887547 0.526678
O O16 0.794961 0.532723 0.250000
O O17 0.744579 0.526476 0.157477
#
# Coordination Sequence:
#
# PCOD8260488 Si02
#       7
#    16  16  16  16  16  16  16
#     4  11  24  45  66  89 127 170 212 256 309 378
#     4  11  22  40  62  86 125 168 206 252 310 379
#     4   9  18  34  59  88 114 151 204 254 303 364
#     4  11  21  38  65  92 126 161 210 260 317 369
#     4  10  21  40  67  97 125 164 216 266 311 370
#     4  11  23  40  65  93 124 158 204 263 316 367
#     4  12  25  41  59  98 128 164 207 257 317 376
#
# _framework density 21.329484000000001
#
# number of rings (size 3 to 8) (size 9 to 14) (size 15 to 20)
#    0.000    1.286    2.857    3.429    0.000    4.857 
#    2.571    0.000    0.000    5.143    0.000    0.000 
#    0.000    0.000    0.000    0.000    0.000    0.000 
#
# Total GULP energy -694365.587673 kJ/mol
# GULP energy per Si atom -12399.385494 kJ/mol
# Density = 2.128094 g / cm^3
# Si number density = 21.329484 Si / 1000 Ang^3
#
#
#
# Elastic Constant Matrix: (Units=GPa)
#
#
# Indices 1 2 3 4 5 6 
#
# 1 71.5338 38.9137 39.8956 0.0000 0.0000 0.0000
# 2 38.9137 53.6963 10.1563 0.0000 0.0000 0.0000
# 3 39.8956 10.1563 61.6550 0.0000 0.0000 0.0000
# 4 0.0000 0.0000 0.0000 21.3842 0.0000 0.0000
# 5 0.0000 0.0000 0.0000 0.0000 12.0948 0.0000
# 6 0.0000 0.0000 0.0000 0.0000 0.0000 41.0108
#
#
#
# Elastic Compliance Matrix: (Units=1/GPa)
#
#
# Indices 1 2 3 4 5 6 
#
# 1 0.039044 -0.024273 -0.021266 0.000000 0.000000 0.000000
# 2 -0.024273 0.034312 0.010054 0.000000 0.000000 0.000000
# 3 -0.021266 0.010054 0.028324 0.000000 0.000000 0.000000
# 4 0.000000 0.000000 0.000000 0.046764 0.000000 0.000000
# 5 0.000000 0.000000 0.000000 0.000000 0.082680 0.000000
# 6 0.000000 0.000000 0.000000 0.000000 0.000000 0.024384
#
#
# Mechanical properties :
#
#
# Convention : Reuss Voigt Hill
#
# Bulk Modulus (GPa) = 32.56202 40.53515 36.54858
# Shear Modulus (GPa) = 14.84938 21.42593 18.13766
#
# Velocity S-wave (km/s) = 2.64140 3.17286 2.91925
# Velocity P-wave (km/s) = 4.96004 5.69809 5.34183
#
# Compressibility (1/GPa) = 0.03071062
#
# Stress axis : x y z
#
# Youngs Moduli (GPa) = 25.61198 29.14416 35.30582
#
# Poissons Ratio (x) = 0.70742 0.75082
# Poissons Ratio (y) = 0.62168 -0.35498
# Poissons Ratio (z) = 0.54467 -0.29303
#
# Static dielectric constant tensor:
#      x y z
#    x 3.869210 0.000000 0.000000 
#    y 0.000000 3.712910 0.000000 
#    z 0.000000 0.000000 3.826400 
# 
# 
# High freq. dielectric constant tensor:
#      x y z
#    x 1.836170 0.000000 0.000000 
#    y 0.000000 1.834200 0.000000 
#    z 0.000000 0.000000 1.830550 
# 
# From -- ./inp_files/73440.got.cif
#   From: 2010.03.12/outbox.cif.g09.slc.cpg/sg63_37_cif.got.tgz:73440.got - 2010.04.10 19:34:48.
