data_PCOD8260788
_publ_section_title
;
Structure prediction by ZEFSAII (Michael W. Deem and Ramdas Pophale) SiO2 
 PCOD8260788
Probable space group: C M C M
;
_chemical_formula_sum "Si O2"
_cell_formula_units_Z 88
_cell_length_a 13.685788
_cell_length_b 13.490009
_cell_length_c 25.945647
_cell_angle_alpha 90.000000
_cell_angle_beta 90.000000
_cell_angle_gamma 90.000000
_cell_volume 4790.121758
_symmetry_space_group_name_H-M "C M C M"
_symmetry_group_IT_number 63
_symmetry_cell_setting 'orthorhombic'
loop_
_space_group_symop_operation_xyz
x,y,z
-x,-y,1/2+z
x,-y,-z
-x,y,1/2-z
-x,-y,-z
x,y,1/2-z
-x,y,z
x,-y,1/2+z
1/2+x,1/2+y,z
1/2-x,1/2-y,1/2+z
1/2+x,1/2-y,-z
1/2-x,1/2+y,1/2-z
1/2-x,1/2-y,-z
1/2+x,1/2+y,1/2-z
1/2-x,1/2+y,z
1/2+x,1/2-y,1/2+z
loop_
_atom_site_type_symbol
_atom_site_label
_atom_site_fract_x
_atom_site_fract_y
_atom_site_fract_z
Si Si1 0.816269 0.553711 0.384788
Si Si2 0.000000 0.535976 0.942005
Si Si3 0.216744 0.782675 0.556114
Si Si4 0.500000 0.266699 0.959697
Si Si5 0.113348 0.282340 0.692335
Si Si6 0.000000 0.914389 0.044061
Si Si7 0.822524 0.881169 0.118194
O O1 0.772238 0.615884 0.432020
O O2 0.838192 0.627228 0.338006
O O3 0.738576 0.475478 0.362343
O O4 0.908300 0.497889 0.408570
O O5 0.000000 0.651475 0.951272
O O6 0.000000 0.500000 0.000000
O O7 0.250000 0.750000 0.500000
O O8 0.101426 0.807244 0.564044
O O9 0.245528 0.693747 0.593304
O O10 0.500000 0.303839 0.019185
O O11 0.157399 0.278838 0.750000
O O12 0.128957 0.175054 0.666290
O O13 0.000000 0.305618 0.693868
O O14 0.903614 0.921619 0.078638
O O15 0.000000 0.000000 0.000000
#
# Coordination Sequence:
#
# PCOD8260788 Si02
#       7
#    16   8  16   8  16   8  16
#     4  11  24  39  59  91 121 161 205 249 309 372
#     4  12  24  34  58  88 127 166 198 246 291 356
#     4  11  22  35  56  83 124 166 204 243 289 359
#     4  12  22  38  56  82 124 170 205 238 283 346
#     4  10  22  43  68  88 114 155 209 269 317 360
#     4  12  24  36  58  86 131 178 201 240 292 366
#     4  11  23  38  59  91 121 157 211 250 305 369
#
# _framework density 18.37114
#
# number of rings (size 3 to 8) (size 9 to 14) (size 15 to 20)
#    0.000    0.909    5.455    2.182    2.545    0.727 
#    0.000    0.000    0.000    0.000    0.000    3.818 
#    0.000    0.000    0.000    0.000    0.000    0.000 
#
# Total GULP energy -545424.024384 kJ/mol
# GULP energy per Si atom -12396.000554 kJ/mol
# Density = 1.832933 g / cm^3
# Si number density = 18.371140 Si / 1000 Ang^3
#
#
#
# Elastic Constant Matrix: (Units=GPa)
#
#
# Indices 1 2 3 4 5 6 
#
# 1 126.0377 46.8392 38.9147 0.0000 0.0000 0.0000
# 2 46.8392 129.3855 52.8961 0.0000 0.0000 0.0000
# 3 38.9147 52.8961 107.7844 0.0000 0.0000 0.0000
# 4 0.0000 0.0000 0.0000 24.1116 0.0000 0.0000
# 5 0.0000 0.0000 0.0000 0.0000 19.4792 0.0000
# 6 0.0000 0.0000 0.0000 0.0000 0.0000 85.6149
#
#
#
# Elastic Compliance Matrix: (Units=1/GPa)
#
#
# Indices 1 2 3 4 5 6 
#
# 1 0.009565 -0.002566 -0.002194 0.000000 0.000000 0.000000
# 2 -0.002566 0.010357 -0.004156 0.000000 0.000000 0.000000
# 3 -0.002194 -0.004156 0.012110 0.000000 0.000000 0.000000
# 4 0.000000 0.000000 0.000000 0.041474 0.000000 0.000000
# 5 0.000000 0.000000 0.000000 0.000000 0.051337 0.000000
# 6 0.000000 0.000000 0.000000 0.000000 0.000000 0.011680
#
#
# Mechanical properties :
#
#
# Convention : Reuss Voigt Hill
#
# Bulk Modulus (GPa) = 70.42697 71.16750 70.79724
# Shear Modulus (GPa) = 31.42908 40.81165 36.12037
#
# Velocity S-wave (km/s) = 4.14065 4.71840 4.43894
# Velocity P-wave (km/s) = 7.82808 8.27691 8.05562
#
# Compressibility (1/GPa) = 0.01419911
#
# Stress axis : x y z
#
# Youngs Moduli (GPa) = 104.54687 96.55425 82.57761
#
# Poissons Ratio (x) = 0.24772 0.18120
# Poissons Ratio (y) = 0.26822 0.34323
# Poissons Ratio (z) = 0.22941 0.40132
#
# Static dielectric constant tensor:
#      x y z
#    x 3.951890 0.000000 0.000000 
#    y 0.000000 3.540820 0.000000 
#    z 0.000000 0.000000 3.390490 
# 
# 
# High freq. dielectric constant tensor:
#      x y z
#    x 1.729140 0.000000 0.000000 
#    y 0.000000 1.726660 0.000000 
#    z 0.000000 0.000000 1.685600 
# 
# From -- ./inp_files/62715.got.cif
#   From: 2010.03.12/outbox.cif.g09.slc.cpg/sg63_32_cif.got.tgz:62715.got - 2010.04.10 19:34:48.
