data_PCOD8260686
_publ_section_title
;
Structure prediction by ZEFSAII (Michael W. Deem and Ramdas Pophale) SiO2 
 PCOD8260686
Probable space group: C M C M
;
_chemical_formula_sum "Si O2"
_cell_formula_units_Z 48
_cell_length_a 7.428621
_cell_length_b 22.356285
_cell_length_c 14.734083
_cell_angle_alpha 90.000000
_cell_angle_beta 90.000000
_cell_angle_gamma 90.000000
_cell_volume 2446.982994
_symmetry_space_group_name_H-M "C M C M"
_symmetry_group_IT_number 63
_symmetry_cell_setting 'orthorhombic'
loop_
_space_group_symop_operation_xyz
x,y,z
-x,-y,1/2+z
x,-y,-z
-x,y,1/2-z
-x,-y,-z
x,y,1/2-z
-x,y,z
x,-y,1/2+z
1/2+x,1/2+y,z
1/2-x,1/2-y,1/2+z
1/2+x,1/2-y,-z
1/2-x,1/2+y,1/2-z
1/2-x,1/2-y,-z
1/2+x,1/2+y,1/2-z
1/2-x,1/2+y,z
1/2+x,1/2-y,1/2+z
loop_
_atom_site_type_symbol
_atom_site_label
_atom_site_fract_x
_atom_site_fract_y
_atom_site_fract_z
Si Si1 0.000000 0.996225 0.393202
Si Si2 0.794831 0.403077 0.351324
Si Si3 0.208642 0.318796 0.985321
Si Si4 0.500000 0.367617 0.852561
O O1 0.822052 0.962543 0.360353
O O2 0.000000 0.000000 0.500000
O O3 0.000000 0.061070 0.349235
O O4 0.771170 0.376135 0.250000
O O5 0.732259 0.353014 0.422896
O O6 0.000000 0.422299 0.369393
O O7 0.321452 0.343797 0.901472
O O8 0.000000 0.329222 0.963033
O O9 0.250000 0.250000 0.000000
O O10 0.500000 0.342830 0.750000
#
# Coordination Sequence:
#
# PCOD8260686 Si02
#       4
#     8  16  16   8
#     4  12  22  41  69  92 127 173 212 261 324 382
#     4  10  22  40  65  96 125 163 213 265 320 384
#     4  11  23  42  66  92 131 171 214 263 319 380
#     4  12  26  43  64  97 134 169 214 268 318 378
#
# _framework density 19.615994000000001
#
# number of rings (size 3 to 8) (size 9 to 14) (size 15 to 20)
#    0.000    1.000    5.000    1.500    0.000    4.000 
#    0.000    0.000    0.000    0.000    0.000    0.000 
#    0.000    0.000    0.000    0.000    0.000    0.000 
#
# Total GULP energy -297699.149739 kJ/mol
# GULP energy per Si atom -12404.131239 kJ/mol
# Density = 1.957135 g / cm^3
# Si number density = 19.615994 Si / 1000 Ang^3
#
#
#
# Elastic Constant Matrix: (Units=GPa)
#
#
# Indices 1 2 3 4 5 6 
#
# 1 125.4146 59.2553 66.9638 0.0000 0.0000 0.0000
# 2 59.2553 150.7050 57.4669 0.0000 0.0000 0.0000
# 3 66.9638 57.4669 175.9645 0.0000 0.0000 0.0000
# 4 0.0000 0.0000 0.0000 11.4132 0.0000 0.0000
# 5 0.0000 0.0000 0.0000 0.0000 35.1145 0.0000
# 6 0.0000 0.0000 0.0000 0.0000 0.0000 32.7816
#
#
#
# Elastic Compliance Matrix: (Units=1/GPa)
#
#
# Indices 1 2 3 4 5 6 
#
# 1 0.011194 -0.003172 -0.003224 0.000000 0.000000 0.000000
# 2 -0.003172 0.008478 -0.001562 0.000000 0.000000 0.000000
# 3 -0.003224 -0.001562 0.007420 0.000000 0.000000 0.000000
# 4 0.000000 0.000000 0.000000 0.087618 0.000000 0.000000
# 5 0.000000 0.000000 0.000000 0.000000 0.028478 0.000000
# 6 0.000000 0.000000 0.000000 0.000000 0.000000 0.030505
#
#
# Mechanical properties :
#
#
# Convention : Reuss Voigt Hill
#
# Bulk Modulus (GPa) = 89.47257 91.05067 90.26162
# Shear Modulus (GPa) = 25.86212 33.75506 29.80859
#
# Velocity S-wave (km/s) = 3.63494 4.15274 3.90244
# Velocity P-wave (km/s) = 7.95790 8.33733 8.14982
#
# Compressibility (1/GPa) = 0.01117661
#
# Stress axis : x y z
#
# Youngs Moduli (GPa) = 89.33751 117.95045 134.77347
#
# Poissons Ratio (x) = 0.37412 0.43449
# Poissons Ratio (y) = 0.28336 0.21048
# Poissons Ratio (z) = 0.28801 0.18421
#
# Static dielectric constant tensor:
#      x y z
#    x 3.885540 0.000000 0.000000 
#    y 0.000000 3.653960 0.000000 
#    z 0.000000 0.000000 3.860920 
# 
# 
# High freq. dielectric constant tensor:
#      x y z
#    x 1.780930 0.000000 0.000000 
#    y 0.000000 1.761300 0.000000 
#    z 0.000000 0.000000 1.777110 
# 
# From -- ./inp_files/26981.got.cif
#   From: 2010.03.12/outbox.cif.g09.slc.cpg/sg63_14_cif.got.tgz:26981.got - 2010.04.10 19:34:48.
