data_PCOD8260897
_publ_section_title
;
Structure prediction by ZEFSAII (Michael W. Deem and Ramdas Pophale) SiO2 
 PCOD8260897
Probable space group: C M C M
;
_chemical_formula_sum "Si O2"
_cell_formula_units_Z 96
_cell_length_a 18.939489
_cell_length_b 22.749983
_cell_length_c 13.464488
_cell_angle_alpha 90.000000
_cell_angle_beta 90.000000
_cell_angle_gamma 90.000000
_cell_volume 5801.485049
_symmetry_space_group_name_H-M "C M C M"
_symmetry_group_IT_number 63
_symmetry_cell_setting 'orthorhombic'
loop_
_space_group_symop_operation_xyz
x,y,z
-x,-y,1/2+z
x,-y,-z
-x,y,1/2-z
-x,-y,-z
x,y,1/2-z
-x,y,z
x,-y,1/2+z
1/2+x,1/2+y,z
1/2-x,1/2-y,1/2+z
1/2+x,1/2-y,-z
1/2-x,1/2+y,1/2-z
1/2-x,1/2-y,-z
1/2+x,1/2+y,1/2-z
1/2-x,1/2+y,z
1/2+x,1/2-y,1/2+z
loop_
_atom_site_type_symbol
_atom_site_label
_atom_site_fract_x
_atom_site_fract_y
_atom_site_fract_z
Si Si1 0.581092 0.785548 0.365978
Si Si2 0.076605 0.848701 0.632578
Si Si3 0.218911 0.903558 0.867297
Si Si4 0.291729 0.024165 0.860657
Si Si5 0.079077 0.554592 0.139258
Si Si6 0.332544 0.873602 0.496793
O O1 0.598394 0.795355 0.250000
O O2 0.500000 0.805063 0.387111
O O3 0.591798 0.718268 0.398560
O O4 0.638530 0.820896 0.430239
O O5 0.072257 0.851659 0.750000
O O6 0.139265 0.891048 0.594255
O O7 0.000000 0.868926 0.588870
O O8 0.226100 0.892535 0.750000
O O9 0.240465 0.970673 0.894426
O O10 0.272912 0.857502 0.920659
O O11 0.271310 0.044088 0.750000
O O12 0.287985 0.080114 0.930743
O O13 0.372573 0.002871 0.867348
O O14 0.086827 0.582687 0.250000
O O15 0.000000 0.533164 0.118907
O O16 0.100137 0.601195 0.055461
#
# Coordination Sequence:
#
# PCOD8260897 Si02
#       6
#    16  16  16  16  16  16
#     4   9  18  30  43  63  89 115 147 182 211 246
#     4   8  15  30  49  65  83 108 140 182 224 253
#     4   9  17  29  45  64  86 111 143 181 214 251
#     4   9  18  29  40  58  83 112 144 175 209 251
#     4   9  17  27  37  52  77 111 150 181 201 234
#     4  11  18  26  42  61  88 117 138 167 215 262
#
# _framework density 16.547487
#
# number of rings (size 3 to 8) (size 9 to 14) (size 15 to 20)
#    0.000    2.833    0.000    5.500    0.000    2.667 
#    0.000    1.667    0.000    2.000    0.000    0.000 
#    0.000    6.000    0.000    0.000    0.000    0.333 
#
# Total GULP energy -594650.355112 kJ/mol
# GULP energy per Si atom -12388.549065 kJ/mol
# Density = 1.650982 g / cm^3
# Si number density = 16.547487 Si / 1000 Ang^3
#
#
#
# Elastic Constant Matrix: (Units=GPa)
#
#
# Indices 1 2 3 4 5 6 
#
# 1 124.8842 52.7252 25.4116 0.0000 0.0000 0.0000
# 2 52.7252 55.2068 20.9046 0.0000 0.0000 0.0000
# 3 25.4116 20.9046 45.1305 0.0000 0.0000 0.0000
# 4 0.0000 0.0000 0.0000 13.5162 0.0000 0.0000
# 5 0.0000 0.0000 0.0000 0.0000 15.8526 0.0000
# 6 0.0000 0.0000 0.0000 0.0000 0.0000 15.4213
#
#
#
# Elastic Compliance Matrix: (Units=1/GPa)
#
#
# Indices 1 2 3 4 5 6 
#
# 1 0.013563 -0.012201 -0.001985 0.000000 0.000000 0.000000
# 2 -0.012201 0.032943 -0.008389 0.000000 0.000000 0.000000
# 3 -0.001985 -0.008389 0.027162 0.000000 0.000000 0.000000
# 4 0.000000 0.000000 0.000000 0.073985 0.000000 0.000000
# 5 0.000000 0.000000 0.000000 0.000000 0.063081 0.000000
# 6 0.000000 0.000000 0.000000 0.000000 0.000000 0.064845
#
#
# Mechanical properties :
#
#
# Convention : Reuss Voigt Hill
#
# Bulk Modulus (GPa) = 35.06760 47.03380 41.05070
# Shear Modulus (GPa) = 15.14071 17.37004 16.25538
#
# Velocity S-wave (km/s) = 3.02815 3.24344 3.13764
# Velocity P-wave (km/s) = 5.78484 6.52010 6.16345
#
# Compressibility (1/GPa) = 0.02851635
#
# Stress axis : x y z
#
# Youngs Moduli (GPa) = 73.73190 30.35519 36.81669
#
# Poissons Ratio (x) = 0.37037 0.07308
# Poissons Ratio (y) = 0.89963 0.30886
# Poissons Ratio (z) = 0.14636 0.25466
#
# Static dielectric constant tensor:
#      x y z
#    x 3.470720 0.000000 0.000000 
#    y 0.000000 2.811720 0.000000 
#    z 0.000000 0.000000 3.216520 
# 
# 
# High freq. dielectric constant tensor:
#      x y z
#    x 1.634020 0.000000 0.000000 
#    y 0.000000 1.596470 0.000000 
#    z 0.000000 0.000000 1.635670 
# 
# From -- ./inp_files/35759.got.cif
#   From: 2010.03.12/outbox.cif.g09.slc.cpg/sg63_18_cif.got.tgz:35759.got - 2010.04.10 19:34:48.
