data_PCOD8260731
_publ_section_title
;
Structure prediction by ZEFSAII (Michael W. Deem and Ramdas Pophale) SiO2 
 PCOD8260731
Probable space group: C M C M
;
_chemical_formula_sum "Si O2"
_cell_formula_units_Z 112
_cell_length_a 14.650581
_cell_length_b 26.104428
_cell_length_c 14.733340
_cell_angle_alpha 90.000000
_cell_angle_beta 90.000000
_cell_angle_gamma 90.000000
_cell_volume 5634.692760
_symmetry_space_group_name_H-M "C M C M"
_symmetry_group_IT_number 63
_symmetry_cell_setting 'orthorhombic'
loop_
_space_group_symop_operation_xyz
x,y,z
-x,-y,1/2+z
x,-y,-z
-x,y,1/2-z
-x,-y,-z
x,y,1/2-z
-x,y,z
x,-y,1/2+z
1/2+x,1/2+y,z
1/2-x,1/2-y,1/2+z
1/2+x,1/2-y,-z
1/2-x,1/2+y,1/2-z
1/2-x,1/2-y,-z
1/2+x,1/2+y,1/2-z
1/2-x,1/2+y,z
1/2+x,1/2-y,1/2+z
loop_
_atom_site_type_symbol
_atom_site_label
_atom_site_fract_x
_atom_site_fract_y
_atom_site_fract_z
Si Si1 0.104198 0.521277 0.099646
Si Si2 0.101049 0.332792 0.250000
Si Si3 0.891875 0.444143 0.250000
Si Si4 0.760012 0.389006 0.648372
Si Si5 0.103780 0.155987 0.470609
Si Si6 0.151795 0.730027 0.923057
Si Si7 0.340988 0.297920 0.146782
Si Si8 0.599059 0.806646 0.888041
O O1 0.141152 0.475424 0.162251
O O2 0.172615 0.568627 0.108165
O O3 0.000000 0.537946 0.125093
O O4 0.107859 0.500000 0.000000
O O5 0.155838 0.387366 0.250000
O O6 0.116010 0.297313 0.165246
O O7 0.000000 0.353513 0.250000
O O8 0.000000 0.441262 0.250000
O O9 0.725099 0.403055 0.750000
O O10 0.673416 0.382111 0.581011
O O11 0.819418 0.337489 0.658619
O O12 0.114166 0.212546 0.428660
O O13 0.121325 0.156953 0.580904
O O14 0.000000 0.136896 0.454297
O O15 0.261011 0.728697 0.913391
O O16 0.116848 0.695172 0.004679
O O17 0.315605 0.317704 0.250000
O O18 0.409831 0.250440 0.155072
O O19 0.500000 0.832816 0.871280
#
# Coordination Sequence:
#
# PCOD8260731 Si02
#       8
#    16   8   8  16  16  16  16  16
#     4  10  22  41  65  91 124 159 197 255 321 380
#     4  11  22  32  55  86 121 165 210 248 291 360
#     4   9  20  38  55  84 119 153 200 248 303 370
#     4  12  24  39  62  90 123 164 206 254 311 370
#     4  11  24  41  60  87 128 169 212 259 305 363
#     4  11  20  37  53  83 126 172 209 249 299 359
#     4  11  20  37  58  80 118 166 209 256 304 354
#     4  11  22  35  54  81 117 160 207 249 300 362
#
# _framework density 19.876861000000002
#
# number of rings (size 3 to 8) (size 9 to 14) (size 15 to 20)
#    0.000    1.143    4.286    4.286    3.000    2.857 
#    0.000    0.000    0.000    0.429    0.000    0.000 
#    0.000    0.000    0.000    0.000    0.000    0.000 
#
# Total GULP energy -693976.739714 kJ/mol
# GULP energy per Si atom -12392.441781 kJ/mol
# Density = 1.983162 g / cm^3
# Si number density = 19.876861 Si / 1000 Ang^3
#
#
#
# Elastic Constant Matrix: (Units=GPa)
#
#
# Indices 1 2 3 4 5 6 
#
# 1 106.3561 15.9354 24.2391 0.0000 0.0000 0.0000
# 2 15.9354 65.6334 30.7183 0.0000 0.0000 0.0000
# 3 24.2391 30.7183 131.5134 0.0000 0.0000 0.0000
# 4 0.0000 0.0000 0.0000 -3.9224 0.0000 0.0000
# 5 0.0000 0.0000 0.0000 0.0000 -31.5111 0.0000
# 6 0.0000 0.0000 0.0000 0.0000 0.0000 34.0016
#
#
#
# Elastic Compliance Matrix: (Units=1/GPa)
#
#
# Indices 1 2 3 4 5 6 
#
# 1 0.009992 -0.001756 -0.001431 0.000000 0.000000 0.000000
# 2 -0.001756 0.017415 -0.003744 0.000000 0.000000 0.000000
# 3 -0.001431 -0.003744 0.008742 0.000000 0.000000 0.000000
# 4 0.000000 0.000000 0.000000 -0.254943 0.000000 0.000000
# 5 0.000000 0.000000 0.000000 0.000000 -0.031735 0.000000
# 6 0.000000 0.000000 0.000000 0.000000 0.000000 0.029410
#
#
# Mechanical properties :
#
#
# Convention : Reuss Voigt Hill
#
# Bulk Modulus (GPa) = 44.87164 49.47648 47.17406
# Shear Modulus (GPa) = -25.02160 15.22095 -4.90032
#
# Velocity S-wave (km/s) = -3.55185 2.77024 -1.57184
# Velocity P-wave (km/s) = 2.40894 5.93109 4.52663
#
# Compressibility (1/GPa) = 0.02228579
#
# Stress axis : x y z
#
# Youngs Moduli (GPa) = 100.08310 57.42243 114.38876
#
# Poissons Ratio (x) = 0.10083 0.16374
# Poissons Ratio (y) = 0.17574 0.42827
# Poissons Ratio (z) = 0.14326 0.21499
#
# Static dielectric constant tensor:
#      x y z
#    x 3.875180 0.000000 0.000000 
#    y 0.000000 3.295810 0.000000 
#    z 0.000000 0.000000 3.814860 
# 
# 
# High freq. dielectric constant tensor:
#      x y z
#    x 1.766540 0.000000 0.000000 
#    y 0.000000 1.731490 0.000000 
#    z 0.000000 0.000000 1.795670 
# 
# From -- ./inp_files/32598.got.cif
#   From: 2010.03.12/outbox.cif.g09.slc.cpg/sg63_17_cif.got.tgz:32598.got - 2010.04.10 19:34:48.
