data_PCOD8260720
_publ_section_title
;
Structure prediction by ZEFSAII (Michael W. Deem and Ramdas Pophale) SiO2 
 PCOD8260720
Probable space group: C M C M
;
_chemical_formula_sum "Si O2"
_cell_formula_units_Z 64
_cell_length_a 19.418587
_cell_length_b 8.207764
_cell_length_c 17.941998
_cell_angle_alpha 90.000000
_cell_angle_beta 90.000000
_cell_angle_gamma 90.000000
_cell_volume 2859.652684
_symmetry_space_group_name_H-M "C M C M"
_symmetry_group_IT_number 63
_symmetry_cell_setting 'orthorhombic'
loop_
_space_group_symop_operation_xyz
x,y,z
-x,-y,1/2+z
x,-y,-z
-x,y,1/2-z
-x,-y,-z
x,y,1/2-z
-x,y,z
x,-y,1/2+z
1/2+x,1/2+y,z
1/2-x,1/2-y,1/2+z
1/2+x,1/2-y,-z
1/2-x,1/2+y,1/2-z
1/2-x,1/2-y,-z
1/2+x,1/2+y,1/2-z
1/2-x,1/2+y,z
1/2+x,1/2-y,1/2+z
loop_
_atom_site_type_symbol
_atom_site_label
_atom_site_fract_x
_atom_site_fract_y
_atom_site_fract_z
Si Si1 0.577415 0.829814 0.539466
Si Si2 0.693100 0.290359 0.660807
Si Si3 0.076627 0.452174 0.167638
Si Si4 0.803498 0.903507 0.430153
O O1 0.500000 0.776095 0.514474
O O2 0.631001 0.682977 0.529545
O O3 0.598078 0.000000 0.500000
O O4 0.579840 0.875076 0.626651
O O5 0.708399 0.282060 0.750000
O O6 0.627691 0.183897 0.635529
O O7 0.755958 0.231000 0.609104
O O8 0.676267 0.474609 0.636942
O O9 0.100271 0.496264 0.250000
O O10 0.000000 0.376386 0.163258
O O11 0.767804 0.000000 0.500000
#
# Coordination Sequence:
#
# PCOD8260720 Si02
#       4
#    16  16  16  16
#     4  10  22  41  64  90 122 160 203 254 312 371
#     4  11  24  41  62  90 128 168 208 259 315 371
#     4   9  19  38  63  88 117 158 205 252 307 372
#     4  12  25  40  62  91 124 164 211 260 311 371
#
# _framework density 22.380337999999998
#
# number of rings (size 3 to 8) (size 9 to 14) (size 15 to 20)
#    0.000    1.500    0.000    4.500    0.000    7.500 
#    0.000    0.000    0.000    0.000    0.000    0.000 
#    0.000    0.000    0.000    0.000    0.000    0.000 
#
# Total GULP energy -396556.985970 kJ/mol
# GULP energy per Si atom -12392.405812 kJ/mol
# Density = 2.232940 g / cm^3
# Si number density = 22.380338 Si / 1000 Ang^3
#
#
#
# Elastic Constant Matrix: (Units=GPa)
#
#
# Indices 1 2 3 4 5 6 
#
# 1 85.9470 30.7768 21.7540 0.0000 0.0000 0.0000
# 2 30.7768 83.4910 28.6800 0.0000 0.0000 0.0000
# 3 21.7540 28.6800 88.0566 0.0000 0.0000 0.0000
# 4 0.0000 0.0000 0.0000 44.2551 0.0000 0.0000
# 5 0.0000 0.0000 0.0000 0.0000 20.5868 0.0000
# 6 0.0000 0.0000 0.0000 0.0000 0.0000 33.0399
#
#
#
# Elastic Compliance Matrix: (Units=1/GPa)
#
#
# Indices 1 2 3 4 5 6 
#
# 1 0.013698 -0.004377 -0.001959 0.000000 0.000000 0.000000
# 2 -0.004377 0.014885 -0.003767 0.000000 0.000000 0.000000
# 3 -0.001959 -0.003767 0.013067 0.000000 0.000000 0.000000
# 4 0.000000 0.000000 0.000000 0.022596 0.000000 0.000000
# 5 0.000000 0.000000 0.000000 0.000000 0.048575 0.000000
# 6 0.000000 0.000000 0.000000 0.000000 0.000000 0.030266
#
#
# Mechanical properties :
#
#
# Convention : Reuss Voigt Hill
#
# Bulk Modulus (GPa) = 46.62908 46.65735 46.64321
# Shear Modulus (GPa) = 29.33593 31.32862 30.33227
#
# Velocity S-wave (km/s) = 3.62441 3.74549 3.68545
# Velocity P-wave (km/s) = 6.19639 6.29266 6.24471
#
# Compressibility (1/GPa) = 0.02144584
#
# Stress axis : x y z
#
# Youngs Moduli (GPa) = 73.00319 67.18372 76.52867
#
# Poissons Ratio (x) = 0.29404 0.14989
# Poissons Ratio (y) = 0.31951 0.28826
# Poissons Ratio (z) = 0.14298 0.25306
#
# Static dielectric constant tensor:
#      x y z
#    x 4.038770 0.000000 0.000000 
#    y 0.000000 3.969170 0.000000 
#    z 0.000000 0.000000 4.423080 
# 
# 
# High freq. dielectric constant tensor:
#      x y z
#    x 1.876710 0.000000 0.000000 
#    y 0.000000 1.865110 0.000000 
#    z 0.000000 0.000000 1.908200 
# 
# From -- ./inp_files/46515.got.cif
#   From: 2010.03.12/outbox.cif.g09.slc.cpg/sg63_24_cif.got.tgz:46515.got - 2010.04.10 19:34:48.
