data_PCOD8260261
_publ_section_title
;
Structure prediction by ZEFSAII (Michael W. Deem and Ramdas Pophale) SiO2 
 PCOD8260261
Probable space group: C M C M
;
_chemical_formula_sum "Si O2"
_cell_formula_units_Z 128
_cell_length_a 22.360126
_cell_length_b 12.027191
_cell_length_c 24.985483
_cell_angle_alpha 90.000000
_cell_angle_beta 90.000000
_cell_angle_gamma 90.000000
_cell_volume 6719.333605
_symmetry_space_group_name_H-M "C M C M"
_symmetry_group_IT_number 63
_symmetry_cell_setting 'orthorhombic'
loop_
_space_group_symop_operation_xyz
x,y,z
-x,-y,1/2+z
x,-y,-z
-x,y,1/2-z
-x,-y,-z
x,y,1/2-z
-x,y,z
x,-y,1/2+z
1/2+x,1/2+y,z
1/2-x,1/2-y,1/2+z
1/2+x,1/2-y,-z
1/2-x,1/2+y,1/2-z
1/2-x,1/2-y,-z
1/2+x,1/2+y,1/2-z
1/2-x,1/2+y,z
1/2+x,1/2-y,1/2+z
loop_
_atom_site_type_symbol
_atom_site_label
_atom_site_fract_x
_atom_site_fract_y
_atom_site_fract_z
Si Si1 0.569703 0.197616 0.911611
Si Si2 0.658017 0.505670 0.190434
Si Si3 0.352805 0.239456 0.811505
Si Si4 0.931623 0.180439 0.810825
Si Si5 0.751139 0.137203 0.871233
Si Si6 0.929962 0.130253 0.997475
Si Si7 0.639176 0.767357 0.593576
Si Si8 0.654352 0.015656 0.941340
O O1 0.500000 0.181854 0.903843
O O2 0.598507 0.191617 0.852482
O O3 0.584052 0.310256 0.945455
O O4 0.594839 0.091505 0.943828
O O5 0.683748 0.491316 0.250000
O O6 0.645782 0.631224 0.176524
O O7 0.594654 0.443604 0.184083
O O8 0.707136 0.459530 0.150569
O O9 0.369881 0.210928 0.750000
O O10 0.286304 0.194137 0.823423
O O11 0.925291 0.225346 0.750000
O O12 0.894293 0.259954 0.849516
O O13 0.000000 0.175720 0.829324
O O14 0.791934 0.228621 0.901142
O O15 0.705973 0.081413 0.911662
O O16 0.000000 0.140926 0.983487
O O17 0.893240 0.192405 0.951105
O O18 0.910958 0.000000 0.000000
O O19 0.637610 0.897294 0.582721
O O20 0.680327 0.000000 0.000000
#
# Coordination Sequence:
#
# PCOD8260261 Si02
#       8
#    16  16  16  16  16  16  16  16
#     4  10  23  41  61  87 120 154 195 245 291 349
#     4   9  18  34  57  83 113 153 194 234 290 349
#     4  10  21  38  58  83 117 154 195 239 293 355
#     4   9  19  35  56  87 120 147 189 245 293 344
#     4  10  22  37  57  85 115 151 194 248 292 337
#     4  10  22  39  61  90 122 157 196 242 295 348
#     4  11  22  39  63  88 116 160 197 237 295 352
#     4  11  23  42  59  85 117 153 200 240 289 349
#
# _framework density 19.049509
#
# number of rings (size 3 to 8) (size 9 to 14) (size 15 to 20)
#    0.000    2.000    1.250    1.500    3.500    3.500 
#    0.000    4.375    0.000    0.000    0.000    0.000 
#    0.000    0.000    0.000    0.000    0.000    0.000 
#
# Total GULP energy -793520.399516 kJ/mol
# GULP energy per Si atom -12398.756242 kJ/mol
# Density = 1.900615 g / cm^3
# Si number density = 19.049509 Si / 1000 Ang^3
#
#
#
# Elastic Constant Matrix: (Units=GPa)
#
#
# Indices 1 2 3 4 5 6 
#
# 1 107.9615 45.2545 43.3380 0.0000 0.0000 0.0000
# 2 45.2545 116.4760 41.8032 0.0000 0.0000 0.0000
# 3 43.3380 41.8032 97.3496 0.0000 0.0000 0.0000
# 4 0.0000 0.0000 0.0000 28.8812 0.0000 0.0000
# 5 0.0000 0.0000 0.0000 0.0000 22.8838 0.0000
# 6 0.0000 0.0000 0.0000 0.0000 0.0000 18.1543
#
#
#
# Elastic Compliance Matrix: (Units=1/GPa)
#
#
# Indices 1 2 3 4 5 6 
#
# 1 0.012276 -0.003320 -0.004039 0.000000 0.000000 0.000000
# 2 -0.003320 0.011047 -0.003266 0.000000 0.000000 0.000000
# 3 -0.004039 -0.003266 0.013473 0.000000 0.000000 0.000000
# 4 0.000000 0.000000 0.000000 0.034625 0.000000 0.000000
# 5 0.000000 0.000000 0.000000 0.000000 0.043699 0.000000
# 6 0.000000 0.000000 0.000000 0.000000 0.000000 0.055083
#
#
# Mechanical properties :
#
#
# Convention : Reuss Voigt Hill
#
# Bulk Modulus (GPa) = 64.32593 64.73094 64.52843
# Shear Modulus (GPa) = 25.42784 26.74330 26.08557
#
# Velocity S-wave (km/s) = 3.65749 3.75091 3.70450
# Velocity P-wave (km/s) = 7.18870 7.26727 7.22809
#
# Compressibility (1/GPa) = 0.01554583
#
# Stress axis : x y z
#
# Youngs Moduli (GPa) = 81.46281 90.51859 74.22289
#
# Poissons Ratio (x) = 0.30050 0.29981
# Poissons Ratio (y) = 0.27043 0.24242
# Poissons Ratio (z) = 0.32905 0.29564
#
# Static dielectric constant tensor:
#      x y z
#    x 3.573980 0.000000 0.000000 
#    y 0.000000 3.626560 0.000000 
#    z 0.000000 0.000000 3.614160 
# 
# 
# High freq. dielectric constant tensor:
#      x y z
#    x 1.742640 0.000000 0.000000 
#    y 0.000000 1.740400 0.000000 
#    z 0.000000 0.000000 1.750790 
# 
# From -- ./inp_files/65177.got.cif
#   From: 2010.03.12/outbox.cif.g09.slc.cpg/sg63_33_cif.got.tgz:65177.got - 2010.04.10 19:34:48.
