data_PCOD8260848
_publ_section_title
;
Structure prediction by ZEFSAII (Michael W. Deem and Ramdas Pophale) SiO2 
 PCOD8260848
Probable space group: C M C M
;
_chemical_formula_sum "Si O2"
_cell_formula_units_Z 64
_cell_length_a 15.817775
_cell_length_b 11.847268
_cell_length_c 14.322089
_cell_angle_alpha 90.000000
_cell_angle_beta 90.000000
_cell_angle_gamma 90.000000
_cell_volume 2683.922522
_symmetry_space_group_name_H-M "C M C M"
_symmetry_group_IT_number 63
_symmetry_cell_setting 'orthorhombic'
loop_
_space_group_symop_operation_xyz
x,y,z
-x,-y,1/2+z
x,-y,-z
-x,y,1/2-z
-x,-y,-z
x,y,1/2-z
-x,y,z
x,-y,1/2+z
1/2+x,1/2+y,z
1/2-x,1/2-y,1/2+z
1/2+x,1/2-y,-z
1/2-x,1/2+y,1/2-z
1/2-x,1/2-y,-z
1/2+x,1/2+y,1/2-z
1/2-x,1/2+y,z
1/2+x,1/2-y,1/2+z
loop_
_atom_site_type_symbol
_atom_site_label
_atom_site_fract_x
_atom_site_fract_y
_atom_site_fract_z
Si Si1 0.094806 0.819077 0.144119
Si Si2 0.403135 0.755935 0.145245
Si Si3 0.306026 0.536368 0.143298
Si Si4 0.850705 0.616758 0.477200
O O1 0.118431 0.788753 0.250000
O O2 0.098900 0.703116 0.087088
O O3 0.000000 0.866731 0.136475
O O4 0.158660 0.915582 0.107287
O O5 0.389117 0.802376 0.250000
O O6 0.500000 0.774330 0.112810
O O7 0.383868 0.623305 0.140679
O O8 0.338003 0.823098 0.078102
O O9 0.271466 0.527744 0.250000
O O10 0.235844 0.580153 0.072134
O O11 0.901339 0.500000 0.500000
#
# Coordination Sequence:
#
# PCOD8260848 Si02
#       4
#    16  16  16  16
#     4  10  23  45  73 103 136 180 234 289 344 408
#     4  10  23  44  69  97 133 181 235 292 349 406
#     4  10  23  43  71 102 135 175 231 295 353 408
#     4  12  27  42  65 100 143 183 226 277 345 419
#
# _framework density 23.845694999999999
#
# number of rings (size 3 to 8) (size 9 to 14) (size 15 to 20)
#    0.000    1.500    0.000    3.000    7.000    7.000 
#    0.000    5.000    0.000    0.000    0.000    0.000 
#    0.000    2.000    0.000    0.000    0.000    0.000 
#
# Total GULP energy -396645.875179 kJ/mol
# GULP energy per Si atom -12395.183599 kJ/mol
# Density = 2.379142 g / cm^3
# Si number density = 23.845695 Si / 1000 Ang^3
#
#
#
# Elastic Constant Matrix: (Units=GPa)
#
#
# Indices 1 2 3 4 5 6 
#
# 1 96.9401 48.0525 64.0180 0.0000 0.0000 0.0000
# 2 48.0525 157.2507 77.1852 0.0000 0.0000 0.0000
# 3 64.0180 77.1852 153.5387 0.0000 0.0000 0.0000
# 4 0.0000 0.0000 0.0000 42.7377 0.0000 0.0000
# 5 0.0000 0.0000 0.0000 0.0000 18.4717 0.0000
# 6 0.0000 0.0000 0.0000 0.0000 0.0000 24.5722
#
#
#
# Elastic Compliance Matrix: (Units=1/GPa)
#
#
# Indices 1 2 3 4 5 6 
#
# 1 0.014680 -0.001967 -0.005132 0.000000 0.000000 0.000000
# 2 -0.001967 0.008706 -0.003556 0.000000 0.000000 0.000000
# 3 -0.005132 -0.003556 0.010441 0.000000 0.000000 0.000000
# 4 0.000000 0.000000 0.000000 0.023399 0.000000 0.000000
# 5 0.000000 0.000000 0.000000 0.000000 0.054137 0.000000
# 6 0.000000 0.000000 0.000000 0.000000 0.000000 0.040696
#
#
# Mechanical properties :
#
#
# Convention : Reuss Voigt Hill
#
# Bulk Modulus (GPa) = 79.89928 87.36011 83.62970
# Shear Modulus (GPa) = 28.16259 31.72124 29.94192
#
# Velocity S-wave (km/s) = 3.44035 3.65125 3.54736
# Velocity P-wave (km/s) = 7.02573 7.38177 7.20595
#
# Compressibility (1/GPa) = 0.01251576
#
# Stress axis : x y z
#
# Youngs Moduli (GPa) = 68.12147 114.86369 95.77937
#
# Poissons Ratio (x) = 0.22592 0.49153
# Poissons Ratio (y) = 0.13398 0.34064
# Poissons Ratio (z) = 0.34960 0.40851
#
# Static dielectric constant tensor:
#      x y z
#    x 3.893760 0.000000 0.000000 
#    y 0.000000 4.617140 0.000000 
#    z 0.000000 0.000000 4.647170 
# 
# 
# High freq. dielectric constant tensor:
#      x y z
#    x 1.925550 0.000000 0.000000 
#    y 0.000000 1.952810 0.000000 
#    z 0.000000 0.000000 1.966550 
# 
# From -- ./inp_files/33364.got.cif
#   From: 2010.03.12/outbox.cif.g09.slc.cpg/sg63_17_cif.got.tgz:33364.got - 2010.04.10 19:34:48.
