data_PCOD8260960
_publ_section_title
;
Structure prediction by ZEFSAII (Michael W. Deem and Ramdas Pophale) SiO2 
 PCOD8260960
Probable space group: C M C M
;
_chemical_formula_sum "Si O2"
_cell_formula_units_Z 88
_cell_length_a 17.592214
_cell_length_b 15.695854
_cell_length_c 17.012557
_cell_angle_alpha 90.000000
_cell_angle_beta 90.000000
_cell_angle_gamma 90.000000
_cell_volume 4697.589282
_symmetry_space_group_name_H-M "C M C M"
_symmetry_group_IT_number 63
_symmetry_cell_setting 'orthorhombic'
loop_
_space_group_symop_operation_xyz
x,y,z
-x,-y,1/2+z
x,-y,-z
-x,y,1/2-z
-x,-y,-z
x,y,1/2-z
-x,y,z
x,-y,1/2+z
1/2+x,1/2+y,z
1/2-x,1/2-y,1/2+z
1/2+x,1/2-y,-z
1/2-x,1/2+y,1/2-z
1/2-x,1/2-y,-z
1/2+x,1/2+y,1/2-z
1/2-x,1/2+y,z
1/2+x,1/2-y,1/2+z
loop_
_atom_site_type_symbol
_atom_site_label
_atom_site_fract_x
_atom_site_fract_y
_atom_site_fract_z
Si Si1 0.331501 0.000000 0.500000
Si Si2 0.652302 0.688224 0.938201
Si Si3 0.700441 0.582895 0.088557
Si Si4 0.913806 0.949561 0.160239
Si Si5 0.795680 0.743437 0.840083
Si Si6 0.410189 0.170276 0.544847
O O1 0.279624 0.035205 0.428628
O O2 0.385330 0.072859 0.534998
O O3 0.592742 0.643112 0.880125
O O4 0.730321 0.702099 0.892405
O O5 0.670353 0.626256 0.009810
O O6 0.617813 0.776941 0.968480
O O7 0.638664 0.515798 0.115813
O O8 0.710788 0.654059 0.155713
O O9 0.887548 0.941105 0.250000
O O10 0.000000 0.981980 0.153969
O O11 0.788911 0.714280 0.750000
O O12 0.875277 0.710339 0.875595
O O13 0.500000 0.176356 0.552968
#
# Coordination Sequence:
#
# PCOD8260960 Si02
#       6
#     8  16  16  16  16  16
#     4  12  19  40  61  86 116 148 204 252 279 344
#     4  11  20  39  61  84 115 156 206 241 285 355
#     4  11  20  37  61  87 115 153 202 244 287 357
#     4  11  23  36  54  87 126 157 189 243 312 362
#     4  11  22  39  63  88 119 154 197 249 298 353
#     4  11  23  38  62  91 119 156 200 247 299 350
#
# _framework density 18.733013
#
# number of rings (size 3 to 8) (size 9 to 14) (size 15 to 20)
#    0.000    0.909    5.455    3.000    0.000    4.727 
#    0.000    0.909    0.000    0.000    0.000    0.000 
#    0.000    0.000    0.000    0.000    0.000    0.000 
#
# Total GULP energy -545755.070966 kJ/mol
# GULP energy per Si atom -12403.524340 kJ/mol
# Density = 1.869038 g / cm^3
# Si number density = 18.733013 Si / 1000 Ang^3
#
#
#
# Elastic Constant Matrix: (Units=GPa)
#
#
# Indices 1 2 3 4 5 6 
#
# 1 120.6202 33.3856 54.4035 0.0000 0.0000 0.0000
# 2 33.3856 100.9495 48.5552 0.0000 0.0000 0.0000
# 3 54.4035 48.5552 105.7216 0.0000 0.0000 0.0000
# 4 0.0000 0.0000 0.0000 22.1804 0.0000 0.0000
# 5 0.0000 0.0000 0.0000 0.0000 27.6863 0.0000
# 6 0.0000 0.0000 0.0000 0.0000 0.0000 24.8622
#
#
#
# Elastic Compliance Matrix: (Units=1/GPa)
#
#
# Indices 1 2 3 4 5 6 
#
# 1 0.010902 -0.001164 -0.005075 0.000000 0.000000 0.000000
# 2 -0.001164 0.012839 -0.005297 0.000000 0.000000 0.000000
# 3 -0.005075 -0.005297 0.014504 0.000000 0.000000 0.000000
# 4 0.000000 0.000000 0.000000 0.045085 0.000000 0.000000
# 5 0.000000 0.000000 0.000000 0.000000 0.036119 0.000000
# 6 0.000000 0.000000 0.000000 0.000000 0.000000 0.040222
#
#
# Mechanical properties :
#
#
# Convention : Reuss Voigt Hill
#
# Bulk Modulus (GPa) = 65.91851 66.66445 66.29148
# Shear Modulus (GPa) = 26.62397 27.67558 27.14977
#
# Velocity S-wave (km/s) = 3.77401 3.84783 3.81110
# Velocity P-wave (km/s) = 7.36585 7.44345 7.40475
#
# Compressibility (1/GPa) = 0.01517025
#
# Stress axis : x y z
#
# Youngs Moduli (GPa) = 91.72756 77.88765 68.94883
#
# Poissons Ratio (x) = 0.09068 0.34993
# Poissons Ratio (y) = 0.10680 0.36526
# Poissons Ratio (z) = 0.46554 0.41261
#
# Static dielectric constant tensor:
#      x y z
#    x 3.408400 0.000000 0.000000 
#    y 0.000000 3.745730 0.000000 
#    z 0.000000 0.000000 3.603580 
# 
# 
# High freq. dielectric constant tensor:
#      x y z
#    x 1.725790 0.000000 0.000000 
#    y 0.000000 1.741530 0.000000 
#    z 0.000000 0.000000 1.721200 
# 
# From -- ./inp_files/45534.got.cif
#   From: 2010.03.12/outbox.cif.g09.slc.cpg/sg63_23_cif.got.tgz:45534.got - 2010.04.10 19:34:48.
