data_PCOD8260366
_publ_section_title
;
Structure prediction by ZEFSAII (Michael W. Deem and Ramdas Pophale) SiO2 
 PCOD8260366
Probable space group: C M C M
;
_chemical_formula_sum "Si O2"
_cell_formula_units_Z 96
_cell_length_a 13.690112
_cell_length_b 20.911445
_cell_length_c 15.209494
_cell_angle_alpha 90.000000
_cell_angle_beta 90.000000
_cell_angle_gamma 90.000000
_cell_volume 4354.174309
_symmetry_space_group_name_H-M "C M C M"
_symmetry_group_IT_number 63
_symmetry_cell_setting 'orthorhombic'
loop_
_space_group_symop_operation_xyz
x,y,z
-x,-y,1/2+z
x,-y,-z
-x,y,1/2-z
-x,-y,-z
x,y,1/2-z
-x,y,z
x,-y,1/2+z
1/2+x,1/2+y,z
1/2-x,1/2-y,1/2+z
1/2+x,1/2-y,-z
1/2-x,1/2+y,1/2-z
1/2-x,1/2-y,-z
1/2+x,1/2+y,1/2-z
1/2-x,1/2+y,z
1/2+x,1/2-y,1/2+z
loop_
_atom_site_type_symbol
_atom_site_label
_atom_site_fract_x
_atom_site_fract_y
_atom_site_fract_z
Si Si1 0.887135 0.424391 0.003686
Si Si2 0.890493 0.201195 0.398875
Si Si3 0.608586 0.512039 0.648954
Si Si4 0.108227 0.150832 0.593867
Si Si5 0.813003 0.664682 0.650831
Si Si6 0.753039 0.401042 0.847900
O O1 0.835998 0.397559 0.091712
O O2 0.000000 0.404862 0.004840
O O3 0.872735 0.500000 0.000000
O O4 0.840678 0.392295 0.916684
O O5 0.877983 0.180671 0.498875
O O6 0.870118 0.276159 0.390655
O O7 0.813084 0.162403 0.340928
O O8 0.000000 0.187190 0.365041
O O9 0.626674 0.533147 0.750000
O O10 0.500000 0.482585 0.638036
O O11 0.619670 0.574050 0.587508
O O12 0.685679 0.459281 0.618684
O O13 0.196120 0.178406 0.653015
O O14 0.000000 0.167890 0.632471
O O15 0.849202 0.651786 0.750000
O O16 0.795259 0.413949 0.750000
#
# Coordination Sequence:
#
# PCOD8260366 Si02
#       6
#    16  16  16  16  16  16
#     4  11  26  46  68  96 128 166 223 285 333 389
#     4  11  24  42  66  97 133 173 218 268 323 390
#     4   9  18  34  60  97 135 171 215 264 319 389
#     4  10  21  38  65  98 132 169 212 267 324 382
#     4  12  25  45  71  96 131 177 222 268 325 395
#     4  11  23  40  65  97 135 175 216 270 331 390
#
# _framework density 22.047809000000001
#
# number of rings (size 3 to 8) (size 9 to 14) (size 15 to 20)
#    0.000    1.333    1.667    3.500    0.000    6.333 
#    0.000    4.167    0.000    2.000    0.000    0.000 
#    0.000    0.000    0.000    0.000    0.000    0.000 
#
# Total GULP energy -595274.436882 kJ/mol
# GULP energy per Si atom -12401.550768 kJ/mol
# Density = 2.199763 g / cm^3
# Si number density = 22.047809 Si / 1000 Ang^3
#
#
#
# Elastic Constant Matrix: (Units=GPa)
#
#
# Indices 1 2 3 4 5 6 
#
# 1 126.6859 29.1271 51.0303 0.0000 0.0000 0.0000
# 2 29.1271 87.7252 52.5972 0.0000 0.0000 0.0000
# 3 51.0303 52.5972 125.2922 0.0000 0.0000 0.0000
# 4 0.0000 0.0000 0.0000 32.4115 0.0000 0.0000
# 5 0.0000 0.0000 0.0000 0.0000 18.0748 0.0000
# 6 0.0000 0.0000 0.0000 0.0000 0.0000 29.0648
#
#
#
# Elastic Compliance Matrix: (Units=1/GPa)
#
#
# Indices 1 2 3 4 5 6 
#
# 1 0.009524 -0.001118 -0.003410 0.000000 0.000000 0.000000
# 2 -0.001118 0.015365 -0.005995 0.000000 0.000000 0.000000
# 3 -0.003410 -0.005995 0.011887 0.000000 0.000000 0.000000
# 4 0.000000 0.000000 0.000000 0.030853 0.000000 0.000000
# 5 0.000000 0.000000 0.000000 0.000000 0.055326 0.000000
# 6 0.000000 0.000000 0.000000 0.000000 0.000000 0.034406
#
#
# Mechanical properties :
#
#
# Convention : Reuss Voigt Hill
#
# Bulk Modulus (GPa) = 63.57020 67.24585 65.40803
# Shear Modulus (GPa) = 27.22594 29.70680 28.46637
#
# Velocity S-wave (km/s) = 3.51787 3.67465 3.59711
# Velocity P-wave (km/s) = 6.73766 6.96924 6.85443
#
# Compressibility (1/GPa) = 0.01573064
#
# Stress axis : x y z
#
# Youngs Moduli (GPa) = 104.99741 65.08456 84.12779
#
# Poissons Ratio (x) = 0.07275 0.28686
# Poissons Ratio (y) = 0.11737 0.50432
# Poissons Ratio (z) = 0.35802 0.39016
#
# Static dielectric constant tensor:
#      x y z
#    x 4.244410 0.000000 0.000000 
#    y 0.000000 3.841200 0.000000 
#    z 0.000000 0.000000 3.823670 
# 
# 
# High freq. dielectric constant tensor:
#      x y z
#    x 1.874130 0.000000 0.000000 
#    y 0.000000 1.858050 0.000000 
#    z 0.000000 0.000000 1.864050 
# 
# From -- ./inp_files/31891.got.cif
#   From: 2010.03.12/outbox.cif.g09.slc.cpg/sg63_16_cif.got.tgz:31891.got - 2010.04.10 19:34:48.
