data_PCOD8260297
_publ_section_title
;
Structure prediction by ZEFSAII (Michael W. Deem and Ramdas Pophale) SiO2 
 PCOD8260297
Probable space group: C M C M
;
_chemical_formula_sum "Si O2"
_cell_formula_units_Z 96
_cell_length_a 19.979195
_cell_length_b 27.897918
_cell_length_c 8.726260
_cell_angle_alpha 90.000000
_cell_angle_beta 90.000000
_cell_angle_gamma 90.000000
_cell_volume 4863.824856
_symmetry_space_group_name_H-M "C M C M"
_symmetry_group_IT_number 63
_symmetry_cell_setting 'orthorhombic'
loop_
_space_group_symop_operation_xyz
x,y,z
-x,-y,1/2+z
x,-y,-z
-x,y,1/2-z
-x,-y,-z
x,y,1/2-z
-x,y,z
x,-y,1/2+z
1/2+x,1/2+y,z
1/2-x,1/2-y,1/2+z
1/2+x,1/2-y,-z
1/2-x,1/2+y,1/2-z
1/2-x,1/2-y,-z
1/2+x,1/2+y,1/2-z
1/2-x,1/2+y,z
1/2+x,1/2-y,1/2+z
loop_
_atom_site_type_symbol
_atom_site_label
_atom_site_fract_x
_atom_site_fract_y
_atom_site_fract_z
Si Si1 0.696390 0.551119 0.430977
Si Si2 0.812015 0.614509 0.568362
Si Si3 0.576200 0.703983 0.071965
Si Si4 0.077699 0.449308 0.928038
Si Si5 0.312253 0.776696 0.069875
Si Si6 0.922907 0.895985 0.429188
O O1 0.716217 0.500000 0.500000
O O2 0.700537 0.547810 0.250000
O O3 0.748281 0.590310 0.490689
O O4 0.621592 0.565473 0.481148
O O5 0.804767 0.610544 0.750000
O O6 0.881144 0.591062 0.515419
O O7 0.815187 0.669096 0.509627
O O8 0.586662 0.691369 0.250000
O O9 0.500000 0.718148 0.035890
O O10 0.620401 0.749083 0.019505
O O11 0.598491 0.657622 0.975820
O O12 0.097134 0.450254 0.750000
O O13 0.000000 0.437665 0.953797
O O14 0.097437 0.500000 0.000000
O O15 0.304109 0.776245 0.250000
O O16 0.250000 0.750000 0.000000
O O17 0.910364 0.902595 0.250000
O O18 0.000000 0.905433 0.474424
#
# Coordination Sequence:
#
# PCOD8260297 Si02
#       6
#    16  16  16  16  16  16
#     4  12  25  41  61  84 113 149 190 235 284 338
#     4  11  23  39  59  85 117 151 190 236 287 339
#     4   9  18  35  58  83 112 148 190 231 274 328
#     4  10  21  38  60  86 116 151 191 234 282 337
#     4  10  22  37  56  82 112 148 187 232 282 333
#     4  10  21  38  60  87 118 150 186 230 281 336
#
# _framework density 19.737552000000001
#
# number of rings (size 3 to 8) (size 9 to 14) (size 15 to 20)
#    0.000    1.667    0.000    4.500    0.000    7.667 
#    0.000    1.667    0.000    2.000    0.000    0.000 
#    0.000    0.000    0.000    0.000    0.000    0.000 
#
# Total GULP energy -595467.634668 kJ/mol
# GULP energy per Si atom -12405.575722 kJ/mol
# Density = 1.969263 g / cm^3
# Si number density = 19.737552 Si / 1000 Ang^3
#
#
#
# Elastic Constant Matrix: (Units=GPa)
#
#
# Indices 1 2 3 4 5 6 
#
# 1 95.3410 53.6177 35.7613 0.0000 0.0000 0.0000
# 2 53.6177 117.5600 40.8646 0.0000 0.0000 0.0000
# 3 35.7613 40.8646 92.1798 0.0000 0.0000 0.0000
# 4 0.0000 0.0000 0.0000 28.9245 0.0000 0.0000
# 5 0.0000 0.0000 0.0000 0.0000 36.7196 0.0000
# 6 0.0000 0.0000 0.0000 0.0000 0.0000 44.6132
#
#
#
# Elastic Compliance Matrix: (Units=1/GPa)
#
#
# Indices 1 2 3 4 5 6 
#
# 1 0.014897 -0.005657 -0.003271 0.000000 0.000000 0.000000
# 2 -0.005657 0.012204 -0.003216 0.000000 0.000000 0.000000
# 3 -0.003271 -0.003216 0.013543 0.000000 0.000000 0.000000
# 4 0.000000 0.000000 0.000000 0.034573 0.000000 0.000000
# 5 0.000000 0.000000 0.000000 0.000000 0.027233 0.000000
# 6 0.000000 0.000000 0.000000 0.000000 0.000000 0.022415
#
#
# Mechanical properties :
#
#
# Convention : Reuss Voigt Hill
#
# Bulk Modulus (GPa) = 61.13988 62.84091 61.99040
# Shear Modulus (GPa) = 32.34019 33.70726 33.02373
#
# Velocity S-wave (km/s) = 4.05224 4.13700 4.09484
# Velocity P-wave (km/s) = 7.27584 7.39778 7.33706
#
# Compressibility (1/GPa) = 0.01635594
#
# Stress axis : x y z
#
# Youngs Moduli (GPa) = 67.12627 81.93857 73.83859
#
# Poissons Ratio (x) = 0.46355 0.24156
# Poissons Ratio (y) = 0.37975 0.23743
# Poissons Ratio (z) = 0.21960 0.26348
#
# Static dielectric constant tensor:
#      x y z
#    x 3.836160 0.000000 0.000000 
#    y 0.000000 3.692730 0.000000 
#    z 0.000000 0.000000 3.621580 
# 
# 
# High freq. dielectric constant tensor:
#      x y z
#    x 1.782000 0.000000 0.000000 
#    y 0.000000 1.773090 0.000000 
#    z 0.000000 0.000000 1.775030 
# 
# From -- ./inp_files/8542.got.cif
#   From: 2010.03.12/outbox.cif.g09.slc.cpg/sg63_5_cif.got.tgz:8542.got - 2010.04.10 19:34:48.
