data_PCOD8260816
_publ_section_title
;
Structure prediction by ZEFSAII (Michael W. Deem and Ramdas Pophale) SiO2 
 PCOD8260816
Probable space group: C M C M
;
_chemical_formula_sum "Si O2"
_cell_formula_units_Z 112
_cell_length_a 14.491561
_cell_length_b 14.435911
_cell_length_c 24.982037
_cell_angle_alpha 90.000000
_cell_angle_beta 90.000000
_cell_angle_gamma 90.000000
_cell_volume 5226.214282
_symmetry_space_group_name_H-M "C M C M"
_symmetry_group_IT_number 63
_symmetry_cell_setting 'orthorhombic'
loop_
_space_group_symop_operation_xyz
x,y,z
-x,-y,1/2+z
x,-y,-z
-x,y,1/2-z
-x,-y,-z
x,y,1/2-z
-x,y,z
x,-y,1/2+z
1/2+x,1/2+y,z
1/2-x,1/2-y,1/2+z
1/2+x,1/2-y,-z
1/2-x,1/2+y,1/2-z
1/2-x,1/2-y,-z
1/2+x,1/2+y,1/2-z
1/2-x,1/2+y,z
1/2+x,1/2-y,1/2+z
loop_
_atom_site_type_symbol
_atom_site_label
_atom_site_fract_x
_atom_site_fract_y
_atom_site_fract_z
Si Si1 0.388174 0.551976 0.341326
Si Si2 0.733413 0.177894 0.190452
Si Si3 0.897837 0.928167 0.539798
Si Si4 0.603791 0.913613 0.400345
Si Si5 0.854869 0.728605 0.505998
Si Si6 0.398925 0.118022 0.098514
Si Si7 0.253834 0.607568 0.688822
O O1 0.500000 0.554473 0.332627
O O2 0.338900 0.638025 0.310925
O O3 0.352712 0.567944 0.402024
O O4 0.345786 0.453653 0.322484
O O5 0.694752 0.157802 0.250000
O O6 0.673627 0.126215 0.146238
O O7 0.724203 0.285777 0.177742
O O8 0.905548 0.824972 0.517014
O O9 0.000000 0.968609 0.547806
O O10 0.844483 0.000000 0.500000
O O11 0.500000 0.890216 0.381109
O O12 0.632426 0.839735 0.444581
O O13 0.668370 0.916714 0.348568
O O14 0.609325 0.015401 0.426653
O O15 0.750000 0.750000 0.500000
O O16 0.889486 0.688838 0.450196
O O17 0.500000 0.133596 0.123954
O O18 0.223137 0.591145 0.750000
#
# Coordination Sequence:
#
# PCOD8260816 Si02
#       7
#    16  16  16  16  16  16  16
#     4  11  24  45  72 101 140 184 230 286 356 426
#     4  11  25  45  67  99 136 176 234 294 350 418
#     4  10  23  40  61  92 131 175 219 268 325 401
#     4  11  24  43  68  97 134 178 228 283 343 413
#     4  12  25  39  65  99 137 176 220 279 340 412
#     4  11  24  42  68  98 132 179 227 279 348 417
#     4  11  25  44  68 100 137 177 232 291 348 417
#
# _framework density 21.430426000000001
#
# number of rings (size 3 to 8) (size 9 to 14) (size 15 to 20)
#    0.000    1.000    1.429    4.714    4.000    5.143 
#    0.000    4.286    0.000    0.000    0.000    0.000 
#    0.000    0.000    0.000    0.000    0.000    0.000 
#
# Total GULP energy -694110.097767 kJ/mol
# GULP energy per Si atom -12394.823174 kJ/mol
# Density = 2.138165 g / cm^3
# Si number density = 21.430426 Si / 1000 Ang^3
#
#
#
# Elastic Constant Matrix: (Units=GPa)
#
#
# Indices 1 2 3 4 5 6 
#
# 1 130.9899 43.2823 43.8032 0.0000 0.0000 0.0000
# 2 43.2823 158.1544 56.9173 0.0000 0.0000 0.0000
# 3 43.8032 56.9173 125.1583 0.0000 0.0000 0.0000
# 4 0.0000 0.0000 0.0000 48.6987 0.0000 0.0000
# 5 0.0000 0.0000 0.0000 0.0000 -3.6282 0.0000
# 6 0.0000 0.0000 0.0000 0.0000 0.0000 25.8178
#
#
#
# Elastic Compliance Matrix: (Units=1/GPa)
#
#
# Indices 1 2 3 4 5 6 
#
# 1 0.008966 -0.001584 -0.002418 0.000000 0.000000 0.000000
# 2 -0.001584 0.007840 -0.003011 0.000000 0.000000 0.000000
# 3 -0.002418 -0.003011 0.010205 0.000000 0.000000 0.000000
# 4 0.000000 0.000000 0.000000 0.020534 0.000000 0.000000
# 5 0.000000 0.000000 0.000000 0.000000 -0.275621 0.000000
# 6 0.000000 0.000000 0.000000 0.000000 0.000000 0.038733
#
#
# Mechanical properties :
#
#
# Convention : Reuss Voigt Hill
#
# Bulk Modulus (GPa) = 77.00370 78.03424 77.51897
# Shear Modulus (GPa) = -29.24169 32.19764 1.47797
#
# Velocity S-wave (km/s) = -3.69791 3.88032 0.83136
# Velocity P-wave (km/s) = 4.21630 7.52115 6.09692
#
# Compressibility (1/GPa) = 0.01298639
#
# Stress axis : x y z
#
# Youngs Moduli (GPa) = 111.53319 127.55157 97.98753
#
# Poissons Ratio (x) = 0.20199 0.23691
# Poissons Ratio (y) = 0.17663 0.29505
# Poissons Ratio (z) = 0.26966 0.38407
#
# Static dielectric constant tensor:
#      x y z
#    x 3.895480 0.000000 0.000000 
#    y 0.000000 4.007570 0.000000 
#    z 0.000000 0.000000 4.047340 
# 
# 
# High freq. dielectric constant tensor:
#      x y z
#    x 1.841670 0.000000 0.000000 
#    y 0.000000 1.858560 0.000000 
#    z 0.000000 0.000000 1.847590 
# 
# From -- ./inp_files/62970.got.cif
#   From: 2010.03.12/outbox.cif.g09.slc.cpg/sg63_32_cif.got.tgz:62970.got - 2010.04.10 19:34:48.
