data_PCOD8260021
_publ_section_title
;
Structure prediction by ZEFSAII (Michael W. Deem and Ramdas Pophale) SiO2 
 PCOD8260021
Probable space group: C M C M
;
_chemical_formula_sum "Si O2"
_cell_formula_units_Z 64
_cell_length_a 10.225927
_cell_length_b 23.837342
_cell_length_c 14.079211
_cell_angle_alpha 90.000000
_cell_angle_beta 90.000000
_cell_angle_gamma 90.000000
_cell_volume 3431.933256
_symmetry_space_group_name_H-M "C M C M"
_symmetry_group_IT_number 63
_symmetry_cell_setting 'orthorhombic'
loop_
_space_group_symop_operation_xyz
x,y,z
-x,-y,1/2+z
x,-y,-z
-x,y,1/2-z
-x,-y,-z
x,y,1/2-z
-x,y,z
x,-y,1/2+z
1/2+x,1/2+y,z
1/2-x,1/2-y,1/2+z
1/2+x,1/2-y,-z
1/2-x,1/2+y,1/2-z
1/2-x,1/2-y,-z
1/2+x,1/2+y,1/2-z
1/2-x,1/2+y,z
1/2+x,1/2-y,1/2+z
loop_
_atom_site_type_symbol
_atom_site_label
_atom_site_fract_x
_atom_site_fract_y
_atom_site_fract_z
Si Si1 0.146345 0.326565 0.480420
Si Si2 0.149470 0.761780 0.360284
Si Si3 0.716308 0.565403 0.500149
Si Si4 0.500000 0.566231 0.353094
Si Si5 0.000000 0.934540 0.146904
O O1 0.170147 0.295406 0.580587
O O2 0.250334 0.307647 0.401101
O O3 0.159393 0.393512 0.498652
O O4 0.000000 0.314721 0.442592
O O5 0.180821 0.749621 0.250000
O O6 0.000000 0.784030 0.372457
O O7 0.759561 0.500000 0.500000
O O8 0.630935 0.582650 0.408760
O O9 0.631054 0.581521 0.591961
O O10 0.500000 0.596150 0.250000
O O11 0.500000 0.500429 0.340821
O O12 0.000000 0.904311 0.250000
#
# Coordination Sequence:
#
# PCOD8260021 Si02
#       5
#    16  16  16   8   8
#     4  10  21  36  55  80 113 140 172 224 269 321
#     4   9  20  39  60  77  98 139 187 226 269 315
#     4   9  18  31  50  78 110 142 177 213 261 321
#     4   8  15  29  48  73 105 138 179 223 252 291
#     4   8  15  29  48  71 103 142 179 217 252 295
#
# _framework density 18.648382000000002
#
# number of rings (size 3 to 8) (size 9 to 14) (size 15 to 20)
#    0.000    3.000    0.000    1.500    3.500    3.000 
#    0.000    0.000    0.000    0.000    0.000   10.500 
#    0.000    0.000    0.000    0.000    0.000    0.000 
#
# Total GULP energy -396563.964546 kJ/mol
# GULP energy per Si atom -12392.623892 kJ/mol
# Density = 1.860594 g / cm^3
# Si number density = 18.648382 Si / 1000 Ang^3
#
#
#
# Elastic Constant Matrix: (Units=GPa)
#
#
# Indices 1 2 3 4 5 6 
#
# 1 93.9403 52.3364 49.2841 0.0000 0.0000 0.0000
# 2 52.3364 96.6879 27.7296 0.0000 0.0000 0.0000
# 3 49.2841 27.7296 146.1951 0.0000 0.0000 0.0000
# 4 0.0000 0.0000 0.0000 12.0368 0.0000 0.0000
# 5 0.0000 0.0000 0.0000 0.0000 18.8477 0.0000
# 6 0.0000 0.0000 0.0000 0.0000 0.0000 31.0900
#
#
#
# Elastic Compliance Matrix: (Units=1/GPa)
#
#
# Indices 1 2 3 4 5 6 
#
# 1 0.017509 -0.008233 -0.004341 0.000000 0.000000 0.000000
# 2 -0.008233 0.014808 -0.000034 0.000000 0.000000 0.000000
# 3 -0.004341 -0.000034 0.008310 0.000000 0.000000 0.000000
# 4 0.000000 0.000000 0.000000 0.083079 0.000000 0.000000
# 5 0.000000 0.000000 0.000000 0.000000 0.053057 0.000000
# 6 0.000000 0.000000 0.000000 0.000000 0.000000 0.032165
#
#
# Mechanical properties :
#
#
# Convention : Reuss Voigt Hill
#
# Bulk Modulus (GPa) = 64.87909 66.16928 65.52418
# Shear Modulus (GPa) = 20.89608 26.22644 23.56126
#
# Velocity S-wave (km/s) = 3.35106 3.75422 3.55836
# Velocity P-wave (km/s) = 7.05968 7.37237 7.21772
#
# Compressibility (1/GPa) = 0.01541329
#
# Stress axis : x y z
#
# Youngs Moduli (GPa) = 57.11349 67.52943 120.33794
#
# Poissons Ratio (x) = 0.55594 0.52239
# Poissons Ratio (y) = 0.47019 0.00403
# Poissons Ratio (z) = 0.24793 0.00226
#
# Static dielectric constant tensor:
#      x y z
#    x 3.251850 0.000000 0.000000 
#    y 0.000000 3.218010 0.000000 
#    z 0.000000 0.000000 7.234980 
# 
# 
# High freq. dielectric constant tensor:
#      x y z
#    x 1.705140 0.000000 0.000000 
#    y 0.000000 1.715430 0.000000 
#    z 0.000000 0.000000 1.724240 
# 
# From -- ./inp_files/27616.got.cif
#   From: 2010.03.12/outbox.cif.g09.slc.cpg/sg63_14_cif.got.tgz:27616.got - 2010.04.10 19:34:48.
