data_PCOD8260478
_publ_section_title
;
Structure prediction by ZEFSAII (Michael W. Deem and Ramdas Pophale) SiO2 
 PCOD8260478
Probable space group: C M C M
;
_chemical_formula_sum "Si O2"
_cell_formula_units_Z 88
_cell_length_a 25.587117
_cell_length_b 11.411478
_cell_length_c 14.623470
_cell_angle_alpha 90.000000
_cell_angle_beta 90.000000
_cell_angle_gamma 90.000000
_cell_volume 4269.860543
_symmetry_space_group_name_H-M "C M C M"
_symmetry_group_IT_number 63
_symmetry_cell_setting 'orthorhombic'
loop_
_space_group_symop_operation_xyz
x,y,z
-x,-y,1/2+z
x,-y,-z
-x,y,1/2-z
-x,-y,-z
x,y,1/2-z
-x,y,z
x,-y,1/2+z
1/2+x,1/2+y,z
1/2-x,1/2-y,1/2+z
1/2+x,1/2-y,-z
1/2-x,1/2+y,1/2-z
1/2-x,1/2-y,-z
1/2+x,1/2+y,1/2-z
1/2-x,1/2+y,z
1/2+x,1/2-y,1/2+z
loop_
_atom_site_type_symbol
_atom_site_label
_atom_site_fract_x
_atom_site_fract_y
_atom_site_fract_z
Si Si1 0.860963 0.742665 0.394495
Si Si2 0.898151 0.931095 0.750000
Si Si3 0.440037 0.686529 0.750000
Si Si4 0.176359 0.007139 0.600417
Si Si5 0.439394 0.176188 0.750000
Si Si6 0.291811 0.021084 0.353586
Si Si7 0.118179 0.606548 0.563640
O O1 0.914771 0.755105 0.339345
O O2 0.825808 0.856235 0.372703
O O3 0.826550 0.636993 0.357018
O O4 0.877908 0.723239 0.500723
O O5 0.933671 0.816176 0.750000
O O6 0.934557 0.045533 0.750000
O O7 0.860343 0.927361 0.837292
O O8 0.500000 0.721711 0.750000
O O9 0.152554 0.000000 0.500000
O O10 0.235157 0.958267 0.602652
O O11 0.500000 0.142928 0.750000
O O12 0.414880 0.122517 0.843205
O O13 0.283981 0.979502 0.250000
O O14 0.321882 0.920246 0.409008
O O15 0.095359 0.500000 0.500000
#
# Coordination Sequence:
#
# PCOD8260478 Si02
#       7
#    16   8   8  16   8  16  16
#     4  10  22  40  61  89 123 157 203 250 294 358
#     4  10  23  40  60  92 126 156 201 252 298 362
#     4  10  21  40  66  88 115 159 209 257 302 349
#     4  11  22  38  61  91 124 162 199 238 296 364
#     4  12  25  42  64  90 123 159 199 255 316 355
#     4  11  21  39  60  89 124 158 199 242 296 358
#     4  10  23  42  64  88 123 161 203 251 298 358
#
# _framework density 20.609572
#
# number of rings (size 3 to 8) (size 9 to 14) (size 15 to 20)
#    0.000    1.455    2.727    3.000    0.000    5.455 
#    0.000    6.364    0.000    6.000    0.000    0.000 
#    0.000    0.000    0.000    0.000    0.000    0.000 
#
# Total GULP energy -545530.662349 kJ/mol
# GULP energy per Si atom -12398.424144 kJ/mol
# Density = 2.056266 g / cm^3
# Si number density = 20.609572 Si / 1000 Ang^3
#
#
#
# Elastic Constant Matrix: (Units=GPa)
#
#
# Indices 1 2 3 4 5 6 
#
# 1 113.3167 16.7065 27.8275 0.0000 0.0000 0.0000
# 2 16.7065 56.3008 13.5544 0.0000 0.0000 0.0000
# 3 27.8275 13.5544 142.6752 0.0000 0.0000 0.0000
# 4 0.0000 0.0000 0.0000 33.5039 0.0000 0.0000
# 5 0.0000 0.0000 0.0000 0.0000 9.5505 0.0000
# 6 0.0000 0.0000 0.0000 0.0000 0.0000 22.7552
#
#
#
# Elastic Compliance Matrix: (Units=1/GPa)
#
#
# Indices 1 2 3 4 5 6 
#
# 1 0.009588 -0.002451 -0.001637 0.000000 0.000000 0.000000
# 2 -0.002451 0.018804 -0.001308 0.000000 0.000000 0.000000
# 3 -0.001637 -0.001308 0.007453 0.000000 0.000000 0.000000
# 4 0.000000 0.000000 0.000000 0.029847 0.000000 0.000000
# 5 0.000000 0.000000 0.000000 0.000000 0.104707 0.000000
# 6 0.000000 0.000000 0.000000 0.000000 0.000000 0.043946
#
#
# Mechanical properties :
#
#
# Convention : Reuss Voigt Hill
#
# Bulk Modulus (GPa) = 39.91765 47.60772 43.76268
# Shear Modulus (GPa) = 21.41433 30.10886 25.76159
#
# Velocity S-wave (km/s) = 3.22692 3.82634 3.53934
# Velocity P-wave (km/s) = 5.77015 6.53231 6.16302
#
# Compressibility (1/GPa) = 0.02505158
#
# Stress axis : x y z
#
# Youngs Moduli (GPa) = 104.29431 53.18004 134.18216
#
# Poissons Ratio (x) = 0.13035 0.21969
# Poissons Ratio (y) = 0.25563 0.17556
# Poissons Ratio (z) = 0.17076 0.06958
#
# Static dielectric constant tensor:
#      x y z
#    x 3.434330 0.000000 0.000000 
#    y 0.000000 3.732620 0.000000 
#    z 0.000000 0.000000 4.137220 
# 
# 
# High freq. dielectric constant tensor:
#      x y z
#    x 1.784980 0.000000 0.000000 
#    y 0.000000 1.802180 0.000000 
#    z 0.000000 0.000000 1.831390 
# 
# From -- ./inp_files/37810.got.cif
#   From: 2010.03.12/outbox.cif.g09.slc.cpg/sg63_19_cif.got.tgz:37810.got - 2010.04.10 19:34:48.
