data_PCOD8260416
_publ_section_title
;
Structure prediction by ZEFSAII (Michael W. Deem and Ramdas Pophale) SiO2 
 PCOD8260416
Probable space group: C M C M
;
_chemical_formula_sum "Si O2"
_cell_formula_units_Z 80
_cell_length_a 8.732086
_cell_length_b 20.130927
_cell_length_c 22.823288
_cell_angle_alpha 90.000000
_cell_angle_beta 90.000000
_cell_angle_gamma 90.000000
_cell_volume 4011.991358
_symmetry_space_group_name_H-M "C M C M"
_symmetry_group_IT_number 63
_symmetry_cell_setting 'orthorhombic'
loop_
_space_group_symop_operation_xyz
x,y,z
-x,-y,1/2+z
x,-y,-z
-x,y,1/2-z
-x,-y,-z
x,y,1/2-z
-x,y,z
x,-y,1/2+z
1/2+x,1/2+y,z
1/2-x,1/2-y,1/2+z
1/2+x,1/2-y,-z
1/2-x,1/2+y,1/2-z
1/2-x,1/2-y,-z
1/2+x,1/2+y,1/2-z
1/2-x,1/2+y,z
1/2+x,1/2-y,1/2+z
loop_
_atom_site_type_symbol
_atom_site_label
_atom_site_fract_x
_atom_site_fract_y
_atom_site_fract_z
Si Si1 0.820165 0.617342 0.366338
Si Si2 0.176331 0.769563 0.939470
Si Si3 0.181150 0.487744 0.064771
Si Si4 0.319642 0.671625 0.250000
Si Si5 0.824282 0.638429 0.634941
Si Si6 0.678813 0.317629 0.250000
O O1 0.774240 0.669676 0.415620
O O2 0.770530 0.545567 0.390449
O O3 0.732047 0.630591 0.306399
O O4 0.000000 0.622154 0.354282
O O5 0.191635 0.709439 0.894745
O O6 0.000000 0.790367 0.947839
O O7 0.250000 0.750000 0.000000
O O8 0.241482 0.418178 0.091397
O O9 0.000000 0.484912 0.057810
O O10 0.253339 0.500000 0.000000
O O11 0.500000 0.677892 0.250000
O O12 0.257523 0.746047 0.250000
O O13 0.725836 0.639011 0.693926
O O14 0.000000 0.622789 0.651226
O O15 0.500000 0.304759 0.250000
#
# Coordination Sequence:
#
# PCOD8260416 Si02
#       6
#    16  16  16   8  16   8
#     4  11  22  38  63  92 122 157 205 258 307 358
#     4  11  22  36  59  88 120 159 206 255 307 364
#     4   9  19  38  63  91 123 162 204 248 298 365
#     4  12  24  41  62  87 123 163 205 251 310 374
#     4  10  21  39  63  88 120 163 205 247 302 363
#     4  12  24  39  62  91 123 157 203 259 312 360
#
# _framework density 19.940221000000001
#
# number of rings (size 3 to 8) (size 9 to 14) (size 15 to 20)
#    0.000    1.400    2.000    4.200    0.000    4.800 
#    0.000    6.000    0.000    4.200    0.000    0.000 
#    0.000    0.000    0.000    0.000    0.000    0.000 
#
# Total GULP energy -496154.098532 kJ/mol
# GULP energy per Si atom -12403.852463 kJ/mol
# Density = 1.989484 g / cm^3
# Si number density = 19.940221 Si / 1000 Ang^3
#
#
#
# Elastic Constant Matrix: (Units=GPa)
#
#
# Indices 1 2 3 4 5 6 
#
# 1 94.1132 28.7121 42.2709 0.0000 0.0000 0.0000
# 2 28.7121 68.1701 -0.6705 0.0000 0.0000 0.0000
# 3 42.2709 -0.6705 109.1433 0.0000 0.0000 0.0000
# 4 0.0000 0.0000 0.0000 29.6872 0.0000 0.0000
# 5 0.0000 0.0000 0.0000 0.0000 36.1012 0.0000
# 6 0.0000 0.0000 0.0000 0.0000 0.0000 23.9243
#
#
#
# Elastic Compliance Matrix: (Units=1/GPa)
#
#
# Indices 1 2 3 4 5 6 
#
# 1 0.015284 -0.006496 -0.005959 0.000000 0.000000 0.000000
# 2 -0.006496 0.017431 0.002623 0.000000 0.000000 0.000000
# 3 -0.005959 0.002623 0.011486 0.000000 0.000000 0.000000
# 4 0.000000 0.000000 0.000000 0.033685 0.000000 0.000000
# 5 0.000000 0.000000 0.000000 0.000000 0.027700 0.000000
# 6 0.000000 0.000000 0.000000 0.000000 0.000000 0.041799
#
#
# Mechanical properties :
#
#
# Convention : Reuss Voigt Hill
#
# Bulk Modulus (GPa) = 40.75534 45.78350 43.26942
# Shear Modulus (GPa) = 28.53425 31.35012 29.94218
#
# Velocity S-wave (km/s) = 3.78695 3.96941 3.87925
# Velocity P-wave (km/s) = 6.29320 6.63464 6.46618
#
# Compressibility (1/GPa) = 0.02453666
#
# Stress axis : x y z
#
# Youngs Moduli (GPa) = 65.42821 57.36909 87.05938
#
# Poissons Ratio (x) = 0.37267 0.51882
# Poissons Ratio (y) = 0.42502 -0.22835
# Poissons Ratio (z) = 0.38991 -0.15048
#
# Static dielectric constant tensor:
#      x y z
#    x 3.605630 0.000000 0.000000 
#    y 0.000000 3.782620 0.000000 
#    z 0.000000 0.000000 3.807290 
# 
# 
# High freq. dielectric constant tensor:
#      x y z
#    x 1.762470 0.000000 0.000000 
#    y 0.000000 1.782190 0.000000 
#    z 0.000000 0.000000 1.796230 
# 
# From -- ./inp_files/59526.got.cif
#   From: 2010.03.12/outbox.cif.g09.slc.cpg/sg63_30_cif.got.tgz:59526.got - 2010.04.10 19:34:48.
