data_PCOD8260296
_publ_section_title
;
Structure prediction by ZEFSAII (Michael W. Deem and Ramdas Pophale) SiO2 
 PCOD8260296
Probable space group: C M C M
;
_chemical_formula_sum "Si O2"
_cell_formula_units_Z 96
_cell_length_a 27.567674
_cell_length_b 20.598797
_cell_length_c 8.747692
_cell_angle_alpha 90.000000
_cell_angle_beta 90.000000
_cell_angle_gamma 90.000000
_cell_volume 4967.472431
_symmetry_space_group_name_H-M "C M C M"
_symmetry_group_IT_number 63
_symmetry_cell_setting 'orthorhombic'
loop_
_space_group_symop_operation_xyz
x,y,z
-x,-y,1/2+z
x,-y,-z
-x,y,1/2-z
-x,-y,-z
x,y,1/2-z
-x,y,z
x,-y,1/2+z
1/2+x,1/2+y,z
1/2-x,1/2-y,1/2+z
1/2+x,1/2-y,-z
1/2-x,1/2+y,1/2-z
1/2-x,1/2-y,-z
1/2+x,1/2+y,1/2-z
1/2-x,1/2+y,z
1/2+x,1/2-y,1/2+z
loop_
_atom_site_type_symbol
_atom_site_label
_atom_site_fract_x
_atom_site_fract_y
_atom_site_fract_z
Si Si1 0.282596 0.306156 0.068441
Si Si2 0.444046 0.569091 0.929096
Si Si3 0.772498 0.433569 0.069997
Si Si4 0.054343 0.313533 0.068273
Si Si5 0.617311 0.066970 0.931124
Si Si6 0.387918 0.312213 0.931375
O O1 0.282524 0.300673 0.250000
O O2 0.260769 0.374733 0.012822
O O3 0.250000 0.250000 0.000000
O O4 0.336173 0.299437 0.004802
O O5 0.432811 0.567710 0.750000
O O6 0.500000 0.586375 0.962624
O O7 0.430484 0.500000 0.000000
O O8 0.410201 0.621046 0.010229
O O9 0.770875 0.440258 0.250000
O O10 0.827537 0.421223 0.013643
O O11 0.751561 0.500000 0.000000
O O12 0.053755 0.315940 0.250000
O O13 0.085114 0.374055 0.003671
O O14 0.077823 0.246320 0.012858
O O15 0.000000 0.317658 0.001683
O O16 0.613942 0.063150 0.750000
O O17 0.596876 0.000000 0.000000
O O18 0.382702 0.314249 0.750000
#
# Coordination Sequence:
#
# PCOD8260296 Si02
#       6
#    16  16  16  16  16  16
#     4  11  23  39  58  82 112 146 188 235 284 339
#     4  10  21  38  60  86 116 150 189 234 284 339
#     4   9  19  35  55  78 106 140 178 221 269 327
#     4   9  18  33  54  78 106 143 183 220 263 322
#     4   9  17  32  53  77 105 137 175 217 263 315
#     4  11  22  37  58  83 112 147 188 233 283 338
#
# _framework density 19.325721999999999
#
# number of rings (size 3 to 8) (size 9 to 14) (size 15 to 20)
#    0.000    2.167    0.000    3.000    0.000    6.667 
#    0.000    6.667    0.000    2.000    0.000    0.000 
#    0.000    0.000    0.000    0.000    0.000    0.000 
#
# Total GULP energy -595336.447625 kJ/mol
# GULP energy per Si atom -12402.842659 kJ/mol
# Density = 1.928174 g / cm^3
# Si number density = 19.325722 Si / 1000 Ang^3
#
#
#
# Elastic Constant Matrix: (Units=GPa)
#
#
# Indices 1 2 3 4 5 6 
#
# 1 101.9102 53.0954 30.3112 0.0000 0.0000 0.0000
# 2 53.0954 126.7587 39.7037 0.0000 0.0000 0.0000
# 3 30.3112 39.7037 52.5599 0.0000 0.0000 0.0000
# 4 0.0000 0.0000 0.0000 34.7312 0.0000 0.0000
# 5 0.0000 0.0000 0.0000 0.0000 28.7163 0.0000
# 6 0.0000 0.0000 0.0000 0.0000 0.0000 45.6919
#
#
#
# Elastic Compliance Matrix: (Units=1/GPa)
#
#
# Indices 1 2 3 4 5 6 
#
# 1 0.013332 -0.004161 -0.004546 0.000000 0.000000 0.000000
# 2 -0.004161 0.011633 -0.006388 0.000000 0.000000 0.000000
# 3 -0.004546 -0.006388 0.026473 0.000000 0.000000 0.000000
# 4 0.000000 0.000000 0.000000 0.028793 0.000000 0.000000
# 5 0.000000 0.000000 0.000000 0.000000 0.034823 0.000000
# 6 0.000000 0.000000 0.000000 0.000000 0.000000 0.021886
#
#
# Mechanical properties :
#
#
# Convention : Reuss Voigt Hill
#
# Bulk Modulus (GPa) = 47.06053 58.60547 52.83300
# Shear Modulus (GPa) = 28.70086 32.36912 30.53499
#
# Velocity S-wave (km/s) = 3.85790 4.09702 3.97926
# Velocity P-wave (km/s) = 6.65196 7.26442 6.96492
#
# Compressibility (1/GPa) = 0.02124923
#
# Stress axis : x y z
#
# Youngs Moduli (GPa) = 75.00565 85.96546 37.77472
#
# Poissons Ratio (x) = 0.35767 0.17171
# Poissons Ratio (y) = 0.31207 0.24130
# Poissons Ratio (z) = 0.34096 0.54913
#
# Static dielectric constant tensor:
#      x y z
#    x 3.346300 0.000000 0.000000 
#    y 0.000000 3.792070 0.000000 
#    z 0.000000 0.000000 3.426700 
# 
# 
# High freq. dielectric constant tensor:
#      x y z
#    x 1.755610 0.000000 0.000000 
#    y 0.000000 1.769050 0.000000 
#    z 0.000000 0.000000 1.737670 
# 
# From -- ./inp_files/12315.got.cif
#   From: 2010.03.12/outbox.cif.g09.slc.cpg/sg63_7_cif.got.tgz:12315.got - 2010.04.10 19:34:48.
