data_PCOD8260779
_publ_section_title
;
Structure prediction by ZEFSAII (Michael W. Deem and Ramdas Pophale) SiO2 
 PCOD8260779
Probable space group: C M C M
;
_chemical_formula_sum "Si O2"
_cell_formula_units_Z 64
_cell_length_a 29.907950
_cell_length_b 5.080598
_cell_length_c 17.697777
_cell_angle_alpha 90.000000
_cell_angle_beta 90.000000
_cell_angle_gamma 90.000000
_cell_volume 2689.182010
_symmetry_space_group_name_H-M "C M C M"
_symmetry_group_IT_number 63
_symmetry_cell_setting 'orthorhombic'
loop_
_space_group_symop_operation_xyz
x,y,z
-x,-y,1/2+z
x,-y,-z
-x,y,1/2-z
-x,-y,-z
x,y,1/2-z
-x,y,z
x,-y,1/2+z
1/2+x,1/2+y,z
1/2-x,1/2-y,1/2+z
1/2+x,1/2-y,-z
1/2-x,1/2+y,1/2-z
1/2-x,1/2-y,-z
1/2+x,1/2+y,1/2-z
1/2-x,1/2+y,z
1/2+x,1/2-y,1/2+z
loop_
_atom_site_type_symbol
_atom_site_label
_atom_site_fract_x
_atom_site_fract_y
_atom_site_fract_z
Si Si1 0.549735 0.436700 0.665817
Si Si2 0.597559 0.748496 0.549936
Si Si3 0.274967 0.643718 0.339386
Si Si4 0.364204 0.912687 0.335725
O O1 0.555392 0.560808 0.750000
O O2 0.500000 0.315006 0.656758
O O3 0.555764 0.660637 0.602208
O O4 0.586879 0.213059 0.654384
O O5 0.614103 0.500000 0.500000
O O6 0.582940 0.000000 0.500000
O O7 0.637243 0.836560 0.607834
O O8 0.270004 0.637112 0.250000
O O9 0.258451 0.366887 0.373080
O O10 0.326286 0.706126 0.361461
O O11 0.355387 0.011147 0.250000
#
# Coordination Sequence:
#
# PCOD8260779 Si02
#       4
#    16  16  16  16
#     4  10  23  44  70 101 134 172 221 271 325 391
#     4  12  25  44  65  95 133 181 222 267 322 390
#     4   9  19  34  60  97 128 159 210 273 329 384
#     4  10  22  42  70  97 133 175 219 273 334 387
#
# _framework density 23.799060000000001
#
# number of rings (size 3 to 8) (size 9 to 14) (size 15 to 20)
#    0.000    1.750    2.500    0.750    3.500    2.000 
#    0.000    2.500    0.000    4.500    0.000    0.000 
#    0.000    0.000    0.000    0.000    0.000    0.000 
#
# Total GULP energy -396531.663260 kJ/mol
# GULP energy per Si atom -12391.614477 kJ/mol
# Density = 2.374489 g / cm^3
# Si number density = 23.799060 Si / 1000 Ang^3
#
#
#
# Elastic Constant Matrix: (Units=GPa)
#
#
# Indices 1 2 3 4 5 6 
#
# 1 78.8823 -7.3811 4.3288 0.0000 0.0000 0.0000
# 2 -7.3811 84.4972 27.3913 0.0000 0.0000 0.0000
# 3 4.3288 27.3913 114.8516 0.0000 0.0000 0.0000
# 4 0.0000 0.0000 0.0000 26.4453 0.0000 0.0000
# 5 0.0000 0.0000 0.0000 0.0000 -4.4064 0.0000
# 6 0.0000 0.0000 0.0000 0.0000 0.0000 34.9428
#
#
#
# Elastic Compliance Matrix: (Units=1/GPa)
#
#
# Indices 1 2 3 4 5 6 
#
# 1 0.012852 0.001387 -0.000815 0.000000 0.000000 0.000000
# 2 0.001387 0.012976 -0.003147 0.000000 0.000000 0.000000
# 3 -0.000815 -0.003147 0.009488 0.000000 0.000000 0.000000
# 4 0.000000 0.000000 0.000000 0.037814 0.000000 0.000000
# 5 0.000000 0.000000 0.000000 0.000000 -0.226940 0.000000
# 6 0.000000 0.000000 0.000000 0.000000 0.000000 0.028618
#
#
# Mechanical properties :
#
#
# Convention : Reuss Voigt Hill
#
# Bulk Modulus (GPa) = 33.15066 36.32323 34.73695
# Shear Modulus (GPa) = -45.45999 28.32248 -8.56876
#
# Velocity S-wave (km/s) = -4.37528 3.45348 -1.89955
# Velocity P-wave (km/s) = 3.40065 5.58548 3.13314
#
# Compressibility (1/GPa) = 0.03016531
#
# Stress axis : x y z
#
# Youngs Moduli (GPa) = 77.81120 77.06529 105.39474
#
# Poissons Ratio (x) = -0.10688 0.08591
# Poissons Ratio (y) = -0.10791 0.33167
# Poissons Ratio (z) = 0.06343 0.24252
#
# Static dielectric constant tensor:
#      x y z
#    x 4.141290 0.000000 0.000000 
#    y 0.000000 4.401830 0.000000 
#    z 0.000000 0.000000 4.578040 
# 
# 
# High freq. dielectric constant tensor:
#      x y z
#    x 1.927520 0.000000 0.000000 
#    y 0.000000 1.938580 0.000000 
#    z 0.000000 0.000000 1.931920 
# 
# From -- ./inp_files/49299.got.cif
#   From: 2010.03.12/outbox.cif.g09.slc.cpg/sg63_25_cif.got.tgz:49299.got - 2010.04.10 19:34:48.
