data_PCOD8260602
_publ_section_title
;
Structure prediction by ZEFSAII (Michael W. Deem and Ramdas Pophale) SiO2 
 PCOD8260602
Probable space group: C M C M
;
_chemical_formula_sum "Si O2"
_cell_formula_units_Z 80
_cell_length_a 17.009778
_cell_length_b 10.143286
_cell_length_c 22.971765
_cell_angle_alpha 90.000000
_cell_angle_beta 90.000000
_cell_angle_gamma 90.000000
_cell_volume 3963.434463
_symmetry_space_group_name_H-M "C M C M"
_symmetry_group_IT_number 63
_symmetry_cell_setting 'orthorhombic'
loop_
_space_group_symop_operation_xyz
x,y,z
-x,-y,1/2+z
x,-y,-z
-x,y,1/2-z
-x,-y,-z
x,y,1/2-z
-x,y,z
x,-y,1/2+z
1/2+x,1/2+y,z
1/2-x,1/2-y,1/2+z
1/2+x,1/2-y,-z
1/2-x,1/2+y,1/2-z
1/2-x,1/2-y,-z
1/2+x,1/2+y,1/2-z
1/2-x,1/2+y,z
1/2+x,1/2-y,1/2+z
loop_
_atom_site_type_symbol
_atom_site_label
_atom_site_fract_x
_atom_site_fract_y
_atom_site_fract_z
Si Si1 0.908536 0.639244 0.877727
Si Si2 0.692328 0.647710 0.318559
Si Si3 0.139326 0.349419 0.875851
Si Si4 0.319229 0.853103 0.002311
Si Si5 0.087515 0.907196 0.316422
O O1 0.864445 0.729280 0.830648
O O2 0.896542 0.489118 0.856491
O O3 0.000000 0.675298 0.878358
O O4 0.873552 0.666847 0.941578
O O5 0.711874 0.644347 0.250000
O O6 0.770358 0.661723 0.356369
O O7 0.649566 0.513967 0.340181
O O8 0.128240 0.333753 0.945000
O O9 0.090447 0.230767 0.849208
O O10 0.250000 0.750000 0.000000
O O11 0.282319 0.000000 0.000000
O O12 0.107942 0.876926 0.250000
O O13 0.000000 0.966387 0.323394
#
# Coordination Sequence:
#
# PCOD8260602 Si02
#       5
#    16  16  16  16  16
#     4  11  24  41  63  94 126 160 204 256 312 366
#     4  11  23  40  62  89 122 163 207 252 301 361
#     4  11  22  38  65  88 120 160 203 251 300 366
#     4  10  22  39  63  89 122 157 199 250 305 363
#     4  10  22  39  58  85 121 157 197 248 302 354
#
# _framework density 20.184512999999999
#
# number of rings (size 3 to 8) (size 9 to 14) (size 15 to 20)
#    0.000    1.400    2.000    3.000    2.800    8.800 
#    0.000    0.000    0.000    3.000    0.000    0.000 
#    0.000    0.000    0.000    0.000    0.000    0.000 
#
# Total GULP energy -496093.893930 kJ/mol
# GULP energy per Si atom -12402.347348 kJ/mol
# Density = 2.013857 g / cm^3
# Si number density = 20.184513 Si / 1000 Ang^3
#
#
#
# Elastic Constant Matrix: (Units=GPa)
#
#
# Indices 1 2 3 4 5 6 
#
# 1 83.4859 7.8840 9.4762 0.0000 0.0000 0.0000
# 2 7.8840 82.7181 18.1387 0.0000 0.0000 0.0000
# 3 9.4762 18.1387 61.6271 0.0000 0.0000 0.0000
# 4 0.0000 0.0000 0.0000 35.4419 0.0000 0.0000
# 5 0.0000 0.0000 0.0000 0.0000 14.9975 0.0000
# 6 0.0000 0.0000 0.0000 0.0000 0.0000 33.9551
#
#
#
# Elastic Compliance Matrix: (Units=1/GPa)
#
#
# Indices 1 2 3 4 5 6 
#
# 1 0.012241 -0.000806 -0.001645 0.000000 0.000000 0.000000
# 2 -0.000806 0.012976 -0.003695 0.000000 0.000000 0.000000
# 3 -0.001645 -0.003695 0.017567 0.000000 0.000000 0.000000
# 4 0.000000 0.000000 0.000000 0.028215 0.000000 0.000000
# 5 0.000000 0.000000 0.000000 0.000000 0.066678 0.000000
# 6 0.000000 0.000000 0.000000 0.000000 0.000000 0.029451
#
#
# Mechanical properties :
#
#
# Convention : Reuss Voigt Hill
#
# Bulk Modulus (GPa) = 32.79576 33.20320 32.99948
# Shear Modulus (GPa) = 26.37343 29.70106 28.03725
#
# Velocity S-wave (km/s) = 3.61864 3.84015 3.73104
# Velocity P-wave (km/s) = 5.80884 6.01231 5.91145
#
# Compressibility (1/GPa) = 0.03049175
#
# Stress axis : x y z
#
# Youngs Moduli (GPa) = 81.69333 77.06293 56.92415
#
# Poissons Ratio (x) = 0.06211 0.09364
# Poissons Ratio (y) = 0.06584 0.21036
# Poissons Ratio (z) = 0.13439 0.28478
#
# Static dielectric constant tensor:
#      x y z
#    x 3.562510 0.000000 0.000000 
#    y 0.000000 3.916370 0.000000 
#    z 0.000000 0.000000 3.871770 
# 
# 
# High freq. dielectric constant tensor:
#      x y z
#    x 1.785700 0.000000 0.000000 
#    y 0.000000 1.801810 0.000000 
#    z 0.000000 0.000000 1.790820 
# 
# From -- ./inp_files/62572.got.cif
#   From: 2010.03.12/outbox.cif.g09.slc.cpg/sg63_32_cif.got.tgz:62572.got - 2010.04.10 19:34:48.
