data_PCOD8260530
_publ_section_title
;
Structure prediction by ZEFSAII (Michael W. Deem and Ramdas Pophale) SiO2 
 PCOD8260530
Probable space group: C M C M
;
_chemical_formula_sum "Si O2"
_cell_formula_units_Z 88
_cell_length_a 17.652643
_cell_length_b 28.646772
_cell_length_c 8.722055
_cell_angle_alpha 90.000000
_cell_angle_beta 90.000000
_cell_angle_gamma 90.000000
_cell_volume 4410.666801
_symmetry_space_group_name_H-M "C M C M"
_symmetry_group_IT_number 63
_symmetry_cell_setting 'orthorhombic'
loop_
_space_group_symop_operation_xyz
x,y,z
-x,-y,1/2+z
x,-y,-z
-x,y,1/2-z
-x,-y,-z
x,y,1/2-z
-x,y,z
x,-y,1/2+z
1/2+x,1/2+y,z
1/2-x,1/2-y,1/2+z
1/2+x,1/2-y,-z
1/2-x,1/2+y,1/2-z
1/2-x,1/2-y,-z
1/2+x,1/2+y,1/2-z
1/2-x,1/2+y,z
1/2+x,1/2-y,1/2+z
loop_
_atom_site_type_symbol
_atom_site_label
_atom_site_fract_x
_atom_site_fract_y
_atom_site_fract_z
Si Si1 0.353465 0.107929 0.568999
Si Si2 0.089578 0.200366 0.582669
Si Si3 0.000000 0.551099 0.931172
Si Si4 0.412878 0.198884 0.067337
Si Si5 0.086605 0.900661 0.067262
Si Si6 0.722794 0.549082 0.069266
O O1 0.343332 0.104447 0.750000
O O2 0.426022 0.078660 0.510886
O O3 0.361287 0.161561 0.519168
O O4 0.279068 0.088924 0.487570
O O5 0.128017 0.199545 0.750000
O O6 0.113012 0.249570 0.503197
O O7 0.110373 0.151129 0.500785
O O8 0.000000 0.201554 0.604558
O O9 0.000000 0.547078 0.750000
O O10 0.000000 0.500000 0.000000
O O11 0.401644 0.195986 0.250000
O O12 0.500000 0.189149 0.023450
O O13 0.097715 0.901920 0.250000
O O14 0.000000 0.912198 0.023856
O O15 0.138167 0.939218 0.986688
O O16 0.724854 0.545268 0.250000
O O17 0.749346 0.500000 0.000000
#
# Coordination Sequence:
#
# PCOD8260530 Si02
#       6
#    16  16   8  16  16  16
#     4  11  22  38  56  81 115 152 194 238 286 336
#     4   7  12  26  52  85 117 148 185 227 275 331
#     4  10  22  36  54  78 106 142 188 238 283 332
#     4   9  16  29  53  85 118 154 193 232 275 329
#     4   9  18  37  65  92 117 148 186 231 284 342
#     4  12  26  43  61  83 112 148 189 236 292 345
#
# _framework density 19.951633000000001
#
# number of rings (size 3 to 8) (size 9 to 14) (size 15 to 20)
#    0.000    2.364    0.909    4.909    0.000    3.636 
#    0.000    1.818    0.000    3.273    0.000    0.000 
#    0.000    0.000    0.000    0.000    0.000    0.000 
#
# Total GULP energy -545310.619532 kJ/mol
# GULP energy per Si atom -12393.423171 kJ/mol
# Density = 1.990622 g / cm^3
# Si number density = 19.951633 Si / 1000 Ang^3
#
#
#
# Elastic Constant Matrix: (Units=GPa)
#
#
# Indices 1 2 3 4 5 6 
#
# 1 72.0924 16.0128 29.9095 0.0000 0.0000 0.0000
# 2 16.0128 73.8240 21.3265 0.0000 0.0000 0.0000
# 3 29.9095 21.3265 69.4633 0.0000 0.0000 0.0000
# 4 0.0000 0.0000 0.0000 21.4070 0.0000 0.0000
# 5 0.0000 0.0000 0.0000 0.0000 16.0320 0.0000
# 6 0.0000 0.0000 0.0000 0.0000 0.0000 25.4950
#
#
#
# Elastic Compliance Matrix: (Units=1/GPa)
#
#
# Indices 1 2 3 4 5 6 
#
# 1 0.017088 -0.001735 -0.006825 0.000000 0.000000 0.000000
# 2 -0.001735 0.015040 -0.003871 0.000000 0.000000 0.000000
# 3 -0.006825 -0.003871 0.018523 0.000000 0.000000 0.000000
# 4 0.000000 0.000000 0.000000 0.046714 0.000000 0.000000
# 5 0.000000 0.000000 0.000000 0.000000 0.062375 0.000000
# 6 0.000000 0.000000 0.000000 0.000000 0.000000 0.039223
#
#
# Mechanical properties :
#
#
# Convention : Reuss Voigt Hill
#
# Bulk Modulus (GPa) = 38.77435 38.87525 38.82480
# Shear Modulus (GPa) = 21.51262 22.46219 21.98740
#
# Velocity S-wave (km/s) = 3.28722 3.35898 3.32329
# Velocity P-wave (km/s) = 5.82100 5.87969 5.85042
#
# Compressibility (1/GPa) = 0.02579025
#
# Stress axis : x y z
#
# Youngs Moduli (GPa) = 58.52059 66.48860 53.98639
#
# Poissons Ratio (x) = 0.11535 0.36846
# Poissons Ratio (y) = 0.10152 0.20896
# Poissons Ratio (z) = 0.39941 0.25735
#
# Static dielectric constant tensor:
#      x y z
#    x 3.464520 0.000000 0.000000 
#    y 0.000000 3.926000 0.000000 
#    z 0.000000 0.000000 3.284540 
# 
# 
# High freq. dielectric constant tensor:
#      x y z
#    x 1.756390 0.000000 0.000000 
#    y 0.000000 1.800060 0.000000 
#    z 0.000000 0.000000 1.747770 
# 
# From -- ./inp_files/6893.got.cif
#   From: 2010.03.12/outbox.cif.g09.slc.cpg/sg63_4_cif.got.tgz:6893.got - 2010.04.10 19:34:48.
