data_PCOD8260636
_publ_section_title
;
Structure prediction by ZEFSAII (Michael W. Deem and Ramdas Pophale) SiO2 
 PCOD8260636
Probable space group: C M C M
;
_chemical_formula_sum "Si O2"
_cell_formula_units_Z 96
_cell_length_a 24.370825
_cell_length_b 9.557888
_cell_length_c 21.334994
_cell_angle_alpha 90.000000
_cell_angle_beta 90.000000
_cell_angle_gamma 90.000000
_cell_volume 4969.637296
_symmetry_space_group_name_H-M "C M C M"
_symmetry_group_IT_number 63
_symmetry_cell_setting 'orthorhombic'
loop_
_space_group_symop_operation_xyz
x,y,z
-x,-y,1/2+z
x,-y,-z
-x,y,1/2-z
-x,-y,-z
x,y,1/2-z
-x,y,z
x,-y,1/2+z
1/2+x,1/2+y,z
1/2-x,1/2-y,1/2+z
1/2+x,1/2-y,-z
1/2-x,1/2+y,1/2-z
1/2-x,1/2-y,-z
1/2+x,1/2+y,1/2-z
1/2-x,1/2+y,z
1/2+x,1/2-y,1/2+z
loop_
_atom_site_type_symbol
_atom_site_label
_atom_site_fract_x
_atom_site_fract_y
_atom_site_fract_z
Si Si1 0.936578 0.792999 0.550219
Si Si2 0.761473 0.127309 0.954748
Si Si3 0.278097 0.163811 0.250000
Si Si4 0.317976 0.864933 0.250000
Si Si5 0.148332 0.415298 0.114218
Si Si6 0.937766 0.899695 0.088874
Si Si7 0.847059 0.267946 0.630295
O O1 0.896003 0.671721 0.574530
O O2 0.927347 0.820172 0.476875
O O3 0.000000 0.749338 0.562773
O O4 0.922204 0.936753 0.586048
O O5 0.710506 0.107259 0.908212
O O6 0.815538 0.166809 0.917348
O O7 0.750000 0.250000 0.000000
O O8 0.774965 0.000000 0.000000
O O9 0.216221 0.221015 0.250000
O O10 0.310602 0.220021 0.308962
O O11 0.275383 0.995566 0.250000
O O12 0.355928 0.872687 0.312161
O O13 0.136637 0.579498 0.103693
O O14 0.902804 0.819211 0.142074
O O15 0.000000 0.884711 0.109740
#
# Coordination Sequence:
#
# PCOD8260636 Si02
#       7
#    16  16   8   8  16  16  16
#     4   9  20  38  61  87 117 150 190 239 291 345
#     4  12  24  35  54  87 118 147 186 237 288 348
#     4  10  22  40  57  82 115 157 198 238 284 339
#     4  10  22  40  59  80 115 157 200 240 278 341
#     4  11  23  39  58  85 117 154 196 237 289 344
#     4   9  20  38  60  87 116 151 190 237 292 346
#     4  11  23  38  59  84 117 154 195 238 288 345
#
# _framework density 19.317305000000001
#
# number of rings (size 3 to 8) (size 9 to 14) (size 15 to 20)
#    0.000    1.667    3.333    2.000    4.667    2.000 
#    0.000    2.500    0.000    5.000    0.000    0.000 
#    0.000    0.000    0.000    0.000    0.000    0.000 
#
# Total GULP energy -595016.227062 kJ/mol
# GULP energy per Si atom -12396.171397 kJ/mol
# Density = 1.927334 g / cm^3
# Si number density = 19.317305 Si / 1000 Ang^3
#
#
#
# Elastic Constant Matrix: (Units=GPa)
#
#
# Indices 1 2 3 4 5 6 
#
# 1 76.6954 44.3029 7.9237 0.0000 0.0000 0.0000
# 2 44.3029 105.5766 21.1961 0.0000 0.0000 0.0000
# 3 7.9237 21.1961 53.8672 0.0000 0.0000 0.0000
# 4 0.0000 0.0000 0.0000 21.2800 0.0000 0.0000
# 5 0.0000 0.0000 0.0000 0.0000 43.2751 0.0000
# 6 0.0000 0.0000 0.0000 0.0000 0.0000 38.3411
#
#
#
# Elastic Compliance Matrix: (Units=1/GPa)
#
#
# Indices 1 2 3 4 5 6 
#
# 1 0.017216 -0.007292 0.000337 0.000000 0.000000 0.000000
# 2 -0.007292 0.013373 -0.004189 0.000000 0.000000 0.000000
# 3 0.000337 -0.004189 0.020163 0.000000 0.000000 0.000000
# 4 0.000000 0.000000 0.000000 0.046992 0.000000 0.000000
# 5 0.000000 0.000000 0.000000 0.000000 0.023108 0.000000
# 6 0.000000 0.000000 0.000000 0.000000 0.000000 0.026082
#
#
# Mechanical properties :
#
#
# Convention : Reuss Voigt Hill
#
# Bulk Modulus (GPa) = 35.13345 42.55384 38.84364
# Shear Modulus (GPa) = 27.97822 31.42701 29.70261
#
# Velocity S-wave (km/s) = 3.80985 4.03784 3.92550
# Velocity P-wave (km/s) = 6.13028 6.61933 6.37949
#
# Compressibility (1/GPa) = 0.02846291
#
# Stress axis : x y z
#
# Youngs Moduli (GPa) = 58.08562 74.77876 49.59556
#
# Poissons Ratio (x) = 0.54528 -0.01671
# Poissons Ratio (y) = 0.42356 0.20778
# Poissons Ratio (z) = -0.01957 0.31328
#
# Static dielectric constant tensor:
#      x y z
#    x 3.425890 0.000000 0.000000 
#    y 0.000000 3.656420 0.000000 
#    z 0.000000 0.000000 3.396320 
# 
# 
# High freq. dielectric constant tensor:
#      x y z
#    x 1.746980 0.000000 0.000000 
#    y 0.000000 1.765730 0.000000 
#    z 0.000000 0.000000 1.738970 
# 
# From -- ./inp_files/65020.got.cif
#   From: 2010.03.12/outbox.cif.g09.slc.cpg/sg63_33_cif.got.tgz:65020.got - 2010.04.10 19:34:48.
