data_PCOD8260308
_publ_section_title
;
Structure prediction by ZEFSAII (Michael W. Deem and Ramdas Pophale) SiO2 
 PCOD8260308
Probable space group: C M C M
;
_chemical_formula_sum "Si O2"
_cell_formula_units_Z 64
_cell_length_a 16.836442
_cell_length_b 10.198123
_cell_length_c 17.489328
_cell_angle_alpha 90.000000
_cell_angle_beta 90.000000
_cell_angle_gamma 90.000000
_cell_volume 3002.919478
_symmetry_space_group_name_H-M "C M C M"
_symmetry_group_IT_number 63
_symmetry_cell_setting 'orthorhombic'
loop_
_space_group_symop_operation_xyz
x,y,z
-x,-y,1/2+z
x,-y,-z
-x,y,1/2-z
-x,-y,-z
x,y,1/2-z
-x,y,z
x,-y,1/2+z
1/2+x,1/2+y,z
1/2-x,1/2-y,1/2+z
1/2+x,1/2-y,-z
1/2-x,1/2+y,1/2-z
1/2-x,1/2-y,-z
1/2+x,1/2+y,1/2-z
1/2-x,1/2+y,z
1/2+x,1/2-y,1/2+z
loop_
_atom_site_type_symbol
_atom_site_label
_atom_site_fract_x
_atom_site_fract_y
_atom_site_fract_z
Si Si1 0.646010 0.847021 0.417751
Si Si2 0.188021 0.848589 0.161193
Si Si3 0.593308 0.870965 0.912747
Si Si4 0.589095 0.402247 0.836628
O O1 0.736128 0.827141 0.391622
O O2 0.641168 0.847419 0.509074
O O3 0.594849 0.725606 0.388392
O O4 0.609916 0.981452 0.383388
O O5 0.212398 0.852676 0.250000
O O6 0.126175 0.729754 0.149939
O O7 0.147746 0.984110 0.134547
O O8 0.500000 0.850048 0.925971
O O9 0.610673 0.362966 0.750000
O O10 0.500000 0.458066 0.842323
#
# Coordination Sequence:
#
# PCOD8260308 Si02
#       4
#    16  16  16  16
#     4  11  22  40  62  90 123 158 203 251 302 359
#     4  11  24  41  62  90 123 160 203 250 302 361
#     4  11  24  42  64  91 124 161 203 251 302 360
#     4  10  21  38  60  87 120 158 201 249 301 360
#
# _framework density 21.312595000000002
#
# number of rings (size 3 to 8) (size 9 to 14) (size 15 to 20)
#    0.000    1.250    0.000    6.750    0.000    8.500 
#    0.000    2.500    0.000    0.000    0.000    0.000 
#    0.000    0.000    0.000    0.000    0.000    0.000 
#
# Total GULP energy -396974.937546 kJ/mol
# GULP energy per Si atom -12405.466798 kJ/mol
# Density = 2.126409 g / cm^3
# Si number density = 21.312595 Si / 1000 Ang^3
#
#
#
# Elastic Constant Matrix: (Units=GPa)
#
#
# Indices 1 2 3 4 5 6 
#
# 1 125.0570 34.6721 36.9298 0.0000 0.0000 0.0000
# 2 34.6721 110.2497 26.3019 0.0000 0.0000 0.0000
# 3 36.9298 26.3019 50.3023 0.0000 0.0000 0.0000
# 4 0.0000 0.0000 0.0000 36.8263 0.0000 0.0000
# 5 0.0000 0.0000 0.0000 0.0000 19.8187 0.0000
# 6 0.0000 0.0000 0.0000 0.0000 0.0000 41.7948
#
#
#
# Elastic Compliance Matrix: (Units=1/GPa)
#
#
# Indices 1 2 3 4 5 6 
#
# 1 0.010471 -0.001667 -0.006816 0.000000 0.000000 0.000000
# 2 -0.001667 0.010628 -0.004333 0.000000 0.000000 0.000000
# 3 -0.006816 -0.004333 0.027150 0.000000 0.000000 0.000000
# 4 0.000000 0.000000 0.000000 0.027155 0.000000 0.000000
# 5 0.000000 0.000000 0.000000 0.000000 0.050457 0.000000
# 6 0.000000 0.000000 0.000000 0.000000 0.000000 0.023926
#
#
# Mechanical properties :
#
#
# Convention : Reuss Voigt Hill
#
# Bulk Modulus (GPa) = 44.21560 53.49075 48.85317
# Shear Modulus (GPa) = 27.32845 32.20163 29.76504
#
# Velocity S-wave (km/s) = 3.58476 3.89127 3.74116
# Velocity P-wave (km/s) = 6.15835 6.73365 6.45241
#
# Compressibility (1/GPa) = 0.02261645
#
# Stress axis : x y z
#
# Youngs Moduli (GPa) = 95.49901 94.08749 36.83288
#
# Poissons Ratio (x) = 0.15685 0.25105
# Poissons Ratio (y) = 0.15920 0.15961
# Poissons Ratio (z) = 0.65092 0.40773
#
# Static dielectric constant tensor:
#      x y z
#    x 3.783170 0.000000 0.000000 
#    y 0.000000 4.020320 0.000000 
#    z 0.000000 0.000000 3.660150 
# 
# 
# High freq. dielectric constant tensor:
#      x y z
#    x 1.847300 0.000000 0.000000 
#    y 0.000000 1.850670 0.000000 
#    z 0.000000 0.000000 1.823370 
# 
# From -- ./inp_files/33353.got.cif
#   From: 2010.03.12/outbox.cif.g09.slc.cpg/sg63_17_cif.got.tgz:33353.got - 2010.04.10 19:34:48.
