data_PCOD8260969
_publ_section_title
;
Structure prediction by ZEFSAII (Michael W. Deem and Ramdas Pophale) SiO2 
 PCOD8260969
Probable space group: C M C M
;
_chemical_formula_sum "Si O2"
_cell_formula_units_Z 96
_cell_length_a 10.659791
_cell_length_b 17.969335
_cell_length_c 24.975694
_cell_angle_alpha 90.000000
_cell_angle_beta 90.000000
_cell_angle_gamma 90.000000
_cell_volume 4784.078089
_symmetry_space_group_name_H-M "C M C M"
_symmetry_group_IT_number 63
_symmetry_cell_setting 'orthorhombic'
loop_
_space_group_symop_operation_xyz
x,y,z
-x,-y,1/2+z
x,-y,-z
-x,y,1/2-z
-x,-y,-z
x,y,1/2-z
-x,y,z
x,-y,1/2+z
1/2+x,1/2+y,z
1/2-x,1/2-y,1/2+z
1/2+x,1/2-y,-z
1/2-x,1/2+y,1/2-z
1/2-x,1/2-y,-z
1/2+x,1/2+y,1/2-z
1/2-x,1/2+y,z
1/2+x,1/2-y,1/2+z
loop_
_atom_site_type_symbol
_atom_site_label
_atom_site_fract_x
_atom_site_fract_y
_atom_site_fract_z
Si Si1 0.644513 0.817343 0.942640
Si Si2 0.258971 0.161953 0.556464
Si Si3 0.357164 0.075944 0.651325
Si Si4 0.000000 0.074012 0.073023
Si Si5 0.500000 0.403983 0.456249
Si Si6 0.758293 0.084482 0.358171
Si Si7 0.851469 0.671237 0.750000
Si Si8 0.651357 0.342310 0.750000
O O1 0.500000 0.790088 0.948544
O O2 0.742775 0.749982 0.934147
O O3 0.650643 0.872647 0.891749
O O4 0.687898 0.857937 0.997524
O O5 0.355843 0.125177 0.597626
O O6 0.124608 0.127182 0.570497
O O7 0.500000 0.052757 0.663679
O O8 0.300159 0.127592 0.698219
O O9 0.275260 0.001741 0.647712
O O10 0.118622 0.095602 0.107259
O O11 0.000000 0.990501 0.053705
O O12 0.000000 0.121693 0.018485
O O13 0.783002 0.119546 0.300542
O O14 0.805902 0.756371 0.750000
O O15 0.000000 0.671672 0.750000
O O16 0.500000 0.352967 0.750000
#
# Coordination Sequence:
#
# PCOD8260969 Si02
#       8
#    16  16  16   8   8  16   8   8
#     4  11  24  39  59  92 129 165 207 253 315 369
#     4  11  22  39  63  88 126 166 206 255 301 376
#     4  11  23  41  64  90 122 163 207 250 311 367
#     4  11  22  37  62  90 126 161 204 255 309 364
#     4  11  20  40  60  90 128 163 203 249 313 372
#     4  12  23  40  62  93 124 161 206 262 306 370
#     4   9  21  42  62  86 116 157 200 252 303 363
#     4  11  23  40  67  93 121 154 208 261 306 362
#
# _framework density 20.066562999999999
#
# number of rings (size 3 to 8) (size 9 to 14) (size 15 to 20)
#    0.000    1.000    5.000    2.500    0.000    0.667 
#    1.500    2.917    0.000    0.000    0.000    0.000 
#    0.000    0.000    0.000    0.000    0.000    0.000 
#
# Total GULP energy -595247.995991 kJ/mol
# GULP energy per Si atom -12400.999916 kJ/mol
# Density = 2.002089 g / cm^3
# Si number density = 20.066563 Si / 1000 Ang^3
#
#
#
# Elastic Constant Matrix: (Units=GPa)
#
#
# Indices 1 2 3 4 5 6 
#
# 1 62.2969 8.0771 11.7135 0.0000 0.0000 0.0000
# 2 8.0771 102.4746 51.3196 0.0000 0.0000 0.0000
# 3 11.7135 51.3196 137.7600 0.0000 0.0000 0.0000
# 4 0.0000 0.0000 0.0000 39.4020 0.0000 0.0000
# 5 0.0000 0.0000 0.0000 0.0000 21.8057 0.0000
# 6 0.0000 0.0000 0.0000 0.0000 0.0000 25.4723
#
#
#
# Elastic Compliance Matrix: (Units=1/GPa)
#
#
# Indices 1 2 3 4 5 6 
#
# 1 0.016357 -0.000729 -0.001119 0.000000 0.000000 0.000000
# 2 -0.000729 0.012029 -0.004419 0.000000 0.000000 0.000000
# 3 -0.001119 -0.004419 0.009000 0.000000 0.000000 0.000000
# 4 0.000000 0.000000 0.000000 0.025379 0.000000 0.000000
# 5 0.000000 0.000000 0.000000 0.000000 0.045860 0.000000
# 6 0.000000 0.000000 0.000000 0.000000 0.000000 0.039258
#
#
# Mechanical properties :
#
#
# Convention : Reuss Voigt Hill
#
# Bulk Modulus (GPa) = 40.23799 49.41687 44.82743
# Shear Modulus (GPa) = 29.63794 32.76408 31.20101
#
# Velocity S-wave (km/s) = 3.84732 4.04514 3.94747
# Velocity P-wave (km/s) = 6.31123 6.81890 6.56997
#
# Compressibility (1/GPa) = 0.02485213
#
# Stress axis : x y z
#
# Youngs Moduli (GPa) = 61.13545 83.13161 111.10529
#
# Poissons Ratio (x) = 0.06058 0.12437
# Poissons Ratio (y) = 0.04455 0.49100
# Poissons Ratio (z) = 0.06843 0.36738
#
# Static dielectric constant tensor:
#      x y z
#    x 3.476100 0.000000 0.000000 
#    y 0.000000 3.613250 0.000000 
#    z 0.000000 0.000000 3.814970 
# 
# 
# High freq. dielectric constant tensor:
#      x y z
#    x 1.775090 0.000000 0.000000 
#    y 0.000000 1.788920 0.000000 
#    z 0.000000 0.000000 1.789230 
# 
# From -- ./inp_files/52974.got.cif
#   From: 2010.03.12/outbox.cif.g09.slc.cpg/sg63_27_cif.got.tgz:52974.got - 2010.04.10 19:34:48.
