data_PCOD8260748
_publ_section_title
;
Structure prediction by ZEFSAII (Michael W. Deem and Ramdas Pophale) SiO2 
 PCOD8260748
Probable space group: C M C M
;
_chemical_formula_sum "Si O2"
_cell_formula_units_Z 64
_cell_length_a 13.487640
_cell_length_b 26.952648
_cell_length_c 8.509081
_cell_angle_alpha 90.000000
_cell_angle_beta 90.000000
_cell_angle_gamma 90.000000
_cell_volume 3093.285907
_symmetry_space_group_name_H-M "C M C M"
_symmetry_group_IT_number 63
_symmetry_cell_setting 'orthorhombic'
loop_
_space_group_symop_operation_xyz
x,y,z
-x,-y,1/2+z
x,-y,-z
-x,y,1/2-z
-x,-y,-z
x,y,1/2-z
-x,y,z
x,-y,1/2+z
1/2+x,1/2+y,z
1/2-x,1/2-y,1/2+z
1/2+x,1/2-y,-z
1/2-x,1/2+y,1/2-z
1/2-x,1/2-y,-z
1/2+x,1/2+y,1/2-z
1/2-x,1/2+y,z
1/2+x,1/2-y,1/2+z
loop_
_atom_site_type_symbol
_atom_site_label
_atom_site_fract_x
_atom_site_fract_y
_atom_site_fract_z
Si Si1 0.500000 0.587301 0.431770
Si Si2 0.000000 0.808255 0.428354
Si Si3 0.111787 0.379157 0.433934
Si Si4 0.213745 0.053051 0.435651
Si Si5 0.647584 0.234674 0.934808
O O1 0.500000 0.573905 0.250000
O O2 0.500000 0.645762 0.454161
O O3 0.603525 0.566027 0.506063
O O4 0.908903 0.773662 0.460819
O O5 0.000000 0.828245 0.250000
O O6 0.128032 0.387039 0.250000
O O7 0.199973 0.408259 0.519614
O O8 0.119665 0.321407 0.478490
O O9 0.000000 0.397205 0.482532
O O10 0.207262 0.052063 0.250000
O O11 0.247374 0.000000 0.500000
O O12 0.632012 0.243999 0.750000
O O13 0.750000 0.250000 0.000000
#
# Coordination Sequence:
#
# PCOD8260748 Si02
#       5
#     8   8  16  16  16
#     4  10  23  43  65  92 128 165 209 264 321 378
#     4  12  24  37  59  92 126 167 208 246 305 376
#     4  10  22  42  64  88 124 168 210 258 314 371
#     4  11  24  42  66  94 123 162 208 263 323 382
#     4  11  22  39  61  89 125 166 208 258 312 368
#
# _framework density 20.689972000000001
#
# number of rings (size 3 to 8) (size 9 to 14) (size 15 to 20)
#    0.000    1.250    1.250    4.500    0.000    9.000 
#    0.000    0.000    0.000    0.000    0.000    0.000 
#    0.000    0.000    0.000    0.000    0.000    0.000 
#
# Total GULP energy -396504.171317 kJ/mol
# GULP energy per Si atom -12390.755354 kJ/mol
# Density = 2.064288 g / cm^3
# Si number density = 20.689972 Si / 1000 Ang^3
#
#
#
# Elastic Constant Matrix: (Units=GPa)
#
#
# Indices 1 2 3 4 5 6 
#
# 1 159.4553 31.4935 28.5241 0.0000 0.0000 0.0000
# 2 31.4935 90.1931 20.6219 0.0000 0.0000 0.0000
# 3 28.5241 20.6219 51.2452 0.0000 0.0000 0.0000
# 4 0.0000 0.0000 0.0000 29.4994 0.0000 0.0000
# 5 0.0000 0.0000 0.0000 0.0000 35.0258 0.0000
# 6 0.0000 0.0000 0.0000 0.0000 0.0000 18.9488
#
#
#
# Elastic Compliance Matrix: (Units=1/GPa)
#
#
# Indices 1 2 3 4 5 6 
#
# 1 0.007211 -0.001762 -0.003304 0.000000 0.000000 0.000000
# 2 -0.001762 0.012642 -0.004106 0.000000 0.000000 0.000000
# 3 -0.003304 -0.004106 0.023006 0.000000 0.000000 0.000000
# 4 0.000000 0.000000 0.000000 0.033899 0.000000 0.000000
# 5 0.000000 0.000000 0.000000 0.000000 0.028550 0.000000
# 6 0.000000 0.000000 0.000000 0.000000 0.000000 0.052774
#
#
# Mechanical properties :
#
#
# Convention : Reuss Voigt Hill
#
# Bulk Modulus (GPa) = 40.79628 51.35252 46.07440
# Shear Modulus (GPa) = 27.08599 31.37841 29.23220
#
# Velocity S-wave (km/s) = 3.62212 3.89858 3.76289
# Velocity P-wave (km/s) = 6.10359 6.71857 6.41844
#
# Compressibility (1/GPa) = 0.02451204
#
# Stress axis : x y z
#
# Youngs Moduli (GPa) = 138.68658 79.10441 43.46742
#
# Poissons Ratio (x) = 0.13940 0.14363
# Poissons Ratio (y) = 0.24440 0.17849
# Poissons Ratio (z) = 0.45827 0.32482
#
# Static dielectric constant tensor:
#      x y z
#    x 4.145860 0.000000 0.000000 
#    y 0.000000 3.569230 0.000000 
#    z 0.000000 0.000000 3.729820 
# 
# 
# High freq. dielectric constant tensor:
#      x y z
#    x 1.839570 0.000000 0.000000 
#    y 0.000000 1.812210 0.000000 
#    z 0.000000 0.000000 1.800170 
# 
# From -- ./inp_files/3169.got.cif
#   From: 2010.03.12/outbox.cif.g09.slc.cpg/sg63_2_cif.got.tgz:3169.got - 2010.04.10 19:34:48.
