data_PCOD8260768
_publ_section_title
;
Structure prediction by ZEFSAII (Michael W. Deem and Ramdas Pophale) SiO2 
 PCOD8260768
Probable space group: C M C M
;
_chemical_formula_sum "Si O2"
_cell_formula_units_Z 96
_cell_length_a 21.438891
_cell_length_b 25.465227
_cell_length_c 8.862891
_cell_angle_alpha 90.000000
_cell_angle_beta 90.000000
_cell_angle_gamma 90.000000
_cell_volume 4838.661892
_symmetry_space_group_name_H-M "C M C M"
_symmetry_group_IT_number 63
_symmetry_cell_setting 'orthorhombic'
loop_
_space_group_symop_operation_xyz
x,y,z
-x,-y,1/2+z
x,-y,-z
-x,y,1/2-z
-x,-y,-z
x,y,1/2-z
-x,y,z
x,-y,1/2+z
1/2+x,1/2+y,z
1/2-x,1/2-y,1/2+z
1/2+x,1/2-y,-z
1/2-x,1/2+y,1/2-z
1/2-x,1/2-y,-z
1/2+x,1/2+y,1/2-z
1/2-x,1/2+y,z
1/2+x,1/2-y,1/2+z
loop_
_atom_site_type_symbol
_atom_site_label
_atom_site_fract_x
_atom_site_fract_y
_atom_site_fract_z
Si Si1 0.700363 0.856822 0.420072
Si Si2 0.654003 0.647004 0.576408
Si Si3 0.376018 0.244488 0.573708
Si Si4 0.868054 0.551445 0.073862
Si Si5 0.500000 0.796226 0.928861
Si Si6 0.427445 0.444149 0.927076
Si Si7 0.000000 0.413916 0.570641
O O1 0.678167 0.869525 0.250000
O O2 0.773450 0.865991 0.434935
O O3 0.678067 0.798058 0.463757
O O4 0.669372 0.896536 0.535844
O O5 0.633435 0.655098 0.750000
O O6 0.646164 0.699387 0.481511
O O7 0.613867 0.600322 0.505110
O O8 0.390329 0.246949 0.750000
O O9 0.439151 0.232606 0.487045
O O10 0.866833 0.543382 0.250000
O O11 0.938643 0.556679 0.010727
O O12 0.837071 0.500000 0.000000
O O13 0.500000 0.794854 0.750000
O O14 0.500000 0.855038 0.994384
O O15 0.412160 0.446407 0.750000
O O16 0.500000 0.430798 0.955718
O O17 0.409942 0.500000 0.000000
O O18 0.000000 0.410833 0.750000
#
# Coordination Sequence:
#
# PCOD8260768 Si02
#       7
#    16  16  16  16   8  16   8
#     4  10  23  42  61  86 121 162 205 251 301 357
#     4  11  24  41  64  92 123 161 204 245 296 362
#     4  11  23  40  62  91 125 159 202 252 305 355
#     4  11  22  38  60  87 119 158 205 255 306 361
#     4  11  21  38  62  90 122 159 204 249 301 360
#     4  10  22  42  67  94 124 156 195 246 304 361
#     4   9  19  36  58  86 117 154 202 252 303 356
#
# _framework density 19.840195999999999
#
# number of rings (size 3 to 8) (size 9 to 14) (size 15 to 20)
#    0.000    1.500    1.667    3.000    1.167    3.667 
#    0.000    1.250    0.000    0.000    0.000    0.000 
#    0.000    0.000    0.000    0.000    0.000    0.000 
#
# Total GULP energy -595310.376863 kJ/mol
# GULP energy per Si atom -12402.299518 kJ/mol
# Density = 1.979504 g / cm^3
# Si number density = 19.840196 Si / 1000 Ang^3
#
#
#
# Elastic Constant Matrix: (Units=GPa)
#
#
# Indices 1 2 3 4 5 6 
#
# 1 89.5184 43.9683 44.3675 0.0000 0.0000 0.0000
# 2 43.9683 139.7303 54.1905 0.0000 0.0000 0.0000
# 3 44.3675 54.1905 101.8392 0.0000 0.0000 0.0000
# 4 0.0000 0.0000 0.0000 39.9007 0.0000 0.0000
# 5 0.0000 0.0000 0.0000 0.0000 19.2225 0.0000
# 6 0.0000 0.0000 0.0000 0.0000 0.0000 30.0370
#
#
#
# Elastic Compliance Matrix: (Units=1/GPa)
#
#
# Indices 1 2 3 4 5 6 
#
# 1 0.015049 -0.002763 -0.005086 0.000000 0.000000 0.000000
# 2 -0.002763 0.009525 -0.003865 0.000000 0.000000 0.000000
# 3 -0.005086 -0.003865 0.014092 0.000000 0.000000 0.000000
# 4 0.000000 0.000000 0.000000 0.025062 0.000000 0.000000
# 5 0.000000 0.000000 0.000000 0.000000 0.052022 0.000000
# 6 0.000000 0.000000 0.000000 0.000000 0.000000 0.033292
#
#
# Mechanical properties :
#
#
# Convention : Reuss Voigt Hill
#
# Bulk Modulus (GPa) = 65.62481 68.46005 67.04243
# Shear Modulus (GPa) = 28.16136 30.40281 29.28209
#
# Velocity S-wave (km/s) = 3.77159 3.91882 3.84591
# Velocity P-wave (km/s) = 7.21908 7.42003 7.32024
#
# Compressibility (1/GPa) = 0.01523814
#
# Stress axis : x y z
#
# Youngs Moduli (GPa) = 66.45129 104.98896 70.96415
#
# Poissons Ratio (x) = 0.29007 0.36092
# Poissons Ratio (y) = 0.18359 0.27425
# Poissons Ratio (z) = 0.33797 0.40575
#
# Static dielectric constant tensor:
#      x y z
#    x 3.659040 0.000000 0.000000 
#    y 0.000000 3.671300 0.000000 
#    z 0.000000 0.000000 3.672760 
# 
# 
# High freq. dielectric constant tensor:
#      x y z
#    x 1.776170 0.000000 0.000000 
#    y 0.000000 1.785440 0.000000 
#    z 0.000000 0.000000 1.780180 
# 
# From -- ./inp_files/10557.got.cif
#   From: 2010.03.12/outbox.cif.g09.slc.cpg/sg63_6_cif.got.tgz:10557.got - 2010.04.10 19:34:48.
