data_PCOD8260271
_publ_section_title
;
Structure prediction by ZEFSAII (Michael W. Deem and Ramdas Pophale) SiO2 
 PCOD8260271
Probable space group: C M C M
;
_chemical_formula_sum "Si O2"
_cell_formula_units_Z 64
_cell_length_a 27.350767
_cell_length_b 14.585202
_cell_length_c 8.403134
_cell_angle_alpha 90.000000
_cell_angle_beta 90.000000
_cell_angle_gamma 90.000000
_cell_volume 3352.148481
_symmetry_space_group_name_H-M "C M C M"
_symmetry_group_IT_number 63
_symmetry_cell_setting 'orthorhombic'
loop_
_space_group_symop_operation_xyz
x,y,z
-x,-y,1/2+z
x,-y,-z
-x,y,1/2-z
-x,-y,-z
x,y,1/2-z
-x,y,z
x,-y,1/2+z
1/2+x,1/2+y,z
1/2-x,1/2-y,1/2+z
1/2+x,1/2-y,-z
1/2-x,1/2+y,1/2-z
1/2-x,1/2-y,-z
1/2+x,1/2+y,1/2-z
1/2-x,1/2+y,z
1/2+x,1/2-y,1/2+z
loop_
_atom_site_type_symbol
_atom_site_label
_atom_site_fract_x
_atom_site_fract_y
_atom_site_fract_z
Si Si1 0.361030 0.280713 0.566118
Si Si2 0.672695 0.099799 0.436070
Si Si3 0.721821 0.596342 0.935124
Si Si4 0.556593 0.401404 0.436072
O O1 0.348776 0.296031 0.750000
O O2 0.361936 0.173264 0.523663
O O3 0.319168 0.327567 0.460218
O O4 0.413713 0.322475 0.525566
O O5 0.662820 0.104584 0.250000
O O6 0.729153 0.123468 0.471581
O O7 0.658404 0.000000 0.500000
O O8 0.734898 0.587596 0.750000
O O9 0.701092 0.500000 0.000000
O O10 0.573679 0.500000 0.500000
O O11 0.567780 0.396955 0.250000
O O12 0.500000 0.384396 0.475467
#
# Coordination Sequence:
#
# PCOD8260271 Si02
#       4
#    16  16  16  16
#     4  12  23  36  55  80 109 144 184 223 267 319
#     4  11  22  38  56  78 108 143 183 225 270 317
#     4  11  21  35  53  78 111 146 183 223 269 319
#     4  10  21  38  59  84 113 143 176 218 269 323
#
# _framework density 19.092233
#
# number of rings (size 3 to 8) (size 9 to 14) (size 15 to 20)
#    0.000    1.000    0.000   10.500    0.000    1.500 
#    0.000    0.000    0.000    0.750    0.000    0.000 
#    0.000    0.000    0.000    0.000    0.000    0.000 
#
# Total GULP energy -397047.313792 kJ/mol
# GULP energy per Si atom -12407.728556 kJ/mol
# Density = 1.904878 g / cm^3
# Si number density = 19.092233 Si / 1000 Ang^3
#
#
#
# Elastic Constant Matrix: (Units=GPa)
#
#
# Indices 1 2 3 4 5 6 
#
# 1 69.3483 60.9549 23.2515 0.0000 0.0000 0.0000
# 2 60.9549 127.6896 27.0488 0.0000 0.0000 0.0000
# 3 23.2515 27.0488 99.9316 0.0000 0.0000 0.0000
# 4 0.0000 0.0000 0.0000 35.0918 0.0000 0.0000
# 5 0.0000 0.0000 0.0000 0.0000 28.6341 0.0000
# 6 0.0000 0.0000 0.0000 0.0000 0.0000 21.0383
#
#
#
# Elastic Compliance Matrix: (Units=1/GPa)
#
#
# Indices 1 2 3 4 5 6 
#
# 1 0.025565 -0.011610 -0.002806 0.000000 0.000000 0.000000
# 2 -0.011610 0.013580 -0.000974 0.000000 0.000000 0.000000
# 3 -0.002806 -0.000974 0.010923 0.000000 0.000000 0.000000
# 4 0.000000 0.000000 0.000000 0.028497 0.000000 0.000000
# 5 0.000000 0.000000 0.000000 0.000000 0.034923 0.000000
# 6 0.000000 0.000000 0.000000 0.000000 0.000000 0.047532
#
#
# Mechanical properties :
#
#
# Convention : Reuss Voigt Hill
#
# Bulk Modulus (GPa) = 51.84415 57.72000 54.78208
# Shear Modulus (GPa) = 25.22311 29.33378 27.27845
#
# Velocity S-wave (km/s) = 3.63866 3.92398 3.78401
# Velocity P-wave (km/s) = 6.69826 7.12937 6.91718
#
# Compressibility (1/GPa) = 0.01928858
#
# Stress axis : x y z
#
# Youngs Moduli (GPa) = 39.11556 73.63772 91.54589
#
# Poissons Ratio (x) = 0.85491 0.25687
# Poissons Ratio (y) = 0.45412 0.08921
# Poissons Ratio (z) = 0.10976 0.07176
#
# Static dielectric constant tensor:
#      x y z
#    x 3.257540 0.000000 0.000000 
#    y 0.000000 3.688620 0.000000 
#    z 0.000000 0.000000 3.612330 
# 
# 
# High freq. dielectric constant tensor:
#      x y z
#    x 1.713730 0.000000 0.000000 
#    y 0.000000 1.746630 0.000000 
#    z 0.000000 0.000000 1.764810 
# 
# From -- ./inp_files/9616.got.cif
#   From: 2010.03.12/outbox.cif.g09.slc.cpg/sg63_5_cif.got.tgz:9616.got - 2010.04.10 19:34:48.
