data_PCOD8260891
_publ_section_title
;
Structure prediction by ZEFSAII (Michael W. Deem and Ramdas Pophale) SiO2 
 PCOD8260891
Probable space group: C M C M
;
_chemical_formula_sum "Si O2"
_cell_formula_units_Z 128
_cell_length_a 25.020990
_cell_length_b 12.562302
_cell_length_c 24.852613
_cell_angle_alpha 90.000000
_cell_angle_beta 90.000000
_cell_angle_gamma 90.000000
_cell_volume 7811.703954
_symmetry_space_group_name_H-M "C M C M"
_symmetry_group_IT_number 63
_symmetry_cell_setting 'orthorhombic'
loop_
_space_group_symop_operation_xyz
x,y,z
-x,-y,1/2+z
x,-y,-z
-x,y,1/2-z
-x,-y,-z
x,y,1/2-z
-x,y,z
x,-y,1/2+z
1/2+x,1/2+y,z
1/2-x,1/2-y,1/2+z
1/2+x,1/2-y,-z
1/2-x,1/2+y,1/2-z
1/2-x,1/2-y,-z
1/2+x,1/2+y,1/2-z
1/2-x,1/2+y,z
1/2+x,1/2-y,1/2+z
loop_
_atom_site_type_symbol
_atom_site_label
_atom_site_fract_x
_atom_site_fract_y
_atom_site_fract_z
Si Si1 0.060574 0.921359 0.187528
Si Si2 0.116920 0.871969 0.690287
Si Si3 0.223737 0.374203 0.869185
Si Si4 0.818787 0.881231 0.489774
Si Si5 0.293828 0.053669 0.950408
Si Si6 0.345836 0.685068 0.624248
Si Si7 0.827412 0.757820 0.900775
Si Si8 0.216266 0.028042 0.807935
O O1 0.073616 0.899176 0.250000
O O2 0.098920 0.845095 0.152819
O O3 0.000000 0.890954 0.172926
O O4 0.068311 0.047802 0.175541
O O5 0.108383 0.818769 0.750000
O O6 0.125483 0.785371 0.642501
O O7 0.167293 0.948334 0.692873
O O8 0.228577 0.450809 0.920183
O O9 0.168180 0.309559 0.864475
O O10 0.271307 0.288605 0.873825
O O11 0.231481 0.455406 0.819251
O O12 0.755627 0.878426 0.475560
O O13 0.851299 0.832697 0.439447
O O14 0.835097 0.815045 0.542213
O O15 0.839326 0.000000 0.500000
O O16 0.329277 0.130730 0.912760
O O17 0.327060 0.000000 0.000000
O O18 0.295580 0.616053 0.646814
O O19 0.223787 0.084452 0.750000
#
# Coordination Sequence:
#
# PCOD8260891 Si02
#       8
#    16  16  16  16  16  16  16  16
#     4   9  18  34  54  74  94 120 161 212 258 305
#     4   8  16  30  49  69  90 119 157 197 244 301
#     4  11  18  28  40  63  92 127 166 200 230 279
#     4  11  17  27  44  66  96 131 167 199 226 279
#     4  11  19  28  40  63  94 133 170 199 222 269
#     4  11  19  29  46  66  95 127 162 198 246 289
#     4  11  18  29  46  67  99 138 169 197 241 283
#     4   9  17  28  39  57  87 122 156 189 229 286
#
# _framework density 16.385670000000001
#
# number of rings (size 3 to 8) (size 9 to 14) (size 15 to 20)
#    0.000    1.875    5.000    3.750    0.000    1.000 
#    0.000    3.125    0.000    3.375    0.000    0.875 
#    0.000    4.000    0.000    0.000    0.000    0.000 
#
# Total GULP energy -792886.151169 kJ/mol
# GULP energy per Si atom -12388.846112 kJ/mol
# Density = 1.634838 g / cm^3
# Si number density = 16.385670 Si / 1000 Ang^3
#
#
#
# Elastic Constant Matrix: (Units=GPa)
#
#
# Indices 1 2 3 4 5 6 
#
# 1 55.2753 24.7263 28.7261 0.0000 0.0000 0.0000
# 2 24.7263 59.9964 22.4826 0.0000 0.0000 0.0000
# 3 28.7261 22.4826 97.5248 0.0000 0.0000 0.0000
# 4 0.0000 0.0000 0.0000 19.2236 0.0000 0.0000
# 5 0.0000 0.0000 0.0000 0.0000 14.2360 0.0000
# 6 0.0000 0.0000 0.0000 0.0000 0.0000 15.4058
#
#
#
# Elastic Compliance Matrix: (Units=1/GPa)
#
#
# Indices 1 2 3 4 5 6 
#
# 1 0.024489 -0.008088 -0.005349 0.000000 0.000000 0.000000
# 2 -0.008088 0.020915 -0.002439 0.000000 0.000000 0.000000
# 3 -0.005349 -0.002439 0.012392 0.000000 0.000000 0.000000
# 4 0.000000 0.000000 0.000000 0.052019 0.000000 0.000000
# 5 0.000000 0.000000 0.000000 0.000000 0.070244 0.000000
# 6 0.000000 0.000000 0.000000 0.000000 0.000000 0.064911
#
#
# Mechanical properties :
#
#
# Convention : Reuss Voigt Hill
#
# Bulk Modulus (GPa) = 38.39746 40.51850 39.45798
# Shear Modulus (GPa) = 17.51904 18.89719 18.20812
#
# Velocity S-wave (km/s) = 3.27336 3.39968 3.33712
# Velocity P-wave (km/s) = 6.14581 6.33972 6.24352
#
# Compressibility (1/GPa) = 0.02604339
#
# Stress axis : x y z
#
# Youngs Moduli (GPa) = 40.83453 47.81221 80.70005
#
# Poissons Ratio (x) = 0.38672 0.43164
# Poissons Ratio (y) = 0.33028 0.19684
# Poissons Ratio (z) = 0.21841 0.11662
#
# Static dielectric constant tensor:
#      x y z
#    x 2.676370 0.000000 0.000000 
#    y 0.000000 3.131340 0.000000 
#    z 0.000000 0.000000 3.525730 
# 
# 
# High freq. dielectric constant tensor:
#      x y z
#    x 1.554460 0.000000 0.000000 
#    y 0.000000 1.619290 0.000000 
#    z 0.000000 0.000000 1.649590 
# 
# From -- ./inp_files/65583.got.cif
#   From: 2010.03.12/outbox.cif.g09.slc.cpg/sg63_33_cif.got.tgz:65583.got - 2010.04.10 19:34:48.
