data_PCOD8260877
_publ_section_title
;
Structure prediction by ZEFSAII (Michael W. Deem and Ramdas Pophale) SiO2 
 PCOD8260877
Probable space group: C M C M
;
_chemical_formula_sum "Si O2"
_cell_formula_units_Z 48
_cell_length_a 12.470959
_cell_length_b 8.563819
_cell_length_c 20.686921
_cell_angle_alpha 90.000000
_cell_angle_beta 90.000000
_cell_angle_gamma 90.000000
_cell_volume 2209.343213
_symmetry_space_group_name_H-M "C M C M"
_symmetry_group_IT_number 63
_symmetry_cell_setting 'orthorhombic'
loop_
_space_group_symop_operation_xyz
x,y,z
-x,-y,1/2+z
x,-y,-z
-x,y,1/2-z
-x,-y,-z
x,y,1/2-z
-x,y,z
x,-y,1/2+z
1/2+x,1/2+y,z
1/2-x,1/2-y,1/2+z
1/2+x,1/2-y,-z
1/2-x,1/2+y,1/2-z
1/2-x,1/2-y,-z
1/2+x,1/2+y,1/2-z
1/2-x,1/2+y,z
1/2+x,1/2-y,1/2+z
loop_
_atom_site_type_symbol
_atom_site_label
_atom_site_fract_x
_atom_site_fract_y
_atom_site_fract_z
Si Si1 0.118808 0.895048 0.138866
Si Si2 0.500000 0.236035 0.461089
Si Si3 0.324411 0.268151 0.823606
Si Si4 0.500000 0.893044 0.401877
O O1 0.200959 0.784922 0.177105
O O2 0.000000 0.887267 0.172232
O O3 0.105411 0.830398 0.064905
O O4 0.161808 0.071013 0.137829
O O5 0.500000 0.228219 0.538028
O O6 0.500000 0.067027 0.427579
O O7 0.363004 0.290711 0.750000
O O8 0.394944 0.135911 0.858654
#
# Coordination Sequence:
#
# PCOD8260877 Si02
#       4
#    16   8  16   8
#     4  10  24  45  66  98 133 173 221 271 329 387
#     4   9  23  44  65  99 131 175 222 279 328 382
#     4  12  24  41  69  99 134 177 217 272 333 395
#     4  11  22  42  71  99 132 173 230 267 332 400
#
# _framework density 21.725915000000001
#
# number of rings (size 3 to 8) (size 9 to 14) (size 15 to 20)
#    1.000    0.333    1.667    3.500    0.000    6.000 
#    0.000    5.000    0.000    0.000    0.000    0.000 
#    0.000    0.000    0.000    0.000    0.000    0.000 
#
# Total GULP energy -297448.976474 kJ/mol
# GULP energy per Si atom -12393.707353 kJ/mol
# Density = 2.167647 g / cm^3
# Si number density = 21.725915 Si / 1000 Ang^3
#
#
#
# Elastic Constant Matrix: (Units=GPa)
#
#
# Indices 1 2 3 4 5 6 
#
# 1 144.7720 58.2320 26.6485 0.0000 0.0000 0.0000
# 2 58.2320 102.2394 13.8867 0.0000 0.0000 0.0000
# 3 26.6485 13.8867 70.7528 0.0000 0.0000 0.0000
# 4 0.0000 0.0000 0.0000 21.8931 0.0000 0.0000
# 5 0.0000 0.0000 0.0000 0.0000 21.1717 0.0000
# 6 0.0000 0.0000 0.0000 0.0000 0.0000 34.9265
#
#
#
# Elastic Compliance Matrix: (Units=1/GPa)
#
#
# Indices 1 2 3 4 5 6 
#
# 1 0.009389 -0.005001 -0.002555 0.000000 0.000000 0.000000
# 2 -0.005001 0.012712 -0.000612 0.000000 0.000000 0.000000
# 3 -0.002555 -0.000612 0.015216 0.000000 0.000000 0.000000
# 4 0.000000 0.000000 0.000000 0.045677 0.000000 0.000000
# 5 0.000000 0.000000 0.000000 0.000000 0.047233 0.000000
# 6 0.000000 0.000000 0.000000 0.000000 0.000000 0.028632
#
#
# Mechanical properties :
#
#
# Convention : Reuss Voigt Hill
#
# Bulk Modulus (GPa) = 47.65727 57.25540 52.45633
# Shear Modulus (GPa) = 27.44432 30.19805 28.82118
#
# Velocity S-wave (km/s) = 3.55802 3.73225 3.64618
# Velocity P-wave (km/s) = 6.23399 6.70699 6.47481
#
# Compressibility (1/GPa) = 0.02098316
#
# Stress axis : x y z
#
# Youngs Moduli (GPa) = 106.50609 78.66426 65.72022
#
# Poissons Ratio (x) = 0.39338 0.16791
# Poissons Ratio (y) = 0.53261 0.04019
# Poissons Ratio (z) = 0.27211 0.04811
#
# Static dielectric constant tensor:
#      x y z
#    x 3.905990 0.000000 0.000000 
#    y 0.000000 3.870870 0.000000 
#    z 0.000000 0.000000 3.749340 
# 
# 
# High freq. dielectric constant tensor:
#      x y z
#    x 1.851250 0.000000 0.000000 
#    y 0.000000 1.865510 0.000000 
#    z 0.000000 0.000000 1.836950 
# 
# From -- ./inp_files/60728.got.cif
#   From: 2010.03.12/outbox.cif.g09.slc.cpg/sg63_31_cif.got.tgz:60728.got - 2010.04.10 19:34:48.
