data_PCOD8260189
_publ_section_title
;
Structure prediction by ZEFSAII (Michael W. Deem and Ramdas Pophale) SiO2 
 PCOD8260189
Probable space group: C M C M
;
_chemical_formula_sum "Si O2"
_cell_formula_units_Z 96
_cell_length_a 23.356224
_cell_length_b 11.722658
_cell_length_c 17.479980
_cell_angle_alpha 90.000000
_cell_angle_beta 90.000000
_cell_angle_gamma 90.000000
_cell_volume 4785.966541
_symmetry_space_group_name_H-M "C M C M"
_symmetry_group_IT_number 63
_symmetry_cell_setting 'orthorhombic'
loop_
_space_group_symop_operation_xyz
x,y,z
-x,-y,1/2+z
x,-y,-z
-x,y,1/2-z
-x,-y,-z
x,y,1/2-z
-x,y,z
x,-y,1/2+z
1/2+x,1/2+y,z
1/2-x,1/2-y,1/2+z
1/2+x,1/2-y,-z
1/2-x,1/2+y,1/2-z
1/2-x,1/2-y,-z
1/2+x,1/2+y,1/2-z
1/2-x,1/2+y,z
1/2+x,1/2-y,1/2+z
loop_
_atom_site_type_symbol
_atom_site_label
_atom_site_fract_x
_atom_site_fract_y
_atom_site_fract_z
Si Si1 0.935087 0.772888 0.835528
Si Si2 0.934178 0.783496 0.341251
Si Si3 0.725398 0.330010 0.838808
Si Si4 0.342274 0.147769 0.576985
Si Si5 0.344929 0.884792 0.900986
Si Si6 0.370469 0.503377 0.335915
O O1 0.920073 0.727525 0.750000
O O2 0.901304 0.707114 0.900739
O O3 0.000000 0.751764 0.856078
O O4 0.922283 0.907107 0.839112
O O5 0.935053 0.788226 0.250000
O O6 0.904292 0.667364 0.369890
O O7 0.895319 0.888342 0.375697
O O8 0.000000 0.788407 0.371614
O O9 0.709090 0.314561 0.750000
O O10 0.709837 0.212680 0.881765
O O11 0.792538 0.346643 0.847790
O O12 0.686987 0.436862 0.872276
O O13 0.332664 0.155848 0.486764
O O14 0.347825 0.019708 0.605946
O O15 0.354027 0.468851 0.250000
#
# Coordination Sequence:
#
# PCOD8260189 Si02
#       6
#    16  16  16  16  16  16
#     4   9  17  33  60  87 110 145 196 247 287 335
#     4  10  21  37  58  87 122 157 195 239 293 355
#     4  10  21  38  63  88 111 145 196 250 295 346
#     4  10  23  41  56  81 117 154 195 237 292 352
#     4  11  24  39  57  82 117 158 196 235 295 355
#     4   8  16  33  57  87 115 143 184 241 299 341
#
# _framework density 20.058644999999999
#
# number of rings (size 3 to 8) (size 9 to 14) (size 15 to 20)
#    0.000    2.333    0.000    3.000    2.333    6.000 
#    0.000    5.833    0.000    5.000    0.000    0.000 
#    0.000    0.000    0.000    0.000    0.000    0.000 
#
# Total GULP energy -594961.626101 kJ/mol
# GULP energy per Si atom -12395.033877 kJ/mol
# Density = 2.001299 g / cm^3
# Si number density = 20.058645 Si / 1000 Ang^3
#
#
#
# Elastic Constant Matrix: (Units=GPa)
#
#
# Indices 1 2 3 4 5 6 
#
# 1 108.8500 43.1771 14.9825 0.0000 0.0000 0.0000
# 2 43.1771 100.7352 25.5622 0.0000 0.0000 0.0000
# 3 14.9825 25.5622 29.5295 0.0000 0.0000 0.0000
# 4 0.0000 0.0000 0.0000 27.3609 0.0000 0.0000
# 5 0.0000 0.0000 0.0000 0.0000 22.9400 0.0000
# 6 0.0000 0.0000 0.0000 0.0000 0.0000 19.1632
#
#
#
# Elastic Compliance Matrix: (Units=1/GPa)
#
#
# Indices 1 2 3 4 5 6 
#
# 1 0.011156 -0.004287 -0.001949 0.000000 0.000000 0.000000
# 2 -0.004287 0.014369 -0.010263 0.000000 0.000000 0.000000
# 3 -0.001949 -0.010263 0.043738 0.000000 0.000000 0.000000
# 4 0.000000 0.000000 0.000000 0.036549 0.000000 0.000000
# 5 0.000000 0.000000 0.000000 0.000000 0.043592 0.000000
# 6 0.000000 0.000000 0.000000 0.000000 0.000000 0.052183
#
#
# Mechanical properties :
#
#
# Convention : Reuss Voigt Hill
#
# Bulk Modulus (GPa) = 27.57584 45.17314 36.37449
# Shear Modulus (GPa) = 20.26976 24.25234 22.26105
#
# Velocity S-wave (km/s) = 3.18232 3.48094 3.33498
# Velocity P-wave (km/s) = 5.22306 6.22297 5.74481
#
# Compressibility (1/GPa) = 0.03626363
#
# Stress axis : x y z
#
# Youngs Moduli (GPa) = 89.64000 69.59489 22.86353
#
# Poissons Ratio (x) = 0.29835 0.04456
# Poissons Ratio (y) = 0.38428 0.23466
# Poissons Ratio (z) = 0.17472 0.71427
#
# Static dielectric constant tensor:
#      x y z
#    x 3.701230 0.000000 0.000000 
#    y 0.000000 3.722860 0.000000 
#    z 0.000000 0.000000 3.391280 
# 
# 
# High freq. dielectric constant tensor:
#      x y z
#    x 1.789570 0.000000 0.000000 
#    y 0.000000 1.784130 0.000000 
#    z 0.000000 0.000000 1.757120 
# 
# From -- ./inp_files/47983.got.cif
#   From: 2010.03.12/outbox.cif.g09.slc.cpg/sg63_24_cif.got.tgz:47983.got - 2010.04.10 19:34:48.
