data_PCOD8260199
_publ_section_title
;
Structure prediction by ZEFSAII (Michael W. Deem and Ramdas Pophale) SiO2 
 PCOD8260199
Probable space group: C M C M
;
_chemical_formula_sum "Si O2"
_cell_formula_units_Z 96
_cell_length_a 18.519897
_cell_length_b 30.660471
_cell_length_c 8.713643
_cell_angle_alpha 90.000000
_cell_angle_beta 90.000000
_cell_angle_gamma 90.000000
_cell_volume 4947.857142
_symmetry_space_group_name_H-M "C M C M"
_symmetry_group_IT_number 63
_symmetry_cell_setting 'orthorhombic'
loop_
_space_group_symop_operation_xyz
x,y,z
-x,-y,1/2+z
x,-y,-z
-x,y,1/2-z
-x,-y,-z
x,y,1/2-z
-x,y,z
x,-y,1/2+z
1/2+x,1/2+y,z
1/2-x,1/2-y,1/2+z
1/2+x,1/2-y,-z
1/2-x,1/2+y,1/2-z
1/2-x,1/2-y,-z
1/2+x,1/2+y,1/2-z
1/2-x,1/2+y,z
1/2+x,1/2-y,1/2+z
loop_
_atom_site_type_symbol
_atom_site_label
_atom_site_fract_x
_atom_site_fract_y
_atom_site_fract_z
Si Si1 0.918241 0.045531 0.930736
Si Si2 0.584128 0.798854 0.927283
Si Si3 0.583208 0.291511 0.572920
Si Si4 0.081523 0.455206 0.431135
Si Si5 0.175267 0.626485 0.569825
Si Si6 0.669294 0.623778 0.069952
O O1 0.914394 0.041647 0.750000
O O2 0.000000 0.055571 0.986701
O O3 0.865163 0.083118 0.984273
O O4 0.890761 0.000000 0.000000
O O5 0.603121 0.807210 0.750000
O O6 0.500000 0.806641 0.961724
O O7 0.605967 0.749644 0.970325
O O8 0.628678 0.830858 0.035319
O O9 0.598844 0.280189 0.750000
O O10 0.500000 0.303915 0.547112
O O11 0.629879 0.332246 0.515241
O O12 0.113047 0.500000 0.500000
O O13 0.082442 0.458889 0.250000
O O14 0.130884 0.415560 0.487522
O O15 0.000000 0.447194 0.491790
O O16 0.192624 0.624358 0.750000
O O17 0.247604 0.628000 0.472455
O O18 0.659501 0.616760 0.250000
#
# Coordination Sequence:
#
# PCOD8260199 Si02
#       6
#    16  16  16  16  16  16
#     4  10  21  38  61  87 114 147 189 235 282 334
#     4  10  21  37  59  86 112 141 183 234 283 332
#     4   9  19  37  60  83 108 143 185 228 278 335
#     4   9  19  36  58  82 106 137 179 225 272 323
#     4  11  23  38  56  80 114 153 189 226 275 337
#     4  11  23  38  57  83 116 151 188 232 282 335
#
# _framework density 19.402338
#
# number of rings (size 3 to 8) (size 9 to 14) (size 15 to 20)
#    0.000    2.000    0.000    3.000    0.000    7.333 
#    0.000    5.000    0.000    0.000    0.000    0.000 
#    0.000    0.000    0.000    0.000    0.000    0.000 
#
# Total GULP energy -595446.271622 kJ/mol
# GULP energy per Si atom -12405.130659 kJ/mol
# Density = 1.935818 g / cm^3
# Si number density = 19.402338 Si / 1000 Ang^3
#
#
#
# Elastic Constant Matrix: (Units=GPa)
#
#
# Indices 1 2 3 4 5 6 
#
# 1 87.3176 67.0988 18.7451 0.0000 0.0000 0.0000
# 2 67.0988 138.5890 27.4154 0.0000 0.0000 0.0000
# 3 18.7451 27.4154 42.9405 0.0000 0.0000 0.0000
# 4 0.0000 0.0000 0.0000 35.1709 0.0000 0.0000
# 5 0.0000 0.0000 0.0000 0.0000 32.1570 0.0000
# 6 0.0000 0.0000 0.0000 0.0000 0.0000 -34.2042
#
#
#
# Elastic Compliance Matrix: (Units=1/GPa)
#
#
# Indices 1 2 3 4 5 6 
#
# 1 0.018507 -0.008426 -0.002699 0.000000 0.000000 0.000000
# 2 -0.008426 0.012095 -0.004044 0.000000 0.000000 0.000000
# 3 -0.002699 -0.004044 0.027048 0.000000 0.000000 0.000000
# 4 0.000000 0.000000 0.000000 0.028433 0.000000 0.000000
# 5 0.000000 0.000000 0.000000 0.000000 0.031097 0.000000
# 6 0.000000 0.000000 0.000000 0.000000 0.000000 -0.029236
#
#
# Mechanical properties :
#
#
# Convention : Reuss Voigt Hill
#
# Bulk Modulus (GPa) = 36.61435 55.04063 45.82749
# Shear Modulus (GPa) = 39.25051 16.99727 28.12389
#
# Velocity S-wave (km/s) = 4.50263 2.96301 3.81137
# Velocity P-wave (km/s) = 6.77818 6.33526 6.56046
#
# Compressibility (1/GPa) = 0.02731170
#
# Stress axis : x y z
#
# Youngs Moduli (GPa) = 54.03321 82.67736 36.97119
#
# Poissons Ratio (x) = 0.69667 0.09979
# Poissons Ratio (y) = 0.45531 0.14950
# Poissons Ratio (z) = 0.14585 0.33433
#
# Static dielectric constant tensor:
#      x y z
#    x 3.592940 0.000000 0.000000 
#    y 0.000000 3.645690 0.000000 
#    z 0.000000 0.000000 3.493090 
# 
# 
# High freq. dielectric constant tensor:
#      x y z
#    x 1.751170 0.000000 0.000000 
#    y 0.000000 1.767830 0.000000 
#    z 0.000000 0.000000 1.757940 
# 
# From -- ./inp_files/8516.got.cif
#   From: 2010.03.12/outbox.cif.g09.slc.cpg/sg63_5_cif.got.tgz:8516.got - 2010.04.10 19:34:48.
