data_PCOD8260146
_publ_section_title
;
Structure prediction by ZEFSAII (Michael W. Deem and Ramdas Pophale) SiO2 
 PCOD8260146
Probable space group: C M C M
;
_chemical_formula_sum "Si O2"
_cell_formula_units_Z 80
_cell_length_a 28.707763
_cell_length_b 9.938180
_cell_length_c 14.847805
_cell_angle_alpha 90.000000
_cell_angle_beta 90.000000
_cell_angle_gamma 90.000000
_cell_volume 4236.122064
_symmetry_space_group_name_H-M "C M C M"
_symmetry_group_IT_number 63
_symmetry_cell_setting 'orthorhombic'
loop_
_space_group_symop_operation_xyz
x,y,z
-x,-y,1/2+z
x,-y,-z
-x,y,1/2-z
-x,-y,-z
x,y,1/2-z
-x,y,z
x,-y,1/2+z
1/2+x,1/2+y,z
1/2-x,1/2-y,1/2+z
1/2+x,1/2-y,-z
1/2-x,1/2+y,1/2-z
1/2-x,1/2-y,-z
1/2+x,1/2+y,1/2-z
1/2-x,1/2+y,z
1/2+x,1/2-y,1/2+z
loop_
_atom_site_type_symbol
_atom_site_label
_atom_site_fract_x
_atom_site_fract_y
_atom_site_fract_z
Si Si1 0.552007 0.140682 0.549365
Si Si2 0.380346 0.652203 0.510591
Si Si3 0.360383 0.179295 0.852279
Si Si4 0.799093 0.191395 0.642320
Si Si5 0.277898 0.987724 0.855363
O O1 0.500000 0.183382 0.579456
O O2 0.573620 0.253736 0.481858
O O3 0.585926 0.129508 0.636647
O O4 0.550564 0.000000 0.500000
O O5 0.397142 0.500000 0.500000
O O6 0.351084 0.696173 0.420572
O O7 0.349664 0.669653 0.599762
O O8 0.350818 0.226961 0.750000
O O9 0.326871 0.056882 0.880839
O O10 0.804792 0.190126 0.750000
O O11 0.764763 0.075126 0.604511
O O12 0.778077 0.334892 0.608944
O O13 0.270767 0.987811 0.750000
#
# Coordination Sequence:
#
# PCOD8260146 Si02
#       5
#    16  16  16  16  16
#     4   9  19  37  61  85 112 144 185 235 285 336
#     4  10  23  37  54  87 109 153 190 229 287 334
#     4   9  20  37  57  82 114 147 187 232 278 335
#     4  10  21  37  57  81 114 151 189 235 285 337
#     4   9  19  34  55  81 111 147 183 230 281 328
#
# _framework density 18.885196000000001
#
# number of rings (size 3 to 8) (size 9 to 14) (size 15 to 20)
#    1.200    1.400    0.000    1.200    2.800    2.400 
#    0.000    0.000    0.000    1.800    0.000    0.000 
#    0.000    0.000    0.000    0.000    0.000    0.000 
#
# Total GULP energy -495631.610554 kJ/mol
# GULP energy per Si atom -12390.790264 kJ/mol
# Density = 1.884221 g / cm^3
# Si number density = 18.885196 Si / 1000 Ang^3
#
#
#
# Elastic Constant Matrix: (Units=GPa)
#
#
# Indices 1 2 3 4 5 6 
#
# 1 108.1603 35.3879 16.2693 0.0000 0.0000 0.0000
# 2 35.3879 132.8878 16.7670 0.0000 0.0000 0.0000
# 3 16.2693 16.7670 50.7408 0.0000 0.0000 0.0000
# 4 0.0000 0.0000 0.0000 21.7973 0.0000 0.0000
# 5 0.0000 0.0000 0.0000 0.0000 26.2361 0.0000
# 6 0.0000 0.0000 0.0000 0.0000 0.0000 -6.3459
#
#
#
# Elastic Compliance Matrix: (Units=1/GPa)
#
#
# Indices 1 2 3 4 5 6 
#
# 1 0.010431 -0.002458 -0.002532 0.000000 0.000000 0.000000
# 2 -0.002458 0.008432 -0.001998 0.000000 0.000000 0.000000
# 3 -0.002532 -0.001998 0.021180 0.000000 0.000000 0.000000
# 4 0.000000 0.000000 0.000000 0.045877 0.000000 0.000000
# 5 0.000000 0.000000 0.000000 0.000000 0.038115 0.000000
# 6 0.000000 0.000000 0.000000 0.000000 0.000000 -0.157582
#
#
# Mechanical properties :
#
#
# Convention : Reuss Voigt Hill
#
# Bulk Modulus (GPa) = 38.36435 47.62638 42.99536
# Shear Modulus (GPa) = -459.49987 23.22846 -218.13570
#
# Velocity S-wave (km/s) = -15.61539 3.51092 -10.75904
# Velocity P-wave (km/s) = 17.45743 6.45825 11.46850
#
# Compressibility (1/GPa) = 0.02606587
#
# Stress axis : x y z
#
# Youngs Moduli (GPa) = 95.87095 118.59765 47.21395
#
# Poissons Ratio (x) = 0.29154 0.11955
# Poissons Ratio (y) = 0.23567 0.09434
# Poissons Ratio (z) = 0.24276 0.23697
#
# Static dielectric constant tensor:
#      x y z
#    x 3.478030 0.000000 0.000000 
#    y 0.000000 3.654370 0.000000 
#    z 0.000000 0.000000 3.157010 
# 
# 
# High freq. dielectric constant tensor:
#      x y z
#    x 1.722940 0.000000 0.000000 
#    y 0.000000 1.740320 0.000000 
#    z 0.000000 0.000000 1.712540 
# 
# From -- ./inp_files/49407.got.cif
#   From: 2010.03.12/outbox.cif.g09.slc.cpg/sg63_25_cif.got.tgz:49407.got - 2010.04.10 19:34:48.
