data_PCOD8260837
_publ_section_title
;
Structure prediction by ZEFSAII (Michael W. Deem and Ramdas Pophale) SiO2 
 PCOD8260837
Probable space group: C M C M
;
_chemical_formula_sum "Si O2"
_cell_formula_units_Z 96
_cell_length_a 9.021285
_cell_length_b 26.864925
_cell_length_c 18.729376
_cell_angle_alpha 90.000000
_cell_angle_beta 90.000000
_cell_angle_gamma 90.000000
_cell_volume 4539.179364
_symmetry_space_group_name_H-M "C M C M"
_symmetry_group_IT_number 63
_symmetry_cell_setting 'orthorhombic'
loop_
_space_group_symop_operation_xyz
x,y,z
-x,-y,1/2+z
x,-y,-z
-x,y,1/2-z
-x,-y,-z
x,y,1/2-z
-x,y,z
x,-y,1/2+z
1/2+x,1/2+y,z
1/2-x,1/2-y,1/2+z
1/2+x,1/2-y,-z
1/2-x,1/2+y,1/2-z
1/2-x,1/2-y,-z
1/2+x,1/2+y,1/2-z
1/2-x,1/2+y,z
1/2+x,1/2-y,1/2+z
loop_
_atom_site_type_symbol
_atom_site_label
_atom_site_fract_x
_atom_site_fract_y
_atom_site_fract_z
Si Si1 0.674334 0.146613 0.830043
Si Si2 0.829868 0.037499 0.168161
Si Si3 0.828883 0.297475 0.533976
Si Si4 0.824815 0.450324 0.085863
Si Si5 0.831383 0.756661 0.329275
Si Si6 0.171493 0.099537 0.035330
O O1 0.736766 0.140161 0.750000
O O2 0.500000 0.151053 0.830181
O O3 0.726898 0.099937 0.875279
O O4 0.738997 0.197481 0.863077
O O5 0.782624 0.049293 0.250000
O O6 0.809184 0.086862 0.119455
O O7 0.000000 0.019469 0.164850
O O8 0.726656 0.994948 0.135898
O O9 0.750000 0.250000 0.500000
O O10 0.815282 0.291070 0.619735
O O11 0.752468 0.349335 0.514122
O O12 0.000000 0.299787 0.508848
O O13 0.000000 0.454666 0.074101
O O14 0.744803 0.446728 0.008619
O O15 0.772948 0.742253 0.250000
O O16 0.000000 0.774815 0.326021
O O17 0.000000 0.104463 0.014447
#
# Coordination Sequence:
#
# PCOD8260837 Si02
#       6
#    16  16  16  16  16  16
#     4   9  18  32  51  79 114 149 187 234 287 342
#     4  10  23  43  64  87 118 157 199 242 292 351
#     4  11  23  39  60  86 117 154 196 243 295 352
#     4  11  22  37  60  89 120 154 195 244 298 355
#     4   9  19  35  54  78 109 146 189 236 287 344
#     4  11  24  41  61  86 118 155 196 244 296 352
#
# _framework density 21.149197999999998
#
# number of rings (size 3 to 8) (size 9 to 14) (size 15 to 20)
#    0.000    1.833    0.000    3.500    0.000   10.333 
#    0.000    1.667    0.000    0.000    0.000    0.000 
#    0.000    0.000    0.000    0.000    0.000    0.000 
#
# Total GULP energy -595191.631614 kJ/mol
# GULP energy per Si atom -12399.825659 kJ/mol
# Density = 2.110106 g / cm^3
# Si number density = 21.149198 Si / 1000 Ang^3
#
#
#
# Elastic Constant Matrix: (Units=GPa)
#
#
# Indices 1 2 3 4 5 6 
#
# 1 99.4675 43.9377 38.3229 0.0000 0.0000 0.0000
# 2 43.9377 80.8917 30.9346 0.0000 0.0000 0.0000
# 3 38.3229 30.9346 95.8568 0.0000 0.0000 0.0000
# 4 0.0000 0.0000 0.0000 31.1489 0.0000 0.0000
# 5 0.0000 0.0000 0.0000 0.0000 28.2936 0.0000
# 6 0.0000 0.0000 0.0000 0.0000 0.0000 35.3859
#
#
#
# Elastic Compliance Matrix: (Units=1/GPa)
#
#
# Indices 1 2 3 4 5 6 
#
# 1 0.014267 -0.006352 -0.003654 0.000000 0.000000 0.000000
# 2 -0.006352 0.016931 -0.002924 0.000000 0.000000 0.000000
# 3 -0.003654 -0.002924 0.012837 0.000000 0.000000 0.000000
# 4 0.000000 0.000000 0.000000 0.032104 0.000000 0.000000
# 5 0.000000 0.000000 0.000000 0.000000 0.035344 0.000000
# 6 0.000000 0.000000 0.000000 0.000000 0.000000 0.028260
#
#
# Mechanical properties :
#
#
# Convention : Reuss Voigt Hill
#
# Bulk Modulus (GPa) = 55.02384 55.84514 55.43449
# Shear Modulus (GPa) = 29.12714 29.83373 29.48043
#
# Velocity S-wave (km/s) = 3.71512 3.75991 3.73758
# Velocity P-wave (km/s) = 6.66905 6.73141 6.70031
#
# Compressibility (1/GPa) = 0.01817394
#
# Stress axis : x y z
#
# Youngs Moduli (GPa) = 70.09042 59.06395 77.90099
#
# Poissons Ratio (x) = 0.37518 0.28465
# Poissons Ratio (y) = 0.44522 0.22781
# Poissons Ratio (z) = 0.25611 0.17272
#
# Static dielectric constant tensor:
#      x y z
#    x 3.738590 0.000000 0.000000 
#    y 0.000000 3.639460 0.000000 
#    z 0.000000 0.000000 4.302120 
# 
# 
# High freq. dielectric constant tensor:
#      x y z
#    x 1.827010 0.000000 0.000000 
#    y 0.000000 1.816460 0.000000 
#    z 0.000000 0.000000 1.849030 
# 
# From -- ./inp_files/51403.got.cif
#   From: 2010.03.12/outbox.cif.g09.slc.cpg/sg63_26_cif.got.tgz:51403.got - 2010.04.10 19:34:48.
