data_PCOD8260908
_publ_section_title
;
Structure prediction by ZEFSAII (Michael W. Deem and Ramdas Pophale) SiO2 
 PCOD8260908
Probable space group: C M C M
;
_chemical_formula_sum "Si O2"
_cell_formula_units_Z 80
_cell_length_a 19.651023
_cell_length_b 13.300306
_cell_length_c 18.070379
_cell_angle_alpha 90.000000
_cell_angle_beta 90.000000
_cell_angle_gamma 90.000000
_cell_volume 4722.957725
_symmetry_space_group_name_H-M "C M C M"
_symmetry_group_IT_number 63
_symmetry_cell_setting 'orthorhombic'
loop_
_space_group_symop_operation_xyz
x,y,z
-x,-y,1/2+z
x,-y,-z
-x,y,1/2-z
-x,-y,-z
x,y,1/2-z
-x,y,z
x,-y,1/2+z
1/2+x,1/2+y,z
1/2-x,1/2-y,1/2+z
1/2+x,1/2-y,-z
1/2-x,1/2+y,1/2-z
1/2-x,1/2-y,-z
1/2+x,1/2+y,1/2-z
1/2-x,1/2+y,z
1/2+x,1/2-y,1/2+z
loop_
_atom_site_type_symbol
_atom_site_label
_atom_site_fract_x
_atom_site_fract_y
_atom_site_fract_z
Si Si1 0.921936 0.888245 0.522984
Si Si2 0.294031 0.101029 0.166427
Si Si3 0.191750 0.772111 0.440396
Si Si4 0.714097 0.876346 0.165146
Si Si5 0.142914 0.174091 0.332625
O O1 0.876483 0.809101 0.478795
O O2 0.911328 0.871831 0.610645
O O3 0.000000 0.867768 0.502541
O O4 0.900042 0.000000 0.500000
O O5 0.317259 0.129336 0.250000
O O6 0.329192 0.172881 0.106195
O O7 0.212901 0.112829 0.159497
O O8 0.315314 0.986696 0.147356
O O9 0.250000 0.750000 0.500000
O O10 0.219535 0.856779 0.384559
O O11 0.738512 0.869575 0.250000
O O12 0.656670 0.792102 0.149399
O O13 0.112864 0.162222 0.250000
#
# Coordination Sequence:
#
# PCOD8260908 Si02
#       5
#    16  16  16  16  16
#     4  11  23  37  51  75 111 142 171 213 259 309
#     4   9  17  30  51  79 105 129 167 219 266 306
#     4  11  19  30  52  78 105 138 170 215 260 307
#     4   9  17  30  52  80 105 129 169 221 265 304
#     4   9  17  33  52  75 102 135 173 213 259 306
#
# _framework density 16.938538000000001
#
# number of rings (size 3 to 8) (size 9 to 14) (size 15 to 20)
#    0.000    2.200    4.000    3.000    0.000    0.400 
#    0.000    1.000    0.000    7.200    0.000    2.800 
#    0.000    0.000    0.000    0.000    0.000    0.000 
#
# Total GULP energy -495904.111634 kJ/mol
# GULP energy per Si atom -12397.602791 kJ/mol
# Density = 1.689998 g / cm^3
# Si number density = 16.938538 Si / 1000 Ang^3
#
#
#
# Elastic Constant Matrix: (Units=GPa)
#
#
# Indices 1 2 3 4 5 6 
#
# 1 59.7689 34.8304 37.1086 0.0000 0.0000 0.0000
# 2 34.8304 124.7389 63.7034 0.0000 0.0000 0.0000
# 3 37.1086 63.7034 115.8802 0.0000 0.0000 0.0000
# 4 0.0000 0.0000 0.0000 28.8541 0.0000 0.0000
# 5 0.0000 0.0000 0.0000 0.0000 18.8397 0.0000
# 6 0.0000 0.0000 0.0000 0.0000 0.0000 18.5074
#
#
#
# Elastic Compliance Matrix: (Units=1/GPa)
#
#
# Indices 1 2 3 4 5 6 
#
# 1 0.021947 -0.003530 -0.005088 0.000000 0.000000 0.000000
# 2 -0.003530 0.011714 -0.005309 0.000000 0.000000 0.000000
# 3 -0.005088 -0.005309 0.013177 0.000000 0.000000 0.000000
# 4 0.000000 0.000000 0.000000 0.034657 0.000000 0.000000
# 5 0.000000 0.000000 0.000000 0.000000 0.053079 0.000000
# 6 0.000000 0.000000 0.000000 0.000000 0.000000 0.054032
#
#
# Mechanical properties :
#
#
# Convention : Reuss Voigt Hill
#
# Bulk Modulus (GPa) = 52.67357 63.51921 58.09639
# Shear Modulus (GPa) = 22.44283 24.22327 23.33305
#
# Velocity S-wave (km/s) = 3.64394 3.78573 3.71551
# Velocity P-wave (km/s) = 6.99062 7.52929 7.26495
#
# Compressibility (1/GPa) = 0.01898485
#
# Stress axis : x y z
#
# Youngs Moduli (GPa) = 45.56450 85.37017 75.88767
#
# Poissons Ratio (x) = 0.30135 0.38608
# Poissons Ratio (y) = 0.16084 0.40289
# Poissons Ratio (z) = 0.23181 0.45323
#
# Static dielectric constant tensor:
#      x y z
#    x 2.661470 0.000000 0.000000 
#    y 0.000000 3.437470 0.000000 
#    z 0.000000 0.000000 3.487580 
# 
# 
# High freq. dielectric constant tensor:
#      x y z
#    x 1.591660 0.000000 0.000000 
#    y 0.000000 1.662610 0.000000 
#    z 0.000000 0.000000 1.674580 
# 
# From -- ./inp_files/45432.got.cif
#   From: 2010.03.12/outbox.cif.g09.slc.cpg/sg63_23_cif.got.tgz:45432.got - 2010.04.10 19:34:48.
