data_PCOD8260334
_publ_section_title
;
Structure prediction by ZEFSAII (Michael W. Deem and Ramdas Pophale) SiO2 
 PCOD8260334
Probable space group: C M C M
;
_chemical_formula_sum "Si O2"
_cell_formula_units_Z 104
_cell_length_a 21.292118
_cell_length_b 27.016280
_cell_length_c 8.678114
_cell_angle_alpha 90.000000
_cell_angle_beta 90.000000
_cell_angle_gamma 90.000000
_cell_volume 4991.944681
_symmetry_space_group_name_H-M "C M C M"
_symmetry_group_IT_number 63
_symmetry_cell_setting 'orthorhombic'
loop_
_space_group_symop_operation_xyz
x,y,z
-x,-y,1/2+z
x,-y,-z
-x,y,1/2-z
-x,-y,-z
x,y,1/2-z
-x,y,z
x,-y,1/2+z
1/2+x,1/2+y,z
1/2-x,1/2-y,1/2+z
1/2+x,1/2-y,-z
1/2-x,1/2+y,1/2-z
1/2-x,1/2-y,-z
1/2+x,1/2+y,1/2-z
1/2-x,1/2+y,z
1/2+x,1/2-y,1/2+z
loop_
_atom_site_type_symbol
_atom_site_label
_atom_site_fract_x
_atom_site_fract_y
_atom_site_fract_z
Si Si1 0.212937 0.446787 0.568237
Si Si2 0.322401 0.392100 0.431519
Si Si3 0.891970 0.615470 0.569555
Si Si4 0.000000 0.552906 0.428973
Si Si5 0.307686 0.719501 0.930430
Si Si6 0.572355 0.782014 0.929582
Si Si7 0.926954 0.052155 0.072060
O O1 0.192949 0.500000 0.500000
O O2 0.201169 0.447457 0.750000
O O3 0.284247 0.433885 0.525831
O O4 0.176203 0.401539 0.486859
O O5 0.311387 0.398040 0.250000
O O6 0.304471 0.336995 0.488255
O O7 0.394053 0.403497 0.477379
O O8 0.899411 0.607030 0.750000
O O9 0.938763 0.581293 0.477902
O O10 0.906318 0.671945 0.531666
O O11 0.000000 0.500000 0.500000
O O12 0.000000 0.546335 0.250000
O O13 0.298062 0.722161 0.750000
O O14 0.377466 0.739521 0.973488
O O15 0.250000 0.750000 0.000000
O O16 0.577021 0.796363 0.750000
O O17 0.500000 0.766346 0.969387
O O18 0.906868 0.052938 0.250000
O O19 0.000000 0.061866 0.050286
O O20 0.906664 0.000000 0.000000
#
# Coordination Sequence:
#
# PCOD8260334 Si02
#       7
#    16  16  16   8  16  16  16
#     4  12  25  42  63  89 123 164 208 254 310 369
#     4  11  23  40  62  91 125 160 203 255 312 371
#     4  12  24  40  61  90 124 159 204 253 306 362
#     4  12  24  40  60  86 120 160 202 248 299 356
#     4  10  23  41  63  91 122 161 207 259 316 373
#     4  10  21  40  65  91 122 163 212 260 313 373
#     4  10  21  38  61  90 124 163 205 248 302 368
#
# _framework density 20.833565
#
# number of rings (size 3 to 8) (size 9 to 14) (size 15 to 20)
#    0.000    1.077    0.769    6.231    0.000    5.846 
#    0.000    1.538    0.000    0.000    0.000    0.000 
#    0.000    0.000    0.000    0.000    0.000    0.000 
#
# Total GULP energy -644909.711120 kJ/mol
# GULP energy per Si atom -12402.109829 kJ/mol
# Density = 2.078615 g / cm^3
# Si number density = 20.833565 Si / 1000 Ang^3
#
#
#
# Elastic Constant Matrix: (Units=GPa)
#
#
# Indices 1 2 3 4 5 6 
#
# 1 107.6553 46.4275 30.6940 0.0000 0.0000 0.0000
# 2 46.4275 99.5597 41.6847 0.0000 0.0000 0.0000
# 3 30.6940 41.6847 111.0369 0.0000 0.0000 0.0000
# 4 0.0000 0.0000 0.0000 33.2649 0.0000 0.0000
# 5 0.0000 0.0000 0.0000 0.0000 36.3268 0.0000
# 6 0.0000 0.0000 0.0000 0.0000 0.0000 43.0241
#
#
#
# Elastic Compliance Matrix: (Units=1/GPa)
#
#
# Indices 1 2 3 4 5 6 
#
# 1 0.011813 -0.004914 -0.001421 0.000000 0.000000 0.000000
# 2 -0.004914 0.013961 -0.003883 0.000000 0.000000 0.000000
# 3 -0.001421 -0.003883 0.010856 0.000000 0.000000 0.000000
# 4 0.000000 0.000000 0.000000 0.030062 0.000000 0.000000
# 5 0.000000 0.000000 0.000000 0.000000 0.027528 0.000000
# 6 0.000000 0.000000 0.000000 0.000000 0.000000 0.023243
#
#
# Mechanical properties :
#
#
# Convention : Reuss Voigt Hill
#
# Bulk Modulus (GPa) = 61.74443 61.76270 61.75357
# Shear Modulus (GPa) = 34.89245 35.81954 35.35600
#
# Velocity S-wave (km/s) = 4.09690 4.15097 4.12402
# Velocity P-wave (km/s) = 7.21670 7.25838 7.23757
#
# Compressibility (1/GPa) = 0.01619579
#
# Stress axis : x y z
#
# Youngs Moduli (GPa) = 84.65117 71.62559 92.11092
#
# Poissons Ratio (x) = 0.35196 0.13087
# Poissons Ratio (y) = 0.41597 0.35766
# Poissons Ratio (z) = 0.12027 0.27812
#
# Static dielectric constant tensor:
#      x y z
#    x 4.035190 0.000000 0.000000 
#    y 0.000000 3.882840 0.000000 
#    z 0.000000 0.000000 3.784950 
# 
# 
# High freq. dielectric constant tensor:
#      x y z
#    x 1.833180 0.000000 0.000000 
#    y 0.000000 1.815360 0.000000 
#    z 0.000000 0.000000 1.820460 
# 
# From -- ./inp_files/8746.got.cif
#   From: 2010.03.12/outbox.cif.g09.slc.cpg/sg63_5_cif.got.tgz:8746.got - 2010.04.10 19:34:48.
