data_PCOD8260220
_publ_section_title
;
Structure prediction by ZEFSAII (Michael W. Deem and Ramdas Pophale) SiO2 
 PCOD8260220
Probable space group: C M C M
;
_chemical_formula_sum "Si O2"
_cell_formula_units_Z 88
_cell_length_a 14.222502
_cell_length_b 14.598798
_cell_length_c 20.991938
_cell_angle_alpha 90.000000
_cell_angle_beta 90.000000
_cell_angle_gamma 90.000000
_cell_volume 4358.586184
_symmetry_space_group_name_H-M "C M C M"
_symmetry_group_IT_number 63
_symmetry_cell_setting 'orthorhombic'
loop_
_space_group_symop_operation_xyz
x,y,z
-x,-y,1/2+z
x,-y,-z
-x,y,1/2-z
-x,-y,-z
x,y,1/2-z
-x,y,z
x,-y,1/2+z
1/2+x,1/2+y,z
1/2-x,1/2-y,1/2+z
1/2+x,1/2-y,-z
1/2-x,1/2+y,1/2-z
1/2-x,1/2-y,-z
1/2+x,1/2+y,1/2-z
1/2-x,1/2+y,z
1/2+x,1/2-y,1/2+z
loop_
_atom_site_type_symbol
_atom_site_label
_atom_site_fract_x
_atom_site_fract_y
_atom_site_fract_z
Si Si1 0.239664 0.261445 0.677007
Si Si2 0.612936 0.607913 0.131395
Si Si3 0.107074 0.662745 0.075282
Si Si4 0.696141 0.576363 0.892364
Si Si5 0.395132 0.669154 0.503011
Si Si6 0.825986 0.500000 0.500000
O O1 0.208299 0.259493 0.750000
O O2 0.343835 0.307746 0.671861
O O3 0.167766 0.327872 0.639580
O O4 0.238116 0.156471 0.652235
O O5 0.500000 0.604159 0.141284
O O6 0.662473 0.510811 0.149987
O O7 0.652411 0.622832 0.058787
O O8 0.149382 0.732790 0.022085
O O9 0.000000 0.688765 0.092707
O O10 0.109330 0.562962 0.044676
O O11 0.604677 0.608161 0.932676
O O12 0.768429 0.559900 0.949745
O O13 0.500000 0.685119 0.478889
#
# Coordination Sequence:
#
# PCOD8260220 Si02
#       6
#    16  16  16  16  16   8
#     4  11  25  43  60  84 126 171 213 257 308 372
#     4  11  21  38  65  96 125 162 207 261 321 377
#     4  10  21  37  60  89 121 162 207 254 313 376
#     4  11  20  35  61  95 125 161 200 257 315 377
#     4   9  17  32  57  91 126 151 187 250 319 372
#     4  12  19  34  61  96 126 152 195 262 321 388
#
# _framework density 20.190033
#
# number of rings (size 3 to 8) (size 9 to 14) (size 15 to 20)
#    0.000    1.455    3.636    1.909    0.000    6.545 
#    0.000    0.909    0.000    0.000    0.000    0.000 
#    0.000    0.000    0.000    0.000    0.000    0.000 
#
# Total GULP energy -545178.755545 kJ/mol
# GULP energy per Si atom -12390.426262 kJ/mol
# Density = 2.014408 g / cm^3
# Si number density = 20.190033 Si / 1000 Ang^3
#
#
#
# Elastic Constant Matrix: (Units=GPa)
#
#
# Indices 1 2 3 4 5 6 
#
# 1 76.3267 44.2073 30.1795 0.0000 0.0000 0.0000
# 2 44.2073 135.3388 55.2287 0.0000 0.0000 0.0000
# 3 30.1795 55.2287 98.8661 0.0000 0.0000 0.0000
# 4 0.0000 0.0000 0.0000 22.5303 0.0000 0.0000
# 5 0.0000 0.0000 0.0000 0.0000 15.1647 0.0000
# 6 0.0000 0.0000 0.0000 0.0000 0.0000 25.6507
#
#
#
# Elastic Compliance Matrix: (Units=1/GPa)
#
#
# Indices 1 2 3 4 5 6 
#
# 1 0.016679 -0.004366 -0.002653 0.000000 0.000000 0.000000
# 2 -0.004366 0.010713 -0.004652 0.000000 0.000000 0.000000
# 3 -0.002653 -0.004652 0.013523 0.000000 0.000000 0.000000
# 4 0.000000 0.000000 0.000000 0.044385 0.000000 0.000000
# 5 0.000000 0.000000 0.000000 0.000000 0.065943 0.000000
# 6 0.000000 0.000000 0.000000 0.000000 0.000000 0.038985
#
#
# Mechanical properties :
#
#
# Convention : Reuss Voigt Hill
#
# Bulk Modulus (GPa) = 56.89955 63.30695 60.10325
# Shear Modulus (GPa) = 22.78668 24.73022 23.75845
#
# Velocity S-wave (km/s) = 3.36312 3.50361 3.43409
# Velocity P-wave (km/s) = 6.58210 6.91308 6.74962
#
# Compressibility (1/GPa) = 0.01757483
#
# Stress axis : x y z
#
# Youngs Moduli (GPa) = 59.95612 93.34271 73.94725
#
# Poissons Ratio (x) = 0.40749 0.19616
# Poissons Ratio (y) = 0.26174 0.34400
# Poissons Ratio (z) = 0.15904 0.43423
#
# Static dielectric constant tensor:
#      x y z
#    x 3.513540 0.000000 0.000000 
#    y 0.000000 3.958650 0.000000 
#    z 0.000000 0.000000 3.441650 
# 
# 
# High freq. dielectric constant tensor:
#      x y z
#    x 1.780880 0.000000 0.000000 
#    y 0.000000 1.800780 0.000000 
#    z 0.000000 0.000000 1.757710 
# 
# From -- ./inp_files/62823.got.cif
#   From: 2010.03.12/outbox.cif.g09.slc.cpg/sg63_32_cif.got.tgz:62823.got - 2010.04.10 19:34:48.
