data_PCOD8260830
_publ_section_title
;
Structure prediction by ZEFSAII (Michael W. Deem and Ramdas Pophale) SiO2 
 PCOD8260830
Probable space group: C M C M
;
_chemical_formula_sum "Si O2"
_cell_formula_units_Z 48
_cell_length_a 18.829109
_cell_length_b 7.443455
_cell_length_c 17.107289
_cell_angle_alpha 90.000000
_cell_angle_beta 90.000000
_cell_angle_gamma 90.000000
_cell_volume 2397.648576
_symmetry_space_group_name_H-M "C M C M"
_symmetry_group_IT_number 63
_symmetry_cell_setting 'orthorhombic'
loop_
_space_group_symop_operation_xyz
x,y,z
-x,-y,1/2+z
x,-y,-z
-x,y,1/2-z
-x,-y,-z
x,y,1/2-z
-x,y,z
x,-y,1/2+z
1/2+x,1/2+y,z
1/2-x,1/2-y,1/2+z
1/2+x,1/2-y,-z
1/2-x,1/2+y,1/2-z
1/2-x,1/2-y,-z
1/2+x,1/2+y,1/2-z
1/2-x,1/2+y,z
1/2+x,1/2-y,1/2+z
loop_
_atom_site_type_symbol
_atom_site_label
_atom_site_fract_x
_atom_site_fract_y
_atom_site_fract_z
Si Si1 0.081404 0.648735 0.159136
Si Si2 0.831157 0.956610 0.409575
Si Si3 0.185897 0.667439 0.659145
O O1 0.093026 0.692046 0.250000
O O2 0.105468 0.820755 0.110008
O O3 0.126376 0.474914 0.133864
O O4 0.000000 0.606071 0.139568
O O5 0.756578 0.862890 0.390554
O O6 0.834110 0.000000 0.500000
O O7 0.843310 0.134918 0.358644
O O8 0.205392 0.650092 0.750000
#
# Coordination Sequence:
#
# PCOD8260830 Si02
#       3
#    16  16  16
#     4  10  23  42  63  90 124 162 208 258 304 360
#     4  12  24  38  64  94 127 159 204 258 313 362
#     4  11  22  39  65  91 118 163 212 254 300 367
#
# _framework density 20.019614000000001
#
# number of rings (size 3 to 8) (size 9 to 14) (size 15 to 20)
#    0.000    1.000    3.333    4.000    0.000    2.000 
#    0.000    5.000    0.000    0.000    0.000    0.000 
#    0.000    0.000    0.000    0.000    0.000    0.000 
#
# Total GULP energy -297786.909544 kJ/mol
# GULP energy per Si atom -12407.787898 kJ/mol
# Density = 1.997405 g / cm^3
# Si number density = 20.019614 Si / 1000 Ang^3
#
#
#
# Elastic Constant Matrix: (Units=GPa)
#
#
# Indices 1 2 3 4 5 6 
#
# 1 92.8700 24.1121 14.8954 0.0000 0.0000 0.0000
# 2 24.1121 116.1197 2.1722 0.0000 0.0000 0.0000
# 3 14.8954 2.1722 44.0924 0.0000 0.0000 0.0000
# 4 0.0000 0.0000 0.0000 21.2599 0.0000 0.0000
# 5 0.0000 0.0000 0.0000 0.0000 -4.9078 0.0000
# 6 0.0000 0.0000 0.0000 0.0000 0.0000 35.1215
#
#
#
# Elastic Compliance Matrix: (Units=1/GPa)
#
#
# Indices 1 2 3 4 5 6 
#
# 1 0.012030 -0.002424 -0.003944 0.000000 0.000000 0.000000
# 2 -0.002424 0.009108 0.000370 0.000000 0.000000 0.000000
# 3 -0.003944 0.000370 0.023994 0.000000 0.000000 0.000000
# 4 0.000000 0.000000 0.000000 0.047037 0.000000 0.000000
# 5 0.000000 0.000000 0.000000 0.000000 -0.203758 0.000000
# 6 0.000000 0.000000 0.000000 0.000000 0.000000 0.028473
#
#
# Mechanical properties :
#
#
# Convention : Reuss Voigt Hill
#
# Bulk Modulus (GPa) = 30.17949 37.27126 33.72537
# Shear Modulus (GPa) = -83.22947 24.42155 -29.40396
#
# Velocity S-wave (km/s) = -6.45478 3.49647 -3.83659
# Velocity P-wave (km/s) = 6.35961 5.91254 1.65626
#
# Compressibility (1/GPa) = 0.03313509
#
# Stress axis : x y z
#
# Youngs Moduli (GPa) = 83.12693 109.79045 41.67719
#
# Poissons Ratio (x) = 0.26615 0.16440
# Poissons Ratio (y) = 0.20152 -0.01543
# Poissons Ratio (z) = 0.32789 -0.04065
#
# Static dielectric constant tensor:
#      x y z
#    x 3.575880 0.000000 0.000000 
#    y 0.000000 3.903390 0.000000 
#    z 0.000000 0.000000 3.592450 
# 
# 
# High freq. dielectric constant tensor:
#      x y z
#    x 1.775020 0.000000 0.000000 
#    y 0.000000 1.799960 0.000000 
#    z 0.000000 0.000000 1.780070 
# 
# From -- ./inp_files/32996.got.cif
#   From: 2010.03.12/outbox.cif.g09.slc.cpg/sg63_17_cif.got.tgz:32996.got - 2010.04.10 19:34:48.
