data_PCOD8260804
_publ_section_title
;
Structure prediction by ZEFSAII (Michael W. Deem and Ramdas Pophale) SiO2 
 PCOD8260804
Probable space group: C M C M
;
_chemical_formula_sum "Si O2"
_cell_formula_units_Z 80
_cell_length_a 19.650457
_cell_length_b 9.320136
_cell_length_c 23.242907
_cell_angle_alpha 90.000000
_cell_angle_beta 90.000000
_cell_angle_gamma 90.000000
_cell_volume 4256.820615
_symmetry_space_group_name_H-M "C M C M"
_symmetry_group_IT_number 63
_symmetry_cell_setting 'orthorhombic'
loop_
_space_group_symop_operation_xyz
x,y,z
-x,-y,1/2+z
x,-y,-z
-x,y,1/2-z
-x,-y,-z
x,y,1/2-z
-x,y,z
x,-y,1/2+z
1/2+x,1/2+y,z
1/2-x,1/2-y,1/2+z
1/2+x,1/2-y,-z
1/2-x,1/2+y,1/2-z
1/2-x,1/2-y,-z
1/2+x,1/2+y,1/2-z
1/2-x,1/2+y,z
1/2+x,1/2-y,1/2+z
loop_
_atom_site_type_symbol
_atom_site_label
_atom_site_fract_x
_atom_site_fract_y
_atom_site_fract_z
Si Si1 0.611860 0.989536 0.564661
Si Si2 0.500000 0.552246 0.250000
Si Si3 0.000000 0.450104 0.750000
Si Si4 0.239367 0.882621 0.958526
Si Si5 0.392699 0.795919 0.250000
Si Si6 0.000000 0.008333 0.370737
Si Si7 0.000000 0.312635 0.873883
Si Si8 0.872590 0.218600 0.125506
O O1 0.690137 0.941711 0.566585
O O2 0.568463 0.877428 0.600448
O O3 0.584206 0.000000 0.500000
O O4 0.600917 0.145338 0.591050
O O5 0.436991 0.655965 0.250000
O O6 0.500000 0.452179 0.305061
O O7 0.933615 0.553934 0.750000
O O8 0.000000 0.346278 0.805489
O O9 0.194172 0.848216 0.903179
O O10 0.250000 0.750000 0.000000
O O11 0.203804 0.000000 0.000000
O O12 0.351654 0.774544 0.189883
O O13 0.932652 0.102089 0.380966
O O14 0.000000 0.851370 0.398910
#
# Coordination Sequence:
#
# PCOD8260804 Si02
#       8
#    16   4   4  16   8   8   8  16
#     4  11  23  41  62  90 126 168 209 263 313 379
#     4   7  15  36  52  80 120 154 194 230 310 354
#     4  11  19  38  68  88 128 168 210 252 320 394
#     4  11  23  42  66  88 121 172 214 260 322 381
#     4   9  18  36  65  91 116 169 205 246 307 385
#     4  10  23  34  61  90 127 157 200 269 302 363
#     4  12  24  37  61  99 125 155 219 267 314 372
#     4  11  21  42  65  91 128 168 213 251 319 387
#
# _framework density 18.793369999999999
#
# number of rings (size 3 to 8) (size 9 to 14) (size 15 to 20)
#    0.000    1.400    6.000    1.800    2.800    0.000 
#    0.000    3.500    0.000    0.000    0.000    0.000 
#    0.000    0.000    0.000    0.000    0.000    0.000 
#
# Total GULP energy -495544.577908 kJ/mol
# GULP energy per Si atom -12388.614448 kJ/mol
# Density = 1.875060 g / cm^3
# Si number density = 18.793370 Si / 1000 Ang^3
#
#
#
# Elastic Constant Matrix: (Units=GPa)
#
#
# Indices 1 2 3 4 5 6 
#
# 1 87.0273 43.9175 50.9889 0.0000 0.0000 0.0000
# 2 43.9175 142.6799 53.7191 0.0000 0.0000 0.0000
# 3 50.9889 53.7191 152.7833 0.0000 0.0000 0.0000
# 4 0.0000 0.0000 0.0000 33.6517 0.0000 0.0000
# 5 0.0000 0.0000 0.0000 0.0000 31.2390 0.0000
# 6 0.0000 0.0000 0.0000 0.0000 0.0000 5.8072
#
#
#
# Elastic Compliance Matrix: (Units=1/GPa)
#
#
# Indices 1 2 3 4 5 6 
#
# 1 0.015491 -0.003252 -0.004026 0.000000 0.000000 0.000000
# 2 -0.003252 0.008761 -0.001995 0.000000 0.000000 0.000000
# 3 -0.004026 -0.001995 0.008590 0.000000 0.000000 0.000000
# 4 0.000000 0.000000 0.000000 0.029716 0.000000 0.000000
# 5 0.000000 0.000000 0.000000 0.000000 0.032011 0.000000
# 6 0.000000 0.000000 0.000000 0.000000 0.000000 0.172201
#
#
# Mechanical properties :
#
#
# Convention : Reuss Voigt Hill
#
# Bulk Modulus (GPa) = 69.95436 75.52683 72.74060
# Shear Modulus (GPa) = 17.23648 29.73057 23.48353
#
# Velocity S-wave (km/s) = 3.03175 3.98172 3.53875
# Velocity P-wave (km/s) = 7.03982 7.83671 7.44893
#
# Compressibility (1/GPa) = 0.01429504
#
# Stress axis : x y z
#
# Youngs Moduli (GPa) = 64.55418 114.14405 116.40943
#
# Poissons Ratio (x) = 0.37123 0.46870
# Poissons Ratio (y) = 0.20995 0.23223
# Poissons Ratio (z) = 0.25992 0.22771
#
# Static dielectric constant tensor:
#      x y z
#    x 3.188120 0.000000 0.000000 
#    y 0.000000 3.690840 0.000000 
#    z 0.000000 0.000000 4.061460 
# 
# 
# High freq. dielectric constant tensor:
#      x y z
#    x 1.709020 0.000000 0.000000 
#    y 0.000000 1.745100 0.000000 
#    z 0.000000 0.000000 1.744400 
# 
# From -- ./inp_files/64376.got.cif
#   From: 2010.03.12/outbox.cif.g09.slc.cpg/sg63_33_cif.got.tgz:64376.got - 2010.04.10 19:34:48.
