data_PCOD8260099
_publ_section_title
;
Structure prediction by ZEFSAII (Michael W. Deem and Ramdas Pophale) SiO2 
 PCOD8260099
Probable space group: C M C M
;
_chemical_formula_sum "Si O2"
_cell_formula_units_Z 112
_cell_length_a 13.878762
_cell_length_b 29.504770
_cell_length_c 12.302385
_cell_angle_alpha 90.000000
_cell_angle_beta 90.000000
_cell_angle_gamma 90.000000
_cell_volume 5037.699705
_symmetry_space_group_name_H-M "C M C M"
_symmetry_group_IT_number 63
_symmetry_cell_setting 'orthorhombic'
loop_
_space_group_symop_operation_xyz
x,y,z
-x,-y,1/2+z
x,-y,-z
-x,y,1/2-z
-x,-y,-z
x,y,1/2-z
-x,y,z
x,-y,1/2+z
1/2+x,1/2+y,z
1/2-x,1/2-y,1/2+z
1/2+x,1/2-y,-z
1/2-x,1/2+y,1/2-z
1/2-x,1/2-y,-z
1/2+x,1/2+y,1/2-z
1/2-x,1/2+y,z
1/2+x,1/2-y,1/2+z
loop_
_atom_site_type_symbol
_atom_site_label
_atom_site_fract_x
_atom_site_fract_y
_atom_site_fract_z
Si Si1 0.195691 0.434392 0.379364
Si Si2 0.392791 0.027239 0.120307
Si Si3 0.393616 0.525774 0.879258
Si Si4 0.193789 0.932392 0.621305
Si Si5 0.216773 0.663368 0.876416
Si Si6 0.609652 0.750806 0.376640
Si Si7 0.887922 0.844000 0.982960
O O1 0.199156 0.439384 0.250000
O O2 0.125102 0.474797 0.423060
O O3 0.307741 0.440813 0.422885
O O4 0.162202 0.383502 0.411578
O O5 0.385633 0.026073 0.250000
O O6 0.500000 0.043246 0.084854
O O7 0.305837 0.060655 0.076853
O O8 0.388150 0.525173 0.750000
O O9 0.500000 0.542184 0.917067
O O10 0.374266 0.473972 0.921452
O O11 0.199180 0.936301 0.750000
O O12 0.149336 0.884141 0.593508
O O13 0.207491 0.670115 0.750000
O O14 0.169368 0.707733 0.931925
O O15 0.329406 0.658073 0.904807
O O16 0.630453 0.747879 0.250000
O O17 0.500000 0.762349 0.402806
O O18 0.638431 0.702482 0.423315
O O19 0.000000 0.849527 0.009308
#
# Coordination Sequence:
#
# PCOD8260099 Si02
#       7
#    16  16  16  16  16  16  16
#     4   8  15  27  45  70  98 133 175 212 248 297
#     4   8  14  27  49  76 106 141 179 219 265 314
#     4   8  13  23  41  65  95 132 172 212 250 288
#     4   9  17  30  50  77 108 140 175 217 265 312
#     4  10  21  37  55  76 106 141 175 213 258 310
#     4   9  19  37  61  85 104 126 163 213 267 318
#     4  11  22  35  54  80 108 138 174 216 260 310
#
# _framework density 22.232368999999998
#
# number of rings (size 3 to 8) (size 9 to 14) (size 15 to 20)
#    0.000    3.000    0.000    3.000    0.000    2.857 
#    0.000    7.857    0.000    6.000    0.000    2.000 
#    0.000    0.000    0.000    0.000    0.000    0.000 
#
# Total GULP energy -694187.188648 kJ/mol
# GULP energy per Si atom -12396.199797 kJ/mol
# Density = 2.218177 g / cm^3
# Si number density = 22.232369 Si / 1000 Ang^3
#
#
#
# Elastic Constant Matrix: (Units=GPa)
#
#
# Indices 1 2 3 4 5 6 
#
# 1 148.4761 78.7914 16.3612 0.0000 0.0000 0.0000
# 2 78.7914 189.2325 27.3240 0.0000 0.0000 0.0000
# 3 16.3612 27.3240 24.6615 0.0000 0.0000 0.0000
# 4 0.0000 0.0000 0.0000 25.4573 0.0000 0.0000
# 5 0.0000 0.0000 0.0000 0.0000 33.3575 0.0000
# 6 0.0000 0.0000 0.0000 0.0000 0.0000 30.7058
#
#
#
# Elastic Compliance Matrix: (Units=1/GPa)
#
#
# Indices 1 2 3 4 5 6 
#
# 1 0.008736 -0.003334 -0.002102 0.000000 0.000000 0.000000
# 2 -0.003334 0.007563 -0.006168 0.000000 0.000000 0.000000
# 3 -0.002102 -0.006168 0.048777 0.000000 0.000000 0.000000
# 4 0.000000 0.000000 0.000000 0.039281 0.000000 0.000000
# 5 0.000000 0.000000 0.000000 0.000000 0.029978 0.000000
# 6 0.000000 0.000000 0.000000 0.000000 0.000000 0.032567
#
#
# Mechanical properties :
#
#
# Convention : Reuss Voigt Hill
#
# Bulk Modulus (GPa) = 23.88397 67.48036 45.68217
# Shear Modulus (GPa) = 24.50172 33.89702 29.19937
#
# Velocity S-wave (km/s) = 3.32335 3.90894 3.62798
# Velocity P-wave (km/s) = 5.04900 7.12680 6.17591
#
# Compressibility (1/GPa) = 0.04186909
#
# Stress axis : x y z
#
# Youngs Moduli (GPa) = 114.47029 132.21795 20.50129
#
# Poissons Ratio (x) = 0.44080 0.04309
# Poissons Ratio (y) = 0.38163 0.12645
# Poissons Ratio (z) = 0.24060 0.81552
#
# Static dielectric constant tensor:
#      x y z
#    x 4.153810 0.000000 0.000000 
#    y 0.000000 4.257800 0.000000 
#    z 0.000000 0.000000 4.406480 
# 
# 
# High freq. dielectric constant tensor:
#      x y z
#    x 1.868310 0.000000 0.000000 
#    y 0.000000 1.869610 0.000000 
#    z 0.000000 0.000000 1.913780 
# 
# From -- ./inp_files/32738.got.cif
#   From: 2010.03.12/outbox.cif.g09.slc.cpg/sg63_17_cif.got.tgz:32738.got - 2010.04.10 19:34:48.
