data_PCOD8260783
_publ_section_title
;
Structure prediction by ZEFSAII (Michael W. Deem and Ramdas Pophale) SiO2 
 PCOD8260783
Probable space group: C M C M
;
_chemical_formula_sum "Si O2"
_cell_formula_units_Z 84
_cell_length_a 17.127373
_cell_length_b 12.507662
_cell_length_c 20.083765
_cell_angle_alpha 90.000000
_cell_angle_beta 90.000000
_cell_angle_gamma 90.000000
_cell_volume 4302.412271
_symmetry_space_group_name_H-M "C M C M"
_symmetry_group_IT_number 63
_symmetry_cell_setting 'orthorhombic'
loop_
_space_group_symop_operation_xyz
x,y,z
-x,-y,1/2+z
x,-y,-z
-x,y,1/2-z
-x,-y,-z
x,y,1/2-z
-x,y,z
x,-y,1/2+z
1/2+x,1/2+y,z
1/2-x,1/2-y,1/2+z
1/2+x,1/2-y,-z
1/2-x,1/2+y,1/2-z
1/2-x,1/2-y,-z
1/2+x,1/2+y,1/2-z
1/2-x,1/2+y,z
1/2+x,1/2-y,1/2+z
loop_
_atom_site_type_symbol
_atom_site_label
_atom_site_fract_x
_atom_site_fract_y
_atom_site_fract_z
Si Si1 0.154854 0.851808 0.073427
Si Si2 0.413115 0.937885 0.750000
Si Si3 0.349422 0.534703 0.323862
Si Si4 0.809453 0.621419 0.124098
Si Si5 0.500000 0.628171 0.001105
Si Si6 0.500000 0.330950 0.846989
Si Si7 0.227028 0.500000 0.000000
Si Si8 0.000000 0.357379 0.250000
O O1 0.132185 0.931486 0.132522
O O2 0.187690 0.744476 0.104690
O O3 0.218808 0.902284 0.024361
O O4 0.076437 0.825268 0.033625
O O5 0.500000 0.884464 0.750000
O O6 0.369147 0.902789 0.816737
O O7 0.422599 0.067071 0.750000
O O8 0.327272 0.495525 0.250000
O O9 0.278801 0.602030 0.353797
O O10 0.424392 0.609032 0.320345
O O11 0.826976 0.544984 0.060068
O O12 0.500000 0.676450 0.074213
O O13 0.500000 0.500000 0.000000
O O14 0.500000 0.212263 0.816954
#
# Coordination Sequence:
#
# PCOD8260783 Si02
#       8
#    16   8  16  16   8   8   8   4
#     4  11  23  39  66  99 130 174 211 278 332 392
#     4  10  26  49  60  91 134 167 228 277 316 390
#     4  11  22  39  63  98 134 165 224 265 323 405
#     4  11  24  43  68  96 131 180 219 273 339 387
#     4  12  20  39  64  91 137 165 208 279 340 385
#     4  12  22  42  66  96 131 173 213 268 331 392
#     4  10  22  43  65  96 138 162 228 266 318 412
#     4  10  26  42  64  86 132 174 218 278 312 384
#
# _framework density 19.52393
#
# number of rings (size 3 to 8) (size 9 to 14) (size 15 to 20)
#    0.286    0.762    4.762    1.714    2.667    4.571 
#    0.000    0.476    0.000    0.000    0.000    0.000 
#    0.000    0.000    0.000    0.000    0.000    0.000 
#
# Total GULP energy -520898.103108 kJ/mol
# GULP energy per Si atom -12402.335788 kJ/mol
# Density = 1.947949 g / cm^3
# Si number density = 19.523930 Si / 1000 Ang^3
#
#
#
# Elastic Constant Matrix: (Units=GPa)
#
#
# Indices 1 2 3 4 5 6 
#
# 1 93.7851 49.8584 48.5193 0.0000 0.0000 0.0000
# 2 49.8584 110.7028 66.3665 0.0000 0.0000 0.0000
# 3 48.5193 66.3665 169.9502 0.0000 0.0000 0.0000
# 4 0.0000 0.0000 0.0000 40.0741 0.0000 0.0000
# 5 0.0000 0.0000 0.0000 0.0000 20.6741 0.0000
# 6 0.0000 0.0000 0.0000 0.0000 0.0000 -16.1342
#
#
#
# Elastic Compliance Matrix: (Units=1/GPa)
#
#
# Indices 1 2 3 4 5 6 
#
# 1 0.014564 -0.005310 -0.002084 0.000000 0.000000 0.000000
# 2 -0.005310 0.013730 -0.003846 0.000000 0.000000 0.000000
# 3 -0.002084 -0.003846 0.007981 0.000000 0.000000 0.000000
# 4 0.000000 0.000000 0.000000 0.024954 0.000000 0.000000
# 5 0.000000 0.000000 0.000000 0.000000 0.048370 0.000000
# 6 0.000000 0.000000 0.000000 0.000000 0.000000 -0.061980
#
#
# Mechanical properties :
#
#
# Convention : Reuss Voigt Hill
#
# Bulk Modulus (GPa) = 72.48932 78.21408 75.35170
# Shear Modulus (GPa) = 66.93774 22.90239 44.92007
#
# Velocity S-wave (km/s) = 5.86169 3.42869 4.80184
# Velocity P-wave (km/s) = 9.11162 7.47142 8.33198
#
# Compressibility (1/GPa) = 0.01379514
#
# Stress axis : x y z
#
# Youngs Moduli (GPa) = 68.66358 72.83240 125.29796
#
# Poissons Ratio (x) = 0.38671 0.26117
# Poissons Ratio (y) = 0.36458 0.48188
# Poissons Ratio (z) = 0.14312 0.28010
#
# Static dielectric constant tensor:
#      x y z
#    x 3.455540 0.000000 0.000000 
#    y 0.000000 3.430860 0.000000 
#    z 0.000000 0.000000 3.968100 
# 
# 
# High freq. dielectric constant tensor:
#      x y z
#    x 1.757650 0.000000 0.000000 
#    y 0.000000 1.750070 0.000000 
#    z 0.000000 0.000000 1.786430 
# 
# From -- ./inp_files/55365.got.cif
#   From: 2010.03.12/outbox.cif.g09.slc.cpg/sg63_28_cif.got.tgz:55365.got - 2010.04.10 19:34:48.
