data_PCOD8260637
_publ_section_title
;
Structure prediction by ZEFSAII (Michael W. Deem and Ramdas Pophale) SiO2 
 PCOD8260637
Probable space group: C M C M
;
_chemical_formula_sum "Si O2"
_cell_formula_units_Z 80
_cell_length_a 20.298126
_cell_length_b 25.330891
_cell_length_c 9.000020
_cell_angle_alpha 90.000000
_cell_angle_beta 90.000000
_cell_angle_gamma 90.000000
_cell_volume 4627.536838
_symmetry_space_group_name_H-M "C M C M"
_symmetry_group_IT_number 63
_symmetry_cell_setting 'orthorhombic'
loop_
_space_group_symop_operation_xyz
x,y,z
-x,-y,1/2+z
x,-y,-z
-x,y,1/2-z
-x,-y,-z
x,y,1/2-z
-x,y,z
x,-y,1/2+z
1/2+x,1/2+y,z
1/2-x,1/2-y,1/2+z
1/2+x,1/2-y,-z
1/2-x,1/2+y,1/2-z
1/2-x,1/2-y,-z
1/2+x,1/2+y,1/2-z
1/2-x,1/2+y,z
1/2+x,1/2-y,1/2+z
loop_
_atom_site_type_symbol
_atom_site_label
_atom_site_fract_x
_atom_site_fract_y
_atom_site_fract_z
Si Si1 0.926390 0.159064 0.577030
Si Si2 0.329887 0.863413 0.073915
Si Si3 0.864234 0.246543 0.082782
Si Si4 0.198080 0.858434 0.917072
Si Si5 0.922784 0.554010 0.422308
O O1 0.910392 0.156877 0.750000
O O2 0.920401 0.220280 0.521820
O O3 0.871888 0.123199 0.490921
O O4 0.000000 0.138191 0.542682
O O5 0.329624 0.870235 0.250000
O O6 0.343207 0.803463 0.022528
O O7 0.258973 0.880971 0.010984
O O8 0.386665 0.898244 0.002647
O O9 0.892418 0.251900 0.250000
O O10 0.801621 0.206018 0.082300
O O11 0.202425 0.880994 0.750000
O O12 0.900377 0.500000 0.500000
O O13 0.902878 0.551490 0.250000
O O14 0.000000 0.563706 0.443605
#
# Coordination Sequence:
#
# PCOD8260637 Si02
#       5
#    16  16  16  16  16
#     4   9  17  28  42  61  90 128 165 200 237 278
#     4  11  20  32  51  73  96 125 162 204 250 299
#     4   8  18  30  43  64  93 129 164 200 241 288
#     4   9  18  31  46  67  96 130 166 203 243 290
#     4  10  22  40  58  75  97 126 162 207 258 306
#
# _framework density 17.287814000000001
#
# number of rings (size 3 to 8) (size 9 to 14) (size 15 to 20)
#    1.200    1.400    0.000    2.400    0.000    5.200 
#    0.000    4.000    0.000    0.000    0.000    0.000 
#    0.000    0.800    0.000    3.000    0.000    4.600 
#
# Total GULP energy -495602.629705 kJ/mol
# GULP energy per Si atom -12390.065743 kJ/mol
# Density = 1.724847 g / cm^3
# Si number density = 17.287814 Si / 1000 Ang^3
#
#
#
# Elastic Constant Matrix: (Units=GPa)
#
#
# Indices 1 2 3 4 5 6 
#
# 1 71.6904 12.0559 42.5892 0.0000 0.0000 0.0000
# 2 12.0559 28.3911 18.6176 0.0000 0.0000 0.0000
# 3 42.5892 18.6176 107.1583 0.0000 0.0000 0.0000
# 4 0.0000 0.0000 0.0000 21.7865 0.0000 0.0000
# 5 0.0000 0.0000 0.0000 0.0000 33.4694 0.0000
# 6 0.0000 0.0000 0.0000 0.0000 0.0000 18.3533
#
#
#
# Elastic Compliance Matrix: (Units=1/GPa)
#
#
# Indices 1 2 3 4 5 6 
#
# 1 0.018552 -0.003434 -0.006777 0.000000 0.000000 0.000000
# 2 -0.003434 0.040387 -0.005652 0.000000 0.000000 0.000000
# 3 -0.006777 -0.005652 0.013007 0.000000 0.000000 0.000000
# 4 0.000000 0.000000 0.000000 0.045900 0.000000 0.000000
# 5 0.000000 0.000000 0.000000 0.000000 0.029878 0.000000
# 6 0.000000 0.000000 0.000000 0.000000 0.000000 0.054486
#
#
# Mechanical properties :
#
#
# Convention : Reuss Voigt Hill
#
# Bulk Modulus (GPa) = 24.86277 39.30726 32.08502
# Shear Modulus (GPa) = 20.21484 23.65365 21.93424
#
# Velocity S-wave (km/s) = 3.42323 3.70297 3.56584
# Velocity P-wave (km/s) = 5.48065 6.40851 5.96266
#
# Compressibility (1/GPa) = 0.04022078
#
# Stress axis : x y z
#
# Youngs Moduli (GPa) = 53.90175 24.76059 76.87959
#
# Poissons Ratio (x) = 0.08503 0.52100
# Poissons Ratio (y) = 0.18510 0.43452
# Poissons Ratio (z) = 0.36528 0.13995
#
# Static dielectric constant tensor:
#      x y z
#    x 3.078360 0.000000 0.000000 
#    y 0.000000 2.794500 0.000000 
#    z 0.000000 0.000000 3.294710 
# 
# 
# High freq. dielectric constant tensor:
#      x y z
#    x 1.662730 0.000000 0.000000 
#    y 0.000000 1.612470 0.000000 
#    z 0.000000 0.000000 1.684560 
# 
# From -- ./inp_files/10958.got.cif
#   From: 2010.03.12/outbox.cif.g09.slc.cpg/sg63_6_cif.got.tgz:10958.got - 2010.04.10 19:34:48.
