data_PCOD8260629
_publ_section_title
;
Structure prediction by ZEFSAII (Michael W. Deem and Ramdas Pophale) SiO2 
 PCOD8260629
Probable space group: C M C M
;
_chemical_formula_sum "Si O2"
_cell_formula_units_Z 96
_cell_length_a 22.752858
_cell_length_b 15.314882
_cell_length_c 12.881413
_cell_angle_alpha 90.000000
_cell_angle_beta 90.000000
_cell_angle_gamma 90.000000
_cell_volume 4488.622851
_symmetry_space_group_name_H-M "C M C M"
_symmetry_group_IT_number 63
_symmetry_cell_setting 'orthorhombic'
loop_
_space_group_symop_operation_xyz
x,y,z
-x,-y,1/2+z
x,-y,-z
-x,y,1/2-z
-x,-y,-z
x,y,1/2-z
-x,y,z
x,-y,1/2+z
1/2+x,1/2+y,z
1/2-x,1/2-y,1/2+z
1/2+x,1/2-y,-z
1/2-x,1/2+y,1/2-z
1/2-x,1/2-y,-z
1/2+x,1/2+y,1/2-z
1/2-x,1/2+y,z
1/2+x,1/2-y,1/2+z
loop_
_atom_site_type_symbol
_atom_site_label
_atom_site_fract_x
_atom_site_fract_y
_atom_site_fract_z
Si Si1 0.500000 0.400840 0.466281
Si Si2 0.873609 0.881852 0.128133
Si Si3 0.500000 0.760093 0.125700
Si Si4 0.655578 0.954026 0.866555
Si Si5 0.386820 0.867356 0.432626
Si Si6 0.187860 0.218035 0.034622
Si Si7 0.210034 0.037346 0.129896
O O1 0.500000 0.500000 0.500000
O O2 0.557682 0.391413 0.395898
O O3 0.500000 0.332691 0.563808
O O4 0.865126 0.869355 0.250000
O O5 0.850972 0.795904 0.069190
O O6 0.832106 0.961259 0.082585
O O7 0.500000 0.740650 0.250000
O O8 0.552202 0.822000 0.090311
O O9 0.654920 0.914539 0.750000
O O10 0.722283 0.970664 0.907301
O O11 0.621335 0.046029 0.864722
O O12 0.621919 0.889291 0.944608
O O13 0.338663 0.796412 0.397637
O O14 0.250000 0.250000 0.000000
O O15 0.185660 0.132639 0.105173
O O16 0.206300 0.021956 0.250000
#
# Coordination Sequence:
#
# PCOD8260629 Si02
#       7
#     8  16   8  16  16  16  16
#     4  12  25  49  71  97 132 183 227 276 324 398
#     4  11  25  43  66  96 135 179 224 270 329 396
#     4  12  28  50  71 101 137 176 227 283 338 403
#     4  10  22  43  69  98 136 179 226 278 346 410
#     4  11  24  43  68  97 132 176 228 280 339 397
#     4  12  22  38  66  98 136 173 220 279 339 396
#     4  10  22  39  63  98 137 178 221 272 336 405
#
# _framework density 21.387405000000001
#
# number of rings (size 3 to 8) (size 9 to 14) (size 15 to 20)
#    0.000    1.000    3.333    3.250    2.333    4.667 
#    0.000    1.250    0.000    0.000    0.000    0.000 
#    0.000    0.000    0.000    0.000    0.000    0.000 
#
# Total GULP energy -594909.317557 kJ/mol
# GULP energy per Si atom -12393.944116 kJ/mol
# Density = 2.133873 g / cm^3
# Si number density = 21.387405 Si / 1000 Ang^3
#
#
#
# Elastic Constant Matrix: (Units=GPa)
#
#
# Indices 1 2 3 4 5 6 
#
# 1 132.8910 32.4058 15.0831 0.0000 0.0000 0.0000
# 2 32.4058 109.8094 11.2791 0.0000 0.0000 0.0000
# 3 15.0831 11.2791 87.7966 0.0000 0.0000 0.0000
# 4 0.0000 0.0000 0.0000 22.6503 0.0000 0.0000
# 5 0.0000 0.0000 0.0000 0.0000 3.2919 0.0000
# 6 0.0000 0.0000 0.0000 0.0000 0.0000 88.2970
#
#
#
# Elastic Compliance Matrix: (Units=1/GPa)
#
#
# Indices 1 2 3 4 5 6 
#
# 1 0.008215 -0.002310 -0.001115 0.000000 0.000000 0.000000
# 2 -0.002310 0.009878 -0.000872 0.000000 0.000000 0.000000
# 3 -0.001115 -0.000872 0.011693 0.000000 0.000000 0.000000
# 4 0.000000 0.000000 0.000000 0.044150 0.000000 0.000000
# 5 0.000000 0.000000 0.000000 0.000000 0.303779 0.000000
# 6 0.000000 0.000000 0.000000 0.000000 0.000000 0.011325
#
#
# Mechanical properties :
#
#
# Convention : Reuss Voigt Hill
#
# Bulk Modulus (GPa) = 47.18507 49.78145 48.48326
# Shear Modulus (GPa) = 12.35490 40.96311 26.65900
#
# Velocity S-wave (km/s) = 2.40609 4.38115 3.53438
# Velocity P-wave (km/s) = 5.46159 6.99423 6.27488
#
# Compressibility (1/GPa) = 0.02119314
#
# Stress axis : x y z
#
# Youngs Moduli (GPa) = 121.73298 101.23599 85.51776
#
# Poissons Ratio (x) = 0.23383 0.09531
# Poissons Ratio (y) = 0.28117 0.07459
# Poissons Ratio (z) = 0.13567 0.08830
#
# Static dielectric constant tensor:
#      x y z
#    x 3.941770 0.000000 0.000000 
#    y 0.000000 2.214660 0.000000 
#    z 0.000000 0.000000 3.765990 
# 
# 
# High freq. dielectric constant tensor:
#      x y z
#    x 1.842020 0.000000 0.000000 
#    y 0.000000 1.851450 0.000000 
#    z 0.000000 0.000000 1.845150 
# 
# From -- ./inp_files/35424.got.cif
#   From: 2010.03.12/outbox.cif.g09.slc.cpg/sg63_18_cif.got.tgz:35424.got - 2010.04.10 19:34:48.
