data_PCOD8260283
_publ_section_title
;
Structure prediction by ZEFSAII (Michael W. Deem and Ramdas Pophale) SiO2 
 PCOD8260283
Probable space group: C M C M
;
_chemical_formula_sum "Si O2"
_cell_formula_units_Z 56
_cell_length_a 24.249791
_cell_length_b 4.875164
_cell_length_c 18.039333
_cell_angle_alpha 90.000000
_cell_angle_beta 90.000000
_cell_angle_gamma 90.000000
_cell_volume 2132.640760
_symmetry_space_group_name_H-M "C M C M"
_symmetry_group_IT_number 63
_symmetry_cell_setting 'orthorhombic'
loop_
_space_group_symop_operation_xyz
x,y,z
-x,-y,1/2+z
x,-y,-z
-x,y,1/2-z
-x,-y,-z
x,y,1/2-z
-x,y,z
x,-y,1/2+z
1/2+x,1/2+y,z
1/2-x,1/2-y,1/2+z
1/2+x,1/2-y,-z
1/2-x,1/2+y,1/2-z
1/2-x,1/2-y,-z
1/2+x,1/2+y,1/2-z
1/2-x,1/2+y,z
1/2+x,1/2-y,1/2+z
loop_
_atom_site_type_symbol
_atom_site_label
_atom_site_fract_x
_atom_site_fract_y
_atom_site_fract_z
Si Si1 0.211863 0.792573 0.588850
Si Si2 0.937380 0.889992 0.334363
Si Si3 0.784347 0.685509 0.750000
Si Si4 0.097650 0.600214 0.575708
O O1 0.264193 0.593991 0.571928
O O2 0.186799 0.772027 0.673227
O O3 0.156944 0.715530 0.544794
O O4 0.918488 0.953727 0.250000
O O5 0.897339 0.657234 0.368114
O O6 0.000000 0.778309 0.335441
O O7 0.936047 0.162359 0.383912
O O8 0.773212 0.360293 0.750000
O O9 0.067216 0.500000 0.500000
#
# Coordination Sequence:
#
# PCOD8260283 Si02
#       4
#    16  16   8  16
#     4  10  21  38  59  93 134 178 222 271 325 393
#     4  11  26  48  73 100 133 176 227 286 347 407
#     4   8  16  30  50  78 113 156 213 258 306 356
#     4  12  26  43  70 105 138 181 226 276 344 405
#
# _framework density 26.258523
#
# number of rings (size 3 to 8) (size 9 to 14) (size 15 to 20)
#    0.000    1.429    0.000    4.286    4.000    6.857 
#    5.143    0.000    0.000    0.000    0.000    0.000 
#    0.000    0.000    0.000    0.000    0.000    0.000 
#
# Total GULP energy -347079.091589 kJ/mol
# GULP energy per Si atom -12395.681842 kJ/mol
# Density = 2.619876 g / cm^3
# Si number density = 26.258523 Si / 1000 Ang^3
#
#
#
# Elastic Constant Matrix: (Units=GPa)
#
#
# Indices 1 2 3 4 5 6 
#
# 1 63.8816 13.4493 18.2288 0.0000 0.0000 0.0000
# 2 13.4493 147.4990 28.9898 0.0000 0.0000 0.0000
# 3 18.2288 28.9898 68.9695 0.0000 0.0000 0.0000
# 4 0.0000 0.0000 0.0000 28.3757 0.0000 0.0000
# 5 0.0000 0.0000 0.0000 0.0000 18.1772 0.0000
# 6 0.0000 0.0000 0.0000 0.0000 0.0000 30.1226
#
#
#
# Elastic Compliance Matrix: (Units=1/GPa)
#
#
# Indices 1 2 3 4 5 6 
#
# 1 0.017002 -0.000727 -0.004188 0.000000 0.000000 0.000000
# 2 -0.000727 0.007421 -0.002927 0.000000 0.000000 0.000000
# 3 -0.004188 -0.002927 0.016836 0.000000 0.000000 0.000000
# 4 0.000000 0.000000 0.000000 0.035241 0.000000 0.000000
# 5 0.000000 0.000000 0.000000 0.000000 0.055014 0.000000
# 6 0.000000 0.000000 0.000000 0.000000 0.000000 0.033198
#
#
# Mechanical properties :
#
#
# Convention : Reuss Voigt Hill
#
# Bulk Modulus (GPa) = 39.10057 44.63178 41.86618
# Shear Modulus (GPa) = 26.46586 29.98060 28.22323
#
# Velocity S-wave (km/s) = 3.17818 3.38264 3.28200
# Velocity P-wave (km/s) = 5.32830 5.68246 5.50822
#
# Compressibility (1/GPa) = 0.02557507
#
# Stress axis : x y z
#
# Youngs Moduli (GPa) = 58.81622 134.74672 59.39492
#
# Poissons Ratio (x) = 0.09798 0.24875
# Poissons Ratio (y) = 0.04277 0.17386
# Poissons Ratio (z) = 0.24632 0.39443
#
# Static dielectric constant tensor:
#      x y z
#    x 4.108920 0.000000 0.000000 
#    y 0.000000 4.737500 0.000000 
#    z 0.000000 0.000000 5.194530 
# 
# 
# High freq. dielectric constant tensor:
#      x y z
#    x 2.020130 0.000000 0.000000 
#    y 0.000000 2.060710 0.000000 
#    z 0.000000 0.000000 2.077050 
# 
# From -- ./inp_files/57137.got.cif
#   From: 2010.03.12/outbox.cif.g09.slc.cpg/sg63_29_cif.got.tgz:57137.got - 2010.04.10 19:34:48.
