data_PCOD8260965
_publ_section_title
;
Structure prediction by ZEFSAII (Michael W. Deem and Ramdas Pophale) SiO2 
 PCOD8260965
Probable space group: C M C M
;
_chemical_formula_sum "Si O2"
_cell_formula_units_Z 64
_cell_length_a 15.188669
_cell_length_b 11.317355
_cell_length_c 18.840969
_cell_angle_alpha 90.000000
_cell_angle_beta 90.000000
_cell_angle_gamma 90.000000
_cell_volume 3238.678899
_symmetry_space_group_name_H-M "C M C M"
_symmetry_group_IT_number 63
_symmetry_cell_setting 'orthorhombic'
loop_
_space_group_symop_operation_xyz
x,y,z
-x,-y,1/2+z
x,-y,-z
-x,y,1/2-z
-x,-y,-z
x,y,1/2-z
-x,y,z
x,-y,1/2+z
1/2+x,1/2+y,z
1/2-x,1/2-y,1/2+z
1/2+x,1/2-y,-z
1/2-x,1/2+y,1/2-z
1/2-x,1/2-y,-z
1/2+x,1/2+y,1/2-z
1/2-x,1/2+y,z
1/2+x,1/2-y,1/2+z
loop_
_atom_site_type_symbol
_atom_site_label
_atom_site_fract_x
_atom_site_fract_y
_atom_site_fract_z
Si Si1 0.341285 0.065526 0.923903
Si Si2 0.147037 0.053443 0.899569
Si Si3 0.000000 0.799426 0.169482
Si Si4 0.500000 0.963580 0.664189
Si Si5 0.399756 0.320441 0.958587
O O1 0.250237 0.041378 0.881835
O O2 0.347236 0.205532 0.935586
O O3 0.415102 0.025958 0.868836
O O4 0.347786 0.000000 0.000000
O O5 0.089587 0.129909 0.845594
O O6 0.104620 0.922278 0.898657
O O7 0.145702 0.120649 0.974202
O O8 0.000000 0.670309 0.133346
O O9 0.000000 0.766535 0.250000
O O10 0.500000 0.976924 0.750000
O O11 0.500000 0.286975 0.976767
#
# Coordination Sequence:
#
# PCOD8260965 Si02
#       5
#    16  16   8   8  16
#     4  12  24  39  66  97 124 163 212 258 313 370
#     4  11  22  38  63  93 128 152 201 266 315 366
#     4  11  24  43  65  87 121 171 213 250 310 385
#     4  11  27  46  61  86 130 172 207 253 310 376
#     4  11  20  38  61  95 124 157 195 261 323 350
#
# _framework density 19.761144999999999
#
# number of rings (size 3 to 8) (size 9 to 14) (size 15 to 20)
#    0.000    0.750    6.250    3.375    3.500    1.000 
#    0.000    2.500    0.000    0.000    0.000    0.000 
#    0.000    0.000    0.000    0.000    0.000    0.000 
#
# Total GULP energy -396701.193093 kJ/mol
# GULP energy per Si atom -12396.912284 kJ/mol
# Density = 1.971617 g / cm^3
# Si number density = 19.761145 Si / 1000 Ang^3
#
#
#
# Elastic Constant Matrix: (Units=GPa)
#
#
# Indices 1 2 3 4 5 6 
#
# 1 149.7662 22.3931 33.5192 0.0000 0.0000 0.0000
# 2 22.3931 140.8196 31.4001 0.0000 0.0000 0.0000
# 3 33.5192 31.4001 54.2550 0.0000 0.0000 0.0000
# 4 0.0000 0.0000 0.0000 20.7243 0.0000 0.0000
# 5 0.0000 0.0000 0.0000 0.0000 11.2642 0.0000
# 6 0.0000 0.0000 0.0000 0.0000 0.0000 29.4877
#
#
#
# Elastic Compliance Matrix: (Units=1/GPa)
#
#
# Indices 1 2 3 4 5 6 
#
# 1 0.007753 -0.000189 -0.004680 0.000000 0.000000 0.000000
# 2 -0.000189 0.008158 -0.004605 0.000000 0.000000 0.000000
# 3 -0.004680 -0.004605 0.023988 0.000000 0.000000 0.000000
# 4 0.000000 0.000000 0.000000 0.048252 0.000000 0.000000
# 5 0.000000 0.000000 0.000000 0.000000 0.088777 0.000000
# 6 0.000000 0.000000 0.000000 0.000000 0.000000 0.033912
#
#
# Mechanical properties :
#
#
# Convention : Reuss Voigt Hill
#
# Bulk Modulus (GPa) = 47.73115 57.71841 52.72478
# Shear Modulus (GPa) = 21.11729 29.46379 25.29054
#
# Velocity S-wave (km/s) = 3.27253 3.86553 3.58133
# Velocity P-wave (km/s) = 6.20369 7.01388 6.62119
#
# Compressibility (1/GPa) = 0.02095068
#
# Stress axis : x y z
#
# Youngs Moduli (GPa) = 128.98462 122.57736 41.68765
#
# Poissons Ratio (x) = 0.02320 0.19511
# Poissons Ratio (y) = 0.02441 0.19195
# Poissons Ratio (z) = 0.60368 0.56442
#
# Static dielectric constant tensor:
#      x y z
#    x 3.914090 0.000000 0.000000 
#    y 0.000000 4.017710 0.000000 
#    z 0.000000 0.000000 3.246970 
# 
# 
# High freq. dielectric constant tensor:
#      x y z
#    x 1.788750 0.000000 0.000000 
#    y 0.000000 1.793340 0.000000 
#    z 0.000000 0.000000 1.726690 
# 
# From -- ./inp_files/43494.got.cif
#   From: 2010.03.12/outbox.cif.g09.slc.cpg/sg63_22_cif.got.tgz:43494.got - 2010.04.10 19:34:48.
