data_PCOD8260462
_publ_section_title
;
Structure prediction by ZEFSAII (Michael W. Deem and Ramdas Pophale) SiO2 
 PCOD8260462
Probable space group: C M C M
;
_chemical_formula_sum "Si O2"
_cell_formula_units_Z 56
_cell_length_a 16.690460
_cell_length_b 11.210868
_cell_length_c 14.621254
_cell_angle_alpha 90.000000
_cell_angle_beta 90.000000
_cell_angle_gamma 90.000000
_cell_volume 2735.849274
_symmetry_space_group_name_H-M "C M C M"
_symmetry_group_IT_number 63
_symmetry_cell_setting 'orthorhombic'
loop_
_space_group_symop_operation_xyz
x,y,z
-x,-y,1/2+z
x,-y,-z
-x,y,1/2-z
-x,-y,-z
x,y,1/2-z
-x,y,z
x,-y,1/2+z
1/2+x,1/2+y,z
1/2-x,1/2-y,1/2+z
1/2+x,1/2-y,-z
1/2-x,1/2+y,1/2-z
1/2-x,1/2-y,-z
1/2+x,1/2+y,1/2-z
1/2-x,1/2+y,z
1/2+x,1/2-y,1/2+z
loop_
_atom_site_type_symbol
_atom_site_label
_atom_site_fract_x
_atom_site_fract_y
_atom_site_fract_z
Si Si1 0.093137 0.770538 0.056361
Si Si2 0.586626 0.086820 0.586792
Si Si3 0.325173 0.500000 0.500000
Si Si4 0.794597 0.413011 0.649066
O O1 0.147058 0.698438 0.128785
O O2 0.000000 0.760413 0.085790
O O3 0.119523 0.908171 0.055761
O O4 0.106208 0.717793 0.953573
O O5 0.500000 0.087318 0.636700
O O6 0.583930 0.000000 0.500000
O O7 0.654976 0.037557 0.653723
O O8 0.272499 0.575862 0.428591
O O9 0.756677 0.394375 0.750000
#
# Coordination Sequence:
#
# PCOD8260462 Si02
#       4
#    16  16   8  16
#     4  10  21  40  63  85 118 164 207 246 301 367
#     4   8  15  32  56  82 112 148 195 247 292 344
#     4  12  23  40  59  94 126 162 196 256 309 364
#     4  11  22  36  62  92 123 160 204 256 307 358
#
# _framework density 20.468964
#
# number of rings (size 3 to 8) (size 9 to 14) (size 15 to 20)
#    0.000    2.000    4.286    3.857    0.000    3.429 
#    0.000    0.000    0.000    4.286    0.000    0.000 
#    0.000    0.000    0.000    0.000    0.000    0.000 
#
# Total GULP energy -347013.596570 kJ/mol
# GULP energy per Si atom -12393.342735 kJ/mol
# Density = 2.042238 g / cm^3
# Si number density = 20.468964 Si / 1000 Ang^3
#
#
#
# Elastic Constant Matrix: (Units=GPa)
#
#
# Indices 1 2 3 4 5 6 
#
# 1 70.5008 36.3407 23.0552 0.0000 0.0000 0.0000
# 2 36.3407 85.4065 14.9751 0.0000 0.0000 0.0000
# 3 23.0552 14.9751 90.1304 0.0000 0.0000 0.0000
# 4 0.0000 0.0000 0.0000 13.5918 0.0000 0.0000
# 5 0.0000 0.0000 0.0000 0.0000 -0.3112 0.0000
# 6 0.0000 0.0000 0.0000 0.0000 0.0000 32.8599
#
#
#
# Elastic Compliance Matrix: (Units=1/GPa)
#
#
# Indices 1 2 3 4 5 6 
#
# 1 0.019284 -0.007561 -0.003677 0.000000 0.000000 0.000000
# 2 -0.007561 0.015024 -0.000562 0.000000 0.000000 0.000000
# 3 -0.003677 -0.000562 0.012129 0.000000 0.000000 0.000000
# 4 0.000000 0.000000 0.000000 0.073574 0.000000 0.000000
# 5 0.000000 0.000000 0.000000 0.000000 -3.213606 0.000000
# 6 0.000000 0.000000 0.000000 0.000000 0.000000 0.030432
#
#
# Mechanical properties :
#
#
# Convention : Reuss Voigt Hill
#
# Bulk Modulus (GPa) = 43.78652 43.86440 43.82546
# Shear Modulus (GPa) = -1.64910 20.67255 9.51173
#
# Velocity S-wave (km/s) = -0.89856 3.18141 2.15801
# Velocity P-wave (km/s) = 4.51238 5.91366 5.25989
#
# Compressibility (1/GPa) = 0.02283808
#
# Stress axis : x y z
#
# Youngs Moduli (GPa) = 51.85699 66.55851 82.44755
#
# Poissons Ratio (x) = 0.50323 0.30312
# Poissons Ratio (y) = 0.39207 0.04636
# Poissons Ratio (z) = 0.19066 0.03742
#
# Static dielectric constant tensor:
#      x y z
#    x 3.787440 0.000000 0.000000 
#    y 0.000000 3.803730 0.000000 
#    z 0.000000 0.000000 3.301020 
# 
# 
# High freq. dielectric constant tensor:
#      x y z
#    x 1.800480 0.000000 0.000000 
#    y 0.000000 1.791550 0.000000 
#    z 0.000000 0.000000 1.755160 
# 
# From -- ./inp_files/43361.got.cif
#   From: 2010.03.12/outbox.cif.g09.slc.cpg/sg63_22_cif.got.tgz:43361.got - 2010.04.10 19:34:48.
