data_PCOD8260016
_publ_section_title
;
Structure prediction by ZEFSAII (Michael W. Deem and Ramdas Pophale) SiO2 
 PCOD8260016
Probable space group: C M C M
;
_chemical_formula_sum "Si O2"
_cell_formula_units_Z 80
_cell_length_a 14.334314
_cell_length_b 27.036081
_cell_length_c 11.757599
_cell_angle_alpha 90.000000
_cell_angle_beta 90.000000
_cell_angle_gamma 90.000000
_cell_volume 4556.583118
_symmetry_space_group_name_H-M "C M C M"
_symmetry_group_IT_number 63
_symmetry_cell_setting 'orthorhombic'
loop_
_space_group_symop_operation_xyz
x,y,z
-x,-y,1/2+z
x,-y,-z
-x,y,1/2-z
-x,-y,-z
x,y,1/2-z
-x,y,z
x,-y,1/2+z
1/2+x,1/2+y,z
1/2-x,1/2-y,1/2+z
1/2+x,1/2-y,-z
1/2-x,1/2+y,1/2-z
1/2-x,1/2-y,-z
1/2+x,1/2+y,1/2-z
1/2-x,1/2+y,z
1/2+x,1/2-y,1/2+z
loop_
_atom_site_type_symbol
_atom_site_label
_atom_site_fract_x
_atom_site_fract_y
_atom_site_fract_z
Si Si1 0.000000 0.289719 0.623345
Si Si2 0.609783 0.389738 0.750000
Si Si3 0.608115 0.557758 0.482456
Si Si4 0.330776 0.214306 0.959815
Si Si5 0.500000 0.324760 0.125669
Si Si6 0.605615 0.278669 0.750000
Si Si7 0.309461 0.363413 0.383790
O O1 0.906109 0.302470 0.553908
O O2 0.000000 0.232517 0.644862
O O3 0.000000 0.315336 0.750000
O O4 0.500000 0.385425 0.750000
O O5 0.640669 0.421894 0.640505
O O6 0.655940 0.333522 0.750000
O O7 0.621213 0.500000 0.500000
O O8 0.500000 0.572407 0.508542
O O9 0.681196 0.580444 0.573769
O O10 0.376631 0.244106 0.857551
O O11 0.284819 0.162394 0.924435
O O12 0.250000 0.250000 0.000000
O O13 0.500000 0.351231 0.250000
O O14 0.596297 0.338333 0.060632
O O15 0.500000 0.294378 0.750000
O O16 0.311994 0.359153 0.250000
#
# Coordination Sequence:
#
# PCOD8260016 Si02
#       7
#     8   8  16  16   8   8  16
#     4  11  24  39  55  78 117 158 200 239 288 345
#     4   9  20  34  49  74 105 147 196 229 286 343
#     4  10  21  36  55  79 113 153 196 244 291 344
#     4  12  23  35  56  82 116 154 199 237 283 345
#     4   9  18  32  48  76 112 149 189 229 271 331
#     4  11  22  38  55  79 119 161 190 236 288 344
#     4  11  21  35  56  82 113 153 197 237 284 337
#
# _framework density 17.557015
#
# number of rings (size 3 to 8) (size 9 to 14) (size 15 to 20)
#    0.000    1.400    5.000    1.200    2.800    0.000 
#    1.800    0.000    0.000    0.000    0.000    0.700 
#    0.000    0.000    0.000    0.000    0.000    0.000 
#
# Total GULP energy -495537.722210 kJ/mol
# GULP energy per Si atom -12388.443055 kJ/mol
# Density = 1.751705 g / cm^3
# Si number density = 17.557015 Si / 1000 Ang^3
#
#
#
# Elastic Constant Matrix: (Units=GPa)
#
#
# Indices 1 2 3 4 5 6 
#
# 1 89.9637 40.7770 51.9270 0.0000 0.0000 0.0000
# 2 40.7770 102.1435 41.8793 0.0000 0.0000 0.0000
# 3 51.9270 41.8793 93.7281 0.0000 0.0000 0.0000
# 4 0.0000 0.0000 0.0000 181.0314 0.0000 0.0000
# 5 0.0000 0.0000 0.0000 0.0000 87.8505 0.0000
# 6 0.0000 0.0000 0.0000 0.0000 0.0000 19.4747
#
#
#
# Elastic Compliance Matrix: (Units=1/GPa)
#
#
# Indices 1 2 3 4 5 6 
#
# 1 0.017393 -0.003664 -0.007999 0.000000 0.000000 0.000000
# 2 -0.003664 0.012758 -0.003670 0.000000 0.000000 0.000000
# 3 -0.007999 -0.003670 0.016741 0.000000 0.000000 0.000000
# 4 0.000000 0.000000 0.000000 0.005524 0.000000 0.000000
# 5 0.000000 0.000000 0.000000 0.000000 0.011383 0.000000
# 6 0.000000 0.000000 0.000000 0.000000 0.000000 0.051349
#
#
# Mechanical properties :
#
#
# Convention : Reuss Voigt Hill
#
# Bulk Modulus (GPa) = 61.63382 61.66686 61.65034
# Shear Modulus (GPa) = 33.06371 67.75478 50.40924
#
# Velocity S-wave (km/s) = 4.34432 6.21893 5.36415
# Velocity P-wave (km/s) = 7.76822 9.31487 8.57648
#
# Compressibility (1/GPa) = 0.01622486
#
# Stress axis : x y z
#
# Youngs Moduli (GPa) = 57.49293 78.38360 59.73419
#
# Poissons Ratio (x) = 0.28720 0.47782
# Poissons Ratio (y) = 0.21065 0.21925
# Poissons Ratio (z) = 0.45989 0.28770
#
# Static dielectric constant tensor:
#      x y z
#    x 3.391890 0.000000 0.000000 
#    y 0.000000 3.200850 0.000000 
#    z 0.000000 0.000000 3.646830 
# 
# 
# High freq. dielectric constant tensor:
#      x y z
#    x 1.648730 0.000000 0.000000 
#    y 0.000000 1.657230 0.000000 
#    z 0.000000 0.000000 1.693630 
# 
# From -- ./inp_files/19738.got.cif
#   From: 2010.03.12/outbox.cif.g09.slc.cpg/sg63_10_cif.got.tgz:19738.got - 2010.04.10 19:34:48.
