data_PCOD8260222
_publ_section_title
;
Structure prediction by ZEFSAII (Michael W. Deem and Ramdas Pophale) SiO2 
 PCOD8260222
Probable space group: C M C M
;
_chemical_formula_sum "Si O2"
_cell_formula_units_Z 96
_cell_length_a 22.898140
_cell_length_b 11.543890
_cell_length_c 18.450517
_cell_angle_alpha 90.000000
_cell_angle_beta 90.000000
_cell_angle_gamma 90.000000
_cell_volume 4877.091753
_symmetry_space_group_name_H-M "C M C M"
_symmetry_group_IT_number 63
_symmetry_cell_setting 'orthorhombic'
loop_
_space_group_symop_operation_xyz
x,y,z
-x,-y,1/2+z
x,-y,-z
-x,y,1/2-z
-x,-y,-z
x,y,1/2-z
-x,y,z
x,-y,1/2+z
1/2+x,1/2+y,z
1/2-x,1/2-y,1/2+z
1/2+x,1/2-y,-z
1/2-x,1/2+y,1/2-z
1/2-x,1/2-y,-z
1/2+x,1/2+y,1/2-z
1/2-x,1/2+y,z
1/2+x,1/2-y,1/2+z
loop_
_atom_site_type_symbol
_atom_site_label
_atom_site_fract_x
_atom_site_fract_y
_atom_site_fract_z
Si Si1 0.435862 0.820927 0.893460
Si Si2 0.862342 0.531738 0.920535
Si Si3 0.844634 0.961524 0.920971
Si Si4 0.842408 0.184341 0.670233
Si Si5 0.068588 0.759534 0.945870
Si Si6 0.267686 0.897041 0.663655
O O1 0.500000 0.819407 0.862762
O O2 0.398641 0.766623 0.828739
O O3 0.418729 0.952902 0.907356
O O4 0.428971 0.748411 0.967583
O O5 0.888436 0.661155 0.911961
O O6 0.810124 0.501310 0.864213
O O7 0.836989 0.500000 0.000000
O O8 0.902961 0.882330 0.922756
O O9 0.793600 0.898495 0.877149
O O10 0.858488 0.079898 0.880905
O O11 0.822846 0.000000 0.000000
O O12 0.828395 0.136607 0.750000
O O13 0.790555 0.268545 0.642788
O O14 0.000000 0.751911 0.919915
O O15 0.260710 0.912333 0.750000
#
# Coordination Sequence:
#
# PCOD8260222 Si02
#       6
#    16  16  16  16  16  16
#     4   9  17  34  60  88 118 152 195 246 296 344
#     4   9  18  36  62  94 119 152 199 250 298 350
#     4  12  24  38  60  89 120 162 203 249 298 360
#     4  10  22  40  57  84 118 154 201 245 302 365
#     4  10  21  37  60  91 125 158 197 245 298 352
#     4  10  23  41  62  85 118 157 200 255 308 360
#
# _framework density 19.683862000000001
#
# number of rings (size 3 to 8) (size 9 to 14) (size 15 to 20)
#    0.000    2.000    1.667    1.500    2.333    4.000 
#    0.000    0.833    0.000    5.000    0.000    0.000 
#    0.000    0.000    0.000    0.000    0.000    0.000 
#
# Total GULP energy -594794.641653 kJ/mol
# GULP energy per Si atom -12391.555034 kJ/mol
# Density = 1.963906 g / cm^3
# Si number density = 19.683862 Si / 1000 Ang^3
#
#
#
# Elastic Constant Matrix: (Units=GPa)
#
#
# Indices 1 2 3 4 5 6 
#
# 1 99.5825 28.2560 27.1378 0.0000 0.0000 0.0000
# 2 28.2560 102.7805 37.6444 0.0000 0.0000 0.0000
# 3 27.1378 37.6444 64.3804 0.0000 0.0000 0.0000
# 4 0.0000 0.0000 0.0000 25.9636 0.0000 0.0000
# 5 0.0000 0.0000 0.0000 0.0000 12.1069 0.0000
# 6 0.0000 0.0000 0.0000 0.0000 0.0000 22.1261
#
#
#
# Elastic Compliance Matrix: (Units=1/GPa)
#
#
# Indices 1 2 3 4 5 6 
#
# 1 0.011595 -0.001778 -0.003848 0.000000 0.000000 0.000000
# 2 -0.001778 0.012654 -0.006649 0.000000 0.000000 0.000000
# 3 -0.003848 -0.006649 0.021043 0.000000 0.000000 0.000000
# 4 0.000000 0.000000 0.000000 0.038516 0.000000 0.000000
# 5 0.000000 0.000000 0.000000 0.000000 0.082598 0.000000
# 6 0.000000 0.000000 0.000000 0.000000 0.000000 0.045196
#
#
# Mechanical properties :
#
#
# Convention : Reuss Voigt Hill
#
# Bulk Modulus (GPa) = 48.21460 50.31331 49.26395
# Shear Modulus (GPa) = 20.57069 23.61965 22.09517
#
# Velocity S-wave (km/s) = 3.23624 3.46779 3.35401
# Velocity P-wave (km/s) = 6.20580 6.45370 6.33096
#
# Compressibility (1/GPa) = 0.02074061
#
# Stress axis : x y z
#
# Youngs Moduli (GPa) = 86.24327 79.02798 47.52282
#
# Poissons Ratio (x) = 0.14054 0.18286
# Poissons Ratio (y) = 0.15338 0.31599
# Poissons Ratio (z) = 0.33184 0.52548
#
# Static dielectric constant tensor:
#      x y z
#    x 3.564610 0.000000 0.000000 
#    y 0.000000 3.593970 0.000000 
#    z 0.000000 0.000000 3.436010 
# 
# 
# High freq. dielectric constant tensor:
#      x y z
#    x 1.767620 0.000000 0.000000 
#    y 0.000000 1.771620 0.000000 
#    z 0.000000 0.000000 1.752270 
# 
# From -- ./inp_files/47958.got.cif
#   From: 2010.03.12/outbox.cif.g09.slc.cpg/sg63_24_cif.got.tgz:47958.got - 2010.04.10 19:34:48.
