data_PCOD8260994
_publ_section_title
;
Structure prediction by ZEFSAII (Michael W. Deem and Ramdas Pophale) SiO2 
 PCOD8260994
Probable space group: C M C M
;
_chemical_formula_sum "Si O2"
_cell_formula_units_Z 96
_cell_length_a 9.164932
_cell_length_b 25.026223
_cell_length_c 24.274229
_cell_angle_alpha 90.000000
_cell_angle_beta 90.000000
_cell_angle_gamma 90.000000
_cell_volume 5567.625328
_symmetry_space_group_name_H-M "C M C M"
_symmetry_group_IT_number 63
_symmetry_cell_setting 'orthorhombic'
loop_
_space_group_symop_operation_xyz
x,y,z
-x,-y,1/2+z
x,-y,-z
-x,y,1/2-z
-x,-y,-z
x,y,1/2-z
-x,y,z
x,-y,1/2+z
1/2+x,1/2+y,z
1/2-x,1/2-y,1/2+z
1/2+x,1/2-y,-z
1/2-x,1/2+y,1/2-z
1/2-x,1/2-y,-z
1/2+x,1/2+y,1/2-z
1/2-x,1/2+y,z
1/2+x,1/2-y,1/2+z
loop_
_atom_site_type_symbol
_atom_site_label
_atom_site_fract_x
_atom_site_fract_y
_atom_site_fract_z
Si Si1 0.664375 0.872257 0.121358
Si Si2 0.168461 0.215195 0.813027
Si Si3 0.666455 0.838301 0.686163
Si Si4 0.834838 0.585736 0.507940
Si Si5 0.330557 0.530840 0.595365
Si Si6 0.169055 0.909233 0.898616
O O1 0.500000 0.878745 0.143780
O O2 0.733782 0.819712 0.146778
O O3 0.665316 0.867030 0.054353
O O4 0.755691 0.926237 0.137274
O O5 0.208077 0.201667 0.750000
O O6 0.202838 0.276703 0.825917
O O7 0.000000 0.202436 0.824398
O O8 0.691143 0.851333 0.750000
O O9 0.500000 0.850926 0.669226
O O10 0.776323 0.874535 0.652124
O O11 0.746233 0.535861 0.535066
O O12 0.756428 0.607132 0.453400
O O13 0.000000 0.567944 0.493902
O O14 0.500000 0.544821 0.589341
O O15 0.304796 0.471130 0.617156
O O16 0.000000 0.897358 0.909330
#
# Coordination Sequence:
#
# PCOD8260994 Si02
#       6
#    16  16  16  16  16  16
#     4   9  19  32  50  78 105 133 169 210 256 302
#     4   9  18  35  58  78  97 130 173 214 261 312
#     4   9  20  38  57  76 100 133 173 215 259 308
#     4   9  19  32  50  78 108 138 173 210 253 306
#     4   9  18  32  50  75 107 138 170 207 249 299
#     4  11  21  32  52  80 106 139 176 210 254 306
#
# _framework density 17.242538
#
# number of rings (size 3 to 8) (size 9 to 14) (size 15 to 20)
#    1.000    1.667    0.000    3.000    0.000    6.000 
#    0.000    3.333    0.000    1.000    0.000    0.000 
#    0.000    0.000    0.000    0.000    0.000    0.000 
#
# Total GULP energy -594870.783217 kJ/mol
# GULP energy per Si atom -12393.141317 kJ/mol
# Density = 1.720329 g / cm^3
# Si number density = 17.242538 Si / 1000 Ang^3
#
#
#
# Elastic Constant Matrix: (Units=GPa)
#
#
# Indices 1 2 3 4 5 6 
#
# 1 142.1006 69.5492 56.9847 0.0000 0.0000 0.0000
# 2 69.5492 87.3349 58.3642 0.0000 0.0000 0.0000
# 3 56.9847 58.3642 58.3987 0.0000 0.0000 0.0000
# 4 0.0000 0.0000 0.0000 32.8261 0.0000 0.0000
# 5 0.0000 0.0000 0.0000 0.0000 29.7775 0.0000
# 6 0.0000 0.0000 0.0000 0.0000 0.0000 30.9451
#
#
#
# Elastic Compliance Matrix: (Units=1/GPa)
#
#
# Indices 1 2 3 4 5 6 
#
# 1 0.012342 -0.005361 -0.006686 0.000000 0.000000 0.000000
# 2 -0.005361 0.036805 -0.031552 0.000000 0.000000 0.000000
# 3 -0.006686 -0.031552 0.055181 0.000000 0.000000 0.000000
# 4 0.000000 0.000000 0.000000 0.030464 0.000000 0.000000
# 5 0.000000 0.000000 0.000000 0.000000 0.033582 0.000000
# 6 0.000000 0.000000 0.000000 0.000000 0.000000 0.032315
#
#
# Mechanical properties :
#
#
# Convention : Reuss Voigt Hill
#
# Bulk Modulus (GPa) = 58.37455 73.07006 65.72231
# Shear Modulus (GPa) = 17.03017 25.57217 21.30117
#
# Velocity S-wave (km/s) = 3.14615 3.85526 3.51862
# Velocity P-wave (km/s) = 6.86485 7.89222 7.39640
#
# Compressibility (1/GPa) = 0.01713075
#
# Stress axis : x y z
#
# Youngs Moduli (GPa) = 81.02378 27.17032 18.12217
#
# Poissons Ratio (x) = 0.14565 0.12116
# Poissons Ratio (y) = 0.43434 0.57179
# Poissons Ratio (z) = 0.54170 0.85728
#
# Static dielectric constant tensor:
#      x y z
#    x 3.293410 0.000000 0.000000 
#    y 0.000000 2.995070 0.000000 
#    z 0.000000 0.000000 2.965540 
# 
# 
# High freq. dielectric constant tensor:
#      x y z
#    x 1.680540 0.000000 0.000000 
#    y 0.000000 1.650690 0.000000 
#    z 0.000000 0.000000 1.644950 
# 
# From -- ./inp_files/59924.got.cif
#   From: 2010.03.12/outbox.cif.g09.slc.cpg/sg63_30_cif.got.tgz:59924.got - 2010.04.10 19:34:48.
