data_PCOD8260292
_publ_section_title
;
Structure prediction by ZEFSAII (Michael W. Deem and Ramdas Pophale) SiO2 
 PCOD8260292
Probable space group: C M C M
;
_chemical_formula_sum "Si O2"
_cell_formula_units_Z 96
_cell_length_a 18.453843
_cell_length_b 28.824636
_cell_length_c 8.832788
_cell_angle_alpha 90.000000
_cell_angle_beta 90.000000
_cell_angle_gamma 90.000000
_cell_volume 4698.383471
_symmetry_space_group_name_H-M "C M C M"
_symmetry_group_IT_number 63
_symmetry_cell_setting 'orthorhombic'
loop_
_space_group_symop_operation_xyz
x,y,z
-x,-y,1/2+z
x,-y,-z
-x,y,1/2-z
-x,-y,-z
x,y,1/2-z
-x,y,z
x,-y,1/2+z
1/2+x,1/2+y,z
1/2-x,1/2-y,1/2+z
1/2+x,1/2-y,-z
1/2-x,1/2+y,1/2-z
1/2-x,1/2-y,-z
1/2+x,1/2+y,1/2-z
1/2-x,1/2+y,z
1/2+x,1/2-y,1/2+z
loop_
_atom_site_type_symbol
_atom_site_label
_atom_site_fract_x
_atom_site_fract_y
_atom_site_fract_z
Si Si1 0.823004 0.192108 0.578071
Si Si2 0.363821 0.544201 0.925432
Si Si3 0.921166 0.874571 0.917354
Si Si4 0.828857 0.645138 0.924797
Si Si5 0.082461 0.281114 0.576618
Si Si6 0.791695 0.548601 0.430334
O O1 0.843086 0.176797 0.750000
O O2 0.862950 0.163997 0.448986
O O3 0.738852 0.180551 0.547228
O O4 0.852569 0.243943 0.550048
O O5 0.346213 0.537186 0.750000
O O6 0.402762 0.500000 0.000000
O O7 0.417579 0.586472 0.953137
O O8 0.290748 0.553811 0.017373
O O9 0.907115 0.895545 0.750000
O O10 0.000000 0.851361 0.927551
O O11 0.834483 0.631849 0.750000
O O12 0.899399 0.673741 0.976582
O O13 0.829424 0.596029 0.013351
O O14 0.084147 0.296775 0.750000
O O15 0.000000 0.263689 0.535506
O O16 0.823908 0.500000 0.500000
O O17 0.797803 0.545509 0.250000
#
# Coordination Sequence:
#
# PCOD8260292 Si02
#       6
#    16  16  16  16  16  16
#     4  10  21  38  60  85 116 156 202 249 295 350
#     4  11  21  35  54  76 106 146 192 242 298 353
#     4  11  23  36  52  77 110 151 198 246 297 352
#     4  11  22  37  61  93 123 157 202 248 298 355
#     4  10  22  40  61  87 121 162 204 247 301 359
#     4  11  21  36  60  89 122 156 194 244 298 352
#
# _framework density 20.432558
#
# number of rings (size 3 to 8) (size 9 to 14) (size 15 to 20)
#    0.000    1.333    1.667    6.000    0.000    4.000 
#    0.000    0.000    0.000    0.500    0.000    0.000 
#    0.000    0.000    0.000    0.000    0.000    0.000 
#
# Total GULP energy -594694.736669 kJ/mol
# GULP energy per Si atom -12389.473681 kJ/mol
# Density = 2.038605 g / cm^3
# Si number density = 20.432558 Si / 1000 Ang^3
#
#
#
# Elastic Constant Matrix: (Units=GPa)
#
#
# Indices 1 2 3 4 5 6 
#
# 1 50.1862 36.6287 26.6888 0.0000 0.0000 0.0000
# 2 36.6287 111.6084 55.9939 0.0000 0.0000 0.0000
# 3 26.6888 55.9939 125.2266 0.0000 0.0000 0.0000
# 4 0.0000 0.0000 0.0000 38.6129 0.0000 0.0000
# 5 0.0000 0.0000 0.0000 0.0000 24.1749 0.0000
# 6 0.0000 0.0000 0.0000 0.0000 0.0000 76.6335
#
#
#
# Elastic Compliance Matrix: (Units=1/GPa)
#
#
# Indices 1 2 3 4 5 6 
#
# 1 0.026700 -0.007616 -0.002285 0.000000 0.000000 0.000000
# 2 -0.007616 0.013724 -0.004513 0.000000 0.000000 0.000000
# 3 -0.002285 -0.004513 0.010491 0.000000 0.000000 0.000000
# 4 0.000000 0.000000 0.000000 0.025898 0.000000 0.000000
# 5 0.000000 0.000000 0.000000 0.000000 0.041365 0.000000
# 6 0.000000 0.000000 0.000000 0.000000 0.000000 0.013049
#
#
# Mechanical properties :
#
#
# Convention : Reuss Voigt Hill
#
# Bulk Modulus (GPa) = 45.27891 58.40486 51.84189
# Shear Modulus (GPa) = 29.86559 39.06491 34.46525
#
# Velocity S-wave (km/s) = 3.82732 4.37727 4.11150
# Velocity P-wave (km/s) = 6.46061 7.36163 6.92579
#
# Compressibility (1/GPa) = 0.02208533
#
# Stress axis : x y z
#
# Youngs Moduli (GPa) = 37.45372 72.86632 95.32412
#
# Poissons Ratio (x) = 0.55497 0.21780
# Poissons Ratio (y) = 0.28526 0.43022
# Poissons Ratio (z) = 0.08557 0.32886
#
# Static dielectric constant tensor:
#      x y z
#    x 3.449740 0.000000 0.000000 
#    y 0.000000 4.270720 0.000000 
#    z 0.000000 0.000000 3.773460 
# 
# 
# High freq. dielectric constant tensor:
#      x y z
#    x 1.764690 0.000000 0.000000 
#    y 0.000000 1.801970 0.000000 
#    z 0.000000 0.000000 1.809690 
# 
# From -- ./inp_files/8590.got.cif
#   From: 2010.03.12/outbox.cif.g09.slc.cpg/sg63_5_cif.got.tgz:8590.got - 2010.04.10 19:34:48.
