data_PCOD8260028
_publ_section_title
;
Structure prediction by ZEFSAII (Michael W. Deem and Ramdas Pophale) SiO2 
 PCOD8260028
Probable space group: C M C M
;
_chemical_formula_sum "Si O2"
_cell_formula_units_Z 72
_cell_length_a 21.471724
_cell_length_b 17.711089
_cell_length_c 9.286031
_cell_angle_alpha 90.000000
_cell_angle_beta 90.000000
_cell_angle_gamma 90.000000
_cell_volume 3531.362579
_symmetry_space_group_name_H-M "C M C M"
_symmetry_group_IT_number 63
_symmetry_cell_setting 'orthorhombic'
loop_
_space_group_symop_operation_xyz
x,y,z
-x,-y,1/2+z
x,-y,-z
-x,y,1/2-z
-x,-y,-z
x,y,1/2-z
-x,y,z
x,-y,1/2+z
1/2+x,1/2+y,z
1/2-x,1/2-y,1/2+z
1/2+x,1/2-y,-z
1/2-x,1/2+y,1/2-z
1/2-x,1/2-y,-z
1/2+x,1/2+y,1/2-z
1/2-x,1/2+y,z
1/2+x,1/2-y,1/2+z
loop_
_atom_site_type_symbol
_atom_site_label
_atom_site_fract_x
_atom_site_fract_y
_atom_site_fract_z
Si Si1 0.758508 0.072847 0.081913
Si Si2 0.632282 0.356382 0.417249
Si Si3 0.500000 0.578129 0.916678
Si Si4 0.147645 0.683653 0.415206
Si Si5 0.426337 0.070822 0.910947
O O1 0.765824 0.054796 0.250000
O O2 0.713793 0.144277 0.054063
O O3 0.826055 0.089474 0.015340
O O4 0.730308 0.000000 0.000000
O O5 0.645900 0.373667 0.250000
O O6 0.560308 0.371780 0.456364
O O7 0.650990 0.271068 0.456239
O O8 0.500000 0.556769 0.750000
O O9 0.500000 0.500000 0.000000
O O10 0.127142 0.672747 0.250000
O O11 0.094722 0.647758 0.514570
O O12 0.398765 0.065637 0.750000
O O13 0.500000 0.069732 0.907349
O O14 0.399650 0.000000 0.000000
#
# Coordination Sequence:
#
# PCOD8260028 Si02
#       5
#    16  16   8  16  16
#     4  11  23  39  60  88 119 156 199 245 297 355
#     4  10  22  40  62  89 119 155 198 245 299 356
#     4  10  22  40  62  88 117 152 197 242 289 348
#     4  10  22  38  60  88 119 155 196 242 300 357
#     4  10  21  36  55  82 116 156 202 248 295 349
#
# _framework density 20.388729000000001
#
# number of rings (size 3 to 8) (size 9 to 14) (size 15 to 20)
#    0.000    1.778    0.000    3.333    1.556    8.444 
#    0.000    0.000    0.000    0.000    0.000    0.000 
#    0.000    0.000    0.000    0.000    0.000    0.000 
#
# Total GULP energy -446578.285061 kJ/mol
# GULP energy per Si atom -12404.952363 kJ/mol
# Density = 2.034232 g / cm^3
# Si number density = 20.388729 Si / 1000 Ang^3
#
#
#
# Elastic Constant Matrix: (Units=GPa)
#
#
# Indices 1 2 3 4 5 6 
#
# 1 82.0209 50.7725 41.3611 0.0000 0.0000 0.0000
# 2 50.7725 120.9229 60.5978 0.0000 0.0000 0.0000
# 3 41.3611 60.5978 109.2627 0.0000 0.0000 0.0000
# 4 0.0000 0.0000 0.0000 36.7902 0.0000 0.0000
# 5 0.0000 0.0000 0.0000 0.0000 32.7408 0.0000
# 6 0.0000 0.0000 0.0000 0.0000 0.0000 36.3134
#
#
#
# Elastic Compliance Matrix: (Units=1/GPa)
#
#
# Indices 1 2 3 4 5 6 
#
# 1 0.017394 -0.005545 -0.003509 0.000000 0.000000 0.000000
# 2 -0.005545 0.013220 -0.005233 0.000000 0.000000 0.000000
# 3 -0.003509 -0.005233 0.013383 0.000000 0.000000 0.000000
# 4 0.000000 0.000000 0.000000 0.027181 0.000000 0.000000
# 5 0.000000 0.000000 0.000000 0.000000 0.030543 0.000000
# 6 0.000000 0.000000 0.000000 0.000000 0.000000 0.027538
#
#
# Mechanical properties :
#
#
# Convention : Reuss Voigt Hill
#
# Bulk Modulus (GPa) = 64.83826 68.62994 66.73410
# Shear Modulus (GPa) = 30.67964 31.80054 31.24009
#
# Velocity S-wave (km/s) = 3.88330 3.95360 3.91861
# Velocity P-wave (km/s) = 7.20949 7.38750 7.29904
#
# Compressibility (1/GPa) = 0.01542299
#
# Stress axis : x y z
#
# Youngs Moduli (GPa) = 57.49135 75.64154 74.72159
#
# Poissons Ratio (x) = 0.41941 0.26222
# Poissons Ratio (y) = 0.31877 0.39103
# Poissons Ratio (z) = 0.20176 0.39584
#
# Static dielectric constant tensor:
#      x y z
#    x 3.623510 0.000000 0.000000 
#    y 0.000000 3.783950 0.000000 
#    z 0.000000 0.000000 3.793280 
# 
# 
# High freq. dielectric constant tensor:
#      x y z
#    x 1.799820 0.000000 0.000000 
#    y 0.000000 1.801490 0.000000 
#    z 0.000000 0.000000 1.799310 
# 
# From -- ./inp_files/9826.got.cif
#   From: 2010.03.12/outbox.cif.g09.slc.cpg/sg63_5_cif.got.tgz:9826.got - 2010.04.10 19:34:48.
