data_PCOD8260733
_publ_section_title
;
Structure prediction by ZEFSAII (Michael W. Deem and Ramdas Pophale) SiO2 
 PCOD8260733
Probable space group: C M C M
;
_chemical_formula_sum "Si O2"
_cell_formula_units_Z 88
_cell_length_a 13.244199
_cell_length_b 17.494741
_cell_length_c 19.362202
_cell_angle_alpha 90.000000
_cell_angle_beta 90.000000
_cell_angle_gamma 90.000000
_cell_volume 4486.296385
_symmetry_space_group_name_H-M "C M C M"
_symmetry_group_IT_number 63
_symmetry_cell_setting 'orthorhombic'
loop_
_space_group_symop_operation_xyz
x,y,z
-x,-y,1/2+z
x,-y,-z
-x,y,1/2-z
-x,-y,-z
x,y,1/2-z
-x,y,z
x,-y,1/2+z
1/2+x,1/2+y,z
1/2-x,1/2-y,1/2+z
1/2+x,1/2-y,-z
1/2-x,1/2+y,1/2-z
1/2-x,1/2-y,-z
1/2+x,1/2+y,1/2-z
1/2-x,1/2+y,z
1/2+x,1/2-y,1/2+z
loop_
_atom_site_type_symbol
_atom_site_label
_atom_site_fract_x
_atom_site_fract_y
_atom_site_fract_z
Si Si1 0.707666 0.421336 0.170897
Si Si2 0.500000 0.929710 0.553245
Si Si3 0.383617 0.196613 0.670699
Si Si4 0.218476 0.455974 0.928670
Si Si5 0.676007 0.297938 0.954345
Si Si6 0.000000 0.747483 0.460290
Si Si7 0.500000 0.334103 0.329412
O O1 0.709210 0.445979 0.250000
O O2 0.805865 0.370811 0.152675
O O3 0.717932 0.497880 0.127176
O O4 0.601239 0.381521 0.153435
O O5 0.396379 0.936907 0.597495
O O6 0.500000 0.843143 0.519525
O O7 0.500000 0.000000 0.500000
O O8 0.368800 0.223705 0.750000
O O9 0.500000 0.169791 0.658322
O O10 0.355085 0.265433 0.620423
O O11 0.280231 0.380225 0.940896
O O12 0.210095 0.500000 0.000000
O O13 0.750000 0.250000 0.000000
O O14 0.585360 0.299001 0.006698
O O15 0.000000 0.757993 0.376996
O O16 0.500000 0.306623 0.250000
#
# Coordination Sequence:
#
# PCOD8260733 Si02
#       7
#    16   8  16  16  16   8   8
#     4  10  23  42  66  92 126 169 210 260 320 387
#     4  10  24  38  59  93 126 165 200 256 320 369
#     4  10  22  41  65  93 126 167 214 263 319 382
#     4  11  23  39  61  91 125 162 204 258 317 375
#     4  12  23  38  62  94 126 164 211 264 313 379
#     4  12  22  39  63  96 121 167 218 259 315 375
#     4  10  22  43  67  91 128 174 215 259 316 386
#
# _framework density 19.615289000000001
#
# number of rings (size 3 to 8) (size 9 to 14) (size 15 to 20)
#    0.000    1.273    2.727    3.273    3.818    1.455 
#    0.000    2.727    0.000    0.000    0.000    0.000 
#    0.000    0.000    0.000    0.000    0.000    0.000 
#
# Total GULP energy -545158.539813 kJ/mol
# GULP energy per Si atom -12389.966814 kJ/mol
# Density = 1.957064 g / cm^3
# Si number density = 19.615289 Si / 1000 Ang^3
#
#
#
# Elastic Constant Matrix: (Units=GPa)
#
#
# Indices 1 2 3 4 5 6 
#
# 1 167.4759 67.4898 48.1847 0.0000 0.0000 0.0000
# 2 67.4898 133.2827 62.8820 0.0000 0.0000 0.0000
# 3 48.1847 62.8820 102.6349 0.0000 0.0000 0.0000
# 4 0.0000 0.0000 0.0000 41.0523 0.0000 0.0000
# 5 0.0000 0.0000 0.0000 0.0000 24.8736 0.0000
# 6 0.0000 0.0000 0.0000 0.0000 0.0000 45.3410
#
#
#
# Elastic Compliance Matrix: (Units=1/GPa)
#
#
# Indices 1 2 3 4 5 6 
#
# 1 0.007714 -0.003091 -0.001728 0.000000 0.000000 0.000000
# 2 -0.003091 0.011792 -0.005774 0.000000 0.000000 0.000000
# 3 -0.001728 -0.005774 0.014092 0.000000 0.000000 0.000000
# 4 0.000000 0.000000 0.000000 0.024359 0.000000 0.000000
# 5 0.000000 0.000000 0.000000 0.000000 0.040203 0.000000
# 6 0.000000 0.000000 0.000000 0.000000 0.000000 0.022055
#
#
# Mechanical properties :
#
#
# Convention : Reuss Voigt Hill
#
# Bulk Modulus (GPa) = 80.56006 84.50073 82.53039
# Shear Modulus (GPa) = 34.35566 37.24250 35.79908
#
# Velocity S-wave (km/s) = 4.18960 4.36207 4.27671
# Velocity P-wave (km/s) = 8.03510 8.27906 8.15799
#
# Compressibility (1/GPa) = 0.01241310
#
# Stress axis : x y z
#
# Youngs Moduli (GPa) = 129.64065 84.80438 70.96372
#
# Poissons Ratio (x) = 0.26211 0.12261
# Poissons Ratio (y) = 0.40069 0.40971
# Poissons Ratio (z) = 0.22398 0.48962
#
# Static dielectric constant tensor:
#      x y z
#    x 4.058870 0.000000 0.000000 
#    y 0.000000 3.178760 0.000000 
#    z 0.000000 0.000000 3.655440 
# 
# 
# High freq. dielectric constant tensor:
#      x y z
#    x 1.796070 0.000000 0.000000 
#    y 0.000000 1.748960 0.000000 
#    z 0.000000 0.000000 1.763380 
# 
# From -- ./inp_files/52592.got.cif
#   From: 2010.03.12/outbox.cif.g09.slc.cpg/sg63_27_cif.got.tgz:52592.got - 2010.04.10 19:34:48.
