data_PCOD8260180
_publ_section_title
;
Structure prediction by ZEFSAII (Michael W. Deem and Ramdas Pophale) SiO2 
 PCOD8260180
Probable space group: C M C M
;
_chemical_formula_sum "Si O2"
_cell_formula_units_Z 96
_cell_length_a 28.766209
_cell_length_b 10.438053
_cell_length_c 15.752826
_cell_angle_alpha 90.000000
_cell_angle_beta 90.000000
_cell_angle_gamma 90.000000
_cell_volume 4729.994167
_symmetry_space_group_name_H-M "C M C M"
_symmetry_group_IT_number 63
_symmetry_cell_setting 'orthorhombic'
loop_
_space_group_symop_operation_xyz
x,y,z
-x,-y,1/2+z
x,-y,-z
-x,y,1/2-z
-x,-y,-z
x,y,1/2-z
-x,y,z
x,-y,1/2+z
1/2+x,1/2+y,z
1/2-x,1/2-y,1/2+z
1/2+x,1/2-y,-z
1/2-x,1/2+y,1/2-z
1/2-x,1/2-y,-z
1/2+x,1/2+y,1/2-z
1/2-x,1/2+y,z
1/2+x,1/2-y,1/2+z
loop_
_atom_site_type_symbol
_atom_site_label
_atom_site_fract_x
_atom_site_fract_y
_atom_site_fract_z
Si Si1 0.553123 0.502823 0.099946
Si Si2 0.281671 0.008760 0.098017
Si Si3 0.775391 0.766311 0.909090
Si Si4 0.875239 0.219699 0.151826
Si Si5 0.382698 0.008051 0.150924
Si Si6 0.551179 0.773500 0.650695
O O1 0.500000 0.523737 0.132600
O O2 0.585108 0.615799 0.135170
O O3 0.573206 0.366236 0.132329
O O4 0.554964 0.500000 0.000000
O O5 0.271343 0.869880 0.140667
O O6 0.250793 0.120136 0.141650
O O7 0.335237 0.044978 0.104616
O O8 0.267309 0.000000 0.000000
O O9 0.830575 0.801618 0.910223
O O10 0.750000 0.750000 0.000000
O O11 0.859000 0.210856 0.250000
O O12 0.897143 0.360599 0.133363
O O13 0.375600 0.033231 0.250000
O O14 0.419622 0.108419 0.111517
O O15 0.547422 0.795644 0.750000
O O16 0.500000 0.778285 0.608433
#
# Coordination Sequence:
#
# PCOD8260180 Si02
#       6
#    16  16  16  16  16  16
#     4  10  22  38  56  82 116 151 187 232 286 344
#     4   9  18  32  50  71 100 137 176 217 269 325
#     4   9  19  34  51  75 105 140 181 226 279 336
#     4  10  21  37  58  84 113 147 192 241 285 338
#     4   9  19  34  52  77 106 137 177 226 276 328
#     4   9  18  34  55  79 109 145 185 228 277 336
#
# _framework density 20.296009000000002
#
# number of rings (size 3 to 8) (size 9 to 14) (size 15 to 20)
#    0.000    2.667    0.000    0.500    0.000    9.667 
#    0.000    1.667    0.000    3.500    0.000    0.000 
#    0.000    0.000    0.000    0.000    0.000    0.000 
#
# Total GULP energy -594722.883811 kJ/mol
# GULP energy per Si atom -12390.060079 kJ/mol
# Density = 2.024981 g / cm^3
# Si number density = 20.296009 Si / 1000 Ang^3
#
#
#
# Elastic Constant Matrix: (Units=GPa)
#
#
# Indices 1 2 3 4 5 6 
#
# 1 121.8896 113.4058 19.5665 0.0000 0.0000 0.0000
# 2 113.4058 208.0864 12.4696 0.0000 0.0000 0.0000
# 3 19.5665 12.4696 32.3843 0.0000 0.0000 0.0000
# 4 0.0000 0.0000 0.0000 13.5546 0.0000 0.0000
# 5 0.0000 0.0000 0.0000 0.0000 5.7400 0.0000
# 6 0.0000 0.0000 0.0000 0.0000 0.0000 56.9302
#
#
#
# Elastic Compliance Matrix: (Units=1/GPa)
#
#
# Indices 1 2 3 4 5 6 
#
# 1 0.018205 -0.009481 -0.007349 0.000000 0.000000 0.000000
# 2 -0.009481 0.009857 0.001933 0.000000 0.000000 0.000000
# 3 -0.007349 0.001933 0.034575 0.000000 0.000000 0.000000
# 4 0.000000 0.000000 0.000000 0.073776 0.000000 0.000000
# 5 0.000000 0.000000 0.000000 0.000000 0.174215 0.000000
# 6 0.000000 0.000000 0.000000 0.000000 0.000000 0.017565
#
#
# Mechanical properties :
#
#
# Convention : Reuss Voigt Hill
#
# Bulk Modulus (GPa) = 30.44764 72.58269 51.51516
# Shear Modulus (GPa) = 13.55252 29.70619 21.62935
#
# Velocity S-wave (km/s) = 2.58688 3.82991 3.26804
# Velocity P-wave (km/s) = 4.89458 7.44294 6.29898
#
# Compressibility (1/GPa) = 0.03284327
#
# Stress axis : x y z
#
# Youngs Moduli (GPa) = 54.92908 101.44914 28.92272
#
# Poissons Ratio (x) = 0.96188 0.21255
# Poissons Ratio (y) = 0.52080 -0.05591
# Poissons Ratio (z) = 0.40366 -0.19612
#
# Static dielectric constant tensor:
#      x y z
#    x 3.799060 0.000000 0.000000 
#    y 0.000000 4.656430 0.000000 
#    z 0.000000 0.000000 3.370560 
# 
# 
# High freq. dielectric constant tensor:
#      x y z
#    x 1.782410 0.000000 0.000000 
#    y 0.000000 1.816740 0.000000 
#    z 0.000000 0.000000 1.762410 
# 
# From -- ./inp_files/48056.got.cif
#   From: 2010.03.12/outbox.cif.g09.slc.cpg/sg63_25_cif.got.tgz:48056.got - 2010.04.10 19:34:48.
