data_PCOD8260538
_publ_section_title
;
Structure prediction by ZEFSAII (Michael W. Deem and Ramdas Pophale) SiO2 
 PCOD8260538
Probable space group: C M C M
;
_chemical_formula_sum "Si O2"
_cell_formula_units_Z 96
_cell_length_a 19.380012
_cell_length_b 11.018817
_cell_length_c 21.189213
_cell_angle_alpha 90.000000
_cell_angle_beta 90.000000
_cell_angle_gamma 90.000000
_cell_volume 4524.846373
_symmetry_space_group_name_H-M "C M C M"
_symmetry_group_IT_number 63
_symmetry_cell_setting 'orthorhombic'
loop_
_space_group_symop_operation_xyz
x,y,z
-x,-y,1/2+z
x,-y,-z
-x,y,1/2-z
-x,-y,-z
x,y,1/2-z
-x,y,z
x,-y,1/2+z
1/2+x,1/2+y,z
1/2-x,1/2-y,1/2+z
1/2+x,1/2-y,-z
1/2-x,1/2+y,1/2-z
1/2-x,1/2-y,-z
1/2+x,1/2+y,1/2-z
1/2-x,1/2+y,z
1/2+x,1/2-y,1/2+z
loop_
_atom_site_type_symbol
_atom_site_label
_atom_site_fract_x
_atom_site_fract_y
_atom_site_fract_z
Si Si1 0.335371 0.294493 0.367572
Si Si2 0.582372 0.722658 0.750000
Si Si3 0.920982 0.228875 0.353804
Si Si4 0.864595 0.041715 0.064118
Si Si5 0.081466 0.952278 0.750000
Si Si6 0.791723 0.424593 0.939267
Si Si7 0.697783 0.902410 0.323368
O O1 0.385577 0.228104 0.315761
O O2 0.364863 0.426458 0.387816
O O3 0.329189 0.206027 0.429258
O O4 0.259344 0.307838 0.336913
O O5 0.500000 0.740110 0.750000
O O6 0.612691 0.585427 0.750000
O O7 0.876222 0.346275 0.340590
O O8 0.000000 0.266307 0.341998
O O9 0.909834 0.160871 0.419615
O O10 0.892159 0.122290 0.309284
O O11 0.788844 0.093452 0.047817
O O12 0.900574 0.000000 0.000000
O O13 0.000000 0.965326 0.750000
O O14 0.797440 0.486030 0.870794
O O15 0.823136 0.500000 0.000000
O O16 0.699104 0.944508 0.250000
#
# Coordination Sequence:
#
# PCOD8260538 Si02
#       7
#    16   8  16  16   8  16  16
#     4  11  22  39  64  91 123 161 206 258 312 368
#     4  11  22  37  59  93 126 158 196 254 325 375
#     4  11  21  37  59  89 127 161 197 253 317 375
#     4  10  22  36  61  94 122 159 209 260 311 370
#     4   9  18  33  55  83 119 150 186 240 314 375
#     4  10  24  41  63  89 125 170 213 259 307 367
#     4  11  23  37  62  96 123 159 214 261 307 368
#
# _framework density 21.216189
#
# number of rings (size 3 to 8) (size 9 to 14) (size 15 to 20)
#    0.000    1.500    5.000    0.000    3.500    2.333 
#    0.000    0.833    0.000    1.000    0.000    0.000 
#    0.000    0.000    0.000    0.000    0.000    0.000 
#
# Total GULP energy -594717.531754 kJ/mol
# GULP energy per Si atom -12389.948578 kJ/mol
# Density = 2.116790 g / cm^3
# Si number density = 21.216189 Si / 1000 Ang^3
#
#
#
# Elastic Constant Matrix: (Units=GPa)
#
#
# Indices 1 2 3 4 5 6 
#
# 1 81.4786 10.2597 15.8011 0.0000 0.0000 0.0000
# 2 10.2597 31.7045 -2.3760 0.0000 0.0000 0.0000
# 3 15.8011 -2.3760 97.2238 0.0000 0.0000 0.0000
# 4 0.0000 0.0000 0.0000 36.0717 0.0000 0.0000
# 5 0.0000 0.0000 0.0000 0.0000 24.3203 0.0000
# 6 0.0000 0.0000 0.0000 0.0000 0.0000 25.0191
#
#
#
# Elastic Compliance Matrix: (Units=1/GPa)
#
#
# Indices 1 2 3 4 5 6 
#
# 1 0.013275 -0.004466 -0.002267 0.000000 0.000000 0.000000
# 2 -0.004466 0.033101 0.001535 0.000000 0.000000 0.000000
# 3 -0.002267 0.001535 0.010691 0.000000 0.000000 0.000000
# 4 0.000000 0.000000 0.000000 0.027723 0.000000 0.000000
# 5 0.000000 0.000000 0.000000 0.000000 0.041118 0.000000
# 6 0.000000 0.000000 0.000000 0.000000 0.000000 0.039969
#
#
# Mechanical properties :
#
#
# Convention : Reuss Voigt Hill
#
# Bulk Modulus (GPa) = 21.42587 28.64187 25.03387
# Shear Modulus (GPa) = 26.06466 29.53035 27.79750
#
# Velocity S-wave (km/s) = 3.50884 3.73484 3.62360
# Velocity P-wave (km/s) = 5.15138 5.66815 5.41593
#
# Compressibility (1/GPa) = 0.04667254
#
# Stress axis : x y z
#
# Youngs Moduli (GPa) = 75.32931 30.21023 93.53284
#
# Poissons Ratio (x) = 0.13491 0.21200
# Poissons Ratio (y) = 0.33640 -0.14355
# Poissons Ratio (z) = 0.17074 -0.04636
#
# Static dielectric constant tensor:
#      x y z
#    x 3.506540 0.000000 0.000000 
#    y 0.000000 3.669290 0.000000 
#    z 0.000000 0.000000 4.131920 
# 
# 
# High freq. dielectric constant tensor:
#      x y z
#    x 1.803640 0.000000 0.000000 
#    y 0.000000 1.814640 0.000000 
#    z 0.000000 0.000000 1.845980 
# 
# From -- ./inp_files/56610.got.cif
#   From: 2010.03.12/outbox.cif.g09.slc.cpg/sg63_29_cif.got.tgz:56610.got - 2010.04.10 19:34:48.
