data_PCOD8260518
_publ_section_title
;
Structure prediction by ZEFSAII (Michael W. Deem and Ramdas Pophale) SiO2 
 PCOD8260518
Probable space group: C M C M
;
_chemical_formula_sum "Si O2"
_cell_formula_units_Z 56
_cell_length_a 9.567000
_cell_length_b 11.996350
_cell_length_c 19.313198
_cell_angle_alpha 90.000000
_cell_angle_beta 90.000000
_cell_angle_gamma 90.000000
_cell_volume 2216.557975
_symmetry_space_group_name_H-M "C M C M"
_symmetry_group_IT_number 63
_symmetry_cell_setting 'orthorhombic'
loop_
_space_group_symop_operation_xyz
x,y,z
-x,-y,1/2+z
x,-y,-z
-x,y,1/2-z
-x,-y,-z
x,y,1/2-z
-x,y,z
x,-y,1/2+z
1/2+x,1/2+y,z
1/2-x,1/2-y,1/2+z
1/2+x,1/2-y,-z
1/2-x,1/2+y,1/2-z
1/2-x,1/2-y,-z
1/2+x,1/2+y,1/2-z
1/2-x,1/2+y,z
1/2+x,1/2-y,1/2+z
loop_
_atom_site_type_symbol
_atom_site_label
_atom_site_fract_x
_atom_site_fract_y
_atom_site_fract_z
Si Si1 0.264686 0.062220 0.399456
Si Si2 0.500000 0.109462 0.750000
Si Si3 0.500000 0.674080 0.750000
Si Si4 0.723057 0.511615 0.250000
Si Si5 0.500000 0.124301 0.600443
Si Si6 0.000000 0.140745 0.026153
Si Si7 0.000000 0.732592 0.398269
O O1 0.198087 0.077542 0.321941
O O2 0.134444 0.068909 0.451610
O O3 0.361194 0.165995 0.418087
O O4 0.358063 0.949350 0.409881
O O5 0.500000 0.178481 0.678405
O O6 0.617782 0.018071 0.750000
O O7 0.362754 0.601119 0.750000
O O8 0.500000 0.751120 0.816589
O O9 0.500000 0.230252 0.550944
O O10 0.000000 0.152095 0.942100
#
# Coordination Sequence:
#
# PCOD8260518 Si02
#       7
#    16   4   4   8   8   8   8
#     4  10  23  45  70 102 143 181 242 286 343 428
#     4   8  18  37  67  96 132 176 244 277 337 406
#     4  12  26  43  71  98 138 176 232 299 353 414
#     4  10  21  43  69 104 131 186 234 288 354 408
#     4   9  22  43  69 102 143 194 227 295 353 405
#     4  12  25  45  72 104 143 190 236 282 361 423
#     4  11  26  47  67 101 141 184 227 298 357 416
#
# _framework density 25.264396999999999
#
# number of rings (size 3 to 8) (size 9 to 14) (size 15 to 20)
#    0.000    1.714    0.000    3.429    8.000    4.571 
#    5.143    1.429    0.000    0.000    0.000    0.000 
#    0.000    0.000    0.000    0.000    0.000    0.000 
#
# Total GULP energy -346999.745376 kJ/mol
# GULP energy per Si atom -12392.848049 kJ/mol
# Density = 2.520689 g / cm^3
# Si number density = 25.264397 Si / 1000 Ang^3
#
#
#
# Elastic Constant Matrix: (Units=GPa)
#
#
# Indices 1 2 3 4 5 6 
#
# 1 143.0166 40.4895 21.6007 0.0000 0.0000 0.0000
# 2 40.4895 99.5326 35.6724 0.0000 0.0000 0.0000
# 3 21.6007 35.6724 126.2032 0.0000 0.0000 0.0000
# 4 0.0000 0.0000 0.0000 28.1544 0.0000 0.0000
# 5 0.0000 0.0000 0.0000 0.0000 14.5455 0.0000
# 6 0.0000 0.0000 0.0000 0.0000 0.0000 -0.3051
#
#
#
# Elastic Compliance Matrix: (Units=1/GPa)
#
#
# Indices 1 2 3 4 5 6 
#
# 1 0.007930 -0.003048 -0.000496 0.000000 0.000000 0.000000
# 2 -0.003048 0.012351 -0.002969 0.000000 0.000000 0.000000
# 3 -0.000496 -0.002969 0.008848 0.000000 0.000000 0.000000
# 4 0.000000 0.000000 0.000000 0.035518 0.000000 0.000000
# 5 0.000000 0.000000 0.000000 0.000000 0.068750 0.000000
# 6 0.000000 0.000000 0.000000 0.000000 0.000000 -3.277151
#
#
# Mechanical properties :
#
#
# Convention : Reuss Voigt Hill
#
# Bulk Modulus (GPa) = 62.10247 62.69751 62.39999
# Shear Modulus (GPa) = -1.59982 26.54495 12.47257
#
# Velocity S-wave (km/s) = -0.79662 3.24495 2.22431
# Velocity P-wave (km/s) = 4.87732 6.23779 5.59903
#
# Compressibility (1/GPa) = 0.01610242
#
# Stress axis : x y z
#
# Youngs Moduli (GPa) = 126.10249 80.96363 113.02110
#
# Poissons Ratio (x) = 0.24680 0.05602
# Poissons Ratio (y) = 0.38439 0.33561
# Poissons Ratio (z) = 0.06251 0.24042
#
# Static dielectric constant tensor:
#      x y z
#    x 4.689780 0.000000 0.000000 
#    y 0.000000 4.104290 0.000000 
#    z 0.000000 0.000000 5.374410 
# 
# 
# High freq. dielectric constant tensor:
#      x y z
#    x 2.020480 0.000000 0.000000 
#    y 0.000000 1.984730 0.000000 
#    z 0.000000 0.000000 2.031900 
# 
# From -- ./inp_files/50211.got.cif
#   From: 2010.03.12/outbox.cif.g09.slc.cpg/sg63_26_cif.got.tgz:50211.got - 2010.04.10 19:34:48.
