data_PCOD8260863
_publ_section_title
;
Structure prediction by ZEFSAII (Michael W. Deem and Ramdas Pophale) SiO2 
 PCOD8260863
Probable space group: C M C M
;
_chemical_formula_sum "Si O2"
_cell_formula_units_Z 56
_cell_length_a 25.823273
_cell_length_b 10.806438
_cell_length_c 10.009143
_cell_angle_alpha 90.000000
_cell_angle_beta 90.000000
_cell_angle_gamma 90.000000
_cell_volume 2793.127410
_symmetry_space_group_name_H-M "C M C M"
_symmetry_group_IT_number 63
_symmetry_cell_setting 'orthorhombic'
loop_
_space_group_symop_operation_xyz
x,y,z
-x,-y,1/2+z
x,-y,-z
-x,y,1/2-z
-x,-y,-z
x,y,1/2-z
-x,y,z
x,-y,1/2+z
1/2+x,1/2+y,z
1/2-x,1/2-y,1/2+z
1/2+x,1/2-y,-z
1/2-x,1/2+y,1/2-z
1/2-x,1/2-y,-z
1/2+x,1/2+y,1/2-z
1/2-x,1/2+y,z
1/2+x,1/2-y,1/2+z
loop_
_atom_site_type_symbol
_atom_site_label
_atom_site_fract_x
_atom_site_fract_y
_atom_site_fract_z
Si Si1 0.637641 0.333487 0.250000
Si Si2 0.329366 0.613620 0.250000
Si Si3 0.500000 0.387084 0.602456
Si Si4 0.850971 0.500000 0.000000
Si Si5 0.792913 0.392864 0.750000
Si Si6 0.604019 0.740562 0.467808
O O1 0.651909 0.474748 0.250000
O O2 0.688795 0.249186 0.250000
O O3 0.603720 0.304892 0.379914
O O4 0.268131 0.614738 0.250000
O O5 0.349449 0.679179 0.115868
O O6 0.500000 0.500000 0.500000
O O7 0.500000 0.447067 0.750000
O O8 0.549209 0.297832 0.591538
O O9 0.813441 0.464304 0.879143
O O10 0.888850 0.611918 0.959365
#
# Coordination Sequence:
#
# PCOD8260863 Si02
#       6
#     8   8   8   8   8  16
#     4  10  24  41  60  99 128 172 216 273 322 391
#     4  12  23  39  66  96 133 173 219 275 324 392
#     4  12  26  45  72 104 132 175 217 273 332 392
#     4  10  24  47  64  98 136 173 222 274 322 406
#     4  10  25  38  66  93 135 177 219 266 336 383
#     4  11  25  43  69  96 134 172 223 272 331 387
#
# _framework density 20.049209999999999
#
# number of rings (size 3 to 8) (size 9 to 14) (size 15 to 20)
#    0.000    1.143    1.429    3.429   10.000    2.857 
#    0.000    0.000    0.000    0.000    0.000    0.000 
#    0.000    0.000    0.000    0.000    0.000    0.000 
#
# Total GULP energy -347325.356618 kJ/mol
# GULP energy per Si atom -12404.477022 kJ/mol
# Density = 2.000358 g / cm^3
# Si number density = 20.049210 Si / 1000 Ang^3
#
#
#
# Elastic Constant Matrix: (Units=GPa)
#
#
# Indices 1 2 3 4 5 6 
#
# 1 125.8439 57.4935 41.8980 0.0000 0.0000 0.0000
# 2 57.4935 171.9837 60.3629 0.0000 0.0000 0.0000
# 3 41.8980 60.3629 155.9901 0.0000 0.0000 0.0000
# 4 0.0000 0.0000 0.0000 48.0099 0.0000 0.0000
# 5 0.0000 0.0000 0.0000 0.0000 19.8766 0.0000
# 6 0.0000 0.0000 0.0000 0.0000 0.0000 26.3886
#
#
#
# Elastic Compliance Matrix: (Units=1/GPa)
#
#
# Indices 1 2 3 4 5 6 
#
# 1 0.009697 -0.002693 -0.001562 0.000000 0.000000 0.000000
# 2 -0.002693 0.007476 -0.002170 0.000000 0.000000 0.000000
# 3 -0.001562 -0.002170 0.007670 0.000000 0.000000 0.000000
# 4 0.000000 0.000000 0.000000 0.020829 0.000000 0.000000
# 5 0.000000 0.000000 0.000000 0.000000 0.050310 0.000000
# 6 0.000000 0.000000 0.000000 0.000000 0.000000 0.037895
#
#
# Mechanical properties :
#
#
# Convention : Reuss Voigt Hill
#
# Bulk Modulus (GPa) = 83.38490 85.92515 84.65503
# Shear Modulus (GPa) = 33.17277 38.45924 35.81601
#
# Velocity S-wave (km/s) = 4.07205 4.38453 4.23117
# Velocity P-wave (km/s) = 7.98681 8.28144 8.13546
#
# Compressibility (1/GPa) = 0.01199258
#
# Stress axis : x y z
#
# Youngs Moduli (GPa) = 103.12476 133.75436 130.37985
#
# Poissons Ratio (x) = 0.36024 0.20370
# Poissons Ratio (y) = 0.27775 0.28289
# Poissons Ratio (z) = 0.16112 0.29021
#
# Static dielectric constant tensor:
#      x y z
#    x 1.255010 0.000000 0.000000 
#    y 0.000000 3.874960 0.000000 
#    z 0.000000 0.000000 3.760280 
# 
# 
# High freq. dielectric constant tensor:
#      x y z
#    x 1.776500 0.000000 0.000000 
#    y 0.000000 1.797200 0.000000 
#    z 0.000000 0.000000 1.808320 
# 
# From -- ./inp_files/11498.got.cif
#   From: 2010.03.12/outbox.cif.g09.slc.cpg/sg63_6_cif.got.tgz:11498.got - 2010.04.10 19:34:48.
