data_PCOD8260556
_publ_section_title
;
Structure prediction by ZEFSAII (Michael W. Deem and Ramdas Pophale) SiO2 
 PCOD8260556
Probable space group: C M C M
;
_chemical_formula_sum "Si O2"
_cell_formula_units_Z 88
_cell_length_a 17.003895
_cell_length_b 30.148954
_cell_length_c 9.244849
_cell_angle_alpha 90.000000
_cell_angle_beta 90.000000
_cell_angle_gamma 90.000000
_cell_volume 4739.368587
_symmetry_space_group_name_H-M "C M C M"
_symmetry_group_IT_number 63
_symmetry_cell_setting 'orthorhombic'
loop_
_space_group_symop_operation_xyz
x,y,z
-x,-y,1/2+z
x,-y,-z
-x,y,1/2-z
-x,-y,-z
x,y,1/2-z
-x,y,z
x,-y,1/2+z
1/2+x,1/2+y,z
1/2-x,1/2-y,1/2+z
1/2+x,1/2-y,-z
1/2-x,1/2+y,1/2-z
1/2-x,1/2-y,-z
1/2+x,1/2+y,1/2-z
1/2-x,1/2+y,z
1/2+x,1/2-y,1/2+z
loop_
_atom_site_type_symbol
_atom_site_label
_atom_site_fract_x
_atom_site_fract_y
_atom_site_fract_z
Si Si1 0.000000 0.951666 0.420452
Si Si2 0.831651 0.292667 0.586672
Si Si3 0.143915 0.209428 0.085654
Si Si4 0.308186 0.876614 0.417387
Si Si5 0.588564 0.042272 0.918162
Si Si6 0.627000 0.377947 0.418854
O O1 0.075928 0.921382 0.463720
O O2 0.000000 0.961993 0.250000
O O3 0.000000 0.000000 0.500000
O O4 0.863208 0.293912 0.750000
O O5 0.878428 0.252956 0.506617
O O6 0.737741 0.289766 0.583671
O O7 0.850733 0.337824 0.504812
O O8 0.112037 0.212394 0.250000
O O9 0.104877 0.165956 0.011203
O O10 0.317799 0.864477 0.250000
O O11 0.355338 0.918951 0.467578
O O12 0.217795 0.887393 0.453918
O O13 0.594072 0.032548 0.750000
O O14 0.500000 0.053696 0.966194
O O15 0.621629 0.000000 0.000000
O O16 0.612623 0.367173 0.250000
#
# Coordination Sequence:
#
# PCOD8260556 Si02
#       6
#     8  16  16  16  16  16
#     4  10  22  38  54  72  98 132 168 212 263 306
#     4   9  16  26  44  72 102 129 158 195 239 286
#     4   9  16  27  46  72  99 127 160 197 238 288
#     4   9  17  30  49  72  98 128 163 202 243 290
#     4   9  18  32  49  69  94 125 158 194 238 286
#     4   9  18  33  51  71  96 128 164 203 248 294
#
# _framework density 18.567874
#
# number of rings (size 3 to 8) (size 9 to 14) (size 15 to 20)
#    0.000    2.909    0.000    1.091    0.000    6.545 
#    0.000    0.000    2.000    0.000    0.000    0.000 
#    0.000    0.000    0.000    0.000    0.000    0.000 
#
# Total GULP energy -545298.166593 kJ/mol
# GULP energy per Si atom -12393.140150 kJ/mol
# Density = 1.852561 g / cm^3
# Si number density = 18.567874 Si / 1000 Ang^3
#
#
#
# Elastic Constant Matrix: (Units=GPa)
#
#
# Indices 1 2 3 4 5 6 
#
# 1 45.9333 65.6625 34.1235 0.0000 0.0000 0.0000
# 2 65.6625 191.2481 93.1962 0.0000 0.0000 0.0000
# 3 34.1235 93.1962 99.1945 0.0000 0.0000 0.0000
# 4 0.0000 0.0000 0.0000 42.9444 0.0000 0.0000
# 5 0.0000 0.0000 0.0000 0.0000 9.9278 0.0000
# 6 0.0000 0.0000 0.0000 0.0000 0.0000 19.5204
#
#
#
# Elastic Compliance Matrix: (Units=1/GPa)
#
#
# Indices 1 2 3 4 5 6 
#
# 1 0.042909 -0.013906 -0.001696 0.000000 0.000000 0.000000
# 2 -0.013906 0.014151 -0.008512 0.000000 0.000000 0.000000
# 3 -0.001696 -0.008512 0.018661 0.000000 0.000000 0.000000
# 4 0.000000 0.000000 0.000000 0.023286 0.000000 0.000000
# 5 0.000000 0.000000 0.000000 0.000000 0.100727 0.000000
# 6 0.000000 0.000000 0.000000 0.000000 0.000000 0.051229
#
#
# Mechanical properties :
#
#
# Convention : Reuss Voigt Hill
#
# Bulk Modulus (GPa) = 36.37045 80.26004 58.31524
# Shear Modulus (GPa) = 16.21507 24.03809 20.12658
#
# Velocity S-wave (km/s) = 2.95835 3.60197 3.29591
# Velocity P-wave (km/s) = 5.59459 7.78575 6.77928
#
# Compressibility (1/GPa) = 0.02749485
#
# Stress axis : x y z
#
# Youngs Moduli (GPa) = 23.30494 70.66691 53.58631
#
# Poissons Ratio (x) = 0.98268 0.09089
# Poissons Ratio (y) = 0.32407 0.45610
# Poissons Ratio (z) = 0.03953 0.60148
#
# Static dielectric constant tensor:
#      x y z
#    x 3.164990 0.000000 0.000000 
#    y 0.000000 3.443330 0.000000 
#    z 0.000000 0.000000 3.466000 
# 
# 
# High freq. dielectric constant tensor:
#      x y z
#    x 1.689930 0.000000 0.000000 
#    y 0.000000 1.725890 0.000000 
#    z 0.000000 0.000000 1.721060 
# 
# From -- ./inp_files/8210.got.cif
#   From: 2010.03.12/outbox.cif.g09.slc.cpg/sg63_5_cif.got.tgz:8210.got - 2010.04.10 19:34:48.
