data_PCOD8260475
_publ_section_title
;
Structure prediction by ZEFSAII (Michael W. Deem and Ramdas Pophale) SiO2 
 PCOD8260475
Probable space group: C M C M
;
_chemical_formula_sum "Si O2"
_cell_formula_units_Z 64
_cell_length_a 31.656703
_cell_length_b 9.009635
_cell_length_c 10.268578
_cell_angle_alpha 90.000000
_cell_angle_beta 90.000000
_cell_angle_gamma 90.000000
_cell_volume 2928.755959
_symmetry_space_group_name_H-M "C M C M"
_symmetry_group_IT_number 63
_symmetry_cell_setting 'orthorhombic'
loop_
_space_group_symop_operation_xyz
x,y,z
-x,-y,1/2+z
x,-y,-z
-x,y,1/2-z
-x,-y,-z
x,y,1/2-z
-x,y,z
x,-y,1/2+z
1/2+x,1/2+y,z
1/2-x,1/2-y,1/2+z
1/2+x,1/2-y,-z
1/2-x,1/2+y,1/2-z
1/2-x,1/2-y,-z
1/2+x,1/2+y,1/2-z
1/2-x,1/2+y,z
1/2+x,1/2-y,1/2+z
loop_
_atom_site_type_symbol
_atom_site_label
_atom_site_fract_x
_atom_site_fract_y
_atom_site_fract_z
Si Si1 0.608944 0.000000 0.500000
Si Si2 0.840093 0.230804 0.960573
Si Si3 0.904317 0.000000 0.500000
Si Si4 0.806209 0.201681 0.250000
Si Si5 0.045329 0.733944 0.604258
Si Si6 0.722138 0.367230 0.250000
O O1 0.640068 0.889973 0.579904
O O2 0.578513 0.897547 0.415617
O O3 0.873425 0.104851 0.913642
O O4 0.833951 0.220488 0.118278
O O5 0.797301 0.205145 0.880979
O O6 0.934131 0.105475 0.416504
O O7 0.771532 0.331826 0.250000
O O8 0.782962 0.043592 0.250000
O O9 0.031562 0.725184 0.750000
O O10 0.000000 0.717084 0.526048
#
# Coordination Sequence:
#
# PCOD8260475 Si02
#       6
#     8  16   8   8  16   8
#     4  10  25  38  65  92 134 170 214 266 323 386
#     4  11  25  41  68  95 131 173 220 268 324 398
#     4  10  21  40  65  92 126 168 216 270 321 384
#     4  12  26  46  66  96 133 167 220 274 335 391
#     4  10  22  41  66  95 131 171 218 274 333 391
#     4  12  26  44  68  96 129 171 216 274 333 395
#
# _framework density 21.852281999999999
#
# number of rings (size 3 to 8) (size 9 to 14) (size 15 to 20)
#    0.000    1.250    2.500    1.500   14.000    0.000 
#    0.000    0.000    0.000    7.500    0.000    0.000 
#    0.000    0.000    0.000    0.000    0.000    0.000 
#
# Total GULP energy -396436.848561 kJ/mol
# GULP energy per Si atom -12388.651518 kJ/mol
# Density = 2.180254 g / cm^3
# Si number density = 21.852282 Si / 1000 Ang^3
#
#
#
# Elastic Constant Matrix: (Units=GPa)
#
#
# Indices 1 2 3 4 5 6 
#
# 1 110.6117 53.2591 20.5509 0.0000 0.0000 0.0000
# 2 53.2591 165.8831 16.0959 0.0000 0.0000 0.0000
# 3 20.5509 16.0959 91.6789 0.0000 0.0000 0.0000
# 4 0.0000 0.0000 0.0000 13.5557 0.0000 0.0000
# 5 0.0000 0.0000 0.0000 0.0000 35.4141 0.0000
# 6 0.0000 0.0000 0.0000 0.0000 0.0000 49.9046
#
#
#
# Elastic Compliance Matrix: (Units=1/GPa)
#
#
# Indices 1 2 3 4 5 6 
#
# 1 0.011003 -0.003350 -0.001878 0.000000 0.000000 0.000000
# 2 -0.003350 0.007153 -0.000505 0.000000 0.000000 0.000000
# 3 -0.001878 -0.000505 0.011417 0.000000 0.000000 0.000000
# 4 0.000000 0.000000 0.000000 0.073770 0.000000 0.000000
# 5 0.000000 0.000000 0.000000 0.000000 0.028237 0.000000
# 6 0.000000 0.000000 0.000000 0.000000 0.000000 0.020038
#
#
# Mechanical properties :
#
#
# Convention : Reuss Voigt Hill
#
# Bulk Modulus (GPa) = 55.22924 60.88727 58.05826
# Shear Modulus (GPa) = 29.56471 38.32607 33.94539
#
# Velocity S-wave (km/s) = 3.68222 4.19247 3.94560
# Velocity P-wave (km/s) = 6.58840 7.16654 6.88354
#
# Compressibility (1/GPa) = 0.01810635
#
# Stress axis : x y z
#
# Youngs Moduli (GPa) = 90.88620 139.80144 87.58652
#
# Poissons Ratio (x) = 0.46838 0.16450
# Poissons Ratio (y) = 0.30450 0.04422
# Poissons Ratio (z) = 0.17070 0.07057
#
# Static dielectric constant tensor:
#      x y z
#    x 4.098670 0.000000 0.000000 
#    y 0.000000 4.336200 0.000000 
#    z 0.000000 0.000000 3.546260 
# 
# 
# High freq. dielectric constant tensor:
#      x y z
#    x 1.884900 0.000000 0.000000 
#    y 0.000000 1.877370 0.000000 
#    z 0.000000 0.000000 1.819750 
# 
# From -- ./inp_files/25519.got.cif
#   From: 2010.03.12/outbox.cif.g09.slc.cpg/sg63_13_cif.got.tgz:25519.got - 2010.04.10 19:34:48.
