data_PCOD8260232
_publ_section_title
;
Structure prediction by ZEFSAII (Michael W. Deem and Ramdas Pophale) SiO2 
 PCOD8260232
Probable space group: C M C M
;
_chemical_formula_sum "Si O2"
_cell_formula_units_Z 88
_cell_length_a 10.501294
_cell_length_b 14.828280
_cell_length_c 30.039821
_cell_angle_alpha 90.000000
_cell_angle_beta 90.000000
_cell_angle_gamma 90.000000
_cell_volume 4677.684606
_symmetry_space_group_name_H-M "C M C M"
_symmetry_group_IT_number 63
_symmetry_cell_setting 'orthorhombic'
loop_
_space_group_symop_operation_xyz
x,y,z
-x,-y,1/2+z
x,-y,-z
-x,y,1/2-z
-x,-y,-z
x,y,1/2-z
-x,y,z
x,-y,1/2+z
1/2+x,1/2+y,z
1/2-x,1/2-y,1/2+z
1/2+x,1/2-y,-z
1/2-x,1/2+y,1/2-z
1/2-x,1/2-y,-z
1/2+x,1/2+y,1/2-z
1/2-x,1/2+y,z
1/2+x,1/2-y,1/2+z
loop_
_atom_site_type_symbol
_atom_site_label
_atom_site_fract_x
_atom_site_fract_y
_atom_site_fract_z
Si Si1 0.000000 0.662984 0.453671
Si Si2 0.643798 0.677227 0.750000
Si Si3 0.000000 0.493162 0.397023
Si Si4 0.747864 0.767382 0.904934
Si Si5 0.500000 0.196860 0.556838
Si Si6 0.644970 0.380696 0.343421
Si Si7 0.739768 0.939251 0.845191
Si Si8 0.354579 0.890202 0.750000
O O1 0.000000 0.558265 0.439939
O O2 0.126590 0.711479 0.435584
O O3 0.000000 0.665754 0.506316
O O4 0.500000 0.640503 0.750000
O O5 0.708874 0.639753 0.704944
O O6 0.648392 0.783635 0.750000
O O7 0.000000 0.390134 0.411818
O O8 0.118534 0.513298 0.366120
O O9 0.874713 0.757295 0.934446
O O10 0.724059 0.673112 0.880269
O O11 0.772792 0.845710 0.868979
O O12 0.500000 0.345012 0.344985
O O13 0.647520 0.488059 0.352341
O O14 0.719670 0.924659 0.793023
O O15 0.500000 0.925088 0.750000
#
# Coordination Sequence:
#
# PCOD8260232 Si02
#       8
#     8   8   8  16   8  16  16   8
#     4  10  23  42  64  89 116 158 202 246 307 373
#     4   9  19  32  56  85 111 160 207 245 278 348
#     4  10  21  37  62  88 113 154 201 246 299 357
#     4  11  23  39  65  89 120 159 198 248 302 368
#     4  12  23  42  62  91 123 152 195 263 313 348
#     4  11  21  38  60  84 122 161 206 238 292 360
#     4  11  22  37  58  91 121 157 199 243 299 345
#     4  11  19  32  61  88 120 153 205 249 280 348
#
# _framework density 18.812726000000001
#
# number of rings (size 3 to 8) (size 9 to 14) (size 15 to 20)
#    0.000    1.273    5.455    1.364    1.273    0.000 
#    0.000    0.000    0.000    2.182    0.000    0.000 
#    0.000    0.000    0.000    0.000    0.000    0.000 
#
# Total GULP energy -545590.614123 kJ/mol
# GULP energy per Si atom -12399.786685 kJ/mol
# Density = 1.876991 g / cm^3
# Si number density = 18.812726 Si / 1000 Ang^3
#
#
#
# Elastic Constant Matrix: (Units=GPa)
#
#
# Indices 1 2 3 4 5 6 
#
# 1 78.1620 18.2002 19.3709 0.0000 0.0000 0.0000
# 2 18.2002 89.7533 20.0943 0.0000 0.0000 0.0000
# 3 19.3709 20.0943 96.9901 0.0000 0.0000 0.0000
# 4 0.0000 0.0000 0.0000 18.0749 0.0000 0.0000
# 5 0.0000 0.0000 0.0000 0.0000 -8.5667 0.0000
# 6 0.0000 0.0000 0.0000 0.0000 0.0000 42.2644
#
#
#
# Elastic Compliance Matrix: (Units=1/GPa)
#
#
# Indices 1 2 3 4 5 6 
#
# 1 0.013900 -0.002304 -0.002299 0.000000 0.000000 0.000000
# 2 -0.002304 0.012065 -0.002040 0.000000 0.000000 0.000000
# 3 -0.002299 -0.002040 0.011192 0.000000 0.000000 0.000000
# 4 0.000000 0.000000 0.000000 0.055325 0.000000 0.000000
# 5 0.000000 0.000000 0.000000 0.000000 -0.116732 0.000000
# 6 0.000000 0.000000 0.000000 0.000000 0.000000 0.023661
#
#
# Mechanical properties :
#
#
# Convention : Reuss Voigt Hill
#
# Bulk Modulus (GPa) = 41.88851 42.24848 42.06849
# Shear Modulus (GPa) = 242.07966 24.17053 133.12510
#
# Velocity S-wave (km/s) = 11.35597 3.58829 8.42122
# Velocity P-wave (km/s) = 13.93766 6.29873 10.81509
#
# Compressibility (1/GPa) = 0.02387289
#
# Stress axis : x y z
#
# Youngs Moduli (GPa) = 71.94163 82.88108 89.34952
#
# Poissons Ratio (x) = 0.19096 0.20540
# Poissons Ratio (y) = 0.16575 0.18223
# Poissons Ratio (z) = 0.16538 0.16904
#
# Static dielectric constant tensor:
#      x y z
#    x 2.428300 0.000000 0.000000 
#    y 0.000000 3.475260 0.000000 
#    z 0.000000 0.000000 3.465160 
# 
# 
# High freq. dielectric constant tensor:
#      x y z
#    x 1.717250 0.000000 0.000000 
#    y 0.000000 1.738390 0.000000 
#    z 0.000000 0.000000 1.736200 
# 
# From -- ./inp_files/68248.got.cif
#   From: 2010.03.12/outbox.cif.g09.slc.cpg/sg63_35_cif.got.tgz:68248.got - 2010.04.10 19:34:48.
