data_PCOD8260477
_publ_section_title
;
Structure prediction by ZEFSAII (Michael W. Deem and Ramdas Pophale) SiO2 
 PCOD8260477
Probable space group: C M C M
;
_chemical_formula_sum "Si O2"
_cell_formula_units_Z 96
_cell_length_a 13.074262
_cell_length_b 23.700360
_cell_length_c 15.073495
_cell_angle_alpha 90.000000
_cell_angle_beta 90.000000
_cell_angle_gamma 90.000000
_cell_volume 4670.744249
_symmetry_space_group_name_H-M "C M C M"
_symmetry_group_IT_number 63
_symmetry_cell_setting 'orthorhombic'
loop_
_space_group_symop_operation_xyz
x,y,z
-x,-y,1/2+z
x,-y,-z
-x,y,1/2-z
-x,-y,-z
x,y,1/2-z
-x,y,z
x,-y,1/2+z
1/2+x,1/2+y,z
1/2-x,1/2-y,1/2+z
1/2+x,1/2-y,-z
1/2-x,1/2+y,1/2-z
1/2-x,1/2-y,-z
1/2+x,1/2+y,1/2-z
1/2-x,1/2+y,z
1/2+x,1/2-y,1/2+z
loop_
_atom_site_type_symbol
_atom_site_label
_atom_site_fract_x
_atom_site_fract_y
_atom_site_fract_z
Si Si1 0.500000 0.600239 0.153046
Si Si2 0.389518 0.818482 0.848042
Si Si3 0.118876 0.623763 0.646404
Si Si4 0.000000 0.978727 0.145331
Si Si5 0.885680 0.734375 0.967723
Si Si6 0.208956 0.055065 0.940840
Si Si7 0.693355 0.350691 0.918997
O O1 0.500000 0.574672 0.250000
O O2 0.500000 0.541436 0.098122
O O3 0.598103 0.639172 0.143849
O O4 0.374966 0.790592 0.750000
O O5 0.500000 0.849988 0.851669
O O6 0.298465 0.863216 0.865580
O O7 0.386409 0.772455 0.925835
O O8 0.136522 0.639098 0.750000
O O9 0.148115 0.677437 0.584186
O O10 0.191886 0.570927 0.619497
O O11 0.000000 0.606855 0.630060
O O12 0.105952 0.950483 0.115916
O O13 0.000000 0.975896 0.250000
O O14 0.806952 0.784925 0.947558
O O15 0.000000 0.751285 0.936163
O O16 0.183274 0.108893 0.998973
O O17 0.234806 0.000000 0.000000
#
# Coordination Sequence:
#
# PCOD8260477 Si02
#       7
#     8  16  16   8  16  16  16
#     4  11  23  39  63  93 126 164 211 267 318 374
#     4  10  22  40  61  90 129 170 210 255 315 385
#     4  10  23  44  68  95 128 166 215 269 322 382
#     4  11  24  44  64  92 132 172 218 266 316 377
#     4  10  21  40  65  93 128 167 208 263 320 382
#     4  12  24  41  67  93 126 174 217 264 325 380
#     4  12  22  40  64  94 129 166 214 264 320 385
#
# _framework density 20.553469
#
# number of rings (size 3 to 8) (size 9 to 14) (size 15 to 20)
#    0.000    1.167    4.167    2.250    0.000    1.667 
#    0.000    0.833    0.000    2.000    0.000    0.000 
#    0.000    0.000    0.000    0.000    0.000    0.000 
#
# Total GULP energy -594728.203063 kJ/mol
# GULP energy per Si atom -12390.170897 kJ/mol
# Density = 2.050669 g / cm^3
# Si number density = 20.553469 Si / 1000 Ang^3
#
#
#
# Elastic Constant Matrix: (Units=GPa)
#
#
# Indices 1 2 3 4 5 6 
#
# 1 170.5953 68.1235 59.7572 0.0000 0.0000 0.0000
# 2 68.1235 107.1304 52.4337 0.0000 0.0000 0.0000
# 3 59.7572 52.4337 132.0068 0.0000 0.0000 0.0000
# 4 0.0000 0.0000 0.0000 16.7529 0.0000 0.0000
# 5 0.0000 0.0000 0.0000 0.0000 21.5803 0.0000
# 6 0.0000 0.0000 0.0000 0.0000 0.0000 20.6899
#
#
#
# Elastic Compliance Matrix: (Units=1/GPa)
#
#
# Indices 1 2 3 4 5 6 
#
# 1 0.008284 -0.004261 -0.002058 0.000000 0.000000 0.000000
# 2 -0.004261 0.013778 -0.003544 0.000000 0.000000 0.000000
# 3 -0.002058 -0.003544 0.009915 0.000000 0.000000 0.000000
# 4 0.000000 0.000000 0.000000 0.059691 0.000000 0.000000
# 5 0.000000 0.000000 0.000000 0.000000 0.046338 0.000000
# 6 0.000000 0.000000 0.000000 0.000000 0.000000 0.048333
#
#
# Mechanical properties :
#
#
# Convention : Reuss Voigt Hill
#
# Bulk Modulus (GPa) = 81.61877 85.59572 83.60725
# Shear Modulus (GPa) = 23.79272 27.09915 25.44594
#
# Velocity S-wave (km/s) = 3.40604 3.63501 3.52239
# Velocity P-wave (km/s) = 7.43403 7.70413 7.57029
#
# Compressibility (1/GPa) = 0.01225208
#
# Stress axis : x y z
#
# Youngs Moduli (GPa) = 120.71472 72.57760 100.86157
#
# Poissons Ratio (x) = 0.30923 0.20754
# Poissons Ratio (y) = 0.51432 0.35746
# Poissons Ratio (z) = 0.24839 0.25722
#
# Static dielectric constant tensor:
#      x y z
#    x 4.356510 0.000000 0.000000 
#    y 0.000000 3.547780 0.000000 
#    z 0.000000 0.000000 3.840940 
# 
# 
# High freq. dielectric constant tensor:
#      x y z
#    x 1.838380 0.000000 0.000000 
#    y 0.000000 1.769870 0.000000 
#    z 0.000000 0.000000 1.811910 
# 
# From -- ./inp_files/32188.got.cif
#   From: 2010.03.12/outbox.cif.g09.slc.cpg/sg63_17_cif.got.tgz:32188.got - 2010.04.10 19:34:48.
