data_PCOD8260270
_publ_section_title
;
Structure prediction by ZEFSAII (Michael W. Deem and Ramdas Pophale) SiO2 
 PCOD8260270
Probable space group: C M C M
;
_chemical_formula_sum "Si O2"
_cell_formula_units_Z 96
_cell_length_a 8.893614
_cell_length_b 28.857593
_cell_length_c 20.308145
_cell_angle_alpha 90.000000
_cell_angle_beta 90.000000
_cell_angle_gamma 90.000000
_cell_volume 5212.050751
_symmetry_space_group_name_H-M "C M C M"
_symmetry_group_IT_number 63
_symmetry_cell_setting 'orthorhombic'
loop_
_space_group_symop_operation_xyz
x,y,z
-x,-y,1/2+z
x,-y,-z
-x,y,1/2-z
-x,-y,-z
x,y,1/2-z
-x,y,z
x,-y,1/2+z
1/2+x,1/2+y,z
1/2-x,1/2-y,1/2+z
1/2+x,1/2-y,-z
1/2-x,1/2+y,1/2-z
1/2-x,1/2-y,-z
1/2+x,1/2+y,1/2-z
1/2-x,1/2+y,z
1/2+x,1/2-y,1/2+z
loop_
_atom_site_type_symbol
_atom_site_label
_atom_site_fract_x
_atom_site_fract_y
_atom_site_fract_z
Si Si1 0.176738 0.471489 0.562895
Si Si2 0.176323 0.222350 0.059573
Si Si3 0.176786 0.631112 0.476685
Si Si4 0.328492 0.789395 0.323992
Si Si5 0.677474 0.472223 0.324543
Si Si6 0.676422 0.625960 0.617180
O O1 0.239945 0.500000 0.500000
O O2 0.220815 0.417991 0.554727
O O3 0.251118 0.488426 0.630090
O O4 0.000000 0.479249 0.568416
O O5 0.243644 0.170915 0.065768
O O6 0.215835 0.247762 0.127564
O O7 0.000000 0.219186 0.046220
O O8 0.250000 0.250000 0.000000
O O9 0.231637 0.633898 0.551121
O O10 0.000000 0.639572 0.476047
O O11 0.307792 0.770648 0.250000
O O12 0.500000 0.805403 0.337084
O O13 0.218343 0.832876 0.333368
O O14 0.735971 0.478955 0.250000
O O15 0.500000 0.477241 0.327736
O O16 0.728202 0.421920 0.349881
O O17 0.500000 0.626491 0.601816
#
# Coordination Sequence:
#
# PCOD8260270 Si02
#       6
#    16  16  16  16  16  16
#     4  10  21  38  59  83 113 150 193 238 283 335
#     4  11  22  37  59  85 116 151 190 234 282 336
#     4  11  22  37  58  85 116 147 191 240 282 336
#     4  10  22  39  58  82 114 152 190 230 280 339
#     4  10  22  38  56  84 120 153 188 233 287 346
#     4  11  21  34  57  87 119 150 184 232 289 343
#
# _framework density 18.418852999999999
#
# number of rings (size 3 to 8) (size 9 to 14) (size 15 to 20)
#    0.000    1.500    3.333    2.000    0.000    4.333 
#    0.000    0.833    0.000    3.000    0.000    0.000 
#    0.000    0.000    0.000    0.000    0.000    0.000 
#
# Total GULP energy -595431.051878 kJ/mol
# GULP energy per Si atom -12404.813581 kJ/mol
# Density = 1.837693 g / cm^3
# Si number density = 18.418853 Si / 1000 Ang^3
#
#
#
# Elastic Constant Matrix: (Units=GPa)
#
#
# Indices 1 2 3 4 5 6 
#
# 1 53.3011 50.1112 28.6252 0.0000 0.0000 0.0000
# 2 50.1112 139.6362 67.7728 0.0000 0.0000 0.0000
# 3 28.6252 67.7728 125.3747 0.0000 0.0000 0.0000
# 4 0.0000 0.0000 0.0000 28.7131 0.0000 0.0000
# 5 0.0000 0.0000 0.0000 0.0000 28.6207 0.0000
# 6 0.0000 0.0000 0.0000 0.0000 0.0000 32.9320
#
#
#
# Elastic Compliance Matrix: (Units=1/GPa)
#
#
# Indices 1 2 3 4 5 6 
#
# 1 0.028476 -0.009576 -0.001325 0.000000 0.000000 0.000000
# 2 -0.009576 0.012929 -0.004803 0.000000 0.000000 0.000000
# 3 -0.001325 -0.004803 0.010875 0.000000 0.000000 0.000000
# 4 0.000000 0.000000 0.000000 0.034827 0.000000 0.000000
# 5 0.000000 0.000000 0.000000 0.000000 0.034940 0.000000
# 6 0.000000 0.000000 0.000000 0.000000 0.000000 0.030366
#
#
# Mechanical properties :
#
#
# Convention : Reuss Voigt Hill
#
# Bulk Modulus (GPa) = 47.91051 67.92561 57.91806
# Shear Modulus (GPa) = 26.20863 29.50667 27.85765
#
# Velocity S-wave (km/s) = 3.77626 4.00682 3.89325
# Velocity P-wave (km/s) = 6.71429 7.63967 7.19188
#
# Compressibility (1/GPa) = 0.02087225
#
# Stress axis : x y z
#
# Youngs Moduli (GPa) = 35.11742 77.34599 91.95654
#
# Poissons Ratio (x) = 0.74066 0.12185
# Poissons Ratio (y) = 0.33628 0.44162
# Poissons Ratio (z) = 0.04654 0.37146
#
# Static dielectric constant tensor:
#      x y z
#    x 3.381940 0.000000 0.000000 
#    y 0.000000 3.827950 0.000000 
#    z 0.000000 0.000000 3.409680 
# 
# 
# High freq. dielectric constant tensor:
#      x y z
#    x 1.717510 0.000000 0.000000 
#    y 0.000000 1.718220 0.000000 
#    z 0.000000 0.000000 1.712160 
# 
# From -- ./inp_files/51283.got.cif
#   From: 2010.03.12/outbox.cif.g09.slc.cpg/sg63_26_cif.got.tgz:51283.got - 2010.04.10 19:34:48.
