data_PCOD8260601
_publ_section_title
;
Structure prediction by ZEFSAII (Michael W. Deem and Ramdas Pophale) SiO2 
 PCOD8260601
Probable space group: C M C M
;
_chemical_formula_sum "Si O2"
_cell_formula_units_Z 96
_cell_length_a 8.899707
_cell_length_b 20.144826
_cell_length_c 28.008186
_cell_angle_alpha 90.000000
_cell_angle_beta 90.000000
_cell_angle_gamma 90.000000
_cell_volume 5021.392982
_symmetry_space_group_name_H-M "C M C M"
_symmetry_group_IT_number 63
_symmetry_cell_setting 'orthorhombic'
loop_
_space_group_symop_operation_xyz
x,y,z
-x,-y,1/2+z
x,-y,-z
-x,y,1/2-z
-x,-y,-z
x,y,1/2-z
-x,y,z
x,-y,1/2+z
1/2+x,1/2+y,z
1/2-x,1/2-y,1/2+z
1/2+x,1/2-y,-z
1/2-x,1/2+y,1/2-z
1/2-x,1/2-y,-z
1/2+x,1/2+y,1/2-z
1/2-x,1/2+y,z
1/2+x,1/2-y,1/2+z
loop_
_atom_site_type_symbol
_atom_site_label
_atom_site_fract_x
_atom_site_fract_y
_atom_site_fract_z
Si Si1 0.824819 0.261022 0.104156
Si Si2 0.323158 0.138456 0.442874
Si Si3 0.678196 0.513859 0.397429
Si Si4 0.674397 0.895179 0.050404
Si Si5 0.178270 0.948650 0.301780
Si Si6 0.175344 0.798184 0.196275
O O1 0.737763 0.210539 0.070285
O O2 0.787838 0.334659 0.085528
O O3 0.767868 0.253902 0.158665
O O4 0.000000 0.244568 0.101548
O O5 0.500000 0.136619 0.435361
O O6 0.277687 0.124568 0.497236
O O7 0.248482 0.084643 0.408493
O O8 0.500000 0.519345 0.398811
O O9 0.729109 0.459049 0.435541
O O10 0.739386 0.493940 0.344739
O O11 0.500000 0.914902 0.052876
O O12 0.234042 0.976106 0.250000
O O13 0.235334 0.873447 0.308170
O O14 0.000000 0.947147 0.302670
O O15 0.204992 0.771542 0.250000
O O16 0.000000 0.793528 0.183515
#
# Coordination Sequence:
#
# PCOD8260601 Si02
#       6
#    16  16  16  16  16  16
#     4  11  22  37  58  85 114 143 187 238 282 328
#     4  11  24  40  56  76 113 156 190 228 282 340
#     4  11  21  35  59  87 113 144 186 233 279 332
#     4  10  22  39  58  81 110 148 189 233 282 335
#     4   8  15  30  54  83 111 140 177 221 270 325
#     4   9  17  33  58  85 112 145 184 223 272 335
#
# _framework density 19.118200000000002
#
# number of rings (size 3 to 8) (size 9 to 14) (size 15 to 20)
#    0.000    2.000    1.667    3.500    0.000    4.333 
#    0.000    0.833    0.000    5.000    0.000    0.000 
#    0.000    0.000    0.000    0.000    0.000    0.000 
#
# Total GULP energy -595265.285027 kJ/mol
# GULP energy per Si atom -12401.360105 kJ/mol
# Density = 1.907469 g / cm^3
# Si number density = 19.118200 Si / 1000 Ang^3
#
#
#
# Elastic Constant Matrix: (Units=GPa)
#
#
# Indices 1 2 3 4 5 6 
#
# 1 55.6879 17.8602 29.5536 0.0000 0.0000 0.0000
# 2 17.8602 42.1582 10.5577 0.0000 0.0000 0.0000
# 3 29.5536 10.5577 112.4943 0.0000 0.0000 0.0000
# 4 0.0000 0.0000 0.0000 16.3983 0.0000 0.0000
# 5 0.0000 0.0000 0.0000 0.0000 29.3688 0.0000
# 6 0.0000 0.0000 0.0000 0.0000 0.0000 32.5044
#
#
#
# Elastic Compliance Matrix: (Units=1/GPa)
#
#
# Indices 1 2 3 4 5 6 
#
# 1 0.023588 -0.008644 -0.005386 0.000000 0.000000 0.000000
# 2 -0.008644 0.027459 -0.000306 0.000000 0.000000 0.000000
# 3 -0.005386 -0.000306 0.010333 0.000000 0.000000 0.000000
# 4 0.000000 0.000000 0.000000 0.060982 0.000000 0.000000
# 5 0.000000 0.000000 0.000000 0.000000 0.034050 0.000000
# 6 0.000000 0.000000 0.000000 0.000000 0.000000 0.030765
#
#
# Mechanical properties :
#
#
# Convention : Reuss Voigt Hill
#
# Bulk Modulus (GPa) = 30.57365 36.25374 33.41370
# Shear Modulus (GPa) = 22.05067 25.81222 23.93145
#
# Velocity S-wave (km/s) = 3.39984 3.67841 3.54186
# Velocity P-wave (km/s) = 5.60700 6.08646 5.85165
#
# Compressibility (1/GPa) = 0.03270790
#
# Stress axis : x y z
#
# Youngs Moduli (GPa) = 42.39499 36.41802 96.77819
#
# Poissons Ratio (x) = 0.31480 0.52120
# Poissons Ratio (y) = 0.36647 0.02963
# Poissons Ratio (z) = 0.22832 0.01115
#
# Static dielectric constant tensor:
#      x y z
#    x 3.307350 0.000000 0.000000 
#    y 0.000000 3.322400 0.000000 
#    z 0.000000 0.000000 3.868370 
# 
# 
# High freq. dielectric constant tensor:
#      x y z
#    x 1.730740 0.000000 0.000000 
#    y 0.000000 1.726070 0.000000 
#    z 0.000000 0.000000 1.761080 
# 
# From -- ./inp_files/66934.got.cif
#   From: 2010.03.12/outbox.cif.g09.slc.cpg/sg63_34_cif.got.tgz:66934.got - 2010.04.10 19:34:48.
