data_PCOD8260923
_publ_section_title
;
Structure prediction by ZEFSAII (Michael W. Deem and Ramdas Pophale) SiO2 
 PCOD8260923
Probable space group: C M C M
;
_chemical_formula_sum "Si O2"
_cell_formula_units_Z 80
_cell_length_a 9.135526
_cell_length_b 19.259725
_cell_length_c 25.847321
_cell_angle_alpha 90.000000
_cell_angle_beta 90.000000
_cell_angle_gamma 90.000000
_cell_volume 4547.777159
_symmetry_space_group_name_H-M "C M C M"
_symmetry_group_IT_number 63
_symmetry_cell_setting 'orthorhombic'
loop_
_space_group_symop_operation_xyz
x,y,z
-x,-y,1/2+z
x,-y,-z
-x,y,1/2-z
-x,-y,-z
x,y,1/2-z
-x,y,z
x,-y,1/2+z
1/2+x,1/2+y,z
1/2-x,1/2-y,1/2+z
1/2+x,1/2-y,-z
1/2-x,1/2+y,1/2-z
1/2-x,1/2-y,-z
1/2+x,1/2+y,1/2-z
1/2-x,1/2+y,z
1/2+x,1/2-y,1/2+z
loop_
_atom_site_type_symbol
_atom_site_label
_atom_site_fract_x
_atom_site_fract_y
_atom_site_fract_z
Si Si1 0.167853 0.116087 0.026846
Si Si2 0.174476 0.868924 0.807743
Si Si3 0.673799 0.730944 0.105381
Si Si4 0.832489 0.989520 0.618473
Si Si5 0.826389 0.616678 0.920616
O O1 0.224557 0.185203 0.056214
O O2 0.182978 0.050321 0.064276
O O3 0.000000 0.124414 0.008482
O O4 0.269684 0.102728 0.978062
O O5 0.240901 0.864699 0.750000
O O6 0.233697 0.803638 0.841438
O O7 0.223922 0.940693 0.834825
O O8 0.000000 0.866867 0.806370
O O9 0.500000 0.728820 0.106890
O O10 0.732901 0.808997 0.099721
O O11 0.000000 0.011650 0.627477
O O12 0.733838 0.058310 0.618189
O O13 0.000000 0.614232 0.920879
#
# Coordination Sequence:
#
# PCOD8260923 Si02
#       5
#    16  16  16  16  16
#     4   9  17  31  48  63  87 125 160 186 214 254
#     4   8  14  29  53  71  82 108 154 197 224 257
#     4   8  16  29  44  66  92 116 148 188 226 264
#     4   9  18  31  47  68  91 117 152 189 223 261
#     4  11  20  28  42  68 100 125 146 180 225 271
#
# _framework density 17.591011000000002
#
# number of rings (size 3 to 8) (size 9 to 14) (size 15 to 20)
#    0.000    3.000    0.000    4.200    0.000    3.200 
#    0.000    2.000    0.000    4.200    0.000    0.000 
#    0.000    0.000    0.000    0.000    0.000    0.000 
#
# Total GULP energy -495864.847141 kJ/mol
# GULP energy per Si atom -12396.621179 kJ/mol
# Density = 1.755097 g / cm^3
# Si number density = 17.591011 Si / 1000 Ang^3
#
#
#
# Elastic Constant Matrix: (Units=GPa)
#
#
# Indices 1 2 3 4 5 6 
#
# 1 38.9335 29.7319 16.3343 0.0000 0.0000 0.0000
# 2 29.7319 112.1467 30.2374 0.0000 0.0000 0.0000
# 3 16.3343 30.2374 89.8912 0.0000 0.0000 0.0000
# 4 0.0000 0.0000 0.0000 12.9271 0.0000 0.0000
# 5 0.0000 0.0000 0.0000 0.0000 10.9723 0.0000
# 6 0.0000 0.0000 0.0000 0.0000 0.0000 26.6341
#
#
#
# Elastic Compliance Matrix: (Units=1/GPa)
#
#
# Indices 1 2 3 4 5 6 
#
# 1 0.033108 -0.007869 -0.003369 0.000000 0.000000 0.000000
# 2 -0.007869 0.011677 -0.002498 0.000000 0.000000 0.000000
# 3 -0.003369 -0.002498 0.012577 0.000000 0.000000 0.000000
# 4 0.000000 0.000000 0.000000 0.077357 0.000000 0.000000
# 5 0.000000 0.000000 0.000000 0.000000 0.091138 0.000000
# 6 0.000000 0.000000 0.000000 0.000000 0.000000 0.037546
#
#
# Mechanical properties :
#
#
# Convention : Reuss Voigt Hill
#
# Bulk Modulus (GPa) = 33.45681 43.73095 38.59388
# Shear Modulus (GPa) = 16.62030 21.08456 18.85243
#
# Velocity S-wave (km/s) = 3.07712 3.46583 3.27725
# Velocity P-wave (km/s) = 5.62899 6.39764 6.02558
#
# Compressibility (1/GPa) = 0.02988928
#
# Stress axis : x y z
#
# Youngs Moduli (GPa) = 30.20459 85.64166 79.51029
#
# Poissons Ratio (x) = 0.67391 0.26788
# Poissons Ratio (y) = 0.23768 0.19860
# Poissons Ratio (z) = 0.10176 0.21392
#
# Static dielectric constant tensor:
#      x y z
#    x 2.852190 0.000000 0.000000 
#    y 0.000000 3.547770 0.000000 
#    z 0.000000 0.000000 3.377750 
# 
# 
# High freq. dielectric constant tensor:
#      x y z
#    x 1.637340 0.000000 0.000000 
#    y 0.000000 1.689450 0.000000 
#    z 0.000000 0.000000 1.666800 
# 
# From -- ./inp_files/66551.got.cif
#   From: 2010.03.12/outbox.cif.g09.slc.cpg/sg63_34_cif.got.tgz:66551.got - 2010.04.10 19:34:48.
