data_PCOD8260474
_publ_section_title
;
Structure prediction by ZEFSAII (Michael W. Deem and Ramdas Pophale) SiO2 
 PCOD8260474
Probable space group: C M C M
;
_chemical_formula_sum "Si O2"
_cell_formula_units_Z 64
_cell_length_a 12.101556
_cell_length_b 15.072847
_cell_length_c 17.336202
_cell_angle_alpha 90.000000
_cell_angle_beta 90.000000
_cell_angle_gamma 90.000000
_cell_volume 3162.208228
_symmetry_space_group_name_H-M "C M C M"
_symmetry_group_IT_number 63
_symmetry_cell_setting 'orthorhombic'
loop_
_space_group_symop_operation_xyz
x,y,z
-x,-y,1/2+z
x,-y,-z
-x,y,1/2-z
-x,-y,-z
x,y,1/2-z
-x,y,z
x,-y,1/2+z
1/2+x,1/2+y,z
1/2-x,1/2-y,1/2+z
1/2+x,1/2-y,-z
1/2-x,1/2+y,1/2-z
1/2-x,1/2-y,-z
1/2+x,1/2+y,1/2-z
1/2-x,1/2+y,z
1/2+x,1/2-y,1/2+z
loop_
_atom_site_type_symbol
_atom_site_label
_atom_site_fract_x
_atom_site_fract_y
_atom_site_fract_z
Si Si1 0.000000 0.921338 0.664206
Si Si2 0.127634 0.352204 0.658934
Si Si3 0.761825 0.680425 0.842193
Si Si4 0.500000 0.213780 0.834697
Si Si5 0.216937 0.005623 0.409163
O O1 0.000000 0.965865 0.750000
O O2 0.000000 0.817789 0.675613
O O3 0.106744 0.945140 0.615575
O O4 0.141750 0.361658 0.750000
O O5 0.191462 0.264842 0.628282
O O6 0.176895 0.440996 0.621348
O O7 0.000000 0.343781 0.634727
O O8 0.763697 0.680794 0.750000
O O9 0.706865 0.591903 0.873457
O O10 0.886893 0.684348 0.877183
O O11 0.500000 0.169080 0.750000
O O12 0.224885 0.000000 0.500000
#
# Coordination Sequence:
#
# PCOD8260474 Si02
#       5
#     8  16  16   8  16
#     4  11  21  43  69  89 119 163 213 266 306 362
#     4  10  22  42  65  91 123 164 216 265 306 362
#     4  10  21  40  65  92 118 162 217 263 306 365
#     4   9  18  37  66  91 115 153 215 268 301 348
#     4  12  26  41  60  95 133 168 202 252 325 384
#
# _framework density 20.239021999999999
#
# number of rings (size 3 to 8) (size 9 to 14) (size 15 to 20)
#    0.000    1.500    2.500    2.625    3.500    1.500 
#    0.000    0.000    0.000    0.000    0.000    0.000 
#    0.000    0.000    0.000    0.000    0.000    0.000 
#
# Total GULP energy -396803.868771 kJ/mol
# GULP energy per Si atom -12400.120899 kJ/mol
# Density = 2.019296 g / cm^3
# Si number density = 20.239022 Si / 1000 Ang^3
#
#
#
# Elastic Constant Matrix: (Units=GPa)
#
#
# Indices 1 2 3 4 5 6 
#
# 1 117.6921 9.9202 27.1928 0.0000 0.0000 0.0000
# 2 9.9202 81.6412 19.9358 0.0000 0.0000 0.0000
# 3 27.1928 19.9358 34.2108 0.0000 0.0000 0.0000
# 4 0.0000 0.0000 0.0000 -16.8914 0.0000 0.0000
# 5 0.0000 0.0000 0.0000 0.0000 26.7926 0.0000
# 6 0.0000 0.0000 0.0000 0.0000 0.0000 14.4771
#
#
#
# Elastic Compliance Matrix: (Units=1/GPa)
#
#
# Indices 1 2 3 4 5 6 
#
# 1 0.010463 0.000885 -0.008832 0.000000 0.000000 0.000000
# 2 0.000885 0.014356 -0.009069 0.000000 0.000000 0.000000
# 3 -0.008832 -0.009069 0.041536 0.000000 0.000000 0.000000
# 4 0.000000 0.000000 0.000000 -0.059202 0.000000 0.000000
# 5 0.000000 0.000000 0.000000 0.000000 0.037324 0.000000
# 6 0.000000 0.000000 0.000000 0.000000 0.000000 0.069075
#
#
# Mechanical properties :
#
#
# Convention : Reuss Voigt Hill
#
# Bulk Modulus (GPa) = 30.93878 38.62685 34.78282
# Shear Modulus (GPa) = 31.57394 16.64201 24.10798
#
# Velocity S-wave (km/s) = 3.95404 2.87064 3.45507
# Velocity P-wave (km/s) = 6.01380 5.48764 5.75673
#
# Compressibility (1/GPa) = 0.03232189
#
# Stress axis : x y z
#
# Youngs Moduli (GPa) = 95.57616 69.65836 24.07541
#
# Poissons Ratio (x) = -0.06168 0.21265
# Poissons Ratio (y) = -0.08463 0.21835
# Poissons Ratio (z) = 0.84417 0.63176
#
# Static dielectric constant tensor:
#      x y z
#    x 3.936370 0.000000 0.000000 
#    y 0.000000 3.808040 0.000000 
#    z 0.000000 0.000000 3.396840 
# 
# 
# High freq. dielectric constant tensor:
#      x y z
#    x 1.809100 0.000000 0.000000 
#    y 0.000000 1.798390 0.000000 
#    z 0.000000 0.000000 1.761180 
# 
# From -- ./inp_files/41511.got.cif
#   From: 2010.03.12/outbox.cif.g09.slc.cpg/sg63_21_cif.got.tgz:41511.got - 2010.04.10 19:34:48.
