data_PCOD8260032
_publ_section_title
;
Structure prediction by ZEFSAII (Michael W. Deem and Ramdas Pophale) SiO2 
 PCOD8260032
Probable space group: C M C M
;
_chemical_formula_sum "Si O2"
_cell_formula_units_Z 72
_cell_length_a 25.984477
_cell_length_b 7.436959
_cell_length_c 20.006480
_cell_angle_alpha 90.000000
_cell_angle_beta 90.000000
_cell_angle_gamma 90.000000
_cell_volume 3866.162032
_symmetry_space_group_name_H-M "C M C M"
_symmetry_group_IT_number 63
_symmetry_cell_setting 'orthorhombic'
loop_
_space_group_symop_operation_xyz
x,y,z
-x,-y,1/2+z
x,-y,-z
-x,y,1/2-z
-x,-y,-z
x,y,1/2-z
-x,y,z
x,-y,1/2+z
1/2+x,1/2+y,z
1/2-x,1/2-y,1/2+z
1/2+x,1/2-y,-z
1/2-x,1/2+y,1/2-z
1/2-x,1/2-y,-z
1/2+x,1/2+y,1/2-z
1/2-x,1/2+y,z
1/2+x,1/2-y,1/2+z
loop_
_atom_site_type_symbol
_atom_site_label
_atom_site_fract_x
_atom_site_fract_y
_atom_site_fract_z
Si Si1 0.878223 0.662306 0.326054
Si Si2 0.440804 0.173982 0.455060
Si Si3 0.185186 0.005857 0.634403
Si Si4 0.871760 0.000000 0.000000
Si Si5 0.207714 0.617327 0.825297
O O1 0.897127 0.623842 0.250000
O O2 0.925374 0.641948 0.377581
O O3 0.836071 0.518202 0.350473
O O4 0.854138 0.861414 0.328274
O O5 0.500000 0.232830 0.456012
O O6 0.407238 0.329083 0.487775
O O7 0.431286 0.000000 0.500000
O O8 0.165875 0.960388 0.560903
O O9 0.186957 0.819775 0.674401
O O10 0.241591 0.096442 0.629282
O O11 0.223492 0.564086 0.750000
#
# Coordination Sequence:
#
# PCOD8260032 Si02
#       5
#    16  16  16   8  16
#     4  10  21  36  55  83 113 144 185 228 271 322
#     4  10  21  40  62  81 106 143 185 231 283 331
#     4  11  21  34  52  78 111 149 183 217 265 323
#     4  10  23  38  54  82 110 140 181 228 272 326
#     4  11  20  33  52  76 110 150 181 214 263 323
#
# _framework density 18.623121000000001
#
# number of rings (size 3 to 8) (size 9 to 14) (size 15 to 20)
#    0.000    1.556    2.222    3.667    0.000    1.333 
#    2.000    0.000    0.000    0.000    0.000    6.222 
#    0.000    0.000    0.000    0.000    0.000    0.000 
#
# Total GULP energy -446499.631695 kJ/mol
# GULP energy per Si atom -12402.767547 kJ/mol
# Density = 1.858073 g / cm^3
# Si number density = 18.623121 Si / 1000 Ang^3
#
#
#
# Elastic Constant Matrix: (Units=GPa)
#
#
# Indices 1 2 3 4 5 6 
#
# 1 94.2528 37.2192 52.0963 0.0000 0.0000 0.0000
# 2 37.2192 88.2884 28.1062 0.0000 0.0000 0.0000
# 3 52.0963 28.1062 97.8905 0.0000 0.0000 0.0000
# 4 0.0000 0.0000 0.0000 26.5476 0.0000 0.0000
# 5 0.0000 0.0000 0.0000 0.0000 27.5900 0.0000
# 6 0.0000 0.0000 0.0000 0.0000 0.0000 21.6675
#
#
#
# Elastic Compliance Matrix: (Units=1/GPa)
#
#
# Indices 1 2 3 4 5 6 
#
# 1 0.016570 -0.004598 -0.007498 0.000000 0.000000 0.000000
# 2 -0.004598 0.013742 -0.001498 0.000000 0.000000 0.000000
# 3 -0.007498 -0.001498 0.014636 0.000000 0.000000 0.000000
# 4 0.000000 0.000000 0.000000 0.037668 0.000000 0.000000
# 5 0.000000 0.000000 0.000000 0.000000 0.036245 0.000000
# 6 0.000000 0.000000 0.000000 0.000000 0.000000 0.046152
#
#
# Mechanical properties :
#
#
# Convention : Reuss Voigt Hill
#
# Bulk Modulus (GPa) = 56.31122 57.25280 56.78201
# Shear Modulus (GPa) = 25.23690 26.02837 25.63263
#
# Velocity S-wave (km/s) = 3.68521 3.74255 3.71399
# Velocity P-wave (km/s) = 6.95778 7.03457 6.99628
#
# Compressibility (1/GPa) = 0.01775845
#
# Stress axis : x y z
#
# Youngs Moduli (GPa) = 60.34995 72.76949 68.32395
#
# Poissons Ratio (x) = 0.33462 0.51230
# Poissons Ratio (y) = 0.27751 0.10238
# Poissons Ratio (z) = 0.45251 0.10904
#
# Static dielectric constant tensor:
#      x y z
#    x 3.327370 0.000000 0.000000 
#    y 0.000000 3.495370 0.000000 
#    z 0.000000 0.000000 3.476970 
# 
# 
# High freq. dielectric constant tensor:
#      x y z
#    x 1.710970 0.000000 0.000000 
#    y 0.000000 1.738280 0.000000 
#    z 0.000000 0.000000 1.723600 
# 
# From -- ./inp_files/47774.got.cif
#   From: 2010.03.12/outbox.cif.g09.slc.cpg/sg63_24_cif.got.tgz:47774.got - 2010.04.10 19:34:48.
