data_PCOD8260057
_publ_section_title
;
Structure prediction by ZEFSAII (Michael W. Deem and Ramdas Pophale) SiO2 
 PCOD8260057
Probable space group: C M C M
;
_chemical_formula_sum "Si O2"
_cell_formula_units_Z 72
_cell_length_a 10.383208
_cell_length_b 27.635672
_cell_length_c 12.948668
_cell_angle_alpha 90.000000
_cell_angle_beta 90.000000
_cell_angle_gamma 90.000000
_cell_volume 3715.580538
_symmetry_space_group_name_H-M "C M C M"
_symmetry_group_IT_number 63
_symmetry_cell_setting 'orthorhombic'
loop_
_space_group_symop_operation_xyz
x,y,z
-x,-y,1/2+z
x,-y,-z
-x,y,1/2-z
-x,-y,-z
x,y,1/2-z
-x,y,z
x,-y,1/2+z
1/2+x,1/2+y,z
1/2-x,1/2-y,1/2+z
1/2+x,1/2-y,-z
1/2-x,1/2+y,1/2-z
1/2-x,1/2-y,-z
1/2+x,1/2+y,1/2-z
1/2-x,1/2+y,z
1/2+x,1/2-y,1/2+z
loop_
_atom_site_type_symbol
_atom_site_label
_atom_site_fract_x
_atom_site_fract_y
_atom_site_fract_z
Si Si1 0.853767 0.932028 0.425507
Si Si2 0.500000 0.178665 0.001098
Si Si3 0.729992 0.536209 0.134724
Si Si4 0.000000 0.226414 0.872294
Si Si5 0.000000 0.582535 0.366613
Si Si6 0.749949 0.830583 0.369531
O O1 0.855018 0.935040 0.550684
O O2 0.772060 0.887396 0.384608
O O3 0.000000 0.927729 0.385929
O O4 0.787044 0.978971 0.377294
O O5 0.500000 0.219001 0.088992
O O6 0.500000 0.126587 0.054101
O O7 0.374579 0.186257 0.931575
O O8 0.687051 0.552225 0.250000
O O9 0.878330 0.548379 0.113736
O O10 0.126376 0.198324 0.913043
O O11 0.000000 0.226973 0.750000
O O12 0.000000 0.603359 0.250000
O O13 0.725586 0.818944 0.250000
#
# Coordination Sequence:
#
# PCOD8260057 Si02
#       6
#    16   8  16   8   8  16
#     4  11  22  37  60  85 117 165 205 245 304 354
#     4  12  22  41  64  90 120 159 198 248 306 352
#     4  10  21  36  56  85 120 159 202 247 291 353
#     4  10  23  43  68  90 118 156 200 248 306 366
#     4  10  21  37  57  84 121 157 198 240 297 363
#     4  11  23  40  63  92 122 156 201 252 301 359
#
# _framework density 19.377860999999999
#
# number of rings (size 3 to 8) (size 9 to 14) (size 15 to 20)
#    0.000    1.333    3.333    3.333    0.000    5.333 
#    0.000    2.222    0.000    1.333    0.000    0.000 
#    0.000    0.000    0.000    0.000    0.000    0.000 
#
# Total GULP energy -446507.453606 kJ/mol
# GULP energy per Si atom -12402.984822 kJ/mol
# Density = 1.933376 g / cm^3
# Si number density = 19.377861 Si / 1000 Ang^3
#
#
#
# Elastic Constant Matrix: (Units=GPa)
#
#
# Indices 1 2 3 4 5 6 
#
# 1 132.0440 37.1820 31.2532 0.0000 0.0000 0.0000
# 2 37.1820 69.5210 8.3733 0.0000 0.0000 0.0000
# 3 31.2532 8.3733 72.9649 0.0000 0.0000 0.0000
# 4 0.0000 0.0000 0.0000 26.5936 0.0000 0.0000
# 5 0.0000 0.0000 0.0000 0.0000 26.4520 0.0000
# 6 0.0000 0.0000 0.0000 0.0000 0.0000 23.5536
#
#
#
# Elastic Compliance Matrix: (Units=1/GPa)
#
#
# Indices 1 2 3 4 5 6 
#
# 1 0.009785 -0.004795 -0.003641 0.000000 0.000000 0.000000
# 2 -0.004795 0.016935 0.000110 0.000000 0.000000 0.000000
# 3 -0.003641 0.000110 0.015252 0.000000 0.000000 0.000000
# 4 0.000000 0.000000 0.000000 0.037603 0.000000 0.000000
# 5 0.000000 0.000000 0.000000 0.000000 0.037804 0.000000
# 6 0.000000 0.000000 0.000000 0.000000 0.000000 0.042456
#
#
# Mechanical properties :
#
#
# Convention : Reuss Voigt Hill
#
# Bulk Modulus (GPa) = 39.49222 47.57187 43.53205
# Shear Modulus (GPa) = 27.03752 28.50125 27.76938
#
# Velocity S-wave (km/s) = 3.73940 3.83928 3.78967
# Velocity P-wave (km/s) = 6.25047 6.65254 6.45464
#
# Compressibility (1/GPa) = 0.02532144
#
# Stress axis : x y z
#
# Youngs Moduli (GPa) = 102.19504 59.04827 65.56450
#
# Poissons Ratio (x) = 0.28313 0.23873
# Poissons Ratio (y) = 0.49001 -0.00724
# Poissons Ratio (z) = 0.37210 -0.00652
#
# Static dielectric constant tensor:
#      x y z
#    x 3.645050 0.000000 0.000000 
#    y 0.000000 3.359870 0.000000 
#    z 0.000000 0.000000 3.710400 
# 
# 
# High freq. dielectric constant tensor:
#      x y z
#    x 1.763880 0.000000 0.000000 
#    y 0.000000 1.744420 0.000000 
#    z 0.000000 0.000000 1.761880 
# 
# From -- ./inp_files/27931.got.cif
#   From: 2010.03.12/outbox.cif.g09.slc.cpg/sg63_14_cif.got.tgz:27931.got - 2010.04.10 19:34:48.
