data_PCOD8260321
_publ_section_title
;
Structure prediction by ZEFSAII (Michael W. Deem and Ramdas Pophale) SiO2 
 PCOD8260321
Probable space group: C M C M
;
_chemical_formula_sum "Si O2"
_cell_formula_units_Z 80
_cell_length_a 11.743173
_cell_length_b 20.064718
_cell_length_c 17.434136
_cell_angle_alpha 90.000000
_cell_angle_beta 90.000000
_cell_angle_gamma 90.000000
_cell_volume 4107.891354
_symmetry_space_group_name_H-M "C M C M"
_symmetry_group_IT_number 63
_symmetry_cell_setting 'orthorhombic'
loop_
_space_group_symop_operation_xyz
x,y,z
-x,-y,1/2+z
x,-y,-z
-x,y,1/2-z
-x,-y,-z
x,y,1/2-z
-x,y,z
x,-y,1/2+z
1/2+x,1/2+y,z
1/2-x,1/2-y,1/2+z
1/2+x,1/2-y,-z
1/2-x,1/2+y,1/2-z
1/2-x,1/2-y,-z
1/2+x,1/2+y,1/2-z
1/2-x,1/2+y,z
1/2+x,1/2-y,1/2+z
loop_
_atom_site_type_symbol
_atom_site_label
_atom_site_fract_x
_atom_site_fract_y
_atom_site_fract_z
Si Si1 0.131757 0.116790 0.565855
Si Si2 0.130649 0.751943 0.338520
Si Si3 0.000000 0.600656 0.020701
Si Si4 0.744460 0.007365 0.665129
Si Si5 0.266387 0.867293 0.584853
Si Si6 0.500000 0.028696 0.624431
O O1 0.157643 0.180862 0.616479
O O2 0.197257 0.053406 0.601139
O O3 0.167790 0.132818 0.478720
O O4 0.000000 0.097621 0.565557
O O5 0.147387 0.768914 0.250000
O O6 0.227578 0.697948 0.361358
O O7 0.000000 0.727159 0.353627
O O8 0.886035 0.639253 0.041257
O O9 0.000000 0.531860 0.065568
O O10 0.000000 0.594013 0.928731
O O11 0.801115 0.014402 0.750000
O O12 0.612446 0.027258 0.676030
O O13 0.752167 0.931252 0.638084
#
# Coordination Sequence:
#
# PCOD8260321 Si02
#       6
#    16  16   8  16  16   8
#     4  11  24  40  58  83 117 162 202 230 273 343
#     4  10  21  38  61  88 117 147 186 241 298 348
#     4   9  16  30  56  86 112 140 178 240 292 338
#     4  11  22  35  57  87 119 150 188 243 296 344
#     4  11  20  37  61  88 114 145 196 244 290 337
#     4   9  17  32  52  84 118 144 177 229 300 349
#
# _framework density 19.474713000000001
#
# number of rings (size 3 to 8) (size 9 to 14) (size 15 to 20)
#    0.000    1.600    3.000    2.700    0.000    2.800 
#    0.000    0.000    0.000    1.800    0.000    0.000 
#    0.000    0.000    0.000    0.000    0.000    0.000 
#
# Total GULP energy -495854.645712 kJ/mol
# GULP energy per Si atom -12396.366143 kJ/mol
# Density = 1.943039 g / cm^3
# Si number density = 19.474713 Si / 1000 Ang^3
#
#
#
# Elastic Constant Matrix: (Units=GPa)
#
#
# Indices 1 2 3 4 5 6 
#
# 1 75.3826 31.0214 16.1807 0.0000 0.0000 0.0000
# 2 31.0214 77.6509 19.6711 0.0000 0.0000 0.0000
# 3 16.1807 19.6711 97.2578 0.0000 0.0000 0.0000
# 4 0.0000 0.0000 0.0000 28.6100 0.0000 0.0000
# 5 0.0000 0.0000 0.0000 0.0000 27.3893 0.0000
# 6 0.0000 0.0000 0.0000 0.0000 0.0000 51.2148
#
#
#
# Elastic Compliance Matrix: (Units=1/GPa)
#
#
# Indices 1 2 3 4 5 6 
#
# 1 0.016067 -0.006052 -0.001449 0.000000 0.000000 0.000000
# 2 -0.006052 0.015853 -0.002200 0.000000 0.000000 0.000000
# 3 -0.001449 -0.002200 0.010968 0.000000 0.000000 0.000000
# 4 0.000000 0.000000 0.000000 0.034953 0.000000 0.000000
# 5 0.000000 0.000000 0.000000 0.000000 0.036511 0.000000
# 6 0.000000 0.000000 0.000000 0.000000 0.000000 0.019526
#
#
# Mechanical properties :
#
#
# Convention : Reuss Voigt Hill
#
# Bulk Modulus (GPa) = 42.57611 42.67085 42.62348
# Shear Modulus (GPa) = 31.03530 33.67068 32.35299
#
# Velocity S-wave (km/s) = 3.99635 4.16257 4.08030
# Velocity P-wave (km/s) = 6.57298 6.71276 6.64324
#
# Compressibility (1/GPa) = 0.02348735
#
# Stress axis : x y z
#
# Youngs Moduli (GPa) = 62.23900 63.07953 91.17507
#
# Poissons Ratio (x) = 0.38174 0.13212
# Poissons Ratio (y) = 0.37665 0.20055
# Poissons Ratio (z) = 0.09019 0.13875
#
# Static dielectric constant tensor:
#      x y z
#    x 3.557090 0.000000 0.000000 
#    y 0.000000 3.403600 0.000000 
#    z 0.000000 0.000000 3.545690 
# 
# 
# High freq. dielectric constant tensor:
#      x y z
#    x 1.740830 0.000000 0.000000 
#    y 0.000000 1.751890 0.000000 
#    z 0.000000 0.000000 1.767730 
# 
# From -- ./inp_files/42175.got.cif
#   From: 2010.03.12/outbox.cif.g09.slc.cpg/sg63_22_cif.got.tgz:42175.got - 2010.04.10 19:34:48.
