data_PCOD8260486
_publ_section_title
;
Structure prediction by ZEFSAII (Michael W. Deem and Ramdas Pophale) SiO2 
 PCOD8260486
Probable space group: C M C M
;
_chemical_formula_sum "Si O2"
_cell_formula_units_Z 112
_cell_length_a 24.133269
_cell_length_b 14.421528
_cell_length_c 14.246356
_cell_angle_alpha 90.000000
_cell_angle_beta 90.000000
_cell_angle_gamma 90.000000
_cell_volume 4958.282006
_symmetry_space_group_name_H-M "C M C M"
_symmetry_group_IT_number 63
_symmetry_cell_setting 'orthorhombic'
loop_
_space_group_symop_operation_xyz
x,y,z
-x,-y,1/2+z
x,-y,-z
-x,y,1/2-z
-x,-y,-z
x,y,1/2-z
-x,y,z
x,-y,1/2+z
1/2+x,1/2+y,z
1/2-x,1/2-y,1/2+z
1/2+x,1/2-y,-z
1/2-x,1/2+y,1/2-z
1/2-x,1/2-y,-z
1/2+x,1/2+y,1/2-z
1/2-x,1/2+y,z
1/2+x,1/2-y,1/2+z
loop_
_atom_site_type_symbol
_atom_site_label
_atom_site_fract_x
_atom_site_fract_y
_atom_site_fract_z
Si Si1 0.439083 0.212536 0.450385
Si Si2 0.850176 0.405855 0.855041
Si Si3 0.306936 0.899231 0.353422
Si Si4 0.643267 0.571521 0.355493
Si Si5 0.753590 0.856642 0.529355
Si Si6 0.436233 0.595490 0.639800
Si Si7 0.903327 0.734879 0.851897
O O1 0.500000 0.195340 0.408234
O O2 0.399801 0.130257 0.418292
O O3 0.416852 0.312343 0.415705
O O4 0.443231 0.206878 0.563381
O O5 0.858788 0.368925 0.750000
O O6 0.850985 0.517142 0.860290
O O7 0.791643 0.368697 0.890261
O O8 0.278415 0.898758 0.250000
O O9 0.260232 0.913268 0.433208
O O10 0.341137 0.804717 0.369893
O O11 0.668043 0.553416 0.250000
O O12 0.689548 0.601495 0.431048
O O13 0.607111 0.483958 0.391190
O O14 0.599637 0.654630 0.348684
O O15 0.750000 0.750000 0.500000
O O16 0.431580 0.615337 0.750000
O O17 0.500000 0.568808 0.613567
O O18 0.925508 0.698631 0.750000
#
# Coordination Sequence:
#
# PCOD8260486 Si02
#       7
#    16  16  16  16  16  16  16
#     4  11  23  42  70 100 130 175 228 282 342 402
#     4  11  24  43  66  95 132 174 219 275 339 396
#     4  10  22  43  67  90 131 178 218 273 337 397
#     4  10  21  40  66  99 135 175 225 275 330 404
#     4  12  22  40  67  96 135 176 219 275 336 394
#     4   9  20  41  68  99 137 177 222 278 337 400
#     4  10  21  41  64  92 132 172 218 274 334 399
#
# _framework density 22.588469
#
# number of rings (size 3 to 8) (size 9 to 14) (size 15 to 20)
#    0.000    1.571    2.857    1.286    0.000    2.857 
#   10.286    4.286    0.000    2.571    0.000    0.000 
#    0.000    0.000    0.000    0.000    0.000    0.000 
#
# Total GULP energy -694256.351698 kJ/mol
# GULP energy per Si atom -12397.434852 kJ/mol
# Density = 2.253706 g / cm^3
# Si number density = 22.588469 Si / 1000 Ang^3
#
#
#
# Elastic Constant Matrix: (Units=GPa)
#
#
# Indices 1 2 3 4 5 6 
#
# 1 86.0394 32.6254 44.4775 0.0000 0.0000 0.0000
# 2 32.6254 81.7134 43.7599 0.0000 0.0000 0.0000
# 3 44.4775 43.7599 147.6856 0.0000 0.0000 0.0000
# 4 0.0000 0.0000 0.0000 31.8632 0.0000 0.0000
# 5 0.0000 0.0000 0.0000 0.0000 24.0094 0.0000
# 6 0.0000 0.0000 0.0000 0.0000 0.0000 34.0980
#
#
#
# Elastic Compliance Matrix: (Units=1/GPa)
#
#
# Indices 1 2 3 4 5 6 
#
# 1 0.014893 -0.004213 -0.003237 0.000000 0.000000 0.000000
# 2 -0.004213 0.015738 -0.003394 0.000000 0.000000 0.000000
# 3 -0.003237 -0.003394 0.008752 0.000000 0.000000 0.000000
# 4 0.000000 0.000000 0.000000 0.031384 0.000000 0.000000
# 5 0.000000 0.000000 0.000000 0.000000 0.041650 0.000000
# 6 0.000000 0.000000 0.000000 0.000000 0.000000 0.029327
#
#
# Mechanical properties :
#
#
# Convention : Reuss Voigt Hill
#
# Bulk Modulus (GPa) = 56.51541 61.90710 59.21126
# Shear Modulus (GPa) = 29.52788 30.96584 30.24686
#
# Velocity S-wave (km/s) = 3.61946 3.70654 3.66326
# Velocity P-wave (km/s) = 6.52236 6.76638 6.64549
#
# Compressibility (1/GPa) = 0.01769429
#
# Stress axis : x y z
#
# Youngs Moduli (GPa) = 67.14366 63.54141 114.26225
#
# Poissons Ratio (x) = 0.26769 0.36987
# Poissons Ratio (y) = 0.28287 0.38785
# Poissons Ratio (z) = 0.21735 0.21569
#
# Static dielectric constant tensor:
#      x y z
#    x 3.763550 0.000000 0.000000 
#    y 0.000000 4.185890 0.000000 
#    z 0.000000 0.000000 5.819080 
# 
# 
# High freq. dielectric constant tensor:
#      x y z
#    x 1.860520 0.000000 0.000000 
#    y 0.000000 1.894290 0.000000 
#    z 0.000000 0.000000 1.912820 
# 
# From -- ./inp_files/36956.got.cif
#   From: 2010.03.12/outbox.cif.g09.slc.cpg/sg63_19_cif.got.tgz:36956.got - 2010.04.10 19:34:48.
