data_PCOD8260539
_publ_section_title
;
Structure prediction by ZEFSAII (Michael W. Deem and Ramdas Pophale) SiO2 
 PCOD8260539
Probable space group: C M C M
;
_chemical_formula_sum "Si O2"
_cell_formula_units_Z 64
_cell_length_a 8.041746
_cell_length_b 20.392862
_cell_length_c 19.661439
_cell_angle_alpha 90.000000
_cell_angle_beta 90.000000
_cell_angle_gamma 90.000000
_cell_volume 3224.362282
_symmetry_space_group_name_H-M "C M C M"
_symmetry_group_IT_number 63
_symmetry_cell_setting 'orthorhombic'
loop_
_space_group_symop_operation_xyz
x,y,z
-x,-y,1/2+z
x,-y,-z
-x,y,1/2-z
-x,-y,-z
x,y,1/2-z
-x,y,z
x,-y,1/2+z
1/2+x,1/2+y,z
1/2-x,1/2-y,1/2+z
1/2+x,1/2-y,-z
1/2-x,1/2+y,1/2-z
1/2-x,1/2-y,-z
1/2+x,1/2+y,1/2-z
1/2-x,1/2+y,z
1/2+x,1/2-y,1/2+z
loop_
_atom_site_type_symbol
_atom_site_label
_atom_site_fract_x
_atom_site_fract_y
_atom_site_fract_z
Si Si1 0.319784 0.052267 0.060115
Si Si2 0.809737 0.300083 0.556212
Si Si3 0.500000 0.632386 0.828675
Si Si4 0.813735 0.276263 0.326593
Si Si5 0.000000 0.004913 0.583089
O O1 0.500000 0.052324 0.098290
O O2 0.282373 0.125218 0.031350
O O3 0.167764 0.031562 0.109574
O O4 0.328834 0.000000 0.000000
O O5 0.750000 0.250000 0.500000
O O6 0.706466 0.286796 0.625002
O O7 0.000000 0.285659 0.572528
O O8 0.500000 0.607458 0.750000
O O9 0.330014 0.671526 0.843590
O O10 0.500000 0.576311 0.885105
O O11 0.792585 0.250575 0.250000
O O12 0.000000 0.306720 0.337294
O O13 0.000000 0.000000 0.500000
#
# Coordination Sequence:
#
# PCOD8260539 Si02
#       5
#    16  16   8  16   8
#     4   9  21  38  54  83 122 158 195 242 303 355
#     4  11  23  36  61  95 125 159 209 259 307 370
#     4  10  22  42  64  92 121 160 208 252 308 376
#     4  10  22  40  63  91 125 160 202 260 318 370
#     4  10  22  36  62  82 122 160 197 248 304 356
#
# _framework density 19.848886
#
# number of rings (size 3 to 8) (size 9 to 14) (size 15 to 20)
#    0.000    2.000    1.250    0.750   10.500    1.000 
#    0.000    1.250    0.000    1.500    0.000    0.000 
#    0.000    0.000    0.000    0.000    0.000    0.000 
#
# Total GULP energy -396418.437018 kJ/mol
# GULP energy per Si atom -12388.076157 kJ/mol
# Density = 1.980371 g / cm^3
# Si number density = 19.848886 Si / 1000 Ang^3
#
#
#
# Elastic Constant Matrix: (Units=GPa)
#
#
# Indices 1 2 3 4 5 6 
#
# 1 189.5206 69.9635 34.4474 0.0000 0.0000 0.0000
# 2 69.9635 146.8361 61.8682 0.0000 0.0000 0.0000
# 3 34.4474 61.8682 88.6036 0.0000 0.0000 0.0000
# 4 0.0000 0.0000 0.0000 32.4321 0.0000 0.0000
# 5 0.0000 0.0000 0.0000 0.0000 21.5952 0.0000
# 6 0.0000 0.0000 0.0000 0.0000 0.0000 26.0296
#
#
#
# Elastic Compliance Matrix: (Units=1/GPa)
#
#
# Indices 1 2 3 4 5 6 
#
# 1 0.006419 -0.002844 -0.000510 0.000000 0.000000 0.000000
# 2 -0.002844 0.010909 -0.006512 0.000000 0.000000 0.000000
# 3 -0.000510 -0.006512 0.016031 0.000000 0.000000 0.000000
# 4 0.000000 0.000000 0.000000 0.030834 0.000000 0.000000
# 5 0.000000 0.000000 0.000000 0.000000 0.046307 0.000000
# 6 0.000000 0.000000 0.000000 0.000000 0.000000 0.038418
#
#
# Mechanical properties :
#
#
# Convention : Reuss Voigt Hill
#
# Bulk Modulus (GPa) = 73.37508 84.16872 78.77190
# Shear Modulus (GPa) = 28.86996 33.25679 31.06337
#
# Velocity S-wave (km/s) = 3.81791 4.09773 3.96029
# Velocity P-wave (km/s) = 7.51548 8.05514 7.78998
#
# Compressibility (1/GPa) = 0.01362860
#
# Stress axis : x y z
#
# Youngs Moduli (GPa) = 155.79004 91.66899 62.37785
#
# Poissons Ratio (x) = 0.26066 0.03181
# Poissons Ratio (y) = 0.44299 0.40618
# Poissons Ratio (z) = 0.07946 0.59692
#
# Static dielectric constant tensor:
#      x y z
#    x 5.110000 0.000000 0.000000 
#    y 0.000000 3.632870 0.000000 
#    z 0.000000 0.000000 4.604530 
# 
# 
# High freq. dielectric constant tensor:
#      x y z
#    x 1.816310 0.000000 0.000000 
#    y 0.000000 1.762420 0.000000 
#    z 0.000000 0.000000 1.733010 
# 
# From -- ./inp_files/39864.got.cif
#   From: 2010.03.12/outbox.cif.g09.slc.cpg/sg63_20_cif.got.tgz:39864.got - 2010.04.10 19:34:48.
