data_PCOD8260937
_publ_section_title
;
Structure prediction by ZEFSAII (Michael W. Deem and Ramdas Pophale) SiO2 
 PCOD8260937
Probable space group: C M C M
;
_chemical_formula_sum "Si O2"
_cell_formula_units_Z 96
_cell_length_a 8.715049
_cell_length_b 23.570848
_cell_length_c 26.412699
_cell_angle_alpha 90.000000
_cell_angle_beta 90.000000
_cell_angle_gamma 90.000000
_cell_volume 5425.725558
_symmetry_space_group_name_H-M "C M C M"
_symmetry_group_IT_number 63
_symmetry_cell_setting 'orthorhombic'
loop_
_space_group_symop_operation_xyz
x,y,z
-x,-y,1/2+z
x,-y,-z
-x,y,1/2-z
-x,-y,-z
x,y,1/2-z
-x,y,z
x,-y,1/2+z
1/2+x,1/2+y,z
1/2-x,1/2-y,1/2+z
1/2+x,1/2-y,-z
1/2-x,1/2+y,1/2-z
1/2-x,1/2-y,-z
1/2+x,1/2+y,1/2-z
1/2-x,1/2+y,z
1/2+x,1/2-y,1/2+z
loop_
_atom_site_type_symbol
_atom_site_label
_atom_site_fract_x
_atom_site_fract_y
_atom_site_fract_z
Si Si1 0.171659 0.931576 0.458142
Si Si2 0.178498 0.893072 0.568183
Si Si3 0.817360 0.271532 0.552499
Si Si4 0.317270 0.581047 0.807761
Si Si5 0.172384 0.830542 0.113758
Si Si6 0.178767 0.507842 0.120998
O O1 0.210831 0.929365 0.517337
O O2 0.178959 0.867876 0.437181
O O3 0.000000 0.956740 0.449226
O O4 0.292944 0.970532 0.429213
O O5 0.269148 0.834506 0.566740
O O6 0.241097 0.930760 0.614659
O O7 0.000000 0.879595 0.574995
O O8 0.750000 0.250000 0.500000
O O9 0.754299 0.229911 0.597770
O O10 0.000000 0.267253 0.548619
O O11 0.265480 0.588239 0.750000
O O12 0.500000 0.577540 0.814014
O O13 0.248952 0.634938 0.839622
O O14 0.248534 0.522898 0.829754
O O15 0.000000 0.819105 0.131594
O O16 0.000000 0.517147 0.129248
#
# Coordination Sequence:
#
# PCOD8260937 Si02
#       6
#    16  16  16  16  16  16
#     4   9  17  32  50  69  99 140 177 211 252 303
#     4  11  21  34  50  70 101 144 184 216 253 303
#     4  11  20  32  49  73 107 145 182 216 254 307
#     4   9  18  36  61  81  98 129 171 212 261 320
#     4   8  15  30  50  75 103 132 169 212 256 302
#     4  11  22  33  48  76 107 133 167 215 266 315
#
# _framework density 17.693486
#
# number of rings (size 3 to 8) (size 9 to 14) (size 15 to 20)
#    0.000    2.167    1.667    4.000    0.000    3.667 
#    0.000    0.833    0.000    1.000    0.000    2.333 
#    0.000    0.000    0.000    0.000    0.000    0.000 
#
# Total GULP energy -594944.228678 kJ/mol
# GULP energy per Si atom -12394.671431 kJ/mol
# Density = 1.765321 g / cm^3
# Si number density = 17.693486 Si / 1000 Ang^3
#
#
#
# Elastic Constant Matrix: (Units=GPa)
#
#
# Indices 1 2 3 4 5 6 
#
# 1 61.4589 31.3850 30.7910 0.0000 0.0000 0.0000
# 2 31.3850 96.8067 48.3509 0.0000 0.0000 0.0000
# 3 30.7910 48.3509 105.7175 0.0000 0.0000 0.0000
# 4 0.0000 0.0000 0.0000 17.9670 0.0000 0.0000
# 5 0.0000 0.0000 0.0000 0.0000 17.2086 0.0000
# 6 0.0000 0.0000 0.0000 0.0000 0.0000 27.0140
#
#
#
# Elastic Compliance Matrix: (Units=1/GPa)
#
#
# Indices 1 2 3 4 5 6 
#
# 1 0.020626 -0.004778 -0.003822 0.000000 0.000000 0.000000
# 2 -0.004778 0.014495 -0.005238 0.000000 0.000000 0.000000
# 3 -0.003822 -0.005238 0.012968 0.000000 0.000000 0.000000
# 4 0.000000 0.000000 0.000000 0.055658 0.000000 0.000000
# 5 0.000000 0.000000 0.000000 0.000000 0.058110 0.000000
# 6 0.000000 0.000000 0.000000 0.000000 0.000000 0.037018
#
#
# Mechanical properties :
#
#
# Convention : Reuss Voigt Hill
#
# Bulk Modulus (GPa) = 48.98857 53.89301 51.44079
# Shear Modulus (GPa) = 21.42661 22.66835 22.04748
#
# Velocity S-wave (km/s) = 3.48370 3.58323 3.53381
# Velocity P-wave (km/s) = 6.62790 6.90251 6.76660
#
# Compressibility (1/GPa) = 0.02041292
#
# Stress axis : x y z
#
# Youngs Moduli (GPa) = 48.48275 68.98953 77.11308
#
# Poissons Ratio (x) = 0.32963 0.29474
# Poissons Ratio (y) = 0.23165 0.40390
# Poissons Ratio (z) = 0.18531 0.36135
#
# Static dielectric constant tensor:
#      x y z
#    x 3.100260 0.000000 0.000000 
#    y 0.000000 3.442540 0.000000 
#    z 0.000000 0.000000 3.182280 
# 
# 
# High freq. dielectric constant tensor:
#      x y z
#    x 1.668420 0.000000 0.000000 
#    y 0.000000 1.689830 0.000000 
#    z 0.000000 0.000000 1.654520 
# 
# From -- ./inp_files/67194.got.cif
#   From: 2010.03.12/outbox.cif.g09.slc.cpg/sg63_34_cif.got.tgz:67194.got - 2010.04.10 19:34:48.
