data_PCOD8260139
_publ_section_title
;
Structure prediction by ZEFSAII (Michael W. Deem and Ramdas Pophale) SiO2 
 PCOD8260139
Probable space group: C M C M
;
_chemical_formula_sum "Si O2"
_cell_formula_units_Z 112
_cell_length_a 14.431843
_cell_length_b 22.854061
_cell_length_c 17.268691
_cell_angle_alpha 90.000000
_cell_angle_beta 90.000000
_cell_angle_gamma 90.000000
_cell_volume 5695.667081
_symmetry_space_group_name_H-M "C M C M"
_symmetry_group_IT_number 63
_symmetry_cell_setting 'orthorhombic'
loop_
_space_group_symop_operation_xyz
x,y,z
-x,-y,1/2+z
x,-y,-z
-x,y,1/2-z
-x,-y,-z
x,y,1/2-z
-x,y,z
x,-y,1/2+z
1/2+x,1/2+y,z
1/2-x,1/2-y,1/2+z
1/2+x,1/2-y,-z
1/2-x,1/2+y,1/2-z
1/2-x,1/2-y,-z
1/2+x,1/2+y,1/2-z
1/2-x,1/2+y,z
1/2+x,1/2-y,1/2+z
loop_
_atom_site_type_symbol
_atom_site_label
_atom_site_fract_x
_atom_site_fract_y
_atom_site_fract_z
Si Si1 0.107250 0.854196 0.160707
Si Si2 0.399636 0.513061 0.658282
Si Si3 0.278590 0.253810 0.088224
Si Si4 0.101686 0.705885 0.658626
Si Si5 0.891448 0.649228 0.341242
Si Si6 0.393471 0.923021 0.338360
Si Si7 0.210765 0.533453 0.342264
O O1 0.137995 0.845056 0.250000
O O2 0.123953 0.920677 0.132967
O O3 0.170420 0.814621 0.105898
O O4 0.000000 0.836468 0.151280
O O5 0.407085 0.513263 0.750000
O O6 0.500000 0.493483 0.623653
O O7 0.318968 0.468369 0.631315
O O8 0.181414 0.248972 0.134529
O O9 0.347569 0.202564 0.112350
O O10 0.250000 0.250000 0.000000
O O11 0.096598 0.700865 0.750000
O O12 0.123953 0.640917 0.623636
O O13 0.000000 0.726668 0.628082
O O14 0.875585 0.658975 0.250000
O O15 0.840025 0.591271 0.373042
O O16 0.000000 0.644409 0.360648
O O17 0.360160 0.919271 0.250000
O O18 0.500000 0.940967 0.344115
O O19 0.336181 0.975271 0.378978
O O20 0.200787 0.532549 0.250000
#
# Coordination Sequence:
#
# PCOD8260139 Si02
#       7
#    16  16  16  16  16  16  16
#     4   9  17  32  57  84 105 130 173 228 275 310
#     4   8  14  25  46  79 110 131 159 208 266 314
#     4  12  24  35  50  72 102 142 178 217 264 309
#     4   9  18  33  53  75  98 127 169 219 263 306
#     4  10  21  37  57  80 106 138 176 214 252 302
#     4   8  13  23  44  74 100 121 154 207 264 305
#     4   9  15  25  46  77 110 137 161 198 250 307
#
# _framework density 19.664072000000001
#
# number of rings (size 3 to 8) (size 9 to 14) (size 15 to 20)
#    0.000    2.714    0.000    4.714    0.000    6.286 
#    0.000    0.714    0.000    6.000    0.000    8.000 
#    0.000    0.000    0.000    0.000    0.000    0.000 
#
# Total GULP energy -693975.755475 kJ/mol
# GULP energy per Si atom -12392.424205 kJ/mol
# Density = 1.961932 g / cm^3
# Si number density = 19.664072 Si / 1000 Ang^3
#
#
#
# Elastic Constant Matrix: (Units=GPa)
#
#
# Indices 1 2 3 4 5 6 
#
# 1 154.9832 78.0232 31.4849 0.0000 0.0000 0.0000
# 2 78.0232 79.3482 23.6906 0.0000 0.0000 0.0000
# 3 31.4849 23.6906 37.4288 0.0000 0.0000 0.0000
# 4 0.0000 0.0000 0.0000 3.4684 0.0000 0.0000
# 5 0.0000 0.0000 0.0000 0.0000 13.1554 0.0000
# 6 0.0000 0.0000 0.0000 0.0000 0.0000 41.0900
#
#
#
# Elastic Compliance Matrix: (Units=1/GPa)
#
#
# Indices 1 2 3 4 5 6 
#
# 1 0.013149 -0.011870 -0.003548 0.000000 0.000000 0.000000
# 2 -0.011870 0.026255 -0.006633 0.000000 0.000000 0.000000
# 3 -0.003548 -0.006633 0.033900 0.000000 0.000000 0.000000
# 4 0.000000 0.000000 0.000000 0.288316 0.000000 0.000000
# 5 0.000000 0.000000 0.000000 0.000000 0.076014 0.000000
# 6 0.000000 0.000000 0.000000 0.000000 0.000000 0.024337
#
#
# Mechanical properties :
#
#
# Convention : Reuss Voigt Hill
#
# Bulk Modulus (GPa) = 34.24375 59.79529 47.01952
# Shear Modulus (GPa) = 9.69356 20.78019 15.23687
#
# Velocity S-wave (km/s) = 2.22267 3.25431 2.78665
# Velocity P-wave (km/s) = 4.90298 6.67796 5.85809
#
# Compressibility (1/GPa) = 0.02920241
#
# Stress axis : x y z
#
# Youngs Moduli (GPa) = 76.05317 38.08821 29.49857
#
# Poissons Ratio (x) = 0.45211 0.10465
# Poissons Ratio (y) = 0.90275 0.19567
# Poissons Ratio (z) = 0.26980 0.25264
#
# Static dielectric constant tensor:
#      x y z
#    x 3.039770 0.000000 0.000000 
#    y 0.000000 3.691730 0.000000 
#    z 0.000000 0.000000 2.945990 
# 
# 
# High freq. dielectric constant tensor:
#      x y z
#    x 1.792390 0.000000 0.000000 
#    y 0.000000 1.755710 0.000000 
#    z 0.000000 0.000000 1.695270 
# 
# From -- ./inp_files/32315.got.cif
#   From: 2010.03.12/outbox.cif.g09.slc.cpg/sg63_17_cif.got.tgz:32315.got - 2010.04.10 19:34:48.
