data_PCOD8260917
_publ_section_title
;
Structure prediction by ZEFSAII (Michael W. Deem and Ramdas Pophale) SiO2 
 PCOD8260917
Probable space group: C M C M
;
_chemical_formula_sum "Si O2"
_cell_formula_units_Z 80
_cell_length_a 7.536980
_cell_length_b 23.255243
_cell_length_c 22.773356
_cell_angle_alpha 90.000000
_cell_angle_beta 90.000000
_cell_angle_gamma 90.000000
_cell_volume 3991.584063
_symmetry_space_group_name_H-M "C M C M"
_symmetry_group_IT_number 63
_symmetry_cell_setting 'orthorhombic'
loop_
_space_group_symop_operation_xyz
x,y,z
-x,-y,1/2+z
x,-y,-z
-x,y,1/2-z
-x,-y,-z
x,y,1/2-z
-x,y,z
x,-y,1/2+z
1/2+x,1/2+y,z
1/2-x,1/2-y,1/2+z
1/2+x,1/2-y,-z
1/2-x,1/2+y,1/2-z
1/2-x,1/2-y,-z
1/2+x,1/2+y,1/2-z
1/2-x,1/2+y,z
1/2+x,1/2-y,1/2+z
loop_
_atom_site_type_symbol
_atom_site_label
_atom_site_fract_x
_atom_site_fract_y
_atom_site_fract_z
Si Si1 0.290106 0.321033 0.250000
Si Si2 0.000000 0.073016 0.562371
Si Si3 0.500000 0.437371 0.572221
Si Si4 0.801719 0.631110 0.132136
Si Si5 0.297455 0.143976 0.624443
Si Si6 0.710424 0.809279 0.750000
Si Si7 0.294522 0.738453 0.433622
O O1 0.500000 0.318999 0.250000
O O2 0.221292 0.357321 0.194552
O O3 0.211393 0.255789 0.250000
O O4 0.176131 0.096726 0.593313
O O5 0.000000 0.089678 0.493367
O O6 0.000000 0.005299 0.569977
O O7 0.324841 0.418198 0.607171
O O8 0.722675 0.655791 0.193159
O O9 0.816964 0.683819 0.086867
O O10 0.000000 0.605296 0.140214
O O11 0.500000 0.131520 0.605544
O O12 0.233837 0.206763 0.603940
O O13 0.500000 0.805242 0.750000
O O14 0.500000 0.724059 0.424106
O O15 0.250000 0.750000 0.500000
#
# Coordination Sequence:
#
# PCOD8260917 Si02
#       7
#     8   8   8  16  16   8  16
#     4  11  19  37  65  93 133 175 207 252 326 395
#     4  11  26  47  69  87 131 174 228 273 322 381
#     4  11  26  47  67  95 121 178 228 273 320 385
#     4  11  22  40  63  94 131 167 212 267 327 389
#     4  11  24  40  62  96 130 169 215 266 325 388
#     4   9  20  36  62  95 132 174 205 251 329 397
#     4  11  22  34  56  92 131 167 208 263 330 393
#
# _framework density 20.042166999999999
#
# number of rings (size 3 to 8) (size 9 to 14) (size 15 to 20)
#    0.000    1.200    4.000    2.100    2.800    3.600 
#    1.800    4.000    0.000    2.400    0.000    0.000 
#    0.000    0.000    0.000    0.000    0.000    0.000 
#
# Total GULP energy -496171.649544 kJ/mol
# GULP energy per Si atom -12404.291239 kJ/mol
# Density = 1.999655 g / cm^3
# Si number density = 20.042167 Si / 1000 Ang^3
#
#
#
# Elastic Constant Matrix: (Units=GPa)
#
#
# Indices 1 2 3 4 5 6 
#
# 1 100.8011 37.9327 27.3633 0.0000 0.0000 0.0000
# 2 37.9327 67.8167 22.3256 0.0000 0.0000 0.0000
# 3 27.3633 22.3256 111.5477 0.0000 0.0000 0.0000
# 4 0.0000 0.0000 0.0000 27.9245 0.0000 0.0000
# 5 0.0000 0.0000 0.0000 0.0000 25.7127 0.0000
# 6 0.0000 0.0000 0.0000 0.0000 0.0000 31.2020
#
#
#
# Elastic Compliance Matrix: (Units=1/GPa)
#
#
# Indices 1 2 3 4 5 6 
#
# 1 0.012910 -0.006614 -0.001843 0.000000 0.000000 0.000000
# 2 -0.006614 0.019175 -0.002215 0.000000 0.000000 0.000000
# 3 -0.001843 -0.002215 0.009860 0.000000 0.000000 0.000000
# 4 0.000000 0.000000 0.000000 0.035811 0.000000 0.000000
# 5 0.000000 0.000000 0.000000 0.000000 0.038891 0.000000
# 6 0.000000 0.000000 0.000000 0.000000 0.000000 0.032049
#
#
# Mechanical properties :
#
#
# Convention : Reuss Voigt Hill
#
# Bulk Modulus (GPa) = 48.54450 50.60096 49.57273
# Shear Modulus (GPa) = 28.26336 29.80411 29.03373
#
# Velocity S-wave (km/s) = 3.75933 3.86044 3.81022
# Velocity P-wave (km/s) = 6.56637 6.72106 6.64417
#
# Compressibility (1/GPa) = 0.02059966
#
# Stress axis : x y z
#
# Youngs Moduli (GPa) = 77.46007 52.15250 101.41742
#
# Poissons Ratio (x) = 0.34495 0.18692
# Poissons Ratio (y) = 0.51234 0.22465
# Poissons Ratio (z) = 0.14276 0.11553
#
# Static dielectric constant tensor:
#      x y z
#    x 5.561370 0.000000 0.000000 
#    y 0.000000 3.333720 0.000000 
#    z 0.000000 0.000000 3.892250 
# 
# 
# High freq. dielectric constant tensor:
#      x y z
#    x 1.790630 0.000000 0.000000 
#    y 0.000000 1.750710 0.000000 
#    z 0.000000 0.000000 1.800490 
# 
# From -- ./inp_files/51007.got.cif
#   From: 2010.03.12/outbox.cif.g09.slc.cpg/sg63_26_cif.got.tgz:51007.got - 2010.04.10 19:34:48.
