data_PCOD8260435
_publ_section_title
;
Structure prediction by ZEFSAII (Michael W. Deem and Ramdas Pophale) SiO2 
 PCOD8260435
Probable space group: C M C M
;
_chemical_formula_sum "Si O2"
_cell_formula_units_Z 64
_cell_length_a 9.698673
_cell_length_b 17.393003
_cell_length_c 18.533792
_cell_angle_alpha 90.000000
_cell_angle_beta 90.000000
_cell_angle_gamma 90.000000
_cell_volume 3126.447739
_symmetry_space_group_name_H-M "C M C M"
_symmetry_group_IT_number 63
_symmetry_cell_setting 'orthorhombic'
loop_
_space_group_symop_operation_xyz
x,y,z
-x,-y,1/2+z
x,-y,-z
-x,y,1/2-z
-x,-y,-z
x,y,1/2-z
-x,y,z
x,-y,1/2+z
1/2+x,1/2+y,z
1/2-x,1/2-y,1/2+z
1/2+x,1/2-y,-z
1/2-x,1/2+y,1/2-z
1/2-x,1/2-y,-z
1/2+x,1/2+y,1/2-z
1/2-x,1/2+y,z
1/2+x,1/2-y,1/2+z
loop_
_atom_site_type_symbol
_atom_site_label
_atom_site_fract_x
_atom_site_fract_y
_atom_site_fract_z
Si Si1 0.273008 0.814216 0.440611
Si Si2 0.500000 0.424427 0.600357
Si Si3 0.000000 0.902868 0.430434
Si Si4 0.198400 0.806139 0.831169
Si Si5 0.500000 0.087187 0.014798
Si Si6 0.000000 0.641520 0.329162
O O1 0.250000 0.750000 0.500000
O O2 0.348651 0.770355 0.374278
O O3 0.365742 0.877792 0.478188
O O4 0.134895 0.853858 0.410225
O O5 0.500000 0.414516 0.515460
O O6 0.500000 0.516582 0.614531
O O7 0.364281 0.383985 0.633828
O O8 0.142578 0.799814 0.750000
O O9 0.364042 0.806373 0.834252
O O10 0.500000 0.087285 0.101673
O O11 0.500000 0.000000 0.000000
O O12 0.000000 0.598495 0.250000
#
# Coordination Sequence:
#
# PCOD8260435 Si02
#       6
#    16   8   8  16   8   8
#     4  12  22  41  66  94 127 162 217 264 306 375
#     4  11  22  39  62  96 129 165 206 263 313 387
#     4  11  24  37  66  98 127 160 210 268 318 359
#     4  11  23  41  66  94 127 172 212 259 320 379
#     4  12  26  39  64  98 127 170 208 263 318 371
#     4  10  21  39  64  92 126 164 210 253 313 383
#
# _framework density 20.470516
#
# number of rings (size 3 to 8) (size 9 to 14) (size 15 to 20)
#    0.000    0.750    5.000    2.625    7.000    0.000 
#    0.000    3.750    0.000    0.000    0.000    0.000 
#    0.000    0.000    0.000    0.000    0.000    0.000 
#
# Total GULP energy -396618.986473 kJ/mol
# GULP energy per Si atom -12394.343327 kJ/mol
# Density = 2.042392 g / cm^3
# Si number density = 20.470516 Si / 1000 Ang^3
#
#
#
# Elastic Constant Matrix: (Units=GPa)
#
#
# Indices 1 2 3 4 5 6 
#
# 1 125.8562 52.7680 24.1373 0.0000 0.0000 0.0000
# 2 52.7680 172.2487 73.0182 0.0000 0.0000 0.0000
# 3 24.1373 73.0182 150.8266 0.0000 0.0000 0.0000
# 4 0.0000 0.0000 0.0000 24.9810 0.0000 0.0000
# 5 0.0000 0.0000 0.0000 0.0000 79.3154 0.0000
# 6 0.0000 0.0000 0.0000 0.0000 0.0000 42.1832
#
#
#
# Elastic Compliance Matrix: (Units=1/GPa)
#
#
# Indices 1 2 3 4 5 6 
#
# 1 0.009119 -0.002736 -0.000135 0.000000 0.000000 0.000000
# 2 -0.002736 0.008126 -0.003496 0.000000 0.000000 0.000000
# 3 -0.000135 -0.003496 0.008344 0.000000 0.000000 0.000000
# 4 0.000000 0.000000 0.000000 0.040030 0.000000 0.000000
# 5 0.000000 0.000000 0.000000 0.000000 0.012608 0.000000
# 6 0.000000 0.000000 0.000000 0.000000 0.000000 0.023706
#
#
# Mechanical properties :
#
#
# Convention : Reuss Voigt Hill
#
# Bulk Modulus (GPa) = 77.79210 83.19762 80.49486
# Shear Modulus (GPa) = 42.03382 49.22980 45.63181
#
# Velocity S-wave (km/s) = 4.53634 4.90931 4.72651
# Velocity P-wave (km/s) = 8.09459 8.53616 8.31831
#
# Compressibility (1/GPa) = 0.01285477
#
# Stress axis : x y z
#
# Youngs Moduli (GPa) = 109.66478 123.06411 119.84480
#
# Poissons Ratio (x) = 0.33676 0.01612
# Poissons Ratio (y) = 0.30009 0.41897
# Poissons Ratio (z) = 0.01475 0.43023
#
# Static dielectric constant tensor:
#      x y z
#    x 3.929630 0.000000 0.000000 
#    y 0.000000 3.698370 0.000000 
#    z 0.000000 0.000000 4.014130 
# 
# 
# High freq. dielectric constant tensor:
#      x y z
#    x 1.817340 0.000000 0.000000 
#    y 0.000000 1.782630 0.000000 
#    z 0.000000 0.000000 1.802520 
# 
# From -- ./inp_files/41603.got.cif
#   From: 2010.03.12/outbox.cif.g09.slc.cpg/sg63_21_cif.got.tgz:41603.got - 2010.04.10 19:34:48.
