data_PCOD8260677
_publ_section_title
;
Structure prediction by ZEFSAII (Michael W. Deem and Ramdas Pophale) SiO2 
 PCOD8260677
Probable space group: C M C M
;
_chemical_formula_sum "Si O2"
_cell_formula_units_Z 96
_cell_length_a 11.136570
_cell_length_b 24.287168
_cell_length_c 18.326998
_cell_angle_alpha 90.000000
_cell_angle_beta 90.000000
_cell_angle_gamma 90.000000
_cell_volume 4957.008466
_symmetry_space_group_name_H-M "C M C M"
_symmetry_group_IT_number 63
_symmetry_cell_setting 'orthorhombic'
loop_
_space_group_symop_operation_xyz
x,y,z
-x,-y,1/2+z
x,-y,-z
-x,y,1/2-z
-x,-y,-z
x,y,1/2-z
-x,y,z
x,-y,1/2+z
1/2+x,1/2+y,z
1/2-x,1/2-y,1/2+z
1/2+x,1/2-y,-z
1/2-x,1/2+y,1/2-z
1/2-x,1/2-y,-z
1/2+x,1/2+y,1/2-z
1/2-x,1/2+y,z
1/2+x,1/2-y,1/2+z
loop_
_atom_site_type_symbol
_atom_site_label
_atom_site_fract_x
_atom_site_fract_y
_atom_site_fract_z
Si Si1 0.140824 0.483261 0.170329
Si Si2 0.500000 0.728514 0.166704
Si Si3 0.254797 0.089718 0.106122
Si Si4 0.355025 0.896880 0.449277
Si Si5 0.362076 0.199093 0.332774
Si Si6 0.223288 0.274646 0.078778
Si Si7 0.000000 0.098760 0.333323
O O1 0.194941 0.468542 0.250000
O O2 0.170369 0.546164 0.152542
O O3 0.189322 0.440393 0.110870
O O4 0.000000 0.477008 0.172687
O O5 0.500000 0.753066 0.250000
O O6 0.612867 0.747263 0.120091
O O7 0.500000 0.663730 0.171764
O O8 0.284633 0.151454 0.130225
O O9 0.114680 0.077736 0.120820
O O10 0.292225 0.082136 0.022481
O O11 0.500000 0.892777 0.458238
O O12 0.298012 0.839267 0.425486
O O13 0.319418 0.204756 0.250000
O O14 0.500000 0.182863 0.339835
O O15 0.338891 0.257617 0.372611
O O16 0.250000 0.250000 0.000000
O O17 0.000000 0.074971 0.250000
#
# Coordination Sequence:
#
# PCOD8260677 Si02
#       7
#    16   8  16  16  16  16   8
#     4  10  22  40  64  93 123 160 204 252 310 366
#     4  11  22  38  60  89 123 165 213 257 311 370
#     4  12  22  39  64  90 124 158 203 259 313 365
#     4  11  23  41  63  93 124 162 207 257 308 368
#     4  11  23  38  61  91 123 160 205 256 312 371
#     4  12  23  38  62  89 128 165 203 252 310 371
#     4  11  22  38  61  93 122 157 208 257 307 365
#
# _framework density 19.366519
#
# number of rings (size 3 to 8) (size 9 to 14) (size 15 to 20)
#    0.000    0.833    4.167    4.000    1.167    4.000 
#    1.500    1.667    0.000    0.000    0.000    0.000 
#    0.000    0.000    0.000    0.000    0.000    0.000 
#
# Total GULP energy -595113.018374 kJ/mol
# GULP energy per Si atom -12398.187883 kJ/mol
# Density = 1.932244 g / cm^3
# Si number density = 19.366519 Si / 1000 Ang^3
#
#
#
# Elastic Constant Matrix: (Units=GPa)
#
#
# Indices 1 2 3 4 5 6 
#
# 1 45.6814 25.6697 59.9541 0.0000 0.0000 0.0000
# 2 25.6697 78.1259 49.5702 0.0000 0.0000 0.0000
# 3 59.9541 49.5702 178.7112 0.0000 0.0000 0.0000
# 4 0.0000 0.0000 0.0000 29.3385 0.0000 0.0000
# 5 0.0000 0.0000 0.0000 0.0000 40.8672 0.0000
# 6 0.0000 0.0000 0.0000 0.0000 0.0000 30.8944
#
#
#
# Elastic Compliance Matrix: (Units=1/GPa)
#
#
# Indices 1 2 3 4 5 6 
#
# 1 0.041155 -0.005779 -0.012204 0.000000 0.000000 0.000000
# 2 -0.005779 0.016345 -0.002595 0.000000 0.000000 0.000000
# 3 -0.012204 -0.002595 0.010409 0.000000 0.000000 0.000000
# 4 0.000000 0.000000 0.000000 0.034085 0.000000 0.000000
# 5 0.000000 0.000000 0.000000 0.000000 0.024469 0.000000
# 6 0.000000 0.000000 0.000000 0.000000 0.000000 0.032368
#
#
# Mechanical properties :
#
#
# Convention : Reuss Voigt Hill
#
# Bulk Modulus (GPa) = 37.37756 63.65627 50.51692
# Shear Modulus (GPa) = 23.93427 31.37498 27.65463
#
# Velocity S-wave (km/s) = 3.51929 4.02937 3.78294
# Velocity P-wave (km/s) = 5.98798 7.38839 6.72474
#
# Compressibility (1/GPa) = 0.02675402
#
# Stress axis : x y z
#
# Youngs Moduli (GPa) = 24.29857 61.18013 96.06623
#
# Poissons Ratio (x) = 0.35356 1.17236
# Poissons Ratio (y) = 0.14042 0.24929
# Poissons Ratio (z) = 0.29653 0.15876
#
# Static dielectric constant tensor:
#      x y z
#    x 3.535270 0.000000 0.000000 
#    y 0.000000 3.425800 0.000000 
#    z 0.000000 0.000000 3.874530 
# 
# 
# High freq. dielectric constant tensor:
#      x y z
#    x 1.747520 0.000000 0.000000 
#    y 0.000000 1.745530 0.000000 
#    z 0.000000 0.000000 1.776010 
# 
# From -- ./inp_files/42582.got.cif
#   From: 2010.03.12/outbox.cif.g09.slc.cpg/sg63_22_cif.got.tgz:42582.got - 2010.04.10 19:34:48.
