data_PCOD8260737
_publ_section_title
;
Structure prediction by ZEFSAII (Michael W. Deem and Ramdas Pophale) SiO2 
 PCOD8260737
Probable space group: C M C M
;
_chemical_formula_sum "Si O2"
_cell_formula_units_Z 88
_cell_length_a 10.728855
_cell_length_b 14.534558
_cell_length_c 29.388786
_cell_angle_alpha 90.000000
_cell_angle_beta 90.000000
_cell_angle_gamma 90.000000
_cell_volume 4582.862757
_symmetry_space_group_name_H-M "C M C M"
_symmetry_group_IT_number 63
_symmetry_cell_setting 'orthorhombic'
loop_
_space_group_symop_operation_xyz
x,y,z
-x,-y,1/2+z
x,-y,-z
-x,y,1/2-z
-x,-y,-z
x,y,1/2-z
-x,y,z
x,-y,1/2+z
1/2+x,1/2+y,z
1/2-x,1/2-y,1/2+z
1/2+x,1/2-y,-z
1/2-x,1/2+y,1/2-z
1/2-x,1/2-y,-z
1/2+x,1/2+y,1/2-z
1/2-x,1/2+y,z
1/2+x,1/2-y,1/2+z
loop_
_atom_site_type_symbol
_atom_site_label
_atom_site_fract_x
_atom_site_fract_y
_atom_site_fract_z
Si Si1 0.500000 0.248064 0.416027
Si Si2 0.144066 0.143953 0.750000
Si Si3 0.282718 0.692463 0.848703
Si Si4 0.500000 0.964188 0.551318
Si Si5 0.247906 0.987260 0.098934
Si Si6 0.000000 0.940215 0.454823
Si Si7 0.857838 0.138034 0.156120
Si Si8 0.852230 0.941690 0.750000
O O1 0.617368 0.262920 0.382982
O O2 0.500000 0.147426 0.440782
O O3 0.500000 0.327303 0.456094
O O4 0.176020 0.198396 0.703930
O O5 0.000000 0.124180 0.750000
O O6 0.209209 0.043348 0.750000
O O7 0.247388 0.589104 0.861622
O O8 0.157948 0.753607 0.852635
O O9 0.500000 0.000000 0.500000
O O10 0.623041 0.010987 0.571979
O O11 0.127662 0.968766 0.068684
O O12 0.231260 0.086261 0.121134
O O13 0.000000 0.000000 0.500000
O O14 0.807403 0.113913 0.206090
O O15 0.000000 0.107392 0.148579
O O16 0.000000 0.947331 0.750000
#
# Coordination Sequence:
#
# PCOD8260737 Si02
#       8
#     8   8  16   8  16   8  16   8
#     4  10  22  41  66  92 119 163 210 256 313 390
#     4  11  19  32  63  94 128 169 215 253 304 366
#     4  11  22  38  62  95 129 165 213 257 307 376
#     4  12  26  48  65  93 130 165 206 277 348 394
#     4  11  23  41  67  91 125 166 204 264 324 381
#     4  10  22  44  65  93 119 154 210 264 309 382
#     4  11  21  38  61  90 127 165 217 257 308 368
#     4   9  19  32  56  87 123 170 213 261 298 364
#
# _framework density 19.201972000000001
#
# number of rings (size 3 to 8) (size 9 to 14) (size 15 to 20)
#    0.000    1.273    5.455    1.091    1.273    0.000 
#    3.273    2.727    0.000    1.091    0.000    0.000 
#    0.000    0.000    0.000    0.000    0.000    0.000 
#
# Total GULP energy -545182.611867 kJ/mol
# GULP energy per Si atom -12390.513906 kJ/mol
# Density = 1.915827 g / cm^3
# Si number density = 19.201972 Si / 1000 Ang^3
#
#
#
# Elastic Constant Matrix: (Units=GPa)
#
#
# Indices 1 2 3 4 5 6 
#
# 1 105.3133 31.8828 44.5528 0.0000 0.0000 0.0000
# 2 31.8828 117.7982 50.2469 0.0000 0.0000 0.0000
# 3 44.5528 50.2469 120.8367 0.0000 0.0000 0.0000
# 4 0.0000 0.0000 0.0000 36.9631 0.0000 0.0000
# 5 0.0000 0.0000 0.0000 0.0000 32.0486 0.0000
# 6 0.0000 0.0000 0.0000 0.0000 0.0000 38.4274
#
#
#
# Elastic Compliance Matrix: (Units=1/GPa)
#
#
# Indices 1 2 3 4 5 6 
#
# 1 0.011488 -0.001583 -0.003577 0.000000 0.000000 0.000000
# 2 -0.001583 0.010538 -0.003798 0.000000 0.000000 0.000000
# 3 -0.003577 -0.003798 0.011174 0.000000 0.000000 0.000000
# 4 0.000000 0.000000 0.000000 0.027054 0.000000 0.000000
# 5 0.000000 0.000000 0.000000 0.000000 0.031203 0.000000
# 6 0.000000 0.000000 0.000000 0.000000 0.000000 0.026023
#
#
# Mechanical properties :
#
#
# Convention : Reuss Voigt Hill
#
# Bulk Modulus (GPa) = 65.43520 66.36814 65.90167
# Shear Modulus (GPa) = 35.58942 35.97221 35.78081
#
# Velocity S-wave (km/s) = 4.30981 4.33293 4.32139
# Velocity P-wave (km/s) = 7.67576 7.72467 7.70026
#
# Compressibility (1/GPa) = 0.01528229
#
# Stress axis : x y z
#
# Youngs Moduli (GPa) = 87.04558 94.89724 89.49423
#
# Poissons Ratio (x) = 0.15027 0.32015
# Poissons Ratio (y) = 0.13783 0.33990
# Poissons Ratio (z) = 0.31139 0.36042
#
# Static dielectric constant tensor:
#      x y z
#    x 3.318150 0.000000 0.000000 
#    y 0.000000 3.671340 0.000000 
#    z 0.000000 0.000000 4.052490 
# 
# 
# High freq. dielectric constant tensor:
#      x y z
#    x 1.736510 0.000000 0.000000 
#    y 0.000000 1.758830 0.000000 
#    z 0.000000 0.000000 1.745970 
# 
# From -- ./inp_files/68249.got.cif
#   From: 2010.03.12/outbox.cif.g09.slc.cpg/sg63_35_cif.got.tgz:68249.got - 2010.04.10 19:34:48.
