data_PCOD8260826
_publ_section_title
;
Structure prediction by ZEFSAII (Michael W. Deem and Ramdas Pophale) SiO2 
 PCOD8260826
Probable space group: C M C M
;
_chemical_formula_sum "Si O2"
_cell_formula_units_Z 72
_cell_length_a 26.137435
_cell_length_b 9.311970
_cell_length_c 13.812741
_cell_angle_alpha 90.000000
_cell_angle_beta 90.000000
_cell_angle_gamma 90.000000
_cell_volume 3361.896991
_symmetry_space_group_name_H-M "C M C M"
_symmetry_group_IT_number 63
_symmetry_cell_setting 'orthorhombic'
loop_
_space_group_symop_operation_xyz
x,y,z
-x,-y,1/2+z
x,-y,-z
-x,y,1/2-z
-x,-y,-z
x,y,1/2-z
-x,y,z
x,-y,1/2+z
1/2+x,1/2+y,z
1/2-x,1/2-y,1/2+z
1/2+x,1/2-y,-z
1/2-x,1/2+y,1/2-z
1/2-x,1/2-y,-z
1/2+x,1/2+y,1/2-z
1/2-x,1/2+y,z
1/2+x,1/2-y,1/2+z
loop_
_atom_site_type_symbol
_atom_site_label
_atom_site_fract_x
_atom_site_fract_y
_atom_site_fract_z
Si Si1 0.088172 0.000000 0.000000
Si Si2 0.354033 0.711803 0.641378
Si Si3 0.747343 0.622456 0.928825
Si Si4 0.142238 0.534379 0.861835
Si Si5 0.556971 0.743922 0.138374
O O1 0.055703 0.898103 0.928705
O O2 0.120661 0.100911 0.930644
O O3 0.377587 0.705361 0.750000
O O4 0.294758 0.663182 0.651823
O O5 0.360239 0.872592 0.594379
O O6 0.801693 0.597035 0.878911
O O7 0.727636 0.500000 0.000000
O O8 0.750000 0.750000 0.000000
O O9 0.132258 0.515990 0.750000
O O10 0.097960 0.639814 0.902600
O O11 0.570422 0.701623 0.250000
O O12 0.500000 0.811849 0.133412
#
# Coordination Sequence:
#
# PCOD8260826 Si02
#       5
#     8  16  16  16  16
#     4  12  23  40  66  98 128 166 201 264 320 384
#     4  11  24  41  62  94 131 168 209 255 311 378
#     4  12  22  37  60  90 127 165 206 253 305 373
#     4  10  23  42  62  86 124 170 214 258 310 373
#     4  10  23  44  68  94 124 163 213 267 321 375
#
# _framework density 21.416481000000001
#
# number of rings (size 3 to 8) (size 9 to 14) (size 15 to 20)
#    0.000    1.111    3.333    3.000    0.000    0.000 
#    0.000    3.333    0.000    5.333    0.000    0.000 
#    0.000    0.000    0.000    0.000    0.000    0.000 
#
# Total GULP energy -446051.284285 kJ/mol
# GULP energy per Si atom -12390.313452 kJ/mol
# Density = 2.136774 g / cm^3
# Si number density = 21.416481 Si / 1000 Ang^3
#
#
#
# Elastic Constant Matrix: (Units=GPa)
#
#
# Indices 1 2 3 4 5 6 
#
# 1 112.0427 55.7698 31.0916 0.0000 0.0000 0.0000
# 2 55.7698 154.8010 38.3122 0.0000 0.0000 0.0000
# 3 31.0916 38.3122 72.6655 0.0000 0.0000 0.0000
# 4 0.0000 0.0000 0.0000 37.4207 0.0000 0.0000
# 5 0.0000 0.0000 0.0000 0.0000 17.3186 0.0000
# 6 0.0000 0.0000 0.0000 0.0000 0.0000 29.0646
#
#
#
# Elastic Compliance Matrix: (Units=1/GPa)
#
#
# Indices 1 2 3 4 5 6 
#
# 1 0.011465 -0.003354 -0.003137 0.000000 0.000000 0.000000
# 2 -0.003354 0.008411 -0.002999 0.000000 0.000000 0.000000
# 3 -0.003137 -0.002999 0.016685 0.000000 0.000000 0.000000
# 4 0.000000 0.000000 0.000000 0.026723 0.000000 0.000000
# 5 0.000000 0.000000 0.000000 0.000000 0.057741 0.000000
# 6 0.000000 0.000000 0.000000 0.000000 0.000000 0.034406
#
#
# Mechanical properties :
#
#
# Convention : Reuss Voigt Hill
#
# Bulk Modulus (GPa) = 56.88298 65.53961 61.21129
# Shear Modulus (GPa) = 27.73570 31.04982 29.39276
#
# Velocity S-wave (km/s) = 3.60260 3.81177 3.70866
# Velocity P-wave (km/s) = 6.62745 7.07401 6.85437
#
# Compressibility (1/GPa) = 0.01757995
#
# Stress axis : x y z
#
# Youngs Moduli (GPa) = 87.21986 118.89776 59.93276
#
# Poissons Ratio (x) = 0.39880 0.18802
# Poissons Ratio (y) = 0.29255 0.17975
# Poissons Ratio (z) = 0.27363 0.35661
#
# Static dielectric constant tensor:
#      x y z
#    x 3.322180 0.000000 0.000000 
#    y 0.000000 4.198650 0.000000 
#    z 0.000000 0.000000 3.889060 
# 
# 
# High freq. dielectric constant tensor:
#      x y z
#    x 1.827770 0.000000 0.000000 
#    y 0.000000 1.850790 0.000000 
#    z 0.000000 0.000000 1.852000 
# 
# From -- ./inp_files/38320.got.cif
#   From: 2010.03.12/outbox.cif.g09.slc.cpg/sg63_20_cif.got.tgz:38320.got - 2010.04.10 19:34:48.
