data_PCOD8260681
_publ_section_title
;
Structure prediction by ZEFSAII (Michael W. Deem and Ramdas Pophale) SiO2 
 PCOD8260681
Probable space group: C M C M
;
_chemical_formula_sum "Si O2"
_cell_formula_units_Z 96
_cell_length_a 22.124480
_cell_length_b 9.912866
_cell_length_c 22.213072
_cell_angle_alpha 90.000000
_cell_angle_beta 90.000000
_cell_angle_gamma 90.000000
_cell_volume 4871.704435
_symmetry_space_group_name_H-M "C M C M"
_symmetry_group_IT_number 63
_symmetry_cell_setting 'orthorhombic'
loop_
_space_group_symop_operation_xyz
x,y,z
-x,-y,1/2+z
x,-y,-z
-x,y,1/2-z
-x,-y,-z
x,y,1/2-z
-x,y,z
x,-y,1/2+z
1/2+x,1/2+y,z
1/2-x,1/2-y,1/2+z
1/2+x,1/2-y,-z
1/2-x,1/2+y,1/2-z
1/2-x,1/2-y,-z
1/2+x,1/2+y,1/2-z
1/2-x,1/2+y,z
1/2+x,1/2-y,1/2+z
loop_
_atom_site_type_symbol
_atom_site_label
_atom_site_fract_x
_atom_site_fract_y
_atom_site_fract_z
Si Si1 0.291622 0.223135 0.750000
Si Si2 0.622705 0.515512 0.569732
Si Si3 0.626345 0.951891 0.618728
Si Si4 0.500000 0.604218 0.945291
Si Si5 0.318906 0.922726 0.750000
Si Si6 0.164663 0.748895 0.873622
Si Si7 0.285081 0.253378 0.063830
Si Si8 0.500000 0.093166 0.441272
O O1 0.227168 0.297525 0.750000
O O2 0.337562 0.263893 0.697463
O O3 0.279829 0.061178 0.750000
O O4 0.612557 0.500000 0.500000
O O5 0.560791 0.582563 0.595270
O O6 0.627148 0.367971 0.597108
O O7 0.682247 0.605242 0.578917
O O8 0.640089 0.915653 0.689027
O O9 0.666968 0.866979 0.571375
O O10 0.556805 0.927713 0.602888
O O11 0.639209 0.107448 0.603134
O O12 0.500000 0.757002 0.968922
O O13 0.500000 0.500000 0.000000
O O14 0.235663 0.763518 0.885465
O O15 0.250000 0.250000 0.000000
O O16 0.500000 0.000000 0.500000
#
# Coordination Sequence:
#
# PCOD8260681 Si02
#       8
#     8  16  16   8   8  16  16   8
#     4  10  22  40  64  95 135 165 219 260 331 393
#     4  11  23  40  61  90 128 168 205 260 319 386
#     4  11  26  43  67  95 130 176 225 270 326 394
#     4  10  24  44  63  87 127 170 219 254 318 392
#     4  10  22  45  66  95 129 176 223 276 321 397
#     4  11  24  39  64  98 126 170 209 266 332 384
#     4  12  23  38  60  95 137 164 205 263 324 396
#     4  12  28  45  67  95 133 175 222 274 333 405
#
# _framework density 19.705628999999998
#
# number of rings (size 3 to 8) (size 9 to 14) (size 15 to 20)
#    0.000    1.000    5.000    1.000    9.333    0.333 
#    0.000    0.000    0.000    1.500    0.000    0.000 
#    0.000    0.000    0.000    0.000    0.000    0.000 
#
# Total GULP energy -594926.736637 kJ/mol
# GULP energy per Si atom -12394.307013 kJ/mol
# Density = 1.966078 g / cm^3
# Si number density = 19.705629 Si / 1000 Ang^3
#
#
#
# Elastic Constant Matrix: (Units=GPa)
#
#
# Indices 1 2 3 4 5 6 
#
# 1 134.9730 59.1050 42.2636 0.0000 0.0000 0.0000
# 2 59.1050 150.8684 49.6871 0.0000 0.0000 0.0000
# 3 42.2636 49.6871 106.2203 0.0000 0.0000 0.0000
# 4 0.0000 0.0000 0.0000 30.4054 0.0000 0.0000
# 5 0.0000 0.0000 0.0000 0.0000 20.7649 0.0000
# 6 0.0000 0.0000 0.0000 0.0000 0.0000 47.3492
#
#
#
# Elastic Compliance Matrix: (Units=1/GPa)
#
#
# Indices 1 2 3 4 5 6 
#
# 1 0.009431 -0.002907 -0.002393 0.000000 0.000000 0.000000
# 2 -0.002907 0.008731 -0.002928 0.000000 0.000000 0.000000
# 3 -0.002393 -0.002928 0.011736 0.000000 0.000000 0.000000
# 4 0.000000 0.000000 0.000000 0.032889 0.000000 0.000000
# 5 0.000000 0.000000 0.000000 0.000000 0.048158 0.000000
# 6 0.000000 0.000000 0.000000 0.000000 0.000000 0.021120
#
#
# Mechanical properties :
#
#
# Convention : Reuss Voigt Hill
#
# Bulk Modulus (GPa) = 74.38367 77.13033 75.75700
# Shear Modulus (GPa) = 32.67961 35.77098 34.22529
#
# Velocity S-wave (km/s) = 4.07675 4.26522 4.17205
# Velocity P-wave (km/s) = 7.74527 7.96758 7.85721
#
# Compressibility (1/GPa) = 0.01344381
#
# Stress axis : x y z
#
# Youngs Moduli (GPa) = 106.03358 114.53120 85.20816
#
# Poissons Ratio (x) = 0.33291 0.20388
# Poissons Ratio (y) = 0.30821 0.24947
# Poissons Ratio (z) = 0.25372 0.33532
#
# Static dielectric constant tensor:
#      x y z
#    x 4.311170 0.000000 0.000000 
#    y 0.000000 4.703280 0.000000 
#    z 0.000000 0.000000 3.704750 
# 
# 
# High freq. dielectric constant tensor:
#      x y z
#    x 1.770820 0.000000 0.000000 
#    y 0.000000 1.785510 0.000000 
#    z 0.000000 0.000000 1.756360 
# 
# From -- ./inp_files/65042.got.cif
#   From: 2010.03.12/outbox.cif.g09.slc.cpg/sg63_33_cif.got.tgz:65042.got - 2010.04.10 19:34:48.
