data_PCOD8260736
_publ_section_title
;
Structure prediction by ZEFSAII (Michael W. Deem and Ramdas Pophale) SiO2 
 PCOD8260736
Probable space group: C M C M
;
_chemical_formula_sum "Si O2"
_cell_formula_units_Z 56
_cell_length_a 30.280948
_cell_length_b 9.592791
_cell_length_c 9.911790
_cell_angle_alpha 90.000000
_cell_angle_beta 90.000000
_cell_angle_gamma 90.000000
_cell_volume 2879.164919
_symmetry_space_group_name_H-M "C M C M"
_symmetry_group_IT_number 63
_symmetry_cell_setting 'orthorhombic'
loop_
_space_group_symop_operation_xyz
x,y,z
-x,-y,1/2+z
x,-y,-z
-x,y,1/2-z
-x,-y,-z
x,y,1/2-z
-x,y,z
x,-y,1/2+z
1/2+x,1/2+y,z
1/2-x,1/2-y,1/2+z
1/2+x,1/2-y,-z
1/2-x,1/2+y,1/2-z
1/2-x,1/2-y,-z
1/2+x,1/2+y,1/2-z
1/2-x,1/2+y,z
1/2+x,1/2-y,1/2+z
loop_
_atom_site_type_symbol
_atom_site_label
_atom_site_fract_x
_atom_site_fract_y
_atom_site_fract_z
Si Si1 0.704904 0.388280 0.750000
Si Si2 0.406454 0.749295 0.903422
Si Si3 0.705857 0.939341 0.250000
Si Si4 0.000000 0.865116 0.092438
Si Si5 0.150451 0.000000 0.000000
Si Si6 0.354096 0.000000 0.000000
O O1 0.716362 0.224793 0.750000
O O2 0.748459 0.479780 0.750000
O O3 0.679166 0.421073 0.612189
O O4 0.402361 0.800124 0.750000
O O5 0.457445 0.727693 0.943168
O O6 0.380309 0.606326 0.920473
O O7 0.385785 0.866142 0.998881
O O8 0.677914 0.989963 0.375101
O O9 0.000000 0.910740 0.250000
O O10 0.000000 0.000000 0.000000
#
# Coordination Sequence:
#
# PCOD8260736 Si02
#       6
#     8  16   8   8   8   8
#     4  12  28  42  64  97 126 170 217 272 333 385
#     4  11  23  42  69  98 132 171 216 266 324 386
#     4  12  28  44  66  95 130 168 221 276 333 385
#     4  10  22  41  66 102 136 168 212 271 318 382
#     4  12  23  41  68  92 130 170 214 261 325 396
#     4  12  25  45  68  92 134 174 218 267 327 394
#
# _framework density 19.450085000000001
#
# number of rings (size 3 to 8) (size 9 to 14) (size 15 to 20)
#    0.000    0.571    7.143    0.857    4.000    2.857 
#    2.571    0.000    0.000    0.000    0.000    0.000 
#    0.000    0.000    0.000    0.000    0.000    0.000 
#
# Total GULP energy -347319.614610 kJ/mol
# GULP energy per Si atom -12404.271950 kJ/mol
# Density = 1.940582 g / cm^3
# Si number density = 19.450085 Si / 1000 Ang^3
#
#
#
# Elastic Constant Matrix: (Units=GPa)
#
#
# Indices 1 2 3 4 5 6 
#
# 1 152.0595 49.6800 39.9818 0.0000 0.0000 0.0000
# 2 49.6800 101.4770 6.5125 0.0000 0.0000 0.0000
# 3 39.9818 6.5125 86.8064 0.0000 0.0000 0.0000
# 4 0.0000 0.0000 0.0000 26.7430 0.0000 0.0000
# 5 0.0000 0.0000 0.0000 0.0000 3.9632 0.0000
# 6 0.0000 0.0000 0.0000 0.0000 0.0000 22.7569
#
#
#
# Elastic Compliance Matrix: (Units=1/GPa)
#
#
# Indices 1 2 3 4 5 6 
#
# 1 0.008923 -0.004125 -0.003800 0.000000 0.000000 0.000000
# 2 -0.004125 0.011809 0.001014 0.000000 0.000000 0.000000
# 3 -0.003800 0.001014 0.013194 0.000000 0.000000 0.000000
# 4 0.000000 0.000000 0.000000 0.037393 0.000000 0.000000
# 5 0.000000 0.000000 0.000000 0.000000 0.252322 0.000000
# 6 0.000000 0.000000 0.000000 0.000000 0.000000 0.043943
#
#
# Mechanical properties :
#
#
# Convention : Reuss Voigt Hill
#
# Bulk Modulus (GPa) = 49.74229 59.18795 54.46512
# Shear Modulus (GPa) = 12.88302 26.97053 19.92678
#
# Velocity S-wave (km/s) = 2.57643 3.72782 3.20427
# Velocity P-wave (km/s) = 5.87201 7.00183 6.46166
#
# Compressibility (1/GPa) = 0.02010362
#
# Stress axis : x y z
#
# Youngs Moduli (GPa) = 112.06712 84.68350 75.79046
#
# Poissons Ratio (x) = 0.34929 0.28804
# Poissons Ratio (y) = 0.46224 -0.07684
# Poissons Ratio (z) = 0.42591 -0.08585
#
# Static dielectric constant tensor:
#      x y z
#    x 3.818330 0.000000 0.000000 
#    y 0.000000 3.559180 0.000000 
#    z 0.000000 0.000000 3.487540 
# 
# 
# High freq. dielectric constant tensor:
#      x y z
#    x 1.775260 0.000000 0.000000 
#    y 0.000000 1.761680 0.000000 
#    z 0.000000 0.000000 1.768370 
# 
# From -- ./inp_files/13688.got.cif
#   From: 2010.03.12/outbox.cif.g09.slc.cpg/sg63_7_cif.got.tgz:13688.got - 2010.04.10 19:34:48.
