data_PCOD8260056
_publ_section_title
;
Structure prediction by ZEFSAII (Michael W. Deem and Ramdas Pophale) SiO2 
 PCOD8260056
Probable space group: C M C M
;
_chemical_formula_sum "Si O2"
_cell_formula_units_Z 72
_cell_length_a 12.958140
_cell_length_b 31.672764
_cell_length_c 8.843778
_cell_angle_alpha 90.000000
_cell_angle_beta 90.000000
_cell_angle_gamma 90.000000
_cell_volume 3629.664340
_symmetry_space_group_name_H-M "C M C M"
_symmetry_group_IT_number 63
_symmetry_cell_setting 'orthorhombic'
loop_
_space_group_symop_operation_xyz
x,y,z
-x,-y,1/2+z
x,-y,-z
-x,y,1/2-z
-x,-y,-z
x,y,1/2-z
-x,y,z
x,-y,1/2+z
1/2+x,1/2+y,z
1/2-x,1/2-y,1/2+z
1/2+x,1/2-y,-z
1/2-x,1/2+y,1/2-z
1/2-x,1/2-y,-z
1/2+x,1/2+y,1/2-z
1/2-x,1/2+y,z
1/2+x,1/2-y,1/2+z
loop_
_atom_site_type_symbol
_atom_site_label
_atom_site_fract_x
_atom_site_fract_y
_atom_site_fract_z
Si Si1 0.298485 0.595786 0.427997
Si Si2 0.791564 0.816848 0.076168
Si Si3 0.381685 0.044605 0.928016
Si Si4 0.117158 0.270548 0.579326
Si Si5 0.000000 0.045516 0.071354
O O1 0.282616 0.591802 0.250000
O O2 0.320993 0.643965 0.471553
O O3 0.193845 0.580370 0.508298
O O4 0.397272 0.569398 0.484600
O O5 0.794564 0.831269 0.250000
O O6 0.871571 0.779122 0.040904
O O7 0.677833 0.799793 0.037276
O O8 0.366593 0.040897 0.750000
O O9 0.500000 0.056418 0.969827
O O10 0.350251 0.000000 0.000000
O O11 0.158172 0.278398 0.750000
O O12 0.000000 0.284232 0.563108
O O13 0.000000 0.041614 0.250000
O O14 0.000000 0.000000 0.000000
#
# Coordination Sequence:
#
# PCOD8260056 Si02
#       5
#    16  16  16  16   8
#     4  11  23  39  59  85 118 154 195 240 288 344
#     4  10  21  36  56  85 114 145 189 235 285 340
#     4  10  21  38  60  86 115 148 188 235 288 345
#     4   9  19  37  59  81 111 150 189 232 285 345
#     4  10  24  42  60  86 118 156 198 242 292 346
#
# _framework density 19.836545000000001
#
# number of rings (size 3 to 8) (size 9 to 14) (size 15 to 20)
#    0.000    2.000    0.000    2.667    1.556    7.111 
#    0.000    0.000    0.000    0.000    0.000    0.000 
#    0.000    0.000    0.000    0.000    0.000    0.000 
#
# Total GULP energy -446522.113411 kJ/mol
# GULP energy per Si atom -12403.392039 kJ/mol
# Density = 1.979140 g / cm^3
# Si number density = 19.836545 Si / 1000 Ang^3
#
#
#
# Elastic Constant Matrix: (Units=GPa)
#
#
# Indices 1 2 3 4 5 6 
#
# 1 93.4019 33.4968 31.2032 0.0000 0.0000 0.0000
# 2 33.4968 101.4980 26.8751 0.0000 0.0000 0.0000
# 3 31.2032 26.8751 59.5874 0.0000 0.0000 0.0000
# 4 0.0000 0.0000 0.0000 40.4638 0.0000 0.0000
# 5 0.0000 0.0000 0.0000 0.0000 25.6988 0.0000
# 6 0.0000 0.0000 0.0000 0.0000 0.0000 9.3559
#
#
#
# Elastic Compliance Matrix: (Units=1/GPa)
#
#
# Indices 1 2 3 4 5 6 
#
# 1 0.013729 -0.002984 -0.005843 0.000000 0.000000 0.000000
# 2 -0.002984 0.011837 -0.003776 0.000000 0.000000 0.000000
# 3 -0.005843 -0.003776 0.021545 0.000000 0.000000 0.000000
# 4 0.000000 0.000000 0.000000 0.024713 0.000000 0.000000
# 5 0.000000 0.000000 0.000000 0.000000 0.038912 0.000000
# 6 0.000000 0.000000 0.000000 0.000000 0.000000 0.106885
#
#
# Mechanical properties :
#
#
# Convention : Reuss Voigt Hill
#
# Bulk Modulus (GPa) = 45.65343 48.62640 47.13992
# Shear Modulus (GPa) = 19.98967 25.96451 22.97709
#
# Velocity S-wave (km/s) = 3.17790 3.62183 3.40710
# Velocity P-wave (km/s) = 6.04402 6.48513 6.26846
#
# Compressibility (1/GPa) = 0.02190416
#
# Stress axis : x y z
#
# Youngs Moduli (GPa) = 72.84103 84.48112 46.41401
#
# Poissons Ratio (x) = 0.25205 0.27121
# Poissons Ratio (y) = 0.21732 0.17528
# Poissons Ratio (z) = 0.42564 0.31903
#
# Static dielectric constant tensor:
#      x y z
#    x 3.663080 0.000000 0.000000 
#    y 0.000000 3.509720 0.000000 
#    z 0.000000 0.000000 3.642310 
# 
# 
# High freq. dielectric constant tensor:
#      x y z
#    x 1.776860 0.000000 0.000000 
#    y 0.000000 1.773440 0.000000 
#    z 0.000000 0.000000 1.778010 
# 
# From -- ./inp_files/4944.got.cif
#   From: 2010.03.12/outbox.cif.g09.slc.cpg/sg63_3_cif.got.tgz:4944.got - 2010.04.10 19:34:48.
