data_PCOD8260537
_publ_section_title
;
Structure prediction by ZEFSAII (Michael W. Deem and Ramdas Pophale) SiO2 
 PCOD8260537
Probable space group: C M C M
;
_chemical_formula_sum "Si O2"
_cell_formula_units_Z 56
_cell_length_a 17.208931
_cell_length_b 18.089816
_cell_length_c 8.460994
_cell_angle_alpha 90.000000
_cell_angle_beta 90.000000
_cell_angle_gamma 90.000000
_cell_volume 2633.961543
_symmetry_space_group_name_H-M "C M C M"
_symmetry_group_IT_number 63
_symmetry_cell_setting 'orthorhombic'
loop_
_space_group_symop_operation_xyz
x,y,z
-x,-y,1/2+z
x,-y,-z
-x,y,1/2-z
-x,-y,-z
x,y,1/2-z
-x,y,z
x,-y,1/2+z
1/2+x,1/2+y,z
1/2-x,1/2-y,1/2+z
1/2+x,1/2-y,-z
1/2-x,1/2+y,1/2-z
1/2-x,1/2-y,-z
1/2+x,1/2+y,1/2-z
1/2-x,1/2+y,z
1/2+x,1/2-y,1/2+z
loop_
_atom_site_type_symbol
_atom_site_label
_atom_site_fract_x
_atom_site_fract_y
_atom_site_fract_z
Si Si1 0.792130 0.079858 0.565184
Si Si2 0.410592 0.315546 0.935191
Si Si3 0.150588 0.667521 0.435425
Si Si4 0.000000 0.418400 0.936597
O O1 0.807048 0.074651 0.750000
O O2 0.871365 0.106413 0.480105
O O3 0.724315 0.138218 0.530057
O O4 0.767645 0.000000 0.500000
O O5 0.403747 0.300373 0.750000
O O6 0.500000 0.316926 0.990553
O O7 0.362877 0.253473 0.029619
O O8 0.164830 0.655518 0.250000
O O9 0.075769 0.623483 0.500030
O O10 0.000000 0.418687 0.750000
O O11 0.000000 0.500000 0.000000
#
# Coordination Sequence:
#
# PCOD8260537 Si02
#       4
#    16  16  16   8
#     4  12  26  44  66  94 129 170 215 266 323 381
#     4  11  24  43  68  97 128 168 216 265 319 381
#     4  11  22  41  65  94 130 169 214 262 318 379
#     4  10  22  36  58  90 127 168 207 254 312 372
#
# _framework density 21.260750000000002
#
# number of rings (size 3 to 8) (size 9 to 14) (size 15 to 20)
#    0.000    0.857    1.429    6.000    0.000    6.857 
#    0.000    0.000    0.000    0.000    0.000    0.000 
#    0.000    0.000    0.000    0.000    0.000    0.000 
#
# Total GULP energy -347432.258658 kJ/mol
# GULP energy per Si atom -12408.294952 kJ/mol
# Density = 2.121236 g / cm^3
# Si number density = 21.260750 Si / 1000 Ang^3
#
#
#
# Elastic Constant Matrix: (Units=GPa)
#
#
# Indices 1 2 3 4 5 6 
#
# 1 124.3195 46.0873 31.0787 0.0000 0.0000 0.0000
# 2 46.0873 74.7999 16.4542 0.0000 0.0000 0.0000
# 3 31.0787 16.4542 66.8252 0.0000 0.0000 0.0000
# 4 0.0000 0.0000 0.0000 39.3603 0.0000 0.0000
# 5 0.0000 0.0000 0.0000 0.0000 16.0417 0.0000
# 6 0.0000 0.0000 0.0000 0.0000 0.0000 32.3096
#
#
#
# Elastic Compliance Matrix: (Units=1/GPa)
#
#
# Indices 1 2 3 4 5 6 
#
# 1 0.011238 -0.006105 -0.003723 0.000000 0.000000 0.000000
# 2 -0.006105 0.017451 -0.001458 0.000000 0.000000 0.000000
# 3 -0.003723 -0.001458 0.017055 0.000000 0.000000 0.000000
# 4 0.000000 0.000000 0.000000 0.025406 0.000000 0.000000
# 5 0.000000 0.000000 0.000000 0.000000 0.062338 0.000000
# 6 0.000000 0.000000 0.000000 0.000000 0.000000 0.030951
#
#
# Mechanical properties :
#
#
# Convention : Reuss Voigt Hill
#
# Bulk Modulus (GPa) = 43.15533 50.35389 46.75461
# Shear Modulus (GPa) = 25.67601 29.03060 27.35330
#
# Velocity S-wave (km/s) = 3.47893 3.69922 3.59076
# Velocity P-wave (km/s) = 6.03982 6.47927 6.26340
#
# Compressibility (1/GPa) = 0.02317211
#
# Stress axis : x y z
#
# Youngs Moduli (GPa) = 88.98536 57.30251 58.63427
#
# Poissons Ratio (x) = 0.34984 0.21831
# Poissons Ratio (y) = 0.54326 0.08547
# Poissons Ratio (z) = 0.33131 0.08353
#
# Static dielectric constant tensor:
#      x y z
#    x 4.126110 0.000000 0.000000 
#    y 0.000000 3.827510 0.000000 
#    z 0.000000 0.000000 3.785790 
# 
# 
# High freq. dielectric constant tensor:
#      x y z
#    x 1.847280 0.000000 0.000000 
#    y 0.000000 1.839340 0.000000 
#    z 0.000000 0.000000 1.837180 
# 
# From -- ./inp_files/4011.got.cif
#   From: 2010.03.12/outbox.cif.g09.slc.cpg/sg63_3_cif.got.tgz:4011.got - 2010.04.10 19:34:48.
