data_PCOD8260358
_publ_section_title
;
Structure prediction by ZEFSAII (Michael W. Deem and Ramdas Pophale) SiO2 
 PCOD8260358
Probable space group: C M C M
;
_chemical_formula_sum "Si O2"
_cell_formula_units_Z 96
_cell_length_a 14.842887
_cell_length_b 14.512495
_cell_length_c 21.102085
_cell_angle_alpha 90.000000
_cell_angle_beta 90.000000
_cell_angle_gamma 90.000000
_cell_volume 4545.543647
_symmetry_space_group_name_H-M "C M C M"
_symmetry_group_IT_number 63
_symmetry_cell_setting 'orthorhombic'
loop_
_space_group_symop_operation_xyz
x,y,z
-x,-y,1/2+z
x,-y,-z
-x,y,1/2-z
-x,-y,-z
x,y,1/2-z
-x,y,z
x,-y,1/2+z
1/2+x,1/2+y,z
1/2-x,1/2-y,1/2+z
1/2+x,1/2-y,-z
1/2-x,1/2+y,1/2-z
1/2-x,1/2-y,-z
1/2+x,1/2+y,1/2-z
1/2-x,1/2+y,z
1/2+x,1/2-y,1/2+z
loop_
_atom_site_type_symbol
_atom_site_label
_atom_site_fract_x
_atom_site_fract_y
_atom_site_fract_z
Si Si1 0.898818 0.347508 0.146654
Si Si2 0.242739 0.012216 0.677456
Si Si3 0.336580 0.425682 0.451410
Si Si4 0.597210 0.247770 0.407731
Si Si5 0.755051 0.203776 0.321749
Si Si6 0.864397 0.602590 0.989224
O O1 0.837966 0.433446 0.171463
O O2 0.852085 0.249033 0.162262
O O3 0.911570 0.353373 0.071505
O O4 0.000000 0.350611 0.176928
O O5 0.206041 0.026522 0.750000
O O6 0.253927 0.903948 0.663437
O O7 0.173605 0.042655 0.622353
O O8 0.379378 0.500000 0.500000
O O9 0.401581 0.337716 0.452654
O O10 0.242400 0.394743 0.481266
O O11 0.500000 0.242472 0.373190
O O12 0.678333 0.259338 0.358720
O O13 0.608475 0.156932 0.448704
O O14 0.732903 0.224672 0.250000
O O15 0.900371 0.500000 0.000000
#
# Coordination Sequence:
#
# PCOD8260358 Si02
#       6
#    16  16  16  16  16  16
#     4  11  23  40  68 100 130 167 215 272 325 386
#     4  10  22  41  65  91 126 171 211 259 325 389
#     4  10  21  38  64  88 121 166 213 261 315 379
#     4  12  24  38  62  93 126 168 213 259 319 390
#     4  11  24  42  64  91 129 169 214 270 328 387
#     4  10  21  39  63  92 129 163 201 259 328 389
#
# _framework density 21.119586000000002
#
# number of rings (size 3 to 8) (size 9 to 14) (size 15 to 20)
#    0.000    1.333    3.333    4.500    2.333    5.333 
#    0.000    2.500    0.000    1.000    0.000    0.000 
#    0.000    0.000    0.000    0.000    0.000    0.000 
#
# Total GULP energy -594918.013282 kJ/mol
# GULP energy per Si atom -12394.125277 kJ/mol
# Density = 2.107152 g / cm^3
# Si number density = 21.119586 Si / 1000 Ang^3
#
#
#
# Elastic Constant Matrix: (Units=GPa)
#
#
# Indices 1 2 3 4 5 6 
#
# 1 78.8536 57.5861 24.7030 0.0000 0.0000 0.0000
# 2 57.5861 125.2070 39.7406 0.0000 0.0000 0.0000
# 3 24.7030 39.7406 97.8511 0.0000 0.0000 0.0000
# 4 0.0000 0.0000 0.0000 27.7450 0.0000 0.0000
# 5 0.0000 0.0000 0.0000 0.0000 -8.3196 0.0000
# 6 0.0000 0.0000 0.0000 0.0000 0.0000 17.3341
#
#
#
# Elastic Compliance Matrix: (Units=1/GPa)
#
#
# Indices 1 2 3 4 5 6 
#
# 1 0.019274 -0.008403 -0.001453 0.000000 0.000000 0.000000
# 2 -0.008403 0.012833 -0.003090 0.000000 0.000000 0.000000
# 3 -0.001453 -0.003090 0.011841 0.000000 0.000000 0.000000
# 4 0.000000 0.000000 0.000000 0.036043 0.000000 0.000000
# 5 0.000000 0.000000 0.000000 0.000000 -0.120198 0.000000
# 6 0.000000 0.000000 0.000000 0.000000 0.000000 0.057690
#
#
# Mechanical properties :
#
#
# Convention : Reuss Voigt Hill
#
# Bulk Modulus (GPa) = 55.38702 60.66345 58.02524
# Shear Modulus (GPa) = 101.22879 19.34404 60.28641
#
# Velocity S-wave (km/s) = 6.93075 3.02972 5.34857
# Velocity P-wave (km/s) = 9.50418 6.40508 8.10415
#
# Compressibility (1/GPa) = 0.01805477
#
# Stress axis : x y z
#
# Youngs Moduli (GPa) = 51.88390 77.92676 84.44916
#
# Poissons Ratio (x) = 0.65485 0.12269
# Poissons Ratio (y) = 0.43600 0.26097
# Poissons Ratio (z) = 0.07538 0.24081
#
# Static dielectric constant tensor:
#      x y z
#    x 3.645290 0.000000 0.000000 
#    y 0.000000 4.085370 0.000000 
#    z 0.000000 0.000000 4.006570 
# 
# 
# High freq. dielectric constant tensor:
#      x y z
#    x 1.800900 0.000000 0.000000 
#    y 0.000000 1.843610 0.000000 
#    z 0.000000 0.000000 1.831700 
# 
# From -- ./inp_files/54152.got.cif
#   From: 2010.03.12/outbox.cif.g09.slc.cpg/sg63_28_cif.got.tgz:54152.got - 2010.04.10 19:34:48.
