data_PCOD8260936
_publ_section_title
;
Structure prediction by ZEFSAII (Michael W. Deem and Ramdas Pophale) SiO2 
 PCOD8260936
Probable space group: C M C M
;
_chemical_formula_sum "Si O2"
_cell_formula_units_Z 80
_cell_length_a 8.706393
_cell_length_b 20.565989
_cell_length_c 24.654275
_cell_angle_alpha 90.000000
_cell_angle_beta 90.000000
_cell_angle_gamma 90.000000
_cell_volume 4414.485575
_symmetry_space_group_name_H-M "C M C M"
_symmetry_group_IT_number 63
_symmetry_cell_setting 'orthorhombic'
loop_
_space_group_symop_operation_xyz
x,y,z
-x,-y,1/2+z
x,-y,-z
-x,y,1/2-z
-x,-y,-z
x,y,1/2-z
-x,y,z
x,-y,1/2+z
1/2+x,1/2+y,z
1/2-x,1/2-y,1/2+z
1/2+x,1/2-y,-z
1/2-x,1/2+y,1/2-z
1/2-x,1/2-y,-z
1/2+x,1/2+y,1/2-z
1/2-x,1/2+y,z
1/2+x,1/2-y,1/2+z
loop_
_atom_site_type_symbol
_atom_site_label
_atom_site_fract_x
_atom_site_fract_y
_atom_site_fract_z
Si Si1 0.669874 0.390320 0.250000
Si Si2 0.679743 0.752525 0.635904
Si Si3 0.178367 0.313592 0.525499
Si Si4 0.819536 0.064676 0.968479
Si Si5 0.681094 0.113367 0.862501
Si Si6 0.167770 0.264009 0.750000
O O1 0.500000 0.421660 0.250000
O O2 0.756470 0.412530 0.304785
O O3 0.658496 0.313466 0.250000
O O4 0.500000 0.734878 0.644377
O O5 0.700650 0.807041 0.590288
O O6 0.764043 0.685638 0.620753
O O7 0.749201 0.782463 0.692749
O O8 0.250000 0.250000 0.500000
O O9 0.269782 0.375884 0.506198
O O10 0.000000 0.319499 0.509223
O O11 0.736814 0.065345 0.910122
O O12 0.000000 0.068311 0.958318
O O13 0.769831 0.000000 0.000000
O O14 0.500000 0.113060 0.859353
O O15 0.000000 0.296741 0.750000
#
# Coordination Sequence:
#
# PCOD8260936 Si02
#       6
#     8  16  16  16  16   8
#     4   9  17  31  51  74 107 144 177 217 267 325
#     4   9  17  30  50  75 106 141 177 215 269 331
#     4  11  21  33  54  81 109 142 180 225 273 331
#     4  11  24  40  56  75 106 149 192 233 282 335
#     4  11  20  31  52  81 110 138 177 229 276 324
#     4   7  12  25  45  70  99 134 169 207 253 313
#
# _framework density 18.122157000000001
#
# number of rings (size 3 to 8) (size 9 to 14) (size 15 to 20)
#    0.000    2.000    2.000    4.500    0.000    2.400 
#    0.000    0.000    0.000    1.200    0.000    4.200 
#    0.000    0.000    0.000    0.000    0.000    0.000 
#
# Total GULP energy -495767.610538 kJ/mol
# GULP energy per Si atom -12394.190263 kJ/mol
# Density = 1.808091 g / cm^3
# Si number density = 18.122157 Si / 1000 Ang^3
#
#
#
# Elastic Constant Matrix: (Units=GPa)
#
#
# Indices 1 2 3 4 5 6 
#
# 1 95.3346 26.9784 48.8070 0.0000 0.0000 0.0000
# 2 26.9784 74.6385 46.7313 0.0000 0.0000 0.0000
# 3 48.8070 46.7313 163.3008 0.0000 0.0000 0.0000
# 4 0.0000 0.0000 0.0000 18.9110 0.0000 0.0000
# 5 0.0000 0.0000 0.0000 0.0000 29.4549 0.0000
# 6 0.0000 0.0000 0.0000 0.0000 0.0000 20.1546
#
#
#
# Elastic Compliance Matrix: (Units=1/GPa)
#
#
# Indices 1 2 3 4 5 6 
#
# 1 0.012823 -0.002723 -0.003053 0.000000 0.000000 0.000000
# 2 -0.002723 0.016901 -0.004022 0.000000 0.000000 0.000000
# 3 -0.003053 -0.004022 0.008187 0.000000 0.000000 0.000000
# 4 0.000000 0.000000 0.000000 0.052879 0.000000 0.000000
# 5 0.000000 0.000000 0.000000 0.000000 0.033950 0.000000
# 6 0.000000 0.000000 0.000000 0.000000 0.000000 0.049616
#
#
# Mechanical properties :
#
#
# Convention : Reuss Voigt Hill
#
# Bulk Modulus (GPa) = 54.60572 64.25637 59.43104
# Shear Modulus (GPa) = 24.99254 27.75458 26.37356
#
# Velocity S-wave (km/s) = 3.71767 3.91772 3.81901
# Velocity P-wave (km/s) = 6.97320 7.48325 7.23272
#
# Compressibility (1/GPa) = 0.01831310
#
# Stress axis : x y z
#
# Youngs Moduli (GPa) = 77.98393 59.16887 122.14018
#
# Poissons Ratio (x) = 0.16114 0.37292
# Poissons Ratio (y) = 0.21238 0.49131
# Poissons Ratio (z) = 0.23810 0.23801
#
# Static dielectric constant tensor:
#      x y z
#    x 3.371680 0.000000 0.000000 
#    y 0.000000 2.912400 0.000000 
#    z 0.000000 0.000000 4.187070 
# 
# 
# High freq. dielectric constant tensor:
#      x y z
#    x 1.702130 0.000000 0.000000 
#    y 0.000000 1.641800 0.000000 
#    z 0.000000 0.000000 1.734440 
# 
# From -- ./inp_files/66695.got.cif
#   From: 2010.03.12/outbox.cif.g09.slc.cpg/sg63_34_cif.got.tgz:66695.got - 2010.04.10 19:34:48.
