data_PCOD8260694
_publ_section_title
;
Structure prediction by ZEFSAII (Michael W. Deem and Ramdas Pophale) SiO2 
 PCOD8260694
Probable space group: C M C M
;
_chemical_formula_sum "Si O2"
_cell_formula_units_Z 64
_cell_length_a 13.148800
_cell_length_b 13.400233
_cell_length_c 18.425034
_cell_angle_alpha 90.000000
_cell_angle_beta 90.000000
_cell_angle_gamma 90.000000
_cell_volume 3246.435415
_symmetry_space_group_name_H-M "C M C M"
_symmetry_group_IT_number 63
_symmetry_cell_setting 'orthorhombic'
loop_
_space_group_symop_operation_xyz
x,y,z
-x,-y,1/2+z
x,-y,-z
-x,y,1/2-z
-x,-y,-z
x,y,1/2-z
-x,y,z
x,-y,1/2+z
1/2+x,1/2+y,z
1/2-x,1/2-y,1/2+z
1/2+x,1/2-y,-z
1/2-x,1/2+y,1/2-z
1/2-x,1/2-y,-z
1/2+x,1/2+y,1/2-z
1/2-x,1/2+y,z
1/2+x,1/2-y,1/2+z
loop_
_atom_site_type_symbol
_atom_site_label
_atom_site_fract_x
_atom_site_fract_y
_atom_site_fract_z
Si Si1 0.500000 0.885273 0.481531
Si Si2 0.115139 0.959711 0.420364
Si Si3 0.500000 0.041671 0.668526
Si Si4 0.712255 0.071649 0.333316
Si Si5 0.332056 0.763882 0.559829
O O1 0.404393 0.837268 0.517689
O O2 0.500000 0.000000 0.500000
O O3 0.500000 0.872144 0.393210
O O4 0.117579 0.839869 0.416777
O O5 0.000000 0.993335 0.398874
O O6 0.142415 0.000000 0.500000
O O7 0.199174 0.002328 0.365973
O O8 0.500000 0.088453 0.750000
O O9 0.600613 0.975413 0.656880
O O10 0.739534 0.087765 0.250000
O O11 0.712809 0.180893 0.369592
O O12 0.250000 0.750000 0.500000
#
# Coordination Sequence:
#
# PCOD8260694 Si02
#       5
#     8  16   8  16  16
#     4  12  22  40  69  96 123 172 220 272 331 385
#     4  11  24  44  67  98 136 176 224 275 333 407
#     4  10  22  40  66  98 132 164 214 280 333 383
#     4  11  24  43  66  98 135 174 220 278 339 398
#     4  12  23  39  68 100 127 170 228 276 325 398
#
# _framework density 19.713929
#
# number of rings (size 3 to 8) (size 9 to 14) (size 15 to 20)
#    0.000    0.750    6.250    1.500    0.000    1.500 
#    0.000    1.250    0.000    0.000    0.000    0.000 
#    0.000    0.000    0.000    0.000    0.000    0.000 
#
# Total GULP energy -396704.795834 kJ/mol
# GULP energy per Si atom -12397.024870 kJ/mol
# Density = 1.966906 g / cm^3
# Si number density = 19.713929 Si / 1000 Ang^3
#
#
#
# Elastic Constant Matrix: (Units=GPa)
#
#
# Indices 1 2 3 4 5 6 
#
# 1 146.8025 47.8902 66.6109 0.0000 0.0000 0.0000
# 2 47.8902 132.0084 67.2982 0.0000 0.0000 0.0000
# 3 66.6109 67.2982 171.6828 0.0000 0.0000 0.0000
# 4 0.0000 0.0000 0.0000 34.4242 0.0000 0.0000
# 5 0.0000 0.0000 0.0000 0.0000 30.9319 0.0000
# 6 0.0000 0.0000 0.0000 0.0000 0.0000 -35.7174
#
#
#
# Elastic Compliance Matrix: (Units=1/GPa)
#
#
# Indices 1 2 3 4 5 6 
#
# 1 0.008586 -0.001770 -0.002637 0.000000 0.000000 0.000000
# 2 -0.001770 0.009832 -0.003167 0.000000 0.000000 0.000000
# 3 -0.002637 -0.003167 0.008089 0.000000 0.000000 0.000000
# 4 0.000000 0.000000 0.000000 0.029049 0.000000 0.000000
# 5 0.000000 0.000000 0.000000 0.000000 0.032329 0.000000
# 6 0.000000 0.000000 0.000000 0.000000 0.000000 -0.027998
#
#
# Mechanical properties :
#
#
# Convention : Reuss Voigt Hill
#
# Bulk Modulus (GPa) = 88.04464 90.45468 89.24966
# Shear Modulus (GPa) = 63.43208 23.84071 43.63639
#
# Velocity S-wave (km/s) = 5.67857 3.48132 4.70987
# Velocity P-wave (km/s) = 9.36765 7.88306 8.65724
#
# Compressibility (1/GPa) = 0.01135787
#
# Stress axis : x y z
#
# Youngs Moduli (GPa) = 116.46764 101.70663 123.61723
#
# Poissons Ratio (x) = 0.18006 0.32602
# Poissons Ratio (y) = 0.20619 0.39153
# Poissons Ratio (z) = 0.30716 0.32213
#
# Static dielectric constant tensor:
#      x y z
#    x 3.756510 0.000000 0.000000 
#    y 0.000000 1.367790 0.000000 
#    z 0.000000 0.000000 3.956660 
# 
# 
# High freq. dielectric constant tensor:
#      x y z
#    x 1.788710 0.000000 0.000000 
#    y 0.000000 1.760740 0.000000 
#    z 0.000000 0.000000 1.774390 
# 
# From -- ./inp_files/43702.got.cif
#   From: 2010.03.12/outbox.cif.g09.slc.cpg/sg63_22_cif.got.tgz:43702.got - 2010.04.10 19:34:48.
