data_PCOD8260919
_publ_section_title
;
Structure prediction by ZEFSAII (Michael W. Deem and Ramdas Pophale) SiO2 
 PCOD8260919
Probable space group: C M C M
;
_chemical_formula_sum "Si O2"
_cell_formula_units_Z 80
_cell_length_a 14.169400
_cell_length_b 12.868194
_cell_length_c 21.740814
_cell_angle_alpha 90.000000
_cell_angle_beta 90.000000
_cell_angle_gamma 90.000000
_cell_volume 3964.102365
_symmetry_space_group_name_H-M "C M C M"
_symmetry_group_IT_number 63
_symmetry_cell_setting 'orthorhombic'
loop_
_space_group_symop_operation_xyz
x,y,z
-x,-y,1/2+z
x,-y,-z
-x,y,1/2-z
-x,-y,-z
x,y,1/2-z
-x,y,z
x,-y,1/2+z
1/2+x,1/2+y,z
1/2-x,1/2-y,1/2+z
1/2+x,1/2-y,-z
1/2-x,1/2+y,1/2-z
1/2-x,1/2-y,-z
1/2+x,1/2+y,1/2-z
1/2-x,1/2+y,z
1/2+x,1/2-y,1/2+z
loop_
_atom_site_type_symbol
_atom_site_label
_atom_site_fract_x
_atom_site_fract_y
_atom_site_fract_z
Si Si1 0.000000 0.609956 0.395379
Si Si2 0.645749 0.935620 0.379546
Si Si3 0.000000 0.322895 0.464180
Si Si4 0.000000 0.083476 0.052253
Si Si5 0.649777 0.485120 0.366647
Si Si6 0.000000 0.176177 0.823931
Si Si7 0.392115 0.155060 0.750000
Si Si8 0.388969 0.599914 0.250000
O O1 0.092962 0.545487 0.378037
O O2 0.000000 0.627724 0.468563
O O3 0.000000 0.711008 0.353767
O O4 0.753477 0.953267 0.400875
O O5 0.592849 0.857574 0.426231
O O6 0.655149 0.888821 0.311291
O O7 0.000000 0.199727 0.473381
O O8 0.906166 0.065077 0.090788
O O9 0.000000 0.000000 0.000000
O O10 0.592394 0.381809 0.349043
O O11 0.668704 0.553407 0.306567
O O12 0.000000 0.183706 0.750000
O O13 0.500000 0.119861 0.750000
O O14 0.381519 0.277742 0.750000
O O15 0.500000 0.563385 0.250000
#
# Coordination Sequence:
#
# PCOD8260919 Si02
#       8
#     8  16   8   8  16   8   8   8
#     4  11  26  43  64  91 133 173 217 261 322 382
#     4  11  24  41  65  95 130 168 217 264 317 386
#     4  11  23  47  67  90 129 180 213 266 319 378
#     4  11  24  42  68  93 123 162 218 267 311 381
#     4  11  22  42  64  96 123 166 211 265 321 381
#     4  11  23  42  62  92 133 171 203 268 335 384
#     4  11  21  36  64  99 125 165 214 264 322 383
#     4  11  19  38  66  93 127 165 208 264 322 387
#
# _framework density 20.181114000000001
#
# number of rings (size 3 to 8) (size 9 to 14) (size 15 to 20)
#    0.000    1.000    5.000    4.200    1.400    4.800 
#    0.000    3.000    0.000    0.000    0.000    0.000 
#    0.000    0.000    0.000    0.000    0.000    0.000 
#
# Total GULP energy -496042.302153 kJ/mol
# GULP energy per Si atom -12401.057554 kJ/mol
# Density = 2.013518 g / cm^3
# Si number density = 20.181114 Si / 1000 Ang^3
#
#
#
# Elastic Constant Matrix: (Units=GPa)
#
#
# Indices 1 2 3 4 5 6 
#
# 1 144.7010 41.7684 23.6562 0.0000 0.0000 0.0000
# 2 41.7684 126.4434 33.6347 0.0000 0.0000 0.0000
# 3 23.6562 33.6347 86.3455 0.0000 0.0000 0.0000
# 4 0.0000 0.0000 0.0000 39.3327 0.0000 0.0000
# 5 0.0000 0.0000 0.0000 0.0000 -4.2692 0.0000
# 6 0.0000 0.0000 0.0000 0.0000 0.0000 8.2151
#
#
#
# Elastic Compliance Matrix: (Units=1/GPa)
#
#
# Indices 1 2 3 4 5 6 
#
# 1 0.007760 -0.002229 -0.001258 0.000000 0.000000 0.000000
# 2 -0.002229 0.009463 -0.003076 0.000000 0.000000 0.000000
# 3 -0.001258 -0.003076 0.013124 0.000000 0.000000 0.000000
# 4 0.000000 0.000000 0.000000 0.025424 0.000000 0.000000
# 5 0.000000 0.000000 0.000000 0.000000 -0.234235 0.000000
# 6 0.000000 0.000000 0.000000 0.000000 0.000000 0.121727
#
#
# Mechanical properties :
#
#
# Convention : Reuss Voigt Hill
#
# Bulk Modulus (GPa) = 58.06314 61.73427 59.89871
# Shear Modulus (GPa) = -132.02448 25.88442 -53.07003
#
# Velocity S-wave (km/s) = -8.09703 3.58523 -5.13361
# Velocity P-wave (km/s) = 7.65391 6.91340 2.32241
#
# Compressibility (1/GPa) = 0.01722263
#
# Stress axis : x y z
#
# Youngs Moduli (GPa) = 128.87001 105.67449 76.19609
#
# Poissons Ratio (x) = 0.23552 0.09584
# Poissons Ratio (y) = 0.28722 0.23435
# Poissons Ratio (z) = 0.16209 0.32501
#
# Static dielectric constant tensor:
#      x y z
#    x 3.583660 0.000000 0.000000 
#    y 0.000000 3.705010 0.000000 
#    z 0.000000 0.000000 3.647050 
# 
# 
# High freq. dielectric constant tensor:
#      x y z
#    x 1.779180 0.000000 0.000000 
#    y 0.000000 1.799460 0.000000 
#    z 0.000000 0.000000 1.797110 
# 
# From -- ./inp_files/62647.got.cif
#   From: 2010.03.12/outbox.cif.g09.slc.cpg/sg63_32_cif.got.tgz:62647.got - 2010.04.10 19:34:48.
