data_PCOD8260236
_publ_section_title
;
Structure prediction by ZEFSAII (Michael W. Deem and Ramdas Pophale) SiO2 
 PCOD8260236
Probable space group: C M C M
;
_chemical_formula_sum "Si O2"
_cell_formula_units_Z 64
_cell_length_a 7.623934
_cell_length_b 20.742669
_cell_length_c 18.888906
_cell_angle_alpha 90.000000
_cell_angle_beta 90.000000
_cell_angle_gamma 90.000000
_cell_volume 2987.105562
_symmetry_space_group_name_H-M "C M C M"
_symmetry_group_IT_number 63
_symmetry_cell_setting 'orthorhombic'
loop_
_space_group_symop_operation_xyz
x,y,z
-x,-y,1/2+z
x,-y,-z
-x,y,1/2-z
-x,-y,-z
x,y,1/2-z
-x,y,z
x,-y,1/2+z
1/2+x,1/2+y,z
1/2-x,1/2-y,1/2+z
1/2+x,1/2-y,-z
1/2-x,1/2+y,1/2-z
1/2-x,1/2-y,-z
1/2+x,1/2+y,1/2-z
1/2-x,1/2+y,z
1/2+x,1/2-y,1/2+z
loop_
_atom_site_type_symbol
_atom_site_label
_atom_site_fract_x
_atom_site_fract_y
_atom_site_fract_z
Si Si1 0.500000 0.263089 0.664584
Si Si2 0.500000 0.117097 0.666204
Si Si3 0.295191 0.945617 0.551975
Si Si4 0.805082 0.027753 0.830020
Si Si5 0.795491 0.699034 0.060574
O O1 0.500000 0.271991 0.750000
O O2 0.500000 0.189275 0.638133
O O3 0.323030 0.292508 0.630818
O O4 0.500000 0.118685 0.750000
O O5 0.327449 0.080723 0.636818
O O6 0.500000 0.956566 0.558658
O O7 0.252818 0.872327 0.529477
O O8 0.213243 0.000000 0.500000
O O9 0.209257 0.960353 0.628340
O O10 0.751311 0.011691 0.750000
O O11 0.000000 0.057038 0.834335
O O12 0.000000 0.704928 0.082495
O O13 0.750000 0.750000 0.000000
#
# Coordination Sequence:
#
# PCOD8260236 Si02
#       5
#     8   8  16  16  16
#     4  11  26  46  70  98 139 186 230 282 344 415
#     4   9  20  40  62  91 129 167 207 268 336 387
#     4  10  23  41  65  97 130 170 220 270 331 397
#     4  10  21  37  62  96 128 164 213 267 327 392
#     4  11  25  45  70 100 136 181 230 283 345 409
#
# _framework density 21.425422000000001
#
# number of rings (size 3 to 8) (size 9 to 14) (size 15 to 20)
#    0.000    1.750    2.500    0.000    5.250    3.000 
#    0.000    5.000    0.000    0.000    0.000    0.000 
#    0.000    0.000    0.000    0.000    0.000    0.000 
#
# Total GULP energy -396681.784229 kJ/mol
# GULP energy per Si atom -12396.305757 kJ/mol
# Density = 2.137666 g / cm^3
# Si number density = 21.425422 Si / 1000 Ang^3
#
#
#
# Elastic Constant Matrix: (Units=GPa)
#
#
# Indices 1 2 3 4 5 6 
#
# 1 126.8476 64.2331 45.2997 0.0000 0.0000 0.0000
# 2 64.2331 160.5029 65.7191 0.0000 0.0000 0.0000
# 3 45.2997 65.7191 105.9322 0.0000 0.0000 0.0000
# 4 0.0000 0.0000 0.0000 34.5185 0.0000 0.0000
# 5 0.0000 0.0000 0.0000 0.0000 27.9337 0.0000
# 6 0.0000 0.0000 0.0000 0.0000 0.0000 24.7140
#
#
#
# Elastic Compliance Matrix: (Units=1/GPa)
#
#
# Indices 1 2 3 4 5 6 
#
# 1 0.010355 -0.003125 -0.002490 0.000000 0.000000 0.000000
# 2 -0.003125 0.009295 -0.004430 0.000000 0.000000 0.000000
# 3 -0.002490 -0.004430 0.013253 0.000000 0.000000 0.000000
# 4 0.000000 0.000000 0.000000 0.028970 0.000000 0.000000
# 5 0.000000 0.000000 0.000000 0.000000 0.035799 0.000000
# 6 0.000000 0.000000 0.000000 0.000000 0.000000 0.040463
#
#
# Mechanical properties :
#
#
# Convention : Reuss Voigt Hill
#
# Bulk Modulus (GPa) = 78.04007 82.64295 80.34151
# Shear Modulus (GPa) = 30.77023 31.96863 31.36943
#
# Velocity S-wave (km/s) = 3.79377 3.86695 3.83054
# Velocity P-wave (km/s) = 7.46280 7.65466 7.55934
#
# Compressibility (1/GPa) = 0.01281393
#
# Stress axis : x y z
#
# Youngs Moduli (GPa) = 96.57381 107.58595 75.45413
#
# Poissons Ratio (x) = 0.33616 0.18784
# Poissons Ratio (y) = 0.30176 0.33428
# Poissons Ratio (z) = 0.24042 0.47664
#
# Static dielectric constant tensor:
#      x y z
#    x 4.011110 0.000000 0.000000 
#    y 0.000000 4.124060 0.000000 
#    z 0.000000 0.000000 3.819030 
# 
# 
# High freq. dielectric constant tensor:
#      x y z
#    x 1.848560 0.000000 0.000000 
#    y 0.000000 1.839560 0.000000 
#    z 0.000000 0.000000 1.835870 
# 
# From -- ./inp_files/39868.got.cif
#   From: 2010.03.12/outbox.cif.g09.slc.cpg/sg63_20_cif.got.tgz:39868.got - 2010.04.10 19:34:48.
