data_PCOD8260353
_publ_section_title
;
Structure prediction by ZEFSAII (Michael W. Deem and Ramdas Pophale) SiO2 
 PCOD8260353
Probable space group: C M C M
;
_chemical_formula_sum "Si O2"
_cell_formula_units_Z 88
_cell_length_a 12.055247
_cell_length_b 20.583349
_cell_length_c 18.462716
_cell_angle_alpha 90.000000
_cell_angle_beta 90.000000
_cell_angle_gamma 90.000000
_cell_volume 4581.289538
_symmetry_space_group_name_H-M "C M C M"
_symmetry_group_IT_number 63
_symmetry_cell_setting 'orthorhombic'
loop_
_space_group_symop_operation_xyz
x,y,z
-x,-y,1/2+z
x,-y,-z
-x,y,1/2-z
-x,-y,-z
x,y,1/2-z
-x,y,z
x,-y,1/2+z
1/2+x,1/2+y,z
1/2-x,1/2-y,1/2+z
1/2+x,1/2-y,-z
1/2-x,1/2+y,1/2-z
1/2-x,1/2-y,-z
1/2+x,1/2+y,1/2-z
1/2-x,1/2+y,z
1/2+x,1/2-y,1/2+z
loop_
_atom_site_type_symbol
_atom_site_label
_atom_site_fract_x
_atom_site_fract_y
_atom_site_fract_z
Si Si1 0.500000 0.451320 0.665460
Si Si2 0.500000 0.211140 0.670298
Si Si3 0.739453 0.510250 0.167115
Si Si4 0.281193 0.322707 0.479499
Si Si5 0.726805 0.138100 0.669559
Si Si6 0.630256 0.933343 0.957916
Si Si7 0.000000 0.169348 0.067358
O O1 0.500000 0.440378 0.750000
O O2 0.389477 0.489931 0.641383
O O3 0.500000 0.380435 0.632329
O O4 0.500000 0.245387 0.750000
O O5 0.604138 0.164920 0.662629
O O6 0.500000 0.260346 0.603723
O O7 0.750039 0.533541 0.250000
O O8 0.784738 0.438265 0.155921
O O9 0.812591 0.560503 0.120724
O O10 0.250000 0.250000 0.500000
O O11 0.301181 0.327968 0.392565
O O12 0.182534 0.371882 0.500860
O O13 0.393593 0.342990 0.518177
O O14 0.777650 0.151965 0.750000
O O15 0.500000 0.920211 0.948738
O O16 0.654908 0.000000 0.000000
#
# Coordination Sequence:
#
# PCOD8260353 Si02
#       7
#     8   8  16  16  16  16   8
#     4  10  21  39  61  93 131 165 207 259 312 373
#     4  10  21  38  63  90 121 162 216 266 304 365
#     4  10  21  39  64  94 128 165 208 261 318 375
#     4  12  25  41  63  95 131 165 211 260 315 377
#     4  10  22  40  62  91 124 163 209 260 314 371
#     4  11  24  41  65  91 127 165 207 265 318 372
#     4  12  23  39  65  90 123 172 210 261 307 375
#
# _framework density 19.208566000000001
#
# number of rings (size 3 to 8) (size 9 to 14) (size 15 to 20)
#    0.000    1.273    5.455    0.273    3.818    1.091 
#    0.000    4.091    0.000    0.000    0.000    0.000 
#    0.000    0.000    0.000    0.000    0.000    0.000 
#
# Total GULP energy -545620.149633 kJ/mol
# GULP energy per Si atom -12400.457946 kJ/mol
# Density = 1.916485 g / cm^3
# Si number density = 19.208566 Si / 1000 Ang^3
#
#
#
# Elastic Constant Matrix: (Units=GPa)
#
#
# Indices 1 2 3 4 5 6 
#
# 1 123.2200 38.6903 54.0030 0.0000 0.0000 0.0000
# 2 38.6903 100.1573 49.0566 0.0000 0.0000 0.0000
# 3 54.0030 49.0566 107.2347 0.0000 0.0000 0.0000
# 4 0.0000 0.0000 0.0000 28.9810 0.0000 0.0000
# 5 0.0000 0.0000 0.0000 0.0000 27.2796 0.0000
# 6 0.0000 0.0000 0.0000 0.0000 0.0000 30.4969
#
#
#
# Elastic Compliance Matrix: (Units=1/GPa)
#
#
# Indices 1 2 3 4 5 6 
#
# 1 0.010694 -0.001925 -0.004505 0.000000 0.000000 0.000000
# 2 -0.001925 0.013214 -0.005076 0.000000 0.000000 0.000000
# 3 -0.004505 -0.005076 0.013916 0.000000 0.000000 0.000000
# 4 0.000000 0.000000 0.000000 0.034505 0.000000 0.000000
# 5 0.000000 0.000000 0.000000 0.000000 0.036657 0.000000
# 6 0.000000 0.000000 0.000000 0.000000 0.000000 0.032790
#
#
# Mechanical properties :
#
#
# Convention : Reuss Voigt Hill
#
# Bulk Modulus (GPa) = 67.50674 68.23463 67.87069
# Shear Modulus (GPa) = 29.45926 29.94231 29.70078
#
# Velocity S-wave (km/s) = 3.92044 3.95245 3.93647
# Velocity P-wave (km/s) = 7.46415 7.51194 7.48808
#
# Compressibility (1/GPa) = 0.01481334
#
# Stress axis : x y z
#
# Youngs Moduli (GPa) = 93.50739 75.67847 71.85907
#
# Poissons Ratio (x) = 0.14565 0.32374
# Poissons Ratio (y) = 0.17996 0.36474
# Poissons Ratio (z) = 0.42127 0.38412
#
# Static dielectric constant tensor:
#      x y z
#    x 3.595460 0.000000 0.000000 
#    y 0.000000 3.360050 0.000000 
#    z 0.000000 0.000000 3.933500 
# 
# 
# High freq. dielectric constant tensor:
#      x y z
#    x 1.744550 0.000000 0.000000 
#    y 0.000000 1.740280 0.000000 
#    z 0.000000 0.000000 1.764940 
# 
# From -- ./inp_files/42295.got.cif
#   From: 2010.03.12/outbox.cif.g09.slc.cpg/sg63_22_cif.got.tgz:42295.got - 2010.04.10 19:34:48.
