data_PCOD8260941
_publ_section_title
;
Structure prediction by ZEFSAII (Michael W. Deem and Ramdas Pophale) SiO2 
 PCOD8260941
Probable space group: C M C M
;
_chemical_formula_sum "Si O2"
_cell_formula_units_Z 96
_cell_length_a 11.869997
_cell_length_b 25.064160
_cell_length_c 17.921552
_cell_angle_alpha 90.000000
_cell_angle_beta 90.000000
_cell_angle_gamma 90.000000
_cell_volume 5331.867890
_symmetry_space_group_name_H-M "C M C M"
_symmetry_group_IT_number 63
_symmetry_cell_setting 'orthorhombic'
loop_
_space_group_symop_operation_xyz
x,y,z
-x,-y,1/2+z
x,-y,-z
-x,y,1/2-z
-x,-y,-z
x,y,1/2-z
-x,y,z
x,-y,1/2+z
1/2+x,1/2+y,z
1/2-x,1/2-y,1/2+z
1/2+x,1/2-y,-z
1/2-x,1/2+y,1/2-z
1/2-x,1/2-y,-z
1/2+x,1/2+y,1/2-z
1/2-x,1/2+y,z
1/2+x,1/2-y,1/2+z
loop_
_atom_site_type_symbol
_atom_site_label
_atom_site_fract_x
_atom_site_fract_y
_atom_site_fract_z
Si Si1 0.000000 0.081951 0.166038
Si Si2 0.631674 0.814104 0.835122
Si Si3 0.213787 0.906151 0.412346
Si Si4 0.729512 0.402437 0.588093
Si Si5 0.125659 0.497188 0.411450
Si Si6 0.500000 0.456009 0.164734
Si Si7 0.870688 0.807585 0.336954
O O1 0.110289 0.104964 0.127148
O O2 0.000000 0.103234 0.250000
O O3 0.000000 0.018917 0.162238
O O4 0.669713 0.825682 0.750000
O O5 0.500000 0.825435 0.843532
O O6 0.696466 0.850878 0.893312
O O7 0.658726 0.753146 0.857085
O O8 0.206306 0.905620 0.500888
O O9 0.323646 0.939824 0.386803
O O10 0.215689 0.845724 0.381540
O O11 0.107797 0.936265 0.378933
O O12 0.795291 0.454867 0.618247
O O13 0.119391 0.500000 0.500000
O O14 0.000000 0.502595 0.377177
O O15 0.500000 0.434496 0.250000
O O16 0.853553 0.817816 0.250000
O O17 0.000000 0.821043 0.359359
#
# Coordination Sequence:
#
# PCOD8260941 Si02
#       7
#     8  16  16  16  16   8  16
#     4  11  23  35  51  77 111 147 183 218 271 332
#     4   9  19  37  59  80 105 143 188 230 272 320
#     4  11  20  32  57  84 110 141 177 227 277 323
#     4  11  21  34  55  80 113 142 179 229 274 325
#     4   9  19  34  51  76 110 145 173 209 269 328
#     4  11  21  35  55  81 113 145 181 224 275 332
#     4   9  18  34  57  82 107 140 184 230 273 320
#
# _framework density 18.004947999999999
#
# number of rings (size 3 to 8) (size 9 to 14) (size 15 to 20)
#    0.000    2.000    2.500    3.000    0.000    2.000 
#    0.000    0.000    1.833    5.000    0.000    0.000 
#    0.000    0.000    0.000    0.000    0.000    0.000 
#
# Total GULP energy -595171.609571 kJ/mol
# GULP energy per Si atom -12399.408533 kJ/mol
# Density = 1.796397 g / cm^3
# Si number density = 18.004948 Si / 1000 Ang^3
#
#
#
# Elastic Constant Matrix: (Units=GPa)
#
#
# Indices 1 2 3 4 5 6 
#
# 1 105.5739 54.8978 39.1391 0.0000 0.0000 0.0000
# 2 54.8978 112.6776 46.9345 0.0000 0.0000 0.0000
# 3 39.1391 46.9345 76.6677 0.0000 0.0000 0.0000
# 4 0.0000 0.0000 0.0000 40.7836 0.0000 0.0000
# 5 0.0000 0.0000 0.0000 0.0000 19.2961 0.0000
# 6 0.0000 0.0000 0.0000 0.0000 0.0000 55.9629
#
#
#
# Elastic Compliance Matrix: (Units=1/GPa)
#
#
# Indices 1 2 3 4 5 6 
#
# 1 0.013479 -0.004967 -0.003840 0.000000 0.000000 0.000000
# 2 -0.004967 0.013743 -0.005877 0.000000 0.000000 0.000000
# 3 -0.003840 -0.005877 0.018602 0.000000 0.000000 0.000000
# 4 0.000000 0.000000 0.000000 0.024520 0.000000 0.000000
# 5 0.000000 0.000000 0.000000 0.000000 0.051824 0.000000
# 6 0.000000 0.000000 0.000000 0.000000 0.000000 0.017869
#
#
# Mechanical properties :
#
#
# Convention : Reuss Voigt Hill
#
# Bulk Modulus (GPa) = 60.77586 64.09579 62.43582
# Shear Modulus (GPa) = 28.58930 33.47169 31.03050
#
# Velocity S-wave (km/s) = 3.98912 4.31632 4.15594
# Velocity P-wave (km/s) = 7.41928 7.77927 7.60141
#
# Compressibility (1/GPa) = 0.01645390
#
# Stress axis : x y z
#
# Youngs Moduli (GPa) = 74.19136 72.76284 53.75872
#
# Poissons Ratio (x) = 0.36145 0.20643
# Poissons Ratio (y) = 0.36855 0.31596
# Poissons Ratio (z) = 0.28489 0.42766
#
# Static dielectric constant tensor:
#      x y z
#    x 3.352980 0.000000 0.000000 
#    y 0.000000 3.449380 0.000000 
#    z 0.000000 0.000000 3.181700 
# 
# 
# High freq. dielectric constant tensor:
#      x y z
#    x 1.689870 0.000000 0.000000 
#    y 0.000000 1.703340 0.000000 
#    z 0.000000 0.000000 1.683830 
# 
# From -- ./inp_files/42533.got.cif
#   From: 2010.03.12/outbox.cif.g09.slc.cpg/sg63_22_cif.got.tgz:42533.got - 2010.04.10 19:34:48.
