data_PCOD8260668
_publ_section_title
;
Structure prediction by ZEFSAII (Michael W. Deem and Ramdas Pophale) SiO2 
 PCOD8260668
Probable space group: C M C M
;
_chemical_formula_sum "Si O2"
_cell_formula_units_Z 68
_cell_length_a 8.149066
_cell_length_b 18.923859
_cell_length_c 21.813605
_cell_angle_alpha 90.000000
_cell_angle_beta 90.000000
_cell_angle_gamma 90.000000
_cell_volume 3363.914767
_symmetry_space_group_name_H-M "C M C M"
_symmetry_group_IT_number 63
_symmetry_cell_setting 'orthorhombic'
loop_
_space_group_symop_operation_xyz
x,y,z
-x,-y,1/2+z
x,-y,-z
-x,y,1/2-z
-x,-y,-z
x,y,1/2-z
-x,y,z
x,-y,1/2+z
1/2+x,1/2+y,z
1/2-x,1/2-y,1/2+z
1/2+x,1/2-y,-z
1/2-x,1/2+y,1/2-z
1/2-x,1/2-y,-z
1/2+x,1/2+y,1/2-z
1/2-x,1/2+y,z
1/2+x,1/2-y,1/2+z
loop_
_atom_site_type_symbol
_atom_site_label
_atom_site_fract_x
_atom_site_fract_y
_atom_site_fract_z
Si Si1 0.500000 0.868249 0.182554
Si Si2 0.311002 0.075600 0.119546
Si Si3 0.500000 0.266211 0.750000
Si Si4 0.186714 0.173785 0.019352
Si Si5 0.803185 0.630570 0.250000
Si Si6 0.817271 0.428778 0.421460
O O1 0.500000 0.904854 0.250000
O O2 0.500000 0.783243 0.189184
O O3 0.662927 0.892268 0.145484
O O4 0.500000 0.056538 0.121376
O O5 0.279047 0.145691 0.079804
O O6 0.255127 0.086113 0.189627
O O7 0.230580 0.005726 0.088094
O O8 0.325533 0.305424 0.750000
O O9 0.000000 0.181264 0.038396
O O10 0.250000 0.250000 0.000000
O O11 0.202945 0.118759 0.963827
O O12 0.000000 0.652944 0.250000
O O13 0.000000 0.434216 0.452571
#
# Coordination Sequence:
#
# PCOD8260668 Si02
#       6
#     8  16   4  16   8  16
#     4   8  20  36  69  87 125 164 206 253 323 378
#     4  10  22  40  65  92 126 162 214 257 317 384
#     4  10  22  40  62  98 134 168 216 272 320 374
#     4  12  26  40  61  89 126 165 212 264 320 380
#     4  10  24  39  64  97 130 173 215 264 325 386
#     4   9  20  39  65  90 122 158 209 250 316 384
#
# _framework density 20.214542000000002
#
# number of rings (size 3 to 8) (size 9 to 14) (size 15 to 20)
#    1.059    0.941    0.000    2.824    6.588    3.765 
#    0.000    0.000    0.000    0.000    0.000    0.000 
#    0.000    0.000    0.000    0.000    0.000    0.000 
#
# Total GULP energy -421243.909354 kJ/mol
# GULP energy per Si atom -12389.526746 kJ/mol
# Density = 2.016853 g / cm^3
# Si number density = 20.214542 Si / 1000 Ang^3
#
#
#
# Elastic Constant Matrix: (Units=GPa)
#
#
# Indices 1 2 3 4 5 6 
#
# 1 36.1494 20.0276 5.3194 0.0000 0.0000 0.0000
# 2 20.0276 150.4554 54.0036 0.0000 0.0000 0.0000
# 3 5.3194 54.0036 133.4961 0.0000 0.0000 0.0000
# 4 0.0000 0.0000 0.0000 42.8014 0.0000 0.0000
# 5 0.0000 0.0000 0.0000 0.0000 23.3499 0.0000
# 6 0.0000 0.0000 0.0000 0.0000 0.0000 27.1286
#
#
#
# Elastic Compliance Matrix: (Units=1/GPa)
#
#
# Indices 1 2 3 4 5 6 
#
# 1 0.029893 -0.004155 0.000490 0.000000 0.000000 0.000000
# 2 -0.004155 0.008353 -0.003214 0.000000 0.000000 0.000000
# 3 0.000490 -0.003214 0.008771 0.000000 0.000000 0.000000
# 4 0.000000 0.000000 0.000000 0.023364 0.000000 0.000000
# 5 0.000000 0.000000 0.000000 0.000000 0.042827 0.000000
# 6 0.000000 0.000000 0.000000 0.000000 0.000000 0.036861
#
#
# Mechanical properties :
#
#
# Convention : Reuss Voigt Hill
#
# Bulk Modulus (GPa) = 30.06647 53.20024 41.63336
# Shear Modulus (GPa) = 28.58564 34.70601 31.64582
#
# Velocity S-wave (km/s) = 3.76455 4.14802 3.96093
# Velocity P-wave (km/s) = 5.81393 7.02256 6.44663
#
# Compressibility (1/GPa) = 0.03325964
#
# Stress axis : x y z
#
# Youngs Moduli (GPa) = 33.45287 119.71751 114.00801
#
# Poissons Ratio (x) = 0.49741 -0.05582
# Poissons Ratio (y) = 0.13899 0.36637
# Poissons Ratio (z) = -0.01638 0.38471
#
# Static dielectric constant tensor:
#      x y z
#    x 3.373380 0.000000 0.000000 
#    y 0.000000 3.736450 0.000000 
#    z 0.000000 0.000000 3.754680 
# 
# 
# High freq. dielectric constant tensor:
#      x y z
#    x 1.755210 0.000000 0.000000 
#    y 0.000000 1.795840 0.000000 
#    z 0.000000 0.000000 1.800720 
# 
# From -- ./inp_files/50500.got.cif
#   From: 2010.03.12/outbox.cif.g09.slc.cpg/sg63_26_cif.got.tgz:50500.got - 2010.04.10 19:34:48.
