data_PCOD8260456
_publ_section_title
;
Structure prediction by ZEFSAII (Michael W. Deem and Ramdas Pophale) SiO2 
 PCOD8260456
Probable space group: C M C M
;
_chemical_formula_sum "Si O2"
_cell_formula_units_Z 84
_cell_length_a 12.635364
_cell_length_b 13.922164
_cell_length_c 22.872271
_cell_angle_alpha 90.000000
_cell_angle_beta 90.000000
_cell_angle_gamma 90.000000
_cell_volume 4023.498012
_symmetry_space_group_name_H-M "C M C M"
_symmetry_group_IT_number 63
_symmetry_cell_setting 'orthorhombic'
loop_
_space_group_symop_operation_xyz
x,y,z
-x,-y,1/2+z
x,-y,-z
-x,y,1/2-z
-x,-y,-z
x,y,1/2-z
-x,y,z
x,-y,1/2+z
1/2+x,1/2+y,z
1/2-x,1/2-y,1/2+z
1/2+x,1/2-y,-z
1/2-x,1/2+y,1/2-z
1/2-x,1/2-y,-z
1/2+x,1/2+y,1/2-z
1/2-x,1/2+y,z
1/2+x,1/2-y,1/2+z
loop_
_atom_site_type_symbol
_atom_site_label
_atom_site_fract_x
_atom_site_fract_y
_atom_site_fract_z
Si Si1 0.796165 0.851186 0.250000
Si Si2 0.118777 0.109458 0.126243
Si Si3 0.824736 0.712572 0.549313
Si Si4 0.000000 0.711380 0.250000
Si Si5 0.724071 0.049216 0.637702
Si Si6 0.500000 0.945121 0.648169
Si Si7 0.878919 0.803533 0.750000
Si Si8 0.000000 0.392672 0.981036
O O1 0.897429 0.780396 0.250000
O O2 0.792465 0.920639 0.305845
O O3 0.688226 0.792387 0.250000
O O4 0.121338 0.202028 0.085069
O O5 0.148102 0.135138 0.192866
O O6 0.000000 0.066038 0.122669
O O7 0.207858 0.034001 0.105682
O O8 0.750000 0.750000 0.500000
O O9 0.773166 0.640437 0.595513
O O10 0.900850 0.655357 0.508471
O O11 0.000000 0.639513 0.195355
O O12 0.604654 0.012909 0.652753
O O13 0.500000 0.884958 0.588654
O O14 0.000000 0.769250 0.750000
O O15 0.000000 0.500000 0.000000
#
# Coordination Sequence:
#
# PCOD8260456 Si02
#       8
#     8  16  16   4  16   8   8   8
#     4  12  26  43  72 106 144 180 234 287 368 417
#     4  11  24  46  68 101 142 184 231 286 357 428
#     4  12  26  44  70 103 138 187 238 291 348 421
#     4  12  30  48  72 108 142 188 238 302 364 418
#     4  12  26  45  74 103 144 184 239 293 356 426
#     4  12  26  48  78 104 142 184 247 299 353 414
#     4  10  21  39  75  99 133 175 226 284 347 416
#     4  12  24  46  73 104 141 183 239 294 347 414
#
# _framework density 20.877355999999999
#
# number of rings (size 3 to 8) (size 9 to 14) (size 15 to 20)
#    0.000    0.381    4.762    3.429    5.333    0.000 
#    1.714    0.952    0.000    0.000    0.000    0.000 
#    0.000    0.000    0.000    0.000    0.000    0.000 
#
# Total GULP energy -520694.656871 kJ/mol
# GULP energy per Si atom -12397.491830 kJ/mol
# Density = 2.082984 g / cm^3
# Si number density = 20.877356 Si / 1000 Ang^3
#
#
#
# Elastic Constant Matrix: (Units=GPa)
#
#
# Indices 1 2 3 4 5 6 
#
# 1 116.5224 68.3662 36.2073 0.0000 0.0000 0.0000
# 2 68.3662 125.1882 49.0881 0.0000 0.0000 0.0000
# 3 36.2073 49.0881 146.5040 0.0000 0.0000 0.0000
# 4 0.0000 0.0000 0.0000 38.6877 0.0000 0.0000
# 5 0.0000 0.0000 0.0000 0.0000 35.5447 0.0000
# 6 0.0000 0.0000 0.0000 0.0000 0.0000 -4.3347
#
#
#
# Elastic Compliance Matrix: (Units=1/GPa)
#
#
# Indices 1 2 3 4 5 6 
#
# 1 0.012740 -0.006588 -0.000941 0.000000 0.000000 0.000000
# 2 -0.006588 0.012603 -0.002595 0.000000 0.000000 0.000000
# 3 -0.000941 -0.002595 0.007928 0.000000 0.000000 0.000000
# 4 0.000000 0.000000 0.000000 0.025848 0.000000 0.000000
# 5 0.000000 0.000000 0.000000 0.000000 0.028134 0.000000
# 6 0.000000 0.000000 0.000000 0.000000 0.000000 -0.230698
#
#
# Mechanical properties :
#
#
# Convention : Reuss Voigt Hill
#
# Bulk Modulus (GPa) = 76.78821 77.28197 77.03509
# Shear Modulus (GPa) = -42.06763 29.61642 -6.22561
#
# Velocity S-wave (km/s) = -4.49373 3.77050 -1.72872
# Velocity P-wave (km/s) = 3.15208 7.48686 5.74407
#
# Compressibility (1/GPa) = 0.01302283
#
# Stress axis : x y z
#
# Youngs Moduli (GPa) = 78.49280 79.34394 126.14006
#
# Poissons Ratio (x) = 0.52275 0.11871
# Poissons Ratio (y) = 0.51714 0.32729
# Poissons Ratio (z) = 0.07387 0.20587
#
# Static dielectric constant tensor:
#      x y z
#    x 3.875750 0.000000 0.000000 
#    y 0.000000 3.873170 0.000000 
#    z 0.000000 0.000000 3.904750 
# 
# 
# High freq. dielectric constant tensor:
#      x y z
#    x 1.827200 0.000000 0.000000 
#    y 0.000000 1.828850 0.000000 
#    z 0.000000 0.000000 1.831210 
# 
# From -- ./inp_files/61337.got.cif
#   From: 2010.03.12/outbox.cif.g09.slc.cpg/sg63_31_cif.got.tgz:61337.got - 2010.04.10 19:34:48.
