data_PCOD8260627
_publ_section_title
;
Structure prediction by ZEFSAII (Michael W. Deem and Ramdas Pophale) SiO2 
 PCOD8260627
Probable space group: C M C M
;
_chemical_formula_sum "Si O2"
_cell_formula_units_Z 64
_cell_length_a 7.855321
_cell_length_b 13.943969
_cell_length_c 31.817410
_cell_angle_alpha 90.000000
_cell_angle_beta 90.000000
_cell_angle_gamma 90.000000
_cell_volume 3485.099403
_symmetry_space_group_name_H-M "C M C M"
_symmetry_group_IT_number 63
_symmetry_cell_setting 'orthorhombic'
loop_
_space_group_symop_operation_xyz
x,y,z
-x,-y,1/2+z
x,-y,-z
-x,y,1/2-z
-x,-y,-z
x,y,1/2-z
-x,y,z
x,-y,1/2+z
1/2+x,1/2+y,z
1/2-x,1/2-y,1/2+z
1/2+x,1/2-y,-z
1/2-x,1/2+y,1/2-z
1/2-x,1/2-y,-z
1/2+x,1/2+y,1/2-z
1/2-x,1/2+y,z
1/2+x,1/2-y,1/2+z
loop_
_atom_site_type_symbol
_atom_site_label
_atom_site_fract_x
_atom_site_fract_y
_atom_site_fract_z
Si Si1 0.500000 0.873751 0.200201
Si Si2 0.701481 0.000202 0.069445
Si Si3 0.500000 0.653428 0.200243
Si Si4 0.301227 0.858352 0.000078
Si Si5 0.184417 0.011000 0.836901
O O1 0.500000 0.878417 0.250000
O O2 0.500000 0.763609 0.184018
O O3 0.332379 0.926743 0.183621
O O4 0.500000 0.000234 0.077399
O O5 0.764913 0.907571 0.042917
O O6 0.793034 0.001565 0.113694
O O7 0.766443 0.091748 0.042469
O O8 0.500000 0.651916 0.250000
O O9 0.669099 0.596524 0.183456
O O10 0.500000 0.874159 0.999730
O O11 0.250000 0.750000 0.000000
O O12 0.000000 0.062682 0.829281
#
# Coordination Sequence:
#
# PCOD8260627 Si02
#       5
#     8  16   8  16  16
#     4  11  22  42  67  88 125 165 192 256 317 353
#     4   9  18  37  54  78 119 156 193 245 300 349
#     4   9  22  42  61  92 123 151 206 250 297 375
#     4   9  19  33  54  78 113 156 195 242 293 350
#     4  10  22  39  63  91 122 158 204 252 299 367
#
# _framework density 18.363894999999999
#
# number of rings (size 3 to 8) (size 9 to 14) (size 15 to 20)
#    0.750    1.750    1.250    2.250    0.000    4.000 
#    2.250    5.000    0.000    0.000    0.000    0.000 
#    0.000    0.000    0.000    0.000    0.000    0.000 
#
# Total GULP energy -396446.609226 kJ/mol
# GULP energy per Si atom -12388.956538 kJ/mol
# Density = 1.832210 g / cm^3
# Si number density = 18.363895 Si / 1000 Ang^3
#
#
#
# Elastic Constant Matrix: (Units=GPa)
#
#
# Indices 1 2 3 4 5 6 
#
# 1 98.5575 54.1021 42.6993 0.0000 0.0000 0.0000
# 2 54.1021 174.9939 66.2687 0.0000 0.0000 0.0000
# 3 42.6993 66.2687 124.3474 0.0000 0.0000 0.0000
# 4 0.0000 0.0000 0.0000 15.4187 0.0000 0.0000
# 5 0.0000 0.0000 0.0000 0.0000 27.2011 0.0000
# 6 0.0000 0.0000 0.0000 0.0000 0.0000 32.2577
#
#
#
# Elastic Compliance Matrix: (Units=1/GPa)
#
#
# Indices 1 2 3 4 5 6 
#
# 1 0.013011 -0.002920 -0.002912 0.000000 0.000000 0.000000
# 2 -0.002920 0.007815 -0.003162 0.000000 0.000000 0.000000
# 3 -0.002912 -0.003162 0.010727 0.000000 0.000000 0.000000
# 4 0.000000 0.000000 0.000000 0.064856 0.000000 0.000000
# 5 0.000000 0.000000 0.000000 0.000000 0.036763 0.000000
# 6 0.000000 0.000000 0.000000 0.000000 0.000000 0.031000
#
#
# Mechanical properties :
#
#
# Convention : Reuss Voigt Hill
#
# Bulk Modulus (GPa) = 73.71783 80.44877 77.08330
# Shear Modulus (GPa) = 26.78369 30.63074 28.70721
#
# Velocity S-wave (km/s) = 3.82317 4.08853 3.95808
# Velocity P-wave (km/s) = 7.72779 8.13581 7.93442
#
# Compressibility (1/GPa) = 0.01356524
#
# Stress axis : x y z
#
# Youngs Moduli (GPa) = 76.86043 127.96504 93.22323
#
# Poissons Ratio (x) = 0.37364 0.27143
# Poissons Ratio (y) = 0.22442 0.29477
# Poissons Ratio (z) = 0.22379 0.40463
#
# Static dielectric constant tensor:
#      x y z
#    x 3.322750 0.000000 0.000000 
#    y 0.000000 3.307860 0.000000 
#    z 0.000000 0.000000 3.500820 
# 
# 
# High freq. dielectric constant tensor:
#      x y z
#    x 1.703830 0.000000 0.000000 
#    y 0.000000 1.704830 0.000000 
#    z 0.000000 0.000000 1.725050 
# 
# From -- ./inp_files/71432.got.cif
#   From: 2010.03.12/outbox.cif.g09.slc.cpg/sg63_36_cif.got.tgz:71432.got - 2010.04.10 19:34:48.
