data_PCOD8260149
_publ_section_title
;
Structure prediction by ZEFSAII (Michael W. Deem and Ramdas Pophale) SiO2 
 PCOD8260149
Probable space group: C M C M
;
_chemical_formula_sum "Si O2"
_cell_formula_units_Z 96
_cell_length_a 24.806200
_cell_length_b 23.523654
_cell_length_c 8.933257
_cell_angle_alpha 90.000000
_cell_angle_beta 90.000000
_cell_angle_gamma 90.000000
_cell_volume 5212.845485
_symmetry_space_group_name_H-M "C M C M"
_symmetry_group_IT_number 63
_symmetry_cell_setting 'orthorhombic'
loop_
_space_group_symop_operation_xyz
x,y,z
-x,-y,1/2+z
x,-y,-z
-x,y,1/2-z
-x,-y,-z
x,y,1/2-z
-x,y,z
x,-y,1/2+z
1/2+x,1/2+y,z
1/2-x,1/2-y,1/2+z
1/2+x,1/2-y,-z
1/2-x,1/2+y,1/2-z
1/2-x,1/2-y,-z
1/2+x,1/2+y,1/2-z
1/2-x,1/2+y,z
1/2+x,1/2-y,1/2+z
loop_
_atom_site_type_symbol
_atom_site_label
_atom_site_fract_x
_atom_site_fract_y
_atom_site_fract_z
Si Si1 0.937486 0.559037 0.923886
Si Si2 0.938086 0.058276 0.074737
Si Si3 0.646479 0.364802 0.076222
Si Si4 0.847087 0.623866 0.072969
Si Si5 0.250627 0.440620 0.074136
Si Si6 0.692575 0.246733 0.424816
O O1 0.922091 0.555752 0.750000
O O2 0.000000 0.572678 0.948161
O O3 0.920942 0.500000 0.000000
O O4 0.905285 0.609121 0.005664
O O5 0.930225 0.051156 0.250000
O O6 0.000000 0.070313 0.031026
O O7 0.903122 0.111005 0.018031
O O8 0.917457 0.000000 0.000000
O O9 0.631653 0.370524 0.250000
O O10 0.701318 0.397565 0.038086
O O11 0.654805 0.299422 0.026759
O O12 0.846322 0.614765 0.250000
O O13 0.836817 0.688973 0.027599
O O14 0.803494 0.582703 0.999331
O O15 0.241227 0.448535 0.250000
O O16 0.266527 0.500000 0.000000
O O17 0.703837 0.249740 0.250000
O O18 0.750000 0.250000 0.500000
#
# Coordination Sequence:
#
# PCOD8260149 Si02
#       6
#    16  16  16  16  16  16
#     4  10  21  38  60  84 112 147 186 230 281 333
#     4  10  21  37  58  84 113 147 186 229 280 334
#     4  10  21  37  57  82 111 145 187 230 276 329
#     4  11  22  36  57  83 112 146 186 228 276 332
#     4  11  22  35  53  79 113 145 180 228 278 333
#     4  10  21  38  58  82 111 148 189 229 276 328
#
# _framework density 18.416045
#
# number of rings (size 3 to 8) (size 9 to 14) (size 15 to 20)
#    0.000    1.667    1.667    3.000    0.000    6.000 
#    0.000    0.833    0.000    5.000    0.000    0.000 
#    0.000    0.000    0.000    0.000    0.000    0.000 
#
# Total GULP energy -595458.979728 kJ/mol
# GULP energy per Si atom -12405.395411 kJ/mol
# Density = 1.837413 g / cm^3
# Si number density = 18.416045 Si / 1000 Ang^3
#
#
#
# Elastic Constant Matrix: (Units=GPa)
#
#
# Indices 1 2 3 4 5 6 
#
# 1 93.7909 57.3229 49.3655 0.0000 0.0000 0.0000
# 2 57.3229 131.1451 54.5705 0.0000 0.0000 0.0000
# 3 49.3655 54.5705 86.9168 0.0000 0.0000 0.0000
# 4 0.0000 0.0000 0.0000 27.6050 0.0000 0.0000
# 5 0.0000 0.0000 0.0000 0.0000 35.4659 0.0000
# 6 0.0000 0.0000 0.0000 0.0000 0.0000 30.1523
#
#
#
# Elastic Compliance Matrix: (Units=1/GPa)
#
#
# Indices 1 2 3 4 5 6 
#
# 1 0.017065 -0.004638 -0.006781 0.000000 0.000000 0.000000
# 2 -0.004638 0.011582 -0.004638 0.000000 0.000000 0.000000
# 3 -0.006781 -0.004638 0.018268 0.000000 0.000000 0.000000
# 4 0.000000 0.000000 0.000000 0.036225 0.000000 0.000000
# 5 0.000000 0.000000 0.000000 0.000000 0.028196 0.000000
# 6 0.000000 0.000000 0.000000 0.000000 0.000000 0.033165
#
#
# Mechanical properties :
#
#
# Convention : Reuss Voigt Hill
#
# Bulk Modulus (GPa) = 67.55214 70.48561 69.01888
# Shear Modulus (GPa) = 27.54078 28.68423 28.11251
#
# Velocity S-wave (km/s) = 3.87134 3.95088 3.91131
# Velocity P-wave (km/s) = 7.53284 7.69219 7.61293
#
# Compressibility (1/GPa) = 0.01480338
#
# Stress axis : x y z
#
# Youngs Moduli (GPa) = 58.59801 86.34052 54.73974
#
# Poissons Ratio (x) = 0.40042 0.37118
# Poissons Ratio (y) = 0.27176 0.25387
# Poissons Ratio (z) = 0.39734 0.40042
#
# Static dielectric constant tensor:
#      x y z
#    x 3.328930 0.000000 0.000000 
#    y 0.000000 3.518270 0.000000 
#    z 0.000000 0.000000 3.507980 
# 
# 
# High freq. dielectric constant tensor:
#      x y z
#    x 1.713370 0.000000 0.000000 
#    y 0.000000 1.717760 0.000000 
#    z 0.000000 0.000000 1.724610 
# 
# From -- ./inp_files/10507.got.cif
#   From: 2010.03.12/outbox.cif.g09.slc.cpg/sg63_6_cif.got.tgz:10507.got - 2010.04.10 19:34:48.
