data_PCOD8260294
_publ_section_title
;
Structure prediction by ZEFSAII (Michael W. Deem and Ramdas Pophale) SiO2 
 PCOD8260294
Probable space group: C M C M
;
_chemical_formula_sum "Si O2"
_cell_formula_units_Z 96
_cell_length_a 15.027933
_cell_length_b 18.824508
_cell_length_c 17.229205
_cell_angle_alpha 90.000000
_cell_angle_beta 90.000000
_cell_angle_gamma 90.000000
_cell_volume 4874.029157
_symmetry_space_group_name_H-M "C M C M"
_symmetry_group_IT_number 63
_symmetry_cell_setting 'orthorhombic'
loop_
_space_group_symop_operation_xyz
x,y,z
-x,-y,1/2+z
x,-y,-z
-x,y,1/2-z
-x,-y,-z
x,y,1/2-z
-x,y,z
x,-y,1/2+z
1/2+x,1/2+y,z
1/2-x,1/2-y,1/2+z
1/2+x,1/2-y,-z
1/2-x,1/2+y,1/2-z
1/2-x,1/2-y,-z
1/2+x,1/2+y,1/2-z
1/2-x,1/2+y,z
1/2+x,1/2-y,1/2+z
loop_
_atom_site_type_symbol
_atom_site_label
_atom_site_fract_x
_atom_site_fract_y
_atom_site_fract_z
Si Si1 0.597402 0.520333 0.842171
Si Si2 0.103185 0.515587 0.912081
Si Si3 0.242462 0.615111 0.841153
Si Si4 0.748630 0.767583 0.589782
Si Si5 0.102845 0.860187 0.839323
Si Si6 0.897015 0.633493 0.159937
O O1 0.593884 0.522544 0.750000
O O2 0.500000 0.542686 0.874875
O O3 0.671263 0.573869 0.874749
O O4 0.620175 0.440356 0.868541
O O5 0.155403 0.584428 0.882652
O O6 0.127784 0.447640 0.859695
O O7 0.000000 0.535252 0.905268
O O8 0.130690 0.500000 0.000000
O O9 0.232292 0.603303 0.750000
O O10 0.254384 0.697315 0.858721
O O11 0.750000 0.750000 0.500000
O O12 0.838855 0.809084 0.607997
O O13 0.661746 0.813830 0.608765
O O14 0.132573 0.851898 0.750000
O O15 0.000000 0.839127 0.849316
O O16 0.876422 0.646674 0.250000
O O17 0.000000 0.648409 0.139717
#
# Coordination Sequence:
#
# PCOD8260294 Si02
#       6
#    16  16  16  16  16  16
#     4   8  16  33  58  85 108 133 172 224 276 324
#     4  10  21  38  60  86 116 148 184 232 290 344
#     4  11  22  35  56  85 114 146 186 233 283 335
#     4  12  25  38  54  80 118 156 189 234 289 339
#     4   9  18  36  61  83 106 143 189 231 275 338
#     4  10  21  39  62  83 107 148 198 238 277 338
#
# _framework density 19.696231000000001
#
# number of rings (size 3 to 8) (size 9 to 14) (size 15 to 20)
#    0.000    2.000    0.000    5.000    0.000    4.333 
#    0.000    1.667    0.000    2.500    0.000    0.000 
#    0.000    0.000    0.000    0.000    0.000    0.000 
#
# Total GULP energy -595358.317131 kJ/mol
# GULP energy per Si atom -12403.298274 kJ/mol
# Density = 1.965140 g / cm^3
# Si number density = 19.696231 Si / 1000 Ang^3
#
#
#
# Elastic Constant Matrix: (Units=GPa)
#
#
# Indices 1 2 3 4 5 6 
#
# 1 99.3807 47.3869 24.8030 0.0000 0.0000 0.0000
# 2 47.3869 82.5569 3.4757 0.0000 0.0000 0.0000
# 3 24.8030 3.4757 51.8387 0.0000 0.0000 0.0000
# 4 0.0000 0.0000 0.0000 19.4991 0.0000 0.0000
# 5 0.0000 0.0000 0.0000 0.0000 27.2148 0.0000
# 6 0.0000 0.0000 0.0000 0.0000 0.0000 24.8280
#
#
#
# Elastic Compliance Matrix: (Units=1/GPa)
#
#
# Indices 1 2 3 4 5 6 
#
# 1 0.016098 -0.008941 -0.007103 0.000000 0.000000 0.000000
# 2 -0.008941 0.017113 0.003131 0.000000 0.000000 0.000000
# 3 -0.007103 0.003131 0.022479 0.000000 0.000000 0.000000
# 4 0.000000 0.000000 0.000000 0.051284 0.000000 0.000000
# 5 0.000000 0.000000 0.000000 0.000000 0.036745 0.000000
# 6 0.000000 0.000000 0.000000 0.000000 0.000000 0.040277
#
#
# Mechanical properties :
#
#
# Convention : Reuss Voigt Hill
#
# Bulk Modulus (GPa) = 33.48552 42.78971 38.13762
# Shear Modulus (GPa) = 22.75011 24.84911 23.79961
#
# Velocity S-wave (km/s) = 3.40229 3.55578 3.47988
# Velocity P-wave (km/s) = 5.69842 6.21531 5.96247
#
# Compressibility (1/GPa) = 0.02986365
#
# Stress axis : x y z
#
# Youngs Moduli (GPa) = 62.11764 58.43415 44.48542
#
# Poissons Ratio (x) = 0.52248 0.31598
# Poissons Ratio (y) = 0.55541 -0.13927
# Poissons Ratio (z) = 0.44123 -0.18294
#
# Static dielectric constant tensor:
#      x y z
#    x 3.835410 0.000000 0.000000 
#    y 0.000000 3.586880 0.000000 
#    z 0.000000 0.000000 3.445210 
# 
# 
# High freq. dielectric constant tensor:
#      x y z
#    x 1.781640 0.000000 0.000000 
#    y 0.000000 1.767460 0.000000 
#    z 0.000000 0.000000 1.755120 
# 
# From -- ./inp_files/31952.got.cif
#   From: 2010.03.12/outbox.cif.g09.slc.cpg/sg63_16_cif.got.tgz:31952.got - 2010.04.10 19:34:48.
