data_PCOD8260159
_publ_section_title
;
Structure prediction by ZEFSAII (Michael W. Deem and Ramdas Pophale) SiO2 
 PCOD8260159
Probable space group: C M C M
;
_chemical_formula_sum "Si O2"
_cell_formula_units_Z 112
_cell_length_a 14.231894
_cell_length_b 24.825441
_cell_length_c 15.091357
_cell_angle_alpha 90.000000
_cell_angle_beta 90.000000
_cell_angle_gamma 90.000000
_cell_volume 5331.973292
_symmetry_space_group_name_H-M "C M C M"
_symmetry_group_IT_number 63
_symmetry_cell_setting 'orthorhombic'
loop_
_space_group_symop_operation_xyz
x,y,z
-x,-y,1/2+z
x,-y,-z
-x,y,1/2-z
-x,-y,-z
x,y,1/2-z
-x,y,z
x,-y,1/2+z
1/2+x,1/2+y,z
1/2-x,1/2-y,1/2+z
1/2+x,1/2-y,-z
1/2-x,1/2+y,1/2-z
1/2-x,1/2-y,-z
1/2+x,1/2+y,1/2-z
1/2-x,1/2+y,z
1/2+x,1/2-y,1/2+z
loop_
_atom_site_type_symbol
_atom_site_label
_atom_site_fract_x
_atom_site_fract_y
_atom_site_fract_z
Si Si1 0.605883 0.875954 0.853210
Si Si2 0.237010 0.208417 0.149388
Si Si3 0.800341 0.485383 0.899192
Si Si4 0.393643 0.652670 0.015130
Si Si5 0.899122 0.965623 0.912296
Si Si6 0.731211 0.334427 0.351992
Si Si7 0.397289 0.908013 0.149538
O O1 0.607085 0.888886 0.750000
O O2 0.500000 0.864655 0.886707
O O3 0.668003 0.823660 0.875747
O O4 0.646541 0.928669 0.900417
O O5 0.204881 0.193679 0.250000
O O6 0.255518 0.271184 0.141617
O O7 0.157796 0.195567 0.077824
O O8 0.694418 0.482056 0.856152
O O9 0.860844 0.530606 0.850899
O O10 0.784458 0.500000 0.000000
O O11 0.500000 0.672134 0.006303
O O12 0.353957 0.648924 0.915336
O O13 0.383577 0.595925 0.062179
O O14 0.000000 0.971876 0.860202
O O15 0.907965 0.000000 0.000000
O O16 0.709664 0.351925 0.250000
O O17 0.822757 0.365863 0.391274
O O18 0.411469 0.890472 0.250000
O O19 0.500000 0.904303 0.101584
#
# Coordination Sequence:
#
# PCOD8260159 Si02
#       7
#    16  16  16  16  16  16  16
#     4  10  21  37  57  83 119 160 198 244 302 361
#     4  10  22  41  62  87 122 160 202 251 304 362
#     4  11  20  34  57  86 121 154 195 246 299 363
#     4  11  22  39  62  89 120 156 204 253 300 359
#     4   9  18  33  55  81 115 159 198 243 301 356
#     4  10  22  41  63  88 122 160 201 253 307 361
#     4  10  22  39  59  85 118 158 200 245 304 369
#
# _framework density 21.005357
#
# number of rings (size 3 to 8) (size 9 to 14) (size 15 to 20)
#    0.000    1.857    1.429    3.000    0.000    4.000 
#    0.000    2.857    0.000    2.571    0.000    4.000 
#    0.000    0.000    0.000    0.000    0.000    0.000 
#
# Total GULP energy -694091.327000 kJ/mol
# GULP energy per Si atom -12394.487982 kJ/mol
# Density = 2.095755 g / cm^3
# Si number density = 21.005357 Si / 1000 Ang^3
#
#
#
# Elastic Constant Matrix: (Units=GPa)
#
#
# Indices 1 2 3 4 5 6 
#
# 1 205.8689 51.8723 45.0827 0.0000 0.0000 0.0000
# 2 51.8723 100.6063 1.3650 0.0000 0.0000 0.0000
# 3 45.0827 1.3650 49.7104 0.0000 0.0000 0.0000
# 4 0.0000 0.0000 0.0000 18.7839 0.0000 0.0000
# 5 0.0000 0.0000 0.0000 0.0000 25.0530 0.0000
# 6 0.0000 0.0000 0.0000 0.0000 0.0000 21.0153
#
#
#
# Elastic Compliance Matrix: (Units=1/GPa)
#
#
# Indices 1 2 3 4 5 6 
#
# 1 0.007169 -0.003609 -0.006402 0.000000 0.000000 0.000000
# 2 -0.003609 0.011761 0.002950 0.000000 0.000000 0.000000
# 3 -0.006402 0.002950 0.025842 0.000000 0.000000 0.000000
# 4 0.000000 0.000000 0.000000 0.053237 0.000000 0.000000
# 5 0.000000 0.000000 0.000000 0.000000 0.039915 0.000000
# 6 0.000000 0.000000 0.000000 0.000000 0.000000 0.047584
#
#
# Mechanical properties :
#
#
# Convention : Reuss Voigt Hill
#
# Bulk Modulus (GPa) = 32.62775 61.42507 47.02641
# Shear Modulus (GPa) = 23.82678 30.16145 26.99412
#
# Velocity S-wave (km/s) = 3.37162 3.79343 3.58873
# Velocity P-wave (km/s) = 5.54291 6.96368 6.29352
#
# Compressibility (1/GPa) = 0.03064876
#
# Stress axis : x y z
#
# Youngs Moduli (GPa) = 139.48974 85.02878 38.69679
#
# Poissons Ratio (x) = 0.30691 0.24776
# Poissons Ratio (y) = 0.50348 -0.11417
# Poissons Ratio (z) = 0.89308 -0.25088
#
# Static dielectric constant tensor:
#      x y z
#    x 4.431470 0.000000 0.000000 
#    y 0.000000 3.588430 0.000000 
#    z 0.000000 0.000000 3.662680 
# 
# 
# High freq. dielectric constant tensor:
#      x y z
#    x 1.837130 0.000000 0.000000 
#    y 0.000000 1.827400 0.000000 
#    z 0.000000 0.000000 1.802320 
# 
# From -- ./inp_files/32280.got.cif
#   From: 2010.03.12/outbox.cif.g09.slc.cpg/sg63_17_cif.got.tgz:32280.got - 2010.04.10 19:34:48.
