data_PCOD8260025
_publ_section_title
;
Structure prediction by ZEFSAII (Michael W. Deem and Ramdas Pophale) SiO2 
 PCOD8260025
Probable space group: C M C M
;
_chemical_formula_sum "Si O2"
_cell_formula_units_Z 96
_cell_length_a 23.594773
_cell_length_b 11.894899
_cell_length_c 16.947333
_cell_angle_alpha 90.000000
_cell_angle_beta 90.000000
_cell_angle_gamma 90.000000
_cell_volume 4756.395124
_symmetry_space_group_name_H-M "C M C M"
_symmetry_group_IT_number 63
_symmetry_cell_setting 'orthorhombic'
loop_
_space_group_symop_operation_xyz
x,y,z
-x,-y,1/2+z
x,-y,-z
-x,y,1/2-z
-x,-y,-z
x,y,1/2-z
-x,y,z
x,-y,1/2+z
1/2+x,1/2+y,z
1/2-x,1/2-y,1/2+z
1/2+x,1/2-y,-z
1/2-x,1/2+y,1/2-z
1/2-x,1/2-y,-z
1/2+x,1/2+y,1/2-z
1/2-x,1/2+y,z
1/2+x,1/2-y,1/2+z
loop_
_atom_site_type_symbol
_atom_site_label
_atom_site_fract_x
_atom_site_fract_y
_atom_site_fract_z
Si Si1 0.133974 0.470722 0.409927
Si Si2 0.275028 0.816281 0.343308
Si Si3 0.064862 0.678127 0.156608
Si Si4 0.345915 0.389083 0.839049
Si Si5 0.563305 0.215961 0.839067
Si Si6 0.649477 0.635321 0.656374
O O1 0.143627 0.500000 0.500000
O O2 0.194653 0.430468 0.374799
O O3 0.104983 0.574284 0.365312
O O4 0.091236 0.366825 0.401857
O O5 0.284859 0.818500 0.250000
O O6 0.303243 0.702053 0.378919
O O7 0.209480 0.809625 0.367450
O O8 0.061006 0.683146 0.250000
O O9 0.097125 0.789927 0.123554
O O10 0.000000 0.670043 0.122400
O O11 0.324423 0.410237 0.750000
O O12 0.408712 0.338272 0.841167
O O13 0.349822 0.510103 0.882003
O O14 0.568074 0.165272 0.750000
O O15 0.500000 0.233882 0.866751
O O16 0.643325 0.627444 0.750000
#
# Coordination Sequence:
#
# PCOD8260025 Si02
#       6
#    16  16  16  16  16  16
#     4  11  22  35  53  80 108 146 182 224 271 319
#     4   9  18  33  56  81 107 139 181 227 269 318
#     4  10  21  36  55  82 114 144 177 221 274 326
#     4   8  15  28  47  77 106 130 170 217 265 317
#     4   9  17  31  53  77 102 136 179 227 270 313
#     4   9  18  31  54  83 109 141 176 219 272 325
#
# _framework density 20.183351999999999
#
# number of rings (size 3 to 8) (size 9 to 14) (size 15 to 20)
#    0.000    2.667    0.000    3.000    2.333    3.333 
#    0.000    4.167    0.000    0.000    0.000    5.833 
#    0.000    0.000    0.000    0.000    0.000    0.000 
#
# Total GULP energy -594735.684803 kJ/mol
# GULP energy per Si atom -12390.326767 kJ/mol
# Density = 2.013741 g / cm^3
# Si number density = 20.183352 Si / 1000 Ang^3
#
#
#
# Elastic Constant Matrix: (Units=GPa)
#
#
# Indices 1 2 3 4 5 6 
#
# 1 116.5642 45.1307 12.6735 0.0000 0.0000 0.0000
# 2 45.1307 130.0995 3.2080 0.0000 0.0000 0.0000
# 3 12.6735 3.2080 16.1856 0.0000 0.0000 0.0000
# 4 0.0000 0.0000 0.0000 2.8206 0.0000 0.0000
# 5 0.0000 0.0000 0.0000 0.0000 9.3136 0.0000
# 6 0.0000 0.0000 0.0000 0.0000 0.0000 26.1084
#
#
#
# Elastic Compliance Matrix: (Units=1/GPa)
#
#
# Indices 1 2 3 4 5 6 
#
# 1 0.010798 -0.003555 -0.007750 0.000000 0.000000 0.000000
# 2 -0.003555 0.008894 0.001020 0.000000 0.000000 0.000000
# 3 -0.007750 0.001020 0.067650 0.000000 0.000000 0.000000
# 4 0.000000 0.000000 0.000000 0.354532 0.000000 0.000000
# 5 0.000000 0.000000 0.000000 0.000000 0.107370 0.000000
# 6 0.000000 0.000000 0.000000 0.000000 0.000000 0.038302
#
#
# Mechanical properties :
#
#
# Convention : Reuss Voigt Hill
#
# Bulk Modulus (GPa) = 14.97616 42.76376 28.86996
# Shear Modulus (GPa) = 7.93181 21.10433 14.51807
#
# Velocity S-wave (km/s) = 1.98454 3.23713 2.68490
# Velocity P-wave (km/s) = 3.56193 5.93343 4.89352
#
# Compressibility (1/GPa) = 0.06677277
#
# Stress axis : x y z
#
# Youngs Moduli (GPa) = 92.61076 112.43113 14.78206
#
# Poissons Ratio (x) = 0.39965 0.11457
# Poissons Ratio (y) = 0.32920 -0.01508
# Poissons Ratio (z) = 0.71777 -0.11473
#
# Static dielectric constant tensor:
#      x y z
#    x 3.904520 0.000000 0.000000 
#    y 0.000000 3.954670 0.000000 
#    z 0.000000 0.000000 3.177210 
# 
# 
# High freq. dielectric constant tensor:
#      x y z
#    x 1.796970 0.000000 0.000000 
#    y 0.000000 1.795390 0.000000 
#    z 0.000000 0.000000 1.727790 
# 
# From -- ./inp_files/47970.got.cif
#   From: 2010.03.12/outbox.cif.g09.slc.cpg/sg63_24_cif.got.tgz:47970.got - 2010.04.10 19:34:48.
