data_PCOD8260984
_publ_section_title
;
Structure prediction by ZEFSAII (Michael W. Deem and Ramdas Pophale) SiO2 
 PCOD8260984
Probable space group: C M C M
;
_chemical_formula_sum "Si O2"
_cell_formula_units_Z 104
_cell_length_a 22.432939
_cell_length_b 30.407588
_cell_length_c 8.903176
_cell_angle_alpha 90.000000
_cell_angle_beta 90.000000
_cell_angle_gamma 90.000000
_cell_volume 6073.137394
_symmetry_space_group_name_H-M "C M C M"
_symmetry_group_IT_number 63
_symmetry_cell_setting 'orthorhombic'
loop_
_space_group_symop_operation_xyz
x,y,z
-x,-y,1/2+z
x,-y,-z
-x,y,1/2-z
-x,-y,-z
x,y,1/2-z
-x,y,z
x,-y,1/2+z
1/2+x,1/2+y,z
1/2-x,1/2-y,1/2+z
1/2+x,1/2-y,-z
1/2-x,1/2+y,1/2-z
1/2-x,1/2-y,-z
1/2+x,1/2+y,1/2-z
1/2-x,1/2+y,z
1/2+x,1/2-y,1/2+z
loop_
_atom_site_type_symbol
_atom_site_label
_atom_site_fract_x
_atom_site_fract_y
_atom_site_fract_z
Si Si1 0.395621 0.601718 0.074954
Si Si2 0.932136 0.377567 0.928540
Si Si3 0.934061 0.282741 0.572055
Si Si4 0.000000 0.047734 0.928000
Si Si5 0.651318 0.954505 0.571637
Si Si6 0.428872 0.312035 0.077167
Si Si7 0.285614 0.455816 0.924152
O O1 0.411631 0.596623 0.250000
O O2 0.329343 0.584452 0.038425
O O3 0.441922 0.574125 0.977721
O O4 0.397151 0.652615 0.028669
O O5 0.932170 0.380457 0.750000
O O6 0.904630 0.329449 0.977870
O O7 0.890137 0.415695 0.994865
O O8 0.000000 0.383569 0.987665
O O9 0.938886 0.281110 0.750000
O O10 0.903874 0.236299 0.523263
O O11 0.000000 0.283611 0.502717
O O12 0.000000 0.043027 0.750000
O O13 0.000000 0.000000 0.000000
O O14 0.645909 0.957949 0.750000
O O15 0.719021 0.944156 0.519501
O O16 0.628932 0.000000 0.500000
O O17 0.411850 0.321532 0.250000
O O18 0.500000 0.314283 0.057128
O O19 0.284333 0.466297 0.750000
O O20 0.310363 0.500000 0.000000
#
# Coordination Sequence:
#
# PCOD8260984 Si02
#       7
#    16  16  16   8  16  16  16
#     4  11  21  32  46  65  89 118 152 189 229 276
#     4   8  13  23  43  71  97 120 149 186 224 262
#     4   7  11  21  39  64  91 116 146 185 220 256
#     4  12  24  36  48  66  92 118 146 186 237 282
#     4   9  17  30  47  67  92 121 153 188 224 264
#     4   9  16  27  44  66  90 115 146 188 232 270
#     4   9  19  33  47  63  84 116 156 190 222 264
#
# _framework density 17.124592
#
# number of rings (size 3 to 8) (size 9 to 14) (size 15 to 20)
#    0.000    2.923    0.769    3.462    0.000    2.769 
#    0.000    0.000    0.000    1.846    0.000    2.154 
#    0.000    0.000    0.000    0.000    0.000    0.154 
#
# Total GULP energy -644246.855616 kJ/mol
# GULP energy per Si atom -12389.362608 kJ/mol
# Density = 1.708562 g / cm^3
# Si number density = 17.124592 Si / 1000 Ang^3
#
#
#
# Elastic Constant Matrix: (Units=GPa)
#
#
# Indices 1 2 3 4 5 6 
#
# 1 67.8707 67.0437 23.5682 0.0000 0.0000 0.0000
# 2 67.0437 182.6533 37.6981 0.0000 0.0000 0.0000
# 3 23.5682 37.6981 42.0556 0.0000 0.0000 0.0000
# 4 0.0000 0.0000 0.0000 23.0270 0.0000 0.0000
# 5 0.0000 0.0000 0.0000 0.0000 8.9916 0.0000
# 6 0.0000 0.0000 0.0000 0.0000 0.0000 20.2146
#
#
#
# Elastic Compliance Matrix: (Units=1/GPa)
#
#
# Indices 1 2 3 4 5 6 
#
# 1 0.024692 -0.007616 -0.007010 0.000000 0.000000 0.000000
# 2 -0.007616 0.009067 -0.003859 0.000000 0.000000 0.000000
# 3 -0.007010 -0.003859 0.031166 0.000000 0.000000 0.000000
# 4 0.000000 0.000000 0.000000 0.043427 0.000000 0.000000
# 5 0.000000 0.000000 0.000000 0.000000 0.111215 0.000000
# 6 0.000000 0.000000 0.000000 0.000000 0.000000 0.049469
#
#
# Mechanical properties :
#
#
# Convention : Reuss Voigt Hill
#
# Bulk Modulus (GPa) = 35.77422 61.02216 48.39819
# Shear Modulus (GPa) = 15.85661 21.39793 18.62727
#
# Velocity S-wave (km/s) = 3.04625 3.53872 3.30168
# Velocity P-wave (km/s) = 5.77138 7.23936 6.54664
#
# Compressibility (1/GPa) = 0.02795309
#
# Stress axis : x y z
#
# Youngs Moduli (GPa) = 40.49930 110.29003 32.08626
#
# Poissons Ratio (x) = 0.84001 0.22493
# Poissons Ratio (y) = 0.30846 0.12383
# Poissons Ratio (z) = 0.28391 0.42564
#
# Static dielectric constant tensor:
#      x y z
#    x 5.955480 0.000000 0.000000 
#    y 0.000000 3.730190 0.000000 
#    z 0.000000 0.000000 2.903890 
# 
# 
# High freq. dielectric constant tensor:
#      x y z
#    x 1.625320 0.000000 0.000000 
#    y 0.000000 1.679490 0.000000 
#    z 0.000000 0.000000 1.630450 
# 
# From -- ./inp_files/11084.got.cif
#   From: 2010.03.12/outbox.cif.g09.slc.cpg/sg63_6_cif.got.tgz:11084.got - 2010.04.10 19:34:48.
