data_PCOD8260098
_publ_section_title
;
Structure prediction by ZEFSAII (Michael W. Deem and Ramdas Pophale) SiO2 
 PCOD8260098
Probable space group: C M C M
;
_chemical_formula_sum "Si O2"
_cell_formula_units_Z 80
_cell_length_a 13.713313
_cell_length_b 18.778987
_cell_length_c 15.439811
_cell_angle_alpha 90.000000
_cell_angle_beta 90.000000
_cell_angle_gamma 90.000000
_cell_volume 3976.092962
_symmetry_space_group_name_H-M "C M C M"
_symmetry_group_IT_number 63
_symmetry_cell_setting 'orthorhombic'
loop_
_space_group_symop_operation_xyz
x,y,z
-x,-y,1/2+z
x,-y,-z
-x,y,1/2-z
-x,-y,-z
x,y,1/2-z
-x,y,z
x,-y,1/2+z
1/2+x,1/2+y,z
1/2-x,1/2-y,1/2+z
1/2+x,1/2-y,-z
1/2-x,1/2+y,1/2-z
1/2-x,1/2-y,-z
1/2+x,1/2+y,1/2-z
1/2-x,1/2+y,z
1/2+x,1/2-y,1/2+z
loop_
_atom_site_type_symbol
_atom_site_label
_atom_site_fract_x
_atom_site_fract_y
_atom_site_fract_z
Si Si1 0.389563 0.590837 0.150645
Si Si2 0.782421 0.225281 0.406003
Si Si3 0.392777 0.859024 0.603042
Si Si4 0.284804 0.997613 0.897603
Si Si5 0.110389 0.361431 0.395760
O O1 0.383866 0.616171 0.250000
O O2 0.500000 0.571302 0.124102
O O3 0.352604 0.655861 0.090051
O O4 0.323518 0.520204 0.137383
O O5 0.750000 0.250000 0.500000
O O6 0.682125 0.200136 0.358759
O O7 0.837977 0.289960 0.358300
O O8 0.500000 0.842559 0.639843
O O9 0.359347 0.936806 0.634767
O O10 0.392461 0.858264 0.499159
O O11 0.325547 0.072272 0.861290
O O12 0.280201 0.000000 0.000000
O O13 0.000000 0.366541 0.359450
#
# Coordination Sequence:
#
# PCOD8260098 Si02
#       5
#    16  16  16  16  16
#     4  10  21  37  55  75 105 145 181 217 270 332
#     4   9  17  30  50  77 105 134 175 219 258 311
#     4   8  14  25  43  68  99 134 167 203 250 301
#     4   9  17  30  49  74 100 131 176 222 260 308
#     4   9  15  25  45  73 101 127 163 215 263 298
#
# _framework density 20.120253999999999
#
# number of rings (size 3 to 8) (size 9 to 14) (size 15 to 20)
#    0.000    3.000    0.000    2.400    0.000    3.600 
#    0.000    2.000    0.000   16.200    0.000    0.000 
#    0.000    0.000    0.000    0.000    0.000    0.000 
#
# Total GULP energy -495637.527291 kJ/mol
# GULP energy per Si atom -12390.938182 kJ/mol
# Density = 2.007446 g / cm^3
# Si number density = 20.120254 Si / 1000 Ang^3
#
#
#
# Elastic Constant Matrix: (Units=GPa)
#
#
# Indices 1 2 3 4 5 6 
#
# 1 224.5263 107.4935 8.9978 0.0000 0.0000 0.0000
# 2 107.4935 160.4902 4.6896 0.0000 0.0000 0.0000
# 3 8.9978 4.6896 24.0472 0.0000 0.0000 0.0000
# 4 0.0000 0.0000 0.0000 2.3653 0.0000 0.0000
# 5 0.0000 0.0000 0.0000 0.0000 8.5948 0.0000
# 6 0.0000 0.0000 0.0000 0.0000 0.0000 33.5722
#
#
#
# Elastic Compliance Matrix: (Units=1/GPa)
#
#
# Indices 1 2 3 4 5 6 
#
# 1 0.006618 -0.004385 -0.001621 0.000000 0.000000 0.000000
# 2 -0.004385 0.009173 -0.000148 0.000000 0.000000 0.000000
# 3 -0.001621 -0.000148 0.042220 0.000000 0.000000 0.000000
# 4 0.000000 0.000000 0.000000 0.422782 0.000000 0.000000
# 5 0.000000 0.000000 0.000000 0.000000 0.116350 0.000000
# 6 0.000000 0.000000 0.000000 0.000000 0.000000 0.029787
#
#
# Mechanical properties :
#
#
# Convention : Reuss Voigt Hill
#
# Bulk Modulus (GPa) = 21.88077 72.38062 47.13069
# Shear Modulus (GPa) = 7.63974 28.09863 17.86919
#
# Velocity S-wave (km/s) = 1.95071 3.74108 2.98337
# Velocity P-wave (km/s) = 3.99654 7.39682 5.94497
#
# Compressibility (1/GPa) = 0.04570222
#
# Stress axis : x y z
#
# Youngs Moduli (GPa) = 151.09452 109.02089 23.68524
#
# Poissons Ratio (x) = 0.47811 0.03840
# Poissons Ratio (y) = 0.66262 0.00350
# Poissons Ratio (z) = 0.24495 0.01612
#
# Static dielectric constant tensor:
#      x y z
#    x 4.123380 0.000000 0.000000 
#    y 0.000000 3.951030 0.000000 
#    z 0.000000 0.000000 3.074430 
# 
# 
# High freq. dielectric constant tensor:
#      x y z
#    x 1.799160 0.000000 0.000000 
#    y 0.000000 1.781300 0.000000 
#    z 0.000000 0.000000 1.735120 
# 
# From -- ./inp_files/43990.got.cif
#   From: 2010.03.12/outbox.cif.g09.slc.cpg/sg63_22_cif.got.tgz:43990.got - 2010.04.10 19:34:48.
