data_PCOD8260596
_publ_section_title
;
Structure prediction by ZEFSAII (Michael W. Deem and Ramdas Pophale) SiO2 
 PCOD8260596
Probable space group: C M C M
;
_chemical_formula_sum "Si O2"
_cell_formula_units_Z 80
_cell_length_a 28.347117
_cell_length_b 16.832404
_cell_length_c 10.224288
_cell_angle_alpha 90.000000
_cell_angle_beta 90.000000
_cell_angle_gamma 90.000000
_cell_volume 4878.520303
_symmetry_space_group_name_H-M "C M C M"
_symmetry_group_IT_number 63
_symmetry_cell_setting 'orthorhombic'
loop_
_space_group_symop_operation_xyz
x,y,z
-x,-y,1/2+z
x,-y,-z
-x,y,1/2-z
-x,-y,-z
x,y,1/2-z
-x,y,z
x,-y,1/2+z
1/2+x,1/2+y,z
1/2-x,1/2-y,1/2+z
1/2+x,1/2-y,-z
1/2-x,1/2+y,1/2-z
1/2-x,1/2-y,-z
1/2+x,1/2+y,1/2-z
1/2-x,1/2+y,z
1/2+x,1/2-y,1/2+z
loop_
_atom_site_type_symbol
_atom_site_label
_atom_site_fract_x
_atom_site_fract_y
_atom_site_fract_z
Si Si1 0.861294 0.832913 0.987916
Si Si2 0.280792 0.909509 0.250000
Si Si3 0.668240 0.414375 0.250000
Si Si4 0.681942 0.414621 0.750000
Si Si5 0.796451 0.306792 0.999960
Si Si6 0.553921 0.427991 0.597418
Si Si7 0.788425 0.585059 0.250000
O O1 0.825412 0.866086 0.881017
O O2 0.846025 0.741433 0.001249
O O3 0.914513 0.850305 0.937802
O O4 0.854129 0.874507 0.124945
O O5 0.224283 0.908479 0.250000
O O6 0.297764 0.862339 0.124342
O O7 0.308708 0.994730 0.250000
O O8 0.650456 0.505663 0.250000
O O9 0.734892 0.441354 0.750000
O O10 0.750000 0.250000 0.000000
O O11 0.800475 0.363158 0.875287
O O12 0.568240 0.500000 0.500000
O O13 0.561549 0.451764 0.750000
O O14 0.500000 0.403234 0.571961
#
# Coordination Sequence:
#
# PCOD8260596 Si02
#       7
#    16   8   8   8  16  16   8
#     4  12  22  32  51  74 102 137 175 220 262 299
#     4  11  22  36  52  70 103 148 180 215 256 308
#     4  11  21  31  46  74 103 139 179 213 250 306
#     4  11  19  31  48  70 101 135 181 213 246 308
#     4  12  21  35  50  75 106 135 177 224 262 302
#     4  10  22  39  56  77 106 139 176 216 260 313
#     4  11  22  36  50  70 103 144 180 211 258 310
#
# _framework density 16.398416000000001
#
# number of rings (size 3 to 8) (size 9 to 14) (size 15 to 20)
#    0.000    0.800    5.000    4.200    1.400    3.200 
#    0.000    0.000    0.000    0.000    0.000    0.000 
#    0.000    4.800    0.000    0.000    0.000    0.000 
#
# Total GULP energy -495708.700798 kJ/mol
# GULP energy per Si atom -12392.717520 kJ/mol
# Density = 1.636109 g / cm^3
# Si number density = 16.398416 Si / 1000 Ang^3
#
#
#
# Elastic Constant Matrix: (Units=GPa)
#
#
# Indices 1 2 3 4 5 6 
#
# 1 71.1371 36.3368 19.8596 0.0000 0.0000 0.0000
# 2 36.3368 123.7010 61.9436 0.0000 0.0000 0.0000
# 3 19.8596 61.9436 151.3748 0.0000 0.0000 0.0000
# 4 0.0000 0.0000 0.0000 34.7972 0.0000 0.0000
# 5 0.0000 0.0000 0.0000 0.0000 -41.3204 0.0000
# 6 0.0000 0.0000 0.0000 0.0000 0.0000 25.1731
#
#
#
# Elastic Compliance Matrix: (Units=1/GPa)
#
#
# Indices 1 2 3 4 5 6 
#
# 1 0.016545 -0.004746 -0.000229 0.000000 0.000000 0.000000
# 2 -0.004746 0.011529 -0.004095 0.000000 0.000000 0.000000
# 3 -0.000229 -0.004095 0.008312 0.000000 0.000000 0.000000
# 4 0.000000 0.000000 0.000000 0.028738 0.000000 0.000000
# 5 0.000000 0.000000 0.000000 0.000000 -0.024201 0.000000
# 6 0.000000 0.000000 0.000000 0.000000 0.000000 0.039725
#
#
# Mechanical properties :
#
#
# Convention : Reuss Voigt Hill
#
# Bulk Modulus (GPa) = 54.80330 64.72144 59.76237
# Shear Modulus (GPa) = 47.67882 18.93483 33.30683
#
# Velocity S-wave (km/s) = 5.39800 3.40174 4.51166
# Velocity P-wave (km/s) = 8.50550 7.41504 7.97892
#
# Compressibility (1/GPa) = 0.01824708
#
# Stress axis : x y z
#
# Youngs Moduli (GPa) = 60.44029 86.74096 120.31062
#
# Poissons Ratio (x) = 0.41164 0.02752
# Poissons Ratio (y) = 0.28682 0.49267
# Poissons Ratio (z) = 0.01382 0.35520
#
# Static dielectric constant tensor:
#      x y z
#    x 2.980190 0.000000 0.000000 
#    y 0.000000 3.217460 0.000000 
#    z 0.000000 0.000000 3.456840 
# 
# 
# High freq. dielectric constant tensor:
#      x y z
#    x 1.594100 0.000000 0.000000 
#    y 0.000000 1.621820 0.000000 
#    z 0.000000 0.000000 1.660840 
# 
# From -- ./inp_files/14115.got.cif
#   From: 2010.03.12/outbox.cif.g09.slc.cpg/sg63_8_cif.got.tgz:14115.got - 2010.04.10 19:34:48.
