data_PCOD8260990
_publ_section_title
;
Structure prediction by ZEFSAII (Michael W. Deem and Ramdas Pophale) SiO2 
 PCOD8260990
Probable space group: C M C M
;
_chemical_formula_sum "Si O2"
_cell_formula_units_Z 80
_cell_length_a 18.813561
_cell_length_b 13.391410
_cell_length_c 17.217564
_cell_angle_alpha 90.000000
_cell_angle_beta 90.000000
_cell_angle_gamma 90.000000
_cell_volume 4337.794949
_symmetry_space_group_name_H-M "C M C M"
_symmetry_group_IT_number 63
_symmetry_cell_setting 'orthorhombic'
loop_
_space_group_symop_operation_xyz
x,y,z
-x,-y,1/2+z
x,-y,-z
-x,y,1/2-z
-x,-y,-z
x,y,1/2-z
-x,y,z
x,-y,1/2+z
1/2+x,1/2+y,z
1/2-x,1/2-y,1/2+z
1/2+x,1/2-y,-z
1/2-x,1/2+y,1/2-z
1/2-x,1/2-y,-z
1/2+x,1/2+y,1/2-z
1/2-x,1/2+y,z
1/2+x,1/2-y,1/2+z
loop_
_atom_site_type_symbol
_atom_site_label
_atom_site_fract_x
_atom_site_fract_y
_atom_site_fract_z
Si Si1 0.500000 0.516585 0.342144
Si Si2 0.214978 0.462932 0.660222
Si Si3 0.855020 0.083479 0.659961
Si Si4 0.000000 0.242014 0.156824
Si Si5 0.273037 0.757419 0.911652
Si Si6 0.357975 0.839550 0.158991
O O1 0.500000 0.522366 0.250000
O O2 0.429945 0.458599 0.371225
O O3 0.500000 0.629062 0.375654
O O4 0.199004 0.437776 0.750000
O O5 0.296496 0.497024 0.649950
O O6 0.198538 0.367747 0.607097
O O7 0.163045 0.550457 0.628204
O O8 0.859276 0.116768 0.750000
O O9 0.835476 0.179177 0.607820
O O10 0.931544 0.300168 0.122604
O O11 0.000000 0.241022 0.250000
O O12 0.204548 0.738229 0.858398
O O13 0.250000 0.750000 0.000000
O O14 0.366455 0.845622 0.250000
#
# Coordination Sequence:
#
# PCOD8260990 Si02
#       6
#     8  16  16   8  16  16
#     4   9  16  28  50  76 101 128 159 208 264 301
#     4   9  17  32  53  72  94 127 166 210 252 290
#     4   9  18  32  51  75  99 127 168 211 251 298
#     4   9  16  30  54  81 103 125 163 212 258 302
#     4  11  21  32  49  72 103 138 170 203 246 299
#     4   9  18  32  52  76  98 125 168 214 252 297
#
# _framework density 18.442550000000001
#
# number of rings (size 3 to 8) (size 9 to 14) (size 15 to 20)
#    0.000    2.600    0.000    4.200    0.000    6.400 
#    0.000    2.000    0.000    7.200    0.000    0.000 
#    0.000    0.000    0.000    0.000    0.000    0.000 
#
# Total GULP energy -495956.514131 kJ/mol
# GULP energy per Si atom -12398.912853 kJ/mol
# Density = 1.840057 g / cm^3
# Si number density = 18.442550 Si / 1000 Ang^3
#
#
#
# Elastic Constant Matrix: (Units=GPa)
#
#
# Indices 1 2 3 4 5 6 
#
# 1 146.1222 78.6192 16.7374 0.0000 0.0000 0.0000
# 2 78.6192 156.7428 44.2902 0.0000 0.0000 0.0000
# 3 16.7374 44.2902 38.8972 0.0000 0.0000 0.0000
# 4 0.0000 0.0000 0.0000 9.7505 0.0000 0.0000
# 5 0.0000 0.0000 0.0000 0.0000 11.6742 0.0000
# 6 0.0000 0.0000 0.0000 0.0000 0.0000 25.5839
#
#
#
# Elastic Compliance Matrix: (Units=1/GPa)
#
#
# Indices 1 2 3 4 5 6 
#
# 1 0.009474 -0.005308 0.001967 0.000000 0.000000 0.000000
# 2 -0.005308 0.012380 -0.011812 0.000000 0.000000 0.000000
# 3 0.001967 -0.011812 0.038313 0.000000 0.000000 0.000000
# 4 0.000000 0.000000 0.000000 0.102559 0.000000 0.000000
# 5 0.000000 0.000000 0.000000 0.000000 0.085659 0.000000
# 6 0.000000 0.000000 0.000000 0.000000 0.000000 0.039087
#
#
# Mechanical properties :
#
#
# Convention : Reuss Voigt Hill
#
# Bulk Modulus (GPa) = 33.48945 69.00619 51.24782
# Shear Modulus (GPa) = 15.25636 22.87606 19.06621
#
# Velocity S-wave (km/s) = 2.87929 3.52575 3.21879
# Velocity P-wave (km/s) = 5.40851 7.35341 6.45463
#
# Compressibility (1/GPa) = 0.02986015
#
# Stress axis : x y z
#
# Youngs Moduli (GPa) = 105.55093 80.77545 26.10112
#
# Poissons Ratio (x) = 0.42874 -0.05134
# Poissons Ratio (y) = 0.56025 0.30832
# Poissons Ratio (z) = -0.20763 0.95416
#
# Static dielectric constant tensor:
#      x y z
#    x 3.492960 0.000000 0.000000 
#    y 0.000000 3.318700 0.000000 
#    z 0.000000 0.000000 2.995530 
# 
# 
# High freq. dielectric constant tensor:
#      x y z
#    x 1.707040 0.000000 0.000000 
#    y 0.000000 1.722370 0.000000 
#    z 0.000000 0.000000 1.677110 
# 
# From -- ./inp_files/46827.got.cif
#   From: 2010.03.12/outbox.cif.g09.slc.cpg/sg63_24_cif.got.tgz:46827.got - 2010.04.10 19:34:48.
