data_PCOD8260089
_publ_section_title
;
Structure prediction by ZEFSAII (Michael W. Deem and Ramdas Pophale) SiO2 
 PCOD8260089
Probable space group: C M C M
;
_chemical_formula_sum "Si O2"
_cell_formula_units_Z 96
_cell_length_a 20.253535
_cell_length_b 29.788257
_cell_length_c 9.238913
_cell_angle_alpha 90.000000
_cell_angle_beta 90.000000
_cell_angle_gamma 90.000000
_cell_volume 5573.997947
_symmetry_space_group_name_H-M "C M C M"
_symmetry_group_IT_number 63
_symmetry_cell_setting 'orthorhombic'
loop_
_space_group_symop_operation_xyz
x,y,z
-x,-y,1/2+z
x,-y,-z
-x,y,1/2-z
-x,-y,-z
x,y,1/2-z
-x,y,z
x,-y,1/2+z
1/2+x,1/2+y,z
1/2-x,1/2-y,1/2+z
1/2+x,1/2-y,-z
1/2-x,1/2+y,1/2-z
1/2-x,1/2-y,-z
1/2+x,1/2+y,1/2-z
1/2-x,1/2+y,z
1/2+x,1/2-y,1/2+z
loop_
_atom_site_type_symbol
_atom_site_label
_atom_site_fract_x
_atom_site_fract_y
_atom_site_fract_z
Si Si1 0.689288 0.727125 0.080581
Si Si2 0.274080 0.542795 0.586595
Si Si3 0.881408 0.628697 0.416264
Si Si4 0.228782 0.128546 0.415346
Si Si5 0.574977 0.773985 0.584184
Si Si6 0.883378 0.457275 0.086552
O O1 0.696000 0.738005 0.250000
O O2 0.688853 0.673854 0.052042
O O3 0.750000 0.750000 0.000000
O O4 0.620109 0.745087 0.021602
O O5 0.302448 0.500000 0.500000
O O6 0.300652 0.540554 0.750000
O O7 0.300158 0.588710 0.514224
O O8 0.195384 0.542203 0.581395
O O9 0.891495 0.614677 0.250000
O O10 0.805022 0.638376 0.450884
O O11 0.921154 0.673484 0.456054
O O12 0.909752 0.588249 0.513027
O O13 0.220703 0.112991 0.250000
O O14 0.598780 0.767302 0.750000
O O15 0.500000 0.757682 0.563315
O O16 0.909869 0.459419 0.250000
O O17 0.911729 0.500000 0.000000
#
# Coordination Sequence:
#
# PCOD8260089 Si02
#       6
#    16  16  16  16  16  16
#     4  11  21  34  53  76 103 133 170 213 257 302
#     4   9  16  25  39  62  93 127 158 193 239 292
#     4   9  16  29  46  65  91 124 160 201 248 296
#     4   9  17  29  45  67  95 127 162 203 246 292
#     4  10  21  37  54  73 100 134 170 209 257 308
#     4   9  16  25  39  62  88 118 155 198 246 293
#
# _framework density 17.222826999999999
#
# number of rings (size 3 to 8) (size 9 to 14) (size 15 to 20)
#    0.000    2.500    1.667    1.500    0.000    6.333 
#    0.000    0.000    0.000    0.500    0.000    0.000 
#    0.000    0.667    0.000    2.167    0.000    3.167 
#
# Total GULP energy -595233.480028 kJ/mol
# GULP energy per Si atom -12400.697501 kJ/mol
# Density = 1.718363 g / cm^3
# Si number density = 17.222827 Si / 1000 Ang^3
#
#
#
# Elastic Constant Matrix: (Units=GPa)
#
#
# Indices 1 2 3 4 5 6 
#
# 1 45.7453 35.4332 33.6099 0.0000 0.0000 0.0000
# 2 35.4332 115.6416 78.6391 0.0000 0.0000 0.0000
# 3 33.6099 78.6391 128.8023 0.0000 0.0000 0.0000
# 4 0.0000 0.0000 0.0000 38.4558 0.0000 0.0000
# 5 0.0000 0.0000 0.0000 0.0000 14.8254 0.0000
# 6 0.0000 0.0000 0.0000 0.0000 0.0000 11.2674
#
#
#
# Elastic Compliance Matrix: (Units=1/GPa)
#
#
# Indices 1 2 3 4 5 6 
#
# 1 0.029685 -0.006546 -0.003750 0.000000 0.000000 0.000000
# 2 -0.006546 0.016230 -0.008201 0.000000 0.000000 0.000000
# 3 -0.003750 -0.008201 0.013749 0.000000 0.000000 0.000000
# 4 0.000000 0.000000 0.000000 0.026004 0.000000 0.000000
# 5 0.000000 0.000000 0.000000 0.000000 0.067452 0.000000
# 6 0.000000 0.000000 0.000000 0.000000 0.000000 0.088752
#
#
# Mechanical properties :
#
#
# Convention : Reuss Voigt Hill
#
# Bulk Modulus (GPa) = 44.10794 65.06154 54.58474
# Shear Modulus (GPa) = 17.45674 22.41018 19.93346
#
# Velocity S-wave (km/s) = 3.18713 3.61112 3.40573
# Velocity P-wave (km/s) = 6.26175 7.43271 6.87222
#
# Compressibility (1/GPa) = 0.02267166
#
# Stress axis : x y z
#
# Youngs Moduli (GPa) = 33.68658 61.61437 72.73102
#
# Poissons Ratio (x) = 0.40333 0.27271
# Poissons Ratio (y) = 0.22051 0.59646
# Poissons Ratio (z) = 0.12631 0.50530
#
# Static dielectric constant tensor:
#      x y z
#    x 2.693750 0.000000 0.000000 
#    y 0.000000 3.336950 0.000000 
#    z 0.000000 0.000000 3.341710 
# 
# 
# High freq. dielectric constant tensor:
#      x y z
#    x 1.602340 0.000000 0.000000 
#    y 0.000000 1.673280 0.000000 
#    z 0.000000 0.000000 1.673720 
# 
# From -- ./inp_files/8610.got.cif
#   From: 2010.03.12/outbox.cif.g09.slc.cpg/sg63_5_cif.got.tgz:8610.got - 2010.04.10 19:34:48.
