data_PCOD8260950
_publ_section_title
;
Structure prediction by ZEFSAII (Michael W. Deem and Ramdas Pophale) SiO2 
 PCOD8260950
Probable space group: C M C M
;
_chemical_formula_sum "Si O2"
_cell_formula_units_Z 48
_cell_length_a 12.636456
_cell_length_b 8.580780
_cell_length_c 20.559848
_cell_angle_alpha 90.000000
_cell_angle_beta 90.000000
_cell_angle_gamma 90.000000
_cell_volume 2229.317660
_symmetry_space_group_name_H-M "C M C M"
_symmetry_group_IT_number 63
_symmetry_cell_setting 'orthorhombic'
loop_
_space_group_symop_operation_xyz
x,y,z
-x,-y,1/2+z
x,-y,-z
-x,y,1/2-z
-x,-y,-z
x,y,1/2-z
-x,y,z
x,-y,1/2+z
1/2+x,1/2+y,z
1/2-x,1/2-y,1/2+z
1/2+x,1/2-y,-z
1/2-x,1/2+y,1/2-z
1/2-x,1/2-y,-z
1/2+x,1/2+y,1/2-z
1/2-x,1/2+y,z
1/2+x,1/2-y,1/2+z
loop_
_atom_site_type_symbol
_atom_site_label
_atom_site_fract_x
_atom_site_fract_y
_atom_site_fract_z
Si Si1 0.000000 0.570948 0.396927
Si Si2 0.882413 0.124237 0.373252
Si Si3 0.000000 0.741645 0.978757
Si Si4 0.306753 0.049959 0.825132
O O1 0.000000 0.425490 0.444774
O O2 0.000000 0.726902 0.442952
O O3 0.103841 0.567904 0.352234
O O4 0.837864 0.271328 0.333490
O O5 0.000000 0.083646 0.345301
O O6 0.895819 0.167121 0.450673
O O7 0.802898 0.981023 0.363658
O O8 0.289985 0.010643 0.750000
#
# Coordination Sequence:
#
# PCOD8260950 Si02
#       4
#     8  16   8  16
#     4   9  17  32  57  82 106 142 189 218 269 332
#     4   9  21  39  57  81 110 144 184 225 272 319
#     4   7  16  36  55  78 105 145 183 224 271 311
#     4  11  20  34  58  82 112 148 177 224 278 323
#
# _framework density 21.531253
#
# number of rings (size 3 to 8) (size 9 to 14) (size 15 to 20)
#    1.000    1.667    1.667    1.500    0.000    3.333 
#    3.000    0.000    0.000    2.000    0.000    0.000 
#    0.000    0.000    0.000    0.000    0.000    0.000 
#
# Total GULP energy -297330.529987 kJ/mol
# GULP energy per Si atom -12388.772083 kJ/mol
# Density = 2.148225 g / cm^3
# Si number density = 21.531253 Si / 1000 Ang^3
#
#
#
# Elastic Constant Matrix: (Units=GPa)
#
#
# Indices 1 2 3 4 5 6 
#
# 1 148.7195 26.6658 -4.5550 0.0000 0.0000 0.0000
# 2 26.6658 9.6160 -2.2533 0.0000 0.0000 0.0000
# 3 -4.5550 -2.2533 31.7550 0.0000 0.0000 0.0000
# 4 0.0000 0.0000 0.0000 18.5515 0.0000 0.0000
# 5 0.0000 0.0000 0.0000 0.0000 24.6355 0.0000
# 6 0.0000 0.0000 0.0000 0.0000 0.0000 26.3686
#
#
#
# Elastic Compliance Matrix: (Units=1/GPa)
#
#
# Indices 1 2 3 4 5 6 
#
# 1 0.013390 -0.037302 -0.000726 0.000000 0.000000 0.000000
# 2 -0.037302 0.209665 0.009527 0.000000 0.000000 0.000000
# 3 -0.000726 0.009527 0.032063 0.000000 0.000000 0.000000
# 4 0.000000 0.000000 0.000000 0.053904 0.000000 0.000000
# 5 0.000000 0.000000 0.000000 0.000000 0.040592 0.000000
# 6 0.000000 0.000000 0.000000 0.000000 0.000000 0.037924
#
#
# Mechanical properties :
#
#
# Convention : Reuss Voigt Hill
#
# Bulk Modulus (GPa) = 5.04754 25.53396 15.29075
# Shear Modulus (GPa) = 9.79281 25.25998 17.52639
#
# Velocity S-wave (km/s) = 2.13496 3.42888 2.85616
# Velocity P-wave (km/s) = 2.90289 5.24987 4.24193
#
# Compressibility (1/GPa) = 0.19811644
#
# Stress axis : x y z
#
# Youngs Moduli (GPa) = 74.68186 4.76951 31.18860
#
# Poissons Ratio (x) = 0.17791 0.02265
# Poissons Ratio (y) = 2.78576 -0.29713
# Poissons Ratio (z) = 0.05423 -0.04544
#
# Static dielectric constant tensor:
#      x y z
#    x 3.910370 0.000000 0.000000 
#    y 0.000000 3.600670 0.000000 
#    z 0.000000 0.000000 3.853470 
# 
# 
# High freq. dielectric constant tensor:
#      x y z
#    x 1.842400 0.000000 0.000000 
#    y 0.000000 1.821660 0.000000 
#    z 0.000000 0.000000 1.831760 
# 
# From -- ./inp_files/53567.got.cif
#   From: 2010.03.12/outbox.cif.g09.slc.cpg/sg63_27_cif.got.tgz:53567.got - 2010.04.10 19:34:48.
