data_PCOD8260611
_publ_section_title
;
Structure prediction by ZEFSAII (Michael W. Deem and Ramdas Pophale) SiO2 
 PCOD8260611
Probable space group: C M C M
;
_chemical_formula_sum "Si O2"
_cell_formula_units_Z 80
_cell_length_a 9.022972
_cell_length_b 15.475639
_cell_length_c 29.524996
_cell_angle_alpha 90.000000
_cell_angle_beta 90.000000
_cell_angle_gamma 90.000000
_cell_volume 4122.759941
_symmetry_space_group_name_H-M "C M C M"
_symmetry_group_IT_number 63
_symmetry_cell_setting 'orthorhombic'
loop_
_space_group_symop_operation_xyz
x,y,z
-x,-y,1/2+z
x,-y,-z
-x,y,1/2-z
-x,-y,-z
x,y,1/2-z
-x,y,z
x,-y,1/2+z
1/2+x,1/2+y,z
1/2-x,1/2-y,1/2+z
1/2+x,1/2-y,-z
1/2-x,1/2+y,1/2-z
1/2-x,1/2-y,-z
1/2+x,1/2+y,1/2-z
1/2-x,1/2+y,z
1/2+x,1/2-y,1/2+z
loop_
_atom_site_type_symbol
_atom_site_label
_atom_site_fract_x
_atom_site_fract_y
_atom_site_fract_z
Si Si1 0.824856 0.614104 0.699080
Si Si2 0.325473 0.268400 0.864416
Si Si3 0.172293 0.278901 0.545486
Si Si4 0.666246 0.552484 0.454964
Si Si5 0.167156 0.967711 0.644311
O O1 0.761253 0.616675 0.750000
O O2 0.773115 0.702656 0.674743
O O3 0.769413 0.527866 0.674590
O O4 0.000000 0.608915 0.699284
O O5 0.500000 0.263147 0.873381
O O6 0.244230 0.235533 0.910061
O O7 0.281011 0.367099 0.851759
O O8 0.250000 0.250000 0.500000
O O9 0.200961 0.380381 0.548631
O O10 0.000000 0.256053 0.543877
O O11 0.697248 0.500000 0.500000
O O12 0.500000 0.594563 0.457581
O O13 0.675590 0.498735 0.408058
O O14 0.000000 0.975864 0.662620
#
# Coordination Sequence:
#
# PCOD8260611 Si02
#       5
#    16  16  16  16  16
#     4  10  22  39  60  86 115 149 192 242 294 345
#     4   9  20  40  60  81 113 154 195 237 289 347
#     4  11  22  35  54  82 115 151 192 234 284 341
#     4   9  19  36  56  81 114 150 188 233 285 341
#     4   9  19  36  58  84 115 149 188 236 289 344
#
# _framework density 19.404477
#
# number of rings (size 3 to 8) (size 9 to 14) (size 15 to 20)
#    0.000    2.400    0.000    3.000    2.800    5.600 
#    0.000    2.000    0.000    0.000    0.000    0.000 
#    0.000    0.000    0.000    0.000    0.000    0.000 
#
# Total GULP energy -495717.673209 kJ/mol
# GULP energy per Si atom -12392.941830 kJ/mol
# Density = 1.936031 g / cm^3
# Si number density = 19.404477 Si / 1000 Ang^3
#
#
#
# Elastic Constant Matrix: (Units=GPa)
#
#
# Indices 1 2 3 4 5 6 
#
# 1 61.5044 29.6107 48.2327 0.0000 0.0000 0.0000
# 2 29.6107 92.6513 74.7584 0.0000 0.0000 0.0000
# 3 48.2327 74.7584 175.4235 0.0000 0.0000 0.0000
# 4 0.0000 0.0000 0.0000 33.2859 0.0000 0.0000
# 5 0.0000 0.0000 0.0000 0.0000 28.3741 0.0000
# 6 0.0000 0.0000 0.0000 0.0000 0.0000 31.1398
#
#
#
# Elastic Compliance Matrix: (Units=1/GPa)
#
#
# Indices 1 2 3 4 5 6 
#
# 1 0.021325 -0.003177 -0.004510 0.000000 0.000000 0.000000
# 2 -0.003177 0.016923 -0.006338 0.000000 0.000000 0.000000
# 3 -0.004510 -0.006338 0.009642 0.000000 0.000000 0.000000
# 4 0.000000 0.000000 0.000000 0.030043 0.000000 0.000000
# 5 0.000000 0.000000 0.000000 0.000000 0.035243 0.000000
# 6 0.000000 0.000000 0.000000 0.000000 0.000000 0.032113
#
#
# Mechanical properties :
#
#
# Convention : Reuss Voigt Hill
#
# Bulk Modulus (GPa) = 50.40317 70.53143 60.46730
# Shear Modulus (GPa) = 27.78541 30.35846 29.07194
#
# Velocity S-wave (km/s) = 3.78816 3.95968 3.87487
# Velocity P-wave (km/s) = 6.72049 7.57181 7.15882
#
# Compressibility (1/GPa) = 0.01984002
#
# Stress axis : x y z
#
# Youngs Moduli (GPa) = 46.89384 59.09235 103.71804
#
# Poissons Ratio (x) = 0.18771 0.46772
# Poissons Ratio (y) = 0.14896 0.65740
# Poissons Ratio (z) = 0.21147 0.37455
#
# Static dielectric constant tensor:
#      x y z
#    x 37.838840 0.000000 0.000000 
#    y 0.000000 3.627230 0.000000 
#    z 0.000000 0.000000 4.323530 
# 
# 
# High freq. dielectric constant tensor:
#      x y z
#    x 1.742350 0.000000 0.000000 
#    y 0.000000 1.743290 0.000000 
#    z 0.000000 0.000000 1.766540 
# 
# From -- ./inp_files/66617.got.cif
#   From: 2010.03.12/outbox.cif.g09.slc.cpg/sg63_34_cif.got.tgz:66617.got - 2010.04.10 19:34:48.
