data_PCOD8260727
_publ_section_title
;
Structure prediction by ZEFSAII (Michael W. Deem and Ramdas Pophale) SiO2 
 PCOD8260727
Probable space group: C M C M
;
_chemical_formula_sum "Si O2"
_cell_formula_units_Z 80
_cell_length_a 17.023127
_cell_length_b 26.221161
_cell_length_c 9.159732
_cell_angle_alpha 90.000000
_cell_angle_beta 90.000000
_cell_angle_gamma 90.000000
_cell_volume 4088.594343
_symmetry_space_group_name_H-M "C M C M"
_symmetry_group_IT_number 63
_symmetry_cell_setting 'orthorhombic'
loop_
_space_group_symop_operation_xyz
x,y,z
-x,-y,1/2+z
x,-y,-z
-x,y,1/2-z
-x,-y,-z
x,y,1/2-z
-x,y,z
x,-y,1/2+z
1/2+x,1/2+y,z
1/2-x,1/2-y,1/2+z
1/2+x,1/2-y,-z
1/2-x,1/2+y,1/2-z
1/2-x,1/2-y,-z
1/2+x,1/2+y,1/2-z
1/2-x,1/2+y,z
1/2+x,1/2-y,1/2+z
loop_
_atom_site_type_symbol
_atom_site_label
_atom_site_fract_x
_atom_site_fract_y
_atom_site_fract_z
Si Si1 0.592240 0.461648 0.750000
Si Si2 0.722496 0.799670 0.582823
Si Si3 0.650823 0.947652 0.573360
Si Si4 0.406358 0.580879 0.750000
Si Si5 0.412013 0.144529 0.918318
Si Si6 0.313710 0.600938 0.476588
O O1 0.500000 0.456101 0.750000
O O2 0.615585 0.521043 0.750000
O O3 0.625474 0.432507 0.887113
O O4 0.700671 0.786964 0.750000
O O5 0.750000 0.750000 0.500000
O O6 0.645382 0.815762 0.494860
O O7 0.789400 0.843717 0.585521
O O8 0.652057 0.949491 0.750000
O O9 0.588361 0.907090 0.513666
O O10 0.735335 0.932541 0.507965
O O11 0.624689 0.000000 0.500000
O O12 0.500000 0.590095 0.750000
O O13 0.362590 0.610144 0.621352
O O14 0.385769 0.134703 0.750000
O O15 0.500000 0.166874 0.922376
#
# Coordination Sequence:
#
# PCOD8260727 Si02
#       6
#     8  16  16   8  16  16
#     4  11  20  38  59  84 127 171 208 253 308 366
#     4  11  24  43  70  94 119 160 209 261 318 371
#     4  11  22  35  58  89 121 164 209 251 302 362
#     4  11  24  36  57  90 127 173 212 249 308 372
#     4  10  22  41  64  92 125 159 198 247 307 370
#     4  11  22  38  59  89 122 160 208 258 304 369
#
# _framework density 19.566628000000001
#
# number of rings (size 3 to 8) (size 9 to 14) (size 15 to 20)
#    0.000    1.200    2.000    5.400    8.400    3.600 
#    0.000    2.000    0.000    0.000    0.000    0.000 
#    0.000    0.000    0.000    0.000    0.000    0.000 
#
# Total GULP energy -495802.117925 kJ/mol
# GULP energy per Si atom -12395.052948 kJ/mol
# Density = 1.952209 g / cm^3
# Si number density = 19.566628 Si / 1000 Ang^3
#
#
#
# Elastic Constant Matrix: (Units=GPa)
#
#
# Indices 1 2 3 4 5 6 
#
# 1 96.4853 38.9011 50.7587 0.0000 0.0000 0.0000
# 2 38.9011 106.8856 26.4742 0.0000 0.0000 0.0000
# 3 50.7587 26.4742 147.9220 0.0000 0.0000 0.0000
# 4 0.0000 0.0000 0.0000 40.1539 0.0000 0.0000
# 5 0.0000 0.0000 0.0000 0.0000 35.2244 0.0000
# 6 0.0000 0.0000 0.0000 0.0000 0.0000 13.8243
#
#
#
# Elastic Compliance Matrix: (Units=1/GPa)
#
#
# Indices 1 2 3 4 5 6 
#
# 1 0.014212 -0.004148 -0.004134 0.000000 0.000000 0.000000
# 2 -0.004148 0.011001 -0.000545 0.000000 0.000000 0.000000
# 3 -0.004134 -0.000545 0.008277 0.000000 0.000000 0.000000
# 4 0.000000 0.000000 0.000000 0.024904 0.000000 0.000000
# 5 0.000000 0.000000 0.000000 0.000000 0.028389 0.000000
# 6 0.000000 0.000000 0.000000 0.000000 0.000000 0.072336
#
#
# Mechanical properties :
#
#
# Convention : Reuss Voigt Hill
#
# Bulk Modulus (GPa) = 63.15892 64.84009 63.99951
# Shear Modulus (GPa) = 27.46462 33.51778 30.49120
#
# Velocity S-wave (km/s) = 3.75059 4.14334 3.95185
# Velocity P-wave (km/s) = 7.14877 7.48998 7.32136
#
# Compressibility (1/GPa) = 0.01583308
#
# Stress axis : x y z
#
# Youngs Moduli (GPa) = 70.36428 90.90349 120.82306
#
# Poissons Ratio (x) = 0.37710 0.49951
# Poissons Ratio (y) = 0.29190 0.06589
# Poissons Ratio (z) = 0.29090 0.04957
#
# Static dielectric constant tensor:
#      x y z
#    x 4.061490 0.000000 0.000000 
#    y 0.000000 10.926280 0.000000 
#    z 0.000000 0.000000 3.633160 
# 
# 
# High freq. dielectric constant tensor:
#      x y z
#    x 1.763290 0.000000 0.000000 
#    y 0.000000 1.750350 0.000000 
#    z 0.000000 0.000000 1.783110 
# 
# From -- ./inp_files/6489.got.cif
#   From: 2010.03.12/outbox.cif.g09.slc.cpg/sg63_4_cif.got.tgz:6489.got - 2010.04.10 19:34:48.
