data_PCOD8260129
_publ_section_title
;
Structure prediction by ZEFSAII (Michael W. Deem and Ramdas Pophale) SiO2 
 PCOD8260129
Probable space group: C M C M
;
_chemical_formula_sum "Si O2"
_cell_formula_units_Z 80
_cell_length_a 18.129083
_cell_length_b 25.751855
_cell_length_c 9.061745
_cell_angle_alpha 90.000000
_cell_angle_beta 90.000000
_cell_angle_gamma 90.000000
_cell_volume 4230.543768
_symmetry_space_group_name_H-M "C M C M"
_symmetry_group_IT_number 63
_symmetry_cell_setting 'orthorhombic'
loop_
_space_group_symop_operation_xyz
x,y,z
-x,-y,1/2+z
x,-y,-z
-x,y,1/2-z
-x,-y,-z
x,y,1/2-z
-x,y,z
x,-y,1/2+z
1/2+x,1/2+y,z
1/2-x,1/2-y,1/2+z
1/2+x,1/2-y,-z
1/2-x,1/2+y,1/2-z
1/2-x,1/2-y,-z
1/2+x,1/2+y,1/2-z
1/2-x,1/2+y,z
1/2+x,1/2-y,1/2+z
loop_
_atom_site_type_symbol
_atom_site_label
_atom_site_fract_x
_atom_site_fract_y
_atom_site_fract_z
Si Si1 0.328820 0.248229 0.074830
Si Si2 0.672672 0.447754 0.423903
Si Si3 0.417071 0.348857 0.425432
Si Si4 0.913722 0.657881 0.920287
Si Si5 0.841477 0.448527 0.078190
O O1 0.319266 0.248322 0.250000
O O2 0.374727 0.297900 0.018352
O O3 0.250000 0.250000 0.000000
O O4 0.371470 0.197033 0.025851
O O5 0.642961 0.500000 0.500000
O O6 0.663476 0.454188 0.250000
O O7 0.624762 0.399802 0.484971
O O8 0.757246 0.437042 0.468991
O O9 0.418421 0.349377 0.250000
O O10 0.500000 0.348230 0.489555
O O11 0.890758 0.667508 0.750000
O O12 0.891392 0.599992 0.969476
O O13 0.000000 0.665481 0.944227
O O14 0.847267 0.459250 0.250000
O O15 0.872308 0.500000 0.000000
#
# Coordination Sequence:
#
# PCOD8260129 Si02
#       5
#    16  16  16  16  16
#     4  11  22  37  58  81 106 139 182 226 269 324
#     4   9  17  31  51  73 100 134 173 214 255 304
#     4   9  18  33  53  76 103 136 172 211 258 313
#     4  10  21  37  56  80 112 145 177 221 277 328
#     4   9  18  33  52  75 105 142 182 222 265 315
#
# _framework density 18.9101
#
# number of rings (size 3 to 8) (size 9 to 14) (size 15 to 20)
#    0.000    2.400    0.000    2.400    0.000    6.000 
#    0.000    6.000    0.000    2.400    0.000    0.000 
#    0.000    0.000    0.000    0.000    0.000    0.000 
#
# Total GULP energy -496098.121333 kJ/mol
# GULP energy per Si atom -12402.453033 kJ/mol
# Density = 1.886706 g / cm^3
# Si number density = 18.910100 Si / 1000 Ang^3
#
#
#
# Elastic Constant Matrix: (Units=GPa)
#
#
# Indices 1 2 3 4 5 6 
#
# 1 102.5695 60.5623 36.1103 0.0000 0.0000 0.0000
# 2 60.5623 145.2059 46.6140 0.0000 0.0000 0.0000
# 3 36.1103 46.6140 45.5856 0.0000 0.0000 0.0000
# 4 0.0000 0.0000 0.0000 35.8376 0.0000 0.0000
# 5 0.0000 0.0000 0.0000 0.0000 24.0446 0.0000
# 6 0.0000 0.0000 0.0000 0.0000 0.0000 25.5151
#
#
#
# Elastic Compliance Matrix: (Units=1/GPa)
#
#
# Indices 1 2 3 4 5 6 
#
# 1 0.014655 -0.003551 -0.007977 0.000000 0.000000 0.000000
# 2 -0.003551 0.011113 -0.008550 0.000000 0.000000 0.000000
# 3 -0.007977 -0.008550 0.036999 0.000000 0.000000 0.000000
# 4 0.000000 0.000000 0.000000 0.027904 0.000000 0.000000
# 5 0.000000 0.000000 0.000000 0.000000 0.041589 0.000000
# 6 0.000000 0.000000 0.000000 0.000000 0.000000 0.039192
#
#
# Mechanical properties :
#
#
# Convention : Reuss Voigt Hill
#
# Bulk Modulus (GPa) = 44.23047 64.43714 54.33381
# Shear Modulus (GPa) = 22.81583 27.08443 24.95013
#
# Velocity S-wave (km/s) = 3.47730 3.78864 3.63631
# Velocity P-wave (km/s) = 6.28990 7.29986 6.81362
#
# Compressibility (1/GPa) = 0.02260885
#
# Stress axis : x y z
#
# Youngs Moduli (GPa) = 68.23677 89.98650 27.02778
#
# Poissons Ratio (x) = 0.31958 0.21561
# Poissons Ratio (y) = 0.24233 0.23109
# Poissons Ratio (z) = 0.54434 0.76941
#
# Static dielectric constant tensor:
#      x y z
#    x 3.621370 0.000000 0.000000 
#    y 0.000000 3.672620 0.000000 
#    z 0.000000 0.000000 3.226140 
# 
# 
# High freq. dielectric constant tensor:
#      x y z
#    x 1.739800 0.000000 0.000000 
#    y 0.000000 1.750020 0.000000 
#    z 0.000000 0.000000 1.708550 
# 
# From -- ./inp_files/6400.got.cif
#   From: 2010.03.12/outbox.cif.g09.slc.cpg/sg63_4_cif.got.tgz:6400.got - 2010.04.10 19:34:48.
