data_PCOD8260158
_publ_section_title
;
Structure prediction by ZEFSAII (Michael W. Deem and Ramdas Pophale) SiO2 
 PCOD8260158
Probable space group: C M C M
;
_chemical_formula_sum "Si O2"
_cell_formula_units_Z 80
_cell_length_a 8.609981
_cell_length_b 14.482287
_cell_length_c 32.646829
_cell_angle_alpha 90.000000
_cell_angle_beta 90.000000
_cell_angle_gamma 90.000000
_cell_volume 4070.805450
_symmetry_space_group_name_H-M "C M C M"
_symmetry_group_IT_number 63
_symmetry_cell_setting 'orthorhombic'
loop_
_space_group_symop_operation_xyz
x,y,z
-x,-y,1/2+z
x,-y,-z
-x,y,1/2-z
-x,-y,-z
x,y,1/2-z
-x,y,z
x,-y,1/2+z
1/2+x,1/2+y,z
1/2-x,1/2-y,1/2+z
1/2+x,1/2-y,-z
1/2-x,1/2+y,1/2-z
1/2-x,1/2-y,-z
1/2+x,1/2+y,1/2-z
1/2-x,1/2+y,z
1/2+x,1/2-y,1/2+z
loop_
_atom_site_type_symbol
_atom_site_label
_atom_site_fract_x
_atom_site_fract_y
_atom_site_fract_z
Si Si1 0.821780 0.249227 0.151461
Si Si2 0.678422 0.903597 0.796882
Si Si3 0.323196 0.404655 0.203874
Si Si4 0.820961 0.248247 0.935694
Si Si5 0.180634 0.605842 0.504929
O O1 0.789739 0.151938 0.172982
O O2 0.712049 0.324870 0.171903
O O3 0.785821 0.240998 0.103727
O O4 0.000000 0.276980 0.157621
O O5 0.718294 0.877904 0.750000
O O6 0.500000 0.881084 0.807055
O O7 0.708424 0.011045 0.804928
O O8 0.297386 0.366638 0.250000
O O9 0.500000 0.437875 0.197982
O O10 0.777948 0.153704 0.959003
O O11 0.000000 0.243287 0.922626
O O12 0.787714 0.338477 0.963166
O O13 0.236707 0.500000 0.500000
O O14 0.000000 0.609664 0.517030
#
# Coordination Sequence:
#
# PCOD8260158 Si02
#       5
#    16  16  16  16  16
#     4  12  24  37  56  82 116 154 192 236 283 331
#     4  10  21  38  59  83 113 150 192 236 284 339
#     4  10  21  38  59  83 112 147 190 238 287 340
#     4  10  21  37  57  83 114 144 182 231 279 334
#     4   9  19  38  62  84 109 143 180 222 278 340
#
# _framework density 19.652131000000001
#
# number of rings (size 3 to 8) (size 9 to 14) (size 15 to 20)
#    0.000    1.800    0.000    4.200    0.000    7.600 
#    0.000    6.000    0.000    0.000    0.000    0.000 
#    0.000    0.000    0.000    0.000    0.000    0.000 
#
# Total GULP energy -496207.804298 kJ/mol
# GULP energy per Si atom -12405.195107 kJ/mol
# Density = 1.960740 g / cm^3
# Si number density = 19.652131 Si / 1000 Ang^3
#
#
#
# Elastic Constant Matrix: (Units=GPa)
#
#
# Indices 1 2 3 4 5 6 
#
# 1 73.0901 24.4699 34.0147 0.0000 0.0000 0.0000
# 2 24.4699 114.3914 47.7634 0.0000 0.0000 0.0000
# 3 34.0147 47.7634 100.2512 0.0000 0.0000 0.0000
# 4 0.0000 0.0000 0.0000 32.3887 0.0000 0.0000
# 5 0.0000 0.0000 0.0000 0.0000 33.1985 0.0000
# 6 0.0000 0.0000 0.0000 0.0000 0.0000 32.7604
#
#
#
# Elastic Compliance Matrix: (Units=1/GPa)
#
#
# Indices 1 2 3 4 5 6 
#
# 1 0.016446 -0.001483 -0.004874 0.000000 0.000000 0.000000
# 2 -0.001483 0.011047 -0.004760 0.000000 0.000000 0.000000
# 3 -0.004874 -0.004760 0.013896 0.000000 0.000000 0.000000
# 4 0.000000 0.000000 0.000000 0.030875 0.000000 0.000000
# 5 0.000000 0.000000 0.000000 0.000000 0.030122 0.000000
# 6 0.000000 0.000000 0.000000 0.000000 0.000000 0.030525
#
#
# Mechanical properties :
#
#
# Convention : Reuss Voigt Hill
#
# Bulk Modulus (GPa) = 52.20236 55.58097 53.89166
# Shear Modulus (GPa) = 30.95420 31.76851 31.36135
#
# Velocity S-wave (km/s) = 3.97307 4.02499 3.99911
# Velocity P-wave (km/s) = 6.90419 7.06714 6.98614
#
# Compressibility (1/GPa) = 0.01915622
#
# Stress axis : x y z
#
# Youngs Moduli (GPa) = 60.80383 90.52553 71.96195
#
# Poissons Ratio (x) = 0.13427 0.35071
# Poissons Ratio (y) = 0.09018 0.34252
# Poissons Ratio (z) = 0.29633 0.43088
#
# Static dielectric constant tensor:
#      x y z
#    x 3.615430 0.000000 0.000000 
#    y 0.000000 3.540310 0.000000 
#    z 0.000000 0.000000 3.505760 
# 
# 
# High freq. dielectric constant tensor:
#      x y z
#    x 1.772910 0.000000 0.000000 
#    y 0.000000 1.767650 0.000000 
#    z 0.000000 0.000000 1.761990 
# 
# From -- ./inp_files/71572.got.cif
#   From: 2010.03.12/outbox.cif.g09.slc.cpg/sg63_36_cif.got.tgz:71572.got - 2010.04.10 19:34:48.
