data_PCOD8260740
_publ_section_title
;
Structure prediction by ZEFSAII (Michael W. Deem and Ramdas Pophale) SiO2 
 PCOD8260740
Probable space group: C M C M
;
_chemical_formula_sum "Si O2"
_cell_formula_units_Z 64
_cell_length_a 14.744789
_cell_length_b 27.112186
_cell_length_c 7.580919
_cell_angle_alpha 90.000000
_cell_angle_beta 90.000000
_cell_angle_gamma 90.000000
_cell_volume 3030.574424
_symmetry_space_group_name_H-M "C M C M"
_symmetry_group_IT_number 63
_symmetry_cell_setting 'orthorhombic'
loop_
_space_group_symop_operation_xyz
x,y,z
-x,-y,1/2+z
x,-y,-z
-x,y,1/2-z
-x,-y,-z
x,y,1/2-z
-x,y,z
x,-y,1/2+z
1/2+x,1/2+y,z
1/2-x,1/2-y,1/2+z
1/2+x,1/2-y,-z
1/2-x,1/2+y,1/2-z
1/2-x,1/2-y,-z
1/2+x,1/2+y,1/2-z
1/2-x,1/2+y,z
1/2+x,1/2-y,1/2+z
loop_
_atom_site_type_symbol
_atom_site_label
_atom_site_fract_x
_atom_site_fract_y
_atom_site_fract_z
Si Si1 0.609617 0.588522 0.750000
Si Si2 0.094729 0.805770 0.250000
Si Si3 0.102573 0.369018 0.544175
Si Si4 0.241670 0.054807 0.456930
Si Si5 0.648620 0.239350 0.946134
O O1 0.500000 0.580332 0.750000
O O2 0.654572 0.644722 0.750000
O O3 0.651311 0.564671 0.572350
O O4 0.091449 0.771624 0.420804
O O5 0.000000 0.834187 0.250000
O O6 0.110814 0.358450 0.750000
O O7 0.174631 0.410207 0.485007
O O8 0.125015 0.318036 0.447682
O O9 0.000000 0.385926 0.494148
O O10 0.217786 0.061600 0.250000
O O11 0.275977 0.000000 0.500000
O O12 0.630838 0.259339 0.750000
O O13 0.750000 0.250000 0.000000
#
# Coordination Sequence:
#
# PCOD8260740 Si02
#       5
#     8   8  16  16  16
#     4  11  26  46  70  97 129 169 217 280 342 401
#     4  11  24  42  61  91 133 163 208 270 319 385
#     4  10  22  41  66  99 140 180 225 274 324 390
#     4  11  24  45  70  98 131 170 218 276 339 402
#     4  12  23  38  63  94 130 181 224 267 317 376
#
# _framework density 21.118109
#
# number of rings (size 3 to 8) (size 9 to 14) (size 15 to 20)
#    0.000    1.000    3.750    2.250    1.750    6.500 
#    0.000    2.500    0.000    0.000    0.000    0.000 
#    0.000    0.000    0.000    0.000    0.000    0.000 
#
# Total GULP energy -396495.901250 kJ/mol
# GULP energy per Si atom -12390.496914 kJ/mol
# Density = 2.107004 g / cm^3
# Si number density = 21.118109 Si / 1000 Ang^3
#
#
#
# Elastic Constant Matrix: (Units=GPa)
#
#
# Indices 1 2 3 4 5 6 
#
# 1 136.1477 32.5208 42.1441 0.0000 0.0000 0.0000
# 2 32.5208 123.2504 40.0527 0.0000 0.0000 0.0000
# 3 42.1441 40.0527 150.5178 0.0000 0.0000 0.0000
# 4 0.0000 0.0000 0.0000 23.3508 0.0000 0.0000
# 5 0.0000 0.0000 0.0000 0.0000 -5.9473 0.0000
# 6 0.0000 0.0000 0.0000 0.0000 0.0000 21.6230
#
#
#
# Elastic Compliance Matrix: (Units=1/GPa)
#
#
# Indices 1 2 3 4 5 6 
#
# 1 0.008311 -0.001573 -0.001909 0.000000 0.000000 0.000000
# 2 -0.001573 0.009179 -0.002002 0.000000 0.000000 0.000000
# 3 -0.001909 -0.002002 0.007711 0.000000 0.000000 0.000000
# 4 0.000000 0.000000 0.000000 0.042825 0.000000 0.000000
# 5 0.000000 0.000000 0.000000 0.000000 -0.168142 0.000000
# 6 0.000000 0.000000 0.000000 0.000000 0.000000 0.046247
#
#
# Mechanical properties :
#
#
# Convention : Reuss Voigt Hill
#
# Bulk Modulus (GPa) = 70.25283 71.03902 70.64593
# Shear Modulus (GPa) = -131.03952 27.48518 -51.77717
#
# Velocity S-wave (km/s) = -7.88578 3.61154 -4.95693
# Velocity P-wave (km/s) = 7.04096 7.14863 0.87401
#
# Compressibility (1/GPa) = 0.01423430
#
# Stress axis : x y z
#
# Youngs Moduli (GPa) = 120.31570 108.94166 129.68615
#
# Poissons Ratio (x) = 0.17134 0.24752
# Poissons Ratio (y) = 0.18923 0.25966
# Poissons Ratio (z) = 0.22964 0.21812
#
# Static dielectric constant tensor:
#      x y z
#    x 3.862880 0.000000 0.000000 
#    y 0.000000 2.764390 0.000000 
#    z 0.000000 0.000000 3.773450 
# 
# 
# High freq. dielectric constant tensor:
#      x y z
#    x 1.832290 0.000000 0.000000 
#    y 0.000000 1.832790 0.000000 
#    z 0.000000 0.000000 1.837310 
# 
# From -- ./inp_files/4321.got.cif
#   From: 2010.03.12/outbox.cif.g09.slc.cpg/sg63_3_cif.got.tgz:4321.got - 2010.04.10 19:34:48.
