data_PCOD8260553
_publ_section_title
;
Structure prediction by ZEFSAII (Michael W. Deem and Ramdas Pophale) SiO2 
 PCOD8260553
Probable space group: C M C M
;
_chemical_formula_sum "Si O2"
_cell_formula_units_Z 64
_cell_length_a 32.554565
_cell_length_b 8.967400
_cell_length_c 10.425410
_cell_angle_alpha 90.000000
_cell_angle_beta 90.000000
_cell_angle_gamma 90.000000
_cell_volume 3043.487921
_symmetry_space_group_name_H-M "C M C M"
_symmetry_group_IT_number 63
_symmetry_cell_setting 'orthorhombic'
loop_
_space_group_symop_operation_xyz
x,y,z
-x,-y,1/2+z
x,-y,-z
-x,y,1/2-z
-x,-y,-z
x,y,1/2-z
-x,y,z
x,-y,1/2+z
1/2+x,1/2+y,z
1/2-x,1/2-y,1/2+z
1/2+x,1/2-y,-z
1/2-x,1/2+y,1/2-z
1/2-x,1/2-y,-z
1/2+x,1/2+y,1/2-z
1/2-x,1/2+y,z
1/2+x,1/2-y,1/2+z
loop_
_atom_site_type_symbol
_atom_site_label
_atom_site_fract_x
_atom_site_fract_y
_atom_site_fract_z
Si Si1 0.772801 0.390599 0.113928
Si Si2 0.888043 0.371378 0.605750
Si Si3 0.815835 0.161656 0.533581
Si Si4 0.452272 0.376738 0.396759
O O1 0.785754 0.462479 0.250000
O O2 0.724537 0.354784 0.121806
O O3 0.785321 0.500000 0.000000
O O4 0.799394 0.240267 0.096563
O O5 0.882908 0.500000 0.500000
O O6 0.890632 0.439947 0.750000
O O7 0.849908 0.258118 0.604334
O O8 0.928853 0.277350 0.574297
O O9 0.834643 0.000000 0.500000
O O10 0.437591 0.500000 0.500000
O O11 0.443402 0.431432 0.250000
O O12 0.500000 0.341307 0.416460
#
# Coordination Sequence:
#
# PCOD8260553 Si02
#       4
#    16  16  16  16
#     4  10  22  39  59  83 112 147 188 236 290 346
#     4  11  24  40  58  83 117 154 192 235 282 334
#     4  10  22  37  58  83 111 147 192 239 287 338
#     4   9  19  38  64  92 120 150 186 230 280 335
#
# _framework density 21.028504999999999
#
# number of rings (size 3 to 8) (size 9 to 14) (size 15 to 20)
#    0.000    2.000    0.000    2.250    0.000   16.500 
#    0.000    0.000    0.000    0.000    0.000    0.000 
#    0.000    0.000    0.000    0.000    0.000    0.000 
#
# Total GULP energy -396626.423046 kJ/mol
# GULP energy per Si atom -12394.575720 kJ/mol
# Density = 2.098064 g / cm^3
# Si number density = 21.028505 Si / 1000 Ang^3
#
#
#
# Elastic Constant Matrix: (Units=GPa)
#
#
# Indices 1 2 3 4 5 6 
#
# 1 65.6442 43.0376 25.5708 0.0000 0.0000 0.0000
# 2 43.0376 133.7857 82.9522 0.0000 0.0000 0.0000
# 3 25.5708 82.9522 173.4589 0.0000 0.0000 0.0000
# 4 0.0000 0.0000 0.0000 32.1162 0.0000 0.0000
# 5 0.0000 0.0000 0.0000 0.0000 69.2298 0.0000
# 6 0.0000 0.0000 0.0000 0.0000 0.0000 37.0810
#
#
#
# Elastic Compliance Matrix: (Units=1/GPa)
#
#
# Indices 1 2 3 4 5 6 
#
# 1 0.019309 -0.006321 0.000176 0.000000 0.000000 0.000000
# 2 -0.006321 0.012694 -0.005139 0.000000 0.000000 0.000000
# 3 0.000176 -0.005139 0.008197 0.000000 0.000000 0.000000
# 4 0.000000 0.000000 0.000000 0.031137 0.000000 0.000000
# 5 0.000000 0.000000 0.000000 0.000000 0.014445 0.000000
# 6 0.000000 0.000000 0.000000 0.000000 0.000000 0.026968
#
#
# Mechanical properties :
#
#
# Convention : Reuss Voigt Hill
#
# Bulk Modulus (GPa) = 56.71175 75.11222 65.91198
# Shear Modulus (GPa) = 35.41223 42.44061 38.92642
#
# Velocity S-wave (km/s) = 4.10812 4.49736 4.30714
# Velocity P-wave (km/s) = 7.03774 7.92244 7.49316
#
# Compressibility (1/GPa) = 0.01763303
#
# Stress axis : x y z
#
# Youngs Moduli (GPa) = 51.78927 78.77537 122.00140
#
# Poissons Ratio (x) = 0.49793 -0.02151
# Poissons Ratio (y) = 0.32735 0.62696
# Poissons Ratio (z) = -0.00913 0.40482
#
# Static dielectric constant tensor:
#      x y z
#    x 3.845670 0.000000 0.000000 
#    y 0.000000 3.819150 0.000000 
#    z 0.000000 0.000000 3.819760 
# 
# 
# High freq. dielectric constant tensor:
#      x y z
#    x 1.822750 0.000000 0.000000 
#    y 0.000000 1.815950 0.000000 
#    z 0.000000 0.000000 1.825720 
# 
# From -- ./inp_files/25466.got.cif
#   From: 2010.03.12/outbox.cif.g09.slc.cpg/sg63_13_cif.got.tgz:25466.got - 2010.04.10 19:34:48.
