data_PCOD8260174
_publ_section_title
;
Structure prediction by ZEFSAII (Michael W. Deem and Ramdas Pophale) SiO2 
 PCOD8260174
Probable space group: C M C M
;
_chemical_formula_sum "Si O2"
_cell_formula_units_Z 96
_cell_length_a 24.233253
_cell_length_b 12.908118
_cell_length_c 16.335159
_cell_angle_alpha 90.000000
_cell_angle_beta 90.000000
_cell_angle_gamma 90.000000
_cell_volume 5109.730670
_symmetry_space_group_name_H-M "C M C M"
_symmetry_group_IT_number 63
_symmetry_cell_setting 'orthorhombic'
loop_
_space_group_symop_operation_xyz
x,y,z
-x,-y,1/2+z
x,-y,-z
-x,y,1/2-z
-x,-y,-z
x,y,1/2-z
-x,y,z
x,-y,1/2+z
1/2+x,1/2+y,z
1/2-x,1/2-y,1/2+z
1/2+x,1/2-y,-z
1/2-x,1/2+y,1/2-z
1/2-x,1/2-y,-z
1/2+x,1/2+y,1/2-z
1/2-x,1/2+y,z
1/2+x,1/2-y,1/2+z
loop_
_atom_site_type_symbol
_atom_site_label
_atom_site_fract_x
_atom_site_fract_y
_atom_site_fract_z
Si Si1 0.198526 0.271580 0.056893
Si Si2 0.563167 0.537194 0.592139
Si Si3 0.724180 0.033848 0.656122
Si Si4 0.366286 0.088810 0.443077
Si Si5 0.936005 0.259934 0.657200
Si Si6 0.835446 0.077850 0.158247
O O1 0.216344 0.347766 0.129922
O O2 0.173132 0.168625 0.094173
O O3 0.250000 0.250000 0.000000
O O4 0.150288 0.318643 0.002527
O O5 0.572465 0.500000 0.500000
O O6 0.500000 0.516158 0.620484
O O7 0.577231 0.658909 0.602340
O O8 0.604334 0.472296 0.648716
O O9 0.705995 0.020822 0.750000
O O10 0.687682 0.957003 0.601270
O O11 0.788403 0.007899 0.642615
O O12 0.407862 0.136059 0.377191
O O13 0.394506 0.000000 0.500000
O O14 0.915243 0.239761 0.750000
O O15 0.000000 0.285242 0.656194
O O16 0.830816 0.122326 0.250000
#
# Coordination Sequence:
#
# PCOD8260174 Si02
#       6
#    16  16  16  16  16  16
#     4  11  22  37  55  79 115 150 187 234 277 344
#     4  10  22  38  59  86 118 151 190 239 285 337
#     4  10  22  37  54  82 115 146 187 233 286 344
#     4  10  21  37  58  83 112 152 187 236 288 334
#     4  10  21  38  60  87 116 149 192 239 285 335
#     4  11  23  36  57  84 114 154 192 229 286 346
#
# _framework density 18.787683999999999
#
# number of rings (size 3 to 8) (size 9 to 14) (size 15 to 20)
#    0.000    1.667    1.667    2.500    4.667    1.333 
#    0.000    0.000    0.000    1.000    0.000    0.000 
#    0.000    0.000    0.000    0.000    0.000    0.000 
#
# Total GULP energy -595258.364954 kJ/mol
# GULP energy per Si atom -12401.215937 kJ/mol
# Density = 1.874492 g / cm^3
# Si number density = 18.787684 Si / 1000 Ang^3
#
#
#
# Elastic Constant Matrix: (Units=GPa)
#
#
# Indices 1 2 3 4 5 6 
#
# 1 81.2415 50.4249 39.9457 0.0000 0.0000 0.0000
# 2 50.4249 89.3054 40.6277 0.0000 0.0000 0.0000
# 3 39.9457 40.6277 97.0556 0.0000 0.0000 0.0000
# 4 0.0000 0.0000 0.0000 40.2478 0.0000 0.0000
# 5 0.0000 0.0000 0.0000 0.0000 31.0219 0.0000
# 6 0.0000 0.0000 0.0000 0.0000 0.0000 28.9702
#
#
#
# Elastic Compliance Matrix: (Units=1/GPa)
#
#
# Indices 1 2 3 4 5 6 
#
# 1 0.020371 -0.009496 -0.004409 0.000000 0.000000 0.000000
# 2 -0.009496 0.018259 -0.003735 0.000000 0.000000 0.000000
# 3 -0.004409 -0.003735 0.013681 0.000000 0.000000 0.000000
# 4 0.000000 0.000000 0.000000 0.024846 0.000000 0.000000
# 5 0.000000 0.000000 0.000000 0.000000 0.032235 0.000000
# 6 0.000000 0.000000 0.000000 0.000000 0.000000 0.034518
#
#
# Mechanical properties :
#
#
# Convention : Reuss Voigt Hill
#
# Bulk Modulus (GPa) = 58.71676 58.84433 58.78054
# Shear Modulus (GPa) = 27.04641 29.15493 28.10067
#
# Velocity S-wave (km/s) = 3.79830 3.94358 3.87162
# Velocity P-wave (km/s) = 7.11033 7.21972 7.16523
#
# Compressibility (1/GPa) = 0.01703091
#
# Stress axis : x y z
#
# Youngs Moduli (GPa) = 49.08920 54.76900 73.09246
#
# Poissons Ratio (x) = 0.52011 0.32226
# Poissons Ratio (y) = 0.46617 0.27297
# Poissons Ratio (z) = 0.21643 0.20454
#
# Static dielectric constant tensor:
#      x y z
#    x 3.416050 0.000000 0.000000 
#    y 0.000000 3.481280 0.000000 
#    z 0.000000 0.000000 3.521940 
# 
# 
# High freq. dielectric constant tensor:
#      x y z
#    x 1.720640 0.000000 0.000000 
#    y 0.000000 1.731570 0.000000 
#    z 0.000000 0.000000 1.744320 
# 
# From -- ./inp_files/48037.got.cif
#   From: 2010.03.12/outbox.cif.g09.slc.cpg/sg63_25_cif.got.tgz:48037.got - 2010.04.10 19:34:48.
