data_PCOD8260485
_publ_section_title
;
Structure prediction by ZEFSAII (Michael W. Deem and Ramdas Pophale) SiO2 
 PCOD8260485
Probable space group: C M C M
;
_chemical_formula_sum "Si O2"
_cell_formula_units_Z 112
_cell_length_a 14.843072
_cell_length_b 15.289502
_cell_length_c 22.566376
_cell_angle_alpha 90.000000
_cell_angle_beta 90.000000
_cell_angle_gamma 90.000000
_cell_volume 5121.285109
_symmetry_space_group_name_H-M "C M C M"
_symmetry_group_IT_number 63
_symmetry_cell_setting 'orthorhombic'
loop_
_space_group_symop_operation_xyz
x,y,z
-x,-y,1/2+z
x,-y,-z
-x,y,1/2-z
-x,-y,-z
x,y,1/2-z
-x,y,z
x,-y,1/2+z
1/2+x,1/2+y,z
1/2-x,1/2-y,1/2+z
1/2+x,1/2-y,-z
1/2-x,1/2+y,1/2-z
1/2-x,1/2-y,-z
1/2+x,1/2+y,1/2-z
1/2-x,1/2+y,z
1/2+x,1/2-y,1/2+z
loop_
_atom_site_type_symbol
_atom_site_label
_atom_site_fract_x
_atom_site_fract_y
_atom_site_fract_z
Si Si1 0.100423 0.354926 0.584554
Si Si2 0.598941 0.649559 0.382235
Si Si3 0.228628 0.899892 0.514314
Si Si4 0.361672 0.486865 0.184047
Si Si5 0.398730 0.658627 0.911898
Si Si6 0.894840 0.684115 0.815510
Si Si7 0.652622 0.006681 0.182432
O O1 0.172079 0.364065 0.530704
O O2 0.108431 0.257625 0.611473
O O3 0.112744 0.421014 0.639008
O O4 0.000000 0.369442 0.557719
O O5 0.500000 0.671226 0.409042
O O6 0.663566 0.608465 0.430303
O O7 0.584863 0.574728 0.332837
O O8 0.645021 0.738154 0.356293
O O9 0.181021 0.851563 0.459819
O O10 0.241368 0.000000 0.500000
O O11 0.389877 0.458585 0.250000
O O12 0.383799 0.405326 0.142745
O O13 0.258513 0.514078 0.180479
O O14 0.500000 0.640977 0.938218
O O15 0.849947 0.688806 0.750000
O O16 0.875651 0.588788 0.842879
O O17 0.000000 0.702025 0.810076
O O18 0.615734 0.019134 0.250000
#
# Coordination Sequence:
#
# PCOD8260485 Si02
#       7
#    16  16  16  16  16  16  16
#     4  11  25  45  68  96 130 172 225 279 329 389
#     4  11  22  38  65  96 130 171 216 269 325 384
#     4  12  24  45  69  93 128 173 221 275 331 389
#     4  11  23  39  64 100 138 174 211 263 328 392
#     4  11  25  44  67  97 133 175 220 266 329 401
#     4   9  19  36  61  94 128 167 219 272 322 378
#     4  10  21  40  66  97 136 181 221 265 326 389
#
# _framework density 21.869509999999998
#
# number of rings (size 3 to 8) (size 9 to 14) (size 15 to 20)
#    0.000    1.286    2.857    2.143    2.000    4.000 
#    2.571    1.429    0.000    0.000    0.000    0.000 
#    0.000    0.000    0.000    0.000    0.000    0.000 
#
# Total GULP energy -694254.408079 kJ/mol
# GULP energy per Si atom -12397.400144 kJ/mol
# Density = 2.181973 g / cm^3
# Si number density = 21.869510 Si / 1000 Ang^3
#
#
#
# Elastic Constant Matrix: (Units=GPa)
#
#
# Indices 1 2 3 4 5 6 
#
# 1 119.6585 33.9540 46.1216 0.0000 0.0000 0.0000
# 2 33.9540 164.3535 62.2248 0.0000 0.0000 0.0000
# 3 46.1216 62.2248 106.5409 0.0000 0.0000 0.0000
# 4 0.0000 0.0000 0.0000 35.7727 0.0000 0.0000
# 5 0.0000 0.0000 0.0000 0.0000 -14.4578 0.0000
# 6 0.0000 0.0000 0.0000 0.0000 0.0000 30.5789
#
#
#
# Elastic Compliance Matrix: (Units=1/GPa)
#
#
# Indices 1 2 3 4 5 6 
#
# 1 0.010070 -0.000552 -0.004037 0.000000 0.000000 0.000000
# 2 -0.000552 0.007842 -0.004341 0.000000 0.000000 0.000000
# 3 -0.004037 -0.004341 0.013669 0.000000 0.000000 0.000000
# 4 0.000000 0.000000 0.000000 0.027954 0.000000 0.000000
# 5 0.000000 0.000000 0.000000 0.000000 -0.069167 0.000000
# 6 0.000000 0.000000 0.000000 0.000000 0.000000 0.032702
#
#
# Mechanical properties :
#
#
# Convention : Reuss Voigt Hill
#
# Bulk Modulus (GPa) = 72.88145 75.01708 73.94927
# Shear Modulus (GPa) = 109.87994 26.92893 68.40444
#
# Velocity S-wave (km/s) = 7.09595 3.51286 5.59878
# Velocity P-wave (km/s) = 10.02670 7.12953 8.69956
#
# Compressibility (1/GPa) = 0.01372091
#
# Stress axis : x y z
#
# Youngs Moduli (GPa) = 99.30780 127.51743 73.15797
#
# Poissons Ratio (x) = 0.07038 0.29532
# Poissons Ratio (y) = 0.05481 0.31759
# Poissons Ratio (z) = 0.40089 0.55358
#
# Static dielectric constant tensor:
#      x y z
#    x 4.232450 0.000000 0.000000 
#    y 0.000000 4.069240 0.000000 
#    z 0.000000 0.000000 3.984730 
# 
# 
# High freq. dielectric constant tensor:
#      x y z
#    x 1.868700 0.000000 0.000000 
#    y 0.000000 1.874610 0.000000 
#    z 0.000000 0.000000 1.843420 
# 
# From -- ./inp_files/63009.got.cif
#   From: 2010.03.12/outbox.cif.g09.slc.cpg/sg63_32_cif.got.tgz:63009.got - 2010.04.10 19:34:48.
