data_PCOD8260590
_publ_section_title
;
Structure prediction by ZEFSAII (Michael W. Deem and Ramdas Pophale) SiO2 
 PCOD8260590
Probable space group: C M C M
;
_chemical_formula_sum "Si O2"
_cell_formula_units_Z 60
_cell_length_a 12.367807
_cell_length_b 14.212071
_cell_length_c 18.116177
_cell_angle_alpha 90.000000
_cell_angle_beta 90.000000
_cell_angle_gamma 90.000000
_cell_volume 3184.319403
_symmetry_space_group_name_H-M "C M C M"
_symmetry_group_IT_number 63
_symmetry_cell_setting 'orthorhombic'
loop_
_space_group_symop_operation_xyz
x,y,z
-x,-y,1/2+z
x,-y,-z
-x,y,1/2-z
-x,-y,-z
x,y,1/2-z
-x,y,z
x,-y,1/2+z
1/2+x,1/2+y,z
1/2-x,1/2-y,1/2+z
1/2+x,1/2-y,-z
1/2-x,1/2+y,1/2-z
1/2-x,1/2-y,-z
1/2+x,1/2+y,1/2-z
1/2-x,1/2+y,z
1/2+x,1/2-y,1/2+z
loop_
_atom_site_type_symbol
_atom_site_label
_atom_site_fract_x
_atom_site_fract_y
_atom_site_fract_z
Si Si1 0.876930 0.504998 0.750000
Si Si2 0.500000 0.225234 0.586021
Si Si3 0.291461 0.147737 0.980303
Si Si4 0.232086 0.982339 0.609743
Si Si5 0.500000 0.435484 0.572763
Si Si6 0.500000 0.816707 0.250000
O O1 0.804619 0.473348 0.681650
O O2 0.000000 0.459545 0.750000
O O3 0.892193 0.617908 0.750000
O O4 0.595814 0.158701 0.560296
O O5 0.500000 0.326541 0.546095
O O6 0.500000 0.244159 0.674824
O O7 0.219691 0.088642 0.921827
O O8 0.250000 0.250000 0.000000
O O9 0.296229 0.086289 0.054279
O O10 0.107676 0.950264 0.622028
O O11 0.500000 0.500000 0.500000
#
# Coordination Sequence:
#
# PCOD8260590 Si02
#       6
#     8   8  16  16   8   4
#     4  10  22  42  58  92 131 159 209 274 311 383
#     4  12  22  38  67  93 127 170 221 269 317 384
#     4  11  21  38  62  95 121 164 214 264 313 378
#     4  11  23  38  65  90 128 171 205 258 333 369
#     4  12  22  42  62  95 133 161 216 268 313 394
#     4  10  22  38  62  94 126 160 208 278 308 374
#
# _framework density 18.842331000000001
#
# number of rings (size 3 to 8) (size 9 to 14) (size 15 to 20)
#    0.400    0.533    8.000    0.000    1.867    2.667 
#    0.000    1.333    0.000    0.000    0.000    0.000 
#    0.000    0.000    0.000    0.000    0.000    0.000 
#
# Total GULP energy -371652.422745 kJ/mol
# GULP energy per Si atom -12388.414091 kJ/mol
# Density = 1.879944 g / cm^3
# Si number density = 18.842331 Si / 1000 Ang^3
#
#
#
# Elastic Constant Matrix: (Units=GPa)
#
#
# Indices 1 2 3 4 5 6 
#
# 1 135.3042 38.3090 62.1422 0.0000 0.0000 0.0000
# 2 38.3090 107.5213 36.7912 0.0000 0.0000 0.0000
# 3 62.1422 36.7912 134.2614 0.0000 0.0000 0.0000
# 4 0.0000 0.0000 0.0000 21.0626 0.0000 0.0000
# 5 0.0000 0.0000 0.0000 0.0000 29.9795 0.0000
# 6 0.0000 0.0000 0.0000 0.0000 0.0000 22.9133
#
#
#
# Elastic Compliance Matrix: (Units=1/GPa)
#
#
# Indices 1 2 3 4 5 6 
#
# 1 0.009814 -0.002143 -0.003955 0.000000 0.000000 0.000000
# 2 -0.002143 0.010731 -0.001949 0.000000 0.000000 0.000000
# 3 -0.003955 -0.001949 0.009813 0.000000 0.000000 0.000000
# 4 0.000000 0.000000 0.000000 0.047478 0.000000 0.000000
# 5 0.000000 0.000000 0.000000 0.000000 0.033356 0.000000
# 6 0.000000 0.000000 0.000000 0.000000 0.000000 0.043643
#
#
# Mechanical properties :
#
#
# Convention : Reuss Voigt Hill
#
# Bulk Modulus (GPa) = 70.10759 72.39688 71.25223
# Shear Modulus (GPa) = 28.46041 30.78069 29.62055
#
# Velocity S-wave (km/s) = 3.89067 4.04616 3.96917
# Velocity P-wave (km/s) = 7.58098 7.76752 7.67482
#
# Compressibility (1/GPa) = 0.01426379
#
# Stress axis : x y z
#
# Youngs Moduli (GPa) = 101.89446 93.18902 101.90892
#
# Poissons Ratio (x) = 0.19974 0.40306
# Poissons Ratio (y) = 0.21840 0.19857
# Poissons Ratio (z) = 0.40300 0.18158
#
# Static dielectric constant tensor:
#      x y z
#    x 4.098650 0.000000 0.000000 
#    y 0.000000 3.636440 0.000000 
#    z 0.000000 0.000000 3.767780 
# 
# 
# High freq. dielectric constant tensor:
#      x y z
#    x 1.737880 0.000000 0.000000 
#    y 0.000000 1.734540 0.000000 
#    z 0.000000 0.000000 1.720800 
# 
# From -- ./inp_files/41470.got.cif
#   From: 2010.03.12/outbox.cif.g09.slc.cpg/sg63_21_cif.got.tgz:41470.got - 2010.04.10 19:34:48.
