data_PCOD8260040
_publ_section_title
;
Structure prediction by ZEFSAII (Michael W. Deem and Ramdas Pophale) SiO2 
 PCOD8260040
Probable space group: C M C M
;
_chemical_formula_sum "Si O2"
_cell_formula_units_Z 96
_cell_length_a 15.111715
_cell_length_b 26.147211
_cell_length_c 13.378399
_cell_angle_alpha 90.000000
_cell_angle_beta 90.000000
_cell_angle_gamma 90.000000
_cell_volume 5286.196103
_symmetry_space_group_name_H-M "C M C M"
_symmetry_group_IT_number 63
_symmetry_cell_setting 'orthorhombic'
loop_
_space_group_symop_operation_xyz
x,y,z
-x,-y,1/2+z
x,-y,-z
-x,y,1/2-z
-x,-y,-z
x,y,1/2-z
-x,y,z
x,-y,1/2+z
1/2+x,1/2+y,z
1/2-x,1/2-y,1/2+z
1/2+x,1/2-y,-z
1/2-x,1/2+y,1/2-z
1/2-x,1/2-y,-z
1/2+x,1/2+y,1/2-z
1/2-x,1/2+y,z
1/2+x,1/2-y,1/2+z
loop_
_atom_site_type_symbol
_atom_site_label
_atom_site_fract_x
_atom_site_fract_y
_atom_site_fract_z
Si Si1 0.601831 0.131600 0.632169
Si Si2 0.231535 0.556477 0.973782
Si Si3 0.595491 0.677804 0.487338
Si Si4 0.898431 0.089507 0.633011
Si Si5 0.253929 0.859182 0.866201
Si Si6 0.660180 0.218358 0.008701
O O1 0.609255 0.135759 0.750000
O O2 0.500000 0.124493 0.597532
O O3 0.658741 0.083045 0.596446
O O4 0.641548 0.184310 0.589105
O O5 0.327154 0.551700 0.918082
O O6 0.198140 0.500000 0.000000
O O7 0.239429 0.586986 0.077590
O O8 0.500000 0.660262 0.447294
O O9 0.621071 0.645238 0.585613
O O10 0.662672 0.668537 0.396638
O O11 0.587284 0.737407 0.520602
O O12 0.879407 0.093413 0.750000
O O13 0.000000 0.071244 0.612879
O O14 0.257466 0.870611 0.750000
O O15 0.334145 0.820913 0.897567
O O16 0.750000 0.250000 0.000000
#
# Coordination Sequence:
#
# PCOD8260040 Si02
#       6
#    16  16  16  16  16  16
#     4  10  21  37  57  81 108 138 176 223 270 314
#     4  10  21  36  56  77 101 136 177 224 272 321
#     4   9  17  30  49  74 103 134 167 202 245 301
#     4   9  18  33  53  79 110 140 173 216 264 317
#     4   9  19  33  47  69 101 134 168 208 255 303
#     4   9  18  31  48  73 104 137 169 206 250 300
#
# _framework density 18.160506999999999
#
# number of rings (size 3 to 8) (size 9 to 14) (size 15 to 20)
#    0.000    2.667    0.000    2.000    0.000    5.667 
#    0.000    0.000    0.000   12.000    0.000    0.000 
#    0.000    0.000    0.000    0.000    0.000    0.000 
#
# Total GULP energy -594850.310033 kJ/mol
# GULP energy per Si atom -12392.714792 kJ/mol
# Density = 1.811917 g / cm^3
# Si number density = 18.160507 Si / 1000 Ang^3
#
#
#
# Elastic Constant Matrix: (Units=GPa)
#
#
# Indices 1 2 3 4 5 6 
#
# 1 91.3685 34.0715 39.8979 0.0000 0.0000 0.0000
# 2 34.0715 104.7320 32.1549 0.0000 0.0000 0.0000
# 3 39.8979 32.1549 118.5091 0.0000 0.0000 0.0000
# 4 0.0000 0.0000 0.0000 13.9309 0.0000 0.0000
# 5 0.0000 0.0000 0.0000 0.0000 23.5040 0.0000
# 6 0.0000 0.0000 0.0000 0.0000 0.0000 16.4176
#
#
#
# Elastic Compliance Matrix: (Units=1/GPa)
#
#
# Indices 1 2 3 4 5 6 
#
# 1 0.013830 -0.003349 -0.003747 0.000000 0.000000 0.000000
# 2 -0.003349 0.011227 -0.001919 0.000000 0.000000 0.000000
# 3 -0.003747 -0.001919 0.010220 0.000000 0.000000 0.000000
# 4 0.000000 0.000000 0.000000 0.071783 0.000000 0.000000
# 5 0.000000 0.000000 0.000000 0.000000 0.042546 0.000000
# 6 0.000000 0.000000 0.000000 0.000000 0.000000 0.060910
#
#
# Mechanical properties :
#
#
# Convention : Reuss Voigt Hill
#
# Bulk Modulus (GPa) = 57.98011 58.53978 58.25994
# Shear Modulus (GPa) = 21.34069 24.66953 23.00511
#
# Velocity S-wave (km/s) = 3.43171 3.68967 3.56303
# Velocity P-wave (km/s) = 6.90637 7.10325 7.00550
#
# Compressibility (1/GPa) = 0.01724729
#
# Stress axis : x y z
#
# Youngs Moduli (GPa) = 72.30774 89.07382 97.84331
#
# Poissons Ratio (x) = 0.29827 0.36666
# Poissons Ratio (y) = 0.24213 0.18774
# Poissons Ratio (z) = 0.27097 0.17091
#
# Static dielectric constant tensor:
#      x y z
#    x 4.116330 0.000000 0.000000 
#    y 0.000000 3.454240 0.000000 
#    z 0.000000 0.000000 3.130720 
# 
# 
# High freq. dielectric constant tensor:
#      x y z
#    x 1.709420 0.000000 0.000000 
#    y 0.000000 1.696940 0.000000 
#    z 0.000000 0.000000 1.687640 
# 
# From -- ./inp_files/21508.got.cif
#   From: 2010.03.12/outbox.cif.g09.slc.cpg/sg63_11_cif.got.tgz:21508.got - 2010.04.10 19:34:48.
