data_PCOD8260605
_publ_section_title
;
Structure prediction by ZEFSAII (Michael W. Deem and Ramdas Pophale) SiO2 
 PCOD8260605
Probable space group: C M C M
;
_chemical_formula_sum "Si O2"
_cell_formula_units_Z 72
_cell_length_a 14.338781
_cell_length_b 30.368128
_cell_length_c 8.814751
_cell_angle_alpha 90.000000
_cell_angle_beta 90.000000
_cell_angle_gamma 90.000000
_cell_volume 3838.312248
_symmetry_space_group_name_H-M "C M C M"
_symmetry_group_IT_number 63
_symmetry_cell_setting 'orthorhombic'
loop_
_space_group_symop_operation_xyz
x,y,z
-x,-y,1/2+z
x,-y,-z
-x,y,1/2-z
-x,-y,-z
x,y,1/2-z
-x,y,z
x,-y,1/2+z
1/2+x,1/2+y,z
1/2-x,1/2-y,1/2+z
1/2+x,1/2-y,-z
1/2-x,1/2+y,1/2-z
1/2-x,1/2-y,-z
1/2+x,1/2+y,1/2-z
1/2-x,1/2+y,z
1/2+x,1/2-y,1/2+z
loop_
_atom_site_type_symbol
_atom_site_label
_atom_site_fract_x
_atom_site_fract_y
_atom_site_fract_z
Si Si1 0.500000 0.163785 0.928708
Si Si2 0.188946 0.368396 0.570445
Si Si3 0.000000 0.953085 0.572342
Si Si4 0.000000 0.756887 0.077556
Si Si5 0.300004 0.708629 0.573395
Si Si6 0.201483 0.047353 0.071712
O O1 0.500000 0.158058 0.750000
O O2 0.410322 0.140022 0.996332
O O3 0.500000 0.215346 0.966692
O O4 0.181311 0.362410 0.750000
O O5 0.266562 0.335088 0.509413
O O6 0.220349 0.417522 0.522907
O O7 0.900497 0.931879 0.522124
O O8 0.000000 0.958498 0.750000
O O9 0.000000 0.000000 0.500000
O O10 0.910611 0.787313 0.047502
O O11 0.000000 0.738629 0.250000
O O12 0.273348 0.706442 0.750000
O O13 0.250000 0.750000 0.500000
O O14 0.203491 0.039964 0.250000
O O15 0.223585 0.000000 0.000000
#
# Coordination Sequence:
#
# PCOD8260605 Si02
#       6
#     8  16   8   8  16  16
#     4  12  24  38  60  84 108 150 200 240 288 353
#     4  11  23  39  59  85 118 153 191 241 296 348
#     4   8  14  29  52  80 110 143 182 219 270 335
#     4  10  22  39  59  82 118 155 190 239 292 340
#     4  11  22  37  58  85 115 152 193 237 286 340
#     4   9  19  35  58  85 116 153 190 235 287 340
#
# _framework density 18.758244999999999
#
# number of rings (size 3 to 8) (size 9 to 14) (size 15 to 20)
#    0.000    1.778    2.222    2.333    0.000    3.556 
#    0.000    1.667    0.000    4.000    0.000    0.000 
#    0.000    0.000    0.000    0.000    0.000    0.000 
#
# Total GULP energy -446211.476206 kJ/mol
# GULP energy per Si atom -12394.763228 kJ/mol
# Density = 1.871555 g / cm^3
# Si number density = 18.758245 Si / 1000 Ang^3
#
#
#
# Elastic Constant Matrix: (Units=GPa)
#
#
# Indices 1 2 3 4 5 6 
#
# 1 162.1270 76.0426 62.9605 0.0000 0.0000 0.0000
# 2 76.0426 126.9759 55.1302 0.0000 0.0000 0.0000
# 3 62.9605 55.1302 96.1653 0.0000 0.0000 0.0000
# 4 0.0000 0.0000 0.0000 29.8604 0.0000 0.0000
# 5 0.0000 0.0000 0.0000 0.0000 25.2524 0.0000
# 6 0.0000 0.0000 0.0000 0.0000 0.0000 -3.2875
#
#
#
# Elastic Compliance Matrix: (Units=1/GPa)
#
#
# Indices 1 2 3 4 5 6 
#
# 1 0.009599 -0.004021 -0.003980 0.000000 0.000000 0.000000
# 2 -0.004021 0.012170 -0.004344 0.000000 0.000000 0.000000
# 3 -0.003980 -0.004344 0.015495 0.000000 0.000000 0.000000
# 4 0.000000 0.000000 0.000000 0.033489 0.000000 0.000000
# 5 0.000000 0.000000 0.000000 0.000000 0.039600 0.000000
# 6 0.000000 0.000000 0.000000 0.000000 0.000000 -0.304181
#
#
# Mechanical properties :
#
#
# Convention : Reuss Voigt Hill
#
# Bulk Modulus (GPa) = 79.52745 85.94829 82.73787
# Shear Modulus (GPa) = -30.31280 23.10737 -3.60271
#
# Velocity S-wave (km/s) = -4.02428 3.51358 -1.38736
# Velocity P-wave (km/s) = 4.57110 7.89802 6.45266
#
# Compressibility (1/GPa) = 0.01257427
#
# Stress axis : x y z
#
# Youngs Moduli (GPa) = 104.17281 82.17130 64.53799
#
# Poissons Ratio (x) = 0.33041 0.25684
# Poissons Ratio (y) = 0.41887 0.28036
# Poissons Ratio (z) = 0.41458 0.35696
#
# Static dielectric constant tensor:
#      x y z
#    x 4.504070 0.000000 0.000000 
#    y 0.000000 3.203280 0.000000 
#    z 0.000000 0.000000 3.567750 
# 
# 
# High freq. dielectric constant tensor:
#      x y z
#    x 1.745180 0.000000 0.000000 
#    y 0.000000 1.711350 0.000000 
#    z 0.000000 0.000000 1.735670 
# 
# From -- ./inp_files/4989.got.cif
#   From: 2010.03.12/outbox.cif.g09.slc.cpg/sg63_3_cif.got.tgz:4989.got - 2010.04.10 19:34:48.
