data_PCOD8260172
_publ_section_title
;
Structure prediction by ZEFSAII (Michael W. Deem and Ramdas Pophale) SiO2 
 PCOD8260172
Probable space group: C M C M
;
_chemical_formula_sum "Si O2"
_cell_formula_units_Z 96
_cell_length_a 17.302924
_cell_length_b 16.200500
_cell_length_c 18.849716
_cell_angle_alpha 90.000000
_cell_angle_beta 90.000000
_cell_angle_gamma 90.000000
_cell_volume 5283.877372
_symmetry_space_group_name_H-M "C M C M"
_symmetry_group_IT_number 63
_symmetry_cell_setting 'orthorhombic'
loop_
_space_group_symop_operation_xyz
x,y,z
-x,-y,1/2+z
x,-y,-z
-x,y,1/2-z
-x,-y,-z
x,y,1/2-z
-x,y,z
x,-y,1/2+z
1/2+x,1/2+y,z
1/2-x,1/2-y,1/2+z
1/2+x,1/2-y,-z
1/2-x,1/2+y,1/2-z
1/2-x,1/2-y,-z
1/2+x,1/2+y,1/2-z
1/2-x,1/2+y,z
1/2+x,1/2-y,1/2+z
loop_
_atom_site_type_symbol
_atom_site_label
_atom_site_fract_x
_atom_site_fract_y
_atom_site_fract_z
Si Si1 0.186393 0.776848 0.555115
Si Si2 0.909935 0.087531 0.974237
Si Si3 0.411385 0.057890 0.102705
Si Si4 0.588209 0.878814 0.446233
Si Si5 0.411283 0.334018 0.329776
Si Si6 0.696772 0.179783 0.169929
O O1 0.250000 0.750000 0.500000
O O2 0.128731 0.840394 0.518878
O O3 0.140704 0.695831 0.581398
O O4 0.226664 0.819612 0.622263
O O5 0.894334 0.096643 0.889475
O O6 0.000000 0.092690 0.991759
O O7 0.875585 0.000000 0.000000
O O8 0.500000 0.064798 0.128576
O O9 0.353354 0.096921 0.159449
O O10 0.387744 0.962382 0.094138
O O11 0.400408 0.107961 0.029874
O O12 0.500000 0.856700 0.429205
O O13 0.394621 0.368587 0.250000
O O14 0.500000 0.304002 0.335498
O O15 0.357955 0.256763 0.348210
O O16 0.726312 0.182333 0.250000
#
# Coordination Sequence:
#
# PCOD8260172 Si02
#       6
#    16  16  16  16  16  16
#     4  12  21  34  55  80 111 150 183 225 274 328
#     4  10  21  37  58  83 108 143 193 236 267 317
#     4   9  17  32  55  84 111 137 175 223 276 329
#     4   9  18  33  56  82 108 140 183 228 268 321
#     4   9  17  32  55  82 112 142 175 223 281 332
#     4  11  22  35  51  81 117 146 178 221 280 335
#
# _framework density 18.168475999999998
#
# number of rings (size 3 to 8) (size 9 to 14) (size 15 to 20)
#    0.000    2.000    3.333    2.000    0.000    5.000 
#    0.000    1.667    0.000    4.000    0.000    0.000 
#    0.000    0.000    0.000    0.000    0.000    0.000 
#
# Total GULP energy -595199.724129 kJ/mol
# GULP energy per Si atom -12399.994253 kJ/mol
# Density = 1.812712 g / cm^3
# Si number density = 18.168476 Si / 1000 Ang^3
#
#
#
# Elastic Constant Matrix: (Units=GPa)
#
#
# Indices 1 2 3 4 5 6 
#
# 1 65.9723 46.3473 39.5527 0.0000 0.0000 0.0000
# 2 46.3473 111.3778 46.9875 0.0000 0.0000 0.0000
# 3 39.5527 46.9875 97.9434 0.0000 0.0000 0.0000
# 4 0.0000 0.0000 0.0000 26.7346 0.0000 0.0000
# 5 0.0000 0.0000 0.0000 0.0000 24.7585 0.0000
# 6 0.0000 0.0000 0.0000 0.0000 0.0000 12.6768
#
#
#
# Elastic Compliance Matrix: (Units=1/GPa)
#
#
# Indices 1 2 3 4 5 6 
#
# 1 0.024058 -0.007413 -0.006159 0.000000 0.000000 0.000000
# 2 -0.007413 0.013541 -0.003502 0.000000 0.000000 0.000000
# 3 -0.006159 -0.003502 0.014378 0.000000 0.000000 0.000000
# 4 0.000000 0.000000 0.000000 0.037405 0.000000 0.000000
# 5 0.000000 0.000000 0.000000 0.000000 0.040390 0.000000
# 6 0.000000 0.000000 0.000000 0.000000 0.000000 0.078884
#
#
# Mechanical properties :
#
#
# Convention : Reuss Voigt Hill
#
# Bulk Modulus (GPa) = 56.09349 60.11872 58.10611
# Shear Modulus (GPa) = 20.10071 22.32773 21.21422
#
# Velocity S-wave (km/s) = 3.32979 3.50941 3.42078
# Velocity P-wave (km/s) = 6.76199 7.04150 6.90316
#
# Compressibility (1/GPa) = 0.01782738
#
# Stress axis : x y z
#
# Youngs Moduli (GPa) = 41.56568 73.85107 69.55279
#
# Poissons Ratio (x) = 0.54745 0.42839
# Poissons Ratio (y) = 0.30812 0.24361
# Poissons Ratio (z) = 0.25601 0.25866
#
# Static dielectric constant tensor:
#      x y z
#    x 3.393790 0.000000 0.000000 
#    y 0.000000 3.592420 0.000000 
#    z 0.000000 0.000000 3.320250 
# 
# 
# High freq. dielectric constant tensor:
#      x y z
#    x 1.701780 0.000000 0.000000 
#    y 0.000000 1.697670 0.000000 
#    z 0.000000 0.000000 1.688050 
# 
# From -- ./inp_files/54139.got.cif
#   From: 2010.03.12/outbox.cif.g09.slc.cpg/sg63_28_cif.got.tgz:54139.got - 2010.04.10 19:34:48.
