data_PCOD8260569
_publ_section_title
;
Structure prediction by ZEFSAII (Michael W. Deem and Ramdas Pophale) SiO2 
 PCOD8260569
Probable space group: C M C M
;
_chemical_formula_sum "Si O2"
_cell_formula_units_Z 112
_cell_length_a 15.712910
_cell_length_b 23.366645
_cell_length_c 14.833599
_cell_angle_alpha 90.000000
_cell_angle_beta 90.000000
_cell_angle_gamma 90.000000
_cell_volume 5446.274392
_symmetry_space_group_name_H-M "C M C M"
_symmetry_group_IT_number 63
_symmetry_cell_setting 'orthorhombic'
loop_
_space_group_symop_operation_xyz
x,y,z
-x,-y,1/2+z
x,-y,-z
-x,y,1/2-z
-x,-y,-z
x,y,1/2-z
-x,y,z
x,-y,1/2+z
1/2+x,1/2+y,z
1/2-x,1/2-y,1/2+z
1/2+x,1/2-y,-z
1/2-x,1/2+y,1/2-z
1/2-x,1/2-y,-z
1/2+x,1/2+y,1/2-z
1/2-x,1/2+y,z
1/2+x,1/2-y,1/2+z
loop_
_atom_site_type_symbol
_atom_site_label
_atom_site_fract_x
_atom_site_fract_y
_atom_site_fract_z
Si Si1 0.407327 0.023641 0.648868
Si Si2 0.723917 0.642474 0.355036
Si Si3 0.225297 0.010845 0.401057
Si Si4 0.330670 0.787174 0.521282
Si Si5 0.595372 0.325788 0.004394
Si Si6 0.597319 0.582302 0.849400
Si Si7 0.094953 0.658703 0.848716
O O1 0.397500 0.999554 0.750000
O O2 0.500000 0.002371 0.609765
O O3 0.407495 0.091156 0.649553
O O4 0.325965 0.002431 0.594195
O O5 0.717999 0.659564 0.250000
O O6 0.716238 0.574707 0.365162
O O7 0.812432 0.667997 0.397089
O O8 0.647023 0.670577 0.410986
O O9 0.187969 0.000000 0.500000
O O10 0.165143 0.969640 0.342254
O O11 0.250000 0.750000 0.500000
O O12 0.402622 0.739586 0.543750
O O13 0.346692 0.821517 0.429830
O O14 0.500000 0.342426 0.980218
O O15 0.630256 0.370335 0.079239
O O16 0.597475 0.610672 0.750000
O O17 0.500000 0.561646 0.872126
O O18 0.129833 0.678879 0.750000
O O19 0.000000 0.683461 0.862548
#
# Coordination Sequence:
#
# PCOD8260569 Si02
#       7
#    16  16  16  16  16  16  16
#     4   9  19  35  56  86 119 153 202 256 304 365
#     4  11  24  41  59  90 130 170 213 256 316 387
#     4  12  22  38  64  89 128 172 209 259 322 379
#     4  10  22  38  56  84 121 158 199 250 311 379
#     4  10  22  42  65  90 121 162 214 268 315 369
#     4  10  22  40  63  93 124 160 212 266 318 380
#     4   9  18  35  61  89 115 148 200 263 317 368
#
# _framework density 20.564516999999999
#
# number of rings (size 3 to 8) (size 9 to 14) (size 15 to 20)
#    0.000    1.857    1.429    3.429    2.000    4.286 
#    0.000    1.429    0.000    3.000    0.000    0.000 
#    0.000    0.000    0.000    0.000    0.000    0.000 
#
# Total GULP energy -693796.223559 kJ/mol
# GULP energy per Si atom -12389.218278 kJ/mol
# Density = 2.051771 g / cm^3
# Si number density = 20.564517 Si / 1000 Ang^3
#
#
#
# Elastic Constant Matrix: (Units=GPa)
#
#
# Indices 1 2 3 4 5 6 
#
# 1 86.9331 21.2819 36.2451 0.0000 0.0000 0.0000
# 2 21.2819 83.2039 45.0385 0.0000 0.0000 0.0000
# 3 36.2451 45.0385 148.5926 0.0000 0.0000 0.0000
# 4 0.0000 0.0000 0.0000 19.5916 0.0000 0.0000
# 5 0.0000 0.0000 0.0000 0.0000 30.9506 0.0000
# 6 0.0000 0.0000 0.0000 0.0000 0.0000 23.6335
#
#
#
# Elastic Compliance Matrix: (Units=1/GPa)
#
#
# Indices 1 2 3 4 5 6 
#
# 1 0.013060 -0.001933 -0.002600 0.000000 0.000000 0.000000
# 2 -0.001933 0.014664 -0.003973 0.000000 0.000000 0.000000
# 3 -0.002600 -0.003973 0.008568 0.000000 0.000000 0.000000
# 4 0.000000 0.000000 0.000000 0.051042 0.000000 0.000000
# 5 0.000000 0.000000 0.000000 0.000000 0.032310 0.000000
# 6 0.000000 0.000000 0.000000 0.000000 0.000000 0.042313
#
#
# Mechanical properties :
#
#
# Convention : Reuss Voigt Hill
#
# Bulk Modulus (GPa) = 51.86689 58.20673 55.03681
# Shear Modulus (GPa) = 26.96932 29.24606 28.10769
#
# Velocity S-wave (km/s) = 3.62532 3.77525 3.70104
# Velocity P-wave (km/s) = 6.54219 6.88253 6.71452
#
# Compressibility (1/GPa) = 0.01928012
#
# Stress axis : x y z
#
# Youngs Moduli (GPa) = 76.56798 68.19526 116.71115
#
# Poissons Ratio (x) = 0.13184 0.30342
# Poissons Ratio (y) = 0.14803 0.46370
# Poissons Ratio (z) = 0.19905 0.27094
#
# Static dielectric constant tensor:
#      x y z
#    x 4.854780 0.000000 0.000000 
#    y 0.000000 5.006890 0.000000 
#    z 0.000000 0.000000 4.682130 
# 
# 
# High freq. dielectric constant tensor:
#      x y z
#    x 1.804830 0.000000 0.000000 
#    y 0.000000 1.796190 0.000000 
#    z 0.000000 0.000000 1.803140 
# 
# From -- ./inp_files/32286.got.cif
#   From: 2010.03.12/outbox.cif.g09.slc.cpg/sg63_17_cif.got.tgz:32286.got - 2010.04.10 19:34:48.
