data_PCOD8260029
_publ_section_title
;
Structure prediction by ZEFSAII (Michael W. Deem and Ramdas Pophale) SiO2 
 PCOD8260029
Probable space group: C M C M
;
_chemical_formula_sum "Si O2"
_cell_formula_units_Z 96
_cell_length_a 24.412248
_cell_length_b 22.242621
_cell_length_c 8.842632
_cell_angle_alpha 90.000000
_cell_angle_beta 90.000000
_cell_angle_gamma 90.000000
_cell_volume 4801.481795
_symmetry_space_group_name_H-M "C M C M"
_symmetry_group_IT_number 63
_symmetry_cell_setting 'orthorhombic'
loop_
_space_group_symop_operation_xyz
x,y,z
-x,-y,1/2+z
x,-y,-z
-x,y,1/2-z
-x,-y,-z
x,y,1/2-z
-x,y,z
x,-y,1/2+z
1/2+x,1/2+y,z
1/2-x,1/2-y,1/2+z
1/2+x,1/2-y,-z
1/2-x,1/2+y,1/2-z
1/2-x,1/2-y,-z
1/2+x,1/2+y,1/2-z
1/2-x,1/2+y,z
1/2+x,1/2-y,1/2+z
loop_
_atom_site_type_symbol
_atom_site_label
_atom_site_fract_x
_atom_site_fract_y
_atom_site_fract_z
Si Si1 0.807198 0.240710 0.578885
Si Si2 0.203055 0.103263 0.920436
Si Si3 0.383631 0.166186 0.927453
Si Si4 0.186982 0.434913 0.571542
Si Si5 0.000000 0.154994 0.928639
Si Si6 0.412330 0.560541 0.571584
Si Si7 0.500000 0.215067 0.924858
O O1 0.805765 0.266392 0.750000
O O2 0.750000 0.250000 0.500000
O O3 0.819987 0.170594 0.578576
O O4 0.853476 0.274169 0.484321
O O5 0.221240 0.085268 0.750000
O O6 0.151408 0.064758 0.977354
O O7 0.254313 0.093669 0.030000
O O8 0.372599 0.158473 0.750000
O O9 0.447531 0.174403 0.966557
O O10 0.361605 0.107275 0.011758
O O11 0.179904 0.500000 0.500000
O O12 0.182682 0.440385 0.750000
O O13 0.053394 0.118256 0.985966
O O14 0.000000 0.160771 0.750000
O O15 0.000000 0.222137 0.989545
O O16 0.436963 0.500000 0.500000
O O17 0.418256 0.555848 0.750000
O O18 0.500000 0.232096 0.750000
#
# Coordination Sequence:
#
# PCOD8260029 Si02
#       7
#    16  16  16  16   8  16   8
#     4  11  21  35  59  91 125 162 202 248 303 358
#     4  10  21  37  57  85 123 161 201 249 301 358
#     4  11  23  42  64  91 126 159 200 250 301 361
#     4  12  25  41  63  89 119 157 200 245 304 366
#     4  10  21  39  61  85 117 156 201 252 302 358
#     4  10  21  36  55  82 116 160 206 250 298 348
#     4  10  24  43  66  93 121 156 196 248 305 356
#
# _framework density 19.993827
#
# number of rings (size 3 to 8) (size 9 to 14) (size 15 to 20)
#    0.000    1.333    1.667    4.250    0.000    6.000 
#    0.000    0.417    0.000    0.000    0.000    0.000 
#    0.000    0.000    0.000    0.000    0.000    0.000 
#
# Total GULP energy -595299.157083 kJ/mol
# GULP energy per Si atom -12402.065773 kJ/mol
# Density = 1.994832 g / cm^3
# Si number density = 19.993827 Si / 1000 Ang^3
#
#
#
# Elastic Constant Matrix: (Units=GPa)
#
#
# Indices 1 2 3 4 5 6 
#
# 1 142.4955 53.8730 60.9928 0.0000 0.0000 0.0000
# 2 53.8730 117.4694 48.7160 0.0000 0.0000 0.0000
# 3 60.9928 48.7160 108.1285 0.0000 0.0000 0.0000
# 4 0.0000 0.0000 0.0000 35.9285 0.0000 0.0000
# 5 0.0000 0.0000 0.0000 0.0000 19.0845 0.0000
# 6 0.0000 0.0000 0.0000 0.0000 0.0000 26.1485
#
#
#
# Elastic Compliance Matrix: (Units=1/GPa)
#
#
# Indices 1 2 3 4 5 6 
#
# 1 0.009921 -0.002741 -0.004361 0.000000 0.000000 0.000000
# 2 -0.002741 0.011226 -0.003512 0.000000 0.000000 0.000000
# 3 -0.004361 -0.003512 0.013290 0.000000 0.000000 0.000000
# 4 0.000000 0.000000 0.000000 0.027833 0.000000 0.000000
# 5 0.000000 0.000000 0.000000 0.000000 0.052399 0.000000
# 6 0.000000 0.000000 0.000000 0.000000 0.000000 0.038243
#
#
# Mechanical properties :
#
#
# Convention : Reuss Voigt Hill
#
# Bulk Modulus (GPa) = 75.70226 77.25080 76.47653
# Shear Modulus (GPa) = 28.00439 29.86640 28.93540
#
# Velocity S-wave (km/s) = 3.74659 3.86914 3.80836
# Velocity P-wave (km/s) = 7.52734 7.66039 7.59416
#
# Compressibility (1/GPa) = 0.01320965
#
# Stress axis : x y z
#
# Youngs Moduli (GPa) = 100.79809 89.07630 75.24245
#
# Poissons Ratio (x) = 0.24418 0.32814
# Poissons Ratio (y) = 0.27631 0.26422
# Poissons Ratio (z) = 0.43959 0.31280
#
# Static dielectric constant tensor:
#      x y z
#    x 3.705680 0.000000 0.000000 
#    y 0.000000 3.979490 0.000000 
#    z 0.000000 0.000000 3.689180 
# 
# 
# High freq. dielectric constant tensor:
#      x y z
#    x 1.783660 0.000000 0.000000 
#    y 0.000000 1.785960 0.000000 
#    z 0.000000 0.000000 1.780680 
# 
# From -- ./inp_files/10545.got.cif
#   From: 2010.03.12/outbox.cif.g09.slc.cpg/sg63_6_cif.got.tgz:10545.got - 2010.04.10 19:34:48.
