data_PCOD8260200
_publ_section_title
;
Structure prediction by ZEFSAII (Michael W. Deem and Ramdas Pophale) SiO2 
 PCOD8260200
Probable space group: C M C M
;
_chemical_formula_sum "Si O2"
_cell_formula_units_Z 80
_cell_length_a 8.822500
_cell_length_b 18.405868
_cell_length_c 25.093730
_cell_angle_alpha 90.000000
_cell_angle_beta 90.000000
_cell_angle_gamma 90.000000
_cell_volume 4074.864679
_symmetry_space_group_name_H-M "C M C M"
_symmetry_group_IT_number 63
_symmetry_cell_setting 'orthorhombic'
loop_
_space_group_symop_operation_xyz
x,y,z
-x,-y,1/2+z
x,-y,-z
-x,y,1/2-z
-x,-y,-z
x,y,1/2-z
-x,y,z
x,-y,1/2+z
1/2+x,1/2+y,z
1/2-x,1/2-y,1/2+z
1/2+x,1/2-y,-z
1/2-x,1/2+y,1/2-z
1/2-x,1/2-y,-z
1/2+x,1/2+y,1/2-z
1/2-x,1/2+y,z
1/2+x,1/2-y,1/2+z
loop_
_atom_site_type_symbol
_atom_site_label
_atom_site_fract_x
_atom_site_fract_y
_atom_site_fract_z
Si Si1 0.823242 0.084966 0.848145
Si Si2 0.323610 0.827305 0.062232
Si Si3 0.176459 0.323346 0.939202
Si Si4 0.820610 0.333393 0.250000
Si Si5 0.820187 0.169052 0.250000
Si Si6 0.322406 0.416758 0.647032
O O1 0.767619 0.111971 0.905576
O O2 0.735800 0.127205 0.802499
O O3 0.000000 0.100317 0.841557
O O4 0.785610 0.000452 0.842556
O O5 0.500000 0.833510 0.075917
O O6 0.268324 0.747499 0.079546
O O7 0.288373 0.841802 0.000467
O O8 0.231362 0.391678 0.905034
O O9 0.000000 0.307956 0.930345
O O10 0.758065 0.251044 0.250000
O O11 0.000000 0.333395 0.250000
O O12 0.759969 0.128075 0.302444
O O13 0.000000 0.166091 0.250000
O O14 0.500000 0.403848 0.637241
#
# Coordination Sequence:
#
# PCOD8260200 Si02
#       6
#    16  16  16   8   8  16
#     4  11  23  38  58  85 117 153 194 237 281 338
#     4  10  21  38  59  83 115 153 191 236 290 344
#     4  10  21  37  59  86 114 147 192 242 288 342
#     4  11  22  37  61  87 112 149 194 239 289 342
#     4   9  19  37  59  81 106 143 188 229 277 336
#     4  10  21  38  59  82 114 153 190 233 286 342
#
# _framework density 19.632553999999999
#
# number of rings (size 3 to 8) (size 9 to 14) (size 15 to 20)
#    0.000    1.800    0.000    3.900    0.000    8.000 
#    0.000    5.500    0.000    0.000    0.000    0.000 
#    0.000    0.000    0.000    0.000    0.000    0.000 
#
# Total GULP energy -496250.602580 kJ/mol
# GULP energy per Si atom -12406.265065 kJ/mol
# Density = 1.958787 g / cm^3
# Si number density = 19.632554 Si / 1000 Ang^3
#
#
#
# Elastic Constant Matrix: (Units=GPa)
#
#
# Indices 1 2 3 4 5 6 
#
# 1 59.1365 54.7666 40.8312 0.0000 0.0000 0.0000
# 2 54.7666 141.4431 75.4093 0.0000 0.0000 0.0000
# 3 40.8312 75.4093 113.8464 0.0000 0.0000 0.0000
# 4 0.0000 0.0000 0.0000 29.0811 0.0000 0.0000
# 5 0.0000 0.0000 0.0000 0.0000 35.2180 0.0000
# 6 0.0000 0.0000 0.0000 0.0000 0.0000 33.9492
#
#
#
# Elastic Compliance Matrix: (Units=1/GPa)
#
#
# Indices 1 2 3 4 5 6 
#
# 1 0.027706 -0.008394 -0.004377 0.000000 0.000000 0.000000
# 2 -0.008394 0.013473 -0.005914 0.000000 0.000000 0.000000
# 3 -0.004377 -0.005914 0.014270 0.000000 0.000000 0.000000
# 4 0.000000 0.000000 0.000000 0.034387 0.000000 0.000000
# 5 0.000000 0.000000 0.000000 0.000000 0.028395 0.000000
# 6 0.000000 0.000000 0.000000 0.000000 0.000000 0.029456
#
#
# Mechanical properties :
#
#
# Convention : Reuss Voigt Hill
#
# Bulk Modulus (GPa) = 55.30844 72.93778 64.12311
# Shear Modulus (GPa) = 26.16675 29.21093 27.68884
#
# Velocity S-wave (km/s) = 3.65475 3.86149 3.75954
# Velocity P-wave (km/s) = 6.78546 7.55735 7.18179
#
# Compressibility (1/GPa) = 0.01808042
#
# Stress axis : x y z
#
# Youngs Moduli (GPa) = 36.09336 74.22211 70.07492
#
# Poissons Ratio (x) = 0.62305 0.30668
# Poissons Ratio (y) = 0.30298 0.41439
# Poissons Ratio (z) = 0.15796 0.43892
#
# Static dielectric constant tensor:
#      x y z
#    x 3.511350 0.000000 0.000000 
#    y 0.000000 3.618380 0.000000 
#    z 0.000000 0.000000 3.714370 
# 
# 
# High freq. dielectric constant tensor:
#      x y z
#    x 1.762560 0.000000 0.000000 
#    y 0.000000 1.769680 0.000000 
#    z 0.000000 0.000000 1.777510 
# 
# From -- ./inp_files/66645.got.cif
#   From: 2010.03.12/outbox.cif.g09.slc.cpg/sg63_34_cif.got.tgz:66645.got - 2010.04.10 19:34:48.
