data_PCOD8260170
_publ_section_title
;
Structure prediction by ZEFSAII (Michael W. Deem and Ramdas Pophale) SiO2 
 PCOD8260170
Probable space group: C M C M
;
_chemical_formula_sum "Si O2"
_cell_formula_units_Z 96
_cell_length_a 23.086281
_cell_length_b 25.508205
_cell_length_c 8.746724
_cell_angle_alpha 90.000000
_cell_angle_beta 90.000000
_cell_angle_gamma 90.000000
_cell_volume 5150.854697
_symmetry_space_group_name_H-M "C M C M"
_symmetry_group_IT_number 63
_symmetry_cell_setting 'orthorhombic'
loop_
_space_group_symop_operation_xyz
x,y,z
-x,-y,1/2+z
x,-y,-z
-x,y,1/2-z
-x,-y,-z
x,y,1/2-z
-x,y,z
x,-y,1/2+z
1/2+x,1/2+y,z
1/2-x,1/2-y,1/2+z
1/2+x,1/2-y,-z
1/2-x,1/2+y,1/2-z
1/2-x,1/2-y,-z
1/2+x,1/2+y,1/2-z
1/2-x,1/2+y,z
1/2+x,1/2-y,1/2+z
loop_
_atom_site_type_symbol
_atom_site_label
_atom_site_fract_x
_atom_site_fract_y
_atom_site_fract_z
Si Si1 0.251556 0.692852 0.572685
Si Si2 0.065536 0.446904 0.429681
Si Si3 0.363349 0.649757 0.070269
Si Si4 0.433785 0.444790 0.430235
Si Si5 0.877620 0.659535 0.573194
Si Si6 0.932552 0.757721 0.426492
O O1 0.267517 0.698921 0.750000
O O2 0.250000 0.750000 0.500000
O O3 0.298352 0.655993 0.491191
O O4 0.190521 0.664853 0.547733
O O5 0.091976 0.500000 0.500000
O O6 0.066765 0.453033 0.250000
O O7 0.104666 0.398236 0.482650
O O8 0.000000 0.437914 0.489241
O O9 0.361932 0.641155 0.250000
O O10 0.392330 0.599842 0.993015
O O11 0.398801 0.701976 0.032959
O O12 0.413983 0.500000 0.500000
O O13 0.427111 0.447834 0.250000
O O14 0.500000 0.431918 0.477638
O O15 0.894714 0.669104 0.750000
O O16 0.912974 0.699580 0.468815
O O17 0.917771 0.769234 0.250000
O O18 0.000000 0.764414 0.459030
#
# Coordination Sequence:
#
# PCOD8260170 Si02
#       6
#    16  16  16  16  16  16
#     4  11  22  38  59  83 113 152 196 240 290 345
#     4   9  18  34  56  82 112 145 182 225 275 332
#     4  12  24  38  58  84 115 155 197 237 287 344
#     4  10  21  39  63  90 120 153 191 239 294 351
#     4  10  21  37  58  82 110 148 190 233 284 344
#     4  11  23  36  54  83 116 147 183 235 293 346
#
# _framework density 18.637682999999999
#
# number of rings (size 3 to 8) (size 9 to 14) (size 15 to 20)
#    0.000    1.500    1.667    4.000    0.000    6.333 
#    0.000    2.500    0.000    2.000    0.000    0.000 
#    0.000    0.000    0.000    0.000    0.000    0.000 
#
# Total GULP energy -595440.370670 kJ/mol
# GULP energy per Si atom -12405.007722 kJ/mol
# Density = 1.859526 g / cm^3
# Si number density = 18.637683 Si / 1000 Ang^3
#
#
#
# Elastic Constant Matrix: (Units=GPa)
#
#
# Indices 1 2 3 4 5 6 
#
# 1 63.7491 40.7260 21.7918 0.0000 0.0000 0.0000
# 2 40.7260 136.4800 28.2923 0.0000 0.0000 0.0000
# 3 21.7918 28.2923 62.2163 0.0000 0.0000 0.0000
# 4 0.0000 0.0000 0.0000 37.7523 0.0000 0.0000
# 5 0.0000 0.0000 0.0000 0.0000 26.4608 0.0000
# 6 0.0000 0.0000 0.0000 0.0000 0.0000 -72.5742
#
#
#
# Elastic Compliance Matrix: (Units=1/GPa)
#
#
# Indices 1 2 3 4 5 6 
#
# 1 0.020647 -0.005147 -0.004891 0.000000 0.000000 0.000000
# 2 -0.005147 0.009373 -0.002459 0.000000 0.000000 0.000000
# 3 -0.004891 -0.002459 0.018904 0.000000 0.000000 0.000000
# 4 0.000000 0.000000 0.000000 0.026488 0.000000 0.000000
# 5 0.000000 0.000000 0.000000 0.000000 0.037792 0.000000
# 6 0.000000 0.000000 0.000000 0.000000 0.000000 -0.013779
#
#
# Mechanical properties :
#
#
# Convention : Reuss Voigt Hill
#
# Bulk Modulus (GPa) = 41.79060 49.34063 45.56561
# Shear Modulus (GPa) = 37.76534 9.77013 23.76773
#
# Velocity S-wave (km/s) = 4.50632 2.29206 3.57494
# Velocity P-wave (km/s) = 7.03897 5.79101 6.44527
#
# Compressibility (1/GPa) = 0.02392883
#
# Stress axis : x y z
#
# Youngs Moduli (GPa) = 48.43402 106.69154 52.89755
#
# Poissons Ratio (x) = 0.54915 0.25873
# Poissons Ratio (y) = 0.24929 0.13010
# Poissons Ratio (z) = 0.23689 0.26239
#
# Static dielectric constant tensor:
#      x y z
#    x 3.706440 0.000000 0.000000 
#    y 0.000000 3.497010 0.000000 
#    z 0.000000 0.000000 3.440240 
# 
# 
# High freq. dielectric constant tensor:
#      x y z
#    x 1.724240 0.000000 0.000000 
#    y 0.000000 1.727170 0.000000 
#    z 0.000000 0.000000 1.732230 
# 
# From -- ./inp_files/10457.got.cif
#   From: 2010.03.12/outbox.cif.g09.slc.cpg/sg63_6_cif.got.tgz:10457.got - 2010.04.10 19:34:48.
