data_PCOD8260824
_publ_section_title
;
Structure prediction by ZEFSAII (Michael W. Deem and Ramdas Pophale) SiO2 
 PCOD8260824
Probable space group: C M C M
;
_chemical_formula_sum "Si O2"
_cell_formula_units_Z 96
_cell_length_a 24.534541
_cell_length_b 14.089971
_cell_length_c 14.317514
_cell_angle_alpha 90.000000
_cell_angle_beta 90.000000
_cell_angle_gamma 90.000000
_cell_volume 4949.435320
_symmetry_space_group_name_H-M "C M C M"
_symmetry_group_IT_number 63
_symmetry_cell_setting 'orthorhombic'
loop_
_space_group_symop_operation_xyz
x,y,z
-x,-y,1/2+z
x,-y,-z
-x,y,1/2-z
-x,-y,-z
x,y,1/2-z
-x,y,z
x,-y,1/2+z
1/2+x,1/2+y,z
1/2-x,1/2-y,1/2+z
1/2+x,1/2-y,-z
1/2-x,1/2+y,1/2-z
1/2-x,1/2-y,-z
1/2+x,1/2+y,1/2-z
1/2-x,1/2+y,z
1/2+x,1/2-y,1/2+z
loop_
_atom_site_type_symbol
_atom_site_label
_atom_site_fract_x
_atom_site_fract_y
_atom_site_fract_z
Si Si1 0.218038 0.271051 0.854615
Si Si2 0.238213 0.516295 0.107223
Si Si3 0.937573 0.872572 0.356360
Si Si4 0.671816 0.165453 0.851908
Si Si5 0.641474 0.545976 0.147118
Si Si6 0.867639 0.213491 0.500536
O O1 0.197622 0.245312 0.750000
O O2 0.211146 0.382656 0.871752
O O3 0.281068 0.244090 0.866172
O O4 0.184497 0.212055 0.930825
O O5 0.195885 0.439632 0.146047
O O6 0.297182 0.505126 0.154490
O O7 0.247458 0.500000 0.000000
O O8 0.929110 0.835964 0.250000
O O9 0.920462 0.791407 0.431582
O O10 0.000000 0.901044 0.373524
O O11 0.900031 0.962559 0.378627
O O12 0.644150 0.179075 0.750000
O O13 0.629822 0.190432 0.936350
O O14 0.626631 0.587260 0.250000
O O15 0.635753 0.624571 0.068280
#
# Coordination Sequence:
#
# PCOD8260824 Si02
#       6
#    16  16  16  16  16  16
#     4  11  22  36  53  80 116 156 202 243 280 338
#     4  12  21  35  54  80 118 162 200 236 284 339
#     4  10  23  42  62  85 112 146 194 247 296 346
#     4  11  22  34  50  77 116 156 196 239 283 340
#     4  11  22  35  54  81 116 157 197 237 282 338
#     4  12  21  35  55  81 111 151 195 236 288 340
#
# _framework density 19.396151
#
# number of rings (size 3 to 8) (size 9 to 14) (size 15 to 20)
#    0.000    0.833    3.333    6.500    0.000    4.000 
#    0.000    0.000    0.000    1.500    0.000    2.333 
#    0.000    2.667    0.000    0.167    0.000    0.000 
#
# Total GULP energy -595086.187632 kJ/mol
# GULP energy per Si atom -12397.628909 kJ/mol
# Density = 1.935200 g / cm^3
# Si number density = 19.396151 Si / 1000 Ang^3
#
#
#
# Elastic Constant Matrix: (Units=GPa)
#
#
# Indices 1 2 3 4 5 6 
#
# 1 73.5481 25.9274 36.5458 0.0000 0.0000 0.0000
# 2 25.9274 90.0151 38.2833 0.0000 0.0000 0.0000
# 3 36.5458 38.2833 145.3986 0.0000 0.0000 0.0000
# 4 0.0000 0.0000 0.0000 38.6786 0.0000 0.0000
# 5 0.0000 0.0000 0.0000 0.0000 28.3131 0.0000
# 6 0.0000 0.0000 0.0000 0.0000 0.0000 10.4042
#
#
#
# Elastic Compliance Matrix: (Units=1/GPa)
#
#
# Indices 1 2 3 4 5 6 
#
# 1 0.016384 -0.003342 -0.003238 0.000000 0.000000 0.000000
# 2 -0.003342 0.013192 -0.002633 0.000000 0.000000 0.000000
# 3 -0.003238 -0.002633 0.008385 0.000000 0.000000 0.000000
# 4 0.000000 0.000000 0.000000 0.025854 0.000000 0.000000
# 5 0.000000 0.000000 0.000000 0.000000 0.035319 0.000000
# 6 0.000000 0.000000 0.000000 0.000000 0.000000 0.096115
#
#
# Mechanical properties :
#
#
# Convention : Reuss Voigt Hill
#
# Bulk Modulus (GPa) = 51.19390 56.71941 53.95666
# Shear Modulus (GPa) = 22.70795 29.35953 26.03374
#
# Velocity S-wave (km/s) = 3.42533 3.89482 3.66760
# Velocity P-wave (km/s) = 6.48806 7.03792 6.76858
#
# Compressibility (1/GPa) = 0.01953358
#
# Stress axis : x y z
#
# Youngs Moduli (GPa) = 61.03657 75.80458 119.26184
#
# Poissons Ratio (x) = 0.25333 0.38618
# Poissons Ratio (y) = 0.20398 0.31407
# Poissons Ratio (z) = 0.19764 0.19962
#
# Static dielectric constant tensor:
#      x y z
#    x 3.230090 0.000000 0.000000 
#    y 0.000000 3.790960 0.000000 
#    z 0.000000 0.000000 4.254990 
# 
# 
# High freq. dielectric constant tensor:
#      x y z
#    x 1.691730 0.000000 0.000000 
#    y 0.000000 1.742740 0.000000 
#    z 0.000000 0.000000 1.798090 
# 
# From -- ./inp_files/35308.got.cif
#   From: 2010.03.12/outbox.cif.g09.slc.cpg/sg63_18_cif.got.tgz:35308.got - 2010.04.10 19:34:48.
