data_PCOD8260101
_publ_section_title
;
Structure prediction by ZEFSAII (Michael W. Deem and Ramdas Pophale) SiO2 
 PCOD8260101
Probable space group: C M C M
;
_chemical_formula_sum "Si O2"
_cell_formula_units_Z 96
_cell_length_a 9.005440
_cell_length_b 19.847730
_cell_length_c 29.635615
_cell_angle_alpha 90.000000
_cell_angle_beta 90.000000
_cell_angle_gamma 90.000000
_cell_volume 5296.996970
_symmetry_space_group_name_H-M "C M C M"
_symmetry_group_IT_number 63
_symmetry_cell_setting 'orthorhombic'
loop_
_space_group_symop_operation_xyz
x,y,z
-x,-y,1/2+z
x,-y,-z
-x,y,1/2-z
-x,-y,-z
x,y,1/2-z
-x,y,z
x,-y,1/2+z
1/2+x,1/2+y,z
1/2-x,1/2-y,1/2+z
1/2+x,1/2-y,-z
1/2-x,1/2+y,1/2-z
1/2-x,1/2-y,-z
1/2+x,1/2+y,1/2-z
1/2-x,1/2+y,z
1/2+x,1/2-y,1/2+z
loop_
_atom_site_type_symbol
_atom_site_label
_atom_site_fract_x
_atom_site_fract_y
_atom_site_fract_z
Si Si1 0.330829 0.700520 0.697727
Si Si2 0.172679 0.049320 0.460769
Si Si3 0.170294 0.797593 0.534746
Si Si4 0.670094 0.454990 0.197690
Si Si5 0.324645 0.056036 0.366960
Si Si6 0.824764 0.804890 0.635934
O O1 0.303217 0.716065 0.750000
O O2 0.500000 0.718211 0.684525
O O3 0.297139 0.622925 0.686995
O O4 0.217995 0.745521 0.669495
O O5 0.199956 0.124931 0.478298
O O6 0.265071 0.034272 0.415887
O O7 0.000000 0.037334 0.449270
O O8 0.229023 0.000000 0.500000
O O9 0.250000 0.750000 0.500000
O O10 0.227457 0.784463 0.585604
O O11 0.000000 0.778601 0.531303
O O12 0.699917 0.470387 0.250000
O O13 0.500000 0.472526 0.185293
O O14 0.782593 0.498661 0.168530
O O15 0.500000 0.063936 0.369115
O O16 0.254571 0.125989 0.349793
O O17 0.000000 0.818030 0.637262
#
# Coordination Sequence:
#
# PCOD8260101 Si02
#       6
#    16  16  16  16  16  16
#     4   9  19  36  57  81 107 136 174 218 263 313
#     4   9  19  37  57  76 102 138 178 217 260 313
#     4   9  19  34  52  75 102 133 170 211 254 305
#     4   9  19  37  58  78 105 142 179 216 263 319
#     4  11  22  35  54  80 109 140 177 223 267 309
#     4  10  21  37  55  77 107 142 179 216 260 316
#
# _framework density 18.123476
#
# number of rings (size 3 to 8) (size 9 to 14) (size 15 to 20)
#    0.000    2.500    0.000    4.000    0.000    7.000 
#    0.000    6.667    0.000    0.000    0.000    0.000 
#    0.000    0.000    0.000    0.000    0.000    0.000 
#
# Total GULP energy -595287.545655 kJ/mol
# GULP energy per Si atom -12401.823868 kJ/mol
# Density = 1.808223 g / cm^3
# Si number density = 18.123476 Si / 1000 Ang^3
#
#
#
# Elastic Constant Matrix: (Units=GPa)
#
#
# Indices 1 2 3 4 5 6 
#
# 1 88.1610 49.3266 47.6968 0.0000 0.0000 0.0000
# 2 49.3266 99.1357 69.3376 0.0000 0.0000 0.0000
# 3 47.6968 69.3376 88.6838 0.0000 0.0000 0.0000
# 4 0.0000 0.0000 0.0000 41.3772 0.0000 0.0000
# 5 0.0000 0.0000 0.0000 0.0000 34.0948 0.0000
# 6 0.0000 0.0000 0.0000 0.0000 0.0000 34.8867
#
#
#
# Elastic Compliance Matrix: (Units=1/GPa)
#
#
# Indices 1 2 3 4 5 6 
#
# 1 0.016868 -0.004519 -0.005539 0.000000 0.000000 0.000000
# 2 -0.004519 0.023470 -0.015920 0.000000 0.000000 0.000000
# 3 -0.005539 -0.015920 0.026702 0.000000 0.000000 0.000000
# 4 0.000000 0.000000 0.000000 0.024168 0.000000 0.000000
# 5 0.000000 0.000000 0.000000 0.000000 0.029330 0.000000
# 6 0.000000 0.000000 0.000000 0.000000 0.000000 0.028664
#
#
# Mechanical properties :
#
#
# Convention : Reuss Voigt Hill
#
# Bulk Modulus (GPa) = 66.29207 67.63362 66.96284
# Shear Modulus (GPa) = 24.24991 29.37973 26.81482
#
# Velocity S-wave (km/s) = 3.66189 4.03064 3.85068
# Velocity P-wave (km/s) = 7.38489 7.68509 7.53649
#
# Compressibility (1/GPa) = 0.01508476
#
# Stress axis : x y z
#
# Youngs Moduli (GPa) = 59.28428 42.60688 37.45017
#
# Poissons Ratio (x) = 0.19253 0.20744
# Poissons Ratio (y) = 0.26789 0.59621
# Poissons Ratio (z) = 0.32838 0.67830
#
# Static dielectric constant tensor:
#      x y z
#    x 3.250980 0.000000 0.000000 
#    y 0.000000 3.363600 0.000000 
#    z 0.000000 0.000000 3.359700 
# 
# 
# High freq. dielectric constant tensor:
#      x y z
#    x 1.698770 0.000000 0.000000 
#    y 0.000000 1.705470 0.000000 
#    z 0.000000 0.000000 1.703530 
# 
# From -- ./inp_files/67000.got.cif
#   From: 2010.03.12/outbox.cif.g09.slc.cpg/sg63_34_cif.got.tgz:67000.got - 2010.04.10 19:34:48.
