data_PCOD8260632
_publ_section_title
;
Structure prediction by ZEFSAII (Michael W. Deem and Ramdas Pophale) SiO2 
 PCOD8260632
Probable space group: C M C M
;
_chemical_formula_sum "Si O2"
_cell_formula_units_Z 80
_cell_length_a 15.244866
_cell_length_b 8.748489
_cell_length_c 28.402073
_cell_angle_alpha 90.000000
_cell_angle_beta 90.000000
_cell_angle_gamma 90.000000
_cell_volume 3787.971482
_symmetry_space_group_name_H-M "C M C M"
_symmetry_group_IT_number 63
_symmetry_cell_setting 'orthorhombic'
loop_
_space_group_symop_operation_xyz
x,y,z
-x,-y,1/2+z
x,-y,-z
-x,y,1/2-z
-x,-y,-z
x,y,1/2-z
-x,y,z
x,-y,1/2+z
1/2+x,1/2+y,z
1/2-x,1/2-y,1/2+z
1/2+x,1/2-y,-z
1/2-x,1/2+y,1/2-z
1/2-x,1/2-y,-z
1/2+x,1/2+y,1/2-z
1/2-x,1/2+y,z
1/2+x,1/2-y,1/2+z
loop_
_atom_site_type_symbol
_atom_site_label
_atom_site_fract_x
_atom_site_fract_y
_atom_site_fract_z
Si Si1 0.500000 0.770069 0.936461
Si Si2 0.355334 0.019671 0.549943
Si Si3 0.000000 0.816262 0.637371
Si Si4 0.825790 0.306141 0.803831
Si Si5 0.824507 0.377540 0.147436
Si Si6 0.000000 0.145204 0.665385
Si Si7 0.500000 0.732368 0.463500
O O1 0.500000 0.669799 0.890236
O O2 0.587034 0.873506 0.935736
O O3 0.500000 0.660010 0.983489
O O4 0.295978 0.060616 0.595310
O O5 0.415510 0.162578 0.538920
O O6 0.301752 0.000000 0.500000
O O7 0.915647 0.712557 0.646878
O O8 0.000000 0.876459 0.582518
O O9 0.000000 0.961504 0.672067
O O10 0.795158 0.295938 0.750000
O O11 0.837712 0.482486 0.817104
O O12 0.751955 0.233390 0.836473
O O13 0.915858 0.215278 0.809635
#
# Coordination Sequence:
#
# PCOD8260632 Si02
#       7
#     8  16   8  16  16   8   8
#     4   9  14  30  59  93 123 164 202 247 304 362
#     4   8  14  30  60  93 124 161 201 245 304 374
#     4  10  22  39  65  95 127 167 201 251 307 373
#     4  12  26  44  65  90 121 162 212 267 319 370
#     4  11  22  43  67  92 126 165 205 258 315 373
#     4  12  23  40  65  92 127 162 215 258 311 371
#     4   7  14  27  55  90 127 161 204 240 294 369
#
# _framework density 21.119482999999999
#
# number of rings (size 3 to 8) (size 9 to 14) (size 15 to 20)
#    0.000    2.000    2.000    4.500    0.000    0.400 
#    0.000    5.500    4.400    0.000    0.000    0.000 
#    0.000    0.000    0.000    0.000    0.000    0.000 
#
# Total GULP energy -495649.380341 kJ/mol
# GULP energy per Si atom -12391.234509 kJ/mol
# Density = 2.107141 g / cm^3
# Si number density = 21.119483 Si / 1000 Ang^3
#
#
#
# Elastic Constant Matrix: (Units=GPa)
#
#
# Indices 1 2 3 4 5 6 
#
# 1 91.4974 21.9261 39.1500 0.0000 0.0000 0.0000
# 2 21.9261 78.2546 26.0340 0.0000 0.0000 0.0000
# 3 39.1500 26.0340 141.5134 0.0000 0.0000 0.0000
# 4 0.0000 0.0000 0.0000 23.8547 0.0000 0.0000
# 5 0.0000 0.0000 0.0000 0.0000 -14.1601 0.0000
# 6 0.0000 0.0000 0.0000 0.0000 0.0000 23.0886
#
#
#
# Elastic Compliance Matrix: (Units=1/GPa)
#
#
# Indices 1 2 3 4 5 6 
#
# 1 0.012867 -0.002579 -0.003085 0.000000 0.000000 0.000000
# 2 -0.002579 0.014129 -0.001886 0.000000 0.000000 0.000000
# 3 -0.003085 -0.001886 0.008267 0.000000 0.000000 0.000000
# 4 0.000000 0.000000 0.000000 0.041920 0.000000 0.000000
# 5 0.000000 0.000000 0.000000 0.000000 -0.070621 0.000000
# 6 0.000000 0.000000 0.000000 0.000000 0.000000 0.043311
#
#
# Mechanical properties :
#
#
# Convention : Reuss Voigt Hill
#
# Bulk Modulus (GPa) = 49.59559 53.94284 51.76921
# Shear Modulus (GPa) = 69.73981 21.50034 45.62007
#
# Velocity S-wave (km/s) = 5.75267 3.19413 4.65272
# Velocity P-wave (km/s) = 8.22549 6.26103 7.30955
#
# Compressibility (1/GPa) = 0.02016308
#
# Stress axis : x y z
#
# Youngs Moduli (GPa) = 77.71560 70.77767 120.96334
#
# Poissons Ratio (x) = 0.18253 0.37322
# Poissons Ratio (y) = 0.20042 0.22811
# Poissons Ratio (z) = 0.23978 0.13347
#
# Static dielectric constant tensor:
#      x y z
#    x 3.275030 0.000000 0.000000 
#    y 0.000000 3.665040 0.000000 
#    z 0.000000 0.000000 4.385070 
# 
# 
# High freq. dielectric constant tensor:
#      x y z
#    x 1.797020 0.000000 0.000000 
#    y 0.000000 1.820340 0.000000 
#    z 0.000000 0.000000 1.849560 
# 
# From -- ./inp_files/69816.got.cif
#   From: 2010.03.12/outbox.cif.g09.slc.cpg/sg63_35_cif.got.tgz:69816.got - 2010.04.10 19:34:48.
