data_PCOD8260359
_publ_section_title
;
Structure prediction by ZEFSAII (Michael W. Deem and Ramdas Pophale) SiO2 
 PCOD8260359
Probable space group: C M C M
;
_chemical_formula_sum "Si O2"
_cell_formula_units_Z 88
_cell_length_a 13.154100
_cell_length_b 19.879598
_cell_length_c 16.758492
_cell_angle_alpha 90.000000
_cell_angle_beta 90.000000
_cell_angle_gamma 90.000000
_cell_volume 4382.315829
_symmetry_space_group_name_H-M "C M C M"
_symmetry_group_IT_number 63
_symmetry_cell_setting 'orthorhombic'
loop_
_space_group_symop_operation_xyz
x,y,z
-x,-y,1/2+z
x,-y,-z
-x,y,1/2-z
-x,-y,-z
x,y,1/2-z
-x,y,z
x,-y,1/2+z
1/2+x,1/2+y,z
1/2-x,1/2-y,1/2+z
1/2+x,1/2-y,-z
1/2-x,1/2+y,1/2-z
1/2-x,1/2-y,-z
1/2+x,1/2+y,1/2-z
1/2-x,1/2+y,z
1/2+x,1/2-y,1/2+z
loop_
_atom_site_type_symbol
_atom_site_label
_atom_site_fract_x
_atom_site_fract_y
_atom_site_fract_z
Si Si1 0.000000 0.203652 0.446654
Si Si2 0.000000 0.333595 0.159215
Si Si3 0.778928 0.036219 0.154867
Si Si4 0.171953 0.777447 0.061714
Si Si5 0.115374 0.645963 0.343108
Si Si6 0.500000 0.420500 0.844022
Si Si7 0.283461 0.891437 0.158082
O O1 0.000000 0.277907 0.409561
O O2 0.908370 0.187127 0.505013
O O3 0.000000 0.156468 0.370066
O O4 0.097051 0.380460 0.145673
O O5 0.000000 0.303476 0.250000
O O6 0.774713 0.037531 0.250000
O O7 0.699602 0.093154 0.123247
O O8 0.895115 0.046208 0.123905
O O9 0.743404 0.964096 0.120975
O O10 0.125984 0.717217 0.113662
O O11 0.219200 0.832833 0.118636
O O12 0.250000 0.750000 0.000000
O O13 0.134852 0.658632 0.250000
O O14 0.000000 0.618708 0.357656
O O15 0.500000 0.422650 0.750000
O O16 0.252357 0.890180 0.250000
#
# Coordination Sequence:
#
# PCOD8260359 Si02
#       7
#     8   8  16  16  16   8  16
#     4  12  23  39  60  89 122 161 207 248 303 354
#     4  10  21  38  64  91 118 154 206 260 304 355
#     4   9  20  38  64  92 121 157 205 259 308 360
#     4  12  23  39  59  86 128 161 198 248 302 365
#     4  10  21  39  62  90 121 160 206 251 304 367
#     4  10  21  41  65  90 122 161 209 260 303 361
#     4  10  22  40  64  93 121 159 205 254 309 364
#
# _framework density 20.080707
#
# number of rings (size 3 to 8) (size 9 to 14) (size 15 to 20)
#    0.000    1.636    2.727    1.909    1.273    0.727 
#    0.000    5.455    0.000    2.182    0.000    0.000 
#    0.000    0.000    0.000    0.000    0.000    0.000 
#
# Total GULP energy -545411.085489 kJ/mol
# GULP energy per Si atom -12395.706488 kJ/mol
# Density = 2.003500 g / cm^3
# Si number density = 20.080707 Si / 1000 Ang^3
#
#
#
# Elastic Constant Matrix: (Units=GPa)
#
#
# Indices 1 2 3 4 5 6 
#
# 1 161.7518 57.2137 31.5353 0.0000 0.0000 0.0000
# 2 57.2137 122.7958 25.4612 0.0000 0.0000 0.0000
# 3 31.5353 25.4612 38.0581 0.0000 0.0000 0.0000
# 4 0.0000 0.0000 0.0000 9.8314 0.0000 0.0000
# 5 0.0000 0.0000 0.0000 0.0000 25.4263 0.0000
# 6 0.0000 0.0000 0.0000 0.0000 0.0000 30.8787
#
#
#
# Elastic Compliance Matrix: (Units=1/GPa)
#
#
# Indices 1 2 3 4 5 6 
#
# 1 0.008111 -0.002770 -0.004868 0.000000 0.000000 0.000000
# 2 -0.002770 0.010401 -0.004663 0.000000 0.000000 0.000000
# 3 -0.004868 -0.004663 0.033429 0.000000 0.000000 0.000000
# 4 0.000000 0.000000 0.000000 0.101715 0.000000 0.000000
# 5 0.000000 0.000000 0.000000 0.000000 0.039329 0.000000
# 6 0.000000 0.000000 0.000000 0.000000 0.000000 0.032385
#
#
# Mechanical properties :
#
#
# Convention : Reuss Voigt Hill
#
# Bulk Modulus (GPa) = 36.57763 61.22513 48.90138
# Shear Modulus (GPa) = 19.29869 27.12032 23.20950
#
# Velocity S-wave (km/s) = 3.10345 3.67899 3.40341
# Velocity P-wave (km/s) = 5.57645 6.97154 6.31265
#
# Compressibility (1/GPa) = 0.02733911
#
# Stress axis : x y z
#
# Youngs Moduli (GPa) = 123.28816 96.14418 29.91416
#
# Poissons Ratio (x) = 0.26630 0.14562
# Poissons Ratio (y) = 0.34149 0.13950
# Poissons Ratio (z) = 0.60015 0.44835
#
# Static dielectric constant tensor:
#      x y z
#    x 4.021310 0.000000 0.000000 
#    y 0.000000 3.694420 0.000000 
#    z 0.000000 0.000000 3.501230 
# 
# 
# High freq. dielectric constant tensor:
#      x y z
#    x 1.804770 0.000000 0.000000 
#    y 0.000000 1.778070 0.000000 
#    z 0.000000 0.000000 1.771400 
# 
# From -- ./inp_files/42319.got.cif
#   From: 2010.03.12/outbox.cif.g09.slc.cpg/sg63_22_cif.got.tgz:42319.got - 2010.04.10 19:34:48.
