data_PCOD8260102
_publ_section_title
;
Structure prediction by ZEFSAII (Michael W. Deem and Ramdas Pophale) SiO2 
 PCOD8260102
Probable space group: C M C M
;
_chemical_formula_sum "Si O2"
_cell_formula_units_Z 80
_cell_length_a 9.293729
_cell_length_b 24.917056
_cell_length_c 19.716899
_cell_angle_alpha 90.000000
_cell_angle_beta 90.000000
_cell_angle_gamma 90.000000
_cell_volume 4565.888950
_symmetry_space_group_name_H-M "C M C M"
_symmetry_group_IT_number 63
_symmetry_cell_setting 'orthorhombic'
loop_
_space_group_symop_operation_xyz
x,y,z
-x,-y,1/2+z
x,-y,-z
-x,y,1/2-z
-x,-y,-z
x,y,1/2-z
-x,y,z
x,-y,1/2+z
1/2+x,1/2+y,z
1/2-x,1/2-y,1/2+z
1/2+x,1/2-y,-z
1/2-x,1/2+y,1/2-z
1/2-x,1/2-y,-z
1/2+x,1/2+y,1/2-z
1/2-x,1/2+y,z
1/2+x,1/2-y,1/2+z
loop_
_atom_site_type_symbol
_atom_site_label
_atom_site_fract_x
_atom_site_fract_y
_atom_site_fract_z
Si Si1 0.835709 0.888987 0.052498
Si Si2 0.337301 0.011869 0.579378
Si Si3 0.334431 0.411379 0.898740
Si Si4 0.334796 0.696674 0.171149
Si Si5 0.831746 0.232767 0.932689
O O1 0.738685 0.931219 0.094014
O O2 0.806459 0.830052 0.081720
O O3 0.000000 0.906731 0.062789
O O4 0.796372 0.888470 0.972961
O O5 0.500000 0.015413 0.605341
O O6 0.326539 0.000000 0.500000
O O7 0.259106 0.963787 0.619466
O O8 0.500000 0.428753 0.894016
O O9 0.295700 0.364961 0.845367
O O10 0.310514 0.707021 0.250000
O O11 0.500000 0.707798 0.149292
O O12 0.229578 0.736258 0.131792
O O13 0.000000 0.245711 0.942059
O O14 0.750000 0.250000 0.000000
#
# Coordination Sequence:
#
# PCOD8260102 Si02
#       5
#    16  16  16  16  16
#     4   9  17  30  48  72 101 135 169 209 259 312
#     4   9  17  27  43  72 102 128 161 206 256 303
#     4   9  16  30  49  70 100 136 170 206 255 314
#     4  10  21  37  55  77 107 143 181 219 266 323
#     4  11  21  34  54  79 108 140 181 225 269 318
#
# _framework density 17.521232999999999
#
# number of rings (size 3 to 8) (size 9 to 14) (size 15 to 20)
#    0.000    2.400    2.000    1.200    0.000    5.200 
#    0.000    0.000    0.000    1.200    0.000    2.800 
#    0.000    0.000    0.000    0.000    0.000    0.000 
#
# Total GULP energy -496049.468917 kJ/mol
# GULP energy per Si atom -12401.236723 kJ/mol
# Density = 1.748135 g / cm^3
# Si number density = 17.521233 Si / 1000 Ang^3
#
#
#
# Elastic Constant Matrix: (Units=GPa)
#
#
# Indices 1 2 3 4 5 6 
#
# 1 122.4427 86.1140 41.3375 0.0000 0.0000 0.0000
# 2 86.1140 131.0905 42.2120 0.0000 0.0000 0.0000
# 3 41.3375 42.2120 54.8411 0.0000 0.0000 0.0000
# 4 0.0000 0.0000 0.0000 20.6492 0.0000 0.0000
# 5 0.0000 0.0000 0.0000 0.0000 19.2599 0.0000
# 6 0.0000 0.0000 0.0000 0.0000 0.0000 37.4115
#
#
#
# Elastic Compliance Matrix: (Units=1/GPa)
#
#
# Indices 1 2 3 4 5 6 
#
# 1 0.016291 -0.008971 -0.005374 0.000000 0.000000 0.000000
# 2 -0.008971 0.015082 -0.004847 0.000000 0.000000 0.000000
# 3 -0.005374 -0.004847 0.026016 0.000000 0.000000 0.000000
# 4 0.000000 0.000000 0.000000 0.048428 0.000000 0.000000
# 5 0.000000 0.000000 0.000000 0.000000 0.051921 0.000000
# 6 0.000000 0.000000 0.000000 0.000000 0.000000 0.026730
#
#
# Mechanical properties :
#
#
# Convention : Reuss Voigt Hill
#
# Bulk Modulus (GPa) = 52.61862 71.96680 62.29271
# Shear Modulus (GPa) = 21.81618 24.71150 23.26384
#
# Velocity S-wave (km/s) = 3.53247 3.75957 3.64779
# Velocity P-wave (km/s) = 6.83625 7.74655 7.30559
#
# Compressibility (1/GPa) = 0.01900468
#
# Stress axis : x y z
#
# Youngs Moduli (GPa) = 61.38449 66.30386 38.43736
#
# Poissons Ratio (x) = 0.59480 0.20658
# Poissons Ratio (y) = 0.55067 0.18630
# Poissons Ratio (z) = 0.32991 0.32137
#
# Static dielectric constant tensor:
#      x y z
#    x 3.349360 0.000000 0.000000 
#    y 0.000000 3.406410 0.000000 
#    z 0.000000 0.000000 2.843010 
# 
# 
# High freq. dielectric constant tensor:
#      x y z
#    x 1.682400 0.000000 0.000000 
#    y 0.000000 1.688970 0.000000 
#    z 0.000000 0.000000 1.626670 
# 
# From -- ./inp_files/40516.got.cif
#   From: 2010.03.12/outbox.cif.g09.slc.cpg/sg63_21_cif.got.tgz:40516.got - 2010.04.10 19:34:48.
