data_PCOD8260231
_publ_section_title
;
Structure prediction by ZEFSAII (Michael W. Deem and Ramdas Pophale) SiO2 
 PCOD8260231
Probable space group: C M C M
;
_chemical_formula_sum "Si O2"
_cell_formula_units_Z 52
_cell_length_a 7.424349
_cell_length_b 16.321764
_cell_length_c 24.224671
_cell_angle_alpha 90.000000
_cell_angle_beta 90.000000
_cell_angle_gamma 90.000000
_cell_volume 2935.508622
_symmetry_space_group_name_H-M "C M C M"
_symmetry_group_IT_number 63
_symmetry_cell_setting 'orthorhombic'
loop_
_space_group_symop_operation_xyz
x,y,z
-x,-y,1/2+z
x,-y,-z
-x,y,1/2-z
-x,-y,-z
x,y,1/2-z
-x,y,z
x,-y,1/2+z
1/2+x,1/2+y,z
1/2-x,1/2-y,1/2+z
1/2+x,1/2-y,-z
1/2-x,1/2+y,1/2-z
1/2-x,1/2-y,-z
1/2+x,1/2+y,1/2-z
1/2-x,1/2+y,z
1/2+x,1/2-y,1/2+z
loop_
_atom_site_type_symbol
_atom_site_label
_atom_site_fract_x
_atom_site_fract_y
_atom_site_fract_z
Si Si1 0.805224 0.786464 0.941854
Si Si2 0.500000 0.555579 0.053538
Si Si3 0.000000 0.761987 0.140758
Si Si4 0.500000 0.452535 0.335928
Si Si5 0.000000 0.343120 0.750000
Si Si6 0.296100 0.999577 0.750000
O O1 0.673848 0.762186 0.893495
O O2 0.000000 0.748938 0.925958
O O3 0.822357 0.885764 0.946860
O O4 0.750000 0.750000 0.000000
O O5 0.500000 0.499117 0.106739
O O6 0.500000 0.500000 0.000000
O O7 0.000000 0.857015 0.153019
O O8 0.000000 0.714025 0.197382
O O9 0.317021 0.474771 0.303656
O O10 0.178717 0.400717 0.750000
O O11 0.500000 0.039608 0.750000
#
# Coordination Sequence:
#
# PCOD8260231 Si02
#       6
#    16   8   8   8   4   8
#     4  10  21  37  62  86 121 155 202 242 296 350
#     4  10  21  38  60  85 121 157 192 242 300 343
#     4  12  22  40  63  89 120 157 201 242 297 357
#     4  11  21  40  61  87 121 153 190 252 294 345
#     4  10  22  40  60  88 118 156 198 244 292 358
#     4   9  22  39  63  82 120 149 201 237 295 348
#
# _framework density 17.714137000000001
#
# number of rings (size 3 to 8) (size 9 to 14) (size 15 to 20)
#    1.385    0.308    1.538    4.615    0.000    1.231 
#    0.000    0.769    0.000    0.000    0.000    0.000 
#    0.000    0.000    0.000    0.000    0.000    0.000 
#
# Total GULP energy -322190.289996 kJ/mol
# GULP energy per Si atom -12391.934231 kJ/mol
# Density = 1.767382 g / cm^3
# Si number density = 17.714137 Si / 1000 Ang^3
#
#
#
# Elastic Constant Matrix: (Units=GPa)
#
#
# Indices 1 2 3 4 5 6 
#
# 1 154.2864 64.2588 85.7649 0.0000 0.0000 0.0000
# 2 64.2588 172.9497 97.3750 0.0000 0.0000 0.0000
# 3 85.7649 97.3750 188.3873 0.0000 0.0000 0.0000
# 4 0.0000 0.0000 0.0000 41.2791 0.0000 0.0000
# 5 0.0000 0.0000 0.0000 0.0000 25.3878 0.0000
# 6 0.0000 0.0000 0.0000 0.0000 0.0000 27.4464
#
#
#
# Elastic Compliance Matrix: (Units=1/GPa)
#
#
# Indices 1 2 3 4 5 6 
#
# 1 0.008928 -0.001451 -0.003315 0.000000 0.000000 0.000000
# 2 -0.001451 0.008391 -0.003677 0.000000 0.000000 0.000000
# 3 -0.003315 -0.003677 0.008718 0.000000 0.000000 0.000000
# 4 0.000000 0.000000 0.000000 0.024225 0.000000 0.000000
# 5 0.000000 0.000000 0.000000 0.000000 0.039389 0.000000
# 6 0.000000 0.000000 0.000000 0.000000 0.000000 0.036435
#
#
# Mechanical properties :
#
#
# Convention : Reuss Voigt Hill
#
# Bulk Modulus (GPa) = 109.26098 112.26898 110.76498
# Shear Modulus (GPa) = 34.24139 36.70429 35.47284
#
# Velocity S-wave (km/s) = 4.40136 4.55690 4.47980
# Velocity P-wave (km/s) = 9.36180 9.55002 9.45638
#
# Compressibility (1/GPa) = 0.00915240
#
# Stress axis : x y z
#
# Youngs Moduli (GPa) = 112.00244 119.17181 114.70908
#
# Poissons Ratio (x) = 0.17292 0.38022
# Poissons Ratio (y) = 0.16252 0.42175
# Poissons Ratio (z) = 0.37125 0.43816
#
# Static dielectric constant tensor:
#      x y z
#    x 2.484780 0.000000 0.000000 
#    y 0.000000 3.349850 0.000000 
#    z 0.000000 0.000000 3.254550 
# 
# 
# High freq. dielectric constant tensor:
#      x y z
#    x 1.684710 0.000000 0.000000 
#    y 0.000000 1.687870 0.000000 
#    z 0.000000 0.000000 1.700170 
# 
# From -- ./inp_files/58955.got.cif
#   From: 2010.03.12/outbox.cif.g09.slc.cpg/sg63_30_cif.got.tgz:58955.got - 2010.04.10 19:34:48.
