data_PCOD8260828
_publ_section_title
;
Structure prediction by ZEFSAII (Michael W. Deem and Ramdas Pophale) SiO2 
 PCOD8260828
Probable space group: C M C M
;
_chemical_formula_sum "Si O2"
_cell_formula_units_Z 96
_cell_length_a 11.250243
_cell_length_b 24.627562
_cell_length_c 17.972115
_cell_angle_alpha 90.000000
_cell_angle_beta 90.000000
_cell_angle_gamma 90.000000
_cell_volume 4979.463039
_symmetry_space_group_name_H-M "C M C M"
_symmetry_group_IT_number 63
_symmetry_cell_setting 'orthorhombic'
loop_
_space_group_symop_operation_xyz
x,y,z
-x,-y,1/2+z
x,-y,-z
-x,y,1/2-z
-x,-y,-z
x,y,1/2-z
-x,y,z
x,-y,1/2+z
1/2+x,1/2+y,z
1/2-x,1/2-y,1/2+z
1/2+x,1/2-y,-z
1/2-x,1/2+y,1/2-z
1/2-x,1/2-y,-z
1/2+x,1/2+y,1/2-z
1/2-x,1/2+y,z
1/2+x,1/2-y,1/2+z
loop_
_atom_site_type_symbol
_atom_site_label
_atom_site_fract_x
_atom_site_fract_y
_atom_site_fract_z
Si Si1 0.730138 0.447322 0.837440
Si Si2 0.500000 0.508933 0.661723
Si Si3 0.857292 0.156146 0.084799
Si Si4 0.137257 0.530431 0.924341
Si Si5 0.000000 0.129114 0.837670
Si Si6 0.639163 0.766034 0.333331
Si Si7 0.730945 0.355483 0.419593
O O1 0.731448 0.437699 0.750000
O O2 0.614803 0.478369 0.867758
O O3 0.724414 0.389403 0.876757
O O4 0.841150 0.485521 0.859784
O O5 0.500000 0.511699 0.750000
O O6 0.500000 0.568718 0.627929
O O7 0.820698 0.210249 0.128308
O O8 0.000000 0.144580 0.088308
O O9 0.810445 0.160963 0.001379
O O10 0.219776 0.583181 0.914275
O O11 0.000000 0.548654 0.922325
O O12 0.171178 0.500000 0.000000
O O13 0.118959 0.156777 0.866798
O O14 0.000000 0.130819 0.750000
O O15 0.695878 0.771218 0.250000
O O16 0.500000 0.766161 0.324160
O O17 0.669669 0.815421 0.388141
#
# Coordination Sequence:
#
# PCOD8260828 Si02
#       7
#    16   8  16  16   8  16  16
#     4  11  21  36  61  91 124 156 196 248 304 362
#     4   9  18  31  53  89 121 149 181 230 296 353
#     4  11  22  38  62  94 122 154 201 250 308 363
#     4  11  24  40  59  86 123 165 203 245 298 363
#     4  11  22  35  57  91 126 155 193 247 299 351
#     4  10  23  42  63  87 118 157 204 253 299 356
#     4  12  22  39  63  90 121 159 203 247 302 363
#
# _framework density 19.279188000000001
#
# number of rings (size 3 to 8) (size 9 to 14) (size 15 to 20)
#    0.000    1.167    5.000    2.000    0.000    1.667 
#    0.000    2.500    1.833    0.000    0.000    0.000 
#    0.000    0.000    0.000    0.000    0.000    0.000 
#
# Total GULP energy -595117.661965 kJ/mol
# GULP energy per Si atom -12398.284624 kJ/mol
# Density = 1.923531 g / cm^3
# Si number density = 19.279188 Si / 1000 Ang^3
#
#
#
# Elastic Constant Matrix: (Units=GPa)
#
#
# Indices 1 2 3 4 5 6 
#
# 1 51.0495 22.4177 28.3608 0.0000 0.0000 0.0000
# 2 22.4177 108.4774 46.6007 0.0000 0.0000 0.0000
# 3 28.3608 46.6007 126.8598 0.0000 0.0000 0.0000
# 4 0.0000 0.0000 0.0000 29.5079 0.0000 0.0000
# 5 0.0000 0.0000 0.0000 0.0000 24.0900 0.0000
# 6 0.0000 0.0000 0.0000 0.0000 0.0000 18.6983
#
#
#
# Elastic Compliance Matrix: (Units=1/GPa)
#
#
# Indices 1 2 3 4 5 6 
#
# 1 0.023184 -0.003045 -0.004064 0.000000 0.000000 0.000000
# 2 -0.003045 0.011346 -0.003487 0.000000 0.000000 0.000000
# 3 -0.004064 -0.003487 0.010072 0.000000 0.000000 0.000000
# 4 0.000000 0.000000 0.000000 0.033889 0.000000 0.000000
# 5 0.000000 0.000000 0.000000 0.000000 0.041511 0.000000
# 6 0.000000 0.000000 0.000000 0.000000 0.000000 0.053481
#
#
# Mechanical properties :
#
#
# Convention : Reuss Voigt Hill
#
# Bulk Modulus (GPa) = 42.71858 53.46057 48.08958
# Shear Modulus (GPa) = 24.69388 27.05974 25.87681
#
# Velocity S-wave (km/s) = 3.58279 3.75049 3.66760
# Velocity P-wave (km/s) = 6.27066 6.82238 6.55233
#
# Compressibility (1/GPa) = 0.02340902
#
# Stress axis : x y z
#
# Youngs Moduli (GPa) = 43.13305 88.13850 99.28242
#
# Poissons Ratio (x) = 0.26839 0.40353
# Poissons Ratio (y) = 0.13135 0.34620
# Poissons Ratio (z) = 0.17531 0.30734
#
# Static dielectric constant tensor:
#      x y z
#    x 3.470460 0.000000 0.000000 
#    y 0.000000 3.577400 0.000000 
#    z 0.000000 0.000000 3.590010 
# 
# 
# High freq. dielectric constant tensor:
#      x y z
#    x 1.739600 0.000000 0.000000 
#    y 0.000000 1.754490 0.000000 
#    z 0.000000 0.000000 1.759830 
# 
# From -- ./inp_files/42544.got.cif
#   From: 2010.03.12/outbox.cif.g09.slc.cpg/sg63_22_cif.got.tgz:42544.got - 2010.04.10 19:34:48.
