data_PCOD8260676
_publ_section_title
;
Structure prediction by ZEFSAII (Michael W. Deem and Ramdas Pophale) SiO2 
 PCOD8260676
Probable space group: C M C M
;
_chemical_formula_sum "Si O2"
_cell_formula_units_Z 112
_cell_length_a 22.526433
_cell_length_b 14.861963
_cell_length_c 15.501326
_cell_angle_alpha 90.000000
_cell_angle_beta 90.000000
_cell_angle_gamma 90.000000
_cell_volume 5189.642641
_symmetry_space_group_name_H-M "C M C M"
_symmetry_group_IT_number 63
_symmetry_cell_setting 'orthorhombic'
loop_
_space_group_symop_operation_xyz
x,y,z
-x,-y,1/2+z
x,-y,-z
-x,y,1/2-z
-x,-y,-z
x,y,1/2-z
-x,y,z
x,-y,1/2+z
1/2+x,1/2+y,z
1/2-x,1/2-y,1/2+z
1/2+x,1/2-y,-z
1/2-x,1/2+y,1/2-z
1/2-x,1/2-y,-z
1/2+x,1/2+y,1/2-z
1/2-x,1/2+y,z
1/2+x,1/2-y,1/2+z
loop_
_atom_site_type_symbol
_atom_site_label
_atom_site_fract_x
_atom_site_fract_y
_atom_site_fract_z
Si Si1 0.139988 0.144394 0.936576
Si Si2 0.156996 0.670768 0.149699
Si Si3 0.931521 0.473114 0.900833
Si Si4 0.355380 0.132507 0.654985
Si Si5 0.763178 0.353703 0.002533
Si Si6 0.565607 0.495522 0.847892
Si Si7 0.569434 0.701261 0.403962
O O1 0.155349 0.221518 0.866247
O O2 0.198487 0.102951 0.983554
O O3 0.111742 0.055553 0.898188
O O4 0.093856 0.192635 0.999714
O O5 0.172109 0.653613 0.250000
O O6 0.094860 0.625304 0.121643
O O7 0.207042 0.621316 0.089590
O O8 0.897953 0.546466 0.843802
O O9 0.000000 0.470536 0.874404
O O10 0.922939 0.500000 0.000000
O O11 0.325241 0.138442 0.750000
O O12 0.305700 0.121102 0.581915
O O13 0.395328 0.220412 0.643160
O O14 0.750000 0.250000 0.000000
O O15 0.566383 0.527126 0.750000
O O16 0.500000 0.510156 0.888029
O O17 0.582472 0.390848 0.853332
O O18 0.500000 0.726197 0.406197
#
# Coordination Sequence:
#
# PCOD8260676 Si02
#       7
#    16  16  16  16  16  16  16
#     4  11  22  43  66  92 128 175 213 265 326 390
#     4  11  23  42  67  94 129 169 216 270 326 381
#     4  11  23  43  69  97 134 175 217 268 326 391
#     4  12  24  42  67  96 132 175 217 265 324 383
#     4  10  22  45  64  92 130 170 217 267 317 384
#     4  10  22  40  63  97 132 165 216 270 320 385
#     4  11  22  41  66  94 129 169 214 266 327 383
#
# _framework density 21.581448000000002
#
# number of rings (size 3 to 8) (size 9 to 14) (size 15 to 20)
#    0.000    1.143    4.286    2.571    0.000    8.857 
#    5.143    0.000    0.000    0.000    0.000    0.000 
#    0.000    0.000    0.000    0.000    0.000    0.000 
#
# Total GULP energy -694283.884794 kJ/mol
# GULP energy per Si atom -12397.926514 kJ/mol
# Density = 2.153233 g / cm^3
# Si number density = 21.581448 Si / 1000 Ang^3
#
#
#
# Elastic Constant Matrix: (Units=GPa)
#
#
# Indices 1 2 3 4 5 6 
#
# 1 88.5298 37.0367 27.7577 0.0000 0.0000 0.0000
# 2 37.0367 61.1892 1.5130 0.0000 0.0000 0.0000
# 3 27.7577 1.5130 124.7652 0.0000 0.0000 0.0000
# 4 0.0000 0.0000 0.0000 0.1776 0.0000 0.0000
# 5 0.0000 0.0000 0.0000 0.0000 74.1828 0.0000
# 6 0.0000 0.0000 0.0000 0.0000 0.0000 19.7167
#
#
#
# Elastic Compliance Matrix: (Units=1/GPa)
#
#
# Indices 1 2 3 4 5 6 
#
# 1 0.016574 -0.009944 -0.003567 0.000000 0.000000 0.000000
# 2 -0.009944 0.022313 0.001942 0.000000 0.000000 0.000000
# 3 -0.003567 0.001942 0.008785 0.000000 0.000000 0.000000
# 4 0.000000 0.000000 0.000000 5.629572 0.000000 0.000000
# 5 0.000000 0.000000 0.000000 0.000000 0.013480 0.000000
# 6 0.000000 0.000000 0.000000 0.000000 0.000000 0.050719
#
#
# Mechanical properties :
#
#
# Convention : Reuss Voigt Hill
#
# Bulk Modulus (GPa) = 40.75832 45.23323 42.99578
# Shear Modulus (GPa) = 0.86614 32.69388 16.78001
#
# Velocity S-wave (km/s) = 0.63420 3.89640 2.79143
# Velocity P-wave (km/s) = 4.41170 6.42242 5.50956
#
# Compressibility (1/GPa) = 0.02453487
#
# Stress axis : x y z
#
# Youngs Moduli (GPa) = 60.33573 44.81594 113.82984
#
# Poissons Ratio (x) = 0.44564 0.40601
# Poissons Ratio (y) = 0.59996 -0.22102
# Poissons Ratio (z) = 0.21520 -0.08702
#
# Static dielectric constant tensor:
#      x y z
#    x 4.075830 0.000000 0.000000 
#    y 0.000000 3.864370 0.000000 
#    z 0.000000 0.000000 4.008120 
# 
# 
# High freq. dielectric constant tensor:
#      x y z
#    x 1.850180 0.000000 0.000000 
#    y 0.000000 1.850310 0.000000 
#    z 0.000000 0.000000 1.849080 
# 
# From -- ./inp_files/36855.got.cif
#   From: 2010.03.12/outbox.cif.g09.slc.cpg/sg63_19_cif.got.tgz:36855.got - 2010.04.10 19:34:48.
