data_PCOD8260996
_publ_section_title
;
Structure prediction by ZEFSAII (Michael W. Deem and Ramdas Pophale) SiO2 
 PCOD8260996
Probable space group: C M C M
;
_chemical_formula_sum "Si O2"
_cell_formula_units_Z 104
_cell_length_a 27.205092
_cell_length_b 22.472438
_cell_length_c 8.642441
_cell_angle_alpha 90.000000
_cell_angle_beta 90.000000
_cell_angle_gamma 90.000000
_cell_volume 5283.683723
_symmetry_space_group_name_H-M "C M C M"
_symmetry_group_IT_number 63
_symmetry_cell_setting 'orthorhombic'
loop_
_space_group_symop_operation_xyz
x,y,z
-x,-y,1/2+z
x,-y,-z
-x,y,1/2-z
-x,-y,-z
x,y,1/2-z
-x,y,z
x,-y,1/2+z
1/2+x,1/2+y,z
1/2-x,1/2-y,1/2+z
1/2+x,1/2-y,-z
1/2-x,1/2+y,1/2-z
1/2-x,1/2-y,-z
1/2+x,1/2+y,1/2-z
1/2-x,1/2+y,z
1/2+x,1/2-y,1/2+z
loop_
_atom_site_type_symbol
_atom_site_label
_atom_site_fract_x
_atom_site_fract_y
_atom_site_fract_z
Si Si1 0.000000 0.064902 0.931734
Si Si2 0.137140 0.347128 0.429028
Si Si3 0.944911 0.736617 0.566509
Si Si4 0.688621 0.384404 0.421316
Si Si5 0.198720 0.748503 0.078950
Si Si6 0.212293 0.434681 0.568158
Si Si7 0.090078 0.864957 0.932475
O O1 0.000000 0.060193 0.750000
O O2 0.047660 0.099278 0.985909
O O3 0.000000 0.000000 0.000000
O O4 0.138916 0.366027 0.250000
O O5 0.082361 0.325767 0.482537
O O6 0.166870 0.286794 0.455203
O O7 0.161532 0.400495 0.526491
O O8 0.947808 0.738169 0.750000
O O9 0.915166 0.795729 0.511239
O O10 0.000000 0.736068 0.495153
O O11 0.687628 0.414515 0.250000
O O12 0.681002 0.314837 0.400460
O O13 0.739811 0.401029 0.502946
O O14 0.640644 0.399770 0.522433
O O15 0.199579 0.717285 0.250000
O O16 0.250000 0.750000 0.000000
O O17 0.209023 0.500000 0.500000
O O18 0.217659 0.438981 0.750000
O O19 0.083723 0.868942 0.750000
#
# Coordination Sequence:
#
# PCOD8260996 Si02
#       7
#     8  16  16  16  16  16  16
#     4  12  26  44  62  84 114 160 213 262 307 358
#     4  11  21  36  61  91 123 159 201 246 304 370
#     4   9  18  34  60  93 125 157 195 244 305 365
#     4  11  23  38  58  89 126 160 201 248 300 356
#     4  11  21  32  53  84 121 156 195 239 290 349
#     4  12  26  44  64  86 119 161 207 253 305 367
#     4  11  21  38  63  91 123 162 206 254 307 360
#
# _framework density 19.683236000000001
#
# number of rings (size 3 to 8) (size 9 to 14) (size 15 to 20)
#    0.000    1.077    3.846    3.923    0.000    1.846 
#    0.000    3.077    0.000    0.462    0.000    0.000 
#    0.000    0.000    0.000    0.000    0.000    0.000 
#
# Total GULP energy -644311.296065 kJ/mol
# GULP energy per Si atom -12390.601847 kJ/mol
# Density = 1.963844 g / cm^3
# Si number density = 19.683236 Si / 1000 Ang^3
#
#
#
# Elastic Constant Matrix: (Units=GPa)
#
#
# Indices 1 2 3 4 5 6 
#
# 1 108.3684 32.9988 31.7422 0.0000 0.0000 0.0000
# 2 32.9988 86.8603 28.6449 0.0000 0.0000 0.0000
# 3 31.7422 28.6449 109.5511 0.0000 0.0000 0.0000
# 4 0.0000 0.0000 0.0000 27.7863 0.0000 0.0000
# 5 0.0000 0.0000 0.0000 0.0000 9.5508 0.0000
# 6 0.0000 0.0000 0.0000 0.0000 0.0000 12.2407
#
#
#
# Elastic Compliance Matrix: (Units=1/GPa)
#
#
# Indices 1 2 3 4 5 6 
#
# 1 0.010931 -0.003402 -0.002278 0.000000 0.000000 0.000000
# 2 -0.003402 0.013658 -0.002586 0.000000 0.000000 0.000000
# 3 -0.002278 -0.002586 0.010464 0.000000 0.000000 0.000000
# 4 0.000000 0.000000 0.000000 0.035989 0.000000 0.000000
# 5 0.000000 0.000000 0.000000 0.000000 0.104703 0.000000
# 6 0.000000 0.000000 0.000000 0.000000 0.000000 0.081694
#
#
# Mechanical properties :
#
#
# Convention : Reuss Voigt Hill
#
# Bulk Modulus (GPa) = 53.98705 54.61686 54.30196
# Shear Modulus (GPa) = 17.84800 24.00848 20.92824
#
# Velocity S-wave (km/s) = 3.01451 3.49627 3.26429
# Velocity P-wave (km/s) = 6.29316 6.64129 6.46957
#
# Compressibility (1/GPa) = 0.01852296
#
# Stress axis : x y z
#
# Youngs Moduli (GPa) = 91.48509 73.21893 95.56396
#
# Poissons Ratio (x) = 0.24905 0.21767
# Poissons Ratio (y) = 0.31119 0.24709
# Poissons Ratio (z) = 0.20838 0.18931
#
# Static dielectric constant tensor:
#      x y z
#    x 3.748050 0.000000 0.000000 
#    y 0.000000 3.536740 0.000000 
#    z 0.000000 0.000000 3.988970 
# 
# 
# High freq. dielectric constant tensor:
#      x y z
#    x 1.772510 0.000000 0.000000 
#    y 0.000000 1.747650 0.000000 
#    z 0.000000 0.000000 1.769160 
# 
# From -- ./inp_files/12594.got.cif
#   From: 2010.03.12/outbox.cif.g09.slc.cpg/sg63_7_cif.got.tgz:12594.got - 2010.04.10 19:34:48.
