data_PCOD8260019
_publ_section_title
;
Structure prediction by ZEFSAII (Michael W. Deem and Ramdas Pophale) SiO2 
 PCOD8260019
Probable space group: C M C M
;
_chemical_formula_sum "Si O2"
_cell_formula_units_Z 96
_cell_length_a 23.566939
_cell_length_b 23.965987
_cell_length_c 9.036925
_cell_angle_alpha 90.000000
_cell_angle_beta 90.000000
_cell_angle_gamma 90.000000
_cell_volume 5104.100006
_symmetry_space_group_name_H-M "C M C M"
_symmetry_group_IT_number 63
_symmetry_cell_setting 'orthorhombic'
loop_
_space_group_symop_operation_xyz
x,y,z
-x,-y,1/2+z
x,-y,-z
-x,y,1/2-z
-x,-y,-z
x,y,1/2-z
-x,y,z
x,-y,1/2+z
1/2+x,1/2+y,z
1/2-x,1/2-y,1/2+z
1/2+x,1/2-y,-z
1/2-x,1/2+y,1/2-z
1/2-x,1/2-y,-z
1/2+x,1/2+y,1/2-z
1/2-x,1/2+y,z
1/2+x,1/2-y,1/2+z
loop_
_atom_site_type_symbol
_atom_site_label
_atom_site_fract_x
_atom_site_fract_y
_atom_site_fract_z
Si Si1 0.642753 0.273043 0.422136
Si Si2 0.637850 0.556433 0.582363
Si Si3 0.762832 0.855927 0.083612
Si Si4 0.065876 0.557825 0.923625
Si Si5 0.566374 0.357579 0.581057
Si Si6 0.148830 0.643630 0.077103
O O1 0.631049 0.285470 0.250000
O O2 0.704409 0.298997 0.464060
O O3 0.593708 0.301748 0.515903
O O4 0.639712 0.208278 0.460834
O O5 0.652386 0.500000 0.500000
O O6 0.620345 0.543475 0.750000
O O7 0.693587 0.593656 0.573458
O O8 0.585236 0.587408 0.506288
O O9 0.738513 0.849810 0.250000
O O10 0.712263 0.871249 0.973017
O O11 0.077991 0.552445 0.750000
O O12 0.000000 0.570860 0.956243
O O13 0.084298 0.500000 0.000000
O O14 0.102444 0.608096 0.989586
O O15 0.585699 0.364218 0.750000
O O16 0.500000 0.350535 0.564525
O O17 0.142407 0.630907 0.250000
#
# Coordination Sequence:
#
# PCOD8260019 Si02
#       6
#    16  16  16  16  16  16
#     4   9  20  37  55  79 112 148 183 222 270 320
#     4  10  21  37  57  80 108 144 184 227 275 324
#     4   9  19  36  55  78 111 147 183 224 269 317
#     4  10  22  41  62  82 108 142 179 223 273 321
#     4  10  21  36  55  80 109 143 184 229 276 323
#     4  11  22  35  57  87 114 144 181 219 266 325
#
# _framework density 18.808409000000001
#
# number of rings (size 3 to 8) (size 9 to 14) (size 15 to 20)
#    0.000    2.167    0.000    3.500    0.000    8.667 
#    0.000    5.000    0.000    0.000    0.000    0.000 
#    0.000    0.000    0.000    0.000    0.000    0.000 
#
# Total GULP energy -595333.203533 kJ/mol
# GULP energy per Si atom -12402.775074 kJ/mol
# Density = 1.876560 g / cm^3
# Si number density = 18.808409 Si / 1000 Ang^3
#
#
#
# Elastic Constant Matrix: (Units=GPa)
#
#
# Indices 1 2 3 4 5 6 
#
# 1 91.0210 59.1881 62.8706 0.0000 0.0000 0.0000
# 2 59.1881 179.8926 96.5113 0.0000 0.0000 0.0000
# 3 62.8706 96.5113 140.5133 0.0000 0.0000 0.0000
# 4 0.0000 0.0000 0.0000 34.9022 0.0000 0.0000
# 5 0.0000 0.0000 0.0000 0.0000 35.0029 0.0000
# 6 0.0000 0.0000 0.0000 0.0000 0.0000 20.2781
#
#
#
# Elastic Compliance Matrix: (Units=1/GPa)
#
#
# Indices 1 2 3 4 5 6 
#
# 1 0.016492 -0.002324 -0.005783 0.000000 0.000000 0.000000
# 2 -0.002324 0.009130 -0.005231 0.000000 0.000000 0.000000
# 3 -0.005783 -0.005231 0.013297 0.000000 0.000000 0.000000
# 4 0.000000 0.000000 0.000000 0.028651 0.000000 0.000000
# 5 0.000000 0.000000 0.000000 0.000000 0.028569 0.000000
# 6 0.000000 0.000000 0.000000 0.000000 0.000000 0.049314
#
#
# Mechanical properties :
#
#
# Convention : Reuss Voigt Hill
#
# Bulk Modulus (GPa) = 81.67649 94.28519 87.98084
# Shear Modulus (GPa) = 28.37506 30.89377 29.63442
#
# Velocity S-wave (km/s) = 3.88833 4.05724 3.97368
# Velocity P-wave (km/s) = 7.97989 8.49625 8.24212
#
# Compressibility (1/GPa) = 0.01224342
#
# Stress axis : x y z
#
# Youngs Moduli (GPa) = 60.63554 109.53068 75.20269
#
# Poissons Ratio (x) = 0.25450 0.43491
# Poissons Ratio (y) = 0.14089 0.39340
# Poissons Ratio (z) = 0.35067 0.57298
#
# Static dielectric constant tensor:
#      x y z
#    x 3.315460 0.000000 0.000000 
#    y 0.000000 3.549260 0.000000 
#    z 0.000000 0.000000 3.655830 
# 
# 
# High freq. dielectric constant tensor:
#      x y z
#    x 1.726220 0.000000 0.000000 
#    y 0.000000 1.735620 0.000000 
#    z 0.000000 0.000000 1.743640 
# 
# From -- ./inp_files/10495.got.cif
#   From: 2010.03.12/outbox.cif.g09.slc.cpg/sg63_6_cif.got.tgz:10495.got - 2010.04.10 19:34:48.
