data_PCOD8260810
_publ_section_title
;
Structure prediction by ZEFSAII (Michael W. Deem and Ramdas Pophale) SiO2 
 PCOD8260810
Probable space group: C M C M
;
_chemical_formula_sum "Si O2"
_cell_formula_units_Z 80
_cell_length_a 7.683792
_cell_length_b 28.782828
_cell_length_c 17.799137
_cell_angle_alpha 90.000000
_cell_angle_beta 90.000000
_cell_angle_gamma 90.000000
_cell_volume 3936.479629
_symmetry_space_group_name_H-M "C M C M"
_symmetry_group_IT_number 63
_symmetry_cell_setting 'orthorhombic'
loop_
_space_group_symop_operation_xyz
x,y,z
-x,-y,1/2+z
x,-y,-z
-x,y,1/2-z
-x,-y,-z
x,y,1/2-z
-x,y,z
x,-y,1/2+z
1/2+x,1/2+y,z
1/2-x,1/2-y,1/2+z
1/2+x,1/2-y,-z
1/2-x,1/2+y,1/2-z
1/2-x,1/2-y,-z
1/2+x,1/2+y,1/2-z
1/2-x,1/2+y,z
1/2+x,1/2-y,1/2+z
loop_
_atom_site_type_symbol
_atom_site_label
_atom_site_fract_x
_atom_site_fract_y
_atom_site_fract_z
Si Si1 0.302840 0.852741 0.333093
Si Si2 0.205436 0.260982 0.085609
Si Si3 0.000000 0.397658 0.836411
Si Si4 0.300084 0.440942 0.421389
Si Si5 0.298008 0.546605 0.408336
Si Si6 0.000000 0.704110 0.161384
O O1 0.209501 0.852655 0.250000
O O2 0.500000 0.840070 0.317965
O O3 0.231968 0.813102 0.390066
O O4 0.297761 0.903331 0.371226
O O5 0.320032 0.226972 0.135667
O O6 0.000000 0.252641 0.099894
O O7 0.250000 0.250000 0.000000
O O8 0.176338 0.424904 0.853639
O O9 0.000000 0.347328 0.875711
O O10 0.000000 0.387274 0.750000
O O11 0.500000 0.427201 0.417927
O O12 0.268198 0.492431 0.389362
O O13 0.237088 0.440783 0.507464
O O14 0.500000 0.559705 0.395885
O O15 0.000000 0.704727 0.250000
#
# Coordination Sequence:
#
# PCOD8260810 Si02
#       6
#    16  16   8  16  16   8
#     4  10  23  39  59  93 131 164 201 254 324 388
#     4  11  24  43  68  97 127 167 218 268 321 389
#     4  11  26  41  63  91 119 170 219 255 318 372
#     4   9  20  37  61  92 123 165 207 249 319 377
#     4   9  21  41  62  90 127 163 211 264 305 372
#     4  11  26  46  65  93 133 172 213 269 328 379
#
# _framework density 20.322725999999999
#
# number of rings (size 3 to 8) (size 9 to 14) (size 15 to 20)
#    0.000    2.000    1.000    1.800    7.000    4.400 
#    0.000    4.000    0.000    0.000    0.000    0.000 
#    0.000    0.000    0.000    0.000    0.000    0.000 
#
# Total GULP energy -495770.733956 kJ/mol
# GULP energy per Si atom -12394.268349 kJ/mol
# Density = 2.027647 g / cm^3
# Si number density = 20.322726 Si / 1000 Ang^3
#
#
#
# Elastic Constant Matrix: (Units=GPa)
#
#
# Indices 1 2 3 4 5 6 
#
# 1 102.1055 52.4812 31.4827 0.0000 0.0000 0.0000
# 2 52.4812 148.0789 66.7615 0.0000 0.0000 0.0000
# 3 31.4827 66.7615 109.1692 0.0000 0.0000 0.0000
# 4 0.0000 0.0000 0.0000 33.2720 0.0000 0.0000
# 5 0.0000 0.0000 0.0000 0.0000 27.7139 0.0000
# 6 0.0000 0.0000 0.0000 0.0000 0.0000 26.2718
#
#
#
# Elastic Compliance Matrix: (Units=1/GPa)
#
#
# Indices 1 2 3 4 5 6 
#
# 1 0.012087 -0.003745 -0.001196 0.000000 0.000000 0.000000
# 2 -0.003745 0.010484 -0.005332 0.000000 0.000000 0.000000
# 3 -0.001196 -0.005332 0.012765 0.000000 0.000000 0.000000
# 4 0.000000 0.000000 0.000000 0.030055 0.000000 0.000000
# 5 0.000000 0.000000 0.000000 0.000000 0.036083 0.000000
# 6 0.000000 0.000000 0.000000 0.000000 0.000000 0.038064
#
#
# Mechanical properties :
#
#
# Convention : Reuss Voigt Hill
#
# Bulk Modulus (GPa) = 67.60090 73.42273 70.51182
# Shear Modulus (GPa) = 30.30052 31.36006 30.83029
#
# Velocity S-wave (km/s) = 3.86549 3.93250 3.89914
# Velocity P-wave (km/s) = 7.29785 7.53831 7.41906
#
# Compressibility (1/GPa) = 0.01479270
#
# Stress axis : x y z
#
# Youngs Moduli (GPa) = 82.73169 95.38251 78.33703
#
# Poissons Ratio (x) = 0.35719 0.09366
# Poissons Ratio (y) = 0.30982 0.41766
# Poissons Ratio (z) = 0.09892 0.50853
#
# Static dielectric constant tensor:
#      x y z
#    x 3.490440 0.000000 0.000000 
#    y 0.000000 3.858580 0.000000 
#    z 0.000000 0.000000 2.808260 
# 
# 
# High freq. dielectric constant tensor:
#      x y z
#    x 1.795300 0.000000 0.000000 
#    y 0.000000 1.801800 0.000000 
#    z 0.000000 0.000000 1.792380 
# 
# From -- ./inp_files/40601.got.cif
#   From: 2010.03.12/outbox.cif.g09.slc.cpg/sg63_21_cif.got.tgz:40601.got - 2010.04.10 19:34:48.
