data_PCOD8260364
_publ_section_title
;
Structure prediction by ZEFSAII (Michael W. Deem and Ramdas Pophale) SiO2 
 PCOD8260364
Probable space group: C M C M
;
_chemical_formula_sum "Si O2"
_cell_formula_units_Z 80
_cell_length_a 15.439546
_cell_length_b 9.341956
_cell_length_c 27.031672
_cell_angle_alpha 90.000000
_cell_angle_beta 90.000000
_cell_angle_gamma 90.000000
_cell_volume 3898.928332
_symmetry_space_group_name_H-M "C M C M"
_symmetry_group_IT_number 63
_symmetry_cell_setting 'orthorhombic'
loop_
_space_group_symop_operation_xyz
x,y,z
-x,-y,1/2+z
x,-y,-z
-x,y,1/2-z
-x,-y,-z
x,y,1/2-z
-x,y,z
x,-y,1/2+z
1/2+x,1/2+y,z
1/2-x,1/2-y,1/2+z
1/2+x,1/2-y,-z
1/2-x,1/2+y,1/2-z
1/2-x,1/2-y,-z
1/2+x,1/2+y,1/2-z
1/2-x,1/2+y,z
1/2+x,1/2-y,1/2+z
loop_
_atom_site_type_symbol
_atom_site_label
_atom_site_fract_x
_atom_site_fract_y
_atom_site_fract_z
Si Si1 0.744180 0.622431 0.536917
Si Si2 0.161437 0.712162 0.806181
Si Si3 0.402895 0.956816 0.394607
Si Si4 0.839557 0.044310 0.805665
Si Si5 0.404288 0.285521 0.109064
O O1 0.717677 0.500000 0.500000
O O2 0.750000 0.750000 0.500000
O O3 0.835174 0.599641 0.564876
O O4 0.666955 0.640313 0.575299
O O5 0.125674 0.697147 0.750000
O O6 0.096565 0.638870 0.844875
O O7 0.250759 0.629160 0.812110
O O8 0.174015 0.878502 0.820639
O O9 0.500000 0.946356 0.417049
O O10 0.379562 0.120436 0.380798
O O11 0.874884 0.054620 0.750000
O O12 0.908536 0.124048 0.840201
O O13 0.500000 0.295021 0.084795
#
# Coordination Sequence:
#
# PCOD8260364 Si02
#       5
#    16  16  16  16  16
#     4  12  26  46  70  93 125 168 217 271 329 383
#     4  10  21  38  64  97 133 174 216 259 316 383
#     4  11  25  44  68  98 132 171 216 265 324 390
#     4  10  21  38  64  97 134 174 215 260 316 383
#     4  11  25  44  67  99 133 168 216 267 324 387
#
# _framework density 20.518459
#
# number of rings (size 3 to 8) (size 9 to 14) (size 15 to 20)
#    0.000    1.200    4.000    1.200    2.800    5.600 
#    0.000    4.000    0.000    0.000    0.000    0.000 
#    0.000    0.000    0.000    0.000    0.000    0.000 
#
# Total GULP energy -495900.362274 kJ/mol
# GULP energy per Si atom -12397.509057 kJ/mol
# Density = 2.047176 g / cm^3
# Si number density = 20.518459 Si / 1000 Ang^3
#
#
#
# Elastic Constant Matrix: (Units=GPa)
#
#
# Indices 1 2 3 4 5 6 
#
# 1 124.0352 57.3242 59.1086 0.0000 0.0000 0.0000
# 2 57.3242 177.0573 78.3063 0.0000 0.0000 0.0000
# 3 59.1086 78.3063 119.8419 0.0000 0.0000 0.0000
# 4 0.0000 0.0000 0.0000 47.7263 0.0000 0.0000
# 5 0.0000 0.0000 0.0000 0.0000 7.7308 0.0000
# 6 0.0000 0.0000 0.0000 0.0000 0.0000 27.3366
#
#
#
# Elastic Compliance Matrix: (Units=1/GPa)
#
#
# Indices 1 2 3 4 5 6 
#
# 1 0.010857 -0.001613 -0.004301 0.000000 0.000000 0.000000
# 2 -0.001613 0.008183 -0.004551 0.000000 0.000000 0.000000
# 3 -0.004301 -0.004551 0.013440 0.000000 0.000000 0.000000
# 4 0.000000 0.000000 0.000000 0.020953 0.000000 0.000000
# 5 0.000000 0.000000 0.000000 0.000000 0.129353 0.000000
# 6 0.000000 0.000000 0.000000 0.000000 0.000000 0.036581
#
#
# Mechanical properties :
#
#
# Convention : Reuss Voigt Hill
#
# Bulk Modulus (GPa) = 86.58664 90.04586 88.31625
# Shear Modulus (GPa) = 20.47947 31.63843 26.05895
#
# Velocity S-wave (km/s) = 3.16270 3.93103 3.56761
# Velocity P-wave (km/s) = 7.45841 8.03645 7.75282
#
# Compressibility (1/GPa) = 0.01154913
#
# Stress axis : x y z
#
# Youngs Moduli (GPa) = 92.10328 122.20462 74.40653
#
# Poissons Ratio (x) = 0.19711 0.32004
# Poissons Ratio (y) = 0.14856 0.33865
# Poissons Ratio (z) = 0.39615 0.55620
#
# Static dielectric constant tensor:
#      x y z
#    x 3.620370 0.000000 0.000000 
#    y 0.000000 3.917620 0.000000 
#    z 0.000000 0.000000 3.701170 
# 
# 
# High freq. dielectric constant tensor:
#      x y z
#    x 1.795420 0.000000 0.000000 
#    y 0.000000 1.822580 0.000000 
#    z 0.000000 0.000000 1.804760 
# 
# From -- ./inp_files/69738.got.cif
#   From: 2010.03.12/outbox.cif.g09.slc.cpg/sg63_35_cif.got.tgz:69738.got - 2010.04.10 19:34:48.
