data_PCOD8260484
_publ_section_title
;
Structure prediction by ZEFSAII (Michael W. Deem and Ramdas Pophale) SiO2 
 PCOD8260484
Probable space group: C M C M
;
_chemical_formula_sum "Si O2"
_cell_formula_units_Z 96
_cell_length_a 22.611507
_cell_length_b 13.993301
_cell_length_c 13.917395
_cell_angle_alpha 90.000000
_cell_angle_beta 90.000000
_cell_angle_gamma 90.000000
_cell_volume 4403.597712
_symmetry_space_group_name_H-M "C M C M"
_symmetry_group_IT_number 63
_symmetry_cell_setting 'orthorhombic'
loop_
_space_group_symop_operation_xyz
x,y,z
-x,-y,1/2+z
x,-y,-z
-x,y,1/2-z
-x,-y,-z
x,y,1/2-z
-x,y,z
x,-y,1/2+z
1/2+x,1/2+y,z
1/2-x,1/2-y,1/2+z
1/2+x,1/2-y,-z
1/2-x,1/2+y,1/2-z
1/2-x,1/2-y,-z
1/2+x,1/2+y,1/2-z
1/2-x,1/2+y,z
1/2+x,1/2-y,1/2+z
loop_
_atom_site_type_symbol
_atom_site_label
_atom_site_fract_x
_atom_site_fract_y
_atom_site_fract_z
Si Si1 0.635850 0.106177 0.485483
Si Si2 0.933675 0.743141 0.363271
Si Si3 0.655444 0.405284 0.355138
Si Si4 0.365071 0.274328 0.637439
Si Si5 0.434380 0.550576 0.398083
Si Si6 0.735289 0.357017 0.974440
O O1 0.591104 0.145563 0.406187
O O2 0.635889 0.173472 0.580629
O O3 0.702928 0.094656 0.444142
O O4 0.611189 0.000000 0.500000
O O5 0.934257 0.733717 0.250000
O O6 0.889196 0.825735 0.397705
O O7 0.000000 0.765322 0.401297
O O8 0.681875 0.376233 0.250000
O O9 0.616911 0.500371 0.335848
O O10 0.707540 0.415398 0.433971
O O11 0.364970 0.249944 0.750000
O O12 0.423036 0.334954 0.605213
O O13 0.310632 0.347168 0.613231
O O14 0.428606 0.500000 0.500000
O O15 0.500000 0.532440 0.355637
O O16 0.750000 0.250000 0.000000
#
# Coordination Sequence:
#
# PCOD8260484 Si02
#       6
#    16  16  16  16  16  16
#     4  11  25  44  67  89 126 173 223 273 325 385
#     4  10  21  40  66  95 124 159 215 278 332 387
#     4  11  21  37  64  97 131 170 214 266 324 388
#     4  11  24  42  62  93 133 172 215 268 325 386
#     4  11  22  39  66  97 137 180 215 255 321 401
#     4  10  21  41  62  90 129 169 215 269 325 388
#
# _framework density 21.800356000000001
#
# number of rings (size 3 to 8) (size 9 to 14) (size 15 to 20)
#    0.000    1.333    5.000    1.000    2.333    8.333 
#    0.000    0.000    0.000    0.000    0.000    0.000 
#    0.000    0.000    0.000    0.000    0.000    0.000 
#
# Total GULP energy -594853.002296 kJ/mol
# GULP energy per Si atom -12392.770881 kJ/mol
# Density = 2.175074 g / cm^3
# Si number density = 21.800356 Si / 1000 Ang^3
#
#
#
# Elastic Constant Matrix: (Units=GPa)
#
#
# Indices 1 2 3 4 5 6 
#
# 1 84.2096 8.8204 26.7157 0.0000 0.0000 0.0000
# 2 8.8204 97.6553 14.3047 0.0000 0.0000 0.0000
# 3 26.7157 14.3047 80.5935 0.0000 0.0000 0.0000
# 4 0.0000 0.0000 0.0000 23.0051 0.0000 0.0000
# 5 0.0000 0.0000 0.0000 0.0000 10.4814 0.0000
# 6 0.0000 0.0000 0.0000 0.0000 0.0000 30.9075
#
#
#
# Elastic Compliance Matrix: (Units=1/GPa)
#
#
# Indices 1 2 3 4 5 6 
#
# 1 0.013302 -0.000570 -0.004308 0.000000 0.000000 0.000000
# 2 -0.000570 0.010538 -0.001681 0.000000 0.000000 0.000000
# 3 -0.004308 -0.001681 0.014134 0.000000 0.000000 0.000000
# 4 0.000000 0.000000 0.000000 0.043469 0.000000 0.000000
# 5 0.000000 0.000000 0.000000 0.000000 0.095407 0.000000
# 6 0.000000 0.000000 0.000000 0.000000 0.000000 0.032355
#
#
# Mechanical properties :
#
#
# Convention : Reuss Voigt Hill
#
# Bulk Modulus (GPa) = 40.23430 40.23779 40.23605
# Shear Modulus (GPa) = 21.68179 27.05330 24.36755
#
# Velocity S-wave (km/s) = 3.15709 3.52654 3.34692
# Velocity P-wave (km/s) = 5.63786 5.92279 5.78208
#
# Compressibility (1/GPa) = 0.02485441
#
# Stress axis : x y z
#
# Youngs Moduli (GPa) = 75.17874 94.89556 70.74912
#
# Poissons Ratio (x) = 0.05413 0.30479
# Poissons Ratio (y) = 0.04288 0.11895
# Poissons Ratio (z) = 0.32388 0.15955
#
# Static dielectric constant tensor:
#      x y z
#    x 4.606970 0.000000 0.000000 
#    y 0.000000 3.886740 0.000000 
#    z 0.000000 0.000000 3.908940 
# 
# 
# High freq. dielectric constant tensor:
#      x y z
#    x 1.855640 0.000000 0.000000 
#    y 0.000000 1.850780 0.000000 
#    z 0.000000 0.000000 1.846860 
# 
# From -- ./inp_files/35302.got.cif
#   From: 2010.03.12/outbox.cif.g09.slc.cpg/sg63_18_cif.got.tgz:35302.got - 2010.04.10 19:34:48.
