data_PCOD8260181
_publ_section_title
;
Structure prediction by ZEFSAII (Michael W. Deem and Ramdas Pophale) SiO2 
 PCOD8260181
Probable space group: C M C M
;
_chemical_formula_sum "Si O2"
_cell_formula_units_Z 96
_cell_length_a 21.365430
_cell_length_b 9.149876
_cell_length_c 26.023361
_cell_angle_alpha 90.000000
_cell_angle_beta 90.000000
_cell_angle_gamma 90.000000
_cell_volume 5087.333781
_symmetry_space_group_name_H-M "C M C M"
_symmetry_group_IT_number 63
_symmetry_cell_setting 'orthorhombic'
loop_
_space_group_symop_operation_xyz
x,y,z
-x,-y,1/2+z
x,-y,-z
-x,y,1/2-z
-x,-y,-z
x,y,1/2-z
-x,y,z
x,-y,1/2+z
1/2+x,1/2+y,z
1/2-x,1/2-y,1/2+z
1/2+x,1/2-y,-z
1/2-x,1/2+y,1/2-z
1/2-x,1/2-y,-z
1/2+x,1/2+y,1/2-z
1/2-x,1/2+y,z
1/2+x,1/2-y,1/2+z
loop_
_atom_site_type_symbol
_atom_site_label
_atom_site_fract_x
_atom_site_fract_y
_atom_site_fract_z
Si Si1 0.349092 0.905080 0.950583
Si Si2 0.878692 0.322217 0.395364
Si Si3 0.429745 0.351010 0.691648
Si Si4 0.245003 0.709306 0.129217
Si Si5 0.426709 0.667198 0.007001
Si Si6 0.688098 0.537274 0.689848
O O1 0.287012 0.851147 0.922182
O O2 0.391159 0.767093 0.965637
O O3 0.389812 0.010817 0.913148
O O4 0.328118 0.000000 0.000000
O O5 0.913556 0.292418 0.341709
O O6 0.804597 0.299810 0.389804
O O7 0.907823 0.208823 0.435526
O O8 0.421406 0.298809 0.750000
O O9 0.500000 0.406694 0.680552
O O10 0.382843 0.484085 0.679083
O O11 0.263293 0.580315 0.167873
O O12 0.196748 0.810928 0.160289
O O13 0.500000 0.690119 0.998131
O O14 0.406366 0.500000 0.000000
O O15 0.701627 0.558738 0.750000
#
# Coordination Sequence:
#
# PCOD8260181 Si02
#       6
#    16  16  16  16  16  16
#     4  10  23  39  56  83 118 155 191 241 295 342
#     4  10  21  37  58  84 116 153 192 241 290 350
#     4   9  19  36  60  88 116 151 196 242 293 350
#     4  11  21  38  57  89 118 153 198 236 296 352
#     4  10  23  39  59  85 113 153 199 241 289 345
#     4  10  21  37  60  87 119 155 193 244 292 347
#
# _framework density 18.870394000000001
#
# number of rings (size 3 to 8) (size 9 to 14) (size 15 to 20)
#    0.000    2.000    1.667    1.000    4.667    7.667 
#    0.000    0.000    0.000    0.000    0.000    2.333 
#    0.000    0.000    0.000    0.000    0.000    0.000 
#
# Total GULP energy -595279.982928 kJ/mol
# GULP energy per Si atom -12401.666311 kJ/mol
# Density = 1.882744 g / cm^3
# Si number density = 18.870394 Si / 1000 Ang^3
#
#
#
# Elastic Constant Matrix: (Units=GPa)
#
#
# Indices 1 2 3 4 5 6 
#
# 1 113.0545 57.2343 62.7032 0.0000 0.0000 0.0000
# 2 57.2343 115.4502 63.5394 0.0000 0.0000 0.0000
# 3 62.7032 63.5394 101.3650 0.0000 0.0000 0.0000
# 4 0.0000 0.0000 0.0000 29.5779 0.0000 0.0000
# 5 0.0000 0.0000 0.0000 0.0000 27.6187 0.0000
# 6 0.0000 0.0000 0.0000 0.0000 0.0000 17.7358
#
#
#
# Elastic Compliance Matrix: (Units=1/GPa)
#
#
# Indices 1 2 3 4 5 6 
#
# 1 0.014282 -0.003386 -0.006712 0.000000 0.000000 0.000000
# 2 -0.003386 0.014027 -0.006698 0.000000 0.000000 0.000000
# 3 -0.006712 -0.006698 0.018216 0.000000 0.000000 0.000000
# 4 0.000000 0.000000 0.000000 0.033809 0.000000 0.000000
# 5 0.000000 0.000000 0.000000 0.000000 0.036207 0.000000
# 6 0.000000 0.000000 0.000000 0.000000 0.000000 0.056383
#
#
# Mechanical properties :
#
#
# Convention : Reuss Voigt Hill
#
# Bulk Modulus (GPa) = 77.32547 77.42485 77.37516
# Shear Modulus (GPa) = 23.71604 24.74601 24.23102
#
# Velocity S-wave (km/s) = 3.54896 3.62521 3.58729
# Velocity P-wave (km/s) = 7.60655 7.65779 7.63221
#
# Compressibility (1/GPa) = 0.01293235
#
# Stress axis : x y z
#
# Youngs Moduli (GPa) = 70.01596 71.29278 54.89726
#
# Poissons Ratio (x) = 0.24142 0.36849
# Poissons Ratio (y) = 0.23710 0.36769
# Poissons Ratio (z) = 0.46997 0.47750
#
# Static dielectric constant tensor:
#      x y z
#    x 3.451910 0.000000 0.000000 
#    y 0.000000 3.459690 0.000000 
#    z 0.000000 0.000000 3.614120 
# 
# 
# High freq. dielectric constant tensor:
#      x y z
#    x 1.730120 0.000000 0.000000 
#    y 0.000000 1.727450 0.000000 
#    z 0.000000 0.000000 1.745660 
# 
# From -- ./inp_files/70278.got.cif
#   From: 2010.03.12/outbox.cif.g09.slc.cpg/sg63_36_cif.got.tgz:70278.got - 2010.04.10 19:34:48.
