data_PCOD8260363
_publ_section_title
;
Structure prediction by ZEFSAII (Michael W. Deem and Ramdas Pophale) SiO2 
 PCOD8260363
Probable space group: C M C M
;
_chemical_formula_sum "Si O2"
_cell_formula_units_Z 96
_cell_length_a 20.298904
_cell_length_b 14.922904
_cell_length_c 14.788730
_cell_angle_alpha 90.000000
_cell_angle_beta 90.000000
_cell_angle_gamma 90.000000
_cell_volume 4479.781324
_symmetry_space_group_name_H-M "C M C M"
_symmetry_group_IT_number 63
_symmetry_cell_setting 'orthorhombic'
loop_
_space_group_symop_operation_xyz
x,y,z
-x,-y,1/2+z
x,-y,-z
-x,y,1/2-z
-x,-y,-z
x,y,1/2-z
-x,y,z
x,-y,1/2+z
1/2+x,1/2+y,z
1/2-x,1/2-y,1/2+z
1/2+x,1/2-y,-z
1/2-x,1/2+y,1/2-z
1/2-x,1/2-y,-z
1/2+x,1/2+y,1/2-z
1/2-x,1/2+y,z
1/2+x,1/2-y,1/2+z
loop_
_atom_site_type_symbol
_atom_site_label
_atom_site_fract_x
_atom_site_fract_y
_atom_site_fract_z
Si Si1 0.072166 0.600197 0.482101
Si Si2 0.251285 0.709540 0.900466
Si Si3 0.926599 0.915218 0.856934
Si Si4 0.312360 0.882569 0.849279
Si Si5 0.700177 0.480435 0.142299
Si Si6 0.895168 0.286992 0.353251
O O1 0.094712 0.500000 0.500000
O O2 0.126583 0.638700 0.414713
O O3 0.065477 0.651123 0.577411
O O4 0.000000 0.604036 0.435700
O O5 0.279025 0.785938 0.834904
O O6 0.293574 0.618361 0.899461
O O7 0.180271 0.684243 0.862273
O O8 0.250000 0.750000 0.000000
O O9 0.927911 0.923117 0.750000
O O10 0.907100 0.814648 0.884310
O O11 0.000000 0.939039 0.895321
O O12 0.869849 0.981410 0.894679
O O13 0.336542 0.915114 0.750000
O O14 0.259975 0.954347 0.889939
O O15 0.700443 0.476431 0.250000
O O16 0.919411 0.303211 0.250000
#
# Coordination Sequence:
#
# PCOD8260363 Si02
#       6
#    16  16  16  16  16  16
#     4  11  25  42  61  91 127 166 216 269 325 391
#     4  12  23  38  64  95 129 167 213 270 324 386
#     4   9  18  35  62  95 130 168 213 268 326 387
#     4  11  23  42  65  93 128 168 215 269 327 386
#     4  10  21  38  64  96 129 167 216 269 326 393
#     4  11  21  40  67  96 126 166 219 275 329 385
#
# _framework density 21.429618000000001
#
# number of rings (size 3 to 8) (size 9 to 14) (size 15 to 20)
#    0.000    1.333    3.333    3.000    0.000    3.333 
#    0.000    2.500    0.000    3.000    0.000    0.000 
#    0.000    0.000    0.000    0.000    0.000    0.000 
#
# Total GULP energy -595069.907586 kJ/mol
# GULP energy per Si atom -12397.289741 kJ/mol
# Density = 2.138084 g / cm^3
# Si number density = 21.429618 Si / 1000 Ang^3
#
#
#
# Elastic Constant Matrix: (Units=GPa)
#
#
# Indices 1 2 3 4 5 6 
#
# 1 128.7984 41.7452 26.8140 0.0000 0.0000 0.0000
# 2 41.7452 141.5119 21.6334 0.0000 0.0000 0.0000
# 3 26.8140 21.6334 77.4417 0.0000 0.0000 0.0000
# 4 0.0000 0.0000 0.0000 31.4083 0.0000 0.0000
# 5 0.0000 0.0000 0.0000 0.0000 14.0940 0.0000
# 6 0.0000 0.0000 0.0000 0.0000 0.0000 -9.9745
#
#
#
# Elastic Compliance Matrix: (Units=1/GPa)
#
#
# Indices 1 2 3 4 5 6 
#
# 1 0.009021 -0.002281 -0.002486 0.000000 0.000000 0.000000
# 2 -0.002281 0.007959 -0.001433 0.000000 0.000000 0.000000
# 3 -0.002486 -0.001433 0.014174 0.000000 0.000000 0.000000
# 4 0.000000 0.000000 0.000000 0.031839 0.000000 0.000000
# 5 0.000000 0.000000 0.000000 0.000000 0.070952 0.000000
# 6 0.000000 0.000000 0.000000 0.000000 0.000000 -0.100255
#
#
# Mechanical properties :
#
#
# Convention : Reuss Voigt Hill
#
# Bulk Modulus (GPa) = 53.32685 58.68191 56.00438
# Shear Modulus (GPa) = 95.52590 24.27618 59.90104
#
# Velocity S-wave (km/s) = 6.68381 3.36941 5.29274
# Velocity P-wave (km/s) = 9.19256 6.52535 7.97130
#
# Compressibility (1/GPa) = 0.01875228
#
# Stress axis : x y z
#
# Youngs Moduli (GPa) = 110.85242 125.65060 70.55049
#
# Poissons Ratio (x) = 0.28662 0.17541
# Poissons Ratio (y) = 0.25286 0.10113
# Poissons Ratio (z) = 0.27561 0.18011
#
# Static dielectric constant tensor:
#      x y z
#    x 4.026310 0.000000 0.000000 
#    y 0.000000 3.963200 0.000000 
#    z 0.000000 0.000000 3.696550 
# 
# 
# High freq. dielectric constant tensor:
#      x y z
#    x 1.844800 0.000000 0.000000 
#    y 0.000000 1.841240 0.000000 
#    z 0.000000 0.000000 1.828370 
# 
# From -- ./inp_files/35291.got.cif
#   From: 2010.03.12/outbox.cif.g09.slc.cpg/sg63_18_cif.got.tgz:35291.got - 2010.04.10 19:34:48.
