data_PCOD8260387
_publ_section_title
;
Structure prediction by ZEFSAII (Michael W. Deem and Ramdas Pophale) SiO2 
 PCOD8260387
Probable space group: C M C M
;
_chemical_formula_sum "Si O2"
_cell_formula_units_Z 48
_cell_length_a 7.930072
_cell_length_b 22.154629
_cell_length_c 14.634565
_cell_angle_alpha 90.000000
_cell_angle_beta 90.000000
_cell_angle_gamma 90.000000
_cell_volume 2571.114574
_symmetry_space_group_name_H-M "C M C M"
_symmetry_group_IT_number 63
_symmetry_cell_setting 'orthorhombic'
loop_
_space_group_symop_operation_xyz
x,y,z
-x,-y,1/2+z
x,-y,-z
-x,y,1/2-z
-x,-y,-z
x,y,1/2-z
-x,y,z
x,-y,1/2+z
1/2+x,1/2+y,z
1/2-x,1/2-y,1/2+z
1/2+x,1/2-y,-z
1/2-x,1/2+y,1/2-z
1/2-x,1/2-y,-z
1/2+x,1/2+y,1/2-z
1/2-x,1/2+y,z
1/2+x,1/2-y,1/2+z
loop_
_atom_site_type_symbol
_atom_site_label
_atom_site_fract_x
_atom_site_fract_y
_atom_site_fract_z
Si Si1 0.000000 0.370529 0.852722
Si Si2 0.500000 0.993242 0.393042
Si Si3 0.684492 0.816990 0.009592
Si Si4 0.186792 0.090614 0.851960
O O1 0.000000 0.442550 0.844458
O O2 0.000000 0.343714 0.750000
O O3 0.166168 0.347452 0.908383
O O4 0.669551 0.958997 0.365188
O O5 0.500000 0.000000 0.500000
O O6 0.500000 0.815759 0.056872
O O7 0.804479 0.855635 0.074554
O O8 0.750000 0.750000 0.000000
O O9 0.205589 0.117921 0.750000
O O10 0.000000 0.061118 0.863378
#
# Coordination Sequence:
#
# PCOD8260387 Si02
#       4
#     8   8  16  16
#     4  10  22  39  64  89 126 171 206 256 320 368
#     4  12  20  43  65  94 125 169 204 263 318 376
#     4  10  21  39  60  88 127 164 208 258 310 365
#     4  11  23  39  65  97 125 162 210 259 314 380
#
# _framework density 18.668946999999999
#
# number of rings (size 3 to 8) (size 9 to 14) (size 15 to 20)
#    1.000    0.333    5.000    2.500    0.000    2.000 
#    0.000    0.000    0.000    5.000    0.000    0.000 
#    0.000    0.000    0.000    0.000    0.000    0.000 
#
# Total GULP energy -297408.262920 kJ/mol
# GULP energy per Si atom -12392.010955 kJ/mol
# Density = 1.862646 g / cm^3
# Si number density = 18.668947 Si / 1000 Ang^3
#
#
#
# Elastic Constant Matrix: (Units=GPa)
#
#
# Indices 1 2 3 4 5 6 
#
# 1 133.7832 49.6423 49.0379 0.0000 0.0000 0.0000
# 2 49.6423 132.5140 49.0433 0.0000 0.0000 0.0000
# 3 49.0379 49.0433 162.3757 0.0000 0.0000 0.0000
# 4 0.0000 0.0000 0.0000 11.2713 0.0000 0.0000
# 5 0.0000 0.0000 0.0000 0.0000 25.7156 0.0000
# 6 0.0000 0.0000 0.0000 0.0000 0.0000 31.1062
#
#
#
# Elastic Compliance Matrix: (Units=1/GPa)
#
#
# Indices 1 2 3 4 5 6 
#
# 1 0.009202 -0.002723 -0.001957 0.000000 0.000000 0.000000
# 2 -0.002723 0.009302 -0.001987 0.000000 0.000000 0.000000
# 3 -0.001957 -0.001987 0.007350 0.000000 0.000000 0.000000
# 4 0.000000 0.000000 0.000000 0.088721 0.000000 0.000000
# 5 0.000000 0.000000 0.000000 0.000000 0.038887 0.000000
# 6 0.000000 0.000000 0.000000 0.000000 0.000000 0.032148
#
#
# Mechanical properties :
#
#
# Convention : Reuss Voigt Hill
#
# Bulk Modulus (GPa) = 79.87170 80.45776 80.16473
# Shear Modulus (GPa) = 24.61629 32.34858 28.48244
#
# Velocity S-wave (km/s) = 3.63515 4.16715 3.91021
# Velocity P-wave (km/s) = 7.77786 8.14519 7.96364
#
# Compressibility (1/GPa) = 0.01252008
#
# Stress axis : x y z
#
# Youngs Moduli (GPa) = 108.66615 107.50388 136.06094
#
# Poissons Ratio (x) = 0.29276 0.26622
# Poissons Ratio (y) = 0.29593 0.27037
# Poissons Ratio (z) = 0.21262 0.21362
#
# Static dielectric constant tensor:
#      x y z
#    x 3.441460 0.000000 0.000000 
#    y 0.000000 3.825940 0.000000 
#    z 0.000000 0.000000 3.568780 
# 
# 
# High freq. dielectric constant tensor:
#      x y z
#    x 1.723620 0.000000 0.000000 
#    y 0.000000 1.715870 0.000000 
#    z 0.000000 0.000000 1.732800 
# 
# From -- ./inp_files/27055.got.cif
#   From: 2010.03.12/outbox.cif.g09.slc.cpg/sg63_14_cif.got.tgz:27055.got - 2010.04.10 19:34:48.
