data_PCOD8260312
_publ_section_title
;
Structure prediction by ZEFSAII (Michael W. Deem and Ramdas Pophale) SiO2 
 PCOD8260312
Probable space group: C M C M
;
_chemical_formula_sum "Si O2"
_cell_formula_units_Z 56
_cell_length_a 10.898582
_cell_length_b 28.387280
_cell_length_c 8.542141
_cell_angle_alpha 90.000000
_cell_angle_beta 90.000000
_cell_angle_gamma 90.000000
_cell_volume 2642.776969
_symmetry_space_group_name_H-M "C M C M"
_symmetry_group_IT_number 63
_symmetry_cell_setting 'orthorhombic'
loop_
_space_group_symop_operation_xyz
x,y,z
-x,-y,1/2+z
x,-y,-z
-x,y,1/2-z
-x,-y,-z
x,y,1/2-z
-x,y,z
x,-y,1/2+z
1/2+x,1/2+y,z
1/2-x,1/2-y,1/2+z
1/2+x,1/2-y,-z
1/2-x,1/2+y,1/2-z
1/2-x,1/2-y,-z
1/2+x,1/2+y,1/2-z
1/2-x,1/2+y,z
1/2+x,1/2-y,1/2+z
loop_
_atom_site_type_symbol
_atom_site_label
_atom_site_fract_x
_atom_site_fract_y
_atom_site_fract_z
Si Si1 0.360362 0.218527 0.933703
Si Si2 0.000000 0.448199 0.436138
Si Si3 0.856688 0.952445 0.076302
Si Si4 0.702287 0.118364 0.067450
O O1 0.360523 0.225875 0.750000
O O2 0.500000 0.230776 0.996399
O O3 0.250000 0.250000 0.000000
O O4 0.328230 0.165158 0.973155
O O5 0.000000 0.500000 0.500000
O O6 0.116999 0.423154 0.508064
O O7 0.000000 0.445777 0.250000
O O8 0.798667 0.947010 0.250000
O O9 0.000000 0.958898 0.089784
O O10 0.833958 0.904479 0.974967
O O11 0.799926 0.000000 0.000000
O O12 0.688759 0.129647 0.250000
#
# Coordination Sequence:
#
# PCOD8260312 Si02
#       4
#    16   8  16  16
#     4  11  25  46  72 100 133 174 222 281 344 409
#     4  12  24  40  62  92 130 170 214 262 319 388
#     4  10  21  38  60  88 126 171 217 266 322 387
#     4  12  24  40  64  93 127 167 213 265 326 391
#
# _framework density 21.189831999999999
#
# number of rings (size 3 to 8) (size 9 to 14) (size 15 to 20)
#    0.000    0.857    1.429    6.429    0.000    4.571 
#    0.000    0.000    0.000    0.000    0.000    0.000 
#    0.000    0.000    0.000    0.000    0.000    0.000 
#
# Total GULP energy -347044.776925 kJ/mol
# GULP energy per Si atom -12394.456319 kJ/mol
# Density = 2.114160 g / cm^3
# Si number density = 21.189832 Si / 1000 Ang^3
#
#
#
# Elastic Constant Matrix: (Units=GPa)
#
#
# Indices 1 2 3 4 5 6 
#
# 1 97.8171 66.4181 30.9350 0.0000 0.0000 0.0000
# 2 66.4181 131.7036 16.2106 0.0000 0.0000 0.0000
# 3 30.9350 16.2106 88.9507 0.0000 0.0000 0.0000
# 4 0.0000 0.0000 0.0000 43.3596 0.0000 0.0000
# 5 0.0000 0.0000 0.0000 0.0000 -18.4491 0.0000
# 6 0.0000 0.0000 0.0000 0.0000 0.0000 11.5904
#
#
#
# Elastic Compliance Matrix: (Units=1/GPa)
#
#
# Indices 1 2 3 4 5 6 
#
# 1 0.017133 -0.008088 -0.004485 0.000000 0.000000 0.000000
# 2 -0.008088 0.011585 0.000702 0.000000 0.000000 0.000000
# 3 -0.004485 0.000702 0.012674 0.000000 0.000000 0.000000
# 4 0.000000 0.000000 0.000000 0.023063 0.000000 0.000000
# 5 0.000000 0.000000 0.000000 0.000000 -0.054203 0.000000
# 6 0.000000 0.000000 0.000000 0.000000 0.000000 0.086279
#
#
# Mechanical properties :
#
#
# Convention : Reuss Voigt Hill
#
# Bulk Modulus (GPa) = 56.65693 60.62208 58.63951
# Shear Modulus (GPa) = 39.63297 20.96068 30.29683
#
# Velocity S-wave (km/s) = 4.32948 3.14854 3.78535
# Velocity P-wave (km/s) = 7.19641 6.47217 6.84388
#
# Compressibility (1/GPa) = 0.01765009
#
# Stress axis : x y z
#
# Youngs Moduli (GPa) = 58.36519 86.31515 78.90201
#
# Poissons Ratio (x) = 0.69816 0.35384
# Poissons Ratio (y) = 0.47208 -0.05536
# Poissons Ratio (z) = 0.26174 -0.06056
#
# Static dielectric constant tensor:
#      x y z
#    x 4.165980 0.000000 0.000000 
#    y 0.000000 3.926720 0.000000 
#    z 0.000000 0.000000 4.140710 
# 
# 
# High freq. dielectric constant tensor:
#      x y z
#    x 1.845090 0.000000 0.000000 
#    y 0.000000 1.831490 0.000000 
#    z 0.000000 0.000000 1.843920 
# 
# From -- ./inp_files/2828.got.cif
#   From: 2010.03.12/outbox.cif.g09.slc.cpg/sg63_2_cif.got.tgz:2828.got - 2010.04.10 19:34:48.
