data_PCOD8260503
_publ_section_title
;
Structure prediction by ZEFSAII (Michael W. Deem and Ramdas Pophale) SiO2 
 PCOD8260503
Probable space group: C M C M
;
_chemical_formula_sum "Si O2"
_cell_formula_units_Z 112
_cell_length_a 15.103254
_cell_length_b 11.053745
_cell_length_c 30.649278
_cell_angle_alpha 90.000000
_cell_angle_beta 90.000000
_cell_angle_gamma 90.000000
_cell_volume 5116.820902
_symmetry_space_group_name_H-M "C M C M"
_symmetry_group_IT_number 63
_symmetry_cell_setting 'orthorhombic'
loop_
_space_group_symop_operation_xyz
x,y,z
-x,-y,1/2+z
x,-y,-z
-x,y,1/2-z
-x,-y,-z
x,y,1/2-z
-x,y,z
x,-y,1/2+z
1/2+x,1/2+y,z
1/2-x,1/2-y,1/2+z
1/2+x,1/2-y,-z
1/2-x,1/2+y,1/2-z
1/2-x,1/2-y,-z
1/2+x,1/2+y,1/2-z
1/2-x,1/2+y,z
1/2+x,1/2-y,1/2+z
loop_
_atom_site_type_symbol
_atom_site_label
_atom_site_fract_x
_atom_site_fract_y
_atom_site_fract_z
Si Si1 0.398721 0.505774 0.126011
Si Si2 0.290979 0.380867 0.201555
Si Si3 0.595970 0.895451 0.323105
Si Si4 0.361436 0.229122 0.591877
Si Si5 0.099245 0.635949 0.498866
Si Si6 0.098472 0.672929 0.166064
Si Si7 0.840087 0.776949 0.081511
O O1 0.500000 0.514629 0.143283
O O2 0.331029 0.474870 0.165957
O O3 0.370533 0.630117 0.103634
O O4 0.393920 0.401599 0.088951
O O5 0.309593 0.432250 0.250000
O O6 0.186189 0.346446 0.198126
O O7 0.337839 0.252212 0.196037
O O8 0.500000 0.855942 0.301711
O O9 0.589236 0.853944 0.373118
O O10 0.604164 0.037960 0.317640
O O11 0.404059 0.200642 0.545407
O O12 0.260231 0.189415 0.591715
O O13 0.141161 0.500000 0.500000
O O14 0.153908 0.723543 0.466944
O O15 0.000000 0.625577 0.480186
O O16 0.125996 0.676197 0.115313
O O17 0.000000 0.726499 0.171030
#
# Coordination Sequence:
#
# PCOD8260503 Si02
#       7
#    16  16  16  16  16  16  16
#     4  11  24  43  68  97 133 178 219 266 337 409
#     4  11  24  42  68  98 130 167 218 277 330 396
#     4  11  23  42  67  95 130 173 218 268 330 397
#     4  12  24  42  65  96 136 178 219 271 335 399
#     4  11  24  40  63  96 131 175 231 286 330 379
#     4  10  21  41  69  95 126 171 216 267 328 391
#     4  11  22  39  65  93 133 173 224 270 326 391
#
# _framework density 21.888590000000001
#
# number of rings (size 3 to 8) (size 9 to 14) (size 15 to 20)
#    0.000    1.000    2.857    6.000    2.000    4.857 
#    0.000    2.857    0.000    1.714    0.000    0.000 
#    0.000    0.000    0.000    0.000    0.000    0.000 
#
# Total GULP energy -694189.616785 kJ/mol
# GULP energy per Si atom -12396.243157 kJ/mol
# Density = 2.183877 g / cm^3
# Si number density = 21.888590 Si / 1000 Ang^3
#
#
#
# Elastic Constant Matrix: (Units=GPa)
#
#
# Indices 1 2 3 4 5 6 
#
# 1 142.6252 18.6926 22.2496 0.0000 0.0000 0.0000
# 2 18.6926 84.2777 47.9339 0.0000 0.0000 0.0000
# 3 22.2496 47.9339 124.4167 0.0000 0.0000 0.0000
# 4 0.0000 0.0000 0.0000 19.0417 0.0000 0.0000
# 5 0.0000 0.0000 0.0000 0.0000 -5.4995 0.0000
# 6 0.0000 0.0000 0.0000 0.0000 0.0000 20.1014
#
#
#
# Elastic Compliance Matrix: (Units=1/GPa)
#
#
# Indices 1 2 3 4 5 6 
#
# 1 0.007294 -0.001122 -0.000872 0.000000 0.000000 0.000000
# 2 -0.001122 0.015368 -0.005720 0.000000 0.000000 0.000000
# 3 -0.000872 -0.005720 0.010397 0.000000 0.000000 0.000000
# 4 0.000000 0.000000 0.000000 0.052516 0.000000 0.000000
# 5 0.000000 0.000000 0.000000 0.000000 -0.181836 0.000000
# 6 0.000000 0.000000 0.000000 0.000000 0.000000 0.049748
#
#
# Mechanical properties :
#
#
# Convention : Reuss Voigt Hill
#
# Bulk Modulus (GPa) = 56.71782 58.78574 57.75178
# Shear Modulus (GPa) = -198.35590 24.22497 -87.06547
#
# Velocity S-wave (km/s) = -9.52982 3.33038 -6.31371
# Velocity P-wave (km/s) = 9.75303 6.45784 5.16807
#
# Compressibility (1/GPa) = 0.01763114
#
# Stress axis : x y z
#
# Youngs Moduli (GPa) = 137.08988 65.07154 96.17901
#
# Poissons Ratio (x) = 0.07300 0.08390
# Poissons Ratio (y) = 0.15378 0.55015
# Poissons Ratio (z) = 0.11958 0.37222
#
# Static dielectric constant tensor:
#      x y z
#    x 4.437770 0.000000 0.000000 
#    y 0.000000 3.829020 0.000000 
#    z 0.000000 0.000000 3.788380 
# 
# 
# High freq. dielectric constant tensor:
#      x y z
#    x 1.883820 0.000000 0.000000 
#    y 0.000000 1.856150 0.000000 
#    z 0.000000 0.000000 1.843940 
# 
# From -- ./inp_files/73397.got.cif
#   From: 2010.03.12/outbox.cif.g09.slc.cpg/sg63_37_cif.got.tgz:73397.got - 2010.04.10 19:34:48.
