data_PCOD8260716
_publ_section_title
;
Structure prediction by ZEFSAII (Michael W. Deem and Ramdas Pophale) SiO2 
 PCOD8260716
Probable space group: C M C M
;
_chemical_formula_sum "Si O2"
_cell_formula_units_Z 44
_cell_length_a 7.587817
_cell_length_b 13.515792
_cell_length_c 23.374323
_cell_angle_alpha 90.000000
_cell_angle_beta 90.000000
_cell_angle_gamma 90.000000
_cell_volume 2397.162024
_symmetry_space_group_name_H-M "C M C M"
_symmetry_group_IT_number 63
_symmetry_cell_setting 'orthorhombic'
loop_
_space_group_symop_operation_xyz
x,y,z
-x,-y,1/2+z
x,-y,-z
-x,y,1/2-z
-x,-y,-z
x,y,1/2-z
-x,y,z
x,-y,1/2+z
1/2+x,1/2+y,z
1/2-x,1/2-y,1/2+z
1/2+x,1/2-y,-z
1/2-x,1/2+y,1/2-z
1/2-x,1/2-y,-z
1/2+x,1/2+y,1/2-z
1/2-x,1/2+y,z
1/2+x,1/2-y,1/2+z
loop_
_atom_site_type_symbol
_atom_site_label
_atom_site_fract_x
_atom_site_fract_y
_atom_site_fract_z
Si Si1 0.000000 0.619748 0.750000
Si Si2 0.500000 0.789949 0.372782
Si Si3 0.301874 0.460302 0.750000
Si Si4 0.000000 0.501475 0.567536
Si Si5 0.694471 0.853056 0.636477
O O1 0.000000 0.688355 0.694637
O O2 0.173085 0.553059 0.750000
O O3 0.325605 0.728298 0.389428
O O4 0.500000 0.886966 0.410907
O O5 0.500000 0.502086 0.750000
O O6 0.272810 0.392449 0.695275
O O7 0.000000 0.500000 0.500000
O O8 0.173726 0.444765 0.591838
O O9 0.500000 0.805445 0.647191
#
# Coordination Sequence:
#
# PCOD8260716 Si02
#       5
#     4   8   8   8  16
#     4  12  22  38  62  96 132 168 194 260 324 388
#     4  12  22  40  70  90 127 170 202 253 339 363
#     4  12  19  37  67  93 131 162 200 261 321 379
#     4  10  24  46  65  89 130 166 218 268 296 364
#     4  10  22  41  63  93 129 157 209 262 309 376
#
# _framework density 18.355036999999999
#
# number of rings (size 3 to 8) (size 9 to 14) (size 15 to 20)
#    1.091    0.000    7.273    1.091    0.000    2.909 
#    3.273    0.909    0.000    0.000    0.000    0.000 
#    0.000    0.000    0.000    0.000    0.000    0.000 
#
# Total GULP energy -272740.407076 kJ/mol
# GULP energy per Si atom -12397.291231 kJ/mol
# Density = 1.831326 g / cm^3
# Si number density = 18.355037 Si / 1000 Ang^3
#
#
#
# Elastic Constant Matrix: (Units=GPa)
#
#
# Indices 1 2 3 4 5 6 
#
# 1 167.4037 72.2454 31.6426 0.0000 0.0000 0.0000
# 2 72.2454 139.2738 56.5324 0.0000 0.0000 0.0000
# 3 31.6426 56.5324 137.7708 0.0000 0.0000 0.0000
# 4 0.0000 0.0000 0.0000 8.6954 0.0000 0.0000
# 5 0.0000 0.0000 0.0000 0.0000 -8.7840 0.0000
# 6 0.0000 0.0000 0.0000 0.0000 0.0000 50.5190
#
#
#
# Elastic Compliance Matrix: (Units=1/GPa)
#
#
# Indices 1 2 3 4 5 6 
#
# 1 0.007699 -0.003931 -0.000155 0.000000 0.000000 0.000000
# 2 -0.003931 0.010622 -0.003456 0.000000 0.000000 0.000000
# 3 -0.000155 -0.003456 0.008712 0.000000 0.000000 0.000000
# 4 0.000000 0.000000 0.000000 0.115003 0.000000 0.000000
# 5 0.000000 0.000000 0.000000 0.000000 -0.113843 0.000000
# 6 0.000000 0.000000 0.000000 0.000000 0.000000 0.019795
#
#
# Mechanical properties :
#
#
# Convention : Reuss Voigt Hill
#
# Bulk Modulus (GPa) = 83.68571 85.03213 84.35892
# Shear Modulus (GPa) = 74.56574 29.02128 51.79351
#
# Velocity S-wave (km/s) = 6.38062 3.98063 5.31779
# Velocity P-wave (km/s) = 9.99874 8.21913 9.15229
#
# Compressibility (1/GPa) = 0.01194947
#
# Stress axis : x y z
#
# Youngs Moduli (GPa) = 129.88107 94.14578 114.78249
#
# Poissons Ratio (x) = 0.37007 0.01784
# Poissons Ratio (y) = 0.51054 0.39666
# Poissons Ratio (z) = 0.02018 0.32534
#
# Static dielectric constant tensor:
#      x y z
#    x 3.071210 0.000000 0.000000 
#    y 0.000000 3.407350 0.000000 
#    z 0.000000 0.000000 2.348240 
# 
# 
# High freq. dielectric constant tensor:
#      x y z
#    x 1.714850 0.000000 0.000000 
#    y 0.000000 1.712330 0.000000 
#    z 0.000000 0.000000 1.697970 
# 
# From -- ./inp_files/50022.got.cif
#   From: 2010.03.12/outbox.cif.g09.slc.cpg/sg63_26_cif.got.tgz:50022.got - 2010.04.10 19:34:48.
