data_PCOD8260140
_publ_section_title
;
Structure prediction by ZEFSAII (Michael W. Deem and Ramdas Pophale) SiO2 
 PCOD8260140
Probable space group: C M C M
;
_chemical_formula_sum "Si O2"
_cell_formula_units_Z 96
_cell_length_a 8.907895
_cell_length_b 25.483256
_cell_length_c 22.998451
_cell_angle_alpha 90.000000
_cell_angle_beta 90.000000
_cell_angle_gamma 90.000000
_cell_volume 5220.698254
_symmetry_space_group_name_H-M "C M C M"
_symmetry_group_IT_number 63
_symmetry_cell_setting 'orthorhombic'
loop_
_space_group_symop_operation_xyz
x,y,z
-x,-y,1/2+z
x,-y,-z
-x,y,1/2-z
-x,-y,-z
x,y,1/2-z
-x,y,z
x,-y,1/2+z
1/2+x,1/2+y,z
1/2-x,1/2-y,1/2+z
1/2+x,1/2-y,-z
1/2-x,1/2+y,1/2-z
1/2-x,1/2-y,-z
1/2+x,1/2+y,1/2-z
1/2-x,1/2+y,z
1/2+x,1/2-y,1/2+z
loop_
_atom_site_type_symbol
_atom_site_label
_atom_site_fract_x
_atom_site_fract_y
_atom_site_fract_z
Si Si1 0.174429 0.343847 0.869898
Si Si2 0.677953 0.656998 0.889618
Si Si3 0.677441 0.441581 0.315756
Si Si4 0.173419 0.747202 0.682732
Si Si5 0.674755 0.952595 0.683447
Si Si6 0.175290 0.306601 0.998325
O O1 0.274044 0.306182 0.829885
O O2 0.223093 0.403145 0.855425
O O3 0.000000 0.334482 0.854535
O O4 0.208067 0.334228 0.937308
O O5 0.500000 0.657601 0.896590
O O6 0.736748 0.605936 0.855389
O O7 0.725247 0.708875 0.855302
O O8 0.753195 0.656112 0.952835
O O9 0.736618 0.432416 0.250000
O O10 0.500000 0.443676 0.316976
O O11 0.739753 0.496280 0.340699
O O12 0.198866 0.733989 0.750000
O O13 0.000000 0.740761 0.665018
O O14 0.720611 0.941000 0.750000
O O15 0.500000 0.964330 0.677732
O O16 0.000000 0.299535 0.010171
O O17 0.250000 0.250000 0.000000
#
# Coordination Sequence:
#
# PCOD8260140 Si02
#       6
#    16  16  16  16  16  16
#     4  10  21  37  57  80 109 147 186 224 276 336
#     4  11  22  37  57  80 109 148 188 228 277 332
#     4   9  19  36  57  81 109 143 183 226 277 334
#     4  11  23  35  52  82 114 142 178 228 281 332
#     4   9  18  34  57  83 109 140 180 225 275 332
#     4  11  22  37  57  81 110 148 190 231 277 330
#
# _framework density 18.388345000000001
#
# number of rings (size 3 to 8) (size 9 to 14) (size 15 to 20)
#    0.000    1.833    1.667    2.500    0.000    5.333 
#    0.000    4.167    0.000    5.000    0.000    0.000 
#    0.000    0.000    0.000    0.000    0.000    0.000 
#
# Total GULP energy -595414.250171 kJ/mol
# GULP energy per Si atom -12404.463545 kJ/mol
# Density = 1.834649 g / cm^3
# Si number density = 18.388345 Si / 1000 Ang^3
#
#
#
# Elastic Constant Matrix: (Units=GPa)
#
#
# Indices 1 2 3 4 5 6 
#
# 1 56.5092 31.1228 34.2683 0.0000 0.0000 0.0000
# 2 31.1228 128.7348 49.5372 0.0000 0.0000 0.0000
# 3 34.2683 49.5372 86.7691 0.0000 0.0000 0.0000
# 4 0.0000 0.0000 0.0000 29.8459 0.0000 0.0000
# 5 0.0000 0.0000 0.0000 0.0000 29.3938 0.0000
# 6 0.0000 0.0000 0.0000 0.0000 0.0000 33.4495
#
#
#
# Elastic Compliance Matrix: (Units=1/GPa)
#
#
# Indices 1 2 3 4 5 6 
#
# 1 0.024012 -0.002763 -0.007906 0.000000 0.000000 0.000000
# 2 -0.002763 0.010273 -0.004774 0.000000 0.000000 0.000000
# 3 -0.007906 -0.004774 0.017372 0.000000 0.000000 0.000000
# 4 0.000000 0.000000 0.000000 0.033505 0.000000 0.000000
# 5 0.000000 0.000000 0.000000 0.000000 0.034021 0.000000
# 6 0.000000 0.000000 0.000000 0.000000 0.000000 0.029896
#
#
# Mechanical properties :
#
#
# Convention : Reuss Voigt Hill
#
# Bulk Modulus (GPa) = 48.14059 55.76330 51.95194
# Shear Modulus (GPa) = 26.75389 29.01014 27.88201
#
# Velocity S-wave (km/s) = 3.81850 3.97626 3.89818
# Velocity P-wave (km/s) = 6.75855 7.17440 6.96958
#
# Compressibility (1/GPa) = 0.02077249
#
# Stress axis : x y z
#
# Youngs Moduli (GPa) = 41.64545 97.34468 57.56235
#
# Poissons Ratio (x) = 0.26896 0.45508
# Poissons Ratio (y) = 0.11507 0.27478
# Poissons Ratio (z) = 0.32924 0.46469
#
# Static dielectric constant tensor:
#      x y z
#    x 3.380530 0.000000 0.000000 
#    y 0.000000 3.471600 0.000000 
#    z 0.000000 0.000000 3.684590 
# 
# 
# High freq. dielectric constant tensor:
#      x y z
#    x 1.715720 0.000000 0.000000 
#    y 0.000000 1.714060 0.000000 
#    z 0.000000 0.000000 1.712320 
# 
# From -- ./inp_files/59826.got.cif
#   From: 2010.03.12/outbox.cif.g09.slc.cpg/sg63_30_cif.got.tgz:59826.got - 2010.04.10 19:34:48.
