data_PCOD8260801
_publ_section_title
;
Structure prediction by ZEFSAII (Michael W. Deem and Ramdas Pophale) SiO2 
 PCOD8260801
Probable space group: C M C M
;
_chemical_formula_sum "Si O2"
_cell_formula_units_Z 88
_cell_length_a 11.808439
_cell_length_b 15.143146
_cell_length_c 23.483435
_cell_angle_alpha 90.000000
_cell_angle_beta 90.000000
_cell_angle_gamma 90.000000
_cell_volume 4199.235419
_symmetry_space_group_name_H-M "C M C M"
_symmetry_group_IT_number 63
_symmetry_cell_setting 'orthorhombic'
loop_
_space_group_symop_operation_xyz
x,y,z
-x,-y,1/2+z
x,-y,-z
-x,y,1/2-z
-x,-y,-z
x,y,1/2-z
-x,y,z
x,-y,1/2+z
1/2+x,1/2+y,z
1/2-x,1/2-y,1/2+z
1/2+x,1/2-y,-z
1/2-x,1/2+y,1/2-z
1/2-x,1/2-y,-z
1/2+x,1/2+y,1/2-z
1/2-x,1/2+y,z
1/2+x,1/2-y,1/2+z
loop_
_atom_site_type_symbol
_atom_site_label
_atom_site_fract_x
_atom_site_fract_y
_atom_site_fract_z
Si Si1 0.260037 0.852557 0.996279
Si Si2 0.500000 0.022708 0.642577
Si Si3 0.000000 0.352949 0.687988
Si Si4 0.228244 0.269966 0.817901
Si Si5 0.756394 0.587518 0.622770
Si Si6 0.000000 0.412285 0.964823
Si Si7 0.634887 0.408349 0.614782
O O1 0.232538 0.898736 0.056086
O O2 0.250000 0.750000 0.000000
O O3 0.390016 0.858631 0.979766
O O4 0.177065 0.895201 0.949862
O O5 0.500000 0.960714 0.698402
O O6 0.500000 0.936920 0.600994
O O7 0.390717 0.082486 0.634371
O O8 0.115006 0.317586 0.658862
O O9 0.000000 0.308596 0.750000
O O10 0.245803 0.272247 0.750000
O O11 0.217088 0.169234 0.839023
O O12 0.331664 0.323421 0.847007
O O13 0.691304 0.497820 0.640770
O O14 0.000000 0.500000 0.000000
O O15 0.500000 0.418500 0.615434
#
# Coordination Sequence:
#
# PCOD8260801 Si02
#       7
#    16   8   8  16  16   8  16
#     4  12  24  41  68 102 137 180 228 281 342 412
#     4  12  22  42  74  97 134 176 231 282 339 408
#     4  10  22  46  74  98 129 174 232 290 332 397
#     4  11  26  48  73 103 136 178 234 286 341 406
#     4  12  25  43  70 104 136 181 229 280 345 407
#     4  12  20  40  66  93 131 174 219 279 337 401
#     4  12  27  47  67 100 147 185 225 281 348 413
#
# _framework density 20.956195000000001
#
# number of rings (size 3 to 8) (size 9 to 14) (size 15 to 20)
#    0.000    0.364    7.273    0.545    3.818    3.273 
#    0.000    0.000    0.000    0.000    0.000    0.000 
#    0.000    0.000    0.000    0.000    0.000    0.000 
#
# Total GULP energy -545496.578325 kJ/mol
# GULP energy per Si atom -12397.649507 kJ/mol
# Density = 2.090850 g / cm^3
# Si number density = 20.956195 Si / 1000 Ang^3
#
#
#
# Elastic Constant Matrix: (Units=GPa)
#
#
# Indices 1 2 3 4 5 6 
#
# 1 141.2398 31.6927 29.0857 0.0000 0.0000 0.0000
# 2 31.6927 118.5670 26.8979 0.0000 0.0000 0.0000
# 3 29.0857 26.8979 97.3512 0.0000 0.0000 0.0000
# 4 0.0000 0.0000 0.0000 27.6731 0.0000 0.0000
# 5 0.0000 0.0000 0.0000 0.0000 10.8240 0.0000
# 6 0.0000 0.0000 0.0000 0.0000 0.0000 38.4422
#
#
#
# Elastic Compliance Matrix: (Units=1/GPa)
#
#
# Indices 1 2 3 4 5 6 
#
# 1 0.007842 -0.001669 -0.001882 0.000000 0.000000 0.000000
# 2 -0.001669 0.009353 -0.002086 0.000000 0.000000 0.000000
# 3 -0.001882 -0.002086 0.011411 0.000000 0.000000 0.000000
# 4 0.000000 0.000000 0.000000 0.036136 0.000000 0.000000
# 5 0.000000 0.000000 0.000000 0.000000 0.092387 0.000000
# 6 0.000000 0.000000 0.000000 0.000000 0.000000 0.026013
#
#
# Mechanical properties :
#
#
# Convention : Reuss Voigt Hill
#
# Bulk Modulus (GPa) = 57.69409 59.16784 58.43096
# Shear Modulus (GPa) = 24.97578 33.35330 29.16454
#
# Velocity S-wave (km/s) = 3.45600 3.99378 3.73458
# Velocity P-wave (km/s) = 6.59665 7.04006 6.82196
#
# Compressibility (1/GPa) = 0.01733280
#
# Stress axis : x y z
#
# Youngs Moduli (GPa) = 127.51438 106.91321 87.63816
#
# Poissons Ratio (x) = 0.17847 0.16492
# Poissons Ratio (y) = 0.21286 0.18278
# Poissons Ratio (z) = 0.23996 0.22298
#
# Static dielectric constant tensor:
#      x y z
#    x 3.806840 0.000000 0.000000 
#    y 0.000000 3.760960 0.000000 
#    z 0.000000 0.000000 3.592470 
# 
# 
# High freq. dielectric constant tensor:
#      x y z
#    x 1.824690 0.000000 0.000000 
#    y 0.000000 1.835810 0.000000 
#    z 0.000000 0.000000 1.824800 
# 
# From -- ./inp_files/61284.got.cif
#   From: 2010.03.12/outbox.cif.g09.slc.cpg/sg63_31_cif.got.tgz:61284.got - 2010.04.10 19:34:48.
