data_PCOD8260776
_publ_section_title
;
Structure prediction by ZEFSAII (Michael W. Deem and Ramdas Pophale) SiO2 
 PCOD8260776
Probable space group: C M C M
;
_chemical_formula_sum "Si O2"
_cell_formula_units_Z 64
_cell_length_a 12.851095
_cell_length_b 16.183483
_cell_length_c 14.455812
_cell_angle_alpha 90.000000
_cell_angle_beta 90.000000
_cell_angle_gamma 90.000000
_cell_volume 3006.454403
_symmetry_space_group_name_H-M "C M C M"
_symmetry_group_IT_number 63
_symmetry_cell_setting 'orthorhombic'
loop_
_space_group_symop_operation_xyz
x,y,z
-x,-y,1/2+z
x,-y,-z
-x,y,1/2-z
-x,-y,-z
x,y,1/2-z
-x,y,z
x,-y,1/2+z
1/2+x,1/2+y,z
1/2-x,1/2-y,1/2+z
1/2+x,1/2-y,-z
1/2-x,1/2+y,1/2-z
1/2-x,1/2-y,-z
1/2+x,1/2+y,1/2-z
1/2-x,1/2+y,z
1/2+x,1/2-y,1/2+z
loop_
_atom_site_type_symbol
_atom_site_label
_atom_site_fract_x
_atom_site_fract_y
_atom_site_fract_z
Si Si1 0.174939 0.681492 0.968292
Si Si2 0.386227 0.904732 0.852549
Si Si3 0.719527 0.456751 0.148009
Si Si4 0.500000 0.727107 0.359462
Si Si5 0.500000 0.531925 0.101915
O O1 0.250879 0.611158 0.927456
O O2 0.098975 0.720307 0.892267
O O3 0.250000 0.750000 0.000000
O O4 0.113195 0.657733 0.061569
O O5 0.368418 0.862970 0.750000
O O6 0.500000 0.948181 0.852240
O O7 0.297345 0.969391 0.872757
O O8 0.738797 0.419555 0.250000
O O9 0.602916 0.492857 0.147083
O O10 0.500000 0.723927 0.250000
O O11 0.500000 0.632022 0.394853
O O12 0.500000 0.500000 0.000000
#
# Coordination Sequence:
#
# PCOD8260776 Si02
#       5
#    16  16  16   8   8
#     4  12  25  42  66 100 138 176 223 278 343 412
#     4  10  22  42  68  97 128 171 224 279 336 398
#     4  11  24  42  69  99 131 178 230 279 333 404
#     4  12  26  44  68 101 143 183 224 283 351 411
#     4  12  24  46  70  97 135 185 236 279 335 409
#
# _framework density 21.287534000000001
#
# number of rings (size 3 to 8) (size 9 to 14) (size 15 to 20)
#    0.000    0.750    1.250    7.125    1.750    5.000 
#    0.000    0.000    0.000    0.000    0.000    0.000 
#    0.000    0.000    0.000    0.000    0.000    0.000 
#
# Total GULP energy -396497.404364 kJ/mol
# GULP energy per Si atom -12390.543886 kJ/mol
# Density = 2.123908 g / cm^3
# Si number density = 21.287534 Si / 1000 Ang^3
#
#
#
# Elastic Constant Matrix: (Units=GPa)
#
#
# Indices 1 2 3 4 5 6 
#
# 1 164.3902 61.5406 35.8252 0.0000 0.0000 0.0000
# 2 61.5406 102.7603 64.4822 0.0000 0.0000 0.0000
# 3 35.8252 64.4822 151.5004 0.0000 0.0000 0.0000
# 4 0.0000 0.0000 0.0000 28.6314 0.0000 0.0000
# 5 0.0000 0.0000 0.0000 0.0000 30.7265 0.0000
# 6 0.0000 0.0000 0.0000 0.0000 0.0000 38.6732
#
#
#
# Elastic Compliance Matrix: (Units=1/GPa)
#
#
# Indices 1 2 3 4 5 6 
#
# 1 0.007845 -0.004822 0.000197 0.000000 0.000000 0.000000
# 2 -0.004822 0.016241 -0.005772 0.000000 0.000000 0.000000
# 3 0.000197 -0.005772 0.009011 0.000000 0.000000 0.000000
# 4 0.000000 0.000000 0.000000 0.034927 0.000000 0.000000
# 5 0.000000 0.000000 0.000000 0.000000 0.032545 0.000000
# 6 0.000000 0.000000 0.000000 0.000000 0.000000 0.025858
#
#
# Mechanical properties :
#
#
# Convention : Reuss Voigt Hill
#
# Bulk Modulus (GPa) = 81.28129 82.48300 81.88214
# Shear Modulus (GPa) = 33.04191 36.72640 34.88416
#
# Velocity S-wave (km/s) = 3.94404 4.15812 4.05249
# Velocity P-wave (km/s) = 7.68154 7.86667 7.77466
#
# Compressibility (1/GPa) = 0.01230295
#
# Stress axis : x y z
#
# Youngs Moduli (GPa) = 127.46478 61.57081 110.97665
#
# Poissons Ratio (x) = 0.29690 -0.02189
# Poissons Ratio (y) = 0.61465 0.64061
# Poissons Ratio (z) = -0.02514 0.35542
#
# Static dielectric constant tensor:
#      x y z
#    x 1.249520 0.000000 0.000000 
#    y 0.000000 3.061200 0.000000 
#    z 0.000000 0.000000 4.150380 
# 
# 
# High freq. dielectric constant tensor:
#      x y z
#    x 1.858760 0.000000 0.000000 
#    y 0.000000 1.814780 0.000000 
#    z 0.000000 0.000000 1.865380 
# 
# From -- ./inp_files/29163.got.cif
#   From: 2010.03.12/outbox.cif.g09.slc.cpg/sg63_15_cif.got.tgz:29163.got - 2010.04.10 19:34:48.
