data_PCOD8260460
_publ_section_title
;
Structure prediction by ZEFSAII (Michael W. Deem and Ramdas Pophale) SiO2 
 PCOD8260460
Probable space group: C M C M
;
_chemical_formula_sum "Si O2"
_cell_formula_units_Z 72
_cell_length_a 10.359295
_cell_length_b 14.514712
_cell_length_c 24.216958
_cell_angle_alpha 90.000000
_cell_angle_beta 90.000000
_cell_angle_gamma 90.000000
_cell_volume 3641.314681
_symmetry_space_group_name_H-M "C M C M"
_symmetry_group_IT_number 63
_symmetry_cell_setting 'orthorhombic'
loop_
_space_group_symop_operation_xyz
x,y,z
-x,-y,1/2+z
x,-y,-z
-x,y,1/2-z
-x,-y,-z
x,y,1/2-z
-x,y,z
x,-y,1/2+z
1/2+x,1/2+y,z
1/2-x,1/2-y,1/2+z
1/2+x,1/2-y,-z
1/2-x,1/2+y,1/2-z
1/2-x,1/2-y,-z
1/2+x,1/2+y,1/2-z
1/2-x,1/2+y,z
1/2+x,1/2-y,1/2+z
loop_
_atom_site_type_symbol
_atom_site_label
_atom_site_fract_x
_atom_site_fract_y
_atom_site_fract_z
Si Si1 0.240900 0.748506 0.862612
Si Si2 0.000000 0.195600 0.813268
Si Si3 0.000000 0.022093 0.890018
Si Si4 0.000000 0.155832 0.313691
Si Si5 0.768118 0.428080 0.068952
Si Si6 0.646157 0.120851 0.050245
O O1 0.372855 0.754092 0.827839
O O2 0.206650 0.644748 0.882177
O O3 0.259765 0.813124 0.915662
O O4 0.126096 0.782486 0.823862
O O5 0.000000 0.169899 0.750000
O O6 0.000000 0.100576 0.844780
O O7 0.122685 0.032769 0.929745
O O8 0.000000 0.927226 0.856721
O O9 0.000000 0.122150 0.250000
O O10 0.859187 0.517547 0.075840
O O11 0.794920 0.379283 0.010900
O O12 0.500000 0.160089 0.049513
#
# Coordination Sequence:
#
# PCOD8260460 Si02
#       6
#    16   8   8   8  16  16
#     4  11  23  40  63  88 124 155 202 252 301 355
#     4  10  21  42  65  83 112 164 212 249 299 359
#     4  10  21  40  62  85 120 156 200 256 304 356
#     4  12  25  41  62  91 119 155 204 265 307 337
#     4  10  22  38  60  90 122 161 195 241 298 370
#     4  11  22  39  60  89 124 165 197 238 298 368
#
# _framework density 19.773078999999999
#
# number of rings (size 3 to 8) (size 9 to 14) (size 15 to 20)
#    0.000    1.333    3.333    3.000    3.111    2.667 
#    0.000    0.000    0.000    1.333    0.000    0.000 
#    0.000    0.000    0.000    0.000    0.000    0.000 
#
# Total GULP energy -446449.922845 kJ/mol
# GULP energy per Si atom -12401.386746 kJ/mol
# Density = 1.972807 g / cm^3
# Si number density = 19.773079 Si / 1000 Ang^3
#
#
#
# Elastic Constant Matrix: (Units=GPa)
#
#
# Indices 1 2 3 4 5 6 
#
# 1 127.8460 21.3584 40.1772 0.0000 0.0000 0.0000
# 2 21.3584 55.4634 7.1550 0.0000 0.0000 0.0000
# 3 40.1772 7.1550 67.8789 0.0000 0.0000 0.0000
# 4 0.0000 0.0000 0.0000 10.3849 0.0000 0.0000
# 5 0.0000 0.0000 0.0000 0.0000 24.1686 0.0000
# 6 0.0000 0.0000 0.0000 0.0000 0.0000 24.3174
#
#
#
# Elastic Compliance Matrix: (Units=1/GPa)
#
#
# Indices 1 2 3 4 5 6 
#
# 1 0.010131 -0.003171 -0.005662 0.000000 0.000000 0.000000
# 2 -0.003171 0.019271 -0.000154 0.000000 0.000000 0.000000
# 3 -0.005662 -0.000154 0.018100 0.000000 0.000000 0.000000
# 4 0.000000 0.000000 0.000000 0.096294 0.000000 0.000000
# 5 0.000000 0.000000 0.000000 0.000000 0.041376 0.000000
# 6 0.000000 0.000000 0.000000 0.000000 0.000000 0.041123
#
#
# Mechanical properties :
#
#
# Convention : Reuss Voigt Hill
#
# Bulk Modulus (GPa) = 33.86786 43.17438 38.52112
# Shear Modulus (GPa) = 19.67635 23.94069 21.80852
#
# Velocity S-wave (km/s) = 3.15796 3.48339 3.32466
# Velocity P-wave (km/s) = 5.51927 6.16936 5.85335
#
# Compressibility (1/GPa) = 0.02952652
#
# Stress axis : x y z
#
# Youngs Moduli (GPa) = 98.70591 51.89166 55.24892
#
# Poissons Ratio (x) = 0.16454 0.31284
# Poissons Ratio (y) = 0.31299 0.00853
# Poissons Ratio (z) = 0.55890 0.00802
#
# Static dielectric constant tensor:
#      x y z
#    x 3.759790 0.000000 0.000000 
#    y 0.000000 3.638450 0.000000 
#    z 0.000000 0.000000 3.403130 
# 
# 
# High freq. dielectric constant tensor:
#      x y z
#    x 1.781700 0.000000 0.000000 
#    y 0.000000 1.775210 0.000000 
#    z 0.000000 0.000000 1.757660 
# 
# From -- ./inp_files/66390.got.cif
#   From: 2010.03.12/outbox.cif.g09.slc.cpg/sg63_34_cif.got.tgz:66390.got - 2010.04.10 19:34:48.
