data_PCOD8260118
_publ_section_title
;
Structure prediction by ZEFSAII (Michael W. Deem and Ramdas Pophale) SiO2 
 PCOD8260118
Probable space group: C M C M
;
_chemical_formula_sum "Si O2"
_cell_formula_units_Z 112
_cell_length_a 13.582076
_cell_length_b 12.703109
_cell_length_c 31.864711
_cell_angle_alpha 90.000000
_cell_angle_beta 90.000000
_cell_angle_gamma 90.000000
_cell_volume 5497.764908
_symmetry_space_group_name_H-M "C M C M"
_symmetry_group_IT_number 63
_symmetry_cell_setting 'orthorhombic'
loop_
_space_group_symop_operation_xyz
x,y,z
-x,-y,1/2+z
x,-y,-z
-x,y,1/2-z
-x,-y,-z
x,y,1/2-z
-x,y,z
x,-y,1/2+z
1/2+x,1/2+y,z
1/2-x,1/2-y,1/2+z
1/2+x,1/2-y,-z
1/2-x,1/2+y,1/2-z
1/2-x,1/2-y,-z
1/2+x,1/2+y,1/2-z
1/2-x,1/2+y,z
1/2+x,1/2-y,1/2+z
loop_
_atom_site_type_symbol
_atom_site_label
_atom_site_fract_x
_atom_site_fract_y
_atom_site_fract_z
Si Si1 0.384188 0.837073 0.797301
Si Si2 0.112424 0.171993 0.079002
Si Si3 0.110771 0.576267 0.701865
Si Si4 0.885728 0.789491 0.484363
Si Si5 0.748385 0.794211 0.143095
Si Si6 0.609434 0.058155 0.043858
Si Si7 0.797480 0.953242 0.075592
O O1 0.356884 0.799419 0.750000
O O2 0.500000 0.825256 0.804389
O O3 0.330636 0.770745 0.832724
O O4 0.350548 0.957417 0.803174
O O5 0.185597 0.220500 0.112691
O O6 0.000000 0.199821 0.090677
O O7 0.123245 0.046063 0.078245
O O8 0.139634 0.220277 0.033547
O O9 0.114888 0.611195 0.750000
O O10 0.177165 0.655745 0.676720
O O11 0.000000 0.584744 0.684615
O O12 0.858855 0.679591 0.461994
O O13 0.820480 0.883328 0.465392
O O14 0.000000 0.817274 0.477900
O O15 0.806032 0.883102 0.117102
O O16 0.500000 0.051326 0.064301
O O17 0.687039 0.000951 0.073951
O O18 0.607470 0.000000 0.000000
#
# Coordination Sequence:
#
# PCOD8260118 Si02
#       7
#    16  16  16  16  16  16  16
#     4   9  20  41  66  89 116 152 192 230 272 335
#     4  11  24  40  57  82 116 154 196 244 295 343
#     4   9  19  38  63  88 114 147 186 226 275 342
#     4  10  22  41  61  78 106 155 208 249 288 341
#     4  12  23  36  58  90 122 149 182 233 294 346
#     4  10  21  37  56  79 107 142 191 248 297 341
#     4  12  24  37  57  83 114 154 198 243 290 345
#
# _framework density 20.371914
#
# number of rings (size 3 to 8) (size 9 to 14) (size 15 to 20)
#    0.000    1.571    0.000    6.000    0.000    6.286 
#    0.000    3.571    0.000    0.857    0.000    6.000 
#    0.000    0.000    0.000    0.000    0.000    0.000 
#
# Total GULP energy -694608.273000 kJ/mol
# GULP energy per Si atom -12403.719161 kJ/mol
# Density = 2.032555 g / cm^3
# Si number density = 20.371914 Si / 1000 Ang^3
#
#
#
# Elastic Constant Matrix: (Units=GPa)
#
#
# Indices 1 2 3 4 5 6 
#
# 1 80.1228 41.6639 40.8857 0.0000 0.0000 0.0000
# 2 41.6639 105.3015 44.4624 0.0000 0.0000 0.0000
# 3 40.8857 44.4624 85.3681 0.0000 0.0000 0.0000
# 4 0.0000 0.0000 0.0000 33.6610 0.0000 0.0000
# 5 0.0000 0.0000 0.0000 0.0000 34.9253 0.0000
# 6 0.0000 0.0000 0.0000 0.0000 0.0000 55.2841
#
#
#
# Elastic Compliance Matrix: (Units=1/GPa)
#
#
# Indices 1 2 3 4 5 6 
#
# 1 0.018021 -0.004469 -0.006304 0.000000 0.000000 0.000000
# 2 -0.004469 0.013282 -0.004777 0.000000 0.000000 0.000000
# 3 -0.006304 -0.004777 0.017221 0.000000 0.000000 0.000000
# 4 0.000000 0.000000 0.000000 0.029708 0.000000 0.000000
# 5 0.000000 0.000000 0.000000 0.000000 0.028633 0.000000
# 6 0.000000 0.000000 0.000000 0.000000 0.000000 0.018088
#
#
# Mechanical properties :
#
#
# Convention : Reuss Voigt Hill
#
# Bulk Modulus (GPa) = 57.38895 58.31293 57.85094
# Shear Modulus (GPa) = 30.89076 34.35943 32.62510
#
# Velocity S-wave (km/s) = 3.89825 4.11129 4.00618
# Velocity P-wave (km/s) = 6.96373 7.15704 7.06105
#
# Compressibility (1/GPa) = 0.01742496
#
# Stress axis : x y z
#
# Youngs Moduli (GPa) = 55.49016 75.29078 58.06810
#
# Poissons Ratio (x) = 0.33645 0.36603
# Poissons Ratio (y) = 0.24797 0.27741
# Poissons Ratio (z) = 0.34978 0.35969
#
# Static dielectric constant tensor:
#      x y z
#    x 3.797680 0.000000 0.000000 
#    y 0.000000 3.806570 0.000000 
#    z 0.000000 0.000000 3.611890 
# 
# 
# High freq. dielectric constant tensor:
#      x y z
#    x 1.804070 0.000000 0.000000 
#    y 0.000000 1.804910 0.000000 
#    z 0.000000 0.000000 1.786670 
# 
# From -- ./inp_files/73406.got.cif
#   From: 2010.03.12/outbox.cif.g09.slc.cpg/sg63_37_cif.got.tgz:73406.got - 2010.04.10 19:34:48.
