data_PCOD8260671
_publ_section_title
;
Structure prediction by ZEFSAII (Michael W. Deem and Ramdas Pophale) SiO2 
 PCOD8260671
Probable space group: C M C M
;
_chemical_formula_sum "Si O2"
_cell_formula_units_Z 64
_cell_length_a 11.776702
_cell_length_b 16.593641
_cell_length_c 15.949033
_cell_angle_alpha 90.000000
_cell_angle_beta 90.000000
_cell_angle_gamma 90.000000
_cell_volume 3116.733955
_symmetry_space_group_name_H-M "C M C M"
_symmetry_group_IT_number 63
_symmetry_cell_setting 'orthorhombic'
loop_
_space_group_symop_operation_xyz
x,y,z
-x,-y,1/2+z
x,-y,-z
-x,y,1/2-z
-x,-y,-z
x,y,1/2-z
-x,y,z
x,-y,1/2+z
1/2+x,1/2+y,z
1/2-x,1/2-y,1/2+z
1/2+x,1/2-y,-z
1/2-x,1/2+y,1/2-z
1/2-x,1/2-y,-z
1/2+x,1/2+y,1/2-z
1/2-x,1/2+y,z
1/2+x,1/2-y,1/2+z
loop_
_atom_site_type_symbol
_atom_site_label
_atom_site_fract_x
_atom_site_fract_y
_atom_site_fract_z
Si Si1 0.000000 0.970674 0.095362
Si Si2 0.760301 0.792300 0.910916
Si Si3 0.500000 0.351731 0.654027
Si Si4 0.125337 0.593894 0.991431
Si Si5 0.212050 0.867516 0.154689
O O1 0.892666 0.914291 0.113407
O O2 0.000000 0.050913 0.151417
O O3 0.000000 0.000000 0.000000
O O4 0.690718 0.874780 0.924917
O O5 0.700322 0.730771 0.845106
O O6 0.889334 0.814308 0.889254
O O7 0.750000 0.750000 0.000000
O O8 0.500000 0.324751 0.750000
O O9 0.000000 0.631852 0.991260
O O10 0.121913 0.500000 0.000000
O O11 0.177855 0.615418 0.901205
O O12 0.228069 0.897376 0.250000
#
# Coordination Sequence:
#
# PCOD8260671 Si02
#       5
#     8  16   8  16  16
#     4  12  24  42  68  94 126 171 221 271 329 402
#     4  10  23  38  63  91 126 167 213 263 321 389
#     4  12  24  42  66  96 128 167 221 281 327 378
#     4  10  22  40  63  90 124 170 217 254 311 394
#     4  11  23  39  63  94 128 163 211 272 333 381
#
# _framework density 20.534314999999999
#
# number of rings (size 3 to 8) (size 9 to 14) (size 15 to 20)
#    0.000    1.250    0.000    7.125    8.750    0.500 
#    0.000    1.250    0.000    3.000    0.000    0.000 
#    0.000    0.000    0.000    0.000    0.000    0.000 
#
# Total GULP energy -396574.048470 kJ/mol
# GULP energy per Si atom -12392.939015 kJ/mol
# Density = 2.048758 g / cm^3
# Si number density = 20.534315 Si / 1000 Ang^3
#
#
#
# Elastic Constant Matrix: (Units=GPa)
#
#
# Indices 1 2 3 4 5 6 
#
# 1 183.8431 75.5700 77.2420 0.0000 0.0000 0.0000
# 2 75.5700 111.0540 32.4347 0.0000 0.0000 0.0000
# 3 77.2420 32.4347 130.4722 0.0000 0.0000 0.0000
# 4 0.0000 0.0000 0.0000 31.3945 0.0000 0.0000
# 5 0.0000 0.0000 0.0000 0.0000 14.6006 0.0000
# 6 0.0000 0.0000 0.0000 0.0000 0.0000 39.5511
#
#
#
# Elastic Compliance Matrix: (Units=1/GPa)
#
#
# Indices 1 2 3 4 5 6 
#
# 1 0.009323 -0.005102 -0.004251 0.000000 0.000000 0.000000
# 2 -0.005102 0.012502 -0.000087 0.000000 0.000000 0.000000
# 3 -0.004251 -0.000087 0.010203 0.000000 0.000000 0.000000
# 4 0.000000 0.000000 0.000000 0.031853 0.000000 0.000000
# 5 0.000000 0.000000 0.000000 0.000000 0.068490 0.000000
# 6 0.000000 0.000000 0.000000 0.000000 0.000000 0.025284
#
#
# Mechanical properties :
#
#
# Convention : Reuss Voigt Hill
#
# Bulk Modulus (GPa) = 76.06471 88.42919 82.24695
# Shear Modulus (GPa) = 27.63687 33.11742 30.37714
#
# Velocity S-wave (km/s) = 3.67261 4.02031 3.85039
# Velocity P-wave (km/s) = 7.42343 8.04413 7.74000
#
# Compressibility (1/GPa) = 0.01314670
#
# Stress axis : x y z
#
# Youngs Moduli (GPa) = 107.26357 79.98571 98.01293
#
# Poissons Ratio (x) = 0.40813 0.41664
# Poissons Ratio (y) = 0.54731 0.00855
# Poissons Ratio (z) = 0.45596 0.00698
#
# Static dielectric constant tensor:
#      x y z
#    x 4.865550 0.000000 0.000000 
#    y 0.000000 4.937330 0.000000 
#    z 0.000000 0.000000 4.207550 
# 
# 
# High freq. dielectric constant tensor:
#      x y z
#    x 1.806040 0.000000 0.000000 
#    y 0.000000 1.825040 0.000000 
#    z 0.000000 0.000000 1.795060 
# 
# From -- ./inp_files/41772.got.cif
#   From: 2010.03.12/outbox.cif.g09.slc.cpg/sg63_21_cif.got.tgz:41772.got - 2010.04.10 19:34:48.
