data_PCOD8260649
_publ_section_title
;
Structure prediction by ZEFSAII (Michael W. Deem and Ramdas Pophale) SiO2 
 PCOD8260649
Probable space group: C M C M
;
_chemical_formula_sum "Si O2"
_cell_formula_units_Z 64
_cell_length_a 14.340634
_cell_length_b 12.267964
_cell_length_c 17.858239
_cell_angle_alpha 90.000000
_cell_angle_beta 90.000000
_cell_angle_gamma 90.000000
_cell_volume 3141.806803
_symmetry_space_group_name_H-M "C M C M"
_symmetry_group_IT_number 63
_symmetry_cell_setting 'orthorhombic'
loop_
_space_group_symop_operation_xyz
x,y,z
-x,-y,1/2+z
x,-y,-z
-x,y,1/2-z
-x,-y,-z
x,y,1/2-z
-x,y,z
x,-y,1/2+z
1/2+x,1/2+y,z
1/2-x,1/2-y,1/2+z
1/2+x,1/2-y,-z
1/2-x,1/2+y,1/2-z
1/2-x,1/2-y,-z
1/2+x,1/2+y,1/2-z
1/2-x,1/2+y,z
1/2+x,1/2-y,1/2+z
loop_
_atom_site_type_symbol
_atom_site_label
_atom_site_fract_x
_atom_site_fract_y
_atom_site_fract_z
Si Si1 0.892235 0.278240 0.580029
Si Si2 0.106551 0.026025 0.584447
Si Si3 0.281361 0.960599 0.662278
Si Si4 0.897511 0.598154 0.558197
O O1 0.830287 0.349578 0.636160
O O2 0.864690 0.297900 0.492011
O O3 0.000000 0.314322 0.590458
O O4 0.878579 0.153220 0.600839
O O5 0.172179 0.957454 0.640152
O O6 0.000000 0.990025 0.598947
O O7 0.136843 0.000000 0.500000
O O8 0.293179 0.972349 0.750000
O O9 0.326072 0.068961 0.624272
O O10 0.900700 0.500000 0.500000
O O11 0.000000 0.618786 0.593368
#
# Coordination Sequence:
#
# PCOD8260649 Si02
#       4
#    16  16  16  16
#     4   9  19  38  62  83 107 146 192 233 276 330
#     4  10  22  40  61  83 108 145 194 240 278 322
#     4  11  22  33  52  85 120 150 181 223 280 342
#     4   8  15  30  53  80 108 140 184 234 274 315
#
# _framework density 20.370445
#
# number of rings (size 3 to 8) (size 9 to 14) (size 15 to 20)
#    0.000    2.500    0.000    4.500    0.000    7.500 
#    0.000    2.500    0.000    1.500    0.000   14.000 
#    0.000    0.000    0.000    0.000    0.000    0.000 
#
# Total GULP energy -396717.395617 kJ/mol
# GULP energy per Si atom -12397.418613 kJ/mol
# Density = 2.032408 g / cm^3
# Si number density = 20.370445 Si / 1000 Ang^3
#
#
#
# Elastic Constant Matrix: (Units=GPa)
#
#
# Indices 1 2 3 4 5 6 
#
# 1 110.1902 34.1928 66.7422 0.0000 0.0000 0.0000
# 2 34.1928 50.4729 25.2136 0.0000 0.0000 0.0000
# 3 66.7422 25.2136 136.8665 0.0000 0.0000 0.0000
# 4 0.0000 0.0000 0.0000 15.1875 0.0000 0.0000
# 5 0.0000 0.0000 0.0000 0.0000 12.6226 0.0000
# 6 0.0000 0.0000 0.0000 0.0000 0.0000 24.1366
#
#
#
# Elastic Compliance Matrix: (Units=1/GPa)
#
#
# Indices 1 2 3 4 5 6 
#
# 1 0.014885 -0.007112 -0.005948 0.000000 0.000000 0.000000
# 2 -0.007112 0.025219 -0.001178 0.000000 0.000000 0.000000
# 3 -0.005948 -0.001178 0.010424 0.000000 0.000000 0.000000
# 4 0.000000 0.000000 0.000000 0.065844 0.000000 0.000000
# 5 0.000000 0.000000 0.000000 0.000000 0.079223 0.000000
# 6 0.000000 0.000000 0.000000 0.000000 0.000000 0.041431
#
#
# Mechanical properties :
#
#
# Convention : Reuss Voigt Hill
#
# Bulk Modulus (GPa) = 45.34823 61.09187 53.22005
# Shear Modulus (GPa) = 18.32485 21.81473 20.06979
#
# Velocity S-wave (km/s) = 3.00255 3.27601 3.14226
# Velocity P-wave (km/s) = 5.85923 6.66072 6.27279
#
# Compressibility (1/GPa) = 0.02205158
#
# Stress axis : x y z
#
# Youngs Moduli (GPa) = 67.18061 39.65236 95.93213
#
# Poissons Ratio (x) = 0.28203 0.57065
# Poissons Ratio (y) = 0.47782 0.11296
# Poissons Ratio (z) = 0.39962 0.04669
#
# Static dielectric constant tensor:
#      x y z
#    x 3.895670 0.000000 0.000000 
#    y 0.000000 3.822830 0.000000 
#    z 0.000000 0.000000 3.445730 
# 
# 
# High freq. dielectric constant tensor:
#      x y z
#    x 1.811180 0.000000 0.000000 
#    y 0.000000 1.783360 0.000000 
#    z 0.000000 0.000000 1.758760 
# 
# From -- ./inp_files/43441.got.cif
#   From: 2010.03.12/outbox.cif.g09.slc.cpg/sg63_22_cif.got.tgz:43441.got - 2010.04.10 19:34:48.
