data_PCOD8260603
_publ_section_title
;
Structure prediction by ZEFSAII (Michael W. Deem and Ramdas Pophale) SiO2 
 PCOD8260603
Probable space group: C M C M
;
_chemical_formula_sum "Si O2"
_cell_formula_units_Z 72
_cell_length_a 22.705163
_cell_length_b 19.109784
_cell_length_c 8.627256
_cell_angle_alpha 90.000000
_cell_angle_beta 90.000000
_cell_angle_gamma 90.000000
_cell_volume 3743.286668
_symmetry_space_group_name_H-M "C M C M"
_symmetry_group_IT_number 63
_symmetry_cell_setting 'orthorhombic'
loop_
_space_group_symop_operation_xyz
x,y,z
-x,-y,1/2+z
x,-y,-z
-x,y,1/2-z
-x,-y,-z
x,y,1/2-z
-x,y,z
x,-y,1/2+z
1/2+x,1/2+y,z
1/2-x,1/2-y,1/2+z
1/2+x,1/2-y,-z
1/2-x,1/2+y,1/2-z
1/2-x,1/2-y,-z
1/2+x,1/2+y,1/2-z
1/2-x,1/2+y,z
1/2+x,1/2-y,1/2+z
loop_
_atom_site_type_symbol
_atom_site_label
_atom_site_fract_x
_atom_site_fract_y
_atom_site_fract_z
Si Si1 0.101356 0.171221 0.433883
Si Si2 0.727367 0.677350 0.566834
Si Si3 0.000000 0.922943 0.433233
Si Si4 0.434378 0.175358 0.934379
Si Si5 0.832695 0.423489 0.432102
O O1 0.096099 0.165965 0.250000
O O2 0.167134 0.153791 0.487056
O O3 0.084076 0.248211 0.495162
O O4 0.058381 0.115420 0.509383
O O5 0.719341 0.684726 0.750000
O O6 0.750000 0.750000 0.500000
O O7 0.773903 0.617662 0.522088
O O8 0.000000 0.925947 0.250000
O O9 0.000000 0.000000 0.500000
O O10 0.431881 0.176288 0.750000
O O11 0.500000 0.157070 0.993965
O O12 0.389176 0.117914 0.001465
O O13 0.829911 0.500000 0.500000
O O14 0.839545 0.429192 0.250000
#
# Coordination Sequence:
#
# PCOD8260603 Si02
#       5
#    16  16   8  16  16
#     4  11  21  39  66  93 122 161 203 254 317 371
#     4  11  22  38  61  90 123 161 211 261 310 371
#     4  12  26  44  64  94 129 164 207 256 311 373
#     4   9  17  34  61  88 117 155 197 241 301 368
#     4  10  22  39  58  86 122 161 199 247 307 363
#
# _framework density 19.234432999999999
#
# number of rings (size 3 to 8) (size 9 to 14) (size 15 to 20)
#    0.000    1.556    3.333    2.333    0.000    3.111 
#    0.000    2.222    0.000    0.000    0.000    0.000 
#    0.000    0.000    0.000    0.000    0.000    0.000 
#
# Total GULP energy -446492.995312 kJ/mol
# GULP energy per Si atom -12402.583203 kJ/mol
# Density = 1.919065 g / cm^3
# Si number density = 19.234433 Si / 1000 Ang^3
#
#
#
# Elastic Constant Matrix: (Units=GPa)
#
#
# Indices 1 2 3 4 5 6 
#
# 1 187.2714 98.0861 53.0210 0.0000 0.0000 0.0000
# 2 98.0861 186.3698 52.2158 0.0000 0.0000 0.0000
# 3 53.0210 52.2158 72.0181 0.0000 0.0000 0.0000
# 4 0.0000 0.0000 0.0000 32.9899 0.0000 0.0000
# 5 0.0000 0.0000 0.0000 0.0000 31.4110 0.0000
# 6 0.0000 0.0000 0.0000 0.0000 0.0000 39.9005
#
#
#
# Elastic Compliance Matrix: (Units=1/GPa)
#
#
# Indices 1 2 3 4 5 6 
#
# 1 0.008046 -0.003231 -0.003581 0.000000 0.000000 0.000000
# 2 -0.003231 0.008031 -0.003444 0.000000 0.000000 0.000000
# 3 -0.003581 -0.003444 0.019019 0.000000 0.000000 0.000000
# 4 0.000000 0.000000 0.000000 0.030312 0.000000 0.000000
# 5 0.000000 0.000000 0.000000 0.000000 0.031836 0.000000
# 6 0.000000 0.000000 0.000000 0.000000 0.000000 0.025062
#
#
# Mechanical properties :
#
#
# Convention : Reuss Voigt Hill
#
# Bulk Modulus (GPa) = 68.56967 94.70058 81.63513
# Shear Modulus (GPa) = 33.85691 37.01605 35.43648
#
# Velocity S-wave (km/s) = 4.20005 4.39163 4.29691
# Velocity P-wave (km/s) = 7.69724 8.66355 8.19465
#
# Compressibility (1/GPa) = 0.01458371
#
# Stress axis : x y z
#
# Youngs Moduli (GPa) = 124.28270 124.51329 52.57996
#
# Poissons Ratio (x) = 0.40236 0.18828
# Poissons Ratio (y) = 0.40161 0.18108
# Poissons Ratio (z) = 0.44504 0.42881
#
# Static dielectric constant tensor:
#      x y z
#    x 3.113040 0.000000 0.000000 
#    y 0.000000 3.477600 0.000000 
#    z 0.000000 0.000000 3.324480 
# 
# 
# High freq. dielectric constant tensor:
#      x y z
#    x 1.770290 0.000000 0.000000 
#    y 0.000000 1.750350 0.000000 
#    z 0.000000 0.000000 1.733700 
# 
# From -- ./inp_files/9844.got.cif
#   From: 2010.03.12/outbox.cif.g09.slc.cpg/sg63_5_cif.got.tgz:9844.got - 2010.04.10 19:34:48.
