data_PCOD8260753
_publ_section_title
;
Structure prediction by ZEFSAII (Michael W. Deem and Ramdas Pophale) SiO2 
 PCOD8260753
Probable space group: C M C M
;
_chemical_formula_sum "Si O2"
_cell_formula_units_Z 80
_cell_length_a 11.768801
_cell_length_b 14.906093
_cell_length_c 22.275282
_cell_angle_alpha 90.000000
_cell_angle_beta 90.000000
_cell_angle_gamma 90.000000
_cell_volume 3907.682380
_symmetry_space_group_name_H-M "C M C M"
_symmetry_group_IT_number 63
_symmetry_cell_setting 'orthorhombic'
loop_
_space_group_symop_operation_xyz
x,y,z
-x,-y,1/2+z
x,-y,-z
-x,y,1/2-z
-x,-y,-z
x,y,1/2-z
-x,y,z
x,-y,1/2+z
1/2+x,1/2+y,z
1/2-x,1/2-y,1/2+z
1/2+x,1/2-y,-z
1/2-x,1/2+y,1/2-z
1/2-x,1/2-y,-z
1/2+x,1/2+y,1/2-z
1/2-x,1/2+y,z
1/2+x,1/2-y,1/2+z
loop_
_atom_site_type_symbol
_atom_site_label
_atom_site_fract_x
_atom_site_fract_y
_atom_site_fract_z
Si Si1 0.000000 0.810907 0.182934
Si Si2 0.866869 0.372150 0.387346
Si Si3 0.624444 0.101149 0.018389
Si Si4 0.500000 0.521048 0.180674
Si Si5 0.272832 0.237407 0.317957
Si Si6 0.758795 0.056683 0.130958
O O1 0.886792 0.775690 0.149958
O O2 0.000000 0.768995 0.250000
O O3 0.000000 0.916091 0.186540
O O4 0.835892 0.350239 0.456910
O O5 0.833879 0.282509 0.351549
O O6 0.801705 0.460398 0.361515
O O7 0.000000 0.391488 0.379511
O O8 0.500000 0.137708 0.041077
O O9 0.723799 0.105350 0.068181
O O10 0.604495 0.000000 0.000000
O O11 0.500000 0.560742 0.250000
O O12 0.393511 0.549232 0.139827
O O13 0.264849 0.271200 0.250000
O O14 0.277366 0.129321 0.319023
#
# Coordination Sequence:
#
# PCOD8260753 Si02
#       6
#     8  16  16   8  16  16
#     4   9  20  40  57  78 119 161 198 245 299 349
#     4  10  22  42  65  89 123 161 202 252 305 359
#     4   8  17  37  63  89 118 154 199 255 307 352
#     4  11  22  40  60  83 125 168 194 243 316 363
#     4  11  24  39  60  90 122 159 204 250 302 364
#     4  11  22  38  65  88 119 160 205 249 300 364
#
# _framework density 20.472493
#
# number of rings (size 3 to 8) (size 9 to 14) (size 15 to 20)
#    0.000    2.000    2.000    2.400    4.200    2.000 
#    0.000    5.500    0.000    0.000    0.000    0.000 
#    0.000    0.000    0.000    0.000    0.000    0.000 
#
# Total GULP energy -495550.189632 kJ/mol
# GULP energy per Si atom -12388.754741 kJ/mol
# Density = 2.042590 g / cm^3
# Si number density = 20.472493 Si / 1000 Ang^3
#
#
#
# Elastic Constant Matrix: (Units=GPa)
#
#
# Indices 1 2 3 4 5 6 
#
# 1 148.7763 28.1313 69.7742 0.0000 0.0000 0.0000
# 2 28.1313 66.3631 22.5592 0.0000 0.0000 0.0000
# 3 69.7742 22.5592 73.8629 0.0000 0.0000 0.0000
# 4 0.0000 0.0000 0.0000 26.2951 0.0000 0.0000
# 5 0.0000 0.0000 0.0000 0.0000 73.5821 0.0000
# 6 0.0000 0.0000 0.0000 0.0000 0.0000 24.1891
#
#
#
# Elastic Compliance Matrix: (Units=1/GPa)
#
#
# Indices 1 2 3 4 5 6 
#
# 1 0.012183 -0.001397 -0.011082 0.000000 0.000000 0.000000
# 2 -0.001397 0.016975 -0.003864 0.000000 0.000000 0.000000
# 3 -0.011082 -0.003864 0.025187 0.000000 0.000000 0.000000
# 4 0.000000 0.000000 0.000000 0.038030 0.000000 0.000000
# 5 0.000000 0.000000 0.000000 0.000000 0.013590 0.000000
# 6 0.000000 0.000000 0.000000 0.000000 0.000000 0.041341
#
#
# Mechanical properties :
#
#
# Convention : Reuss Voigt Hill
#
# Bulk Modulus (GPa) = 46.17292 58.88130 52.52711
# Shear Modulus (GPa) = 26.70768 36.04910 31.37839
#
# Velocity S-wave (km/s) = 3.61579 4.20081 3.91923
# Velocity P-wave (km/s) = 6.32729 7.23551 6.79659
#
# Compressibility (1/GPa) = 0.02165772
#
# Stress axis : x y z
#
# Youngs Moduli (GPa) = 82.08224 58.91166 39.70267
#
# Poissons Ratio (x) = 0.08231 0.43998
# Poissons Ratio (y) = 0.11469 0.15343
# Poissons Ratio (z) = 0.90962 0.22766
#
# Static dielectric constant tensor:
#      x y z
#    x 4.318270 0.000000 0.000000 
#    y 0.000000 3.497430 0.000000 
#    z 0.000000 0.000000 4.283060 
# 
# 
# High freq. dielectric constant tensor:
#      x y z
#    x 1.805130 0.000000 0.000000 
#    y 0.000000 1.789060 0.000000 
#    z 0.000000 0.000000 1.786750 
# 
# From -- ./inp_files/61161.got.cif
#   From: 2010.03.12/outbox.cif.g09.slc.cpg/sg63_31_cif.got.tgz:61161.got - 2010.04.10 19:34:48.
