data_PCOD8260076
_publ_section_title
;
Structure prediction by ZEFSAII (Michael W. Deem and Ramdas Pophale) SiO2 
 PCOD8260076
Probable space group: C M C M
;
_chemical_formula_sum "Si O2"
_cell_formula_units_Z 88
_cell_length_a 18.070014
_cell_length_b 9.437575
_cell_length_c 25.999441
_cell_angle_alpha 90.000000
_cell_angle_beta 90.000000
_cell_angle_gamma 90.000000
_cell_volume 4433.869592
_symmetry_space_group_name_H-M "C M C M"
_symmetry_group_IT_number 63
_symmetry_cell_setting 'orthorhombic'
loop_
_space_group_symop_operation_xyz
x,y,z
-x,-y,1/2+z
x,-y,-z
-x,y,1/2-z
-x,-y,-z
x,y,1/2-z
-x,y,z
x,-y,1/2+z
1/2+x,1/2+y,z
1/2-x,1/2-y,1/2+z
1/2+x,1/2-y,-z
1/2-x,1/2+y,1/2-z
1/2-x,1/2-y,-z
1/2+x,1/2+y,1/2-z
1/2-x,1/2+y,z
1/2+x,1/2-y,1/2+z
loop_
_atom_site_type_symbol
_atom_site_label
_atom_site_fract_x
_atom_site_fract_y
_atom_site_fract_z
Si Si1 0.632447 0.830676 0.807672
Si Si2 0.632519 0.144147 0.807813
Si Si3 0.665739 0.464443 0.940254
Si Si4 0.745549 0.724160 0.885379
Si Si5 0.500000 0.347263 0.690748
Si Si6 0.500000 0.343936 0.349346
Si Si7 0.000000 0.999978 0.939746
O O1 0.660375 0.794196 0.750000
O O2 0.699035 0.824692 0.847704
O O3 0.571407 0.717915 0.823113
O O4 0.597026 0.987152 0.809282
O O5 0.662535 0.175457 0.750000
O O6 0.696624 0.144621 0.849364
O O7 0.571502 0.257013 0.823722
O O8 0.694176 0.605137 0.911040
O O9 0.714722 0.325992 0.926958
O O10 0.579862 0.428886 0.924903
O O11 0.674220 0.500000 0.000000
O O12 0.500000 0.392168 0.750000
O O13 0.500000 0.485970 0.656533
O O14 0.500000 0.341301 0.412344
O O15 0.000000 0.000000 0.000000
#
# Coordination Sequence:
#
# PCOD8260076 Si02
#       7
#    16  16  16  16   8   8   8
#     4  11  23  38  59  90 127 167 207 259 320 387
#     4  10  22  39  58  86 127 170 208 254 318 386
#     4  11  24  43  68  93 125 166 215 270 327 384
#     4  12  22  41  62  92 124 163 212 262 323 382
#     4  10  21  36  59  88 119 164 213 257 308 381
#     4  12  21  39  63  92 124 166 218 264 320 378
#     4  10  22  41  64  92 124 162 210 263 319 379
#
# _framework density 19.847221999999999
#
# number of rings (size 3 to 8) (size 9 to 14) (size 15 to 20)
#    0.000    1.091    3.636    3.545    0.000    1.455 
#    0.000    0.000    0.000    0.000    0.000   10.182 
#    0.000    0.000    0.000    0.000    0.000    0.000 
#
# Total GULP energy -545226.428032 kJ/mol
# GULP energy per Si atom -12391.509728 kJ/mol
# Density = 1.980205 g / cm^3
# Si number density = 19.847222 Si / 1000 Ang^3
#
#
#
# Elastic Constant Matrix: (Units=GPa)
#
#
# Indices 1 2 3 4 5 6 
#
# 1 121.3896 46.5159 51.6166 0.0000 0.0000 0.0000
# 2 46.5159 112.8837 46.1717 0.0000 0.0000 0.0000
# 3 51.6166 46.1717 118.6132 0.0000 0.0000 0.0000
# 4 0.0000 0.0000 0.0000 29.9355 0.0000 0.0000
# 5 0.0000 0.0000 0.0000 0.0000 39.0015 0.0000
# 6 0.0000 0.0000 0.0000 0.0000 0.0000 9.5446
#
#
#
# Elastic Compliance Matrix: (Units=1/GPa)
#
#
# Indices 1 2 3 4 5 6 
#
# 1 0.010920 -0.003040 -0.003569 0.000000 0.000000 0.000000
# 2 -0.003040 0.011383 -0.003108 0.000000 0.000000 0.000000
# 3 -0.003569 -0.003108 0.011194 0.000000 0.000000 0.000000
# 4 0.000000 0.000000 0.000000 0.033405 0.000000 0.000000
# 5 0.000000 0.000000 0.000000 0.000000 0.025640 0.000000
# 6 0.000000 0.000000 0.000000 0.000000 0.000000 0.104772
#
#
# Mechanical properties :
#
#
# Convention : Reuss Voigt Hill
#
# Bulk Modulus (GPa) = 71.10899 71.27721 71.19310
# Shear Modulus (GPa) = 22.58000 29.60180 26.09090
#
# Velocity S-wave (km/s) = 3.37663 3.86616 3.62966
# Velocity P-wave (km/s) = 7.14899 7.47800 7.31535
#
# Compressibility (1/GPa) = 0.01406292
#
# Stress axis : x y z
#
# Youngs Moduli (GPa) = 91.57136 87.85313 89.33732
#
# Poissons Ratio (x) = 0.26710 0.31882
# Poissons Ratio (y) = 0.27840 0.27764
# Poissons Ratio (z) = 0.32680 0.27303
#
# Static dielectric constant tensor:
#      x y z
#    x 3.893320 0.000000 0.000000 
#    y 0.000000 3.840830 0.000000 
#    z 0.000000 0.000000 3.895690 
# 
# 
# High freq. dielectric constant tensor:
#      x y z
#    x 1.781840 0.000000 0.000000 
#    y 0.000000 1.765520 0.000000 
#    z 0.000000 0.000000 1.789530 
# 
# From -- ./inp_files/73836.got.cif
#   From: 2010.03.12/outbox.cif.g09.slc.cpg/sg63_37_cif.got.tgz:73836.got - 2010.04.10 19:34:48.
