data_PCOD8260007
_publ_section_title
;
Structure prediction by ZEFSAII (Michael W. Deem and Ramdas Pophale) SiO2 
 PCOD8260007
Probable space group: C M C M
;
_chemical_formula_sum "Si O2"
_cell_formula_units_Z 96
_cell_length_a 11.005069
_cell_length_b 18.110784
_cell_length_c 23.396457
_cell_angle_alpha 90.000000
_cell_angle_beta 90.000000
_cell_angle_gamma 90.000000
_cell_volume 4663.157848
_symmetry_space_group_name_H-M "C M C M"
_symmetry_group_IT_number 63
_symmetry_cell_setting 'orthorhombic'
loop_
_space_group_symop_operation_xyz
x,y,z
-x,-y,1/2+z
x,-y,-z
-x,y,1/2-z
-x,-y,-z
x,y,1/2-z
-x,y,z
x,-y,1/2+z
1/2+x,1/2+y,z
1/2-x,1/2-y,1/2+z
1/2+x,1/2-y,-z
1/2-x,1/2+y,1/2-z
1/2-x,1/2-y,-z
1/2+x,1/2+y,1/2-z
1/2-x,1/2+y,z
1/2+x,1/2-y,1/2+z
loop_
_atom_site_type_symbol
_atom_site_label
_atom_site_fract_x
_atom_site_fract_y
_atom_site_fract_z
Si Si1 0.275172 0.609911 0.684930
Si Si2 0.865121 0.725519 0.882389
Si Si3 0.132131 0.533739 0.185768
Si Si4 0.360075 0.884957 0.480752
Si Si5 0.276880 0.385464 0.593761
Si Si6 0.631417 0.460512 0.077220
O O1 0.327180 0.617533 0.750000
O O2 0.229352 0.689700 0.662594
O O3 0.163862 0.552792 0.683022
O O4 0.373084 0.575505 0.640881
O O5 0.850717 0.690250 0.945210
O O6 0.847783 0.811956 0.890687
O O7 0.000000 0.711905 0.858117
O O8 0.135819 0.562975 0.250000
O O9 0.218250 0.587657 0.152048
O O10 0.000000 0.540362 0.158217
O O11 0.500000 0.916729 0.477079
O O12 0.325974 0.868730 0.546186
O O13 0.256413 0.939432 0.455307
O O14 0.369431 0.450346 0.575634
O O15 0.500000 0.436930 0.049428
#
# Coordination Sequence:
#
# PCOD8260007 Si02
#       6
#    16  16  16  16  16  16
#     4   9  19  37  60  82 107 146 194 237 278 333
#     4  10  21  36  54  81 115 150 190 236 286 341
#     4   9  18  34  56  81 109 143 187 237 284 332
#     4  10  22  40  61  83 111 152 199 240 279 334
#     4  11  21  34  56  84 117 151 185 232 290 344
#     4  10  22  38  59  88 118 149 187 234 289 344
#
# _framework density 20.586908000000001
#
# number of rings (size 3 to 8) (size 9 to 14) (size 15 to 20)
#    0.000    2.167    0.000    2.500    0.000    9.333 
#    0.000    8.333    0.000    3.000    0.000    0.000 
#    0.000    0.000    0.000    0.000    0.000    0.000 
#
# Total GULP energy -594647.672991 kJ/mol
# GULP energy per Si atom -12388.493187 kJ/mol
# Density = 2.054005 g / cm^3
# Si number density = 20.586908 Si / 1000 Ang^3
#
#
#
# Elastic Constant Matrix: (Units=GPa)
#
#
# Indices 1 2 3 4 5 6 
#
# 1 118.9367 23.0530 22.8128 0.0000 0.0000 0.0000
# 2 23.0530 116.6082 14.9490 0.0000 0.0000 0.0000
# 3 22.8128 14.9490 83.1377 0.0000 0.0000 0.0000
# 4 0.0000 0.0000 0.0000 23.1128 0.0000 0.0000
# 5 0.0000 0.0000 0.0000 0.0000 16.0722 0.0000
# 6 0.0000 0.0000 0.0000 0.0000 0.0000 10.0416
#
#
#
# Elastic Compliance Matrix: (Units=1/GPa)
#
#
# Indices 1 2 3 4 5 6 
#
# 1 0.009130 -0.001519 -0.002232 0.000000 0.000000 0.000000
# 2 -0.001519 0.009031 -0.001207 0.000000 0.000000 0.000000
# 3 -0.002232 -0.001207 0.012858 0.000000 0.000000 0.000000
# 4 0.000000 0.000000 0.000000 0.043266 0.000000 0.000000
# 5 0.000000 0.000000 0.000000 0.000000 0.062219 0.000000
# 6 0.000000 0.000000 0.000000 0.000000 0.000000 0.099585
#
#
# Mechanical properties :
#
#
# Convention : Reuss Voigt Hill
#
# Bulk Modulus (GPa) = 47.38751 48.92356 48.15553
# Shear Modulus (GPa) = 19.75970 27.03651 23.39811
#
# Velocity S-wave (km/s) = 3.10146 3.62786 3.37494
# Velocity P-wave (km/s) = 5.99113 6.43152 6.21523
#
# Compressibility (1/GPa) = 0.02110261
#
# Stress axis : x y z
#
# Youngs Moduli (GPa) = 109.52434 110.73291 77.77379
#
# Poissons Ratio (x) = 0.16819 0.17361
# Poissons Ratio (y) = 0.16635 0.09388
# Poissons Ratio (z) = 0.24449 0.13366
#
# Static dielectric constant tensor:
#      x y z
#    x 3.654560 0.000000 0.000000 
#    y 0.000000 3.557270 0.000000 
#    z 0.000000 0.000000 3.993120 
# 
# 
# High freq. dielectric constant tensor:
#      x y z
#    x 1.799690 0.000000 0.000000 
#    y 0.000000 1.790000 0.000000 
#    z 0.000000 0.000000 1.810310 
# 
# From -- ./inp_files/61442.got.cif
#   From: 2010.03.12/outbox.cif.g09.slc.cpg/sg63_31_cif.got.tgz:61442.got - 2010.04.10 19:34:48.
