data_PCOD8260332
_publ_section_title
;
Structure prediction by ZEFSAII (Michael W. Deem and Ramdas Pophale) SiO2 
 PCOD8260332
Probable space group: C M C M
;
_chemical_formula_sum "Si O2"
_cell_formula_units_Z 112
_cell_length_a 14.737335
_cell_length_b 12.441204
_cell_length_c 29.155207
_cell_angle_alpha 90.000000
_cell_angle_beta 90.000000
_cell_angle_gamma 90.000000
_cell_volume 5345.612777
_symmetry_space_group_name_H-M "C M C M"
_symmetry_group_IT_number 63
_symmetry_cell_setting 'orthorhombic'
loop_
_space_group_symop_operation_xyz
x,y,z
-x,-y,1/2+z
x,-y,-z
-x,y,1/2-z
-x,-y,-z
x,y,1/2-z
-x,y,z
x,-y,1/2+z
1/2+x,1/2+y,z
1/2-x,1/2-y,1/2+z
1/2+x,1/2-y,-z
1/2-x,1/2+y,1/2-z
1/2-x,1/2-y,-z
1/2+x,1/2+y,1/2-z
1/2-x,1/2+y,z
1/2+x,1/2-y,1/2+z
loop_
_atom_site_type_symbol
_atom_site_label
_atom_site_fract_x
_atom_site_fract_y
_atom_site_fract_z
Si Si1 0.396657 0.274752 0.196052
Si Si2 0.669476 0.952978 0.934427
Si Si3 0.102018 0.663817 0.599981
Si Si4 0.399030 0.490575 0.357400
Si Si5 0.898811 0.279216 0.996608
Si Si6 0.152098 0.935026 0.041377
Si Si7 0.261110 0.322101 0.641015
O O1 0.386559 0.285965 0.250000
O O2 0.500000 0.236438 0.183252
O O3 0.375845 0.389093 0.173621
O O4 0.318398 0.194224 0.178437
O O5 0.711070 0.855359 0.905432
O O6 0.610034 0.033934 0.902917
O O7 0.745297 0.027042 0.956528
O O8 0.613080 0.897865 0.975192
O O9 0.118159 0.718035 0.550671
O O10 0.177973 0.714600 0.633676
O O11 0.000000 0.690165 0.617645
O O12 0.500000 0.533962 0.346980
O O13 0.397183 0.455008 0.410572
O O14 0.327634 0.581975 0.343570
O O15 0.000000 0.240142 0.986086
O O16 0.836905 0.189937 0.972085
O O17 0.101923 0.000000 0.000000
#
# Coordination Sequence:
#
# PCOD8260332 Si02
#       7
#    16  16  16  16  16  16  16
#     4  10  23  44  68  92 116 145 189 244 299 361
#     4  11  22  35  53  78 112 156 205 250 292 341
#     4  11  23  37  54  82 120 160 201 244 291 345
#     4  10  21  38  61  90 124 161 199 241 295 356
#     4  11  22  35  52  76 112 160 209 251 290 336
#     4  11  22  34  55  85 120 161 210 256 294 341
#     4  11  22  38  61  88 116 150 189 237 298 356
#
# _framework density 20.951761000000001
#
# number of rings (size 3 to 8) (size 9 to 14) (size 15 to 20)
#    0.000    1.286    0.000    7.714    0.000    8.000 
#    0.000    0.000    0.000    1.286    0.000    0.000 
#    0.000    0.000    0.000    0.000    0.000    0.000 
#
# Total GULP energy -694295.016079 kJ/mol
# GULP energy per Si atom -12398.125287 kJ/mol
# Density = 2.090407 g / cm^3
# Si number density = 20.951761 Si / 1000 Ang^3
#
#
#
# Elastic Constant Matrix: (Units=GPa)
#
#
# Indices 1 2 3 4 5 6 
#
# 1 112.9384 39.8637 54.5689 0.0000 0.0000 0.0000
# 2 39.8637 95.8658 30.7722 0.0000 0.0000 0.0000
# 3 54.5689 30.7722 67.7171 0.0000 0.0000 0.0000
# 4 0.0000 0.0000 0.0000 17.5591 0.0000 0.0000
# 5 0.0000 0.0000 0.0000 0.0000 30.6780 0.0000
# 6 0.0000 0.0000 0.0000 0.0000 0.0000 10.1941
#
#
#
# Elastic Compliance Matrix: (Units=1/GPa)
#
#
# Indices 1 2 3 4 5 6 
#
# 1 0.015107 -0.002780 -0.010911 0.000000 0.000000 0.000000
# 2 -0.002780 0.012724 -0.003542 0.000000 0.000000 0.000000
# 3 -0.010911 -0.003542 0.025169 0.000000 0.000000 0.000000
# 4 0.000000 0.000000 0.000000 0.056951 0.000000 0.000000
# 5 0.000000 0.000000 0.000000 0.000000 0.032597 0.000000
# 6 0.000000 0.000000 0.000000 0.000000 0.000000 0.098096
#
#
# Mechanical properties :
#
#
# Convention : Reuss Voigt Hill
#
# Bulk Modulus (GPa) = 53.95103 58.54790 56.24946
# Shear Modulus (GPa) = 17.77539 21.77400 19.77470
#
# Velocity S-wave (km/s) = 2.91588 3.22723 3.07550
# Velocity P-wave (km/s) = 6.09447 6.47236 6.28625
#
# Compressibility (1/GPa) = 0.01853533
#
# Stress axis : x y z
#
# Youngs Moduli (GPa) = 66.19246 78.59080 39.73084
#
# Poissons Ratio (x) = 0.21847 0.43350
# Poissons Ratio (y) = 0.18400 0.14073
# Poissons Ratio (z) = 0.72222 0.27837
#
# Static dielectric constant tensor:
#      x y z
#    x 4.028890 0.000000 0.000000 
#    y 0.000000 3.820260 0.000000 
#    z 0.000000 0.000000 3.504460 
# 
# 
# High freq. dielectric constant tensor:
#      x y z
#    x 1.838040 0.000000 0.000000 
#    y 0.000000 1.826000 0.000000 
#    z 0.000000 0.000000 1.779100 
# 
# From -- ./inp_files/73445.got.cif
#   From: 2010.03.12/outbox.cif.g09.slc.cpg/sg63_37_cif.got.tgz:73445.got - 2010.04.10 19:34:48.
