data_PCOD8260832
_publ_section_title
;
Structure prediction by ZEFSAII (Michael W. Deem and Ramdas Pophale) SiO2 
 PCOD8260832
Probable space group: C M C M
;
_chemical_formula_sum "Si O2"
_cell_formula_units_Z 96
_cell_length_a 19.901482
_cell_length_b 16.863522
_cell_length_c 14.750056
_cell_angle_alpha 90.000000
_cell_angle_beta 90.000000
_cell_angle_gamma 90.000000
_cell_volume 4950.252717
_symmetry_space_group_name_H-M "C M C M"
_symmetry_group_IT_number 63
_symmetry_cell_setting 'orthorhombic'
loop_
_space_group_symop_operation_xyz
x,y,z
-x,-y,1/2+z
x,-y,-z
-x,y,1/2-z
-x,-y,-z
x,y,1/2-z
-x,y,z
x,-y,1/2+z
1/2+x,1/2+y,z
1/2-x,1/2-y,1/2+z
1/2+x,1/2-y,-z
1/2-x,1/2+y,1/2-z
1/2-x,1/2-y,-z
1/2+x,1/2+y,1/2-z
1/2-x,1/2+y,z
1/2+x,1/2-y,1/2+z
loop_
_atom_site_type_symbol
_atom_site_label
_atom_site_fract_x
_atom_site_fract_y
_atom_site_fract_z
Si Si1 0.184719 0.558308 0.750000
Si Si2 0.624538 0.453666 0.907221
Si Si3 0.575563 0.437701 0.250000
Si Si4 0.923100 0.780391 0.568354
Si Si5 0.810893 0.274688 0.563937
Si Si6 0.775986 0.450924 0.908919
Si Si7 0.921009 0.690491 0.750000
Si Si8 0.193504 0.181410 0.750000
O O1 0.183549 0.502392 0.662980
O O2 0.115855 0.606630 0.750000
O O3 0.248954 0.615418 0.750000
O O4 0.586803 0.508886 0.837245
O O5 0.582555 0.373954 0.917780
O O6 0.700214 0.433969 0.874308
O O7 0.627548 0.500000 0.000000
O O8 0.500000 0.405236 0.250000
O O9 0.621908 0.360789 0.250000
O O10 0.879856 0.752934 0.482302
O O11 0.898300 0.738690 0.660841
O O12 0.000000 0.758320 0.547185
O O13 0.750000 0.250000 0.500000
O O14 0.814443 0.368720 0.576293
O O15 0.800191 0.234698 0.661069
O O16 0.774417 0.500000 0.000000
O O17 0.000000 0.674540 0.750000
#
# Coordination Sequence:
#
# PCOD8260832 Si02
#       8
#     8  16   8  16  16  16   8   8
#     4  12  23  41  65  89 123 158 206 264 310 365
#     4  11  22  38  59  88 126 167 206 245 304 372
#     4  12  25  40  59  90 133 172 206 247 301 375
#     4  11  23  40  64  93 128 167 211 256 306 370
#     4  12  24  41  65  92 124 165 211 259 313 367
#     4  11  22  39  63  92 122 157 202 259 309 363
#     4  10  23  42  65  92 119 160 212 265 317 363
#     4  12  25  39  61  93 123 166 210 254 312 371
#
# _framework density 19.392949000000002
#
# number of rings (size 3 to 8) (size 9 to 14) (size 15 to 20)
#    0.000    0.667    3.333    5.500    0.000    4.000 
#    0.000    0.833    0.000    4.000    0.000    0.000 
#    0.000    0.000    0.000    0.000    0.000    0.000 
#
# Total GULP energy -595504.212862 kJ/mol
# GULP energy per Si atom -12406.337768 kJ/mol
# Density = 1.934881 g / cm^3
# Si number density = 19.392949 Si / 1000 Ang^3
#
#
#
# Elastic Constant Matrix: (Units=GPa)
#
#
# Indices 1 2 3 4 5 6 
#
# 1 78.6224 37.7997 38.5704 0.0000 0.0000 0.0000
# 2 37.7997 133.5970 53.5931 0.0000 0.0000 0.0000
# 3 38.5704 53.5931 132.9084 0.0000 0.0000 0.0000
# 4 0.0000 0.0000 0.0000 42.8801 0.0000 0.0000
# 5 0.0000 0.0000 0.0000 0.0000 10.5295 0.0000
# 6 0.0000 0.0000 0.0000 0.0000 0.0000 46.4201
#
#
#
# Elastic Compliance Matrix: (Units=1/GPa)
#
#
# Indices 1 2 3 4 5 6 
#
# 1 0.015871 -0.003153 -0.003334 0.000000 0.000000 0.000000
# 2 -0.003153 0.009556 -0.002938 0.000000 0.000000 0.000000
# 3 -0.003334 -0.002938 0.009676 0.000000 0.000000 0.000000
# 4 0.000000 0.000000 0.000000 0.023321 0.000000 0.000000
# 5 0.000000 0.000000 0.000000 0.000000 0.094971 0.000000
# 6 0.000000 0.000000 0.000000 0.000000 0.000000 0.021542
#
#
# Mechanical properties :
#
#
# Convention : Reuss Voigt Hill
#
# Bulk Modulus (GPa) = 61.53089 67.22825 64.37957
# Shear Modulus (GPa) = 25.09971 34.31027 29.70499
#
# Velocity S-wave (km/s) = 3.60150 4.21077 3.91799
# Velocity P-wave (km/s) = 7.00655 7.64083 7.33056
#
# Compressibility (1/GPa) = 0.01625200
#
# Stress axis : x y z
#
# Youngs Moduli (GPa) = 63.00971 104.64661 103.34360
#
# Poissons Ratio (x) = 0.32993 0.34459
# Poissons Ratio (y) = 0.19866 0.30366
# Poissons Ratio (z) = 0.21010 0.30749
#
# Static dielectric constant tensor:
#      x y z
#    x 3.578170 0.000000 0.000000 
#    y 0.000000 3.649600 0.000000 
#    z 0.000000 0.000000 3.751550 
# 
# 
# High freq. dielectric constant tensor:
#      x y z
#    x 1.748980 0.000000 0.000000 
#    y 0.000000 1.763060 0.000000 
#    z 0.000000 0.000000 1.772850 
# 
# From -- ./inp_files/35457.got.cif
#   From: 2010.03.12/outbox.cif.g09.slc.cpg/sg63_18_cif.got.tgz:35457.got - 2010.04.10 19:34:48.
