data_PCOD8260045
_publ_section_title
;
Structure prediction by ZEFSAII (Michael W. Deem and Ramdas Pophale) SiO2 
 PCOD8260045
Probable space group: C M C M
;
_chemical_formula_sum "Si O2"
_cell_formula_units_Z 96
_cell_length_a 8.813330
_cell_length_b 23.476645
_cell_length_c 25.006280
_cell_angle_alpha 90.000000
_cell_angle_beta 90.000000
_cell_angle_gamma 90.000000
_cell_volume 5173.984871
_symmetry_space_group_name_H-M "C M C M"
_symmetry_group_IT_number 63
_symmetry_cell_setting 'orthorhombic'
loop_
_space_group_symop_operation_xyz
x,y,z
-x,-y,1/2+z
x,-y,-z
-x,y,1/2-z
-x,-y,-z
x,y,1/2-z
-x,y,z
x,-y,1/2+z
1/2+x,1/2+y,z
1/2-x,1/2-y,1/2+z
1/2+x,1/2-y,-z
1/2-x,1/2+y,1/2-z
1/2-x,1/2-y,-z
1/2+x,1/2+y,1/2-z
1/2-x,1/2+y,z
1/2+x,1/2-y,1/2+z
loop_
_atom_site_type_symbol
_atom_site_label
_atom_site_fract_x
_atom_site_fract_y
_atom_site_fract_z
Si Si1 0.178507 0.134709 0.099124
Si Si2 0.324567 0.936413 0.812172
Si Si3 0.176879 0.434464 0.504640
Si Si4 0.676219 0.246379 0.057853
Si Si5 0.326011 0.371652 0.091036
Si Si6 0.674976 0.446311 0.310255
O O1 0.228801 0.110286 0.156122
O O2 0.251216 0.196553 0.092517
O O3 0.000000 0.141638 0.097016
O O4 0.228797 0.092201 0.052640
O O5 0.292852 0.925576 0.750000
O O6 0.500000 0.929729 0.827201
O O7 0.273897 0.999819 0.828618
O O8 0.224114 0.500000 0.500000
O O9 0.215289 0.402988 0.449764
O O10 0.000000 0.427138 0.517256
O O11 0.500000 0.233504 0.049668
O O12 0.705092 0.304425 0.090268
O O13 0.750000 0.250000 0.000000
O O14 0.500000 0.384803 0.074783
O O15 0.289529 0.393628 0.150703
O O16 0.717578 0.427118 0.250000
O O17 0.500000 0.464965 0.313818
#
# Coordination Sequence:
#
# PCOD8260045 Si02
#       6
#    16  16  16  16  16  16
#     4  12  24  38  58  83 113 151 192 236 286 341
#     4  10  21  38  60  86 116 150 188 233 284 338
#     4  11  23  36  54  82 114 146 183 233 289 343
#     4  11  22  38  58  82 113 153 197 239 287 340
#     4  10  21  36  56  82 112 148 190 232 280 340
#     4   9  18  35  59  86 116 150 186 227 279 341
#
# _framework density 18.554364
#
# number of rings (size 3 to 8) (size 9 to 14) (size 15 to 20)
#    0.000    1.500    1.667    4.000    0.000    6.333 
#    0.000    0.833    0.000    3.000    0.000    0.000 
#    0.000    0.000    0.000    0.000    0.000    0.000 
#
# Total GULP energy -595455.146768 kJ/mol
# GULP energy per Si atom -12405.315558 kJ/mol
# Density = 1.851213 g / cm^3
# Si number density = 18.554364 Si / 1000 Ang^3
#
#
#
# Elastic Constant Matrix: (Units=GPa)
#
#
# Indices 1 2 3 4 5 6 
#
# 1 107.8609 66.6937 45.2274 0.0000 0.0000 0.0000
# 2 66.6937 148.6370 68.2946 0.0000 0.0000 0.0000
# 3 45.2274 68.2946 101.5023 0.0000 0.0000 0.0000
# 4 0.0000 0.0000 0.0000 27.7051 0.0000 0.0000
# 5 0.0000 0.0000 0.0000 0.0000 29.3704 0.0000
# 6 0.0000 0.0000 0.0000 0.0000 0.0000 28.9502
#
#
#
# Elastic Compliance Matrix: (Units=1/GPa)
#
#
# Indices 1 2 3 4 5 6 
#
# 1 0.013351 -0.004715 -0.002777 0.000000 0.000000 0.000000
# 2 -0.004715 0.011403 -0.005572 0.000000 0.000000 0.000000
# 3 -0.002777 -0.005572 0.014838 0.000000 0.000000 0.000000
# 4 0.000000 0.000000 0.000000 0.036094 0.000000 0.000000
# 5 0.000000 0.000000 0.000000 0.000000 0.034048 0.000000
# 6 0.000000 0.000000 0.000000 0.000000 0.000000 0.034542
#
#
# Mechanical properties :
#
#
# Convention : Reuss Voigt Hill
#
# Bulk Modulus (GPa) = 74.26135 79.82574 77.04354
# Shear Modulus (GPa) = 28.58913 29.05744 28.82328
#
# Velocity S-wave (km/s) = 3.92960 3.96165 3.94566
# Velocity P-wave (km/s) = 7.79099 8.00264 7.89753
#
# Compressibility (1/GPa) = 0.01346596
#
# Stress axis : x y z
#
# Youngs Moduli (GPa) = 74.90233 87.69285 67.39395
#
# Poissons Ratio (x) = 0.41345 0.18712
# Poissons Ratio (y) = 0.35315 0.37551
# Poissons Ratio (z) = 0.20797 0.48861
#
# Static dielectric constant tensor:
#      x y z
#    x 3.563670 0.000000 0.000000 
#    y 0.000000 3.446630 0.000000 
#    z 0.000000 0.000000 3.455230 
# 
# 
# High freq. dielectric constant tensor:
#      x y z
#    x 1.730580 0.000000 0.000000 
#    y 0.000000 1.721870 0.000000 
#    z 0.000000 0.000000 1.719520 
# 
# From -- ./inp_files/59889.got.cif
#   From: 2010.03.12/outbox.cif.g09.slc.cpg/sg63_30_cif.got.tgz:59889.got - 2010.04.10 19:34:48.
