data_PCOD8260706
_publ_section_title
;
Structure prediction by ZEFSAII (Michael W. Deem and Ramdas Pophale) SiO2 
 PCOD8260706
Probable space group: C M C M
;
_chemical_formula_sum "Si O2"
_cell_formula_units_Z 96
_cell_length_a 14.201893
_cell_length_b 16.921878
_cell_length_c 19.460437
_cell_angle_alpha 90.000000
_cell_angle_beta 90.000000
_cell_angle_gamma 90.000000
_cell_volume 4676.784777
_symmetry_space_group_name_H-M "C M C M"
_symmetry_group_IT_number 63
_symmetry_cell_setting 'orthorhombic'
loop_
_space_group_symop_operation_xyz
x,y,z
-x,-y,1/2+z
x,-y,-z
-x,y,1/2-z
-x,-y,-z
x,y,1/2-z
-x,y,z
x,-y,1/2+z
1/2+x,1/2+y,z
1/2-x,1/2-y,1/2+z
1/2+x,1/2-y,-z
1/2-x,1/2+y,1/2-z
1/2-x,1/2-y,-z
1/2+x,1/2+y,1/2-z
1/2-x,1/2+y,z
1/2+x,1/2-y,1/2+z
loop_
_atom_site_type_symbol
_atom_site_label
_atom_site_fract_x
_atom_site_fract_y
_atom_site_fract_z
Si Si1 0.890602 0.211262 0.360554
Si Si2 0.111120 0.615746 0.674429
Si Si3 0.891729 0.860415 0.102794
Si Si4 0.392682 0.226789 0.496982
Si Si5 0.610871 0.413551 0.250000
Si Si6 0.213703 0.576082 0.956137
Si Si7 0.387442 0.409213 0.750000
O O1 0.851000 0.294501 0.332466
O O2 0.870313 0.208695 0.442552
O O3 0.848181 0.136846 0.318197
O O4 0.000000 0.209452 0.343980
O O5 0.139455 0.583769 0.750000
O O6 0.160604 0.563680 0.616249
O O7 0.000000 0.611484 0.662802
O O8 0.878845 0.770185 0.076225
O O9 0.857896 0.865137 0.182135
O O10 0.825461 0.917035 0.057450
O O11 0.000000 0.888458 0.093349
O O12 0.500000 0.196368 0.505851
O O13 0.323326 0.152848 0.502596
O O14 0.500000 0.421337 0.250000
O O15 0.654724 0.502091 0.250000
O O16 0.191188 0.500000 0.000000
O O17 0.500000 0.414185 0.750000
#
# Coordination Sequence:
#
# PCOD8260706 Si02
#       7
#    16  16  16  16   8  16   8
#     4   8  13  24  47  80 111 139 178 233 288 335
#     4   9  17  32  56  85 117 154 197 243 300 359
#     4  10  22  41  61  80 113 162 210 243 285 355
#     4   9  19  37  62  88 116 153 198 242 293 360
#     4   9  20  36  55  80 108 152 201 245 292 344
#     4  11  23  36  59  90 126 156 193 252 307 353
#     4   9  14  24  45  76 113 142 183 241 289 330
#
# _framework density 20.526921999999999
#
# number of rings (size 3 to 8) (size 9 to 14) (size 15 to 20)
#    0.000    2.667    0.833    2.000    1.167    3.000 
#    0.000    3.333    1.833    0.000    0.000    0.000 
#    0.000    0.000    0.000    0.000    0.000    0.000 
#
# Total GULP energy -594851.249069 kJ/mol
# GULP energy per Si atom -12392.734356 kJ/mol
# Density = 2.048020 g / cm^3
# Si number density = 20.526922 Si / 1000 Ang^3
#
#
#
# Elastic Constant Matrix: (Units=GPa)
#
#
# Indices 1 2 3 4 5 6 
#
# 1 64.4113 37.2393 47.5084 0.0000 0.0000 0.0000
# 2 37.2393 94.3075 97.3964 0.0000 0.0000 0.0000
# 3 47.5084 97.3964 155.4149 0.0000 0.0000 0.0000
# 4 0.0000 0.0000 0.0000 39.3848 0.0000 0.0000
# 5 0.0000 0.0000 0.0000 0.0000 21.7679 0.0000
# 6 0.0000 0.0000 0.0000 0.0000 0.0000 19.0980
#
#
#
# Elastic Compliance Matrix: (Units=1/GPa)
#
#
# Indices 1 2 3 4 5 6 
#
# 1 0.020741 -0.004655 -0.003423 0.000000 0.000000 0.000000
# 2 -0.004655 0.031101 -0.018068 0.000000 0.000000 0.000000
# 3 -0.003423 -0.018068 0.018804 0.000000 0.000000 0.000000
# 4 0.000000 0.000000 0.000000 0.025391 0.000000 0.000000
# 5 0.000000 0.000000 0.000000 0.000000 0.045939 0.000000
# 6 0.000000 0.000000 0.000000 0.000000 0.000000 0.052361
#
#
# Mechanical properties :
#
#
# Convention : Reuss Voigt Hill
#
# Bulk Modulus (GPa) = 54.48231 75.38022 64.93126
# Shear Modulus (GPa) = 19.78260 24.84945 22.31602
#
# Velocity S-wave (km/s) = 3.10778 3.48311 3.30079
# Velocity P-wave (km/s) = 6.28309 7.27863 6.79911
#
# Compressibility (1/GPa) = 0.01835458
#
# Stress axis : x y z
#
# Youngs Moduli (GPa) = 48.21295 32.15299 53.18082
#
# Poissons Ratio (x) = 0.14966 0.18206
# Poissons Ratio (y) = 0.22441 0.96087
# Poissons Ratio (z) = 0.16505 0.58094
#
# Static dielectric constant tensor:
#      x y z
#    x 3.600690 0.000000 0.000000 
#    y 0.000000 3.460320 0.000000 
#    z 0.000000 0.000000 4.047620 
# 
# 
# High freq. dielectric constant tensor:
#      x y z
#    x 1.790020 0.000000 0.000000 
#    y 0.000000 1.762230 0.000000 
#    z 0.000000 0.000000 1.812130 
# 
# From -- ./inp_files/54239.got.cif
#   From: 2010.03.12/outbox.cif.g09.slc.cpg/sg63_28_cif.got.tgz:54239.got - 2010.04.10 19:34:48.
