data_PCOD8260338
_publ_section_title
;
Structure prediction by ZEFSAII (Michael W. Deem and Ramdas Pophale) SiO2 
 PCOD8260338
Probable space group: C M C M
;
_chemical_formula_sum "Si O2"
_cell_formula_units_Z 96
_cell_length_a 22.043836
_cell_length_b 14.335035
_cell_length_c 14.685023
_cell_angle_alpha 90.000000
_cell_angle_beta 90.000000
_cell_angle_gamma 90.000000
_cell_volume 4640.454941
_symmetry_space_group_name_H-M "C M C M"
_symmetry_group_IT_number 63
_symmetry_cell_setting 'orthorhombic'
loop_
_space_group_symop_operation_xyz
x,y,z
-x,-y,1/2+z
x,-y,-z
-x,y,1/2-z
-x,-y,-z
x,y,1/2-z
-x,y,z
x,-y,1/2+z
1/2+x,1/2+y,z
1/2-x,1/2-y,1/2+z
1/2+x,1/2-y,-z
1/2-x,1/2+y,1/2-z
1/2-x,1/2-y,-z
1/2+x,1/2+y,1/2-z
1/2-x,1/2+y,z
1/2+x,1/2-y,1/2+z
loop_
_atom_site_type_symbol
_atom_site_label
_atom_site_fract_x
_atom_site_fract_y
_atom_site_fract_z
Si Si1 0.721056 0.722002 0.907207
Si Si2 0.567721 0.161632 0.503771
Si Si3 0.666684 0.890918 0.149670
Si Si4 0.398518 0.636036 0.528824
Si Si5 0.650278 0.902061 0.851855
Si Si6 0.068684 0.031882 0.354734
O O1 0.771533 0.668744 0.848880
O O2 0.667475 0.650360 0.928291
O O3 0.697688 0.817103 0.860636
O O4 0.750000 0.750000 0.000000
O O5 0.500000 0.126264 0.529369
O O6 0.615382 0.151102 0.585054
O O7 0.563702 0.269329 0.476237
O O8 0.592323 0.104266 0.417645
O O9 0.638442 0.884676 0.250000
O O10 0.682593 0.998822 0.125413
O O11 0.432760 0.571101 0.601636
O O12 0.392674 0.594947 0.425510
O O13 0.624379 0.901479 0.750000
O O14 0.094706 0.033216 0.250000
O O15 0.000000 0.069769 0.352632
#
# Coordination Sequence:
#
# PCOD8260338 Si02
#       6
#    16  16  16  16  16  16
#     4  11  22  42  64  91 125 166 203 258 311 369
#     4  11  23  41  65  90 123 165 210 262 313 367
#     4  11  24  43  66  93 126 164 206 258 317 373
#     4  10  21  39  62  88 124 165 212 252 310 372
#     4  10  23  41  64  93 127 165 208 254 309 372
#     4  10  21  38  61  93 131 166 206 257 311 371
#
# _framework density 20.687626999999999
#
# number of rings (size 3 to 8) (size 9 to 14) (size 15 to 20)
#    0.000    1.500    3.333    3.000    0.000    8.667 
#    0.000    3.333    0.000    0.000    0.000    0.000 
#    0.000    0.000    0.000    0.000    0.000    0.000 
#
# Total GULP energy -594922.844819 kJ/mol
# GULP energy per Si atom -12394.225934 kJ/mol
# Density = 2.064054 g / cm^3
# Si number density = 20.687627 Si / 1000 Ang^3
#
#
#
# Elastic Constant Matrix: (Units=GPa)
#
#
# Indices 1 2 3 4 5 6 
#
# 1 123.2889 27.1530 20.7744 0.0000 0.0000 0.0000
# 2 27.1530 76.7032 0.6497 0.0000 0.0000 0.0000
# 3 20.7744 0.6497 97.8171 0.0000 0.0000 0.0000
# 4 0.0000 0.0000 0.0000 25.3089 0.0000 0.0000
# 5 0.0000 0.0000 0.0000 0.0000 4.8245 0.0000
# 6 0.0000 0.0000 0.0000 0.0000 0.0000 18.4337
#
#
#
# Elastic Compliance Matrix: (Units=1/GPa)
#
#
# Indices 1 2 3 4 5 6 
#
# 1 0.009144 -0.003221 -0.001921 0.000000 0.000000 0.000000
# 2 -0.003221 0.014172 0.000590 0.000000 0.000000 0.000000
# 3 -0.001921 0.000590 0.010627 0.000000 0.000000 0.000000
# 4 0.000000 0.000000 0.000000 0.039512 0.000000 0.000000
# 5 0.000000 0.000000 0.000000 0.000000 0.207275 0.000000
# 6 0.000000 0.000000 0.000000 0.000000 0.000000 0.054249
#
#
# Mechanical properties :
#
#
# Convention : Reuss Voigt Hill
#
# Bulk Modulus (GPa) = 40.25659 43.88483 42.07071
# Shear Modulus (GPa) = 14.18996 26.32888 20.25942
#
# Velocity S-wave (km/s) = 2.62184 3.57134 3.13277
# Velocity P-wave (km/s) = 5.35415 6.18588 5.78498
#
# Compressibility (1/GPa) = 0.02484065
#
# Stress axis : x y z
#
# Youngs Moduli (GPa) = 109.36152 70.55962 94.09871
#
# Poissons Ratio (x) = 0.22725 0.18073
# Poissons Ratio (y) = 0.35222 -0.05551
# Poissons Ratio (z) = 0.21004 -0.04162
#
# Static dielectric constant tensor:
#      x y z
#    x 2.659210 0.000000 0.000000 
#    y 0.000000 3.651810 0.000000 
#    z 0.000000 0.000000 3.859470 
# 
# 
# High freq. dielectric constant tensor:
#      x y z
#    x 1.792450 0.000000 0.000000 
#    y 0.000000 1.820890 0.000000 
#    z 0.000000 0.000000 1.818980 
# 
# From -- ./inp_files/35391.got.cif
#   From: 2010.03.12/outbox.cif.g09.slc.cpg/sg63_18_cif.got.tgz:35391.got - 2010.04.10 19:34:48.
