data_PCOD8260083
_publ_section_title
;
Structure prediction by ZEFSAII (Michael W. Deem and Ramdas Pophale) SiO2 
 PCOD8260083
Probable space group: C M C M
;
_chemical_formula_sum "Si O2"
_cell_formula_units_Z 64
_cell_length_a 27.944432
_cell_length_b 9.990577
_cell_length_c 12.594909
_cell_angle_alpha 90.000000
_cell_angle_beta 90.000000
_cell_angle_gamma 90.000000
_cell_volume 3516.259285
_symmetry_space_group_name_H-M "C M C M"
_symmetry_group_IT_number 63
_symmetry_cell_setting 'orthorhombic'
loop_
_space_group_symop_operation_xyz
x,y,z
-x,-y,1/2+z
x,-y,-z
-x,y,1/2-z
-x,-y,-z
x,y,1/2-z
-x,y,z
x,-y,1/2+z
1/2+x,1/2+y,z
1/2-x,1/2-y,1/2+z
1/2+x,1/2-y,-z
1/2-x,1/2+y,1/2-z
1/2-x,1/2-y,-z
1/2+x,1/2+y,1/2-z
1/2-x,1/2+y,z
1/2+x,1/2-y,1/2+z
loop_
_atom_site_type_symbol
_atom_site_label
_atom_site_fract_x
_atom_site_fract_y
_atom_site_fract_z
Si Si1 0.254870 0.376483 0.926055
Si Si2 0.932418 0.218803 0.250000
Si Si3 0.928230 0.466412 0.750000
Si Si4 0.000000 0.864937 0.932295
Si Si5 0.179032 0.781537 0.750000
Si Si6 0.500000 0.882938 0.581552
Si Si7 0.184532 0.532152 0.250000
O O1 0.300653 0.354961 0.852709
O O2 0.207291 0.401693 0.855349
O O3 0.266437 0.500000 0.000000
O O4 0.250000 0.250000 0.000000
O O5 0.943008 0.377374 0.250000
O O6 0.953828 0.150950 0.356054
O O7 0.876717 0.193156 0.250000
O O8 0.951249 0.394905 0.648541
O O9 0.871827 0.439890 0.750000
O O10 0.000000 0.756938 0.024117
O O11 0.000000 0.000000 0.000000
O O12 0.194548 0.626255 0.750000
O O13 0.500000 0.000000 0.500000
#
# Coordination Sequence:
#
# PCOD8260083 Si02
#       7
#    16   8   8   8   8   8   8
#     4  11  22  39  59  85 117 154 193 239 295 346
#     4  10  21  40  58  87 119 155 192 243 292 333
#     4  10  21  36  62  91 117 143 202 251 276 337
#     4  11  23  39  61  84 124 158 184 235 298 355
#     4  10  22  38  61  87 117 151 200 242 284 351
#     4  11  19  37  61  89 112 152 195 237 287 338
#     4  10  22  38  59  89 117 153 194 244 292 337
#
# _framework density 18.201160999999999
#
# number of rings (size 3 to 8) (size 9 to 14) (size 15 to 20)
#    0.000    1.500    5.000    0.750    0.000    6.000 
#    0.000    2.500    0.000    0.000    0.000    0.000 
#    0.000    0.000    0.000    0.000    0.000    0.000 
#
# Total GULP energy -396791.250092 kJ/mol
# GULP energy per Si atom -12399.726565 kJ/mol
# Density = 1.815973 g / cm^3
# Si number density = 18.201161 Si / 1000 Ang^3
#
#
#
# Elastic Constant Matrix: (Units=GPa)
#
#
# Indices 1 2 3 4 5 6 
#
# 1 155.4528 61.9795 80.2172 0.0000 0.0000 0.0000
# 2 61.9795 150.3088 93.3165 0.0000 0.0000 0.0000
# 3 80.2172 93.3165 167.1435 0.0000 0.0000 0.0000
# 4 0.0000 0.0000 0.0000 48.7978 0.0000 0.0000
# 5 0.0000 0.0000 0.0000 0.0000 -4.6584 0.0000
# 6 0.0000 0.0000 0.0000 0.0000 0.0000 25.3928
#
#
#
# Elastic Compliance Matrix: (Units=1/GPa)
#
#
# Indices 1 2 3 4 5 6 
#
# 1 0.008776 -0.001537 -0.003354 0.000000 0.000000 0.000000
# 2 -0.001537 0.010451 -0.005098 0.000000 0.000000 0.000000
# 3 -0.003354 -0.005098 0.010439 0.000000 0.000000 0.000000
# 4 0.000000 0.000000 0.000000 0.020493 0.000000 0.000000
# 5 0.000000 0.000000 0.000000 0.000000 -0.214667 0.000000
# 6 0.000000 0.000000 0.000000 0.000000 0.000000 0.039381
#
#
# Mechanical properties :
#
#
# Convention : Reuss Voigt Hill
#
# Bulk Modulus (GPa) = 103.20216 104.88129 104.04172
# Shear Modulus (GPa) = -49.05756 29.73258 -9.66249
#
# Velocity S-wave (km/s) = -5.19726 4.04611 -2.30657
# Velocity P-wave (km/s) = 4.56165 8.92057 7.08467
#
# Compressibility (1/GPa) = 0.00968972
#
# Stress axis : x y z
#
# Youngs Moduli (GPa) = 113.94395 95.68221 95.79818
#
# Poissons Ratio (x) = 0.14702 0.32132
# Poissons Ratio (y) = 0.17508 0.48834
# Poissons Ratio (z) = 0.38219 0.48774
#
# Static dielectric constant tensor:
#      x y z
#    x 3.309480 0.000000 0.000000 
#    y 0.000000 3.298370 0.000000 
#    z 0.000000 0.000000 3.475740 
# 
# 
# High freq. dielectric constant tensor:
#      x y z
#    x 1.704460 0.000000 0.000000 
#    y 0.000000 1.706100 0.000000 
#    z 0.000000 0.000000 1.726400 
# 
# From -- ./inp_files/25547.got.cif
#   From: 2010.03.12/outbox.cif.g09.slc.cpg/sg63_13_cif.got.tgz:25547.got - 2010.04.10 19:34:48.
