data_PCOD8260121
_publ_section_title
;
Structure prediction by ZEFSAII (Michael W. Deem and Ramdas Pophale) SiO2 
 PCOD8260121
Probable space group: C M C M
;
_chemical_formula_sum "Si O2"
_cell_formula_units_Z 80
_cell_length_a 25.700265
_cell_length_b 8.936108
_cell_length_c 18.115236
_cell_angle_alpha 90.000000
_cell_angle_beta 90.000000
_cell_angle_gamma 90.000000
_cell_volume 4160.351325
_symmetry_space_group_name_H-M "C M C M"
_symmetry_group_IT_number 63
_symmetry_cell_setting 'orthorhombic'
loop_
_space_group_symop_operation_xyz
x,y,z
-x,-y,1/2+z
x,-y,-z
-x,y,1/2-z
-x,-y,-z
x,y,1/2-z
-x,y,z
x,-y,1/2+z
1/2+x,1/2+y,z
1/2-x,1/2-y,1/2+z
1/2+x,1/2-y,-z
1/2-x,1/2+y,1/2-z
1/2-x,1/2-y,-z
1/2+x,1/2+y,1/2-z
1/2-x,1/2+y,z
1/2+x,1/2-y,1/2+z
loop_
_atom_site_type_symbol
_atom_site_label
_atom_site_fract_x
_atom_site_fract_y
_atom_site_fract_z
Si Si1 0.357795 0.906371 0.925551
Si Si2 0.676147 0.579145 0.925735
Si Si3 0.720655 0.088416 0.665147
Si Si4 0.560104 0.062407 0.836295
Si Si5 0.366244 0.671718 0.333435
O O1 0.353040 0.732454 0.945798
O O2 0.310629 0.953086 0.872182
O O3 0.412541 0.932168 0.883592
O O4 0.355341 0.000000 0.000000
O O5 0.724589 0.613529 0.873596
O O6 0.634256 0.473028 0.885313
O O7 0.696355 0.500000 0.000000
O O8 0.730089 0.043930 0.750000
O O9 0.688540 0.242074 0.658201
O O10 0.568840 0.027709 0.750000
O O11 0.500000 0.069626 0.857945
O O12 0.586473 0.220500 0.857400
O O13 0.374541 0.616931 0.250000
#
# Coordination Sequence:
#
# PCOD8260121 Si02
#       5
#    16  16  16  16  16
#     4  11  23  38  56  80 111 148 188 225 265 320
#     4  12  23  34  52  80 114 148 182 224 271 318
#     4  10  21  37  56  79 110 148 185 221 267 324
#     4   9  19  39  64  84 105 138 179 223 273 328
#     4   9  19  35  55  81 110 139 175 221 274 327
#
# _framework density 19.229144999999999
#
# number of rings (size 3 to 8) (size 9 to 14) (size 15 to 20)
#    0.000    1.800    0.000    6.600    0.000    7.600 
#    0.000    1.000    0.000    4.800    0.000    0.000 
#    0.000    0.000    0.000    0.000    0.000    0.000 
#
# Total GULP energy -496172.818427 kJ/mol
# GULP energy per Si atom -12404.320461 kJ/mol
# Density = 1.918538 g / cm^3
# Si number density = 19.229145 Si / 1000 Ang^3
#
#
#
# Elastic Constant Matrix: (Units=GPa)
#
#
# Indices 1 2 3 4 5 6 
#
# 1 126.6377 45.7200 51.9841 0.0000 0.0000 0.0000
# 2 45.7200 123.1225 56.8443 0.0000 0.0000 0.0000
# 3 51.9841 56.8443 117.2733 0.0000 0.0000 0.0000
# 4 0.0000 0.0000 0.0000 35.5238 0.0000 0.0000
# 5 0.0000 0.0000 0.0000 0.0000 18.3671 0.0000
# 6 0.0000 0.0000 0.0000 0.0000 0.0000 12.6569
#
#
#
# Elastic Compliance Matrix: (Units=1/GPa)
#
#
# Indices 1 2 3 4 5 6 
#
# 1 0.010082 -0.002165 -0.003420 0.000000 0.000000 0.000000
# 2 -0.002165 0.010929 -0.004338 0.000000 0.000000 0.000000
# 3 -0.003420 -0.004338 0.012145 0.000000 0.000000 0.000000
# 4 0.000000 0.000000 0.000000 0.028150 0.000000 0.000000
# 5 0.000000 0.000000 0.000000 0.000000 0.054445 0.000000
# 6 0.000000 0.000000 0.000000 0.000000 0.000000 0.079008
#
#
# Mechanical properties :
#
#
# Convention : Reuss Voigt Hill
#
# Bulk Modulus (GPa) = 75.12304 75.12557 75.12430
# Shear Modulus (GPa) = 22.82677 27.47523 25.15100
#
# Velocity S-wave (km/s) = 3.44916 3.78409 3.62050
# Velocity P-wave (km/s) = 7.41717 7.63190 7.52530
#
# Compressibility (1/GPa) = 0.01331150
#
# Stress axis : x y z
#
# Youngs Moduli (GPa) = 99.18759 91.50355 82.33560
#
# Poissons Ratio (x) = 0.19810 0.28156
# Poissons Ratio (y) = 0.21474 0.35714
# Poissons Ratio (z) = 0.33919 0.39690
#
# Static dielectric constant tensor:
#      x y z
#    x 3.368400 0.000000 0.000000 
#    y 0.000000 3.475250 0.000000 
#    z 0.000000 0.000000 3.678350 
# 
# 
# High freq. dielectric constant tensor:
#      x y z
#    x 1.725890 0.000000 0.000000 
#    y 0.000000 1.740260 0.000000 
#    z 0.000000 0.000000 1.764130 
# 
# From -- ./inp_files/48767.got.cif
#   From: 2010.03.12/outbox.cif.g09.slc.cpg/sg63_25_cif.got.tgz:48767.got - 2010.04.10 19:34:48.
