data_PCOD8260440
_publ_section_title
;
Structure prediction by ZEFSAII (Michael W. Deem and Ramdas Pophale) SiO2 
 PCOD8260440
Probable space group: C M C M
;
_chemical_formula_sum "Si O2"
_cell_formula_units_Z 96
_cell_length_a 17.913492
_cell_length_b 11.410955
_cell_length_c 21.496667
_cell_angle_alpha 90.000000
_cell_angle_beta 90.000000
_cell_angle_gamma 90.000000
_cell_volume 4394.134800
_symmetry_space_group_name_H-M "C M C M"
_symmetry_group_IT_number 63
_symmetry_cell_setting 'orthorhombic'
loop_
_space_group_symop_operation_xyz
x,y,z
-x,-y,1/2+z
x,-y,-z
-x,y,1/2-z
-x,-y,-z
x,y,1/2-z
-x,y,z
x,-y,1/2+z
1/2+x,1/2+y,z
1/2-x,1/2-y,1/2+z
1/2+x,1/2-y,-z
1/2-x,1/2+y,1/2-z
1/2-x,1/2-y,-z
1/2+x,1/2+y,1/2-z
1/2-x,1/2+y,z
1/2+x,1/2-y,1/2+z
loop_
_atom_site_type_symbol
_atom_site_label
_atom_site_fract_x
_atom_site_fract_y
_atom_site_fract_z
Si Si1 0.670978 0.545024 0.898090
Si Si2 0.728840 0.257980 0.178442
Si Si3 0.826759 0.565776 0.399819
Si Si4 0.087540 0.756681 0.473919
Si Si5 0.621080 0.299602 0.885348
Si Si6 0.081038 0.594847 0.817933
O O1 0.688808 0.618131 0.835502
O O2 0.746576 0.482050 0.924740
O O3 0.631429 0.629196 0.948169
O O4 0.614508 0.440482 0.879109
O O5 0.753710 0.252597 0.250000
O O6 0.675772 0.149196 0.161497
O O7 0.795380 0.245516 0.129062
O O8 0.871287 0.636534 0.453078
O O9 0.872523 0.455381 0.375304
O O10 0.093639 0.759873 0.547353
O O11 0.000000 0.757282 0.453387
O O12 0.570916 0.233465 0.833902
O O13 0.120034 0.580885 0.750000
O O14 0.000000 0.535097 0.815315
#
# Coordination Sequence:
#
# PCOD8260440 Si02
#       6
#    16  16  16  16  16  16
#     4  10  23  40  66  94 127 169 217 271 321 387
#     4  10  21  39  64  95 127 166 216 271 325 384
#     4  10  22  42  65  95 128 168 219 273 324 387
#     4  11  25  44  66  93 132 178 221 267 329 394
#     4  11  23  38  61  91 129 164 211 261 320 385
#     4  11  23  40  62  90 128 170 212 266 331 394
#
# _framework density 21.847304999999999
#
# number of rings (size 3 to 8) (size 9 to 14) (size 15 to 20)
#    0.000    1.500    1.667    2.500    0.000   13.333 
#    0.000    1.667    0.000    4.500    0.000    0.000 
#    0.000    0.000    0.000    0.000    0.000    0.000 
#
# Total GULP energy -594723.783136 kJ/mol
# GULP energy per Si atom -12390.078815 kJ/mol
# Density = 2.179758 g / cm^3
# Si number density = 21.847305 Si / 1000 Ang^3
#
#
#
# Elastic Constant Matrix: (Units=GPa)
#
#
# Indices 1 2 3 4 5 6 
#
# 1 94.9214 27.5471 22.9237 0.0000 0.0000 0.0000
# 2 27.5471 106.0087 26.9316 0.0000 0.0000 0.0000
# 3 22.9237 26.9316 79.9594 0.0000 0.0000 0.0000
# 4 0.0000 0.0000 0.0000 21.9002 0.0000 0.0000
# 5 0.0000 0.0000 0.0000 0.0000 25.9113 0.0000
# 6 0.0000 0.0000 0.0000 0.0000 0.0000 23.0868
#
#
#
# Elastic Compliance Matrix: (Units=1/GPa)
#
#
# Indices 1 2 3 4 5 6 
#
# 1 0.011863 -0.002426 -0.002584 0.000000 0.000000 0.000000
# 2 -0.002426 0.010812 -0.002946 0.000000 0.000000 0.000000
# 3 -0.002584 -0.002946 0.014239 0.000000 0.000000 0.000000
# 4 0.000000 0.000000 0.000000 0.045662 0.000000 0.000000
# 5 0.000000 0.000000 0.000000 0.000000 0.038593 0.000000
# 6 0.000000 0.000000 0.000000 0.000000 0.000000 0.043315
#
#
# Mechanical properties :
#
#
# Convention : Reuss Voigt Hill
#
# Bulk Modulus (GPa) = 47.61402 48.41047 48.01224
# Shear Modulus (GPa) = 26.68124 27.74547 27.21336
#
# Velocity S-wave (km/s) = 3.49844 3.56753 3.53316
# Velocity P-wave (km/s) = 6.17739 6.25910 6.21838
#
# Compressibility (1/GPa) = 0.02100222
#
# Stress axis : x y z
#
# Youngs Moduli (GPa) = 84.29444 92.48868 70.22767
#
# Poissons Ratio (x) = 0.22441 0.18146
# Poissons Ratio (y) = 0.20452 0.20690
# Poissons Ratio (z) = 0.21780 0.27248
#
# Static dielectric constant tensor:
#      x y z
#    x 4.020360 0.000000 0.000000 
#    y 0.000000 4.393810 0.000000 
#    z 0.000000 0.000000 3.640000 
# 
# 
# High freq. dielectric constant tensor:
#      x y z
#    x 1.848290 0.000000 0.000000 
#    y 0.000000 1.878390 0.000000 
#    z 0.000000 0.000000 1.844370 
# 
# From -- ./inp_files/63680.got.cif
#   From: 2010.03.12/outbox.cif.g09.slc.cpg/sg63_32_cif.got.tgz:63680.got - 2010.04.10 19:34:48.
