data_PCOD8260347
_publ_section_title
;
Structure prediction by ZEFSAII (Michael W. Deem and Ramdas Pophale) SiO2 
 PCOD8260347
Probable space group: C M C M
;
_chemical_formula_sum "Si O2"
_cell_formula_units_Z 112
_cell_length_a 13.724016
_cell_length_b 15.368594
_cell_length_c 25.294036
_cell_angle_alpha 90.000000
_cell_angle_beta 90.000000
_cell_angle_gamma 90.000000
_cell_volume 5334.988478
_symmetry_space_group_name_H-M "C M C M"
_symmetry_group_IT_number 63
_symmetry_cell_setting 'orthorhombic'
loop_
_space_group_symop_operation_xyz
x,y,z
-x,-y,1/2+z
x,-y,-z
-x,y,1/2-z
-x,-y,-z
x,y,1/2-z
-x,y,z
x,-y,1/2+z
1/2+x,1/2+y,z
1/2-x,1/2-y,1/2+z
1/2+x,1/2-y,-z
1/2-x,1/2+y,1/2-z
1/2-x,1/2-y,-z
1/2+x,1/2+y,1/2-z
1/2-x,1/2+y,z
1/2+x,1/2-y,1/2+z
loop_
_atom_site_type_symbol
_atom_site_label
_atom_site_fract_x
_atom_site_fract_y
_atom_site_fract_z
Si Si1 0.104698 0.608863 0.392699
Si Si2 0.891566 0.588005 0.912084
Si Si3 0.894738 0.945968 0.947891
Si Si4 0.612489 0.489070 0.336078
Si Si5 0.221795 0.353570 0.189270
Si Si6 0.239019 0.149741 0.190499
Si Si7 0.714194 0.157952 0.486309
O O1 0.101296 0.514209 0.418071
O O2 0.176999 0.609003 0.344290
O O3 0.129803 0.669188 0.442914
O O4 0.000000 0.638694 0.370842
O O5 0.853919 0.609572 0.853211
O O6 0.000000 0.629477 0.919037
O O7 0.818881 0.613777 0.959266
O O8 0.802910 0.884287 0.953616
O O9 0.000000 0.897070 0.938495
O O10 0.876168 0.011769 0.899378
O O11 0.905019 0.000000 0.000000
O O12 0.500000 0.474986 0.318258
O O13 0.676385 0.407672 0.314525
O O14 0.645391 0.585942 0.316093
O O15 0.183816 0.363915 0.250000
O O16 0.226421 0.250929 0.174766
O O17 0.275991 0.145062 0.250000
O O18 0.750000 0.250000 0.500000
#
# Coordination Sequence:
#
# PCOD8260347 Si02
#       7
#    16  16  16  16  16  16  16
#     4  11  23  41  64  92 126 171 219 266 325 396
#     4  11  24  41  66  94 125 172 221 268 328 400
#     4  10  21  38  62  90 124 166 212 263 326 392
#     4  11  23  43  71  99 133 179 228 280 339 403
#     4  11  24  43  67  97 134 173 221 281 338 399
#     4  11  24  43  65  96 134 173 221 280 336 396
#     4  12  23  39  62  91 131 166 210 269 326 390
#
# _framework density 20.993486000000001
#
# number of rings (size 3 to 8) (size 9 to 14) (size 15 to 20)
#    0.000    1.000    2.857    3.857    0.000    5.143 
#    0.000    5.714    0.000    0.000    0.000    0.000 
#    0.000    0.000    0.000    0.000    0.000    0.000 
#
# Total GULP energy -693907.615295 kJ/mol
# GULP energy per Si atom -12391.207416 kJ/mol
# Density = 2.094570 g / cm^3
# Si number density = 20.993486 Si / 1000 Ang^3
#
#
#
# Elastic Constant Matrix: (Units=GPa)
#
#
# Indices 1 2 3 4 5 6 
#
# 1 113.7053 29.3801 27.0399 0.0000 0.0000 0.0000
# 2 29.3801 91.0759 3.7636 0.0000 0.0000 0.0000
# 3 27.0399 3.7636 108.7012 0.0000 0.0000 0.0000
# 4 0.0000 0.0000 0.0000 32.8687 0.0000 0.0000
# 5 0.0000 0.0000 0.0000 0.0000 -792.7460 0.0000
# 6 0.0000 0.0000 0.0000 0.0000 0.0000 -18.3830
#
#
#
# Elastic Compliance Matrix: (Units=1/GPa)
#
#
# Indices 1 2 3 4 5 6 
#
# 1 0.010195 -0.003189 -0.002426 0.000000 0.000000 0.000000
# 2 -0.003189 0.011993 0.000378 0.000000 0.000000 0.000000
# 3 -0.002426 0.000378 0.009790 0.000000 0.000000 0.000000
# 4 0.000000 0.000000 0.000000 0.030424 0.000000 0.000000
# 5 0.000000 0.000000 0.000000 0.000000 -0.001261 0.000000
# 6 0.000000 0.000000 0.000000 0.000000 0.000000 -0.054398
#
#
# Mechanical properties :
#
#
# Convention : Reuss Voigt Hill
#
# Bulk Modulus (GPa) = 46.50035 48.20549 47.35292
# Shear Modulus (GPa) = 205.05208 -138.76547 33.14331
#
# Velocity S-wave (km/s) = 9.89374 -8.13897 3.97765
# Velocity P-wave (km/s) = 12.35771 8.08157 6.61064
#
# Compressibility (1/GPa) = 0.02150521
#
# Stress axis : x y z
#
# Youngs Moduli (GPa) = 98.08297 83.38287 102.14647
#
# Poissons Ratio (x) = 0.26588 0.24778
# Poissons Ratio (y) = 0.31276 -0.03861
# Poissons Ratio (z) = 0.23793 -0.03152
#
# Static dielectric constant tensor:
#      x y z
#    x 4.211180 0.000000 0.000000 
#    y 0.000000 3.916990 0.000000 
#    z 0.000000 0.000000 3.899590 
# 
# 
# High freq. dielectric constant tensor:
#      x y z
#    x 1.828530 0.000000 0.000000 
#    y 0.000000 1.808860 0.000000 
#    z 0.000000 0.000000 1.844740 
# 
# From -- ./inp_files/62957.got.cif
#   From: 2010.03.12/outbox.cif.g09.slc.cpg/sg63_32_cif.got.tgz:62957.got - 2010.04.10 19:34:48.
