data_PCOD8260841
_publ_section_title
;
Structure prediction by ZEFSAII (Michael W. Deem and Ramdas Pophale) SiO2 
 PCOD8260841
Probable space group: C M C M
;
_chemical_formula_sum "Si O2"
_cell_formula_units_Z 72
_cell_length_a 17.605676
_cell_length_b 23.516614
_cell_length_c 8.746964
_cell_angle_alpha 90.000000
_cell_angle_beta 90.000000
_cell_angle_gamma 90.000000
_cell_volume 3621.469526
_symmetry_space_group_name_H-M "C M C M"
_symmetry_group_IT_number 63
_symmetry_cell_setting 'orthorhombic'
loop_
_space_group_symop_operation_xyz
x,y,z
-x,-y,1/2+z
x,-y,-z
-x,y,1/2-z
-x,-y,-z
x,y,1/2-z
-x,y,z
x,-y,1/2+z
1/2+x,1/2+y,z
1/2-x,1/2-y,1/2+z
1/2+x,1/2-y,-z
1/2-x,1/2+y,1/2-z
1/2-x,1/2-y,-z
1/2+x,1/2+y,1/2-z
1/2-x,1/2+y,z
1/2+x,1/2-y,1/2+z
loop_
_atom_site_type_symbol
_atom_site_label
_atom_site_fract_x
_atom_site_fract_y
_atom_site_fract_z
Si Si1 0.854651 0.870203 0.068670
Si Si2 0.283387 0.937895 0.927805
Si Si3 0.412919 0.852069 0.925731
Si Si4 0.000000 0.060953 0.929816
Si Si5 0.167121 0.246697 0.430065
O O1 0.848248 0.865639 0.250000
O O2 0.924730 0.907895 0.012545
O O3 0.777445 0.896643 0.005138
O O4 0.872624 0.808620 0.999709
O O5 0.263598 0.943533 0.750000
O O6 0.365724 0.909765 0.955554
O O7 0.282002 0.000000 0.000000
O O8 0.404177 0.832722 0.750000
O O9 0.500000 0.865358 0.968092
O O10 0.382764 0.801575 0.031356
O O11 0.000000 0.056220 0.750000
O O12 0.000000 0.000000 0.000000
O O13 0.174459 0.240638 0.250000
O O14 0.250000 0.250000 0.500000
#
# Coordination Sequence:
#
# PCOD8260841 Si02
#       5
#    16  16  16   8  16
#     4  11  23  41  64  92 125 165 210 260 315 376
#     4  11  23  40  64  92 123 164 211 260 313 376
#     4  10  23  43  65  91 127 169 211 260 315 370
#     4  10  24  42  62  90 126 168 209 254 311 368
#     4  12  24  40  64  94 125 162 207 258 313 374
#
# _framework density 19.881433000000001
#
# number of rings (size 3 to 8) (size 9 to 14) (size 15 to 20)
#    0.000    1.111    2.222    4.000    1.556    5.333 
#    0.000    0.000    0.000    0.000    0.000    0.000 
#    0.000    0.000    0.000    0.000    0.000    0.000 
#
# Total GULP energy -446582.820652 kJ/mol
# GULP energy per Si atom -12405.078351 kJ/mol
# Density = 1.983618 g / cm^3
# Si number density = 19.881433 Si / 1000 Ang^3
#
#
#
# Elastic Constant Matrix: (Units=GPa)
#
#
# Indices 1 2 3 4 5 6 
#
# 1 104.5532 10.5731 30.9145 0.0000 0.0000 0.0000
# 2 10.5731 99.6162 36.1607 0.0000 0.0000 0.0000
# 3 30.9145 36.1607 105.2386 0.0000 0.0000 0.0000
# 4 0.0000 0.0000 0.0000 36.9858 0.0000 0.0000
# 5 0.0000 0.0000 0.0000 0.0000 27.1510 0.0000
# 6 0.0000 0.0000 0.0000 0.0000 0.0000 38.2428
#
#
#
# Elastic Compliance Matrix: (Units=1/GPa)
#
#
# Indices 1 2 3 4 5 6 
#
# 1 0.010474 0.000006 -0.003079 0.000000 0.000000 0.000000
# 2 0.000006 0.011469 -0.003943 0.000000 0.000000 0.000000
# 3 -0.003079 -0.003943 0.011761 0.000000 0.000000 0.000000
# 4 0.000000 0.000000 0.000000 0.027037 0.000000 0.000000
# 5 0.000000 0.000000 0.000000 0.000000 0.036831 0.000000
# 6 0.000000 0.000000 0.000000 0.000000 0.000000 0.026149
#
#
# Mechanical properties :
#
#
# Convention : Reuss Voigt Hill
#
# Bulk Modulus (GPa) = 50.82967 51.63383 51.23175
# Shear Modulus (GPa) = 34.64742 35.92658 35.28700
#
# Velocity S-wave (km/s) = 4.17910 4.25554 4.21749
# Velocity P-wave (km/s) = 6.99345 7.08332 7.03853
#
# Compressibility (1/GPa) = 0.01967355
#
# Stress axis : x y z
#
# Youngs Moduli (GPa) = 95.47190 87.19118 85.02414
#
# Poissons Ratio (x) = -0.00052 0.26178
# Poissons Ratio (y) = -0.00057 0.33521
# Poissons Ratio (z) = 0.29395 0.34376
#
# Static dielectric constant tensor:
#      x y z
#    x 3.787470 0.000000 0.000000 
#    y 0.000000 3.854970 0.000000 
#    z 0.000000 0.000000 3.688040 
# 
# 
# High freq. dielectric constant tensor:
#      x y z
#    x 1.784560 0.000000 0.000000 
#    y 0.000000 1.788190 0.000000 
#    z 0.000000 0.000000 1.783460 
# 
# From -- ./inp_files/4612.got.cif
#   From: 2010.03.12/outbox.cif.g09.slc.cpg/sg63_3_cif.got.tgz:4612.got - 2010.04.10 19:34:48.
