data_PCOD8260547
_publ_section_title
;
Structure prediction by ZEFSAII (Michael W. Deem and Ramdas Pophale) SiO2 
 PCOD8260547
Probable space group: C M C M
;
_chemical_formula_sum "Si O2"
_cell_formula_units_Z 64
_cell_length_a 13.379871
_cell_length_b 14.604288
_cell_length_c 17.418440
_cell_angle_alpha 90.000000
_cell_angle_beta 90.000000
_cell_angle_gamma 90.000000
_cell_volume 3403.623957
_symmetry_space_group_name_H-M "C M C M"
_symmetry_group_IT_number 63
_symmetry_cell_setting 'orthorhombic'
loop_
_space_group_symop_operation_xyz
x,y,z
-x,-y,1/2+z
x,-y,-z
-x,y,1/2-z
-x,-y,-z
x,y,1/2-z
-x,y,z
x,-y,1/2+z
1/2+x,1/2+y,z
1/2-x,1/2-y,1/2+z
1/2+x,1/2-y,-z
1/2-x,1/2+y,1/2-z
1/2-x,1/2-y,-z
1/2+x,1/2+y,1/2-z
1/2-x,1/2+y,z
1/2+x,1/2-y,1/2+z
loop_
_atom_site_type_symbol
_atom_site_label
_atom_site_fract_x
_atom_site_fract_y
_atom_site_fract_z
Si Si1 0.615067 0.503831 0.091117
Si Si2 0.752129 0.150330 0.162549
Si Si3 0.733384 0.666541 0.592176
Si Si4 0.882909 0.675436 0.032292
O O1 0.500000 0.491095 0.113067
O O2 0.651586 0.598535 0.128410
O O3 0.679110 0.421186 0.129463
O O4 0.632634 0.500000 0.000000
O O5 0.731987 0.122003 0.250000
O O6 0.770651 0.260578 0.156533
O O7 0.655063 0.124509 0.110337
O O8 0.827860 0.632244 0.541743
O O9 0.650961 0.717389 0.536877
O O10 0.000000 0.663899 0.022817
#
# Coordination Sequence:
#
# PCOD8260547 Si02
#       4
#    16  16  16  16
#     4  11  20  36  63  88 115 155 201 246 294 351
#     4  10  22  37  53  86 126 151 191 249 302 350
#     4   9  19  36  57  86 115 154 198 243 292 345
#     4   9  17  35  59  80 110 155 197 230 286 352
#
# _framework density 18.803485999999999
#
# number of rings (size 3 to 8) (size 9 to 14) (size 15 to 20)
#    1.500    0.750    2.500    0.750    0.000    5.000 
#    0.000    2.500    0.000    0.000    0.000    3.500 
#    0.000    0.000    0.000    0.000    0.000    0.000 
#
# Total GULP energy -396457.987494 kJ/mol
# GULP energy per Si atom -12389.312109 kJ/mol
# Density = 1.876069 g / cm^3
# Si number density = 18.803486 Si / 1000 Ang^3
#
#
#
# Elastic Constant Matrix: (Units=GPa)
#
#
# Indices 1 2 3 4 5 6 
#
# 1 152.7927 40.8421 57.0976 0.0000 0.0000 0.0000
# 2 40.8421 93.8135 25.0075 0.0000 0.0000 0.0000
# 3 57.0976 25.0075 66.0838 0.0000 0.0000 0.0000
# 4 0.0000 0.0000 0.0000 13.9826 0.0000 0.0000
# 5 0.0000 0.0000 0.0000 0.0000 9.6506 0.0000
# 6 0.0000 0.0000 0.0000 0.0000 0.0000 29.5088
#
#
#
# Elastic Compliance Matrix: (Units=1/GPa)
#
#
# Indices 1 2 3 4 5 6 
#
# 1 0.010094 -0.002302 -0.007850 0.000000 0.000000 0.000000
# 2 -0.002302 0.012380 -0.002696 0.000000 0.000000 0.000000
# 3 -0.007850 -0.002696 0.022935 0.000000 0.000000 0.000000
# 4 0.000000 0.000000 0.000000 0.071518 0.000000 0.000000
# 5 0.000000 0.000000 0.000000 0.000000 0.103621 0.000000
# 6 0.000000 0.000000 0.000000 0.000000 0.000000 0.033888
#
#
# Mechanical properties :
#
#
# Convention : Reuss Voigt Hill
#
# Bulk Modulus (GPa) = 50.72779 62.06493 56.39636
# Shear Modulus (GPa) = 17.43970 23.27793 20.35881
#
# Velocity S-wave (km/s) = 3.04875 3.52228 3.29403
# Velocity P-wave (km/s) = 6.27930 7.04420 6.67272
#
# Compressibility (1/GPa) = 0.01971306
#
# Stress axis : x y z
#
# Youngs Moduli (GPa) = 99.07302 80.77399 43.60125
#
# Poissons Ratio (x) = 0.18592 0.34227
# Poissons Ratio (y) = 0.22804 0.11756
# Poissons Ratio (z) = 0.77772 0.21778
#
# Static dielectric constant tensor:
#      x y z
#    x 3.187110 0.000000 0.000000 
#    y 0.000000 3.341750 0.000000 
#    z 0.000000 0.000000 3.136600 
# 
# 
# High freq. dielectric constant tensor:
#      x y z
#    x 1.714150 0.000000 0.000000 
#    y 0.000000 1.718330 0.000000 
#    z 0.000000 0.000000 1.699220 
# 
# From -- ./inp_files/41487.got.cif
#   From: 2010.03.12/outbox.cif.g09.slc.cpg/sg63_21_cif.got.tgz:41487.got - 2010.04.10 19:34:48.
