data_PCOD8260251
_publ_section_title
;
Structure prediction by ZEFSAII (Michael W. Deem and Ramdas Pophale) SiO2 
 PCOD8260251
Probable space group: C M C M
;
_chemical_formula_sum "Si O2"
_cell_formula_units_Z 96
_cell_length_a 19.037426
_cell_length_b 8.951827
_cell_length_c 30.318689
_cell_angle_alpha 90.000000
_cell_angle_beta 90.000000
_cell_angle_gamma 90.000000
_cell_volume 5166.903220
_symmetry_space_group_name_H-M "C M C M"
_symmetry_group_IT_number 63
_symmetry_cell_setting 'orthorhombic'
loop_
_space_group_symop_operation_xyz
x,y,z
-x,-y,1/2+z
x,-y,-z
-x,y,1/2-z
-x,-y,-z
x,y,1/2-z
-x,y,z
x,-y,1/2+z
1/2+x,1/2+y,z
1/2-x,1/2-y,1/2+z
1/2+x,1/2-y,-z
1/2-x,1/2+y,1/2-z
1/2-x,1/2-y,-z
1/2+x,1/2+y,1/2-z
1/2-x,1/2+y,z
1/2+x,1/2-y,1/2+z
loop_
_atom_site_type_symbol
_atom_site_label
_atom_site_fract_x
_atom_site_fract_y
_atom_site_fract_z
Si Si1 0.667205 0.956914 0.127204
Si Si2 0.419153 0.803067 0.199217
Si Si3 0.314180 0.701147 0.612798
Si Si4 0.420660 0.465503 0.637757
Si Si5 0.918324 0.725152 0.936569
Si Si6 0.177930 0.828290 0.011555
O O1 0.630849 0.917577 0.173560
O O2 0.736546 0.860219 0.119516
O O3 0.615120 0.920624 0.086563
O O4 0.686010 0.129857 0.129208
O O5 0.396916 0.804444 0.250000
O O6 0.500000 0.852987 0.192347
O O7 0.408889 0.635949 0.180833
O O8 0.368883 0.605600 0.641593
O O9 0.339539 0.692999 0.562530
O O10 0.500000 0.526590 0.635848
O O11 0.403757 0.368362 0.594259
O O12 0.000000 0.694058 0.943212
O O13 0.884862 0.752987 0.984206
O O14 0.250000 0.750000 0.000000
O O15 0.185634 0.000000 0.000000
#
# Coordination Sequence:
#
# PCOD8260251 Si02
#       6
#    16  16  16  16  16  16
#     4  11  22  38  59  85 119 156 195 241 297 351
#     4   9  19  40  68  91 116 152 189 234 297 364
#     4  12  23  37  59  86 119 159 200 244 295 346
#     4   9  19  37  60  88 117 149 192 239 293 357
#     4  10  21  38  57  81 115 155 199 246 293 344
#     4  12  23  37  58  82 113 159 208 248 289 341
#
# _framework density 18.579795000000001
#
# number of rings (size 3 to 8) (size 9 to 14) (size 15 to 20)
#    0.000    1.500    3.333    4.500    0.000    2.333 
#    0.000    5.000    0.000    2.000    0.000    0.000 
#    0.000    0.000    0.000    0.000    0.000    0.000 
#
# Total GULP energy -595387.173586 kJ/mol
# GULP energy per Si atom -12403.899450 kJ/mol
# Density = 1.853751 g / cm^3
# Si number density = 18.579795 Si / 1000 Ang^3
#
#
#
# Elastic Constant Matrix: (Units=GPa)
#
#
# Indices 1 2 3 4 5 6 
#
# 1 128.8300 60.1731 53.8227 0.0000 0.0000 0.0000
# 2 60.1731 117.8478 44.2287 0.0000 0.0000 0.0000
# 3 53.8227 44.2287 134.4617 0.0000 0.0000 0.0000
# 4 0.0000 0.0000 0.0000 18.0425 0.0000 0.0000
# 5 0.0000 0.0000 0.0000 0.0000 26.7899 0.0000
# 6 0.0000 0.0000 0.0000 0.0000 0.0000 35.5982
#
#
#
# Elastic Compliance Matrix: (Units=1/GPa)
#
#
# Indices 1 2 3 4 5 6 
#
# 1 0.011133 -0.004577 -0.002951 0.000000 0.000000 0.000000
# 2 -0.004577 0.011562 -0.001971 0.000000 0.000000 0.000000
# 3 -0.002951 -0.001971 0.009267 0.000000 0.000000 0.000000
# 4 0.000000 0.000000 0.000000 0.055425 0.000000 0.000000
# 5 0.000000 0.000000 0.000000 0.000000 0.037327 0.000000
# 6 0.000000 0.000000 0.000000 0.000000 0.000000 0.028091
#
#
# Mechanical properties :
#
#
# Convention : Reuss Voigt Hill
#
# Bulk Modulus (GPa) = 77.13705 77.50984 77.32345
# Shear Modulus (GPa) = 28.38909 30.94711 29.66810
#
# Velocity S-wave (km/s) = 3.91315 4.08564 4.00033
# Velocity P-wave (km/s) = 7.87551 8.00403 7.94003
#
# Compressibility (1/GPa) = 0.01296394
#
# Stress axis : x y z
#
# Youngs Moduli (GPa) = 89.82557 86.48813 107.91492
#
# Poissons Ratio (x) = 0.39585 0.31843
# Poissons Ratio (y) = 0.41113 0.21271
# Poissons Ratio (z) = 0.26505 0.17048
#
# Static dielectric constant tensor:
#      x y z
#    x 3.507760 0.000000 0.000000 
#    y 0.000000 3.345370 0.000000 
#    z 0.000000 0.000000 3.455640 
# 
# 
# High freq. dielectric constant tensor:
#      x y z
#    x 1.733990 0.000000 0.000000 
#    y 0.000000 1.714400 0.000000 
#    z 0.000000 0.000000 1.709910 
# 
# From -- ./inp_files/70282.got.cif
#   From: 2010.03.12/outbox.cif.g09.slc.cpg/sg63_36_cif.got.tgz:70282.got - 2010.04.10 19:34:48.
