data_PCOD8260381
_publ_section_title
;
Structure prediction by ZEFSAII (Michael W. Deem and Ramdas Pophale) SiO2 
 PCOD8260381
Probable space group: C M C M
;
_chemical_formula_sum "Si O2"
_cell_formula_units_Z 88
_cell_length_a 17.199591
_cell_length_b 28.608062
_cell_length_c 9.022919
_cell_angle_alpha 90.000000
_cell_angle_beta 90.000000
_cell_angle_gamma 90.000000
_cell_volume 4439.699916
_symmetry_space_group_name_H-M "C M C M"
_symmetry_group_IT_number 63
_symmetry_cell_setting 'orthorhombic'
loop_
_space_group_symop_operation_xyz
x,y,z
-x,-y,1/2+z
x,-y,-z
-x,y,1/2-z
-x,-y,-z
x,y,1/2-z
-x,y,z
x,-y,1/2+z
1/2+x,1/2+y,z
1/2-x,1/2-y,1/2+z
1/2+x,1/2-y,-z
1/2-x,1/2+y,1/2-z
1/2-x,1/2-y,-z
1/2+x,1/2+y,1/2-z
1/2-x,1/2+y,z
1/2+x,1/2-y,1/2+z
loop_
_atom_site_type_symbol
_atom_site_label
_atom_site_fract_x
_atom_site_fract_y
_atom_site_fract_z
Si Si1 0.364158 0.103598 0.420165
Si Si2 0.092504 0.203737 0.416637
Si Si3 0.000000 0.550082 0.925160
Si Si4 0.410398 0.205311 0.079642
Si Si5 0.091471 0.888993 0.078561
Si Si6 0.709477 0.547997 0.422194
O O1 0.391059 0.095716 0.250000
O O2 0.423327 0.077741 0.527890
O O3 0.362208 0.158670 0.457566
O O4 0.278319 0.084668 0.448448
O O5 0.124213 0.198238 0.250000
O O6 0.124836 0.252087 0.484250
O O7 0.122276 0.159756 0.511003
O O8 0.000000 0.205420 0.421359
O O9 0.000000 0.543578 0.750000
O O10 0.000000 0.500000 0.000000
O O11 0.402293 0.220051 0.250000
O O12 0.500000 0.195203 0.039116
O O13 0.114396 0.890064 0.250000
O O14 0.000000 0.894839 0.054000
O O15 0.131413 0.932024 0.995063
O O16 0.733557 0.500000 0.500000
O O17 0.693891 0.538614 0.250000
#
# Coordination Sequence:
#
# PCOD8260381 Si02
#       6
#    16  16   8  16  16  16
#     4  10  21  39  59  83 116 154 196 240 289 340
#     4   9  17  30  52  84 119 149 185 233 282 335
#     4  12  24  36  56  82 112 152 200 248 291 338
#     4   9  16  30  54  81 114 154 192 232 279 332
#     4  10  21  39  63  88 114 147 189 234 287 350
#     4  11  24  41  62  85 114 150 189 238 295 348
#
# _framework density 19.821158
#
# number of rings (size 3 to 8) (size 9 to 14) (size 15 to 20)
#    0.000    2.000    0.909    3.000    0.000    7.273 
#    0.000    0.909    0.000    0.000    0.000    0.000 
#    0.000    0.000    0.000    0.000    0.000    0.000 
#
# Total GULP energy -545774.605689 kJ/mol
# GULP energy per Si atom -12403.968311 kJ/mol
# Density = 1.977604 g / cm^3
# Si number density = 19.821158 Si / 1000 Ang^3
#
#
#
# Elastic Constant Matrix: (Units=GPa)
#
#
# Indices 1 2 3 4 5 6 
#
# 1 50.5199 32.2991 42.1889 0.0000 0.0000 0.0000
# 2 32.2991 101.5683 51.3710 0.0000 0.0000 0.0000
# 3 42.1889 51.3710 135.8819 0.0000 0.0000 0.0000
# 4 0.0000 0.0000 0.0000 41.2615 0.0000 0.0000
# 5 0.0000 0.0000 0.0000 0.0000 20.6198 0.0000
# 6 0.0000 0.0000 0.0000 0.0000 0.0000 19.5459
#
#
#
# Elastic Compliance Matrix: (Units=1/GPa)
#
#
# Indices 1 2 3 4 5 6 
#
# 1 0.029268 -0.005825 -0.006885 0.000000 0.000000 0.000000
# 2 -0.005825 0.013333 -0.003232 0.000000 0.000000 0.000000
# 3 -0.006885 -0.003232 0.010719 0.000000 0.000000 0.000000
# 4 0.000000 0.000000 0.000000 0.024236 0.000000 0.000000
# 5 0.000000 0.000000 0.000000 0.000000 0.048497 0.000000
# 6 0.000000 0.000000 0.000000 0.000000 0.000000 0.051162
#
#
# Mechanical properties :
#
#
# Convention : Reuss Voigt Hill
#
# Bulk Modulus (GPa) = 46.65150 59.96536 53.30843
# Shear Modulus (GPa) = 23.12215 27.09284 25.10749
#
# Velocity S-wave (km/s) = 3.41917 3.70112 3.56294
# Velocity P-wave (km/s) = 6.25899 6.97017 6.62413
#
# Compressibility (1/GPa) = 0.02143554
#
# Stress axis : x y z
#
# Youngs Moduli (GPa) = 34.16701 75.00402 93.29362
#
# Poissons Ratio (x) = 0.43690 0.64233
# Poissons Ratio (y) = 0.19902 0.30152
# Poissons Ratio (z) = 0.23524 0.24241
#
# Static dielectric constant tensor:
#      x y z
#    x 3.280770 0.000000 0.000000 
#    y 0.000000 3.744830 0.000000 
#    z 0.000000 0.000000 3.716110 
# 
# 
# High freq. dielectric constant tensor:
#      x y z
#    x 1.745370 0.000000 0.000000 
#    y 0.000000 1.786410 0.000000 
#    z 0.000000 0.000000 1.778640 
# 
# From -- ./inp_files/6894.got.cif
#   From: 2010.03.12/outbox.cif.g09.slc.cpg/sg63_4_cif.got.tgz:6894.got - 2010.04.10 19:34:48.
