data_PCOD8260840
_publ_section_title
;
Structure prediction by ZEFSAII (Michael W. Deem and Ramdas Pophale) SiO2 
 PCOD8260840
Probable space group: C M C M
;
_chemical_formula_sum "Si O2"
_cell_formula_units_Z 96
_cell_length_a 8.770228
_cell_length_b 19.439745
_cell_length_c 27.513448
_cell_angle_alpha 90.000000
_cell_angle_beta 90.000000
_cell_angle_gamma 90.000000
_cell_volume 4690.795150
_symmetry_space_group_name_H-M "C M C M"
_symmetry_group_IT_number 63
_symmetry_cell_setting 'orthorhombic'
loop_
_space_group_symop_operation_xyz
x,y,z
-x,-y,1/2+z
x,-y,-z
-x,y,1/2-z
-x,-y,-z
x,y,1/2-z
-x,y,z
x,-y,1/2+z
1/2+x,1/2+y,z
1/2-x,1/2-y,1/2+z
1/2+x,1/2-y,-z
1/2-x,1/2+y,1/2-z
1/2-x,1/2-y,-z
1/2+x,1/2+y,1/2-z
1/2-x,1/2+y,z
1/2+x,1/2-y,1/2+z
loop_
_atom_site_type_symbol
_atom_site_label
_atom_site_fract_x
_atom_site_fract_y
_atom_site_fract_z
Si Si1 0.677243 0.021419 0.643770
Si Si2 0.675631 0.258530 0.639657
Si Si3 0.325183 0.645517 0.695185
Si Si4 0.324686 0.396962 0.805691
Si Si5 0.822319 0.046263 0.546578
Si Si6 0.320866 0.295196 0.457597
O O1 0.500000 0.039260 0.648304
O O2 0.713672 0.957722 0.678430
O O3 0.778708 0.085682 0.659106
O O4 0.724493 0.008235 0.588206
O O5 0.500000 0.247992 0.625773
O O6 0.720226 0.211210 0.685200
O O7 0.708817 0.335474 0.657137
O O8 0.776430 0.238586 0.593524
O O9 0.298359 0.620371 0.750000
O O10 0.500000 0.665511 0.685416
O O11 0.288058 0.375906 0.750000
O O12 0.500000 0.421105 0.810148
O O13 0.766276 0.125173 0.538806
O O14 0.000000 0.044861 0.560660
O O15 0.788990 0.000000 0.500000
O O16 0.500000 0.291944 0.463901
O O17 0.250000 0.250000 0.500000
#
# Coordination Sequence:
#
# PCOD8260840 Si02
#       6
#    16  16  16  16  16  16
#     4  12  25  40  63  95 129 164 208 264 316 370
#     4  11  23  41  66  95 128 165 211 263 318 378
#     4  11  23  40  64  92 125 167 210 256 314 378
#     4  10  23  43  65  90 126 172 215 256 310 375
#     4  10  23  44  68  92 123 167 213 256 313 381
#     4  11  24  42  66  95 129 167 210 260 318 378
#
# _framework density 20.465613000000001
#
# number of rings (size 3 to 8) (size 9 to 14) (size 15 to 20)
#    0.000    1.167    1.667    4.000    2.333    6.667 
#    0.000    0.000    0.000    0.000    0.000    0.000 
#    0.000    0.000    0.000    0.000    0.000    0.000 
#
# Total GULP energy -595408.463352 kJ/mol
# GULP energy per Si atom -12404.342987 kJ/mol
# Density = 2.041903 g / cm^3
# Si number density = 20.465613 Si / 1000 Ang^3
#
#
#
# Elastic Constant Matrix: (Units=GPa)
#
#
# Indices 1 2 3 4 5 6 
#
# 1 44.2063 34.5844 35.4509 0.0000 0.0000 0.0000
# 2 34.5844 86.7922 34.3569 0.0000 0.0000 0.0000
# 3 35.4509 34.3569 109.8084 0.0000 0.0000 0.0000
# 4 0.0000 0.0000 0.0000 40.0866 0.0000 0.0000
# 5 0.0000 0.0000 0.0000 0.0000 36.2432 0.0000
# 6 0.0000 0.0000 0.0000 0.0000 0.0000 34.5494
#
#
#
# Elastic Compliance Matrix: (Units=1/GPa)
#
#
# Indices 1 2 3 4 5 6 
#
# 1 0.039210 -0.012114 -0.008869 0.000000 0.000000 0.000000
# 2 -0.012114 0.016893 -0.001375 0.000000 0.000000 0.000000
# 3 -0.008869 -0.001375 0.012400 0.000000 0.000000 0.000000
# 4 0.000000 0.000000 0.000000 0.024946 0.000000 0.000000
# 5 0.000000 0.000000 0.000000 0.000000 0.027591 0.000000
# 6 0.000000 0.000000 0.000000 0.000000 0.000000 0.028944
#
#
# Mechanical properties :
#
#
# Convention : Reuss Voigt Hill
#
# Bulk Modulus (GPa) = 42.03548 49.95458 45.99503
# Shear Modulus (GPa) = 24.67568 31.27014 27.97291
#
# Velocity S-wave (km/s) = 3.47611 3.91312 3.70107
# Velocity P-wave (km/s) = 6.05766 6.69916 6.38647
#
# Compressibility (1/GPa) = 0.02378943
#
# Stress axis : x y z
#
# Youngs Moduli (GPa) = 25.50342 59.19654 80.64456
#
# Poissons Ratio (x) = 0.71708 0.71522
# Poissons Ratio (y) = 0.30894 0.11086
# Poissons Ratio (z) = 0.22618 0.08137
#
# Static dielectric constant tensor:
#      x y z
#    x 3.718510 0.000000 0.000000 
#    y 0.000000 3.852870 0.000000 
#    z 0.000000 0.000000 3.887160 
# 
# 
# High freq. dielectric constant tensor:
#      x y z
#    x 1.800010 0.000000 0.000000 
#    y 0.000000 1.804940 0.000000 
#    z 0.000000 0.000000 1.813820 
# 
# From -- ./inp_files/66881.got.cif
#   From: 2010.03.12/outbox.cif.g09.slc.cpg/sg63_34_cif.got.tgz:66881.got - 2010.04.10 19:34:48.
