data_PCOD8260946
_publ_section_title
;
Structure prediction by ZEFSAII (Michael W. Deem and Ramdas Pophale) SiO2 
 PCOD8260946
Probable space group: C M C M
;
_chemical_formula_sum "Si O2"
_cell_formula_units_Z 112
_cell_length_a 17.490190
_cell_length_b 14.904682
_cell_length_c 24.920847
_cell_angle_alpha 90.000000
_cell_angle_beta 90.000000
_cell_angle_gamma 90.000000
_cell_volume 6496.508945
_symmetry_space_group_name_H-M "C M C M"
_symmetry_group_IT_number 63
_symmetry_cell_setting 'orthorhombic'
loop_
_space_group_symop_operation_xyz
x,y,z
-x,-y,1/2+z
x,-y,-z
-x,y,1/2-z
-x,-y,-z
x,y,1/2-z
-x,y,z
x,-y,1/2+z
1/2+x,1/2+y,z
1/2-x,1/2-y,1/2+z
1/2+x,1/2-y,-z
1/2-x,1/2+y,1/2-z
1/2-x,1/2-y,-z
1/2+x,1/2+y,1/2-z
1/2-x,1/2+y,z
1/2+x,1/2-y,1/2+z
loop_
_atom_site_type_symbol
_atom_site_label
_atom_site_fract_x
_atom_site_fract_y
_atom_site_fract_z
Si Si1 0.588331 0.765718 0.505583
Si Si2 0.737504 0.509703 0.563683
Si Si3 0.588417 0.888962 0.311498
Si Si4 0.911532 0.596073 0.188348
Si Si5 0.689630 0.168663 0.098148
Si Si6 0.081585 0.932132 0.451753
Si Si7 0.681744 0.815104 0.403927
O O1 0.500000 0.796156 0.503676
O O2 0.633785 0.829218 0.546815
O O3 0.599254 0.664709 0.524160
O O4 0.624383 0.772146 0.446747
O O5 0.733693 0.500000 0.500000
O O6 0.756655 0.417525 0.592850
O O7 0.652958 0.538812 0.585384
O O8 0.799046 0.584658 0.577607
O O9 0.609086 0.869085 0.250000
O O10 0.500000 0.868511 0.322878
O O11 0.639111 0.821859 0.347019
O O12 0.606136 0.992547 0.325435
O O13 0.891217 0.616354 0.250000
O O14 0.860661 0.661491 0.151873
O O15 0.000000 0.617502 0.176983
O O16 0.741802 0.256698 0.102017
O O17 0.000000 0.930429 0.419672
O O18 0.072291 0.000000 0.500000
#
# Coordination Sequence:
#
# PCOD8260946 Si02
#       7
#    16  16  16  16  16  16  16
#     4  11  22  35  51  79 111 141 178 213 257 320
#     4  11  20  34  51  74 112 143 171 214 260 311
#     4   9  19  37  58  78 103 138 177 215 262 320
#     4   9  19  37  58  78 103 137 176 217 264 319
#     4  12  22  34  54  82 109 138 175 219 266 308
#     4   9  18  33  51  69 101 150 187 208 242 303
#     4  12  21  34  53  81 110 138 173 216 268 309
#
# _framework density 17.240029
#
# number of rings (size 3 to 8) (size 9 to 14) (size 15 to 20)
#    0.000    1.571    4.286    3.857    0.000    0.571 
#    0.000    1.429    0.000    0.000    0.000    0.000 
#    0.000    3.429    0.000    0.000    0.000    0.000 
#
# Total GULP energy -694329.087556 kJ/mol
# GULP energy per Si atom -12398.733706 kJ/mol
# Density = 1.720079 g / cm^3
# Si number density = 17.240029 Si / 1000 Ang^3
#
#
#
# Elastic Constant Matrix: (Units=GPa)
#
#
# Indices 1 2 3 4 5 6 
#
# 1 115.3513 36.1424 57.1597 0.0000 0.0000 0.0000
# 2 36.1424 67.0090 24.8038 0.0000 0.0000 0.0000
# 3 57.1597 24.8038 93.4190 0.0000 0.0000 0.0000
# 4 0.0000 0.0000 0.0000 12.0306 0.0000 0.0000
# 5 0.0000 0.0000 0.0000 0.0000 31.7858 0.0000
# 6 0.0000 0.0000 0.0000 0.0000 0.0000 17.5308
#
#
#
# Elastic Compliance Matrix: (Units=1/GPa)
#
#
# Indices 1 2 3 4 5 6 
#
# 1 0.013679 -0.004747 -0.007110 0.000000 0.000000 0.000000
# 2 -0.004747 0.018197 -0.001927 0.000000 0.000000 0.000000
# 3 -0.007110 -0.001927 0.015566 0.000000 0.000000 0.000000
# 4 0.000000 0.000000 0.000000 0.083121 0.000000 0.000000
# 5 0.000000 0.000000 0.000000 0.000000 0.031461 0.000000
# 6 0.000000 0.000000 0.000000 0.000000 0.000000 0.057043
#
#
# Mechanical properties :
#
#
# Convention : Reuss Voigt Hill
#
# Bulk Modulus (GPa) = 50.31270 56.88790 53.60030
# Shear Modulus (GPa) = 19.74263 22.78100 21.26182
#
# Velocity S-wave (km/s) = 3.38770 3.63905 3.51562
# Velocity P-wave (km/s) = 6.67450 7.12223 6.90200
#
# Compressibility (1/GPa) = 0.01987570
#
# Stress axis : x y z
#
# Youngs Moduli (GPa) = 73.10257 54.95448 64.24124
#
# Poissons Ratio (x) = 0.26084 0.45673
# Poissons Ratio (y) = 0.34698 0.12381
# Poissons Ratio (z) = 0.51974 0.10591
#
# Static dielectric constant tensor:
#      x y z
#    x 3.687490 0.000000 0.000000 
#    y 0.000000 2.939030 0.000000 
#    z 0.000000 0.000000 2.926680 
# 
# 
# High freq. dielectric constant tensor:
#      x y z
#    x 1.682830 0.000000 0.000000 
#    y 0.000000 1.664230 0.000000 
#    z 0.000000 0.000000 1.636220 
# 
# From -- ./inp_files/69372.got.cif
#   From: 2010.03.12/outbox.cif.g09.slc.cpg/sg63_35_cif.got.tgz:69372.got - 2010.04.10 19:34:48.
