data_PCOD8260499
_publ_section_title
;
Structure prediction by ZEFSAII (Michael W. Deem and Ramdas Pophale) SiO2 
 PCOD8260499
Probable space group: C M C M
;
_chemical_formula_sum "Si O2"
_cell_formula_units_Z 96
_cell_length_a 14.051378
_cell_length_b 11.833824
_cell_length_c 29.797142
_cell_angle_alpha 90.000000
_cell_angle_beta 90.000000
_cell_angle_gamma 90.000000
_cell_volume 4954.714487
_symmetry_space_group_name_H-M "C M C M"
_symmetry_group_IT_number 63
_symmetry_cell_setting 'orthorhombic'
loop_
_space_group_symop_operation_xyz
x,y,z
-x,-y,1/2+z
x,-y,-z
-x,y,1/2-z
-x,-y,-z
x,y,1/2-z
-x,y,z
x,-y,1/2+z
1/2+x,1/2+y,z
1/2-x,1/2-y,1/2+z
1/2+x,1/2-y,-z
1/2-x,1/2+y,1/2-z
1/2-x,1/2-y,-z
1/2+x,1/2+y,1/2-z
1/2-x,1/2+y,z
1/2+x,1/2-y,1/2+z
loop_
_atom_site_type_symbol
_atom_site_label
_atom_site_fract_x
_atom_site_fract_y
_atom_site_fract_z
Si Si1 0.164814 0.859359 0.346995
Si Si2 0.500000 0.032546 0.696853
Si Si3 0.612986 0.134630 0.000608
Si Si4 0.000000 0.721907 0.304133
Si Si5 0.742260 0.261700 0.569741
Si Si6 0.343678 0.197210 0.698610
Si Si7 0.109309 0.109614 0.131479
O O1 0.213554 0.818442 0.392655
O O2 0.240942 0.858201 0.307043
O O3 0.089613 0.772472 0.328488
O O4 0.118789 0.980706 0.353817
O O5 0.500000 0.029605 0.750000
O O6 0.500000 0.906510 0.679139
O O7 0.410246 0.100210 0.677984
O O8 0.500000 0.168243 0.001370
O O9 0.668035 0.186270 0.043362
O O10 0.667798 0.185754 0.958016
O O11 0.623480 0.000000 0.000000
O O12 0.000000 0.738242 0.250000
O O13 0.679196 0.363866 0.589968
O O14 0.366501 0.223594 0.750000
O O15 0.359219 0.314566 0.673337
O O16 0.000000 0.133152 0.117783
#
# Coordination Sequence:
#
# PCOD8260499 Si02
#       7
#    16   8  16   8  16  16  16
#     4  11  24  40  59  89 124 162 204 257 305 371
#     4   9  20  39  59  81 114 154 207 254 304 361
#     4  10  21  41  66  93 121 156 200 250 298 370
#     4  11  24  41  59  87 124 167 210 256 309 362
#     4  10  23  40  62  91 125 160 199 245 313 369
#     4  10  22  39  59  84 115 161 210 257 312 359
#     4  11  22  40  61  88 124 160 206 256 303 365
#
# _framework density 19.375485000000001
#
# number of rings (size 3 to 8) (size 9 to 14) (size 15 to 20)
#    0.000    1.667    1.667    2.000    5.833    1.333 
#    0.000    0.000    0.000    5.500    0.000    0.000 
#    0.000    0.000    0.000    0.000    0.000    0.000 
#
# Total GULP energy -594989.409277 kJ/mol
# GULP energy per Si atom -12395.612693 kJ/mol
# Density = 1.933139 g / cm^3
# Si number density = 19.375485 Si / 1000 Ang^3
#
#
#
# Elastic Constant Matrix: (Units=GPa)
#
#
# Indices 1 2 3 4 5 6 
#
# 1 153.5941 41.6827 46.2786 0.0000 0.0000 0.0000
# 2 41.6827 105.7068 40.9142 0.0000 0.0000 0.0000
# 3 46.2786 40.9142 87.6360 0.0000 0.0000 0.0000
# 4 0.0000 0.0000 0.0000 24.0550 0.0000 0.0000
# 5 0.0000 0.0000 0.0000 0.0000 34.3817 0.0000
# 6 0.0000 0.0000 0.0000 0.0000 0.0000 51.3295
#
#
#
# Elastic Compliance Matrix: (Units=1/GPa)
#
#
# Indices 1 2 3 4 5 6 
#
# 1 0.008032 -0.001862 -0.003372 0.000000 0.000000 0.000000
# 2 -0.001862 0.011978 -0.004609 0.000000 0.000000 0.000000
# 3 -0.003372 -0.004609 0.015343 0.000000 0.000000 0.000000
# 4 0.000000 0.000000 0.000000 0.041571 0.000000 0.000000
# 5 0.000000 0.000000 0.000000 0.000000 0.029085 0.000000
# 6 0.000000 0.000000 0.000000 0.000000 0.000000 0.019482
#
#
# Mechanical properties :
#
#
# Convention : Reuss Voigt Hill
#
# Bulk Modulus (GPa) = 63.82710 67.18756 65.50733
# Shear Modulus (GPa) = 33.24440 36.49066 34.86753
#
# Velocity S-wave (km/s) = 4.14671 4.34446 4.24674
# Velocity P-wave (km/s) = 7.47935 7.74065 7.61112
#
# Compressibility (1/GPa) = 0.01566733
#
# Stress axis : x y z
#
# Youngs Moduli (GPa) = 124.50121 83.48447 65.17457
#
# Poissons Ratio (x) = 0.15545 0.21978
# Poissons Ratio (y) = 0.23182 0.30039
# Poissons Ratio (z) = 0.41985 0.38478
#
# Static dielectric constant tensor:
#      x y z
#    x 3.852000 0.000000 0.000000 
#    y 0.000000 3.573080 0.000000 
#    z 0.000000 0.000000 3.546390 
# 
# 
# High freq. dielectric constant tensor:
#      x y z
#    x 1.778200 0.000000 0.000000 
#    y 0.000000 1.761220 0.000000 
#    z 0.000000 0.000000 1.750420 
# 
# From -- ./inp_files/73331.got.cif
#   From: 2010.03.12/outbox.cif.g09.slc.cpg/sg63_37_cif.got.tgz:73331.got - 2010.04.10 19:34:48.
