data_PCOD8260197
_publ_section_title
;
Structure prediction by ZEFSAII (Michael W. Deem and Ramdas Pophale) SiO2 
 PCOD8260197
Probable space group: C M C M
;
_chemical_formula_sum "Si O2"
_cell_formula_units_Z 72
_cell_length_a 13.144839
_cell_length_b 31.650482
_cell_length_c 9.166820
_cell_angle_alpha 90.000000
_cell_angle_beta 90.000000
_cell_angle_gamma 90.000000
_cell_volume 3813.768286
_symmetry_space_group_name_H-M "C M C M"
_symmetry_group_IT_number 63
_symmetry_cell_setting 'orthorhombic'
loop_
_space_group_symop_operation_xyz
x,y,z
-x,-y,1/2+z
x,-y,-z
-x,y,1/2-z
-x,-y,-z
x,y,1/2-z
-x,y,z
x,-y,1/2+z
1/2+x,1/2+y,z
1/2-x,1/2-y,1/2+z
1/2+x,1/2-y,-z
1/2-x,1/2+y,1/2-z
1/2-x,1/2-y,-z
1/2+x,1/2+y,1/2-z
1/2-x,1/2+y,z
1/2+x,1/2-y,1/2+z
loop_
_atom_site_type_symbol
_atom_site_label
_atom_site_fract_x
_atom_site_fract_y
_atom_site_fract_z
Si Si1 0.280855 0.186045 0.581081
Si Si2 0.000000 0.454866 0.574806
Si Si3 0.816979 0.591275 0.920176
Si Si4 0.114219 0.956793 0.419850
Si Si5 0.887498 0.229220 0.421124
O O1 0.253601 0.189088 0.750000
O O2 0.329054 0.140819 0.544483
O O3 0.176838 0.192236 0.494295
O O4 0.356592 0.223307 0.531509
O O5 0.000000 0.500000 0.500000
O O6 0.898129 0.431469 0.522686
O O7 0.000000 0.458543 0.750000
O O8 0.841031 0.581786 0.750000
O O9 0.701478 0.577208 0.960101
O O10 0.117107 0.966985 0.250000
O O11 0.000000 0.940633 0.464436
O O12 0.141643 0.000000 0.500000
O O13 0.877512 0.224065 0.250000
O O14 0.000000 0.221990 0.478671
#
# Coordination Sequence:
#
# PCOD8260197 Si02
#       5
#    16   8  16  16  16
#     4   9  19  34  54  80 107 140 183 228 278 334
#     4  12  26  42  60  84 116 154 194 238 286 338
#     4  10  21  37  59  84 112 146 186 235 284 337
#     4   9  18  33  53  78 106 137 175 220 271 329
#     4   9  18  33  53  76 108 147 182 224 277 334
#
# _framework density 18.878965999999998
#
# number of rings (size 3 to 8) (size 9 to 14) (size 15 to 20)
#    0.000    2.444    0.000    1.667    1.556    4.889 
#    0.000    2.222    0.000    2.667    0.000    0.000 
#    0.000    0.000    0.000    0.000    0.000    0.000 
#
# Total GULP energy -446308.111985 kJ/mol
# GULP energy per Si atom -12397.447555 kJ/mol
# Density = 1.883600 g / cm^3
# Si number density = 18.878966 Si / 1000 Ang^3
#
#
#
# Elastic Constant Matrix: (Units=GPa)
#
#
# Indices 1 2 3 4 5 6 
#
# 1 120.3413 39.5114 52.4729 0.0000 0.0000 0.0000
# 2 39.5114 84.7685 41.2280 0.0000 0.0000 0.0000
# 3 52.4729 41.2280 60.6751 0.0000 0.0000 0.0000
# 4 0.0000 0.0000 0.0000 28.3419 0.0000 0.0000
# 5 0.0000 0.0000 0.0000 0.0000 31.9317 0.0000
# 6 0.0000 0.0000 0.0000 0.0000 0.0000 20.6939
#
#
#
# Elastic Compliance Matrix: (Units=1/GPa)
#
#
# Indices 1 2 3 4 5 6 
#
# 1 0.013387 -0.000910 -0.010959 0.000000 0.000000 0.000000
# 2 -0.000910 0.017682 -0.011228 0.000000 0.000000 0.000000
# 3 -0.010959 -0.011228 0.033588 0.000000 0.000000 0.000000
# 4 0.000000 0.000000 0.000000 0.035283 0.000000 0.000000
# 5 0.000000 0.000000 0.000000 0.000000 0.031317 0.000000
# 6 0.000000 0.000000 0.000000 0.000000 0.000000 0.048323
#
#
# Mechanical properties :
#
#
# Convention : Reuss Voigt Hill
#
# Bulk Modulus (GPa) = 54.16115 59.13440 56.64778
# Shear Modulus (GPa) = 21.55846 25.03168 23.29507
#
# Velocity S-wave (km/s) = 3.38291 3.64525 3.51653
# Velocity P-wave (km/s) = 6.63398 7.00771 6.82340
#
# Compressibility (1/GPa) = 0.01846342
#
# Stress axis : x y z
#
# Youngs Moduli (GPa) = 74.69967 56.55614 29.77259
#
# Poissons Ratio (x) = 0.05145 0.32628
# Poissons Ratio (y) = 0.06795 0.33428
# Poissons Ratio (z) = 0.81864 0.63499
#
# Static dielectric constant tensor:
#      x y z
#    x 3.562980 0.000000 0.000000 
#    y 0.000000 3.510490 0.000000 
#    z 0.000000 0.000000 3.375940 
# 
# 
# High freq. dielectric constant tensor:
#      x y z
#    x 1.743310 0.000000 0.000000 
#    y 0.000000 1.730730 0.000000 
#    z 0.000000 0.000000 1.723680 
# 
# From -- ./inp_files/4927.got.cif
#   From: 2010.03.12/outbox.cif.g09.slc.cpg/sg63_3_cif.got.tgz:4927.got - 2010.04.10 19:34:48.
