data_PCOD8260281
_publ_section_title
;
Structure prediction by ZEFSAII (Michael W. Deem and Ramdas Pophale) SiO2 
 PCOD8260281
Probable space group: C M C M
;
_chemical_formula_sum "Si O2"
_cell_formula_units_Z 64
_cell_length_a 8.550125
_cell_length_b 30.805746
_cell_length_c 12.257141
_cell_angle_alpha 90.000000
_cell_angle_beta 90.000000
_cell_angle_gamma 90.000000
_cell_volume 3228.444882
_symmetry_space_group_name_H-M "C M C M"
_symmetry_group_IT_number 63
_symmetry_cell_setting 'orthorhombic'
loop_
_space_group_symop_operation_xyz
x,y,z
-x,-y,1/2+z
x,-y,-z
-x,y,1/2-z
-x,-y,-z
x,y,1/2-z
-x,y,z
x,-y,1/2+z
1/2+x,1/2+y,z
1/2-x,1/2-y,1/2+z
1/2+x,1/2-y,-z
1/2-x,1/2+y,1/2-z
1/2-x,1/2-y,-z
1/2+x,1/2+y,1/2-z
1/2-x,1/2+y,z
1/2+x,1/2-y,1/2+z
loop_
_atom_site_type_symbol
_atom_site_label
_atom_site_fract_x
_atom_site_fract_y
_atom_site_fract_z
Si Si1 0.675132 0.821711 0.250000
Si Si2 0.814231 0.373205 0.625611
Si Si3 0.816066 0.797045 0.022580
Si Si4 0.187001 0.548278 0.522207
Si Si5 0.673113 0.076513 0.750000
O O1 0.500000 0.801054 0.250000
O O2 0.771805 0.807944 0.145417
O O3 0.658478 0.872599 0.250000
O O4 0.752044 0.372632 0.750000
O O5 0.754399 0.331138 0.562523
O O6 0.751918 0.417408 0.568031
O O7 0.000000 0.371967 0.622817
O O8 0.000000 0.797210 0.008135
O O9 0.750000 0.750000 0.000000
O O10 0.249326 0.500000 0.500000
O O11 0.259673 0.561090 0.639968
O O12 0.000000 0.550177 0.524330
O O13 0.500000 0.055422 0.750000
#
# Coordination Sequence:
#
# PCOD8260281 Si02
#       5
#     8  16  16  16   8
#     4  11  21  41  67  92 123 156 199 256 311 362
#     4  10  21  38  59  87 124 162 203 256 310 361
#     4  12  26  43  64  90 121 161 206 252 307 366
#     4   9  17  29  51  86 122 157 200 252 307 359
#     4   9  16  29  53  82 117 156 193 246 307 356
#
# _framework density 19.823785999999998
#
# number of rings (size 3 to 8) (size 9 to 14) (size 15 to 20)
#    0.000    1.750    2.500    2.625    3.500    0.500 
#    0.000    0.000    0.000    0.750    0.000    0.000 
#    0.000    0.000    0.000    0.000    0.000    0.000 
#
# Total GULP energy -396716.483858 kJ/mol
# GULP energy per Si atom -12397.390121 kJ/mol
# Density = 1.977867 g / cm^3
# Si number density = 19.823786 Si / 1000 Ang^3
#
#
#
# Elastic Constant Matrix: (Units=GPa)
#
#
# Indices 1 2 3 4 5 6 
#
# 1 18.5295 14.9885 20.1517 0.0000 0.0000 0.0000
# 2 14.9885 166.3219 91.9276 0.0000 0.0000 0.0000
# 3 20.1517 91.9276 210.0530 0.0000 0.0000 0.0000
# 4 0.0000 0.0000 0.0000 30.4220 0.0000 0.0000
# 5 0.0000 0.0000 0.0000 0.0000 32.9412 0.0000
# 6 0.0000 0.0000 0.0000 0.0000 0.0000 19.2858
#
#
#
# Elastic Compliance Matrix: (Units=1/GPa)
#
#
# Indices 1 2 3 4 5 6 
#
# 1 0.061371 -0.003003 -0.004574 0.000000 0.000000 0.000000
# 2 -0.003003 0.008078 -0.003247 0.000000 0.000000 0.000000
# 3 -0.004574 -0.003247 0.006621 0.000000 0.000000 0.000000
# 4 0.000000 0.000000 0.000000 0.032871 0.000000 0.000000
# 5 0.000000 0.000000 0.000000 0.000000 0.030357 0.000000
# 6 0.000000 0.000000 0.000000 0.000000 0.000000 0.051852
#
#
# Mechanical properties :
#
#
# Convention : Reuss Voigt Hill
#
# Bulk Modulus (GPa) = 18.37476 72.11556 45.24516
# Shear Modulus (GPa) = 21.65096 34.38556 28.01826
#
# Velocity S-wave (km/s) = 3.30839 4.16932 3.76355
# Velocity P-wave (km/s) = 4.88703 7.72237 6.46212
#
# Compressibility (1/GPa) = 0.05442247
#
# Stress axis : x y z
#
# Youngs Moduli (GPa) = 16.29434 123.79733 151.04546
#
# Poissons Ratio (x) = 0.37173 0.69082
# Poissons Ratio (y) = 0.04893 0.49045
# Poissons Ratio (z) = 0.07452 0.40198
#
# Static dielectric constant tensor:
#      x y z
#    x 0.954070 0.000000 0.000000 
#    y 0.000000 3.693280 0.000000 
#    z 0.000000 0.000000 3.974770 
# 
# 
# High freq. dielectric constant tensor:
#      x y z
#    x 1.729720 0.000000 0.000000 
#    y 0.000000 1.784790 0.000000 
#    z 0.000000 0.000000 1.795840 
# 
# From -- ./inp_files/16203.got.cif
#   From: 2010.03.12/outbox.cif.g09.slc.cpg/sg63_9_cif.got.tgz:16203.got - 2010.04.10 19:34:48.
