data_PCOD8260476
_publ_section_title
;
Structure prediction by ZEFSAII (Michael W. Deem and Ramdas Pophale) SiO2 
 PCOD8260476
Probable space group: C M C M
;
_chemical_formula_sum "Si O2"
_cell_formula_units_Z 96
_cell_length_a 19.204153
_cell_length_b 14.624580
_cell_length_c 15.867948
_cell_angle_alpha 90.000000
_cell_angle_beta 90.000000
_cell_angle_gamma 90.000000
_cell_volume 4456.555593
_symmetry_space_group_name_H-M "C M C M"
_symmetry_group_IT_number 63
_symmetry_cell_setting 'orthorhombic'
loop_
_space_group_symop_operation_xyz
x,y,z
-x,-y,1/2+z
x,-y,-z
-x,y,1/2-z
-x,-y,-z
x,y,1/2-z
-x,y,z
x,-y,1/2+z
1/2+x,1/2+y,z
1/2-x,1/2-y,1/2+z
1/2+x,1/2-y,-z
1/2-x,1/2+y,1/2-z
1/2-x,1/2-y,-z
1/2+x,1/2+y,1/2-z
1/2-x,1/2+y,z
1/2+x,1/2-y,1/2+z
loop_
_atom_site_type_symbol
_atom_site_label
_atom_site_fract_x
_atom_site_fract_y
_atom_site_fract_z
Si Si1 0.728235 0.857142 0.158372
Si Si2 0.579437 0.111198 0.601461
Si Si3 0.576611 0.761704 0.946676
Si Si4 0.237267 0.149340 0.342707
Si Si5 0.112808 0.421393 0.655513
Si Si6 0.326683 0.400749 0.014453
O O1 0.751858 0.898022 0.250000
O O2 0.643380 0.858437 0.161572
O O3 0.758781 0.755145 0.151614
O O4 0.760153 0.911970 0.077903
O O5 0.500000 0.138250 0.631163
O O6 0.598877 0.162826 0.515500
O O7 0.582953 0.000411 0.593713
O O8 0.500000 0.723925 0.963054
O O9 0.580563 0.821168 0.861503
O O10 0.622639 0.671292 0.941904
O O11 0.202944 0.130414 0.250000
O O12 0.303861 0.084198 0.354032
O O13 0.186468 0.133813 0.420237
O O14 0.091579 0.449309 0.750000
O O15 0.361130 0.500000 0.000000
#
# Coordination Sequence:
#
# PCOD8260476 Si02
#       6
#    16  16  16  16  16  16
#     4  11  22  40  66  94 127 167 211 259 316 381
#     4  11  23  39  62  92 130 169 203 248 316 389
#     4  11  24  42  61  87 125 167 212 264 318 376
#     4  10  21  40  65  93 124 163 210 262 317 373
#     4  11  22  38  62  94 128 162 204 254 316 388
#     4  12  24  41  67  92 121 167 218 269 317 368
#
# _framework density 21.541298999999999
#
# number of rings (size 3 to 8) (size 9 to 14) (size 15 to 20)
#    0.000    1.000    3.333    4.000    0.000    6.000 
#    0.000    0.000    0.000    0.500    0.000    2.333 
#    0.000    0.000    0.000    0.000    0.000    0.000 
#
# Total GULP energy -594662.999746 kJ/mol
# GULP energy per Si atom -12388.812495 kJ/mol
# Density = 2.149227 g / cm^3
# Si number density = 21.541299 Si / 1000 Ang^3
#
#
#
# Elastic Constant Matrix: (Units=GPa)
#
#
# Indices 1 2 3 4 5 6 
#
# 1 81.4110 39.0411 22.9846 0.0000 0.0000 0.0000
# 2 39.0411 114.0389 32.0259 0.0000 0.0000 0.0000
# 3 22.9846 32.0259 94.1353 0.0000 0.0000 0.0000
# 4 0.0000 0.0000 0.0000 15.2285 0.0000 0.0000
# 5 0.0000 0.0000 0.0000 0.0000 12.9557 0.0000
# 6 0.0000 0.0000 0.0000 0.0000 0.0000 28.8124
#
#
#
# Elastic Compliance Matrix: (Units=1/GPa)
#
#
# Indices 1 2 3 4 5 6 
#
# 1 0.015072 -0.004562 -0.002128 0.000000 0.000000 0.000000
# 2 -0.004562 0.011076 -0.002654 0.000000 0.000000 0.000000
# 3 -0.002128 -0.002654 0.012046 0.000000 0.000000 0.000000
# 4 0.000000 0.000000 0.000000 0.065666 0.000000 0.000000
# 5 0.000000 0.000000 0.000000 0.000000 0.077186 0.000000
# 6 0.000000 0.000000 0.000000 0.000000 0.000000 0.034707
#
#
# Mechanical properties :
#
#
# Convention : Reuss Voigt Hill
#
# Bulk Modulus (GPa) = 51.26943 53.07649 52.17296
# Shear Modulus (GPa) = 20.75169 24.43489 22.59329
#
# Velocity S-wave (km/s) = 3.10715 3.37163 3.24209
# Velocity P-wave (km/s) = 6.06009 6.31269 6.18768
#
# Compressibility (1/GPa) = 0.01950480
#
# Stress axis : x y z
#
# Youngs Moduli (GPa) = 66.34816 90.28322 83.01782
#
# Poissons Ratio (x) = 0.41190 0.17666
# Poissons Ratio (y) = 0.30270 0.22036
# Poissons Ratio (z) = 0.14118 0.23964
#
# Static dielectric constant tensor:
#      x y z
#    x 3.693640 0.000000 0.000000 
#    y 0.000000 3.963840 0.000000 
#    z 0.000000 0.000000 4.045590 
# 
# 
# High freq. dielectric constant tensor:
#      x y z
#    x 1.817150 0.000000 0.000000 
#    y 0.000000 1.846740 0.000000 
#    z 0.000000 0.000000 1.852250 
# 
# From -- ./inp_files/35385.got.cif
#   From: 2010.03.12/outbox.cif.g09.slc.cpg/sg63_18_cif.got.tgz:35385.got - 2010.04.10 19:34:48.
