data_PCOD8260799
_publ_section_title
;
Structure prediction by ZEFSAII (Michael W. Deem and Ramdas Pophale) SiO2 
 PCOD8260799
Probable space group: C M C M
;
_chemical_formula_sum "Si O2"
_cell_formula_units_Z 88
_cell_length_a 21.236788
_cell_length_b 21.525072
_cell_length_c 9.423672
_cell_angle_alpha 90.000000
_cell_angle_beta 90.000000
_cell_angle_gamma 90.000000
_cell_volume 4307.780898
_symmetry_space_group_name_H-M "C M C M"
_symmetry_group_IT_number 63
_symmetry_cell_setting 'orthorhombic'
loop_
_space_group_symop_operation_xyz
x,y,z
-x,-y,1/2+z
x,-y,-z
-x,y,1/2-z
-x,-y,-z
x,y,1/2-z
-x,y,z
x,-y,1/2+z
1/2+x,1/2+y,z
1/2-x,1/2-y,1/2+z
1/2+x,1/2-y,-z
1/2-x,1/2+y,1/2-z
1/2-x,1/2-y,-z
1/2+x,1/2+y,1/2-z
1/2-x,1/2+y,z
1/2+x,1/2-y,1/2+z
loop_
_atom_site_type_symbol
_atom_site_label
_atom_site_fract_x
_atom_site_fract_y
_atom_site_fract_z
Si Si1 0.314362 0.752976 0.910138
Si Si2 0.073744 0.040944 0.750000
Si Si3 0.425322 0.398141 0.750000
Si Si4 0.500000 0.934595 0.417970
Si Si5 0.618355 0.851926 0.091196
Si Si6 0.141950 0.121091 0.525949
Si Si7 0.734448 0.942260 0.410638
O O1 0.299681 0.777027 0.750000
O O2 0.344545 0.685115 0.893861
O O3 0.250000 0.750000 0.000000
O O4 0.367429 0.795859 0.983599
O O5 0.097002 0.075358 0.611074
O O6 0.000000 0.043321 0.750000
O O7 0.096169 0.969844 0.750000
O O8 0.500000 0.388969 0.750000
O O9 0.393989 0.363343 0.618141
O O10 0.500000 0.948908 0.250000
O O11 0.439439 0.893999 0.463598
O O12 0.500000 0.000000 0.500000
O O13 0.603499 0.826175 0.250000
O O14 0.680158 0.892716 0.098079
O O15 0.207753 0.086021 0.501188
O O16 0.755754 0.960508 0.250000
O O17 0.708445 0.000000 0.500000
#
# Coordination Sequence:
#
# PCOD8260799 Si02
#       7
#    16   8   8   8  16  16  16
#     4  12  25  44  67  94 133 175 219 274 334 395
#     4  11  22  44  67  90 134 169 210 271 327 391
#     4  11  26  44  67  98 128 175 220 261 329 397
#     4  10  22  44  72 102 140 184 223 280 341 399
#     4  10  23  43  66  97 134 177 221 273 337 392
#     4  12  24  41  63  97 128 168 221 268 328 386
#     4  11  22  37  61  94 129 162 213 277 334 393
#
# _framework density 20.428149999999999
#
# number of rings (size 3 to 8) (size 9 to 14) (size 15 to 20)
#    0.000    0.909    3.636    3.273    3.818    2.909 
#    3.273    0.000    0.000    0.000    0.000    0.000 
#    0.000    0.000    0.000    0.000    0.000    0.000 
#
# Total GULP energy -545684.469246 kJ/mol
# GULP energy per Si atom -12401.919756 kJ/mol
# Density = 2.038165 g / cm^3
# Si number density = 20.428150 Si / 1000 Ang^3
#
#
#
# Elastic Constant Matrix: (Units=GPa)
#
#
# Indices 1 2 3 4 5 6 
#
# 1 85.4002 20.0913 35.8145 0.0000 0.0000 0.0000
# 2 20.0913 74.6714 17.9021 0.0000 0.0000 0.0000
# 3 35.8145 17.9021 110.9205 0.0000 0.0000 0.0000
# 4 0.0000 0.0000 0.0000 32.4585 0.0000 0.0000
# 5 0.0000 0.0000 0.0000 0.0000 -75.2595 0.0000
# 6 0.0000 0.0000 0.0000 0.0000 0.0000 40.7985
#
#
#
# Elastic Compliance Matrix: (Units=1/GPa)
#
#
# Indices 1 2 3 4 5 6 
#
# 1 0.014088 -0.002809 -0.004095 0.000000 0.000000 0.000000
# 2 -0.002809 0.014491 -0.001432 0.000000 0.000000 0.000000
# 3 -0.004095 -0.001432 0.010569 0.000000 0.000000 0.000000
# 4 0.000000 0.000000 0.000000 0.030809 0.000000 0.000000
# 5 0.000000 0.000000 0.000000 0.000000 -0.013287 0.000000
# 6 0.000000 0.000000 0.000000 0.000000 0.000000 0.024511
#
#
# Mechanical properties :
#
#
# Convention : Reuss Voigt Hill
#
# Bulk Modulus (GPa) = 44.49236 46.51196 45.50216
# Shear Modulus (GPa) = 47.46373 12.74513 30.10443
#
# Velocity S-wave (km/s) = 4.82544 2.50051 3.84301
# Velocity P-wave (km/s) = 7.27143 5.58164 6.48184
#
# Compressibility (1/GPa) = 0.02247577
#
# Stress axis : x y z
#
# Youngs Moduli (GPa) = 70.98317 69.00836 94.61700
#
# Poissons Ratio (x) = 0.19382 0.38750
# Poissons Ratio (y) = 0.19937 0.13548
# Poissons Ratio (z) = 0.29071 0.09881
#
# Static dielectric constant tensor:
#      x y z
#    x 3.900830 0.000000 0.000000 
#    y 0.000000 3.769930 0.000000 
#    z 0.000000 0.000000 3.946810 
# 
# 
# High freq. dielectric constant tensor:
#      x y z
#    x 1.804330 0.000000 0.000000 
#    y 0.000000 1.797210 0.000000 
#    z 0.000000 0.000000 1.802700 
# 
# From -- ./inp_files/10261.got.cif
#   From: 2010.03.12/outbox.cif.g09.slc.cpg/sg63_6_cif.got.tgz:10261.got - 2010.04.10 19:34:48.
