data_PCOD8260914
_publ_section_title
;
Structure prediction by ZEFSAII (Michael W. Deem and Ramdas Pophale) SiO2 
 PCOD8260914
Probable space group: C M C M
;
_chemical_formula_sum "Si O2"
_cell_formula_units_Z 96
_cell_length_a 11.876312
_cell_length_b 25.142421
_cell_length_c 18.335566
_cell_angle_alpha 90.000000
_cell_angle_beta 90.000000
_cell_angle_gamma 90.000000
_cell_volume 5474.986003
_symmetry_space_group_name_H-M "C M C M"
_symmetry_group_IT_number 63
_symmetry_cell_setting 'orthorhombic'
loop_
_space_group_symop_operation_xyz
x,y,z
-x,-y,1/2+z
x,-y,-z
-x,y,1/2-z
-x,-y,-z
x,y,1/2-z
-x,y,z
x,-y,1/2+z
1/2+x,1/2+y,z
1/2-x,1/2-y,1/2+z
1/2+x,1/2-y,-z
1/2-x,1/2+y,1/2-z
1/2-x,1/2-y,-z
1/2+x,1/2+y,1/2-z
1/2-x,1/2+y,z
1/2+x,1/2-y,1/2+z
loop_
_atom_site_type_symbol
_atom_site_label
_atom_site_fract_x
_atom_site_fract_y
_atom_site_fract_z
Si Si1 0.626737 0.500710 0.586732
Si Si2 0.000000 0.525282 0.919462
Si Si3 0.500000 0.920071 0.663558
Si Si4 0.868654 0.192356 0.333102
Si Si5 0.871286 0.686827 0.664973
Si Si6 0.718300 0.906713 0.078661
Si Si7 0.766619 0.398091 0.592614
O O1 0.626652 0.500000 0.500000
O O2 0.500000 0.495453 0.618030
O O3 0.677996 0.557942 0.609453
O O4 0.702762 0.452248 0.617490
O O5 0.892445 0.560264 0.905434
O O6 0.000000 0.481643 0.856564
O O7 0.000000 0.500000 0.000000
O O8 0.500000 0.911758 0.750000
O O9 0.389062 0.893436 0.628998
O O10 0.837796 0.178614 0.250000
O O11 0.833940 0.252825 0.351264
O O12 0.802925 0.153388 0.385636
O O13 0.000000 0.184321 0.347041
O O14 0.860909 0.674002 0.750000
O O15 0.786141 0.648846 0.621360
O O16 0.000000 0.677874 0.639138
O O17 0.725230 0.895267 0.993652
#
# Coordination Sequence:
#
# PCOD8260914 Si02
#       7
#    16   8   8  16  16  16  16
#     4   9  18  32  51  78 107 138 172 211 265 321
#     4  12  18  36  52  80 112 146 170 217 277 314
#     4  12  24  34  52  82 112 146 186 217 263 337
#     4   9  19  37  57  77 106 140 179 230 275 313
#     4   9  19  35  56  81 105 138 184 228 270 318
#     4  11  19  32  58  79 111 143 175 223 276 319
#     4  11  20  34  55  79 110 144 175 225 272 323
#
# _framework density 17.534291
#
# number of rings (size 3 to 8) (size 9 to 14) (size 15 to 20)
#    0.000    1.833    4.167    2.500    0.000    2.000 
#    0.000    0.000    1.833    2.500    0.000    0.000 
#    0.000    0.000    0.000    0.000    0.000    0.000 
#
# Total GULP energy -595159.377515 kJ/mol
# GULP energy per Si atom -12399.153698 kJ/mol
# Density = 1.749438 g / cm^3
# Si number density = 17.534291 Si / 1000 Ang^3
#
#
#
# Elastic Constant Matrix: (Units=GPa)
#
#
# Indices 1 2 3 4 5 6 
#
# 1 76.6250 45.3418 24.8168 0.0000 0.0000 0.0000
# 2 45.3418 115.2480 46.7740 0.0000 0.0000 0.0000
# 3 24.8168 46.7740 58.2190 0.0000 0.0000 0.0000
# 4 0.0000 0.0000 0.0000 14.1355 0.0000 0.0000
# 5 0.0000 0.0000 0.0000 0.0000 -6.2286 0.0000
# 6 0.0000 0.0000 0.0000 0.0000 0.0000 34.4359
#
#
#
# Elastic Compliance Matrix: (Units=1/GPa)
#
#
# Indices 1 2 3 4 5 6 
#
# 1 0.017320 -0.005665 -0.002832 0.000000 0.000000 0.000000
# 2 -0.005665 0.014728 -0.009418 0.000000 0.000000 0.000000
# 3 -0.002832 -0.009418 0.025950 0.000000 0.000000 0.000000
# 4 0.000000 0.000000 0.000000 0.070744 0.000000 0.000000
# 5 0.000000 0.000000 0.000000 0.000000 -0.160550 0.000000
# 6 0.000000 0.000000 0.000000 0.000000 0.000000 0.029039
#
#
# Mechanical properties :
#
#
# Convention : Reuss Voigt Hill
#
# Bulk Modulus (GPa) = 45.10806 53.77305 49.44055
# Shear Modulus (GPa) = 123.61092 17.34586 70.47839
#
# Velocity S-wave (km/s) = 8.40534 3.14865 6.34680
# Velocity P-wave (km/s) = 10.95359 6.62968 9.05356
#
# Compressibility (1/GPa) = 0.02216899
#
# Stress axis : x y z
#
# Youngs Moduli (GPa) = 57.73754 67.89800 38.53558
#
# Poissons Ratio (x) = 0.38463 0.10912
# Poissons Ratio (y) = 0.32708 0.36293
# Poissons Ratio (z) = 0.16349 0.63946
#
# Static dielectric constant tensor:
#      x y z
#    x 3.297410 0.000000 0.000000 
#    y 0.000000 3.338250 0.000000 
#    z 0.000000 0.000000 3.003140 
# 
# 
# High freq. dielectric constant tensor:
#      x y z
#    x 1.676170 0.000000 0.000000 
#    y 0.000000 1.681630 0.000000 
#    z 0.000000 0.000000 1.658370 
# 
# From -- ./inp_files/42532.got.cif
#   From: 2010.03.12/outbox.cif.g09.slc.cpg/sg63_22_cif.got.tgz:42532.got - 2010.04.10 19:34:48.
