data_PCOD8260337
_publ_section_title
;
Structure prediction by ZEFSAII (Michael W. Deem and Ramdas Pophale) SiO2 
 PCOD8260337
Probable space group: C M C M
;
_chemical_formula_sum "Si O2"
_cell_formula_units_Z 88
_cell_length_a 19.601179
_cell_length_b 8.538071
_cell_length_c 24.912203
_cell_angle_alpha 90.000000
_cell_angle_beta 90.000000
_cell_angle_gamma 90.000000
_cell_volume 4169.213072
_symmetry_space_group_name_H-M "C M C M"
_symmetry_group_IT_number 63
_symmetry_cell_setting 'orthorhombic'
loop_
_space_group_symop_operation_xyz
x,y,z
-x,-y,1/2+z
x,-y,-z
-x,y,1/2-z
-x,-y,-z
x,y,1/2-z
-x,y,z
x,-y,1/2+z
1/2+x,1/2+y,z
1/2-x,1/2-y,1/2+z
1/2+x,1/2-y,-z
1/2-x,1/2+y,1/2-z
1/2-x,1/2-y,-z
1/2+x,1/2+y,1/2-z
1/2-x,1/2+y,z
1/2+x,1/2-y,1/2+z
loop_
_atom_site_type_symbol
_atom_site_label
_atom_site_fract_x
_atom_site_fract_y
_atom_site_fract_z
Si Si1 0.924651 0.262728 0.924661
Si Si2 0.845281 0.500000 0.500000
Si Si3 0.684053 0.417147 0.250000
Si Si4 0.691932 0.809372 0.096335
Si Si5 0.166425 0.453615 0.750000
Si Si6 0.176846 0.965899 0.130568
Si Si7 0.924891 0.534804 0.652496
O O1 0.891543 0.371798 0.969988
O O2 0.878485 0.115735 0.907863
O O3 0.933771 0.363059 0.871262
O O4 0.000000 0.205425 0.944038
O O5 0.797073 0.605700 0.538677
O O6 0.762273 0.461378 0.250000
O O7 0.673862 0.231914 0.250000
O O8 0.652020 0.486093 0.193481
O O9 0.752959 0.867348 0.134871
O O10 0.695902 0.623152 0.098695
O O11 0.614272 0.849697 0.112378
O O12 0.123851 0.519547 0.798199
O O13 0.000000 0.604307 0.666289
#
# Coordination Sequence:
#
# PCOD8260337 Si02
#       7
#    16   8   8  16   8  16  16
#     4  10  22  42  66  94 128 170 217 268 329 389
#     4  10  23  44  68  96 127 170 220 278 333 398
#     4  12  24  38  65  95 131 168 219 260 320 384
#     4  11  24  41  65  94 132 170 221 273 332 386
#     4  12  21  38  63  93 122 174 213 266 321 386
#     4  12  24  42  65  96 132 173 215 278 323 395
#     4  10  21  38  61  91 127 167 215 264 319 387
#
# _framework density 21.107102000000001
#
# number of rings (size 3 to 8) (size 9 to 14) (size 15 to 20)
#    0.000    1.091    3.636    3.818    0.000    5.091 
#    0.000    1.364    0.000    0.000    0.000    0.000 
#    0.000    0.000    0.000    0.000    0.000    0.000 
#
# Total GULP energy -545174.649143 kJ/mol
# GULP energy per Si atom -12390.332935 kJ/mol
# Density = 2.105906 g / cm^3
# Si number density = 21.107102 Si / 1000 Ang^3
#
#
#
# Elastic Constant Matrix: (Units=GPa)
#
#
# Indices 1 2 3 4 5 6 
#
# 1 80.1586 37.7740 7.6097 0.0000 0.0000 0.0000
# 2 37.7740 116.1557 37.7882 0.0000 0.0000 0.0000
# 3 7.6097 37.7882 108.6885 0.0000 0.0000 0.0000
# 4 0.0000 0.0000 0.0000 592.0970 0.0000 0.0000
# 5 0.0000 0.0000 0.0000 0.0000 23.9041 0.0000
# 6 0.0000 0.0000 0.0000 0.0000 0.0000 32.1428
#
#
#
# Elastic Compliance Matrix: (Units=1/GPa)
#
#
# Indices 1 2 3 4 5 6 
#
# 1 0.014783 -0.005041 0.000718 0.000000 0.000000 0.000000
# 2 -0.005041 0.011426 -0.003620 0.000000 0.000000 0.000000
# 3 0.000718 -0.003620 0.010409 0.000000 0.000000 0.000000
# 4 0.000000 0.000000 0.000000 0.001689 0.000000 0.000000
# 5 0.000000 0.000000 0.000000 0.000000 0.041834 0.000000
# 6 0.000000 0.000000 0.000000 0.000000 0.000000 0.031111
#
#
# Mechanical properties :
#
#
# Convention : Reuss Voigt Hill
#
# Bulk Modulus (GPa) = 48.23520 52.37183 50.30352
# Shear Modulus (GPa) = 37.30027 144.41751 90.85889
#
# Velocity S-wave (km/s) = 4.20836 8.28069 6.56811
# Velocity P-wave (km/s) = 6.82026 10.78391 9.02243
#
# Compressibility (1/GPa) = 0.02073175
#
# Stress axis : x y z
#
# Youngs Moduli (GPa) = 67.64734 87.52031 96.07253
#
# Poissons Ratio (x) = 0.44117 -0.06894
# Poissons Ratio (y) = 0.34099 0.34774
# Poissons Ratio (z) = -0.04854 0.31679
#
# Static dielectric constant tensor:
#      x y z
#    x 3.985630 0.000000 0.000000 
#    y 0.000000 3.663750 0.000000 
#    z 0.000000 0.000000 4.038400 
# 
# 
# High freq. dielectric constant tensor:
#      x y z
#    x 1.824940 0.000000 0.000000 
#    y 0.000000 1.816600 0.000000 
#    z 0.000000 0.000000 1.835070 
# 
# From -- ./inp_files/73851.got.cif
#   From: 2010.03.12/outbox.cif.g09.slc.cpg/sg63_37_cif.got.tgz:73851.got - 2010.04.10 19:34:48.
