data_PCOD8260866
_publ_section_title
;
Structure prediction by ZEFSAII (Michael W. Deem and Ramdas Pophale) SiO2 
 PCOD8260866
Probable space group: C M C M
;
_chemical_formula_sum "Si O2"
_cell_formula_units_Z 88
_cell_length_a 10.847355
_cell_length_b 29.252302
_cell_length_c 14.967521
_cell_angle_alpha 90.000000
_cell_angle_beta 90.000000
_cell_angle_gamma 90.000000
_cell_volume 4749.345651
_symmetry_space_group_name_H-M "C M C M"
_symmetry_group_IT_number 63
_symmetry_cell_setting 'orthorhombic'
loop_
_space_group_symop_operation_xyz
x,y,z
-x,-y,1/2+z
x,-y,-z
-x,y,1/2-z
-x,-y,-z
x,y,1/2-z
-x,y,z
x,-y,1/2+z
1/2+x,1/2+y,z
1/2-x,1/2-y,1/2+z
1/2+x,1/2-y,-z
1/2-x,1/2+y,1/2-z
1/2-x,1/2-y,-z
1/2+x,1/2+y,1/2-z
1/2-x,1/2+y,z
1/2+x,1/2-y,1/2+z
loop_
_atom_site_type_symbol
_atom_site_label
_atom_site_fract_x
_atom_site_fract_y
_atom_site_fract_z
Si Si1 0.858576 0.635008 0.937499
Si Si2 0.643786 0.818262 0.250000
Si Si3 0.143610 0.742100 0.250000
Si Si4 0.747949 0.792029 0.568442
Si Si5 0.500000 0.678947 0.149559
Si Si6 0.000000 0.923697 0.897837
Si Si7 0.000000 0.977729 0.344704
Si Si8 0.789930 0.950962 0.027658
O O1 0.830326 0.651994 0.837741
O O2 0.000000 0.638629 0.960584
O O3 0.791495 0.663766 0.013594
O O4 0.819537 0.582261 0.943958
O O5 0.500000 0.800215 0.250000
O O6 0.748682 0.779800 0.250000
O O7 0.162555 0.714001 0.342771
O O8 0.000000 0.759890 0.250000
O O9 0.750000 0.750000 0.500000
O O10 0.886195 0.799526 0.598843
O O11 0.500000 0.697395 0.250000
O O12 0.500000 0.623988 0.153823
O O13 0.125656 0.926475 0.954091
O O14 0.000000 0.967333 0.833249
O O15 0.877116 0.960651 0.389786
O O16 0.000000 0.953691 0.250000
O O17 0.732346 0.000000 0.000000
#
# Coordination Sequence:
#
# PCOD8260866 Si02
#       8
#    16   8   8  16   8   8   8  16
#     4  11  23  41  63  88 124 166 204 255 310 367
#     4  10  24  42  64  91 126 163 211 254 313 377
#     4  12  26  44  62  93 124 159 213 264 307 369
#     4  12  26  41  63  88 123 164 204 254 312 366
#     4  12  24  39  66  91 117 160 211 253 299 378
#     4   9  17  37  58  86 119 149 197 249 305 358
#     4   9  18  32  57  86 123 152 185 253 318 356
#     4   9  19  36  58  87 119 154 199 248 300 373
#
# _framework density 18.528869
#
# number of rings (size 3 to 8) (size 9 to 14) (size 15 to 20)
#    0.000    1.455    4.545    1.909    5.091    0.364 
#    3.273    0.000    0.000    0.000    0.000    0.000 
#    0.000    0.000    0.000    0.000    0.000    0.000 
#
# Total GULP energy -545282.796875 kJ/mol
# GULP energy per Si atom -12392.790838 kJ/mol
# Density = 1.848670 g / cm^3
# Si number density = 18.528869 Si / 1000 Ang^3
#
#
#
# Elastic Constant Matrix: (Units=GPa)
#
#
# Indices 1 2 3 4 5 6 
#
# 1 111.1982 47.8095 50.2742 0.0000 0.0000 0.0000
# 2 47.8095 107.7573 50.0517 0.0000 0.0000 0.0000
# 3 50.2742 50.0517 143.8264 0.0000 0.0000 0.0000
# 4 0.0000 0.0000 0.0000 15.5420 0.0000 0.0000
# 5 0.0000 0.0000 0.0000 0.0000 16.7679 0.0000
# 6 0.0000 0.0000 0.0000 0.0000 0.0000 52.4171
#
#
#
# Elastic Compliance Matrix: (Units=1/GPa)
#
#
# Indices 1 2 3 4 5 6 
#
# 1 0.011983 -0.004021 -0.002789 0.000000 0.000000 0.000000
# 2 -0.004021 0.012419 -0.002916 0.000000 0.000000 0.000000
# 3 -0.002789 -0.002916 0.008943 0.000000 0.000000 0.000000
# 4 0.000000 0.000000 0.000000 0.064342 0.000000 0.000000
# 5 0.000000 0.000000 0.000000 0.000000 0.059638 0.000000
# 6 0.000000 0.000000 0.000000 0.000000 0.000000 0.019078
#
#
# Mechanical properties :
#
#
# Convention : Reuss Voigt Hill
#
# Bulk Modulus (GPa) = 71.98749 73.22810 72.60779
# Shear Modulus (GPa) = 24.93958 31.25518 28.09738
#
# Velocity S-wave (km/s) = 3.67275 4.11157 3.89834
# Velocity P-wave (km/s) = 7.54462 7.88333 7.71583
#
# Compressibility (1/GPa) = 0.01389130
#
# Stress axis : x y z
#
# Youngs Moduli (GPa) = 83.45289 80.52412 111.82370
#
# Poissons Ratio (x) = 0.32378 0.31191
# Poissons Ratio (y) = 0.33556 0.32610
# Poissons Ratio (z) = 0.23277 0.23482
#
# Static dielectric constant tensor:
#      x y z
#    x 3.337380 0.000000 0.000000 
#    y 0.000000 3.444290 0.000000 
#    z 0.000000 0.000000 3.694380 
# 
# 
# High freq. dielectric constant tensor:
#      x y z
#    x 1.714710 0.000000 0.000000 
#    y 0.000000 1.720220 0.000000 
#    z 0.000000 0.000000 1.733060 
# 
# From -- ./inp_files/30199.got.cif
#   From: 2010.03.12/outbox.cif.g09.slc.cpg/sg63_16_cif.got.tgz:30199.got - 2010.04.10 19:34:48.
