data_PCOD8260323
_publ_section_title
;
Structure prediction by ZEFSAII (Michael W. Deem and Ramdas Pophale) SiO2 
 PCOD8260323
Probable space group: C M C M
;
_chemical_formula_sum "Si O2"
_cell_formula_units_Z 96
_cell_length_a 9.009480
_cell_length_b 24.556933
_cell_length_c 21.501492
_cell_angle_alpha 90.000000
_cell_angle_beta 90.000000
_cell_angle_gamma 90.000000
_cell_volume 4757.101827
_symmetry_space_group_name_H-M "C M C M"
_symmetry_group_IT_number 63
_symmetry_cell_setting 'orthorhombic'
loop_
_space_group_symop_operation_xyz
x,y,z
-x,-y,1/2+z
x,-y,-z
-x,y,1/2-z
-x,-y,-z
x,y,1/2-z
-x,y,z
x,-y,1/2+z
1/2+x,1/2+y,z
1/2-x,1/2-y,1/2+z
1/2+x,1/2-y,-z
1/2-x,1/2+y,1/2-z
1/2-x,1/2-y,-z
1/2+x,1/2+y,1/2-z
1/2-x,1/2+y,z
1/2+x,1/2-y,1/2+z
loop_
_atom_site_type_symbol
_atom_site_label
_atom_site_fract_x
_atom_site_fract_y
_atom_site_fract_z
Si Si1 0.326854 0.506118 0.429779
Si Si2 0.831711 0.681394 0.656296
Si Si3 0.667539 0.194007 0.512109
Si Si4 0.833068 0.292094 0.819867
Si Si5 0.827162 0.870546 0.586773
Si Si6 0.173104 0.070954 0.680852
O O1 0.256729 0.500000 0.500000
O O2 0.500000 0.494032 0.436159
O O3 0.296291 0.565990 0.402773
O O4 0.261529 0.465874 0.376197
O O5 0.828246 0.677572 0.582832
O O6 0.741337 0.733290 0.679061
O O7 0.757940 0.627817 0.683737
O O8 0.000000 0.686082 0.680923
O O9 0.500000 0.199783 0.487292
O O10 0.750000 0.250000 0.500000
O O11 0.751411 0.145467 0.477732
O O12 0.836225 0.314020 0.750000
O O13 0.740119 0.335881 0.857696
O O14 0.000000 0.287656 0.846894
O O15 0.000000 0.856856 0.582454
O O16 0.194910 0.043747 0.750000
O O17 0.000000 0.082057 0.668838
#
# Coordination Sequence:
#
# PCOD8260323 Si02
#       6
#    16  16  16  16  16  16
#     4   9  19  37  61  88 118 155 200 249 301 361
#     4  11  23  38  59  88 120 155 197 246 301 359
#     4  11  22  36  57  86 120 156 194 239 296 359
#     4  11  24  40  58  82 116 159 200 240 294 358
#     4  11  22  37  61  91 119 152 195 244 300 355
#     4  10  21  38  61  88 118 157 205 254 307 367
#
# _framework density 20.180353
#
# number of rings (size 3 to 8) (size 9 to 14) (size 15 to 20)
#    0.000    1.500    1.667    3.500    0.000    7.667 
#    0.000    3.333    0.000    4.500    0.000    0.000 
#    0.000    0.000    0.000    0.000    0.000    0.000 
#
# Total GULP energy -595121.120943 kJ/mol
# GULP energy per Si atom -12398.356686 kJ/mol
# Density = 2.013442 g / cm^3
# Si number density = 20.180353 Si / 1000 Ang^3
#
#
#
# Elastic Constant Matrix: (Units=GPa)
#
#
# Indices 1 2 3 4 5 6 
#
# 1 115.3776 46.3035 34.8704 0.0000 0.0000 0.0000
# 2 46.3035 101.5985 51.1569 0.0000 0.0000 0.0000
# 3 34.8704 51.1569 126.9534 0.0000 0.0000 0.0000
# 4 0.0000 0.0000 0.0000 16.5724 0.0000 0.0000
# 5 0.0000 0.0000 0.0000 0.0000 25.6024 0.0000
# 6 0.0000 0.0000 0.0000 0.0000 0.0000 28.3134
#
#
#
# Elastic Compliance Matrix: (Units=1/GPa)
#
#
# Indices 1 2 3 4 5 6 
#
# 1 0.010758 -0.004284 -0.001228 0.000000 0.000000 0.000000
# 2 -0.004284 0.014054 -0.004487 0.000000 0.000000 0.000000
# 3 -0.001228 -0.004487 0.010022 0.000000 0.000000 0.000000
# 4 0.000000 0.000000 0.000000 0.060341 0.000000 0.000000
# 5 0.000000 0.000000 0.000000 0.000000 0.039059 0.000000
# 6 0.000000 0.000000 0.000000 0.000000 0.000000 0.035319
#
#
# Mechanical properties :
#
#
# Convention : Reuss Voigt Hill
#
# Bulk Modulus (GPa) = 67.40476 67.62122 67.51299
# Shear Modulus (GPa) = 25.70727 28.20421 26.95574
#
# Velocity S-wave (km/s) = 3.57301 3.74251 3.65874
# Velocity P-wave (km/s) = 7.10602 7.22886 7.16770
#
# Compressibility (1/GPa) = 0.01483575
#
# Stress axis : x y z
#
# Youngs Moduli (GPa) = 92.95518 71.15265 99.77848
#
# Poissons Ratio (x) = 0.30484 0.12257
# Poissons Ratio (y) = 0.39825 0.44766
# Poissons Ratio (z) = 0.11419 0.31923
#
# Static dielectric constant tensor:
#      x y z
#    x 3.727240 0.000000 0.000000 
#    y 0.000000 3.510050 0.000000 
#    z 0.000000 0.000000 3.992730 
# 
# 
# High freq. dielectric constant tensor:
#      x y z
#    x 1.778990 0.000000 0.000000 
#    y 0.000000 1.782590 0.000000 
#    z 0.000000 0.000000 1.810000 
# 
# From -- ./inp_files/59847.got.cif
#   From: 2010.03.12/outbox.cif.g09.slc.cpg/sg63_30_cif.got.tgz:59847.got - 2010.04.10 19:34:48.
