data_PCOD8260890
_publ_section_title
;
Structure prediction by ZEFSAII (Michael W. Deem and Ramdas Pophale) SiO2 
 PCOD8260890
Probable space group: C M C M
;
_chemical_formula_sum "Si O2"
_cell_formula_units_Z 96
_cell_length_a 11.313601
_cell_length_b 19.940025
_cell_length_c 22.560896
_cell_angle_alpha 90.000000
_cell_angle_beta 90.000000
_cell_angle_gamma 90.000000
_cell_volume 5089.591194
_symmetry_space_group_name_H-M "C M C M"
_symmetry_group_IT_number 63
_symmetry_cell_setting 'orthorhombic'
loop_
_space_group_symop_operation_xyz
x,y,z
-x,-y,1/2+z
x,-y,-z
-x,y,1/2-z
-x,-y,-z
x,y,1/2-z
-x,y,z
x,-y,1/2+z
1/2+x,1/2+y,z
1/2-x,1/2-y,1/2+z
1/2+x,1/2-y,-z
1/2-x,1/2+y,1/2-z
1/2-x,1/2-y,-z
1/2+x,1/2+y,1/2-z
1/2-x,1/2+y,z
1/2+x,1/2-y,1/2+z
loop_
_atom_site_type_symbol
_atom_site_label
_atom_site_fract_x
_atom_site_fract_y
_atom_site_fract_z
Si Si1 0.212802 0.000000 0.500000
Si Si2 0.259381 0.620218 0.180096
Si Si3 0.500000 0.595360 0.986594
Si Si4 0.265678 0.606885 0.681933
Si Si5 0.867298 0.245896 0.679628
Si Si6 0.000000 0.098160 0.113959
Si Si7 0.362041 0.998195 0.883428
Si Si8 0.000000 0.057479 0.634446
O O1 0.295158 0.015783 0.444292
O O2 0.128029 0.061492 0.512223
O O3 0.278287 0.622374 0.250000
O O4 0.192411 0.686231 0.156320
O O5 0.386693 0.619976 0.150194
O O6 0.180535 0.555960 0.164662
O O7 0.500000 0.616980 0.916930
O O8 0.500000 0.636356 0.048934
O O9 0.224640 0.605818 0.750000
O O10 0.288298 0.682541 0.659056
O O11 0.164972 0.572621 0.641831
O O12 0.386330 0.563823 0.676109
O O13 0.875230 0.245599 0.750000
O O14 0.000000 0.240227 0.653423
O O15 0.000000 0.016721 0.102958
O O16 0.500000 0.991045 0.894987
#
# Coordination Sequence:
#
# PCOD8260890 Si02
#       8
#     8  16   8  16  16   8  16   8
#     4  11  19  38  56  84 109 145 194 230 284 331
#     4  11  22  36  56  85 117 151 188 229 282 339
#     4  11  16  34  62  82 110 142 188 235 284 327
#     4  11  21  35  58  88 116 145 187 235 283 335
#     4   9  19  36  56  79 113 154 189 220 270 344
#     4  12  20  34  57  87 116 142 184 245 284 326
#     4  12  24  37  57  83 116 153 185 237 280 334
#     4  12  18  32  61  91 110 136 184 247 286 322
#
# _framework density 18.862024000000002
#
# number of rings (size 3 to 8) (size 9 to 14) (size 15 to 20)
#    0.000    1.000    7.500    1.750    0.000    2.667 
#    1.500    0.000    0.000    4.000    0.000    0.000 
#    0.000    0.000    0.000    0.000    0.000    0.000 
#
# Total GULP energy -594734.471238 kJ/mol
# GULP energy per Si atom -12390.301484 kJ/mol
# Density = 1.881909 g / cm^3
# Si number density = 18.862024 Si / 1000 Ang^3
#
#
#
# Elastic Constant Matrix: (Units=GPa)
#
#
# Indices 1 2 3 4 5 6 
#
# 1 118.3122 28.2147 13.5396 0.0000 0.0000 0.0000
# 2 28.2147 93.5711 13.0247 0.0000 0.0000 0.0000
# 3 13.5396 13.0247 54.9371 0.0000 0.0000 0.0000
# 4 0.0000 0.0000 0.0000 8.2985 0.0000 0.0000
# 5 0.0000 0.0000 0.0000 0.0000 21.5394 0.0000
# 6 0.0000 0.0000 0.0000 0.0000 0.0000 26.5072
#
#
#
# Elastic Compliance Matrix: (Units=1/GPa)
#
#
# Indices 1 2 3 4 5 6 
#
# 1 0.009254 -0.002557 -0.001674 0.000000 0.000000 0.000000
# 2 -0.002557 0.011758 -0.002158 0.000000 0.000000 0.000000
# 3 -0.001674 -0.002158 0.019127 0.000000 0.000000 0.000000
# 4 0.000000 0.000000 0.000000 0.120504 0.000000 0.000000
# 5 0.000000 0.000000 0.000000 0.000000 0.046427 0.000000
# 6 0.000000 0.000000 0.000000 0.000000 0.000000 0.037726
#
#
# Mechanical properties :
#
#
# Convention : Reuss Voigt Hill
#
# Bulk Modulus (GPa) = 36.54864 41.81980 39.18422
# Shear Modulus (GPa) = 18.74812 25.40511 22.07661
#
# Velocity S-wave (km/s) = 3.15614 3.67398 3.42486
# Velocity P-wave (km/s) = 5.71843 6.34170 6.03811
#
# Compressibility (1/GPa) = 0.02736080
#
# Stress axis : x y z
#
# Youngs Moduli (GPa) = 108.06537 85.04514 52.28266
#
# Poissons Ratio (x) = 0.21748 0.08754
# Poissons Ratio (y) = 0.27635 0.11280
# Poissons Ratio (z) = 0.18094 0.18349
#
# Static dielectric constant tensor:
#      x y z
#    x 3.514090 0.000000 0.000000 
#    y 0.000000 3.428290 0.000000 
#    z 0.000000 0.000000 3.585660 
# 
# 
# High freq. dielectric constant tensor:
#      x y z
#    x 1.737850 0.000000 0.000000 
#    y 0.000000 1.700540 0.000000 
#    z 0.000000 0.000000 1.734100 
# 
# From -- ./inp_files/52946.got.cif
#   From: 2010.03.12/outbox.cif.g09.slc.cpg/sg63_27_cif.got.tgz:52946.got - 2010.04.10 19:34:48.
