data_PCOD8260066
_publ_section_title
;
Structure prediction by ZEFSAII (Michael W. Deem and Ramdas Pophale) SiO2 
 PCOD8260066
Probable space group: C M C M
;
_chemical_formula_sum "Si O2"
_cell_formula_units_Z 104
_cell_length_a 26.753728
_cell_length_b 22.854508
_cell_length_c 9.000933
_cell_angle_alpha 90.000000
_cell_angle_beta 90.000000
_cell_angle_gamma 90.000000
_cell_volume 5503.560092
_symmetry_space_group_name_H-M "C M C M"
_symmetry_group_IT_number 63
_symmetry_cell_setting 'orthorhombic'
loop_
_space_group_symop_operation_xyz
x,y,z
-x,-y,1/2+z
x,-y,-z
-x,y,1/2-z
-x,-y,-z
x,y,1/2-z
-x,y,z
x,-y,1/2+z
1/2+x,1/2+y,z
1/2-x,1/2-y,1/2+z
1/2+x,1/2-y,-z
1/2-x,1/2+y,1/2-z
1/2-x,1/2-y,-z
1/2+x,1/2+y,1/2-z
1/2-x,1/2+y,z
1/2+x,1/2-y,1/2+z
loop_
_atom_site_type_symbol
_atom_site_label
_atom_site_fract_x
_atom_site_fract_y
_atom_site_fract_z
Si Si1 0.500000 0.637511 0.922724
Si Si2 0.500000 0.063691 0.572885
Si Si3 0.282319 0.671971 0.575571
Si Si4 0.180310 0.297310 0.575563
Si Si5 0.500000 0.248943 0.912943
Si Si6 0.814515 0.943252 0.916513
Si Si7 0.568307 0.555343 0.414602
Si Si8 0.916515 0.345774 0.081277
O O1 0.500000 0.624563 0.750000
O O2 0.500000 0.706375 0.951686
O O3 0.449542 0.612281 0.995884
O O4 0.500000 0.058430 0.750000
O O5 0.550434 0.098759 0.523154
O O6 0.500000 0.000000 0.500000
O O7 0.274153 0.666072 0.750000
O O8 0.228638 0.675507 0.500090
O O9 0.318396 0.727545 0.538952
O O10 0.307353 0.614294 0.512832
O O11 0.183642 0.308215 0.750000
O O12 0.131879 0.332055 0.517648
O O13 0.500000 0.279718 0.750000
O O14 0.450668 0.210842 0.927464
O O15 0.791281 0.938289 0.750000
O O16 0.873059 0.950460 0.904269
O O17 0.791190 0.000000 0.000000
O O18 0.545323 0.500000 0.500000
O O19 0.545346 0.557535 0.250000
O O20 0.898887 0.357511 0.250000
#
# Coordination Sequence:
#
# PCOD8260066 Si02
#       8
#     8   8  16  16   8  16  16  16
#     4  12  24  34  49  74 105 138 178 228 272 320
#     4   9  19  37  61  89 118 153 189 226 276 339
#     4  10  21  37  57  82 114 149 187 234 286 340
#     4  10  21  36  57  86 115 146 188 234 284 338
#     4   9  20  37  54  77 108 145 182 220 269 327
#     4  10  21  37  58  81 107 143 185 230 278 332
#     4  10  21  37  54  73 100 138 181 225 274 325
#     4   9  19  37  59  82 114 149 184 225 275 332
#
# _framework density 18.896858000000002
#
# number of rings (size 3 to 8) (size 9 to 14) (size 15 to 20)
#    0.000    2.154    0.000    3.692    2.154    4.923 
#    0.000    2.308    0.000    1.846    0.000    0.000 
#    0.000    0.000    0.000    0.000    0.000    0.000 
#
# Total GULP energy -644542.332747 kJ/mol
# GULP energy per Si atom -12395.044861 kJ/mol
# Density = 1.885385 g / cm^3
# Si number density = 18.896858 Si / 1000 Ang^3
#
#
#
# Elastic Constant Matrix: (Units=GPa)
#
#
# Indices 1 2 3 4 5 6 
#
# 1 79.2788 36.2687 45.2553 0.0000 0.0000 0.0000
# 2 36.2687 116.1748 51.1575 0.0000 0.0000 0.0000
# 3 45.2553 51.1575 122.2844 0.0000 0.0000 0.0000
# 4 0.0000 0.0000 0.0000 36.4422 0.0000 0.0000
# 5 0.0000 0.0000 0.0000 0.0000 17.0043 0.0000
# 6 0.0000 0.0000 0.0000 0.0000 0.0000 18.1355
#
#
#
# Elastic Compliance Matrix: (Units=1/GPa)
#
#
# Indices 1 2 3 4 5 6 
#
# 1 0.016847 -0.003082 -0.004945 0.000000 0.000000 0.000000
# 2 -0.003082 0.011115 -0.003510 0.000000 0.000000 0.000000
# 3 -0.004945 -0.003510 0.011476 0.000000 0.000000 0.000000
# 4 0.000000 0.000000 0.000000 0.027441 0.000000 0.000000
# 5 0.000000 0.000000 0.000000 0.000000 0.058809 0.000000
# 6 0.000000 0.000000 0.000000 0.000000 0.000000 0.055140
#
#
# Mechanical properties :
#
#
# Convention : Reuss Voigt Hill
#
# Bulk Modulus (GPa) = 61.10750 64.78902 62.94826
# Shear Modulus (GPa) = 23.88278 26.65350 25.26814
#
# Velocity S-wave (km/s) = 3.55892 3.75970 3.66069
# Velocity P-wave (km/s) = 7.02107 7.29432 7.15900
#
# Compressibility (1/GPa) = 0.01636460
#
# Stress axis : x y z
#
# Youngs Moduli (GPa) = 59.35942 89.96682 87.13768
#
# Poissons Ratio (x) = 0.27724 0.43093
# Poissons Ratio (y) = 0.18292 0.30582
# Poissons Ratio (z) = 0.29356 0.31574
#
# Static dielectric constant tensor:
#      x y z
#    x 3.420870 0.000000 0.000000 
#    y 0.000000 3.520500 0.000000 
#    z 0.000000 0.000000 3.718370 
# 
# 
# High freq. dielectric constant tensor:
#      x y z
#    x 1.724820 0.000000 0.000000 
#    y 0.000000 1.731250 0.000000 
#    z 0.000000 0.000000 1.745360 
# 
# From -- ./inp_files/12630.got.cif
#   From: 2010.03.12/outbox.cif.g09.slc.cpg/sg63_7_cif.got.tgz:12630.got - 2010.04.10 19:34:48.
