data_PCOD8260982
_publ_section_title
;
Structure prediction by ZEFSAII (Michael W. Deem and Ramdas Pophale) SiO2 
 PCOD8260982
Probable space group: C M C M
;
_chemical_formula_sum "Si O2"
_cell_formula_units_Z 96
_cell_length_a 9.021884
_cell_length_b 25.052411
_cell_length_c 23.422315
_cell_angle_alpha 90.000000
_cell_angle_beta 90.000000
_cell_angle_gamma 90.000000
_cell_volume 5293.910371
_symmetry_space_group_name_H-M "C M C M"
_symmetry_group_IT_number 63
_symmetry_cell_setting 'orthorhombic'
loop_
_space_group_symop_operation_xyz
x,y,z
-x,-y,1/2+z
x,-y,-z
-x,y,1/2-z
-x,-y,-z
x,y,1/2-z
-x,y,z
x,-y,1/2+z
1/2+x,1/2+y,z
1/2-x,1/2-y,1/2+z
1/2+x,1/2-y,-z
1/2-x,1/2+y,1/2-z
1/2-x,1/2-y,-z
1/2+x,1/2+y,1/2-z
1/2-x,1/2+y,z
1/2+x,1/2-y,1/2+z
loop_
_atom_site_type_symbol
_atom_site_label
_atom_site_fract_x
_atom_site_fract_y
_atom_site_fract_z
Si Si1 0.670434 0.500144 0.316466
Si Si2 0.660406 0.440582 0.491959
Si Si3 0.670420 0.196514 0.063498
Si Si4 0.826165 0.696836 0.933861
Si Si5 0.171911 0.585083 0.395166
Si Si6 0.675219 0.087917 0.618322
O O1 0.685477 0.512149 0.250000
O O2 0.500000 0.495898 0.336015
O O3 0.742604 0.551094 0.347835
O O4 0.749334 0.443088 0.328721
O O5 0.609846 0.500000 0.500000
O O6 0.500000 0.409034 0.487205
O O7 0.763942 0.422245 0.542574
O O8 0.763356 0.441363 0.436793
O O9 0.500000 0.212315 0.058210
O O10 0.755316 0.248061 0.087257
O O11 0.691819 0.149450 0.110559
O O12 0.726897 0.181534 0.998664
O O13 0.779677 0.650336 0.888851
O O14 0.000000 0.704171 0.932528
O O15 0.000000 0.568323 0.392961
O O16 0.500000 0.080774 0.623205
#
# Coordination Sequence:
#
# PCOD8260982 Si02
#       6
#    16  16  16  16  16  16
#     4  11  25  42  57  78 107 139 181 229 276 327
#     4  11  21  31  48  79 113 144 179 213 266 328
#     4   9  18  32  49  77 113 146 178 213 259 314
#     4   9  18  32  49  77 113 146 178 213 259 314
#     4  11  21  35  56  80 110 143 181 224 267 320
#     4  11  21  35  56  80 110 143 181 224 267 320
#
# _framework density 18.134042999999998
#
# number of rings (size 3 to 8) (size 9 to 14) (size 15 to 20)
#    0.000    1.667    3.333    2.000    0.000    4.667 
#    0.000    0.000    0.000    1.000    0.000    0.000 
#    0.000    0.000    0.000    0.000    0.000    0.000 
#
# Total GULP energy -594694.239964 kJ/mol
# GULP energy per Si atom -12389.463333 kJ/mol
# Density = 1.809277 g / cm^3
# Si number density = 18.134043 Si / 1000 Ang^3
#
#
#
# Elastic Constant Matrix: (Units=GPa)
#
#
# Indices 1 2 3 4 5 6 
#
# 1 95.8521 46.1684 26.5533 0.0000 0.0000 0.0000
# 2 46.1684 109.8769 19.6023 0.0000 0.0000 0.0000
# 3 26.5533 19.6023 43.5185 0.0000 0.0000 0.0000
# 4 0.0000 0.0000 0.0000 12.1793 0.0000 0.0000
# 5 0.0000 0.0000 0.0000 0.0000 26.4744 0.0000
# 6 0.0000 0.0000 0.0000 0.0000 0.0000 32.9070
#
#
#
# Elastic Compliance Matrix: (Units=1/GPa)
#
#
# Indices 1 2 3 4 5 6 
#
# 1 0.014691 -0.004973 -0.006724 0.000000 0.000000 0.000000
# 2 -0.004973 0.011580 -0.002182 0.000000 0.000000 0.000000
# 3 -0.006724 -0.002182 0.028064 0.000000 0.000000 0.000000
# 4 0.000000 0.000000 0.000000 0.082107 0.000000 0.000000
# 5 0.000000 0.000000 0.000000 0.000000 0.037772 0.000000
# 6 0.000000 0.000000 0.000000 0.000000 0.000000 0.030389
#
#
# Mechanical properties :
#
#
# Convention : Reuss Voigt Hill
#
# Bulk Modulus (GPa) = 37.62543 48.21061 42.91802
# Shear Modulus (GPa) = 20.72810 24.77370 22.75090
#
# Velocity S-wave (km/s) = 3.38457 3.70015 3.54587
# Velocity P-wave (km/s) = 6.00560 6.70061 6.36261
#
# Compressibility (1/GPa) = 0.02657777
#
# Stress axis : x y z
#
# Youngs Moduli (GPa) = 68.06985 86.35590 35.63302
#
# Poissons Ratio (x) = 0.42947 0.23958
# Poissons Ratio (y) = 0.33853 0.07773
# Poissons Ratio (z) = 0.45767 0.18839
#
# Static dielectric constant tensor:
#      x y z
#    x 3.487500 0.000000 0.000000 
#    y 0.000000 3.598200 0.000000 
#    z 0.000000 0.000000 2.952490 
# 
# 
# High freq. dielectric constant tensor:
#      x y z
#    x 1.721830 0.000000 0.000000 
#    y 0.000000 1.710490 0.000000 
#    z 0.000000 0.000000 1.652830 
# 
# From -- ./inp_files/51376.got.cif
#   From: 2010.03.12/outbox.cif.g09.slc.cpg/sg63_26_cif.got.tgz:51376.got - 2010.04.10 19:34:48.
