data_PCOD8260652
_publ_section_title
;
Structure prediction by ZEFSAII (Michael W. Deem and Ramdas Pophale) SiO2 
 PCOD8260652
Probable space group: C M C M
;
_chemical_formula_sum "Si O2"
_cell_formula_units_Z 96
_cell_length_a 8.829250
_cell_length_b 20.229491
_cell_length_c 26.235243
_cell_angle_alpha 90.000000
_cell_angle_beta 90.000000
_cell_angle_gamma 90.000000
_cell_volume 4685.909111
_symmetry_space_group_name_H-M "C M C M"
_symmetry_group_IT_number 63
_symmetry_cell_setting 'orthorhombic'
loop_
_space_group_symop_operation_xyz
x,y,z
-x,-y,1/2+z
x,-y,-z
-x,y,1/2-z
-x,-y,-z
x,y,1/2-z
-x,y,z
x,-y,1/2+z
1/2+x,1/2+y,z
1/2-x,1/2-y,1/2+z
1/2+x,1/2-y,-z
1/2-x,1/2+y,1/2-z
1/2-x,1/2-y,-z
1/2+x,1/2+y,1/2-z
1/2-x,1/2+y,z
1/2+x,1/2-y,1/2+z
loop_
_atom_site_type_symbol
_atom_site_label
_atom_site_fract_x
_atom_site_fract_y
_atom_site_fract_z
Si Si1 0.822690 0.313815 0.975631
Si Si2 0.823897 0.830374 0.632860
Si Si3 0.325974 0.433804 0.029384
Si Si4 0.173437 0.552712 0.309048
Si Si5 0.175088 0.928440 0.147630
Si Si6 0.676292 0.802249 0.308813
O O1 0.769251 0.322682 0.918296
O O2 0.000000 0.303710 0.975961
O O3 0.750000 0.250000 0.000000
O O4 0.781727 0.376465 0.009737
O O5 0.779540 0.898609 0.659356
O O6 0.785116 0.770450 0.670635
O O7 0.000000 0.833067 0.618880
O O8 0.500000 0.414243 0.018606
O O9 0.296425 0.445326 0.088804
O O10 0.280604 0.500000 0.000000
O O11 0.191245 0.569785 0.250000
O O12 0.226501 0.477835 0.318213
O O13 0.000000 0.560494 0.326753
O O14 0.226613 0.853977 0.158914
O O15 0.000000 0.936199 0.162314
O O16 0.724983 0.805190 0.250000
O O17 0.500000 0.818806 0.315832
#
# Coordination Sequence:
#
# PCOD8260652 Si02
#       6
#    16  16  16  16  16  16
#     4  12  25  41  63  91 124 161 202 248 301 363
#     4  11  23  41  65  91 121 158 202 252 304 359
#     4  10  22  41  63  88 120 158 202 252 303 357
#     4  11  24  41  62  90 125 163 203 249 300 357
#     4  11  23  38  61  91 121 157 202 251 301 355
#     4  10  22  40  61  86 118 157 199 244 297 357
#
# _framework density 20.486953
#
# number of rings (size 3 to 8) (size 9 to 14) (size 15 to 20)
#    0.000    1.167    0.000    6.000    0.000   11.333 
#    0.000    0.000    0.000    0.000    0.000    0.000 
#    0.000    0.000    0.000    0.000    0.000    0.000 
#
# Total GULP energy -595610.885110 kJ/mol
# GULP energy per Si atom -12408.560106 kJ/mol
# Density = 2.044032 g / cm^3
# Si number density = 20.486953 Si / 1000 Ang^3
#
#
#
# Elastic Constant Matrix: (Units=GPa)
#
#
# Indices 1 2 3 4 5 6 
#
# 1 108.6708 48.9225 30.9845 0.0000 0.0000 0.0000
# 2 48.9225 104.8147 24.4623 0.0000 0.0000 0.0000
# 3 30.9845 24.4623 59.2073 0.0000 0.0000 0.0000
# 4 0.0000 0.0000 0.0000 43.2573 0.0000 0.0000
# 5 0.0000 0.0000 0.0000 0.0000 27.5310 0.0000
# 6 0.0000 0.0000 0.0000 0.0000 0.0000 37.5583
#
#
#
# Elastic Compliance Matrix: (Units=1/GPa)
#
#
# Indices 1 2 3 4 5 6 
#
# 1 0.012710 -0.004847 -0.004649 0.000000 0.000000 0.000000
# 2 -0.004847 0.012408 -0.002590 0.000000 0.000000 0.000000
# 3 -0.004649 -0.002590 0.020392 0.000000 0.000000 0.000000
# 4 0.000000 0.000000 0.000000 0.023117 0.000000 0.000000
# 5 0.000000 0.000000 0.000000 0.000000 0.036323 0.000000
# 6 0.000000 0.000000 0.000000 0.000000 0.000000 0.026625
#
#
# Mechanical properties :
#
#
# Convention : Reuss Voigt Hill
#
# Bulk Modulus (GPa) = 46.86327 53.49237 50.17782
# Shear Modulus (GPa) = 30.70137 32.89088 31.79613
#
# Velocity S-wave (km/s) = 3.87535 4.01116 3.94384
# Velocity P-wave (km/s) = 6.55353 6.90070 6.72936
#
# Compressibility (1/GPa) = 0.02133867
#
# Stress axis : x y z
#
# Youngs Moduli (GPa) = 78.67972 80.59603 49.03785
#
# Poissons Ratio (x) = 0.39068 0.22795
# Poissons Ratio (y) = 0.38139 0.12699
# Poissons Ratio (z) = 0.36574 0.20871
#
# Static dielectric constant tensor:
#      x y z
#    x 3.760720 0.000000 0.000000 
#    y 0.000000 1.654660 0.000000 
#    z 0.000000 0.000000 3.459500 
# 
# 
# High freq. dielectric constant tensor:
#      x y z
#    x 1.806310 0.000000 0.000000 
#    y 0.000000 1.815390 0.000000 
#    z 0.000000 0.000000 1.816040 
# 
# From -- ./inp_files/66925.got.cif
#   From: 2010.03.12/outbox.cif.g09.slc.cpg/sg63_34_cif.got.tgz:66925.got - 2010.04.10 19:34:48.
