data_PCOD8260135
_publ_section_title
;
Structure prediction by ZEFSAII (Michael W. Deem and Ramdas Pophale) SiO2 
 PCOD8260135
Probable space group: C M C M
;
_chemical_formula_sum "Si O2"
_cell_formula_units_Z 56
_cell_length_a 18.295650
_cell_length_b 16.638859
_cell_length_c 9.248776
_cell_angle_alpha 90.000000
_cell_angle_beta 90.000000
_cell_angle_gamma 90.000000
_cell_volume 2815.500743
_symmetry_space_group_name_H-M "C M C M"
_symmetry_group_IT_number 63
_symmetry_cell_setting 'orthorhombic'
loop_
_space_group_symop_operation_xyz
x,y,z
-x,-y,1/2+z
x,-y,-z
-x,y,1/2-z
-x,-y,-z
x,y,1/2-z
-x,y,z
x,-y,1/2+z
1/2+x,1/2+y,z
1/2-x,1/2-y,1/2+z
1/2+x,1/2-y,-z
1/2-x,1/2+y,1/2-z
1/2-x,1/2-y,-z
1/2+x,1/2+y,1/2-z
1/2-x,1/2+y,z
1/2+x,1/2-y,1/2+z
loop_
_atom_site_type_symbol
_atom_site_label
_atom_site_fract_x
_atom_site_fract_y
_atom_site_fract_z
Si Si1 0.500000 0.771037 0.922129
Si Si2 0.793736 0.147689 0.910406
Si Si3 0.500000 0.388310 0.904177
Si Si4 0.859106 0.711119 0.582296
Si Si5 0.376655 0.500000 0.500000
O O1 0.500000 0.777190 0.750000
O O2 0.500000 0.676383 0.966457
O O3 0.570835 0.815751 0.988263
O O4 0.806090 0.185255 0.750000
O O5 0.706845 0.148525 0.945161
O O6 0.823199 0.056908 0.907201
O O7 0.835777 0.200027 0.029438
O O8 0.500000 0.342030 0.750000
O O9 0.428577 0.444441 0.903182
O O10 0.880889 0.716473 0.750000
#
# Coordination Sequence:
#
# PCOD8260135 Si02
#       5
#     8  16   8  16   8
#     4  12  23  37  58  82 115 149 190 238 281 334
#     4  10  21  37  56  83 115 150 190 233 279 333
#     4  11  23  35  52  84 121 154 184 218 277 346
#     4  10  21  37  58  81 111 149 193 236 281 333
#     4  11  22  34  58  85 122 152 186 227 278 342
#
# _framework density 19.889890000000001
#
# number of rings (size 3 to 8) (size 9 to 14) (size 15 to 20)
#    0.000    1.429    2.857    3.000    0.000    4.571 
#    0.000    0.000    0.000    0.857    0.000    0.000 
#    0.000    0.000    0.000    0.000    0.000    0.000 
#
# Total GULP energy -347055.385352 kJ/mol
# GULP energy per Si atom -12394.835191 kJ/mol
# Density = 1.984462 g / cm^3
# Si number density = 19.889890 Si / 1000 Ang^3
#
#
#
# Elastic Constant Matrix: (Units=GPa)
#
#
# Indices 1 2 3 4 5 6 
#
# 1 161.8045 41.4793 59.5538 0.0000 0.0000 0.0000
# 2 41.4793 51.9011 8.9123 0.0000 0.0000 0.0000
# 3 59.5538 8.9123 140.5224 0.0000 0.0000 0.0000
# 4 0.0000 0.0000 0.0000 18.2352 0.0000 0.0000
# 5 0.0000 0.0000 0.0000 0.0000 24.2160 0.0000
# 6 0.0000 0.0000 0.0000 0.0000 0.0000 34.4389
#
#
#
# Elastic Compliance Matrix: (Units=1/GPa)
#
#
# Indices 1 2 3 4 5 6 
#
# 1 0.009185 -0.006745 -0.003465 0.000000 0.000000 0.000000
# 2 -0.006745 0.024434 0.001309 0.000000 0.000000 0.000000
# 3 -0.003465 0.001309 0.008502 0.000000 0.000000 0.000000
# 4 0.000000 0.000000 0.000000 0.054839 0.000000 0.000000
# 5 0.000000 0.000000 0.000000 0.000000 0.041295 0.000000
# 6 0.000000 0.000000 0.000000 0.000000 0.000000 0.029037
#
#
# Mechanical properties :
#
#
# Convention : Reuss Voigt Hill
#
# Bulk Modulus (GPa) = 41.12210 63.79097 52.45653
# Shear Modulus (GPa) = 25.88005 31.66353 28.77179
#
# Velocity S-wave (km/s) = 3.61108 3.99424 3.80748
# Velocity P-wave (km/s) = 6.17303 7.30846 6.76461
#
# Compressibility (1/GPa) = 0.02431782
#
# Stress axis : x y z
#
# Youngs Moduli (GPa) = 108.87610 40.92722 117.62455
#
# Poissons Ratio (x) = 0.27607 0.40753
# Poissons Ratio (y) = 0.73442 -0.15398
# Poissons Ratio (z) = 0.37722 -0.05358
#
# Static dielectric constant tensor:
#      x y z
#    x 4.087690 0.000000 0.000000 
#    y 0.000000 3.183750 0.000000 
#    z 0.000000 0.000000 3.552050 
# 
# 
# High freq. dielectric constant tensor:
#      x y z
#    x 1.798590 0.000000 0.000000 
#    y 0.000000 1.718730 0.000000 
#    z 0.000000 0.000000 1.782180 
# 
# From -- ./inp_files/5552.got.cif
#   From: 2010.03.12/outbox.cif.g09.slc.cpg/sg63_3_cif.got.tgz:5552.got - 2010.04.10 19:34:48.
