data_PCOD8260796
_publ_section_title
;
Structure prediction by ZEFSAII (Michael W. Deem and Ramdas Pophale) SiO2 
 PCOD8260796
Probable space group: C M C M
;
_chemical_formula_sum "Si O2"
_cell_formula_units_Z 52
_cell_length_a 10.427071
_cell_length_b 13.080022
_cell_length_c 18.747451
_cell_angle_alpha 90.000000
_cell_angle_beta 90.000000
_cell_angle_gamma 90.000000
_cell_volume 2556.895815
_symmetry_space_group_name_H-M "C M C M"
_symmetry_group_IT_number 63
_symmetry_cell_setting 'orthorhombic'
loop_
_space_group_symop_operation_xyz
x,y,z
-x,-y,1/2+z
x,-y,-z
-x,y,1/2-z
-x,-y,-z
x,y,1/2-z
-x,y,z
x,-y,1/2+z
1/2+x,1/2+y,z
1/2-x,1/2-y,1/2+z
1/2+x,1/2-y,-z
1/2-x,1/2+y,1/2-z
1/2-x,1/2-y,-z
1/2+x,1/2+y,1/2-z
1/2-x,1/2+y,z
1/2+x,1/2-y,1/2+z
loop_
_atom_site_type_symbol
_atom_site_label
_atom_site_fract_x
_atom_site_fract_y
_atom_site_fract_z
Si Si1 0.500000 0.116864 0.522112
Si Si2 0.500000 0.281254 0.401076
Si Si3 0.729765 0.145054 0.627512
Si Si4 0.147148 0.213807 0.250000
Si Si5 0.780718 0.982027 0.250000
Si Si6 0.500000 0.685461 0.750000
O O1 0.500000 0.184327 0.451322
O O2 0.626619 0.145373 0.565284
O O3 0.500000 0.000000 0.500000
O O4 0.370970 0.350618 0.410011
O O5 0.500000 0.241122 0.318836
O O6 0.712399 0.244462 0.678070
O O7 0.705625 0.041931 0.675794
O O8 0.157966 0.092142 0.250000
O O9 0.000000 0.247583 0.250000
O O10 0.880620 0.889338 0.250000
#
# Coordination Sequence:
#
# PCOD8260796 Si02
#       6
#     8   8  16   8   8   4
#     4  12  26  42  60  91 137 171 210 263 325 380
#     4  10  22  44  65  86 125 173 208 263 318 376
#     4  10  23  43  62  96 128 165 214 264 315 385
#     4  11  20  38  71  95 127 163 208 271 317 369
#     4   9  19  35  67  94 120 156 215 261 315 368
#     4   8  16  38  62  90 114 150 220 264 298 382
#
# _framework density 20.337160999999998
#
# number of rings (size 3 to 8) (size 9 to 14) (size 15 to 20)
#    0.000    1.846    2.308    1.846    4.308    0.000 
#    0.000    0.769    0.000    0.000    0.000    0.000 
#    0.000    0.000    0.000    0.000    0.000    0.000 
#
# Total GULP energy -322142.333994 kJ/mol
# GULP energy per Si atom -12390.089769 kJ/mol
# Density = 2.029087 g / cm^3
# Si number density = 20.337161 Si / 1000 Ang^3
#
#
#
# Elastic Constant Matrix: (Units=GPa)
#
#
# Indices 1 2 3 4 5 6 
#
# 1 147.6781 37.3346 50.4408 0.0000 0.0000 0.0000
# 2 37.3346 101.2181 56.0653 0.0000 0.0000 0.0000
# 3 50.4408 56.0653 132.2861 0.0000 0.0000 0.0000
# 4 0.0000 0.0000 0.0000 20.6095 0.0000 0.0000
# 5 0.0000 0.0000 0.0000 0.0000 19.7893 0.0000
# 6 0.0000 0.0000 0.0000 0.0000 0.0000 15.0288
#
#
#
# Elastic Compliance Matrix: (Units=1/GPa)
#
#
# Indices 1 2 3 4 5 6 
#
# 1 0.007990 -0.001646 -0.002349 0.000000 0.000000 0.000000
# 2 -0.001646 0.013250 -0.004988 0.000000 0.000000 0.000000
# 3 -0.002349 -0.004988 0.010569 0.000000 0.000000 0.000000
# 4 0.000000 0.000000 0.000000 0.048521 0.000000 0.000000
# 5 0.000000 0.000000 0.000000 0.000000 0.050532 0.000000
# 6 0.000000 0.000000 0.000000 0.000000 0.000000 0.066539
#
#
# Mechanical properties :
#
#
# Convention : Reuss Voigt Hill
#
# Bulk Modulus (GPa) = 72.23903 74.31818 73.27861
# Shear Modulus (GPa) = 22.72928 26.90831 24.81879
#
# Velocity S-wave (km/s) = 3.34671 3.64140 3.49716
# Velocity P-wave (km/s) = 7.10857 7.36900 7.23996
#
# Compressibility (1/GPa) = 0.01384293
#
# Stress axis : x y z
#
# Youngs Moduli (GPa) = 125.15771 75.47429 94.61690
#
# Poissons Ratio (x) = 0.12423 0.22225
# Poissons Ratio (y) = 0.20601 0.47193
# Poissons Ratio (z) = 0.29399 0.37645
#
# Static dielectric constant tensor:
#      x y z
#    x 4.338640 0.000000 0.000000 
#    y 0.000000 3.304830 0.000000 
#    z 0.000000 0.000000 4.012990 
# 
# 
# High freq. dielectric constant tensor:
#      x y z
#    x 1.816710 0.000000 0.000000 
#    y 0.000000 1.764530 0.000000 
#    z 0.000000 0.000000 1.798020 
# 
# From -- ./inp_files/41340.got.cif
#   From: 2010.03.12/outbox.cif.g09.slc.cpg/sg63_21_cif.got.tgz:41340.got - 2010.04.10 19:34:48.
