data_PCOD8260455
_publ_section_title
;
Structure prediction by ZEFSAII (Michael W. Deem and Ramdas Pophale) SiO2 
 PCOD8260455
Probable space group: C M C M
;
_chemical_formula_sum "Si O2"
_cell_formula_units_Z 96
_cell_length_a 14.423682
_cell_length_b 20.035332
_cell_length_c 16.792886
_cell_angle_alpha 90.000000
_cell_angle_beta 90.000000
_cell_angle_gamma 90.000000
_cell_volume 4852.862900
_symmetry_space_group_name_H-M "C M C M"
_symmetry_group_IT_number 63
_symmetry_cell_setting 'orthorhombic'
loop_
_space_group_symop_operation_xyz
x,y,z
-x,-y,1/2+z
x,-y,-z
-x,y,1/2-z
-x,-y,-z
x,y,1/2-z
-x,y,z
x,-y,1/2+z
1/2+x,1/2+y,z
1/2-x,1/2-y,1/2+z
1/2+x,1/2-y,-z
1/2-x,1/2+y,1/2-z
1/2-x,1/2-y,-z
1/2+x,1/2+y,1/2-z
1/2-x,1/2+y,z
1/2+x,1/2-y,1/2+z
loop_
_atom_site_type_symbol
_atom_site_label
_atom_site_fract_x
_atom_site_fract_y
_atom_site_fract_z
Si Si1 0.000000 0.658545 0.657018
Si Si2 0.192191 0.276083 0.158361
Si Si3 0.000000 0.907734 0.843214
Si Si4 0.304906 0.604814 0.592767
Si Si5 0.304676 0.981682 0.842068
Si Si6 0.500000 0.564502 0.843489
Si Si7 0.306721 0.636361 0.090958
Si Si8 0.500000 0.987166 0.407065
O O1 0.910466 0.700981 0.633168
O O2 0.000000 0.638750 0.750000
O O3 0.000000 0.591731 0.605792
O O4 0.193821 0.254446 0.250000
O O5 0.263845 0.335831 0.145395
O O6 0.221809 0.212882 0.105655
O O7 0.911959 0.874069 0.883073
O O8 0.000000 0.891701 0.750000
O O9 0.000000 0.986070 0.860558
O O10 0.250396 0.536543 0.607733
O O11 0.411733 0.597533 0.615508
O O12 0.292881 0.620734 0.500825
O O13 0.295209 0.001251 0.750000
O O14 0.411311 0.978702 0.867103
O O15 0.260390 0.909674 0.856638
O O16 0.500000 0.579502 0.750000
O O17 0.500000 0.000000 0.500000
#
# Coordination Sequence:
#
# PCOD8260455 Si02
#       8
#     8  16   8  16  16   8  16   8
#     4  10  21  39  68  95 123 165 220 270 313 370
#     4  11  23  42  66  92 128 170 215 262 319 385
#     4  11  22  39  66  95 128 166 208 261 322 376
#     4  12  24  41  64  94 129 171 212 263 316 377
#     4  12  24  42  67  94 129 170 213 257 315 387
#     4  11  23  39  63  94 127 169 216 253 308 388
#     4  12  25  41  64 100 132 162 209 272 329 369
#     4  12  24  41  65 100 127 160 212 271 320 369
#
# _framework density 19.782138
#
# number of rings (size 3 to 8) (size 9 to 14) (size 15 to 20)
#    0.000    0.500    3.333    6.750    0.000    1.333 
#    0.000    0.833    0.000    0.000    0.000    0.000 
#    0.000    0.000    0.000    0.000    0.000    0.000 
#
# Total GULP energy -595626.096456 kJ/mol
# GULP energy per Si atom -12408.877009 kJ/mol
# Density = 1.973711 g / cm^3
# Si number density = 19.782138 Si / 1000 Ang^3
#
#
#
# Elastic Constant Matrix: (Units=GPa)
#
#
# Indices 1 2 3 4 5 6 
#
# 1 130.1209 37.7171 12.6343 0.0000 0.0000 0.0000
# 2 37.7171 114.5273 24.3618 0.0000 0.0000 0.0000
# 3 12.6343 24.3618 87.5822 0.0000 0.0000 0.0000
# 4 0.0000 0.0000 0.0000 54.3332 0.0000 0.0000
# 5 0.0000 0.0000 0.0000 0.0000 32.0704 0.0000
# 6 0.0000 0.0000 0.0000 0.0000 0.0000 -137.0251
#
#
#
# Elastic Compliance Matrix: (Units=1/GPa)
#
#
# Indices 1 2 3 4 5 6 
#
# 1 0.008515 -0.002703 -0.000477 0.000000 0.000000 0.000000
# 2 -0.002703 0.010139 -0.002430 0.000000 0.000000 0.000000
# 3 -0.000477 -0.002430 0.012163 0.000000 0.000000 0.000000
# 4 0.000000 0.000000 0.000000 0.018405 0.000000 0.000000
# 5 0.000000 0.000000 0.000000 0.000000 0.031181 0.000000
# 6 0.000000 0.000000 0.000000 0.000000 0.000000 -0.007298
#
#
# Mechanical properties :
#
#
# Convention : Reuss Voigt Hill
#
# Bulk Modulus (GPa) = 51.02847 53.51741 52.27294
# Shear Modulus (GPa) = 55.03218 7.04351 31.03784
#
# Velocity S-wave (km/s) = 5.28011 1.88899 3.96534
# Velocity P-wave (km/s) = 7.93876 5.64534 6.88817
#
# Compressibility (1/GPa) = 0.01959690
#
# Stress axis : x y z
#
# Youngs Moduli (GPa) = 117.44154 98.63285 82.21937
#
# Poissons Ratio (x) = 0.26659 0.03918
# Poissons Ratio (y) = 0.31742 0.19981
# Poissons Ratio (z) = 0.05596 0.23970
#
# Static dielectric constant tensor:
#      x y z
#    x 3.815000 0.000000 0.000000 
#    y 0.000000 3.621380 0.000000 
#    z 0.000000 0.000000 3.684380 
# 
# 
# High freq. dielectric constant tensor:
#      x y z
#    x 1.782380 0.000000 0.000000 
#    y 0.000000 1.775210 0.000000 
#    z 0.000000 0.000000 1.782070 
# 
# From -- ./inp_files/32033.got.cif
#   From: 2010.03.12/outbox.cif.g09.slc.cpg/sg63_17_cif.got.tgz:32033.got - 2010.04.10 19:34:48.
