data_PCOD8260436
_publ_section_title
;
Structure prediction by ZEFSAII (Michael W. Deem and Ramdas Pophale) SiO2 
 PCOD8260436
Probable space group: C M C M
;
_chemical_formula_sum "Si O2"
_cell_formula_units_Z 64
_cell_length_a 15.495353
_cell_length_b 13.755343
_cell_length_c 13.821065
_cell_angle_alpha 90.000000
_cell_angle_beta 90.000000
_cell_angle_gamma 90.000000
_cell_volume 2945.875633
_symmetry_space_group_name_H-M "C M C M"
_symmetry_group_IT_number 63
_symmetry_cell_setting 'orthorhombic'
loop_
_space_group_symop_operation_xyz
x,y,z
-x,-y,1/2+z
x,-y,-z
-x,y,1/2-z
-x,-y,-z
x,y,1/2-z
-x,y,z
x,-y,1/2+z
1/2+x,1/2+y,z
1/2-x,1/2-y,1/2+z
1/2+x,1/2-y,-z
1/2-x,1/2+y,1/2-z
1/2-x,1/2-y,-z
1/2+x,1/2+y,1/2-z
1/2-x,1/2+y,z
1/2+x,1/2-y,1/2+z
loop_
_atom_site_type_symbol
_atom_site_label
_atom_site_fract_x
_atom_site_fract_y
_atom_site_fract_z
Si Si1 0.842218 0.697673 0.865114
Si Si2 0.500000 0.266062 0.135392
Si Si3 0.500000 0.111529 0.976306
Si Si4 0.097208 0.906353 0.635535
Si Si5 0.663685 0.609441 0.864400
O O1 0.850876 0.687538 0.750000
O O2 0.850344 0.810663 0.896634
O O3 0.751674 0.656006 0.904680
O O4 0.916698 0.635253 0.913179
O O5 0.500000 0.245296 0.250000
O O6 0.583741 0.325503 0.101325
O O7 0.500000 0.164814 0.079618
O O8 0.500000 0.000000 0.000000
O O9 0.090665 0.913741 0.750000
O O10 0.000000 0.901654 0.592831
O O11 0.148488 0.000284 0.594965
O O12 0.667597 0.607188 0.750000
#
# Coordination Sequence:
#
# PCOD8260436 Si02
#       5
#    16   8   8  16  16
#     4  10  21  39  64  93 126 165 208 256 313 373
#     4  10  22  42  63  88 123 163 208 262 319 369
#     4  12  27  42  59  86 126 169 211 260 309 375
#     4   9  15  30  60  91 121 159 208 258 298 358
#     4   9  18  35  64  96 126 162 207 259 314 371
#
# _framework density 21.725290000000001
#
# number of rings (size 3 to 8) (size 9 to 14) (size 15 to 20)
#    0.000    2.250    2.500    0.375    0.000    4.000 
#    0.000    7.500    0.000    0.000    0.000    0.000 
#    0.000    0.000    0.000    0.000    0.000    0.000 
#
# Total GULP energy -396802.626559 kJ/mol
# GULP energy per Si atom -12400.082080 kJ/mol
# Density = 2.167584 g / cm^3
# Si number density = 21.725290 Si / 1000 Ang^3
#
#
#
# Elastic Constant Matrix: (Units=GPa)
#
#
# Indices 1 2 3 4 5 6 
#
# 1 221.5058 119.4481 38.6203 0.0000 0.0000 0.0000
# 2 119.4481 235.3198 35.7866 0.0000 0.0000 0.0000
# 3 38.6203 35.7866 52.5373 0.0000 0.0000 0.0000
# 4 0.0000 0.0000 0.0000 11.8707 0.0000 0.0000
# 5 0.0000 0.0000 0.0000 0.0000 10.9216 0.0000
# 6 0.0000 0.0000 0.0000 0.0000 0.0000 44.9573
#
#
#
# Elastic Compliance Matrix: (Units=1/GPa)
#
#
# Indices 1 2 3 4 5 6 
#
# 1 0.006579 -0.002905 -0.002858 0.000000 0.000000 0.000000
# 2 -0.002905 0.006023 -0.001967 0.000000 0.000000 0.000000
# 3 -0.002858 -0.001967 0.022475 0.000000 0.000000 0.000000
# 4 0.000000 0.000000 0.000000 0.084241 0.000000 0.000000
# 5 0.000000 0.000000 0.000000 0.000000 0.091562 0.000000
# 6 0.000000 0.000000 0.000000 0.000000 0.000000 0.022243
#
#
# Mechanical properties :
#
#
# Convention : Reuss Voigt Hill
#
# Bulk Modulus (GPa) = 50.97530 99.67478 75.32504
# Shear Modulus (GPa) = 19.59839 34.58378 27.09108
#
# Velocity S-wave (km/s) = 3.00676 3.99415 3.53510
# Velocity P-wave (km/s) = 5.96394 8.20062 7.17004
#
# Compressibility (1/GPa) = 0.01961734
#
# Stress axis : x y z
#
# Youngs Moduli (GPa) = 151.98967 166.02051 44.49418
#
# Poissons Ratio (x) = 0.48231 0.12715
# Poissons Ratio (y) = 0.44155 0.08754
# Poissons Ratio (z) = 0.43434 0.32662
#
# Static dielectric constant tensor:
#      x y z
#    x 4.088390 0.000000 0.000000 
#    y 0.000000 4.114140 0.000000 
#    z 0.000000 0.000000 3.676490 
# 
# 
# High freq. dielectric constant tensor:
#      x y z
#    x 1.855470 0.000000 0.000000 
#    y 0.000000 1.854650 0.000000 
#    z 0.000000 0.000000 1.856210 
# 
# From -- ./inp_files/33381.got.cif
#   From: 2010.03.12/outbox.cif.g09.slc.cpg/sg63_17_cif.got.tgz:33381.got - 2010.04.10 19:34:48.
