data_PCOD8260692
_publ_section_title
;
Structure prediction by ZEFSAII (Michael W. Deem and Ramdas Pophale) SiO2 
 PCOD8260692
Probable space group: C M C M
;
_chemical_formula_sum "Si O2"
_cell_formula_units_Z 72
_cell_length_a 12.682147
_cell_length_b 24.045206
_cell_length_c 12.016574
_cell_angle_alpha 90.000000
_cell_angle_beta 90.000000
_cell_angle_gamma 90.000000
_cell_volume 3664.392201
_symmetry_space_group_name_H-M "C M C M"
_symmetry_group_IT_number 63
_symmetry_cell_setting 'orthorhombic'
loop_
_space_group_symop_operation_xyz
x,y,z
-x,-y,1/2+z
x,-y,-z
-x,y,1/2-z
-x,-y,-z
x,y,1/2-z
-x,y,z
x,-y,1/2+z
1/2+x,1/2+y,z
1/2-x,1/2-y,1/2+z
1/2+x,1/2-y,-z
1/2-x,1/2+y,1/2-z
1/2-x,1/2-y,-z
1/2+x,1/2+y,1/2-z
1/2-x,1/2+y,z
1/2+x,1/2-y,1/2+z
loop_
_atom_site_type_symbol
_atom_site_label
_atom_site_fract_x
_atom_site_fract_y
_atom_site_fract_z
Si Si1 0.783747 0.054903 0.927684
Si Si2 0.728060 0.837822 0.549179
Si Si3 0.626670 0.022398 0.750000
Si Si4 0.878205 0.604360 0.250000
Si Si5 0.878756 0.741495 0.622857
Si Si6 0.000000 0.022250 0.629575
O O1 0.892388 0.057393 0.857727
O O2 0.676457 0.053842 0.855699
O O3 0.788955 0.109588 0.001695
O O4 0.782196 0.000000 0.000000
O O5 0.650315 0.859622 0.643316
O O6 0.814629 0.797460 0.601116
O O7 0.660083 0.808377 0.454208
O O8 0.500000 0.028991 0.750000
O O9 0.669190 0.958345 0.750000
O O10 0.000000 0.593501 0.250000
O O11 0.862503 0.722432 0.750000
O O12 0.000000 0.754577 0.596437
O O13 0.000000 0.986193 0.750000
O O14 0.000000 0.000000 0.500000
#
# Coordination Sequence:
#
# PCOD8260692 Si02
#       6
#    16  16   8   8  16   8
#     4  11  23  41  63  95 134 169 218 268 324 398
#     4  11  23  41  66  94 128 167 215 266 325 383
#     4  11  24  39  60  93 135 179 216 258 319 391
#     4  11  22  40  65  94 134 175 211 262 317 393
#     4  10  23  43  66  92 124 164 215 268 323 383
#     4  10  22  40  66  94 132 176 216 270 327 388
#
# _framework density 19.648551999999999
#
# number of rings (size 3 to 8) (size 9 to 14) (size 15 to 20)
#    0.000    1.333    4.444    0.667    3.111    2.222 
#    0.000    0.000    2.444    0.000    0.000    0.000 
#    0.000    0.000    0.000    0.000    0.000    0.000 
#
# Total GULP energy -446009.710514 kJ/mol
# GULP energy per Si atom -12389.158625 kJ/mol
# Density = 1.960383 g / cm^3
# Si number density = 19.648552 Si / 1000 Ang^3
#
#
#
# Elastic Constant Matrix: (Units=GPa)
#
#
# Indices 1 2 3 4 5 6 
#
# 1 120.8706 11.5387 38.5117 0.0000 0.0000 0.0000
# 2 11.5387 70.9620 25.3610 0.0000 0.0000 0.0000
# 3 38.5117 25.3610 121.9841 0.0000 0.0000 0.0000
# 4 0.0000 0.0000 0.0000 6.4082 0.0000 0.0000
# 5 0.0000 0.0000 0.0000 0.0000 58.0769 0.0000
# 6 0.0000 0.0000 0.0000 0.0000 0.0000 68.4788
#
#
#
# Elastic Compliance Matrix: (Units=1/GPa)
#
#
# Indices 1 2 3 4 5 6 
#
# 1 0.009215 -0.000495 -0.002806 0.000000 0.000000 0.000000
# 2 -0.000495 0.015250 -0.003014 0.000000 0.000000 0.000000
# 3 -0.002806 -0.003014 0.009710 0.000000 0.000000 0.000000
# 4 0.000000 0.000000 0.000000 0.156051 0.000000 0.000000
# 5 0.000000 0.000000 0.000000 0.000000 0.017219 0.000000
# 6 0.000000 0.000000 0.000000 0.000000 0.000000 0.014603
#
#
# Mechanical properties :
#
#
# Convention : Reuss Voigt Hill
#
# Bulk Modulus (GPa) = 46.41780 51.62663 49.02222
# Shear Modulus (GPa) = 20.67311 42.48646 31.57979
#
# Velocity S-wave (km/s) = 3.24720 4.65512 4.01338
# Velocity P-wave (km/s) = 6.14283 7.43139 6.81762
#
# Compressibility (1/GPa) = 0.02154346
#
# Stress axis : x y z
#
# Youngs Moduli (GPa) = 108.52217 65.57462 102.98274
#
# Poissons Ratio (x) = 0.03249 0.28899
# Poissons Ratio (y) = 0.05377 0.31040
# Poissons Ratio (z) = 0.30453 0.19765
#
# Static dielectric constant tensor:
#      x y z
#    x 3.844620 0.000000 0.000000 
#    y 0.000000 3.207510 0.000000 
#    z 0.000000 0.000000 3.506800 
# 
# 
# High freq. dielectric constant tensor:
#      x y z
#    x 1.779500 0.000000 0.000000 
#    y 0.000000 1.750520 0.000000 
#    z 0.000000 0.000000 1.786140 
# 
# From -- ./inp_files/17644.got.cif
#   From: 2010.03.12/outbox.cif.g09.slc.cpg/sg63_9_cif.got.tgz:17644.got - 2010.04.10 19:34:48.
