data_PCOD8260512
_publ_section_title
;
Structure prediction by ZEFSAII (Michael W. Deem and Ramdas Pophale) SiO2 
 PCOD8260512
Probable space group: C M C M
;
_chemical_formula_sum "Si O2"
_cell_formula_units_Z 72
_cell_length_a 15.977439
_cell_length_b 14.945633
_cell_length_c 14.459530
_cell_angle_alpha 90.000000
_cell_angle_beta 90.000000
_cell_angle_gamma 90.000000
_cell_volume 3452.833674
_symmetry_space_group_name_H-M "C M C M"
_symmetry_group_IT_number 63
_symmetry_cell_setting 'orthorhombic'
loop_
_space_group_symop_operation_xyz
x,y,z
-x,-y,1/2+z
x,-y,-z
-x,y,1/2-z
-x,-y,-z
x,y,1/2-z
-x,y,z
x,-y,1/2+z
1/2+x,1/2+y,z
1/2-x,1/2-y,1/2+z
1/2+x,1/2-y,-z
1/2-x,1/2+y,1/2-z
1/2-x,1/2-y,-z
1/2+x,1/2+y,1/2-z
1/2-x,1/2+y,z
1/2+x,1/2-y,1/2+z
loop_
_atom_site_type_symbol
_atom_site_label
_atom_site_fract_x
_atom_site_fract_y
_atom_site_fract_z
Si Si1 0.824379 0.737473 0.067954
Si Si2 0.093645 0.929268 0.069793
Si Si3 0.399870 0.146938 0.750000
Si Si4 0.227671 0.807788 0.750000
Si Si5 0.908605 0.042485 0.250000
Si Si6 0.597164 0.913705 0.048846
O O1 0.862114 0.834921 0.081937
O O2 0.790105 0.696771 0.163230
O O3 0.750000 0.750000 0.000000
O O4 0.889120 0.671667 0.017141
O O5 0.000000 0.909925 0.032518
O O6 0.094528 0.975381 0.166724
O O7 0.138530 0.000000 0.000000
O O8 0.500000 0.167653 0.750000
O O9 0.346093 0.236179 0.750000
O O10 0.371434 0.095997 0.655614
O O11 0.174389 0.898277 0.750000
O O12 0.000000 0.094074 0.250000
O O13 0.500000 0.931204 0.056259
O O14 0.640556 0.000000 0.000000
#
# Coordination Sequence:
#
# PCOD8260512 Si02
#       6
#    16  16   8   8   8  16
#     4  12  24  40  60  95 136 167 210 267 332 392
#     4  10  22  41  65  90 121 167 216 263 316 379
#     4  10  21  42  69  91 124 167 222 271 305 379
#     4  12  24  40  60  99 130 170 213 257 339 393
#     4  10  22  42  66  90 120 163 221 270 313 378
#     4  10  23  44  69  95 125 172 224 267 319 383
#
# _framework density 20.852437999999999
#
# number of rings (size 3 to 8) (size 9 to 14) (size 15 to 20)
#    0.000    1.333    2.222    3.000    0.000    3.556 
#    4.000    2.778    0.000    0.000    0.000    0.000 
#    0.000    0.000    0.000    0.000    0.000    0.000 
#
# Total GULP energy -446066.483814 kJ/mol
# GULP energy per Si atom -12390.735661 kJ/mol
# Density = 2.080498 g / cm^3
# Si number density = 20.852438 Si / 1000 Ang^3
#
#
#
# Elastic Constant Matrix: (Units=GPa)
#
#
# Indices 1 2 3 4 5 6 
#
# 1 53.6462 38.2216 32.6725 0.0000 0.0000 0.0000
# 2 38.2216 129.3715 55.7988 0.0000 0.0000 0.0000
# 3 32.6725 55.7988 176.4396 0.0000 0.0000 0.0000
# 4 0.0000 0.0000 0.0000 18.7719 0.0000 0.0000
# 5 0.0000 0.0000 0.0000 0.0000 25.0601 0.0000
# 6 0.0000 0.0000 0.0000 0.0000 0.0000 25.9886
#
#
#
# Elastic Compliance Matrix: (Units=1/GPa)
#
#
# Indices 1 2 3 4 5 6 
#
# 1 0.024610 -0.006143 -0.002614 0.000000 0.000000 0.000000
# 2 -0.006143 0.010484 -0.002178 0.000000 0.000000 0.000000
# 3 -0.002614 -0.002178 0.006841 0.000000 0.000000 0.000000
# 4 0.000000 0.000000 0.000000 0.053271 0.000000 0.000000
# 5 0.000000 0.000000 0.000000 0.000000 0.039904 0.000000
# 6 0.000000 0.000000 0.000000 0.000000 0.000000 0.038478
#
#
# Mechanical properties :
#
#
# Convention : Reuss Voigt Hill
#
# Bulk Modulus (GPa) = 49.84222 68.09368 58.96795
# Shear Modulus (GPa) = 24.73453 29.48176 27.10814
#
# Velocity S-wave (km/s) = 3.44782 3.76417 3.60946
# Velocity P-wave (km/s) = 6.30905 7.18456 6.76099
#
# Compressibility (1/GPa) = 0.02006331
#
# Stress axis : x y z
#
# Youngs Moduli (GPa) = 40.63431 95.38358 146.18660
#
# Poissons Ratio (x) = 0.58595 0.38219
# Poissons Ratio (y) = 0.24962 0.31839
# Poissons Ratio (z) = 0.10623 0.20774
#
# Static dielectric constant tensor:
#      x y z
#    x -43.314870 0.000000 0.000000 
#    y 0.000000 3.617600 0.000000 
#    z 0.000000 0.000000 4.215420 
# 
# 
# High freq. dielectric constant tensor:
#      x y z
#    x 1.811680 0.000000 0.000000 
#    y 0.000000 1.818010 0.000000 
#    z 0.000000 0.000000 1.839960 
# 
# From -- ./inp_files/33703.got.cif
#   From: 2010.03.12/outbox.cif.g09.slc.cpg/sg63_17_cif.got.tgz:33703.got - 2010.04.10 19:34:48.
