data_PCOD8260427
_publ_section_title
;
Structure prediction by ZEFSAII (Michael W. Deem and Ramdas Pophale) SiO2 
 PCOD8260427
Probable space group: C M C M
;
_chemical_formula_sum "Si O2"
_cell_formula_units_Z 96
_cell_length_a 23.288787
_cell_length_b 7.252001
_cell_length_c 26.163046
_cell_angle_alpha 90.000000
_cell_angle_beta 90.000000
_cell_angle_gamma 90.000000
_cell_volume 4418.684861
_symmetry_space_group_name_H-M "C M C M"
_symmetry_group_IT_number 63
_symmetry_cell_setting 'orthorhombic'
loop_
_space_group_symop_operation_xyz
x,y,z
-x,-y,1/2+z
x,-y,-z
-x,y,1/2-z
-x,-y,-z
x,y,1/2-z
-x,y,z
x,-y,1/2+z
1/2+x,1/2+y,z
1/2-x,1/2-y,1/2+z
1/2+x,1/2-y,-z
1/2-x,1/2+y,1/2-z
1/2-x,1/2-y,-z
1/2+x,1/2+y,1/2-z
1/2-x,1/2+y,z
1/2+x,1/2-y,1/2+z
loop_
_atom_site_type_symbol
_atom_site_label
_atom_site_fract_x
_atom_site_fract_y
_atom_site_fract_z
Si Si1 0.566838 0.884274 0.949407
Si Si2 0.563618 0.562968 0.191578
Si Si3 0.795604 0.546724 0.691815
Si Si4 0.675841 0.352717 0.341690
Si Si5 0.615469 0.185851 0.881081
Si Si6 0.858617 0.035172 0.944996
O O1 0.500000 0.880478 0.936745
O O2 0.588075 0.674221 0.954340
O O3 0.600243 0.985604 0.903143
O O4 0.580018 0.000000 0.000000
O O5 0.575532 0.612573 0.250000
O O6 0.500000 0.474616 0.184621
O O7 0.612450 0.426546 0.170840
O O8 0.566291 0.751870 0.158932
O O9 0.809410 0.606189 0.750000
O O10 0.727102 0.533048 0.684580
O O11 0.822917 0.350182 0.680406
O O12 0.824598 0.686291 0.651196
O O13 0.684109 0.370586 0.403479
O O14 0.619435 0.336696 0.925866
O O15 0.827742 0.000000 0.000000
#
# Coordination Sequence:
#
# PCOD8260427 Si02
#       6
#    16  16  16  16  16  16
#     4  11  23  41  68 100 135 181 234 281 337 411
#     4  10  21  39  63  93 133 177 218 273 345 411
#     4  12  24  44  72 100 135 180 233 292 342 409
#     4  11  24  42  67 100 135 176 234 283 346 410
#     4  11  23  42  65  99 136 172 228 280 340 401
#     4  11  23  42  65  95 139 177 222 281 339 406
#
# _framework density 21.725919999999999
#
# number of rings (size 3 to 8) (size 9 to 14) (size 15 to 20)
#    0.000    1.000    3.333    4.500    0.000    3.667 
#    0.000    4.167    0.000    3.000    0.000    0.000 
#    0.000    0.000    0.000    0.000    0.000    0.000 
#
# Total GULP energy -595025.122328 kJ/mol
# GULP energy per Si atom -12396.356715 kJ/mol
# Density = 2.167647 g / cm^3
# Si number density = 21.725920 Si / 1000 Ang^3
#
#
#
# Elastic Constant Matrix: (Units=GPa)
#
#
# Indices 1 2 3 4 5 6 
#
# 1 111.7416 33.6413 47.9202 0.0000 0.0000 0.0000
# 2 33.6413 85.0992 34.7138 0.0000 0.0000 0.0000
# 3 47.9202 34.7138 164.7623 0.0000 0.0000 0.0000
# 4 0.0000 0.0000 0.0000 34.4202 0.0000 0.0000
# 5 0.0000 0.0000 0.0000 0.0000 32.1324 0.0000
# 6 0.0000 0.0000 0.0000 0.0000 0.0000 31.7023
#
#
#
# Elastic Compliance Matrix: (Units=1/GPa)
#
#
# Indices 1 2 3 4 5 6 
#
# 1 0.011028 -0.003338 -0.002504 0.000000 0.000000 0.000000
# 2 -0.003338 0.013866 -0.001951 0.000000 0.000000 0.000000
# 3 -0.002504 -0.001951 0.007209 0.000000 0.000000 0.000000
# 4 0.000000 0.000000 0.000000 0.029053 0.000000 0.000000
# 5 0.000000 0.000000 0.000000 0.000000 0.031121 0.000000
# 6 0.000000 0.000000 0.000000 0.000000 0.000000 0.031543
#
#
# Mechanical properties :
#
#
# Convention : Reuss Voigt Hill
#
# Bulk Modulus (GPa) = 60.54267 66.01708 63.27988
# Shear Modulus (GPa) = 34.50369 36.00616 35.25492
#
# Velocity S-wave (km/s) = 3.98946 4.07540 4.03266
# Velocity P-wave (km/s) = 7.01057 7.25241 7.13252
#
# Compressibility (1/GPa) = 0.01651728
#
# Stress axis : x y z
#
# Youngs Moduli (GPa) = 90.67739 72.11723 138.72225
#
# Poissons Ratio (x) = 0.24074 0.34738
# Poissons Ratio (y) = 0.30269 0.27060
# Poissons Ratio (z) = 0.22707 0.14067
#
# Static dielectric constant tensor:
#      x y z
#    x 3.840040 0.000000 0.000000 
#    y 0.000000 3.873810 0.000000 
#    z 0.000000 0.000000 4.319860 
# 
# 
# High freq. dielectric constant tensor:
#      x y z
#    x 1.834590 0.000000 0.000000 
#    y 0.000000 1.856670 0.000000 
#    z 0.000000 0.000000 1.874670 
# 
# From -- ./inp_files/70322.got.cif
#   From: 2010.03.12/outbox.cif.g09.slc.cpg/sg63_36_cif.got.tgz:70322.got - 2010.04.10 19:34:48.
