data_PCOD8260910
_publ_section_title
;
Structure prediction by ZEFSAII (Michael W. Deem and Ramdas Pophale) SiO2 
 PCOD8260910
Probable space group: C M C M
;
_chemical_formula_sum "Si O2"
_cell_formula_units_Z 80
_cell_length_a 9.225796
_cell_length_b 23.610522
_cell_length_c 22.817766
_cell_angle_alpha 90.000000
_cell_angle_beta 90.000000
_cell_angle_gamma 90.000000
_cell_volume 4970.299489
_symmetry_space_group_name_H-M "C M C M"
_symmetry_group_IT_number 63
_symmetry_cell_setting 'orthorhombic'
loop_
_space_group_symop_operation_xyz
x,y,z
-x,-y,1/2+z
x,-y,-z
-x,y,1/2-z
-x,-y,-z
x,y,1/2-z
-x,y,z
x,-y,1/2+z
1/2+x,1/2+y,z
1/2-x,1/2-y,1/2+z
1/2+x,1/2-y,-z
1/2-x,1/2+y,1/2-z
1/2-x,1/2-y,-z
1/2+x,1/2+y,1/2-z
1/2-x,1/2+y,z
1/2+x,1/2-y,1/2+z
loop_
_atom_site_type_symbol
_atom_site_label
_atom_site_fract_x
_atom_site_fract_y
_atom_site_fract_z
Si Si1 0.161522 0.346530 0.873424
Si Si2 0.000000 0.570558 0.566331
Si Si3 0.330113 0.194772 0.250000
Si Si4 0.000000 0.438955 0.572264
Si Si5 0.328093 0.324281 0.250000
Si Si6 0.170654 0.757689 0.560113
Si Si7 0.159930 0.654845 0.638949
O O1 0.220087 0.341100 0.806785
O O2 0.280286 0.317452 0.913973
O O3 0.000000 0.317474 0.878626
O O4 0.142689 0.411577 0.896044
O O5 0.000000 0.505187 0.584029
O O6 0.000000 0.577652 0.496355
O O7 0.142998 0.600655 0.594768
O O8 0.500000 0.200517 0.250000
O O9 0.268772 0.259245 0.250000
O O10 0.500000 0.328664 0.250000
O O11 0.267835 0.357085 0.307231
O O12 0.250000 0.750000 0.500000
O O13 0.222873 0.707846 0.603062
O O14 0.000000 0.756160 0.549780
O O15 0.000000 0.670187 0.664197
#
# Coordination Sequence:
#
# PCOD8260910 Si02
#       7
#    16   8   8   8   8  16  16
#     4   9  18  31  50  74 102 132 174 220 259 313
#     4   9  18  35  53  79 103 140 180 219 260 311
#     4   9  16  29  45  71 105 134 168 206 258 310
#     4   9  18  33  59  75 103 140 180 223 260 305
#     4  11  19  31  51  75 107 146 166 216 266 322
#     4  11  20  30  47  74 108 139 170 219 273 325
#     4   9  20  33  49  74 108 136 176 212 262 318
#
# _framework density 16.095609
#
# number of rings (size 3 to 8) (size 9 to 14) (size 15 to 20)
#    1.200    1.200    2.000    2.100    0.000    0.800 
#    0.000    2.500    0.000    1.200    0.000    4.200 
#    0.000    0.000    0.000    0.000    0.000    0.000 
#
# Total GULP energy -495554.397863 kJ/mol
# GULP energy per Si atom -12388.859947 kJ/mol
# Density = 1.605898 g / cm^3
# Si number density = 16.095609 Si / 1000 Ang^3
#
#
#
# Elastic Constant Matrix: (Units=GPa)
#
#
# Indices 1 2 3 4 5 6 
#
# 1 50.0509 14.5113 37.0811 0.0000 0.0000 0.0000
# 2 14.5113 92.7312 33.4425 0.0000 0.0000 0.0000
# 3 37.0811 33.4425 104.2363 0.0000 0.0000 0.0000
# 4 0.0000 0.0000 0.0000 23.9910 0.0000 0.0000
# 5 0.0000 0.0000 0.0000 0.0000 27.1110 0.0000
# 6 0.0000 0.0000 0.0000 0.0000 0.0000 18.0430
#
#
#
# Elastic Compliance Matrix: (Units=1/GPa)
#
#
# Indices 1 2 3 4 5 6 
#
# 1 0.027191 -0.000867 -0.009395 0.000000 0.000000 0.000000
# 2 -0.000867 0.012223 -0.003613 0.000000 0.000000 0.000000
# 3 -0.009395 -0.003613 0.014095 0.000000 0.000000 0.000000
# 4 0.000000 0.000000 0.000000 0.041682 0.000000 0.000000
# 5 0.000000 0.000000 0.000000 0.000000 0.036885 0.000000
# 6 0.000000 0.000000 0.000000 0.000000 0.000000 0.055423
#
#
# Mechanical properties :
#
#
# Convention : Reuss Voigt Hill
#
# Bulk Modulus (GPa) = 38.82122 46.34314 42.58218
# Shear Modulus (GPa) = 22.33779 24.62790 23.48285
#
# Velocity S-wave (km/s) = 3.72939 3.91589 3.82378
# Velocity P-wave (km/s) = 6.53574 7.02143 6.78294
#
# Compressibility (1/GPa) = 0.02575911
#
# Stress axis : x y z
#
# Youngs Moduli (GPa) = 36.77627 81.81625 70.94757
#
# Poissons Ratio (x) = 0.07093 0.66655
# Poissons Ratio (y) = 0.03188 0.25633
# Poissons Ratio (z) = 0.34551 0.29560
#
# Static dielectric constant tensor:
#      x y z
#    x 2.777640 0.000000 0.000000 
#    y 0.000000 2.836190 0.000000 
#    z 0.000000 0.000000 3.232390 
# 
# 
# High freq. dielectric constant tensor:
#      x y z
#    x 1.588510 0.000000 0.000000 
#    y 0.000000 1.588400 0.000000 
#    z 0.000000 0.000000 1.637860 
# 
# From -- ./inp_files/59811.got.cif
#   From: 2010.03.12/outbox.cif.g09.slc.cpg/sg63_30_cif.got.tgz:59811.got - 2010.04.10 19:34:48.
