data_PCOD8260096
_publ_section_title
;
Structure prediction by ZEFSAII (Michael W. Deem and Ramdas Pophale) SiO2 
 PCOD8260096
Probable space group: C M C M
;
_chemical_formula_sum "Si O2"
_cell_formula_units_Z 80
_cell_length_a 25.280772
_cell_length_b 19.865130
_cell_length_c 8.816339
_cell_angle_alpha 90.000000
_cell_angle_beta 90.000000
_cell_angle_gamma 90.000000
_cell_volume 4427.616777
_symmetry_space_group_name_H-M "C M C M"
_symmetry_group_IT_number 63
_symmetry_cell_setting 'orthorhombic'
loop_
_space_group_symop_operation_xyz
x,y,z
-x,-y,1/2+z
x,-y,-z
-x,y,1/2-z
-x,-y,-z
x,y,1/2-z
-x,y,z
x,-y,1/2+z
1/2+x,1/2+y,z
1/2-x,1/2-y,1/2+z
1/2+x,1/2-y,-z
1/2-x,1/2+y,1/2-z
1/2-x,1/2-y,-z
1/2+x,1/2+y,1/2-z
1/2-x,1/2+y,z
1/2+x,1/2-y,1/2+z
loop_
_atom_site_type_symbol
_atom_site_label
_atom_site_fract_x
_atom_site_fract_y
_atom_site_fract_z
Si Si1 0.361046 0.572383 0.573241
Si Si2 0.755533 0.427301 0.427362
Si Si3 0.140965 0.573746 0.070928
Si Si4 0.060842 0.186656 0.926914
Si Si5 0.561814 0.173650 0.924865
O O1 0.370143 0.500000 0.500000
O O2 0.369195 0.560725 0.750000
O O3 0.302498 0.604292 0.541298
O O4 0.403934 0.625096 0.510447
O O5 0.753285 0.500000 0.500000
O O6 0.767965 0.431795 0.250000
O O7 0.804860 0.390047 0.509307
O O8 0.143496 0.567335 0.250000
O O9 0.134200 0.500000 0.000000
O O10 0.091313 0.618344 0.024223
O O11 0.071610 0.200483 0.750000
O O12 0.000000 0.167768 0.957254
O O13 0.077969 0.252384 0.019199
O O14 0.577955 0.166120 0.750000
O O15 0.500000 0.161287 0.950790
#
# Coordination Sequence:
#
# PCOD8260096 Si02
#       5
#    16  16  16  16  16
#     4   9  18  31  50  76 104 135 170 209 251 296
#     4   9  16  29  48  71 101 133 166 204 248 295
#     4  11  21  34  54  78 103 131 165 204 248 296
#     4   9  18  34  53  73 101 136 171 208 253 301
#     4  10  21  37  55  75 100 131 167 206 250 299
#
# _framework density 18.068411999999999
#
# number of rings (size 3 to 8) (size 9 to 14) (size 15 to 20)
#    0.000    2.400    0.000    4.200    0.000    3.600 
#    0.000    1.000    0.000    0.000    0.000    0.000 
#    0.000    0.000    0.000    0.000    0.000    0.000 
#
# Total GULP energy -495826.372907 kJ/mol
# GULP energy per Si atom -12395.659323 kJ/mol
# Density = 1.802729 g / cm^3
# Si number density = 18.068412 Si / 1000 Ang^3
#
#
#
# Elastic Constant Matrix: (Units=GPa)
#
#
# Indices 1 2 3 4 5 6 
#
# 1 109.4567 71.0172 55.3288 0.0000 0.0000 0.0000
# 2 71.0172 91.4825 47.9584 0.0000 0.0000 0.0000
# 3 55.3288 47.9584 107.7420 0.0000 0.0000 0.0000
# 4 0.0000 0.0000 0.0000 27.7371 0.0000 0.0000
# 5 0.0000 0.0000 0.0000 0.0000 21.0239 0.0000
# 6 0.0000 0.0000 0.0000 0.0000 0.0000 8.3211
#
#
#
# Elastic Compliance Matrix: (Units=1/GPa)
#
#
# Indices 1 2 3 4 5 6 
#
# 1 0.019857 -0.013134 -0.004351 0.000000 0.000000 0.000000
# 2 -0.013134 0.022945 -0.003469 0.000000 0.000000 0.000000
# 3 -0.004351 -0.003469 0.013060 0.000000 0.000000 0.000000
# 4 0.000000 0.000000 0.000000 0.036053 0.000000 0.000000
# 5 0.000000 0.000000 0.000000 0.000000 0.047565 0.000000
# 6 0.000000 0.000000 0.000000 0.000000 0.000000 0.120176
#
#
# Mechanical properties :
#
#
# Convention : Reuss Voigt Hill
#
# Bulk Modulus (GPa) = 71.66026 73.03223 72.34625
# Shear Modulus (GPa) = 16.32844 20.37488 18.35166
#
# Velocity S-wave (km/s) = 3.00942 3.36170 3.19043
# Velocity P-wave (km/s) = 7.19876 7.45490 7.32795
#
# Compressibility (1/GPa) = 0.01395474
#
# Stress axis : x y z
#
# Youngs Moduli (GPa) = 50.36081 43.58220 76.57076
#
# Poissons Ratio (x) = 0.57240 0.33315
# Poissons Ratio (y) = 0.66142 0.26561
# Poissons Ratio (z) = 0.21912 0.15118
#
# Static dielectric constant tensor:
#      x y z
#    x 4.113820 0.000000 0.000000 
#    y 0.000000 3.115920 0.000000 
#    z 0.000000 0.000000 3.361610 
# 
# 
# High freq. dielectric constant tensor:
#      x y z
#    x 1.715180 0.000000 0.000000 
#    y 0.000000 1.669810 0.000000 
#    z 0.000000 0.000000 1.708430 
# 
# From -- ./inp_files/11961.got.cif
#   From: 2010.03.12/outbox.cif.g09.slc.cpg/sg63_6_cif.got.tgz:11961.got - 2010.04.10 19:34:48.
