data_PCOD8260679
_publ_section_title
;
Structure prediction by ZEFSAII (Michael W. Deem and Ramdas Pophale) SiO2 
 PCOD8260679
Probable space group: C M C M
;
_chemical_formula_sum "Si O2"
_cell_formula_units_Z 96
_cell_length_a 28.278297
_cell_length_b 10.982869
_cell_length_c 15.429800
_cell_angle_alpha 90.000000
_cell_angle_beta 90.000000
_cell_angle_gamma 90.000000
_cell_volume 4792.138395
_symmetry_space_group_name_H-M "C M C M"
_symmetry_group_IT_number 63
_symmetry_cell_setting 'orthorhombic'
loop_
_space_group_symop_operation_xyz
x,y,z
-x,-y,1/2+z
x,-y,-z
-x,y,1/2-z
-x,-y,-z
x,y,1/2-z
-x,y,z
x,-y,1/2+z
1/2+x,1/2+y,z
1/2-x,1/2-y,1/2+z
1/2+x,1/2-y,-z
1/2-x,1/2+y,1/2-z
1/2-x,1/2-y,-z
1/2+x,1/2+y,1/2-z
1/2-x,1/2+y,z
1/2+x,1/2-y,1/2+z
loop_
_atom_site_type_symbol
_atom_site_label
_atom_site_fract_x
_atom_site_fract_y
_atom_site_fract_z
Si Si1 0.389071 0.493321 0.400766
Si Si2 0.556387 0.632216 0.750000
Si Si3 0.444171 0.097546 0.250000
Si Si4 0.446277 0.060940 0.907779
Si Si5 0.126901 0.257223 0.150626
Si Si6 0.712303 0.530836 0.652229
Si Si7 0.231314 0.238196 0.404122
O O1 0.407870 0.500000 0.500000
O O2 0.424076 0.415744 0.341416
O O3 0.389316 0.619605 0.350765
O O4 0.334832 0.444456 0.404425
O O5 0.500000 0.617406 0.750000
O O6 0.576201 0.768424 0.750000
O O7 0.500000 0.103544 0.250000
O O8 0.426067 0.030980 0.163950
O O9 0.500000 0.101705 0.886758
O O10 0.412525 0.176201 0.906205
O O11 0.443079 0.000000 0.000000
O O12 0.129560 0.303531 0.250000
O O13 0.176460 0.272473 0.102005
O O14 0.695528 0.508489 0.750000
O O15 0.743112 0.654456 0.650090
O O16 0.739388 0.403821 0.625085
O O17 0.250000 0.250000 0.500000
#
# Coordination Sequence:
#
# PCOD8260679 Si02
#       7
#    16   8   8  16  16  16  16
#     4  11  23  42  64  90 126 167 207 259 324 375
#     4  11  24  43  63  90 128 166 212 261 312 384
#     4   9  20  41  61  84 128 168 200 261 323 366
#     4  10  22  40  64  94 128 170 213 260 323 383
#     4  11  22  42  64  93 128 164 215 272 313 378
#     4  11  21  42  64  91 127 170 210 261 321 383
#     4  11  23  40  62  91 128 168 212 266 323 382
#
# _framework density 20.032810000000001
#
# number of rings (size 3 to 8) (size 9 to 14) (size 15 to 20)
#    0.000    1.333    2.500    5.000    2.333    2.333 
#    3.000    0.000    0.000    0.000    0.000    0.000 
#    0.000    0.000    0.000    0.000    0.000    0.000 
#
# Total GULP energy -594910.056117 kJ/mol
# GULP energy per Si atom -12393.959502 kJ/mol
# Density = 1.998721 g / cm^3
# Si number density = 20.032810 Si / 1000 Ang^3
#
#
#
# Elastic Constant Matrix: (Units=GPa)
#
#
# Indices 1 2 3 4 5 6 
#
# 1 91.5164 57.7631 29.7028 0.0000 0.0000 0.0000
# 2 57.7631 92.5513 13.3068 0.0000 0.0000 0.0000
# 3 29.7028 13.3068 130.5001 0.0000 0.0000 0.0000
# 4 0.0000 0.0000 0.0000 24.9462 0.0000 0.0000
# 5 0.0000 0.0000 0.0000 0.0000 38.0815 0.0000
# 6 0.0000 0.0000 0.0000 0.0000 0.0000 30.2499
#
#
#
# Elastic Compliance Matrix: (Units=1/GPa)
#
#
# Indices 1 2 3 4 5 6 
#
# 1 0.019266 -0.011563 -0.003206 0.000000 0.000000 0.000000
# 2 -0.011563 0.017906 0.000806 0.000000 0.000000 0.000000
# 3 -0.003206 0.000806 0.008310 0.000000 0.000000 0.000000
# 4 0.000000 0.000000 0.000000 0.040086 0.000000 0.000000
# 5 0.000000 0.000000 0.000000 0.000000 0.026259 0.000000
# 6 0.000000 0.000000 0.000000 0.000000 0.000000 0.033058
#
#
# Mechanical properties :
#
#
# Convention : Reuss Voigt Hill
#
# Bulk Modulus (GPa) = 56.96163 57.34589 57.15376
# Shear Modulus (GPa) = 27.98541 32.90854 30.44698
#
# Velocity S-wave (km/s) = 3.74167 4.05746 3.90276
# Velocity P-wave (km/s) = 6.86751 7.11609 6.99291
#
# Compressibility (1/GPa) = 0.01755568
#
# Stress axis : x y z
#
# Youngs Moduli (GPa) = 51.90461 55.84763 120.33194
#
# Poissons Ratio (x) = 0.64579 0.38579
# Poissons Ratio (y) = 0.60019 -0.09700
# Poissons Ratio (z) = 0.16641 -0.04502
#
# Static dielectric constant tensor:
#      x y z
#    x 3.641960 0.000000 0.000000 
#    y 0.000000 3.955980 0.000000 
#    z 0.000000 0.000000 3.778750 
# 
# 
# High freq. dielectric constant tensor:
#      x y z
#    x 1.770050 0.000000 0.000000 
#    y 0.000000 1.787640 0.000000 
#    z 0.000000 0.000000 1.798460 
# 
# From -- ./inp_files/38460.got.cif
#   From: 2010.03.12/outbox.cif.g09.slc.cpg/sg63_20_cif.got.tgz:38460.got - 2010.04.10 19:34:48.
