data_PCOD8260591
_publ_section_title
;
Structure prediction by ZEFSAII (Michael W. Deem and Ramdas Pophale) SiO2 
 PCOD8260591
Probable space group: C M C M
;
_chemical_formula_sum "Si O2"
_cell_formula_units_Z 88
_cell_length_a 13.991701
_cell_length_b 13.335342
_cell_length_c 23.741588
_cell_angle_alpha 90.000000
_cell_angle_beta 90.000000
_cell_angle_gamma 90.000000
_cell_volume 4429.803257
_symmetry_space_group_name_H-M "C M C M"
_symmetry_group_IT_number 63
_symmetry_cell_setting 'orthorhombic'
loop_
_space_group_symop_operation_xyz
x,y,z
-x,-y,1/2+z
x,-y,-z
-x,y,1/2-z
-x,-y,-z
x,y,1/2-z
-x,y,z
x,-y,1/2+z
1/2+x,1/2+y,z
1/2-x,1/2-y,1/2+z
1/2+x,1/2-y,-z
1/2-x,1/2+y,1/2-z
1/2-x,1/2-y,-z
1/2+x,1/2+y,1/2-z
1/2-x,1/2+y,z
1/2+x,1/2-y,1/2+z
loop_
_atom_site_type_symbol
_atom_site_label
_atom_site_fract_x
_atom_site_fract_y
_atom_site_fract_z
Si Si1 0.184598 0.099853 0.397219
Si Si2 0.886670 0.327289 0.105338
Si Si3 0.500000 0.748854 0.580794
Si Si4 0.177634 0.336341 0.514662
Si Si5 0.500000 0.128457 0.312739
Si Si6 0.683674 0.005532 0.684911
Si Si7 0.500000 0.484776 0.434440
O O1 0.154769 0.215370 0.391208
O O2 0.263116 0.083847 0.447504
O O3 0.227836 0.058032 0.339209
O O4 0.092992 0.033976 0.408805
O O5 0.831213 0.389562 0.152791
O O6 0.000000 0.326458 0.116156
O O7 0.864689 0.378579 0.044252
O O8 0.592510 0.792205 0.551150
O O9 0.500000 0.777356 0.646163
O O10 0.500000 0.630806 0.579569
O O11 0.250000 0.250000 0.500000
O O12 0.500000 0.173187 0.250000
O O13 0.590210 0.059672 0.324189
O O14 0.704159 0.029783 0.750000
O O15 0.500000 0.500000 0.500000
#
# Coordination Sequence:
#
# PCOD8260591 Si02
#       7
#    16  16   8  16   8  16   8
#     4  11  25  43  63  98 132 173 216 267 324 394
#     4  11  22  42  66  96 133 171 217 275 328 389
#     4  12  22  43  66 101 132 178 218 269 335 394
#     4  10  22  38  62  97 138 166 208 263 328 396
#     4  10  22  44  67  98 135 169 219 279 327 384
#     4  11  25  43  67  95 127 173 224 271 332 387
#     4  12  26  41  67  97 139 175 206 261 339 401
#
# _framework density 19.865441000000001
#
# number of rings (size 3 to 8) (size 9 to 14) (size 15 to 20)
#    0.000    1.091    4.545    2.182    7.636    0.727 
#    0.000    5.000    0.000    0.000    0.000    0.000 
#    0.000    0.000    0.000    0.000    0.000    0.000 
#
# Total GULP energy -545610.668317 kJ/mol
# GULP energy per Si atom -12400.242462 kJ/mol
# Density = 1.982023 g / cm^3
# Si number density = 19.865441 Si / 1000 Ang^3
#
#
#
# Elastic Constant Matrix: (Units=GPa)
#
#
# Indices 1 2 3 4 5 6 
#
# 1 139.7249 36.5934 60.3151 0.0000 0.0000 0.0000
# 2 36.5934 70.4951 70.6045 0.0000 0.0000 0.0000
# 3 60.3151 70.6045 165.0689 0.0000 0.0000 0.0000
# 4 0.0000 0.0000 0.0000 33.8552 0.0000 0.0000
# 5 0.0000 0.0000 0.0000 0.0000 36.1753 0.0000
# 6 0.0000 0.0000 0.0000 0.0000 0.0000 16.5543
#
#
#
# Elastic Compliance Matrix: (Units=1/GPa)
#
#
# Indices 1 2 3 4 5 6 
#
# 1 0.008711 -0.002334 -0.002185 0.000000 0.000000 0.000000
# 2 -0.002334 0.025442 -0.010029 0.000000 0.000000 0.000000
# 3 -0.002185 -0.010029 0.011146 0.000000 0.000000 0.000000
# 4 0.000000 0.000000 0.000000 0.029538 0.000000 0.000000
# 5 0.000000 0.000000 0.000000 0.000000 0.027643 0.000000
# 6 0.000000 0.000000 0.000000 0.000000 0.000000 0.060407
#
#
# Mechanical properties :
#
#
# Convention : Reuss Voigt Hill
#
# Bulk Modulus (GPa) = 61.71562 78.92387 70.31975
# Shear Modulus (GPa) = 25.33128 31.16867 28.24998
#
# Velocity S-wave (km/s) = 3.57479 3.96534 3.77512
# Velocity P-wave (km/s) = 6.94068 7.79620 7.38085
#
# Compressibility (1/GPa) = 0.01620335
#
# Stress axis : x y z
#
# Youngs Moduli (GPa) = 114.79422 39.30539 89.71599
#
# Poissons Ratio (x) = 0.09173 0.19602
# Poissons Ratio (y) = 0.26789 0.89980
# Poissons Ratio (z) = 0.25081 0.39421
#
# Static dielectric constant tensor:
#      x y z
#    x 3.873270 0.000000 0.000000 
#    y 0.000000 3.467040 0.000000 
#    z 0.000000 0.000000 3.930900 
# 
# 
# High freq. dielectric constant tensor:
#      x y z
#    x 1.795310 0.000000 0.000000 
#    y 0.000000 1.769220 0.000000 
#    z 0.000000 0.000000 1.776920 
# 
# From -- ./inp_files/61306.got.cif
#   From: 2010.03.12/outbox.cif.g09.slc.cpg/sg63_31_cif.got.tgz:61306.got - 2010.04.10 19:34:48.
