data_PCOD8260374
_publ_section_title
;
Structure prediction by ZEFSAII (Michael W. Deem and Ramdas Pophale) SiO2 
 PCOD8260374
Probable space group: C M C M
;
_chemical_formula_sum "Si O2"
_cell_formula_units_Z 96
_cell_length_a 13.628119
_cell_length_b 14.383705
_cell_length_c 26.175470
_cell_angle_alpha 90.000000
_cell_angle_beta 90.000000
_cell_angle_gamma 90.000000
_cell_volume 5130.990057
_symmetry_space_group_name_H-M "C M C M"
_symmetry_group_IT_number 63
_symmetry_cell_setting 'orthorhombic'
loop_
_space_group_symop_operation_xyz
x,y,z
-x,-y,1/2+z
x,-y,-z
-x,y,1/2-z
-x,-y,-z
x,y,1/2-z
-x,y,z
x,-y,1/2+z
1/2+x,1/2+y,z
1/2-x,1/2-y,1/2+z
1/2+x,1/2-y,-z
1/2-x,1/2+y,1/2-z
1/2-x,1/2-y,-z
1/2+x,1/2+y,1/2-z
1/2-x,1/2+y,z
1/2+x,1/2-y,1/2+z
loop_
_atom_site_type_symbol
_atom_site_label
_atom_site_fract_x
_atom_site_fract_y
_atom_site_fract_z
Si Si1 0.266987 0.397590 0.598248
Si Si2 0.612249 0.250000 0.961666
Si Si3 0.888533 0.641249 0.807774
Si Si4 0.611467 0.641249 0.307774
Si Si5 0.612556 0.750000 0.582696
Si Si6 0.266988 0.897591 0.098248
O O1 0.337829 0.342635 0.559882
O O2 0.317370 0.411821 0.653465
O O3 0.164573 0.342330 0.604769
O O4 0.249999 0.500000 0.575113
O O5 0.500000 0.250000 0.943945
O O6 0.662171 0.157364 0.940118
O O7 0.623743 0.250000 0.021987
O O8 0.853519 0.621357 0.750000
O O9 0.881990 0.750000 0.820567
O O10 0.817370 0.588179 0.846535
O O11 0.000000 0.606481 0.815066
O O12 0.646481 0.621357 0.250000
O O13 0.500000 0.606481 0.315066
O O14 0.500000 0.749999 0.600552
O O15 0.664573 0.657669 0.604768
#
# Coordination Sequence:
#
# PCOD8260374 Si02
#       6
#    16  16  16  16  16  16
#     4  11  21  34  57  83 109 139 178 223 270 319
#     4  10  21  39  58  76 105 143 185 227 265 312
#     4   9  17  32  57  84 107 136 178 224 265 310
#     4   9  17  32  57  84 107 136 178 224 265 310
#     4  10  23  39  52  75 113 148 177 218 271 323
#     4  11  21  34  57  83 109 139 178 223 270 319
#
# _framework density 18.709838999999999
#
# number of rings (size 3 to 8) (size 9 to 14) (size 15 to 20)
#    0.000    2.000    3.333    4.000    0.000    6.000 
#    0.000    3.333    0.000    2.000    0.000    0.000 
#    0.000    0.000    0.000    0.000    0.000    0.000 
#
# Total GULP energy -595275.843275 kJ/mol
# GULP energy per Si atom -12401.580068 kJ/mol
# Density = 1.866725 g / cm^3
# Si number density = 18.709839 Si / 1000 Ang^3
#
#
#
# Elastic Constant Matrix: (Units=GPa)
#
#
# Indices 1 2 3 4 5 6 
#
# 1 134.1575 54.1756 39.0874 0.0000 0.0000 0.0000
# 2 54.1756 132.5989 21.1696 0.0000 0.0000 0.0000
# 3 39.0874 21.1696 68.2706 0.0000 0.0000 0.0000
# 4 0.0000 0.0000 0.0000 7.7648 0.0000 0.0000
# 5 0.0000 0.0000 0.0000 0.0000 39.1417 0.0000
# 6 0.0000 0.0000 0.0000 0.0000 0.0000 10.5874
#
#
#
# Elastic Compliance Matrix: (Units=1/GPa)
#
#
# Indices 1 2 3 4 5 6 
#
# 1 0.010231 -0.003414 -0.004799 0.000000 0.000000 0.000000
# 2 -0.003414 0.009073 -0.000859 0.000000 0.000000 0.000000
# 3 -0.004799 -0.000859 0.017661 0.000000 0.000000 0.000000
# 4 0.000000 0.000000 0.000000 0.128786 0.000000 0.000000
# 5 0.000000 0.000000 0.000000 0.000000 0.025548 0.000000
# 6 0.000000 0.000000 0.000000 0.000000 0.000000 0.094452
#
#
# Mechanical properties :
#
#
# Convention : Reuss Voigt Hill
#
# Bulk Modulus (GPa) = 53.12854 62.65469 57.89161
# Shear Modulus (GPa) = 16.12023 26.20507 21.16265
#
# Velocity S-wave (km/s) = 2.93847 3.74652 3.36683
# Velocity P-wave (km/s) = 6.32222 7.23018 6.79139
#
# Compressibility (1/GPa) = 0.01882228
#
# Stress axis : x y z
#
# Youngs Moduli (GPa) = 97.74559 110.21178 56.62036
#
# Poissons Ratio (x) = 0.37624 0.27171
# Poissons Ratio (y) = 0.33368 0.04864
# Poissons Ratio (z) = 0.46907 0.09467
#
# Static dielectric constant tensor:
#      x y z
#    x 3.635760 0.000000 0.000000 
#    y 0.000000 3.187280 0.000000 
#    z 0.000000 0.000000 3.446150 
# 
# 
# High freq. dielectric constant tensor:
#      x y z
#    x 1.729800 0.000000 0.000000 
#    y 0.000000 1.702800 0.000000 
#    z 0.000000 0.000000 1.726910 
# 
# From -- ./inp_files/73486.got.cif
#   From: 2010.03.12/outbox.cif.g09.slc.cpg/sg63_37_cif.got.tgz:73486.got - 2010.04.10 19:34:48.
