data_PCOD8260755
_publ_section_title
;
Structure prediction by ZEFSAII (Michael W. Deem and Ramdas Pophale) SiO2 
 PCOD8260755
Probable space group: C M C M
;
_chemical_formula_sum "Si O2"
_cell_formula_units_Z 68
_cell_length_a 20.733401
_cell_length_b 9.546156
_cell_length_c 16.490692
_cell_angle_alpha 90.000000
_cell_angle_beta 90.000000
_cell_angle_gamma 90.000000
_cell_volume 3263.908347
_symmetry_space_group_name_H-M "C M C M"
_symmetry_group_IT_number 63
_symmetry_cell_setting 'orthorhombic'
loop_
_space_group_symop_operation_xyz
x,y,z
-x,-y,1/2+z
x,-y,-z
-x,y,1/2-z
-x,-y,-z
x,y,1/2-z
-x,y,z
x,-y,1/2+z
1/2+x,1/2+y,z
1/2-x,1/2-y,1/2+z
1/2+x,1/2-y,-z
1/2-x,1/2+y,1/2-z
1/2-x,1/2-y,-z
1/2+x,1/2+y,1/2-z
1/2-x,1/2+y,z
1/2+x,1/2-y,1/2+z
loop_
_atom_site_type_symbol
_atom_site_label
_atom_site_fract_x
_atom_site_fract_y
_atom_site_fract_z
Si Si1 0.890062 0.854181 0.467274
Si Si2 0.787189 0.925682 0.159595
Si Si3 0.500000 0.866060 0.563312
Si Si4 0.072728 0.729403 0.750000
Si Si5 0.500000 0.033736 0.250000
Si Si6 0.179551 0.778966 0.621536
O O1 0.853285 0.882109 0.383789
O O2 0.834825 0.804440 0.528192
O O3 0.938984 0.727959 0.457483
O O4 0.922206 0.000000 0.500000
O O5 0.796123 0.871331 0.250000
O O6 0.721161 0.861545 0.125375
O O7 0.777984 0.093038 0.155996
O O8 0.500000 0.889258 0.661631
O O9 0.500000 0.000000 0.500000
O O10 0.111898 0.771426 0.669969
O O11 0.000000 0.799190 0.750000
O O12 0.064499 0.561302 0.750000
#
# Coordination Sequence:
#
# PCOD8260755 Si02
#       6
#    16  16   8   8   4  16
#     4  10  25  43  67  94 142 181 230 271 351 420
#     4  11  22  41  64 103 135 171 230 275 344 399
#     4  12  25  47  69 102 140 186 234 292 351 401
#     4  10  22  42  65  96 136 170 230 272 342 408
#     4  10  26  40  66 104 136 168 240 284 344 400
#     4  11  22  43  67 100 129 185 220 279 340 407
#
# _framework density 20.833918000000001
#
# number of rings (size 3 to 8) (size 9 to 14) (size 15 to 20)
#    0.353    0.941    2.353    2.471    3.294    3.765 
#    2.118    0.000    0.000    0.000    0.000    0.000 
#    0.000    0.000    0.000    0.000    0.000    0.000 
#
# Total GULP energy -421348.570466 kJ/mol
# GULP energy per Si atom -12392.605014 kJ/mol
# Density = 2.078650 g / cm^3
# Si number density = 20.833918 Si / 1000 Ang^3
#
#
#
# Elastic Constant Matrix: (Units=GPa)
#
#
# Indices 1 2 3 4 5 6 
#
# 1 91.9536 65.6242 7.0791 0.0000 0.0000 0.0000
# 2 65.6242 133.5283 46.7507 0.0000 0.0000 0.0000
# 3 7.0791 46.7507 99.3562 0.0000 0.0000 0.0000
# 4 0.0000 0.0000 0.0000 31.1096 0.0000 0.0000
# 5 0.0000 0.0000 0.0000 0.0000 20.4819 0.0000
# 6 0.0000 0.0000 0.0000 0.0000 0.0000 52.0780
#
#
#
# Elastic Compliance Matrix: (Units=1/GPa)
#
#
# Indices 1 2 3 4 5 6 
#
# 1 0.017650 -0.009858 0.003381 0.000000 0.000000 0.000000
# 2 -0.009858 0.014472 -0.006107 0.000000 0.000000 0.000000
# 3 0.003381 -0.006107 0.012698 0.000000 0.000000 0.000000
# 4 0.000000 0.000000 0.000000 0.032144 0.000000 0.000000
# 5 0.000000 0.000000 0.000000 0.000000 0.048823 0.000000
# 6 0.000000 0.000000 0.000000 0.000000 0.000000 0.019202
#
#
# Mechanical properties :
#
#
# Convention : Reuss Voigt Hill
#
# Bulk Modulus (GPa) = 50.88750 62.63844 56.76297
# Shear Modulus (GPa) = 28.29506 34.42620 31.36063
#
# Velocity S-wave (km/s) = 3.68927 4.06940 3.88399
# Velocity P-wave (km/s) = 6.52886 7.22571 6.88610
#
# Compressibility (1/GPa) = 0.01965119
#
# Stress axis : x y z
#
# Youngs Moduli (GPa) = 56.65651 69.09760 78.75486
#
# Poissons Ratio (x) = 0.68118 -0.26628
# Poissons Ratio (y) = 0.55853 0.48098
# Poissons Ratio (z) = -0.19156 0.42200
#
# Static dielectric constant tensor:
#      x y z
#    x 3.511500 0.000000 0.000000 
#    y 0.000000 3.968830 0.000000 
#    z 0.000000 0.000000 3.972250 
# 
# 
# High freq. dielectric constant tensor:
#      x y z
#    x 1.805520 0.000000 0.000000 
#    y 0.000000 1.818920 0.000000 
#    z 0.000000 0.000000 1.834760 
# 
# From -- ./inp_files/46676.got.cif
#   From: 2010.03.12/outbox.cif.g09.slc.cpg/sg63_24_cif.got.tgz:46676.got - 2010.04.10 19:34:48.
