data_PCOD8260238
_publ_section_title
;
Structure prediction by ZEFSAII (Michael W. Deem and Ramdas Pophale) SiO2 
 PCOD8260238
Probable space group: C M C M
;
_chemical_formula_sum "Si O2"
_cell_formula_units_Z 112
_cell_length_a 23.364987
_cell_length_b 13.329113
_cell_length_c 17.775335
_cell_angle_alpha 90.000000
_cell_angle_beta 90.000000
_cell_angle_gamma 90.000000
_cell_volume 5535.853492
_symmetry_space_group_name_H-M "C M C M"
_symmetry_group_IT_number 63
_symmetry_cell_setting 'orthorhombic'
loop_
_space_group_symop_operation_xyz
x,y,z
-x,-y,1/2+z
x,-y,-z
-x,y,1/2-z
-x,-y,-z
x,y,1/2-z
-x,y,z
x,-y,1/2+z
1/2+x,1/2+y,z
1/2-x,1/2-y,1/2+z
1/2+x,1/2-y,-z
1/2-x,1/2+y,1/2-z
1/2-x,1/2-y,-z
1/2+x,1/2+y,1/2-z
1/2-x,1/2+y,z
1/2+x,1/2-y,1/2+z
loop_
_atom_site_type_symbol
_atom_site_label
_atom_site_fract_x
_atom_site_fract_y
_atom_site_fract_z
Si Si1 0.065145 0.741386 0.081394
Si Si2 0.132335 0.341219 0.163289
Si Si3 0.434245 0.041064 0.163380
Si Si4 0.264549 0.743374 0.087010
Si Si5 0.837992 0.154321 0.662545
Si Si6 0.669805 0.544158 0.419068
Si Si7 0.934563 0.183051 0.417193
O O1 0.084637 0.631485 0.109005
O O2 0.102140 0.826418 0.121485
O O3 0.000000 0.761123 0.105533
O O4 0.073698 0.750361 0.992240
O O5 0.151864 0.337651 0.250000
O O6 0.105437 0.447831 0.142065
O O7 0.186990 0.324068 0.109778
O O8 0.085006 0.254343 0.151033
O O9 0.425465 0.074035 0.250000
O O10 0.500000 0.010089 0.148872
O O11 0.208094 0.764414 0.134937
O O12 0.287241 0.632404 0.104930
O O13 0.250000 0.750000 0.000000
O O14 0.846474 0.167351 0.750000
O O15 0.820241 0.040954 0.643187
O O16 0.686552 0.500000 0.500000
O O17 0.604347 0.583519 0.420627
O O18 0.000000 0.148446 0.405930
#
# Coordination Sequence:
#
# PCOD8260238 Si02
#       7
#    16  16  16  16  16  16  16
#     4  10  21  39  61  89 126 166 207 253 307 370
#     4  10  21  38  60  89 126 163 204 255 311 366
#     4   9  18  34  57  86 125 167 203 249 307 363
#     4  11  23  43  67  88 119 161 204 256 311 377
#     4  12  25  41  64  94 123 158 206 259 312 370
#     4  11  22  43  65  89 122 163 207 252 311 370
#     4  10  21  37  63  92 122 165 212 256 303 363
#
# _framework density 20.231749000000001
#
# number of rings (size 3 to 8) (size 9 to 14) (size 15 to 20)
#    0.000    1.571    2.857    2.143    0.000    7.143 
#    0.000    2.143    0.000    0.000    0.000    0.000 
#    0.000    0.000    0.000    0.000    0.000    0.000 
#
# Total GULP energy -694626.214266 kJ/mol
# GULP energy per Si atom -12404.039540 kJ/mol
# Density = 2.018570 g / cm^3
# Si number density = 20.231749 Si / 1000 Ang^3
#
#
#
# Elastic Constant Matrix: (Units=GPa)
#
#
# Indices 1 2 3 4 5 6 
#
# 1 102.7081 46.5168 30.0545 0.0000 0.0000 0.0000
# 2 46.5168 103.4896 18.6808 0.0000 0.0000 0.0000
# 3 30.0545 18.6808 60.3414 0.0000 0.0000 0.0000
# 4 0.0000 0.0000 0.0000 34.2084 0.0000 0.0000
# 5 0.0000 0.0000 0.0000 0.0000 28.0270 0.0000
# 6 0.0000 0.0000 0.0000 0.0000 0.0000 33.5887
#
#
#
# Elastic Compliance Matrix: (Units=1/GPa)
#
#
# Indices 1 2 3 4 5 6 
#
# 1 0.013593 -0.005177 -0.005168 0.000000 0.000000 0.000000
# 2 -0.005177 0.012207 -0.001200 0.000000 0.000000 0.000000
# 3 -0.005168 -0.001200 0.019518 0.000000 0.000000 0.000000
# 4 0.000000 0.000000 0.000000 0.029233 0.000000 0.000000
# 5 0.000000 0.000000 0.000000 0.000000 0.035680 0.000000
# 6 0.000000 0.000000 0.000000 0.000000 0.000000 0.029772
#
#
# Mechanical properties :
#
#
# Convention : Reuss Voigt Hill
#
# Bulk Modulus (GPa) = 44.98972 50.78258 47.88615
# Shear Modulus (GPa) = 29.32527 30.58395 29.95461
#
# Velocity S-wave (km/s) = 3.81132 3.89225 3.85200
# Velocity P-wave (km/s) = 6.45396 6.73457 6.59576
#
# Compressibility (1/GPa) = 0.02222730
#
# Stress axis : x y z
#
# Youngs Moduli (GPa) = 73.56604 81.92352 51.23509
#
# Poissons Ratio (x) = 0.42413 0.26477
# Poissons Ratio (y) = 0.38086 0.06150
# Poissons Ratio (z) = 0.38017 0.09834
#
# Static dielectric constant tensor:
#      x y z
#    x 3.775780 0.000000 0.000000 
#    y 0.000000 3.618560 0.000000 
#    z 0.000000 0.000000 3.619110 
# 
# 
# High freq. dielectric constant tensor:
#      x y z
#    x 1.795690 0.000000 0.000000 
#    y 0.000000 1.789420 0.000000 
#    z 0.000000 0.000000 1.788720 
# 
# From -- ./inp_files/36953.got.cif
#   From: 2010.03.12/outbox.cif.g09.slc.cpg/sg63_19_cif.got.tgz:36953.got - 2010.04.10 19:34:48.
