data_PCOD8260278
_publ_section_title
;
Structure prediction by ZEFSAII (Michael W. Deem and Ramdas Pophale) SiO2 
 PCOD8260278
Probable space group: C M C M
;
_chemical_formula_sum "Si O2"
_cell_formula_units_Z 96
_cell_length_a 8.820870
_cell_length_b 19.966026
_cell_length_c 28.276300
_cell_angle_alpha 90.000000
_cell_angle_beta 90.000000
_cell_angle_gamma 90.000000
_cell_volume 4979.957479
_symmetry_space_group_name_H-M "C M C M"
_symmetry_group_IT_number 63
_symmetry_cell_setting 'orthorhombic'
loop_
_space_group_symop_operation_xyz
x,y,z
-x,-y,1/2+z
x,-y,-z
-x,y,1/2-z
-x,-y,-z
x,y,1/2-z
-x,y,z
x,-y,1/2+z
1/2+x,1/2+y,z
1/2-x,1/2-y,1/2+z
1/2+x,1/2-y,-z
1/2-x,1/2+y,1/2-z
1/2-x,1/2-y,-z
1/2+x,1/2+y,1/2-z
1/2-x,1/2+y,z
1/2+x,1/2-y,1/2+z
loop_
_atom_site_type_symbol
_atom_site_label
_atom_site_fract_x
_atom_site_fract_y
_atom_site_fract_z
Si Si1 0.322255 0.499654 0.804872
Si Si2 0.820472 0.432406 0.521891
Si Si3 0.679481 0.105570 0.374100
Si Si4 0.178680 0.303577 0.465937
Si Si5 0.172357 0.637285 0.694133
Si Si6 0.321732 0.739818 0.870408
O O1 0.282958 0.487111 0.750000
O O2 0.500000 0.507668 0.813028
O O3 0.260818 0.436583 0.833617
O O4 0.242894 0.567287 0.823785
O O5 0.750229 0.500000 0.500000
O O6 0.758787 0.418126 0.574678
O O7 0.770364 0.375162 0.485723
O O8 0.000000 0.437198 0.525392
O O9 0.500000 0.095916 0.369528
O O10 0.726513 0.182779 0.366681
O O11 0.250000 0.250000 0.500000
O O12 0.240029 0.296607 0.413520
O O13 0.000000 0.294588 0.466430
O O14 0.180733 0.640873 0.750000
O O15 0.268388 0.700546 0.676051
O O16 0.000000 0.641471 0.675565
O O17 0.500000 0.733695 0.877575
#
# Coordination Sequence:
#
# PCOD8260278 Si02
#       6
#    16  16  16  16  16  16
#     4  10  22  40  61  87 120 154 190 242 302 352
#     4   9  19  36  57  83 115 152 194 241 290 344
#     4  10  21  38  59  85 119 158 200 240 290 353
#     4  11  21  37  60  85 117 158 199 243 297 352
#     4  10  22  41  64  89 116 152 199 244 294 360
#     4  11  23  39  59  88 123 158 198 246 300 354
#
# _framework density 19.277273000000001
#
# number of rings (size 3 to 8) (size 9 to 14) (size 15 to 20)
#    0.000    1.833    1.667    2.000    2.333    4.000 
#    0.000    3.333    0.000    2.500    0.000    0.000 
#    0.000    0.000    0.000    0.000    0.000    0.000 
#
# Total GULP energy -595343.737522 kJ/mol
# GULP energy per Si atom -12402.994532 kJ/mol
# Density = 1.923340 g / cm^3
# Si number density = 19.277273 Si / 1000 Ang^3
#
#
#
# Elastic Constant Matrix: (Units=GPa)
#
#
# Indices 1 2 3 4 5 6 
#
# 1 64.9373 55.5281 34.7773 0.0000 0.0000 0.0000
# 2 55.5281 177.4110 70.3400 0.0000 0.0000 0.0000
# 3 34.7773 70.3400 79.1655 0.0000 0.0000 0.0000
# 4 0.0000 0.0000 0.0000 41.1010 0.0000 0.0000
# 5 0.0000 0.0000 0.0000 0.0000 34.9003 0.0000
# 6 0.0000 0.0000 0.0000 0.0000 0.0000 31.3639
#
#
#
# Elastic Compliance Matrix: (Units=1/GPa)
#
#
# Indices 1 2 3 4 5 6 
#
# 1 0.022532 -0.004829 -0.005608 0.000000 0.000000 0.000000
# 2 -0.004829 0.009737 -0.006530 0.000000 0.000000 0.000000
# 3 -0.005608 -0.006530 0.020897 0.000000 0.000000 0.000000
# 4 0.000000 0.000000 0.000000 0.024330 0.000000 0.000000
# 5 0.000000 0.000000 0.000000 0.000000 0.028653 0.000000
# 6 0.000000 0.000000 0.000000 0.000000 0.000000 0.031884
#
#
# Mechanical properties :
#
#
# Convention : Reuss Voigt Hill
#
# Bulk Modulus (GPa) = 51.99451 71.42274 61.70862
# Shear Modulus (GPa) = 28.03029 32.19761 30.11395
#
# Velocity S-wave (km/s) = 3.81735 4.09129 3.95669
# Velocity P-wave (km/s) = 6.81616 7.71031 7.27698
#
# Compressibility (1/GPa) = 0.01923280
#
# Stress axis : x y z
#
# Youngs Moduli (GPa) = 44.38149 102.69889 47.85265
#
# Poissons Ratio (x) = 0.49593 0.26834
# Poissons Ratio (y) = 0.21432 0.31249
# Poissons Ratio (z) = 0.24887 0.67066
#
# Static dielectric constant tensor:
#      x y z
#    x 3.460350 0.000000 0.000000 
#    y 0.000000 3.722140 0.000000 
#    z 0.000000 0.000000 3.489680 
# 
# 
# High freq. dielectric constant tensor:
#      x y z
#    x 1.742050 0.000000 0.000000 
#    y 0.000000 1.763130 0.000000 
#    z 0.000000 0.000000 1.755780 
# 
# From -- ./inp_files/66988.got.cif
#   From: 2010.03.12/outbox.cif.g09.slc.cpg/sg63_34_cif.got.tgz:66988.got - 2010.04.10 19:34:48.
