data_PCOD8260015
_publ_section_title
;
Structure prediction by ZEFSAII (Michael W. Deem and Ramdas Pophale) SiO2 
 PCOD8260015
Probable space group: C M C M
;
_chemical_formula_sum "Si O2"
_cell_formula_units_Z 112
_cell_length_a 24.738953
_cell_length_b 17.110060
_cell_length_c 14.002509
_cell_angle_alpha 90.000000
_cell_angle_beta 90.000000
_cell_angle_gamma 90.000000
_cell_volume 5927.051604
_symmetry_space_group_name_H-M "C M C M"
_symmetry_group_IT_number 63
_symmetry_cell_setting 'orthorhombic'
loop_
_space_group_symop_operation_xyz
x,y,z
-x,-y,1/2+z
x,-y,-z
-x,y,1/2-z
-x,-y,-z
x,y,1/2-z
-x,y,z
x,-y,1/2+z
1/2+x,1/2+y,z
1/2-x,1/2-y,1/2+z
1/2+x,1/2-y,-z
1/2-x,1/2+y,1/2-z
1/2-x,1/2-y,-z
1/2+x,1/2+y,1/2-z
1/2-x,1/2+y,z
1/2+x,1/2-y,1/2+z
loop_
_atom_site_type_symbol
_atom_site_label
_atom_site_fract_x
_atom_site_fract_y
_atom_site_fract_z
Si Si1 0.231140 0.056252 0.861879
Si Si2 0.897217 0.696430 0.990867
Si Si3 0.855053 0.441775 0.138000
Si Si4 0.059776 0.171424 0.358258
Si Si5 0.061447 0.577882 0.139935
Si Si6 0.164899 0.089944 0.140376
Si Si7 0.198831 0.199773 0.983900
O O1 0.225395 0.064575 0.750000
O O2 0.293229 0.035942 0.889743
O O3 0.209097 0.136615 0.902906
O O4 0.190907 0.989165 0.901856
O O5 0.870642 0.635680 0.917994
O O6 0.933709 0.755942 0.930142
O O7 0.931846 0.653246 0.072385
O O8 0.851174 0.745461 0.045993
O O9 0.860445 0.424083 0.250000
O O10 0.895443 0.511897 0.108143
O O11 0.068376 0.202899 0.250000
O O12 0.100152 0.097840 0.376426
O O13 0.000000 0.136824 0.372394
O O14 0.071756 0.602299 0.250000
O O15 0.000000 0.545726 0.127721
O O16 0.181631 0.097619 0.250000
O O17 0.190152 0.163391 0.087777
O O18 0.250000 0.250000 0.000000
#
# Coordination Sequence:
#
# PCOD8260015 Si02
#       7
#    16  16  16  16  16  16  16
#     4  10  21  38  58  80 111 146 183 222 268 326
#     4  11  21  34  56  81 112 144 181 221 278 330
#     4  10  21  36  55  79 107 142 182 227 273 324
#     4   9  18  34  57  85 111 137 177 228 280 326
#     4  10  23  40  55  76 108 147 192 232 265 314
#     4   9  20  36  56  79 109 145 179 223 272 320
#     4  11  22  34  53  82 113 144 177 222 271 328
#
# _framework density 18.896409999999999
#
# number of rings (size 3 to 8) (size 9 to 14) (size 15 to 20)
#    0.000    2.000    1.429    1.714    2.000    4.571 
#    0.000    1.429    0.000    7.714    0.000    2.000 
#    0.000    0.000    0.000    0.000    0.000    0.000 
#
# Total GULP energy -694215.633939 kJ/mol
# GULP energy per Si atom -12396.707749 kJ/mol
# Density = 1.885340 g / cm^3
# Si number density = 18.896410 Si / 1000 Ang^3
#
#
#
# Elastic Constant Matrix: (Units=GPa)
#
#
# Indices 1 2 3 4 5 6 
#
# 1 155.3387 70.2766 41.1298 0.0000 0.0000 0.0000
# 2 70.2766 94.9060 27.3280 0.0000 0.0000 0.0000
# 3 41.1298 27.3280 48.1137 0.0000 0.0000 0.0000
# 4 0.0000 0.0000 0.0000 30.6644 0.0000 0.0000
# 5 0.0000 0.0000 0.0000 0.0000 19.8218 0.0000
# 6 0.0000 0.0000 0.0000 0.0000 0.0000 33.0803
#
#
#
# Elastic Compliance Matrix: (Units=1/GPa)
#
#
# Indices 1 2 3 4 5 6 
#
# 1 0.010816 -0.006392 -0.005616 0.000000 0.000000 0.000000
# 2 -0.006392 0.016375 -0.003836 0.000000 0.000000 0.000000
# 3 -0.005616 -0.003836 0.027763 0.000000 0.000000 0.000000
# 4 0.000000 0.000000 0.000000 0.032611 0.000000 0.000000
# 5 0.000000 0.000000 0.000000 0.000000 0.050449 0.000000
# 6 0.000000 0.000000 0.000000 0.000000 0.000000 0.030229
#
#
# Mechanical properties :
#
#
# Convention : Reuss Voigt Hill
#
# Bulk Modulus (GPa) = 42.98045 63.98080 53.48063
# Shear Modulus (GPa) = 24.07453 27.35492 25.71472
#
# Velocity S-wave (km/s) = 3.57322 3.80889 3.69294
# Velocity P-wave (km/s) = 6.31020 7.29903 6.82255
#
# Compressibility (1/GPa) = 0.02326639
#
# Stress axis : x y z
#
# Youngs Moduli (GPa) = 92.45246 61.06923 36.01861
#
# Poissons Ratio (x) = 0.39038 0.20226
# Poissons Ratio (y) = 0.59099 0.13818
# Poissons Ratio (z) = 0.51917 0.23427
#
# Static dielectric constant tensor:
#      x y z
#    x 3.744130 0.000000 0.000000 
#    y 0.000000 3.729960 0.000000 
#    z 0.000000 0.000000 3.818970 
# 
# 
# High freq. dielectric constant tensor:
#      x y z
#    x 1.743520 0.000000 0.000000 
#    y 0.000000 1.721100 0.000000 
#    z 0.000000 0.000000 1.741130 
# 
# From -- ./inp_files/36875.got.cif
#   From: 2010.03.12/outbox.cif.g09.slc.cpg/sg63_19_cif.got.tgz:36875.got - 2010.04.10 19:34:48.
