data_PCOD8260540
_publ_section_title
;
Structure prediction by ZEFSAII (Michael W. Deem and Ramdas Pophale) SiO2 
 PCOD8260540
Probable space group: C M C M
;
_chemical_formula_sum "Si O2"
_cell_formula_units_Z 64
_cell_length_a 16.619866
_cell_length_b 10.108096
_cell_length_c 18.488658
_cell_angle_alpha 90.000000
_cell_angle_beta 90.000000
_cell_angle_gamma 90.000000
_cell_volume 3106.005818
_symmetry_space_group_name_H-M "C M C M"
_symmetry_group_IT_number 63
_symmetry_cell_setting 'orthorhombic'
loop_
_space_group_symop_operation_xyz
x,y,z
-x,-y,1/2+z
x,-y,-z
-x,y,1/2-z
-x,-y,-z
x,y,1/2-z
-x,y,z
x,-y,1/2+z
1/2+x,1/2+y,z
1/2-x,1/2-y,1/2+z
1/2+x,1/2-y,-z
1/2-x,1/2+y,1/2-z
1/2-x,1/2-y,-z
1/2+x,1/2+y,1/2-z
1/2-x,1/2+y,z
1/2+x,1/2-y,1/2+z
loop_
_atom_site_type_symbol
_atom_site_label
_atom_site_fract_x
_atom_site_fract_y
_atom_site_fract_z
Si Si1 0.500000 0.322307 0.333343
Si Si2 0.589394 0.205701 0.942115
Si Si3 0.000000 0.130646 0.335277
Si Si4 0.838648 0.765589 0.092905
Si Si5 0.222715 0.510230 0.581755
O O1 0.500000 0.291863 0.250000
O O2 0.500000 0.476525 0.351392
O O3 0.578340 0.254364 0.365497
O O4 0.500000 0.166856 0.971036
O O5 0.579471 0.309076 0.875070
O O6 0.633953 0.075500 0.912810
O O7 0.643173 0.268273 0.006509
O O8 0.000000 0.164391 0.250000
O O9 0.784542 0.637235 0.114697
O O10 0.789485 0.895496 0.119411
O O11 0.251456 0.500000 0.500000
#
# Coordination Sequence:
#
# PCOD8260540 Si02
#       5
#     8  16   8  16  16
#     4  11  25  42  63  88 124 166 209 252 304 371
#     4   9  19  35  63  94 122 163 204 252 305 359
#     4   9  21  38  59  88 124 160 205 248 300 367
#     4  11  23  40  64  93 127 159 207 255 313 363
#     4  10  22  36  62  97 130 155 198 265 309 366
#
# _framework density 20.605242000000001
#
# number of rings (size 3 to 8) (size 9 to 14) (size 15 to 20)
#    0.750    1.250    1.250    3.000    8.750    2.500 
#    0.000    5.000    0.000    0.000    0.000    0.000 
#    0.000    0.000    0.000    0.000    0.000    0.000 
#
# Total GULP energy -396551.853378 kJ/mol
# GULP energy per Si atom -12392.245418 kJ/mol
# Density = 2.055834 g / cm^3
# Si number density = 20.605242 Si / 1000 Ang^3
#
#
#
# Elastic Constant Matrix: (Units=GPa)
#
#
# Indices 1 2 3 4 5 6 
#
# 1 120.0160 56.6094 11.4685 0.0000 0.0000 0.0000
# 2 56.6094 126.6688 42.9097 0.0000 0.0000 0.0000
# 3 11.4685 42.9097 59.6219 0.0000 0.0000 0.0000
# 4 0.0000 0.0000 0.0000 14.4537 0.0000 0.0000
# 5 0.0000 0.0000 0.0000 0.0000 -0.1244 0.0000
# 6 0.0000 0.0000 0.0000 0.0000 0.0000 44.9200
#
#
#
# Elastic Compliance Matrix: (Units=1/GPa)
#
#
# Indices 1 2 3 4 5 6 
#
# 1 0.010707 -0.005405 0.001830 0.000000 0.000000 0.000000
# 2 -0.005405 0.013168 -0.008438 0.000000 0.000000 0.000000
# 3 0.001830 -0.008438 0.022493 0.000000 0.000000 0.000000
# 4 0.000000 0.000000 0.000000 0.069186 0.000000 0.000000
# 5 0.000000 0.000000 0.000000 0.000000 -8.035830 0.000000
# 6 0.000000 0.000000 0.000000 0.000000 0.000000 0.022262
#
#
# Mechanical properties :
#
#
# Convention : Reuss Voigt Hill
#
# Bulk Modulus (GPa) = 44.75535 58.69800 51.72668
# Shear Modulus (GPa) = -0.63560 24.87112 12.11776
#
# Velocity S-wave (km/s) = -0.55600 3.47800 2.42769
# Velocity P-wave (km/s) = 4.62118 6.68412 5.74599
#
# Compressibility (1/GPa) = 0.02234370
#
# Stress axis : x y z
#
# Youngs Moduli (GPa) = 93.39885 75.93908 44.45869
#
# Poissons Ratio (x) = 0.41045 -0.08138
# Poissons Ratio (y) = 0.50482 0.37513
# Poissons Ratio (z) = -0.17097 0.64074
#
# Static dielectric constant tensor:
#      x y z
#    x 3.701250 0.000000 0.000000 
#    y 0.000000 3.898690 0.000000 
#    z 0.000000 0.000000 3.273780 
# 
# 
# High freq. dielectric constant tensor:
#      x y z
#    x 1.817640 0.000000 0.000000 
#    y 0.000000 1.812930 0.000000 
#    z 0.000000 0.000000 1.751200 
# 
# From -- ./inp_files/45171.got.cif
#   From: 2010.03.12/outbox.cif.g09.slc.cpg/sg63_23_cif.got.tgz:45171.got - 2010.04.10 19:34:48.
