data_PCOD8260471
_publ_section_title
;
Structure prediction by ZEFSAII (Michael W. Deem and Ramdas Pophale) SiO2 
 PCOD8260471
Probable space group: C M C M
;
_chemical_formula_sum "Si O2"
_cell_formula_units_Z 64
_cell_length_a 15.504158
_cell_length_b 8.713680
_cell_length_c 22.076267
_cell_angle_alpha 90.000000
_cell_angle_beta 90.000000
_cell_angle_gamma 90.000000
_cell_volume 2982.465512
_symmetry_space_group_name_H-M "C M C M"
_symmetry_group_IT_number 63
_symmetry_cell_setting 'orthorhombic'
loop_
_space_group_symop_operation_xyz
x,y,z
-x,-y,1/2+z
x,-y,-z
-x,y,1/2-z
-x,-y,-z
x,y,1/2-z
-x,y,z
x,-y,1/2+z
1/2+x,1/2+y,z
1/2-x,1/2-y,1/2+z
1/2+x,1/2-y,-z
1/2-x,1/2+y,1/2-z
1/2-x,1/2-y,-z
1/2+x,1/2+y,1/2-z
1/2-x,1/2+y,z
1/2+x,1/2-y,1/2+z
loop_
_atom_site_type_symbol
_atom_site_label
_atom_site_fract_x
_atom_site_fract_y
_atom_site_fract_z
Si Si1 0.000000 0.938684 0.121207
Si Si2 0.672900 0.047105 0.568300
Si Si3 0.362262 0.274465 0.750000
Si Si4 0.000000 0.399397 0.616935
Si Si5 0.500000 0.468921 0.250000
Si Si6 0.000000 0.487910 0.250000
Si Si7 0.673503 0.632981 0.379214
O O1 0.000000 0.869866 0.189548
O O2 0.083808 0.042502 0.110150
O O3 0.000000 0.773914 0.087738
O O4 0.582242 0.985681 0.591257
O O5 0.748416 0.982164 0.610568
O O6 0.691132 0.000000 0.500000
O O7 0.673795 0.231193 0.571742
O O8 0.417508 0.425818 0.750000
O O9 0.310068 0.288700 0.813027
O O10 0.415174 0.117569 0.750000
O O11 0.000000 0.407481 0.690133
#
# Coordination Sequence:
#
# PCOD8260471 Si02
#       7
#     8  16   8   8   4   4  16
#     4  10  21  40  65 100 131 173 220 271 342 403
#     4  12  26  45  65  96 136 185 234 277 331 403
#     4   9  18  37  67  97 128 164 214 272 349 401
#     4  12  24  41  69  99 131 177 223 283 340 404
#     4   7  15  32  58  90 128 160 194 260 324 406
#     4  11  19  40  70 100 132 166 216 280 354 410
#     4  11  23  43  69  97 137 177 224 286 340 403
#
# _framework density 21.458755
#
# number of rings (size 3 to 8) (size 9 to 14) (size 15 to 20)
#    0.000    1.250    2.500    4.500    0.000    2.000 
#    0.000    4.375    0.000    0.000    0.000    0.000 
#    0.000    0.000    0.000    0.000    0.000    0.000 
#
# Total GULP energy -396612.174586 kJ/mol
# GULP energy per Si atom -12394.130456 kJ/mol
# Density = 2.140991 g / cm^3
# Si number density = 21.458755 Si / 1000 Ang^3
#
#
#
# Elastic Constant Matrix: (Units=GPa)
#
#
# Indices 1 2 3 4 5 6 
#
# 1 149.6771 52.1911 23.9553 0.0000 0.0000 0.0000
# 2 52.1911 130.3397 4.9003 0.0000 0.0000 0.0000
# 3 23.9553 4.9003 78.8255 0.0000 0.0000 0.0000
# 4 0.0000 0.0000 0.0000 11.4009 0.0000 0.0000
# 5 0.0000 0.0000 0.0000 0.0000 21.3870 0.0000
# 6 0.0000 0.0000 0.0000 0.0000 0.0000 97.3537
#
#
#
# Elastic Compliance Matrix: (Units=1/GPa)
#
#
# Indices 1 2 3 4 5 6 
#
# 1 0.008155 -0.003180 -0.002281 0.000000 0.000000 0.000000
# 2 -0.003180 0.008930 0.000411 0.000000 0.000000 0.000000
# 3 -0.002281 0.000411 0.013354 0.000000 0.000000 0.000000
# 4 0.000000 0.000000 0.000000 0.087713 0.000000 0.000000
# 5 0.000000 0.000000 0.000000 0.000000 0.046757 0.000000
# 6 0.000000 0.000000 0.000000 0.000000 0.000000 0.010272
#
#
# Mechanical properties :
#
#
# Convention : Reuss Voigt Hill
#
# Bulk Modulus (GPa) = 49.16323 57.88175 53.52249
# Shear Modulus (GPa) = 26.03374 44.54803 35.29089
#
# Velocity S-wave (km/s) = 3.48688 4.56124 4.05976
# Velocity P-wave (km/s) = 6.25871 7.40081 6.85359
#
# Compressibility (1/GPa) = 0.02034041
#
# Stress axis : x y z
#
# Youngs Moduli (GPa) = 122.62791 111.98214 74.88524
#
# Poissons Ratio (x) = 0.35606 0.17078
# Poissons Ratio (y) = 0.38991 -0.03079
# Poissons Ratio (z) = 0.27966 -0.04604
#
# Static dielectric constant tensor:
#      x y z
#    x 6.113530 0.000000 0.000000 
#    y 0.000000 3.835300 0.000000 
#    z 0.000000 0.000000 4.210570 
# 
# 
# High freq. dielectric constant tensor:
#      x y z
#    x 1.837880 0.000000 0.000000 
#    y 0.000000 1.857660 0.000000 
#    z 0.000000 0.000000 1.842720 
# 
# From -- ./inp_files/62420.got.cif
#   From: 2010.03.12/outbox.cif.g09.slc.cpg/sg63_32_cif.got.tgz:62420.got - 2010.04.10 19:34:48.
