data_PCOD8260597
_publ_section_title
;
Structure prediction by ZEFSAII (Michael W. Deem and Ramdas Pophale) SiO2 
 PCOD8260597
Probable space group: C M C M
;
_chemical_formula_sum "Si O2"
_cell_formula_units_Z 112
_cell_length_a 13.846879
_cell_length_b 16.347624
_cell_length_c 24.024089
_cell_angle_alpha 90.000000
_cell_angle_beta 90.000000
_cell_angle_gamma 90.000000
_cell_volume 5438.178587
_symmetry_space_group_name_H-M "C M C M"
_symmetry_group_IT_number 63
_symmetry_cell_setting 'orthorhombic'
loop_
_space_group_symop_operation_xyz
x,y,z
-x,-y,1/2+z
x,-y,-z
-x,y,1/2-z
-x,-y,-z
x,y,1/2-z
-x,y,z
x,-y,1/2+z
1/2+x,1/2+y,z
1/2-x,1/2-y,1/2+z
1/2+x,1/2-y,-z
1/2-x,1/2+y,1/2-z
1/2-x,1/2-y,-z
1/2+x,1/2+y,1/2-z
1/2-x,1/2+y,z
1/2+x,1/2-y,1/2+z
loop_
_atom_site_type_symbol
_atom_site_label
_atom_site_fract_x
_atom_site_fract_y
_atom_site_fract_z
Si Si1 0.387973 0.775033 0.813288
Si Si2 0.114147 0.018497 0.910812
Si Si3 0.614716 0.101387 0.092754
Si Si4 0.387900 0.919776 0.118663
Si Si5 0.885143 0.874427 0.514132
Si Si6 0.287063 0.605450 0.813899
Si Si7 0.613730 0.192273 0.514741
O O1 0.369076 0.803381 0.750000
O O2 0.500000 0.754571 0.823515
O O3 0.352156 0.847996 0.852961
O O4 0.329628 0.693900 0.828205
O O5 0.162219 0.036623 0.851564
O O6 0.000000 0.019552 0.902797
O O7 0.149962 0.929878 0.933593
O O8 0.147483 0.086917 0.955417
O O9 0.500000 0.101045 0.087678
O O10 0.649642 0.008027 0.097547
O O11 0.659821 0.142343 0.037120
O O12 0.500000 0.920751 0.135444
O O13 0.327412 0.893748 0.173026
O O14 0.363468 0.855145 0.070982
O O15 0.840722 0.783333 0.518124
O O16 0.000000 0.872735 0.516207
O O17 0.304786 0.581881 0.750000
O O18 0.500000 0.199998 0.504965
#
# Coordination Sequence:
#
# PCOD8260597 Si02
#       7
#    16  16  16  16  16  16  16
#     4   9  18  34  58  86 112 138 175 229 288 338
#     4   9  17  33  56  85 121 152 180 222 280 342
#     4   9  17  33  59  85 109 142 183 232 285 333
#     4  10  22  39  56  77 111 152 192 235 279 329
#     4   8  15  30  56  87 118 150 180 219 275 344
#     4  11  23  38  55  81 111 145 192 237 280 331
#     4   9  16  31  56  82 109 142 183 230 281 333
#
# _framework density 20.595130000000001
#
# number of rings (size 3 to 8) (size 9 to 14) (size 15 to 20)
#    0.000    2.714    0.000    2.571    0.000    5.714 
#    7.714    2.857    0.000    0.000    0.000    4.000 
#    0.000    0.000    0.000    0.000    0.000    0.000 
#
# Total GULP energy -694409.739931 kJ/mol
# GULP energy per Si atom -12400.173927 kJ/mol
# Density = 2.054825 g / cm^3
# Si number density = 20.595130 Si / 1000 Ang^3
#
#
#
# Elastic Constant Matrix: (Units=GPa)
#
#
# Indices 1 2 3 4 5 6 
#
# 1 39.8414 31.2374 24.5320 0.0000 0.0000 0.0000
# 2 31.2374 161.3879 68.5366 0.0000 0.0000 0.0000
# 3 24.5320 68.5366 116.9062 0.0000 0.0000 0.0000
# 4 0.0000 0.0000 0.0000 30.0718 0.0000 0.0000
# 5 0.0000 0.0000 0.0000 0.0000 28.5548 0.0000
# 6 0.0000 0.0000 0.0000 0.0000 0.0000 8.6055
#
#
#
# Elastic Compliance Matrix: (Units=1/GPa)
#
#
# Indices 1 2 3 4 5 6 
#
# 1 0.030912 -0.004299 -0.003967 0.000000 0.000000 0.000000
# 2 -0.004299 0.008848 -0.004285 0.000000 0.000000 0.000000
# 3 -0.003967 -0.004285 0.011898 0.000000 0.000000 0.000000
# 4 0.000000 0.000000 0.000000 0.033254 0.000000 0.000000
# 5 0.000000 0.000000 0.000000 0.000000 0.035020 0.000000
# 6 0.000000 0.000000 0.000000 0.000000 0.000000 0.116205
#
#
# Mechanical properties :
#
#
# Convention : Reuss Voigt Hill
#
# Bulk Modulus (GPa) = 37.65363 62.97195 50.31279
# Shear Modulus (GPa) = 18.51227 26.36838 22.44032
#
# Velocity S-wave (km/s) = 3.00136 3.58204 3.30448
# Velocity P-wave (km/s) = 5.50757 6.91017 6.24836
#
# Compressibility (1/GPa) = 0.02655787
#
# Stress axis : x y z
#
# Youngs Moduli (GPa) = 32.34952 113.01897 84.04480
#
# Poissons Ratio (x) = 0.48584 0.33337
# Poissons Ratio (y) = 0.13906 0.36014
# Poissons Ratio (z) = 0.12832 0.48430
#
# Static dielectric constant tensor:
#      x y z
#    x 3.551820 0.000000 0.000000 
#    y 0.000000 3.981410 0.000000 
#    z 0.000000 0.000000 3.601360 
# 
# 
# High freq. dielectric constant tensor:
#      x y z
#    x 1.803800 0.000000 0.000000 
#    y 0.000000 1.809510 0.000000 
#    z 0.000000 0.000000 1.791310 
# 
# From -- ./inp_files/62977.got.cif
#   From: 2010.03.12/outbox.cif.g09.slc.cpg/sg63_32_cif.got.tgz:62977.got - 2010.04.10 19:34:48.
