data_PCOD8260929
_publ_section_title
;
Structure prediction by ZEFSAII (Michael W. Deem and Ramdas Pophale) SiO2 
 PCOD8260929
Probable space group: C M C M
;
_chemical_formula_sum "Si O2"
_cell_formula_units_Z 80
_cell_length_a 18.910069
_cell_length_b 14.716075
_cell_length_c 14.206134
_cell_angle_alpha 90.000000
_cell_angle_beta 90.000000
_cell_angle_gamma 90.000000
_cell_volume 3953.311292
_symmetry_space_group_name_H-M "C M C M"
_symmetry_group_IT_number 63
_symmetry_cell_setting 'orthorhombic'
loop_
_space_group_symop_operation_xyz
x,y,z
-x,-y,1/2+z
x,-y,-z
-x,y,1/2-z
-x,-y,-z
x,y,1/2-z
-x,y,z
x,-y,1/2+z
1/2+x,1/2+y,z
1/2-x,1/2-y,1/2+z
1/2+x,1/2-y,-z
1/2-x,1/2+y,1/2-z
1/2-x,1/2-y,-z
1/2+x,1/2+y,1/2-z
1/2-x,1/2+y,z
1/2+x,1/2-y,1/2+z
loop_
_atom_site_type_symbol
_atom_site_label
_atom_site_fract_x
_atom_site_fract_y
_atom_site_fract_z
Si Si1 0.205078 0.216427 0.645421
Si Si2 0.197438 0.582370 0.360156
Si Si3 0.578260 0.054710 0.638225
Si Si4 0.871218 0.253539 0.143136
Si Si5 0.338775 0.405095 0.975635
O O1 0.186946 0.180989 0.750000
O O2 0.169204 0.314546 0.626449
O O3 0.288187 0.230706 0.634028
O O4 0.178835 0.142299 0.573684
O O5 0.213881 0.563500 0.250000
O O6 0.136578 0.515593 0.400807
O O7 0.268624 0.566182 0.418376
O O8 0.585013 0.057068 0.750000
O O9 0.500000 0.022682 0.606474
O O10 0.591052 0.157229 0.600545
O O11 0.895302 0.235955 0.250000
O O12 0.889508 0.162564 0.083799
O O13 0.378531 0.500000 0.000000
#
# Coordination Sequence:
#
# PCOD8260929 Si02
#       5
#    16  16  16  16  16
#     4   9  18  31  48  68  94 130 165 204 248 294
#     4   9  17  30  48  73 103 131 161 198 248 304
#     4   9  17  30  51  78 107 137 165 198 243 300
#     4   9  17  30  47  70  99 128 162 200 244 296
#     4  11  20  29  47  69  96 131 166 209 250 287
#
# _framework density 20.236201999999999
#
# number of rings (size 3 to 8) (size 9 to 14) (size 15 to 20)
#    0.000    2.600    0.000    5.400    0.000    3.200 
#    0.000    0.000    0.000   15.600    0.000    0.000 
#    0.000    6.400    0.000    0.000    0.000    0.000 
#
# Total GULP energy -495799.492563 kJ/mol
# GULP energy per Si atom -12394.987314 kJ/mol
# Density = 2.019014 g / cm^3
# Si number density = 20.236202 Si / 1000 Ang^3
#
#
#
# Elastic Constant Matrix: (Units=GPa)
#
#
# Indices 1 2 3 4 5 6 
#
# 1 49.0698 25.0713 3.3901 0.0000 0.0000 0.0000
# 2 25.0713 129.5318 41.3955 0.0000 0.0000 0.0000
# 3 3.3901 41.3955 73.5357 0.0000 0.0000 0.0000
# 4 0.0000 0.0000 0.0000 33.9786 0.0000 0.0000
# 5 0.0000 0.0000 0.0000 0.0000 4.0711 0.0000
# 6 0.0000 0.0000 0.0000 0.0000 0.0000 17.4154
#
#
#
# Elastic Compliance Matrix: (Units=1/GPa)
#
#
# Indices 1 2 3 4 5 6 
#
# 1 0.022798 -0.004971 0.001747 0.000000 0.000000 0.000000
# 2 -0.004971 0.010498 -0.005680 0.000000 0.000000 0.000000
# 3 0.001747 -0.005680 0.016716 0.000000 0.000000 0.000000
# 4 0.000000 0.000000 0.000000 0.029430 0.000000 0.000000
# 5 0.000000 0.000000 0.000000 0.000000 0.245635 0.000000
# 6 0.000000 0.000000 0.000000 0.000000 0.000000 0.057420
#
#
# Mechanical properties :
#
#
# Convention : Reuss Voigt Hill
#
# Bulk Modulus (GPa) = 31.05227 43.53901 37.29564
# Shear Modulus (GPa) = 12.16426 23.24504 17.70465
#
# Velocity S-wave (km/s) = 2.45442 3.39290 2.96108
# Velocity P-wave (km/s) = 4.83844 6.07546 5.49189
#
# Compressibility (1/GPa) = 0.03220376
#
# Stress axis : x y z
#
# Youngs Moduli (GPa) = 43.86291 95.26025 59.82342
#
# Poissons Ratio (x) = 0.47355 -0.10453
# Poissons Ratio (y) = 0.21805 0.33981
# Poissons Ratio (z) = -0.07664 0.54110
#
# Static dielectric constant tensor:
#      x y z
#    x 3.218040 0.000000 0.000000 
#    y 0.000000 4.148640 0.000000 
#    z 0.000000 0.000000 3.822050 
# 
# 
# High freq. dielectric constant tensor:
#      x y z
#    x 1.719820 0.000000 0.000000 
#    y 0.000000 1.804480 0.000000 
#    z 0.000000 0.000000 1.797710 
# 
# From -- ./inp_files/35097.got.cif
#   From: 2010.03.12/outbox.cif.g09.slc.cpg/sg63_18_cif.got.tgz:35097.got - 2010.04.10 19:34:48.
