data_PCOD8260974
_publ_section_title
;
Structure prediction by ZEFSAII (Michael W. Deem and Ramdas Pophale) SiO2 
 PCOD8260974
Probable space group: C M C M
;
_chemical_formula_sum "Si O2"
_cell_formula_units_Z 96
_cell_length_a 23.862095
_cell_length_b 13.858837
_cell_length_c 17.673232
_cell_angle_alpha 90.000000
_cell_angle_beta 90.000000
_cell_angle_gamma 90.000000
_cell_volume 5844.553465
_symmetry_space_group_name_H-M "C M C M"
_symmetry_group_IT_number 63
_symmetry_cell_setting 'orthorhombic'
loop_
_space_group_symop_operation_xyz
x,y,z
-x,-y,1/2+z
x,-y,-z
-x,y,1/2-z
-x,-y,-z
x,y,1/2-z
-x,y,z
x,-y,1/2+z
1/2+x,1/2+y,z
1/2-x,1/2-y,1/2+z
1/2+x,1/2-y,-z
1/2-x,1/2+y,1/2-z
1/2-x,1/2-y,-z
1/2+x,1/2+y,1/2-z
1/2-x,1/2+y,z
1/2+x,1/2-y,1/2+z
loop_
_atom_site_type_symbol
_atom_site_label
_atom_site_fract_x
_atom_site_fract_y
_atom_site_fract_z
Si Si1 0.938603 0.814072 0.840184
Si Si2 0.333440 0.423855 0.838891
Si Si3 0.279138 0.821424 0.661166
Si Si4 0.665974 0.001937 0.089028
Si Si5 0.935620 0.404832 0.337684
Si Si6 0.231852 0.895240 0.339720
O O1 0.938120 0.816730 0.750000
O O2 0.891520 0.885574 0.875482
O O3 0.926092 0.704801 0.865707
O O4 0.000000 0.846935 0.869828
O O5 0.341891 0.426406 0.750000
O O6 0.284035 0.350463 0.860690
O O7 0.316951 0.531146 0.867329
O O8 0.289940 0.834536 0.750000
O O9 0.322692 0.889351 0.617655
O O10 0.287281 0.711036 0.634855
O O11 0.603182 0.974527 0.112879
O O12 0.709199 0.924925 0.123988
O O13 0.672186 0.000000 0.000000
O O14 0.919021 0.415365 0.250000
O O15 0.000000 0.435636 0.350529
O O16 0.240870 0.900961 0.250000
#
# Coordination Sequence:
#
# PCOD8260974 Si02
#       6
#    16  16  16  16  16  16
#     4   8  13  22  40  66  89 107 135 181 230 267
#     4   8  13  22  39  63  86 108 136 175 222 261
#     4   9  17  30  48  66  87 118 154 187 218 264
#     4  11  21  30  44  68  97 122 146 185 237 289
#     4   9  17  30  48  67  87 115 153 192 226 267
#     4   9  17  30  47  64  86 120 158 190 221 266
#
# _framework density 16.425549
#
# number of rings (size 3 to 8) (size 9 to 14) (size 15 to 20)
#    0.000    3.000    0.000    4.500    0.000    3.667 
#    0.000    0.000    0.000    1.000    0.000    4.667 
#    0.000   13.333    0.000    0.000    0.000    0.000 
#
# Total GULP energy -594954.542107 kJ/mol
# GULP energy per Si atom -12394.886294 kJ/mol
# Density = 1.638816 g / cm^3
# Si number density = 16.425549 Si / 1000 Ang^3
#
#
#
# Elastic Constant Matrix: (Units=GPa)
#
#
# Indices 1 2 3 4 5 6 
#
# 1 111.5681 62.7678 27.3040 0.0000 0.0000 0.0000
# 2 62.7678 119.6963 36.6881 0.0000 0.0000 0.0000
# 3 27.3040 36.6881 42.0471 0.0000 0.0000 0.0000
# 4 0.0000 0.0000 0.0000 6.6603 0.0000 0.0000
# 5 0.0000 0.0000 0.0000 0.0000 9.0545 0.0000
# 6 0.0000 0.0000 0.0000 0.0000 0.0000 24.3434
#
#
#
# Elastic Compliance Matrix: (Units=1/GPa)
#
#
# Indices 1 2 3 4 5 6 
#
# 1 0.013065 -0.005803 -0.003421 0.000000 0.000000 0.000000
# 2 -0.005803 0.013982 -0.008432 0.000000 0.000000 0.000000
# 3 -0.003421 -0.008432 0.033361 0.000000 0.000000 0.000000
# 4 0.000000 0.000000 0.000000 0.150142 0.000000 0.000000
# 5 0.000000 0.000000 0.000000 0.000000 0.110442 0.000000
# 6 0.000000 0.000000 0.000000 0.000000 0.000000 0.041079
#
#
# Mechanical properties :
#
#
# Convention : Reuss Voigt Hill
#
# Bulk Modulus (GPa) = 39.84448 58.53680 49.19064
# Shear Modulus (GPa) = 12.32295 17.78177 15.05236
#
# Velocity S-wave (km/s) = 2.74201 3.29381 3.03049
# Velocity P-wave (km/s) = 5.85961 7.08383 6.50060
#
# Compressibility (1/GPa) = 0.02509758
#
# Stress axis : x y z
#
# Youngs Moduli (GPa) = 76.54139 71.52214 29.97487
#
# Poissons Ratio (x) = 0.41501 0.10254
# Poissons Ratio (y) = 0.44414 0.25274
# Poissons Ratio (z) = 0.26184 0.60305
#
# Static dielectric constant tensor:
#      x y z
#    x 3.289000 0.000000 0.000000 
#    y 0.000000 3.327120 0.000000 
#    z 0.000000 0.000000 2.673800 
# 
# 
# High freq. dielectric constant tensor:
#      x y z
#    x 1.627540 0.000000 0.000000 
#    y 0.000000 1.631880 0.000000 
#    z 0.000000 0.000000 1.586670 
# 
# From -- ./inp_files/56701.got.cif
#   From: 2010.03.12/outbox.cif.g09.slc.cpg/sg63_29_cif.got.tgz:56701.got - 2010.04.10 19:34:48.
