data_PCOD8260778
_publ_section_title
;
Structure prediction by ZEFSAII (Michael W. Deem and Ramdas Pophale) SiO2 
 PCOD8260778
Probable space group: C M C M
;
_chemical_formula_sum "Si O2"
_cell_formula_units_Z 112
_cell_length_a 30.750944
_cell_length_b 10.980528
_cell_length_c 17.058827
_cell_angle_alpha 90.000000
_cell_angle_beta 90.000000
_cell_angle_gamma 90.000000
_cell_volume 5760.110847
_symmetry_space_group_name_H-M "C M C M"
_symmetry_group_IT_number 63
_symmetry_cell_setting 'orthorhombic'
loop_
_space_group_symop_operation_xyz
x,y,z
-x,-y,1/2+z
x,-y,-z
-x,y,1/2-z
-x,-y,-z
x,y,1/2-z
-x,y,z
x,-y,1/2+z
1/2+x,1/2+y,z
1/2-x,1/2-y,1/2+z
1/2+x,1/2-y,-z
1/2-x,1/2+y,1/2-z
1/2-x,1/2-y,-z
1/2+x,1/2+y,1/2-z
1/2-x,1/2+y,z
1/2+x,1/2-y,1/2+z
loop_
_atom_site_type_symbol
_atom_site_label
_atom_site_fract_x
_atom_site_fract_y
_atom_site_fract_z
Si Si1 0.689191 0.857946 0.401685
Si Si2 0.915324 0.886905 0.950648
Si Si3 0.548834 0.809312 0.340522
Si Si4 0.857784 0.715353 0.047566
Si Si5 0.162800 0.100857 0.338991
Si Si6 0.211125 0.917257 0.424020
Si Si7 0.618798 0.989783 0.838349
O O1 0.661540 0.873203 0.481233
O O2 0.685494 0.723375 0.367743
O O3 0.738729 0.885477 0.419167
O O4 0.667166 0.951856 0.341271
O O5 0.948341 0.810899 0.895590
O O6 0.877697 0.936553 0.893310
O O7 0.896119 0.799072 0.016278
O O8 0.936588 0.000000 0.000000
O O9 0.559143 0.773241 0.250000
O O10 0.500000 0.861590 0.347910
O O11 0.583024 0.912026 0.369519
O O12 0.816833 0.794243 0.077390
O O13 0.881044 0.635073 0.113739
O O14 0.147094 0.114243 0.250000
O O15 0.198405 0.994395 0.347052
O O16 0.200629 0.000000 0.500000
O O17 0.607013 0.954255 0.750000
#
# Coordination Sequence:
#
# PCOD8260778 Si02
#       7
#    16  16  16  16  16  16  16
#     4  11  23  36  61  80 114 160 207 251 294 344
#     4  11  20  40  64  89 119 154 203 245 295 356
#     4  10  22  42  69  95 120 154 194 241 302 369
#     4  11  21  38  59  85 117 159 202 242 298 354
#     4  11  22  37  56  81 116 159 203 250 299 352
#     4  12  22  39  56  85 116 161 206 253 297 353
#     4  11  23  39  58  87 122 156 197 250 306 357
#
# _framework density 19.44407
#
# number of rings (size 3 to 8) (size 9 to 14) (size 15 to 20)
#    0.000    1.000    7.143    2.571    2.000    2.000 
#    0.000    1.429    0.000    0.000    0.000    2.000 
#    0.000    0.000    0.000    0.000    0.000    0.000 
#
# Total GULP energy -694268.941315 kJ/mol
# GULP energy per Si atom -12397.659666 kJ/mol
# Density = 1.939981 g / cm^3
# Si number density = 19.444070 Si / 1000 Ang^3
#
#
#
# Elastic Constant Matrix: (Units=GPa)
#
#
# Indices 1 2 3 4 5 6 
#
# 1 79.6257 41.0274 33.2398 0.0000 0.0000 0.0000
# 2 41.0274 95.5702 54.3145 0.0000 0.0000 0.0000
# 3 33.2398 54.3145 94.4116 0.0000 0.0000 0.0000
# 4 0.0000 0.0000 0.0000 32.3939 0.0000 0.0000
# 5 0.0000 0.0000 0.0000 0.0000 22.2804 0.0000
# 6 0.0000 0.0000 0.0000 0.0000 0.0000 16.8089
#
#
#
# Elastic Compliance Matrix: (Units=1/GPa)
#
#
# Indices 1 2 3 4 5 6 
#
# 1 0.016539 -0.005632 -0.002583 0.000000 0.000000 0.000000
# 2 -0.005632 0.017464 -0.008064 0.000000 0.000000 0.000000
# 3 -0.002583 -0.008064 0.016141 0.000000 0.000000 0.000000
# 4 0.000000 0.000000 0.000000 0.030870 0.000000 0.000000
# 5 0.000000 0.000000 0.000000 0.000000 0.044882 0.000000
# 6 0.000000 0.000000 0.000000 0.000000 0.000000 0.059492
#
#
# Mechanical properties :
#
#
# Convention : Reuss Voigt Hill
#
# Bulk Modulus (GPa) = 56.86487 58.53010 57.69748
# Shear Modulus (GPa) = 22.34048 23.69836 23.01942
#
# Velocity S-wave (km/s) = 3.39331 3.49491 3.44449
# Velocity P-wave (km/s) = 6.68293 6.81565 6.74961
#
# Compressibility (1/GPa) = 0.01758555
#
# Stress axis : x y z
#
# Youngs Moduli (GPa) = 60.46338 57.25918 61.95567
#
# Poissons Ratio (x) = 0.32249 0.16002
# Poissons Ratio (y) = 0.34054 0.49963
# Poissons Ratio (z) = 0.15616 0.46175
#
# Static dielectric constant tensor:
#      x y z
#    x 3.348260 0.000000 0.000000 
#    y 0.000000 3.568270 0.000000 
#    z 0.000000 0.000000 3.648620 
# 
# 
# High freq. dielectric constant tensor:
#      x y z
#    x 1.738210 0.000000 0.000000 
#    y 0.000000 1.757810 0.000000 
#    z 0.000000 0.000000 1.754710 
# 
# From -- ./inp_files/38578.got.cif
#   From: 2010.03.12/outbox.cif.g09.slc.cpg/sg63_20_cif.got.tgz:38578.got - 2010.04.10 19:34:48.
