data_PCOD8260469
_publ_section_title
;
Structure prediction by ZEFSAII (Michael W. Deem and Ramdas Pophale) SiO2 
 PCOD8260469
Probable space group: C M C M
;
_chemical_formula_sum "Si O2"
_cell_formula_units_Z 112
_cell_length_a 14.785379
_cell_length_b 12.770436
_cell_length_c 28.467304
_cell_angle_alpha 90.000000
_cell_angle_beta 90.000000
_cell_angle_gamma 90.000000
_cell_volume 5375.074964
_symmetry_space_group_name_H-M "C M C M"
_symmetry_group_IT_number 63
_symmetry_cell_setting 'orthorhombic'
loop_
_space_group_symop_operation_xyz
x,y,z
-x,-y,1/2+z
x,-y,-z
-x,y,1/2-z
-x,-y,-z
x,y,1/2-z
-x,y,z
x,-y,1/2+z
1/2+x,1/2+y,z
1/2-x,1/2-y,1/2+z
1/2+x,1/2-y,-z
1/2-x,1/2+y,1/2-z
1/2-x,1/2-y,-z
1/2+x,1/2+y,1/2-z
1/2-x,1/2+y,z
1/2+x,1/2-y,1/2+z
loop_
_atom_site_type_symbol
_atom_site_label
_atom_site_fract_x
_atom_site_fract_y
_atom_site_fract_z
Si Si1 0.668406 0.609282 0.924703
Si Si2 0.599989 0.929557 0.145445
Si Si3 0.602382 0.406369 0.890346
Si Si4 0.400152 0.291613 0.515130
Si Si5 0.602867 0.142950 0.196071
Si Si6 0.349760 0.926509 0.040614
Si Si7 0.260496 0.245757 0.649089
O O1 0.616028 0.532383 0.888514
O O2 0.603826 0.652037 0.965057
O O3 0.748191 0.537796 0.946942
O O4 0.711000 0.709589 0.898434
O O5 0.500000 0.898882 0.164292
O O6 0.593041 0.928526 0.088651
O O7 0.674193 0.848981 0.166061
O O8 0.626111 0.044756 0.163038
O O9 0.500000 0.379397 0.873540
O O10 0.675115 0.346662 0.858041
O O11 0.618645 0.375154 0.944312
O O12 0.500000 0.244142 0.520736
O O13 0.336335 0.190826 0.520173
O O14 0.610231 0.108278 0.250000
O O15 0.500000 0.184266 0.185576
O O16 0.679963 0.230067 0.185973
O O17 0.392271 0.000000 0.000000
#
# Coordination Sequence:
#
# PCOD8260469 Si02
#       7
#    16  16  16  16  16  16  16
#     4  11  23  34  55  81 117 164 214 253 298 353
#     4  10  21  40  64  92 125 164 206 249 304 367
#     4  11  22  39  58  84 123 165 208 250 296 350
#     4  11  22  35  51  78 119 167 212 254 298 347
#     4  10  24  45  68  94 122 152 194 250 311 378
#     4  11  22  34  56  86 125 167 214 261 303 348
#     4  11  22  39  65  90 120 156 199 252 310 361
#
# _framework density 20.836918000000001
#
# number of rings (size 3 to 8) (size 9 to 14) (size 15 to 20)
#    0.000    1.286    2.857    4.714    4.000    4.000 
#    0.000    0.000    0.000    1.286    0.000    0.000 
#    0.000    0.000    0.000    0.000    0.000    0.000 
#
# Total GULP energy -694150.364951 kJ/mol
# GULP energy per Si atom -12395.542231 kJ/mol
# Density = 2.078949 g / cm^3
# Si number density = 20.836918 Si / 1000 Ang^3
#
#
#
# Elastic Constant Matrix: (Units=GPa)
#
#
# Indices 1 2 3 4 5 6 
#
# 1 118.4774 42.2804 27.5676 0.0000 0.0000 0.0000
# 2 42.2804 82.3914 26.0731 0.0000 0.0000 0.0000
# 3 27.5676 26.0731 50.8578 0.0000 0.0000 0.0000
# 4 0.0000 0.0000 0.0000 16.7705 0.0000 0.0000
# 5 0.0000 0.0000 0.0000 0.0000 24.1402 0.0000
# 6 0.0000 0.0000 0.0000 0.0000 0.0000 35.1358
#
#
#
# Elastic Compliance Matrix: (Units=1/GPa)
#
#
# Indices 1 2 3 4 5 6 
#
# 1 0.010863 -0.004430 -0.003617 0.000000 0.000000 0.000000
# 2 -0.004430 0.016294 -0.005952 0.000000 0.000000 0.000000
# 3 -0.003617 -0.005952 0.024675 0.000000 0.000000 0.000000
# 4 0.000000 0.000000 0.000000 0.059628 0.000000 0.000000
# 5 0.000000 0.000000 0.000000 0.000000 0.041425 0.000000
# 6 0.000000 0.000000 0.000000 0.000000 0.000000 0.028461
#
#
# Mechanical properties :
#
#
# Convention : Reuss Voigt Hill
#
# Bulk Modulus (GPa) = 41.95810 49.28543 45.62177
# Shear Modulus (GPa) = 23.01084 25.59635 24.30359
#
# Velocity S-wave (km/s) = 3.32675 3.50868 3.41892
# Velocity P-wave (km/s) = 5.91071 6.33393 6.12598
#
# Compressibility (1/GPa) = 0.02383330
#
# Stress axis : x y z
#
# Youngs Moduli (GPa) = 92.05610 61.37233 40.52696
#
# Poissons Ratio (x) = 0.27187 0.14660
# Poissons Ratio (y) = 0.40779 0.24123
# Poissons Ratio (z) = 0.33299 0.36530
#
# Static dielectric constant tensor:
#      x y z
#    x 3.957870 0.000000 0.000000 
#    y 0.000000 3.637310 0.000000 
#    z 0.000000 0.000000 3.332850 
# 
# 
# High freq. dielectric constant tensor:
#      x y z
#    x 1.835640 0.000000 0.000000 
#    y 0.000000 1.810580 0.000000 
#    z 0.000000 0.000000 1.769700 
# 
# From -- ./inp_files/69398.got.cif
#   From: 2010.03.12/outbox.cif.g09.slc.cpg/sg63_35_cif.got.tgz:69398.got - 2010.04.10 19:34:48.
