data_PCOD8260067
_publ_section_title
;
Structure prediction by ZEFSAII (Michael W. Deem and Ramdas Pophale) SiO2 
 PCOD8260067
Probable space group: C M C M
;
_chemical_formula_sum "Si O2"
_cell_formula_units_Z 80
_cell_length_a 9.445851
_cell_length_b 25.085777
_cell_length_c 16.512036
_cell_angle_alpha 90.000000
_cell_angle_beta 90.000000
_cell_angle_gamma 90.000000
_cell_volume 3912.634453
_symmetry_space_group_name_H-M "C M C M"
_symmetry_group_IT_number 63
_symmetry_cell_setting 'orthorhombic'
loop_
_space_group_symop_operation_xyz
x,y,z
-x,-y,1/2+z
x,-y,-z
-x,y,1/2-z
-x,-y,-z
x,y,1/2-z
-x,y,z
x,-y,1/2+z
1/2+x,1/2+y,z
1/2-x,1/2-y,1/2+z
1/2+x,1/2-y,-z
1/2-x,1/2+y,1/2-z
1/2-x,1/2-y,-z
1/2+x,1/2+y,1/2-z
1/2-x,1/2+y,z
1/2+x,1/2-y,1/2+z
loop_
_atom_site_type_symbol
_atom_site_label
_atom_site_fract_x
_atom_site_fract_y
_atom_site_fract_z
Si Si1 0.332696 0.230963 0.921173
Si Si2 0.337906 0.481414 0.090420
Si Si3 0.663519 0.634505 0.655056
Si Si4 0.345868 0.069880 0.343482
Si Si5 0.153980 0.161012 0.344224
O O1 0.500000 0.222156 0.938370
O O2 0.266206 0.177908 0.884015
O O3 0.304341 0.277683 0.856436
O O4 0.250000 0.250000 0.000000
O O5 0.500000 0.494157 0.112117
O O6 0.304903 0.419602 0.105920
O O7 0.240019 0.515315 0.149723
O O8 0.300815 0.500000 0.000000
O O9 0.698573 0.626662 0.750000
O O10 0.500000 0.651810 0.643721
O O11 0.367041 0.082928 0.250000
O O12 0.500000 0.064748 0.385470
O O13 0.263702 0.119705 0.385429
O O14 0.145829 0.148870 0.250000
O O15 0.000000 0.150194 0.384496
#
# Coordination Sequence:
#
# PCOD8260067 Si02
#       5
#    16  16  16  16  16
#     4  11  24  40  61  89 123 160 202 252 307 366
#     4  10  22  39  61  88 121 161 205 250 299 360
#     4  10  22  41  64  90 123 165 211 258 310 369
#     4  10  21  36  57  87 120 152 191 243 300 354
#     4   9  19  37  60  83 111 152 198 240 288 355
#
# _framework density 20.446580999999998
#
# number of rings (size 3 to 8) (size 9 to 14) (size 15 to 20)
#    0.000    2.000    0.000    2.400    2.800    6.000 
#    0.000    2.000    0.000    0.000    0.000    0.000 
#    0.000    0.000    0.000    0.000    0.000    0.000 
#
# Total GULP energy -495904.528835 kJ/mol
# GULP energy per Si atom -12397.613221 kJ/mol
# Density = 2.040004 g / cm^3
# Si number density = 20.446581 Si / 1000 Ang^3
#
#
#
# Elastic Constant Matrix: (Units=GPa)
#
#
# Indices 1 2 3 4 5 6 
#
# 1 148.1871 98.0282 42.5892 0.0000 0.0000 0.0000
# 2 98.0282 153.9164 38.1346 0.0000 0.0000 0.0000
# 3 42.5892 38.1346 67.6244 0.0000 0.0000 0.0000
# 4 0.0000 0.0000 0.0000 37.1335 0.0000 0.0000
# 5 0.0000 0.0000 0.0000 0.0000 24.5993 0.0000
# 6 0.0000 0.0000 0.0000 0.0000 0.0000 40.3631
#
#
#
# Elastic Compliance Matrix: (Units=1/GPa)
#
#
# Indices 1 2 3 4 5 6 
#
# 1 0.012501 -0.006987 -0.003933 0.000000 0.000000 0.000000
# 2 -0.006987 0.011458 -0.002061 0.000000 0.000000 0.000000
# 3 -0.003933 -0.002061 0.018426 0.000000 0.000000 0.000000
# 4 0.000000 0.000000 0.000000 0.026930 0.000000 0.000000
# 5 0.000000 0.000000 0.000000 0.000000 0.040652 0.000000
# 6 0.000000 0.000000 0.000000 0.000000 0.000000 0.024775
#
#
# Mechanical properties :
#
#
# Convention : Reuss Voigt Hill
#
# Bulk Modulus (GPa) = 60.88774 80.80353 70.84563
# Shear Modulus (GPa) = 30.08846 33.15091 31.61969
#
# Velocity S-wave (km/s) = 3.84026 4.03096 3.93676
# Velocity P-wave (km/s) = 7.03612 7.82751 7.44234
#
# Compressibility (1/GPa) = 0.01642367
#
# Stress axis : x y z
#
# Youngs Moduli (GPa) = 79.99624 87.27762 54.27017
#
# Poissons Ratio (x) = 0.60983 0.21342
# Poissons Ratio (y) = 0.55895 0.11184
# Poissons Ratio (z) = 0.31459 0.17986
#
# Static dielectric constant tensor:
#      x y z
#    x 4.103040 0.000000 0.000000 
#    y 0.000000 3.840080 0.000000 
#    z 0.000000 0.000000 3.577570 
# 
# 
# High freq. dielectric constant tensor:
#      x y z
#    x 1.806600 0.000000 0.000000 
#    y 0.000000 1.809050 0.000000 
#    z 0.000000 0.000000 1.784330 
# 
# From -- ./inp_files/40502.got.cif
#   From: 2010.03.12/outbox.cif.g09.slc.cpg/sg63_21_cif.got.tgz:40502.got - 2010.04.10 19:34:48.
