data_PCOD8260360
_publ_section_title
;
Structure prediction by ZEFSAII (Michael W. Deem and Ramdas Pophale) SiO2 
 PCOD8260360
Probable space group: C M C M
;
_chemical_formula_sum "Si O2"
_cell_formula_units_Z 96
_cell_length_a 21.191442
_cell_length_b 12.340479
_cell_length_c 18.430800
_cell_angle_alpha 90.000000
_cell_angle_beta 90.000000
_cell_angle_gamma 90.000000
_cell_volume 4819.885414
_symmetry_space_group_name_H-M "C M C M"
_symmetry_group_IT_number 63
_symmetry_cell_setting 'orthorhombic'
loop_
_space_group_symop_operation_xyz
x,y,z
-x,-y,1/2+z
x,-y,-z
-x,y,1/2-z
-x,-y,-z
x,y,1/2-z
-x,y,z
x,-y,1/2+z
1/2+x,1/2+y,z
1/2-x,1/2-y,1/2+z
1/2+x,1/2-y,-z
1/2-x,1/2+y,1/2-z
1/2-x,1/2-y,-z
1/2+x,1/2+y,1/2-z
1/2-x,1/2+y,z
1/2+x,1/2-y,1/2+z
loop_
_atom_site_type_symbol
_atom_site_label
_atom_site_fract_x
_atom_site_fract_y
_atom_site_fract_z
Si Si1 0.635391 0.988086 0.835583
Si Si2 0.386654 0.388756 0.089371
Si Si3 0.798059 0.729401 0.164666
Si Si4 0.000000 0.798135 0.166984
Si Si5 0.500000 0.061744 0.163535
Si Si6 0.924539 0.126583 0.069448
Si Si7 0.657432 0.225431 0.834138
O O1 0.637657 0.974303 0.750000
O O2 0.670408 0.881076 0.866227
O O3 0.563419 0.996216 0.864618
O O4 0.667577 0.100556 0.859398
O O5 0.322424 0.331981 0.117278
O O6 0.438333 0.365088 0.149619
O O7 0.383325 0.518871 0.085790
O O8 0.409409 0.338864 0.012840
O O9 0.812213 0.750261 0.250000
O O10 0.723515 0.714984 0.151495
O O11 0.000000 0.681449 0.128283
O O12 0.000000 0.770952 0.250000
O O13 0.500000 0.062503 0.250000
O O14 0.899796 0.219924 0.122398
O O15 0.000000 0.107781 0.079133
O O16 0.637697 0.230060 0.750000
#
# Coordination Sequence:
#
# PCOD8260360 Si02
#       7
#    16  16  16   8   8  16  16
#     4   9  18  34  55  84 121 150 184 243 303 346
#     4  11  21  40  62  86 124 160 199 254 305 355
#     4  10  21  38  64  92 117 153 203 254 298 352
#     4  11  18  31  59  95 118 147 199 249 300 353
#     4   9  16  28  53  85 113 145 184 229 291 349
#     4  11  24  42  60  85 124 168 200 246 312 362
#     4  10  24  40  59  88 122 160 201 245 298 366
#
# _framework density 19.917487000000001
#
# number of rings (size 3 to 8) (size 9 to 14) (size 15 to 20)
#    0.000    1.833    3.333    1.000    3.500    2.333 
#    0.000    0.833    0.000    2.000    0.000    0.000 
#    0.000    0.000    0.000    0.000    0.000    0.000 
#
# Total GULP energy -594944.755724 kJ/mol
# GULP energy per Si atom -12394.682411 kJ/mol
# Density = 1.987215 g / cm^3
# Si number density = 19.917487 Si / 1000 Ang^3
#
#
#
# Elastic Constant Matrix: (Units=GPa)
#
#
# Indices 1 2 3 4 5 6 
#
# 1 92.1672 42.0200 30.5887 0.0000 0.0000 0.0000
# 2 42.0200 107.8688 37.7143 0.0000 0.0000 0.0000
# 3 30.5887 37.7143 56.0976 0.0000 0.0000 0.0000
# 4 0.0000 0.0000 0.0000 25.3238 0.0000 0.0000
# 5 0.0000 0.0000 0.0000 0.0000 20.6213 0.0000
# 6 0.0000 0.0000 0.0000 0.0000 0.0000 32.0831
#
#
#
# Elastic Compliance Matrix: (Units=1/GPa)
#
#
# Indices 1 2 3 4 5 6 
#
# 1 0.014304 -0.003719 -0.005299 0.000000 0.000000 0.000000
# 2 -0.003719 0.013086 -0.006770 0.000000 0.000000 0.000000
# 3 -0.005299 -0.006770 0.025267 0.000000 0.000000 0.000000
# 4 0.000000 0.000000 0.000000 0.039489 0.000000 0.000000
# 5 0.000000 0.000000 0.000000 0.000000 0.048493 0.000000
# 6 0.000000 0.000000 0.000000 0.000000 0.000000 0.031169
#
#
# Mechanical properties :
#
#
# Convention : Reuss Voigt Hill
#
# Bulk Modulus (GPa) = 47.43683 52.97550 50.20616
# Shear Modulus (GPa) = 23.76284 25.32635 24.54459
#
# Velocity S-wave (km/s) = 3.45782 3.56977 3.51424
# Velocity P-wave (km/s) = 6.30955 6.60653 6.45975
#
# Compressibility (1/GPa) = 0.02108067
#
# Stress axis : x y z
#
# Youngs Moduli (GPa) = 69.90908 76.41553 39.57739
#
# Poissons Ratio (x) = 0.28422 0.20973
# Poissons Ratio (y) = 0.26002 0.26793
# Poissons Ratio (z) = 0.37046 0.51732
#
# Static dielectric constant tensor:
#      x y z
#    x 3.862100 0.000000 0.000000 
#    y 0.000000 3.658590 0.000000 
#    z 0.000000 0.000000 3.398530 
# 
# 
# High freq. dielectric constant tensor:
#      x y z
#    x 1.778440 0.000000 0.000000 
#    y 0.000000 1.780100 0.000000 
#    z 0.000000 0.000000 1.743350 
# 
# From -- ./inp_files/48082.got.cif
#   From: 2010.03.12/outbox.cif.g09.slc.cpg/sg63_25_cif.got.tgz:48082.got - 2010.04.10 19:34:48.
