data_PCOD8260003
_publ_section_title
;
Structure prediction by ZEFSAII (Michael W. Deem and Ramdas Pophale) SiO2 
 PCOD8260003
Probable space group: C M C M
;
_chemical_formula_sum "Si O2"
_cell_formula_units_Z 80
_cell_length_a 18.001957
_cell_length_b 23.385604
_cell_length_c 9.526962
_cell_angle_alpha 90.000000
_cell_angle_beta 90.000000
_cell_angle_gamma 90.000000
_cell_volume 4010.723699
_symmetry_space_group_name_H-M "C M C M"
_symmetry_group_IT_number 63
_symmetry_cell_setting 'orthorhombic'
loop_
_space_group_symop_operation_xyz
x,y,z
-x,-y,1/2+z
x,-y,-z
-x,y,1/2-z
-x,-y,-z
x,y,1/2-z
-x,y,z
x,-y,1/2+z
1/2+x,1/2+y,z
1/2-x,1/2-y,1/2+z
1/2+x,1/2-y,-z
1/2-x,1/2+y,1/2-z
1/2-x,1/2-y,-z
1/2+x,1/2+y,1/2-z
1/2-x,1/2+y,z
1/2+x,1/2-y,1/2+z
loop_
_atom_site_type_symbol
_atom_site_label
_atom_site_fract_x
_atom_site_fract_y
_atom_site_fract_z
Si Si1 0.413051 0.348487 0.912439
Si Si2 0.651814 0.128211 0.095444
Si Si3 0.085266 0.452506 0.097919
Si Si4 0.823276 0.758042 0.090202
Si Si5 0.202966 0.942157 0.588466
O O1 0.398149 0.330907 0.750000
O O2 0.500000 0.355621 0.943761
O O3 0.374072 0.409304 0.944820
O O4 0.380662 0.299907 0.014025
O O5 0.631759 0.103783 0.250000
O O6 0.641865 0.195546 0.097885
O O7 0.732995 0.104367 0.050987
O O8 0.592676 0.107724 0.980015
O O9 0.124694 0.451135 0.250000
O O10 0.000000 0.468518 0.118319
O O11 0.125718 0.500000 0.000000
O O12 0.806557 0.779592 0.250000
O O13 0.750000 0.750000 0.000000
O O14 0.207056 0.960557 0.750000
O O15 0.209162 0.000000 0.500000
#
# Coordination Sequence:
#
# PCOD8260003 Si02
#       5
#    16  16  16  16  16
#     4  10  22  42  64  87 122 163 200 246 303 358
#     4  10  21  37  58  84 116 151 193 241 291 350
#     4  10  21  36  54  79 113 152 194 238 287 344
#     4  11  22  39  63  89 119 154 195 243 294 351
#     4  10  21  38  58  86 119 155 200 245 295 352
#
# _framework density 19.946525000000001
#
# number of rings (size 3 to 8) (size 9 to 14) (size 15 to 20)
#    0.000    1.800    2.000    1.800    0.000    7.600 
#    0.000    4.000    0.000    0.000    0.000    0.000 
#    0.000    0.000    0.000    0.000    0.000    0.000 
#
# Total GULP energy -495835.197452 kJ/mol
# GULP energy per Si atom -12395.879936 kJ/mol
# Density = 1.990113 g / cm^3
# Si number density = 19.946525 Si / 1000 Ang^3
#
#
#
# Elastic Constant Matrix: (Units=GPa)
#
#
# Indices 1 2 3 4 5 6 
#
# 1 56.3620 25.0552 34.4257 0.0000 0.0000 0.0000
# 2 25.0552 101.4090 58.1369 0.0000 0.0000 0.0000
# 3 34.4257 58.1369 149.4108 0.0000 0.0000 0.0000
# 4 0.0000 0.0000 0.0000 37.7415 0.0000 0.0000
# 5 0.0000 0.0000 0.0000 0.0000 28.3406 0.0000
# 6 0.0000 0.0000 0.0000 0.0000 0.0000 32.2701
#
#
#
# Elastic Compliance Matrix: (Units=1/GPa)
#
#
# Indices 1 2 3 4 5 6 
#
# 1 0.021411 -0.003169 -0.003700 0.000000 0.000000 0.000000
# 2 -0.003169 0.013161 -0.004391 0.000000 0.000000 0.000000
# 3 -0.003700 -0.004391 0.009254 0.000000 0.000000 0.000000
# 4 0.000000 0.000000 0.000000 0.026496 0.000000 0.000000
# 5 0.000000 0.000000 0.000000 0.000000 0.035285 0.000000
# 6 0.000000 0.000000 0.000000 0.000000 0.000000 0.030988
#
#
# Mechanical properties :
#
#
# Convention : Reuss Voigt Hill
#
# Bulk Modulus (GPa) = 46.93423 60.26860 53.60142
# Shear Modulus (GPa) = 30.08087 32.30806 31.19447
#
# Velocity S-wave (km/s) = 3.88761 4.02896 3.95891
# Velocity P-wave (km/s) = 6.61305 7.20583 6.91580
#
# Compressibility (1/GPa) = 0.02130641
#
# Stress axis : x y z
#
# Youngs Moduli (GPa) = 46.70443 75.98029 108.05948
#
# Poissons Ratio (x) = 0.24076 0.39986
# Poissons Ratio (y) = 0.14799 0.47450
# Poissons Ratio (z) = 0.17282 0.33363
#
# Static dielectric constant tensor:
#      x y z
#    x 3.498640 0.000000 0.000000 
#    y 0.000000 3.820510 0.000000 
#    z 0.000000 0.000000 4.100670 
# 
# 
# High freq. dielectric constant tensor:
#      x y z
#    x 1.764300 0.000000 0.000000 
#    y 0.000000 1.775310 0.000000 
#    z 0.000000 0.000000 1.792310 
# 
# From -- ./inp_files/6438.got.cif
#   From: 2010.03.12/outbox.cif.g09.slc.cpg/sg63_4_cif.got.tgz:6438.got - 2010.04.10 19:34:48.
