data_PCOD8260084
_publ_section_title
;
Structure prediction by ZEFSAII (Michael W. Deem and Ramdas Pophale) SiO2 
 PCOD8260084
Probable space group: C M C M
;
_chemical_formula_sum "Si O2"
_cell_formula_units_Z 56
_cell_length_a 17.766010
_cell_length_b 12.340871
_cell_length_c 12.369049
_cell_angle_alpha 90.000000
_cell_angle_beta 90.000000
_cell_angle_gamma 90.000000
_cell_volume 2711.889720
_symmetry_space_group_name_H-M "C M C M"
_symmetry_group_IT_number 63
_symmetry_cell_setting 'orthorhombic'
loop_
_space_group_symop_operation_xyz
x,y,z
-x,-y,1/2+z
x,-y,-z
-x,y,1/2-z
-x,-y,-z
x,y,1/2-z
-x,y,z
x,-y,1/2+z
1/2+x,1/2+y,z
1/2-x,1/2-y,1/2+z
1/2+x,1/2-y,-z
1/2-x,1/2+y,1/2-z
1/2-x,1/2-y,-z
1/2+x,1/2+y,1/2-z
1/2-x,1/2+y,z
1/2+x,1/2-y,1/2+z
loop_
_atom_site_type_symbol
_atom_site_label
_atom_site_fract_x
_atom_site_fract_y
_atom_site_fract_z
Si Si1 0.199655 0.193622 0.625538
Si Si2 0.625971 0.500000 0.500000
Si Si3 0.500000 0.394559 0.873747
Si Si4 0.000000 0.344581 0.379679
Si Si5 0.341441 0.120499 0.976145
O O1 0.176580 0.177452 0.750000
O O2 0.173627 0.097343 0.547736
O O3 0.290477 0.186506 0.611832
O O4 0.163692 0.307630 0.586238
O O5 0.574436 0.540368 0.402427
O O6 0.500000 0.370772 0.750000
O O7 0.500000 0.276830 0.928150
O O8 0.075006 0.397823 0.429034
O O9 0.000000 0.356904 0.250000
O O10 0.309711 0.000000 0.000000
#
# Coordination Sequence:
#
# PCOD8260084 Si02
#       5
#    16   8   8   8  16
#     4  11  24  42  67  95 125 168 215 269 328 379
#     4  11  20  42  62  93 130 158 214 275 320 378
#     4  10  21  36  63  92 124 166 206 261 326 378
#     4  11  22  40  63  91 128 173 214 259 319 381
#     4  11  24  45  63  94 131 167 216 268 313 387
#
# _framework density 20.649806999999999
#
# number of rings (size 3 to 8) (size 9 to 14) (size 15 to 20)
#    0.000    1.143    4.286    2.143    0.000    2.286 
#    0.000    2.143    0.000    0.000    0.000    0.000 
#    0.000    0.000    0.000    0.000    0.000    0.000 
#
# Total GULP energy -347091.689058 kJ/mol
# GULP energy per Si atom -12396.131752 kJ/mol
# Density = 2.060281 g / cm^3
# Si number density = 20.649807 Si / 1000 Ang^3
#
#
#
# Elastic Constant Matrix: (Units=GPa)
#
#
# Indices 1 2 3 4 5 6 
#
# 1 102.9233 19.7881 37.5968 0.0000 0.0000 0.0000
# 2 19.7881 130.7283 43.9241 0.0000 0.0000 0.0000
# 3 37.5968 43.9241 98.8509 0.0000 0.0000 0.0000
# 4 0.0000 0.0000 0.0000 24.0102 0.0000 0.0000
# 5 0.0000 0.0000 0.0000 0.0000 37.1539 0.0000
# 6 0.0000 0.0000 0.0000 0.0000 0.0000 29.7315
#
#
#
# Elastic Compliance Matrix: (Units=1/GPa)
#
#
# Indices 1 2 3 4 5 6 
#
# 1 0.011295 -0.000313 -0.004157 0.000000 0.000000 0.000000
# 2 -0.000313 0.009001 -0.003880 0.000000 0.000000 0.000000
# 3 -0.004157 -0.003880 0.013421 0.000000 0.000000 0.000000
# 4 0.000000 0.000000 0.000000 0.041649 0.000000 0.000000
# 5 0.000000 0.000000 0.000000 0.000000 0.026915 0.000000
# 6 0.000000 0.000000 0.000000 0.000000 0.000000 0.033634
#
#
# Mechanical properties :
#
#
# Convention : Reuss Voigt Hill
#
# Bulk Modulus (GPa) = 58.76642 59.45782 59.11212
# Shear Modulus (GPa) = 31.58818 33.59203 32.59010
#
# Velocity S-wave (km/s) = 3.91539 4.03767 3.97700
# Velocity P-wave (km/s) = 6.99720 7.11287 7.05527
#
# Compressibility (1/GPa) = 0.01701652
#
# Stress axis : x y z
#
# Youngs Moduli (GPa) = 88.53835 111.10357 74.50791
#
# Poissons Ratio (x) = 0.03478 0.30970
# Poissons Ratio (y) = 0.02771 0.28912
# Poissons Ratio (z) = 0.36802 0.43112
#
# Static dielectric constant tensor:
#      x y z
#    x 3.813990 0.000000 0.000000 
#    y 0.000000 3.818460 0.000000 
#    z 0.000000 0.000000 3.461010 
# 
# 
# High freq. dielectric constant tensor:
#      x y z
#    x 1.818630 0.000000 0.000000 
#    y 0.000000 1.818270 0.000000 
#    z 0.000000 0.000000 1.790820 
# 
# From -- ./inp_files/22085.got.cif
#   From: 2010.03.12/outbox.cif.g09.slc.cpg/sg63_12_cif.got.tgz:22085.got - 2010.04.10 19:34:48.
