data_PCOD8260160
_publ_section_title
;
Structure prediction by ZEFSAII (Michael W. Deem and Ramdas Pophale) SiO2 
 PCOD8260160
Probable space group: C M C M
;
_chemical_formula_sum "Si O2"
_cell_formula_units_Z 96
_cell_length_a 26.758671
_cell_length_b 11.499951
_cell_length_c 14.280188
_cell_angle_alpha 90.000000
_cell_angle_beta 90.000000
_cell_angle_gamma 90.000000
_cell_volume 4394.348080
_symmetry_space_group_name_H-M "C M C M"
_symmetry_group_IT_number 63
_symmetry_cell_setting 'orthorhombic'
loop_
_space_group_symop_operation_xyz
x,y,z
-x,-y,1/2+z
x,-y,-z
-x,y,1/2-z
-x,-y,-z
x,y,1/2-z
-x,y,z
x,-y,1/2+z
1/2+x,1/2+y,z
1/2-x,1/2-y,1/2+z
1/2+x,1/2-y,-z
1/2-x,1/2+y,1/2-z
1/2-x,1/2-y,-z
1/2+x,1/2+y,1/2-z
1/2-x,1/2+y,z
1/2+x,1/2-y,1/2+z
loop_
_atom_site_type_symbol
_atom_site_label
_atom_site_fract_x
_atom_site_fract_y
_atom_site_fract_z
Si Si1 0.442933 0.761521 0.951978
Si Si2 0.139699 0.597825 0.362457
Si Si3 0.185798 0.359293 0.141465
Si Si4 0.119467 0.956274 0.399036
Si Si5 0.404999 0.296010 0.852574
Si Si6 0.207712 0.802233 0.354836
O O1 0.500000 0.777990 0.922034
O O2 0.440760 0.750223 0.065306
O O3 0.412838 0.872773 0.912767
O O4 0.421968 0.644731 0.903668
O O5 0.132734 0.605408 0.250000
O O6 0.157901 0.472738 0.399778
O O7 0.180079 0.691796 0.401981
O O8 0.194726 0.387000 0.250000
O O9 0.151179 0.247237 0.124443
O O10 0.240020 0.335143 0.093724
O O11 0.170069 0.911396 0.351005
O O12 0.135799 0.000000 0.500000
O O13 0.095807 0.064335 0.343677
O O14 0.422462 0.247852 0.750000
O O15 0.221479 0.763844 0.250000
#
# Coordination Sequence:
#
# PCOD8260160 Si02
#       6
#    16  16  16  16  16  16
#     4  10  22  41  62  83 111 150 198 249 295 341
#     4   9  19  37  57  85 120 152 196 244 284 340
#     4   9  19  34  55  83 119 158 192 231 285 345
#     4   9  19  35  53  83 115 143 185 239 284 341
#     4  10  21  37  57  84 119 153 189 237 292 349
#     4   9  17  31  54  80 110 153 191 226 278 338
#
# _framework density 21.846243999999999
#
# number of rings (size 3 to 8) (size 9 to 14) (size 15 to 20)
#    0.000    2.667    0.000    0.500    2.333    5.000 
#    3.000    4.167    0.000    3.000    0.000    0.000 
#    0.000    0.000    0.000    0.000    0.000    0.000 
#
# Total GULP energy -595010.275817 kJ/mol
# GULP energy per Si atom -12396.047413 kJ/mol
# Density = 2.179652 g / cm^3
# Si number density = 21.846244 Si / 1000 Ang^3
#
#
#
# Elastic Constant Matrix: (Units=GPa)
#
#
# Indices 1 2 3 4 5 6 
#
# 1 164.8733 55.0807 24.7871 0.0000 0.0000 0.0000
# 2 55.0807 90.5114 11.0501 0.0000 0.0000 0.0000
# 3 24.7871 11.0501 49.5526 0.0000 0.0000 0.0000
# 4 0.0000 0.0000 0.0000 9.9128 0.0000 0.0000
# 5 0.0000 0.0000 0.0000 0.0000 20.6697 0.0000
# 6 0.0000 0.0000 0.0000 0.0000 0.0000 17.3142
#
#
#
# Elastic Compliance Matrix: (Units=1/GPa)
#
#
# Indices 1 2 3 4 5 6 
#
# 1 0.008027 -0.004517 -0.003008 0.000000 0.000000 0.000000
# 2 -0.004517 0.013900 -0.000840 0.000000 0.000000 0.000000
# 3 -0.003008 -0.000840 0.021872 0.000000 0.000000 0.000000
# 4 0.000000 0.000000 0.000000 0.100880 0.000000 0.000000
# 5 0.000000 0.000000 0.000000 0.000000 0.048380 0.000000
# 6 0.000000 0.000000 0.000000 0.000000 0.000000 0.057756
#
#
# Mechanical properties :
#
#
# Convention : Reuss Voigt Hill
#
# Bulk Modulus (GPa) = 36.94286 54.08591 45.51439
# Shear Modulus (GPa) = 18.07874 23.84729 20.96302
#
# Velocity S-wave (km/s) = 2.87983 3.30752 3.10105
# Velocity P-wave (km/s) = 5.29197 6.27674 5.80528
#
# Compressibility (1/GPa) = 0.02706883
#
# Stress axis : x y z
#
# Youngs Moduli (GPa) = 124.58564 71.94278 45.71977
#
# Poissons Ratio (x) = 0.32499 0.13751
# Poissons Ratio (y) = 0.56280 0.03840
# Poissons Ratio (z) = 0.37472 0.06043
#
# Static dielectric constant tensor:
#      x y z
#    x 3.716350 0.000000 0.000000 
#    y 0.000000 4.024420 0.000000 
#    z 0.000000 0.000000 3.852350 
# 
# 
# High freq. dielectric constant tensor:
#      x y z
#    x 1.837110 0.000000 0.000000 
#    y 0.000000 1.855080 0.000000 
#    z 0.000000 0.000000 1.854170 
# 
# From -- ./inp_files/48043.got.cif
#   From: 2010.03.12/outbox.cif.g09.slc.cpg/sg63_25_cif.got.tgz:48043.got - 2010.04.10 19:34:48.
