data_PCOD8260825
_publ_section_title
;
Structure prediction by ZEFSAII (Michael W. Deem and Ramdas Pophale) SiO2 
 PCOD8260825
Probable space group: C M C M
;
_chemical_formula_sum "Si O2"
_cell_formula_units_Z 80
_cell_length_a 20.063120
_cell_length_b 13.591464
_cell_length_c 13.105998
_cell_angle_alpha 90.000000
_cell_angle_beta 90.000000
_cell_angle_gamma 90.000000
_cell_volume 3573.837547
_symmetry_space_group_name_H-M "C M C M"
_symmetry_group_IT_number 63
_symmetry_cell_setting 'orthorhombic'
loop_
_space_group_symop_operation_xyz
x,y,z
-x,-y,1/2+z
x,-y,-z
-x,y,1/2-z
-x,-y,-z
x,y,1/2-z
-x,y,z
x,-y,1/2+z
1/2+x,1/2+y,z
1/2-x,1/2-y,1/2+z
1/2+x,1/2-y,-z
1/2-x,1/2+y,1/2-z
1/2-x,1/2-y,-z
1/2+x,1/2+y,1/2-z
1/2-x,1/2+y,z
1/2+x,1/2-y,1/2+z
loop_
_atom_site_type_symbol
_atom_site_label
_atom_site_fract_x
_atom_site_fract_y
_atom_site_fract_z
Si Si1 0.925422 0.148924 0.371708
Si Si2 0.078199 0.638854 0.640551
Si Si3 0.074960 0.427683 0.627575
Si Si4 0.800204 0.106071 0.476255
Si Si5 0.812681 0.722599 0.129795
O O1 0.922805 0.144335 0.250000
O O2 0.902619 0.258178 0.413257
O O3 0.870912 0.078588 0.422587
O O4 0.000000 0.121254 0.409185
O O5 0.115360 0.636403 0.750000
O O6 0.095163 0.536918 0.580788
O O7 0.000000 0.642462 0.660633
O O8 0.076570 0.438244 0.750000
O O9 0.124689 0.342806 0.589696
O O10 0.000000 0.398610 0.591189
O O11 0.811496 0.170225 0.578200
O O12 0.754272 0.163884 0.396482
O O13 0.767366 0.000000 0.500000
O O14 0.817492 0.739913 0.250000
#
# Coordination Sequence:
#
# PCOD8260825 Si02
#       5
#    16  16  16  16  16
#     4   9  18  35  60  89 122 161 205 253 303 356
#     4   7  11  23  48  82 114 143 178 224 282 344
#     4   8  14  28  54  87 118 147 183 230 288 353
#     4  11  25  42  61  86 118 156 204 255 304 362
#     4  10  23  42  62  86 118 156 197 246 308 372
#
# _framework density 22.384900999999999
#
# number of rings (size 3 to 8) (size 9 to 14) (size 15 to 20)
#    0.000    3.000    0.000    3.000    0.000    6.000 
#    0.000    2.000    0.000    6.600    0.000    0.000 
#    0.000    0.000    0.000    0.000    0.000    0.000 
#
# Total GULP energy -495564.083363 kJ/mol
# GULP energy per Si atom -12389.102084 kJ/mol
# Density = 2.233395 g / cm^3
# Si number density = 22.384901 Si / 1000 Ang^3
#
#
#
# Elastic Constant Matrix: (Units=GPa)
#
#
# Indices 1 2 3 4 5 6 
#
# 1 98.4731 18.9482 12.3852 0.0000 0.0000 0.0000
# 2 18.9482 93.7059 6.5826 0.0000 0.0000 0.0000
# 3 12.3852 6.5826 25.3043 0.0000 0.0000 0.0000
# 4 0.0000 0.0000 0.0000 -11.2673 0.0000 0.0000
# 5 0.0000 0.0000 0.0000 0.0000 10.5854 0.0000
# 6 0.0000 0.0000 0.0000 0.0000 0.0000 24.3355
#
#
#
# Elastic Compliance Matrix: (Units=1/GPa)
#
#
# Indices 1 2 3 4 5 6 
#
# 1 0.011145 -0.001905 -0.004960 0.000000 0.000000 0.000000
# 2 -0.001905 0.011196 -0.001980 0.000000 0.000000 0.000000
# 3 -0.004960 -0.001980 0.042462 0.000000 0.000000 0.000000
# 4 0.000000 0.000000 0.000000 -0.088752 0.000000 0.000000
# 5 0.000000 0.000000 0.000000 0.000000 0.094470 0.000000
# 6 0.000000 0.000000 0.000000 0.000000 0.000000 0.041092
#
#
# Mechanical properties :
#
#
# Convention : Reuss Voigt Hill
#
# Bulk Modulus (GPa) = 21.22538 32.59062 26.90800
# Shear Modulus (GPa) = 34.48105 16.70185 25.59145
#
# Velocity S-wave (km/s) = 3.92901 2.73449 3.38486
# Velocity P-wave (km/s) = 5.48502 4.95587 5.22715
#
# Compressibility (1/GPa) = 0.04711341
#
# Stress axis : x y z
#
# Youngs Moduli (GPa) = 89.72268 89.31726 23.55072
#
# Poissons Ratio (x) = 0.17018 0.11680
# Poissons Ratio (y) = 0.17095 0.04663
# Poissons Ratio (z) = 0.44498 0.17685
#
# Static dielectric constant tensor:
#      x y z
#    x 3.946720 0.000000 0.000000 
#    y 0.000000 4.274200 0.000000 
#    z 0.000000 0.000000 3.898740 
# 
# 
# High freq. dielectric constant tensor:
#      x y z
#    x 1.866860 0.000000 0.000000 
#    y 0.000000 1.870720 0.000000 
#    z 0.000000 0.000000 1.885780 
# 
# From -- ./inp_files/36462.got.cif
#   From: 2010.03.12/outbox.cif.g09.slc.cpg/sg63_19_cif.got.tgz:36462.got - 2010.04.10 19:34:48.
