data_PCOD8260039
_publ_section_title
;
Structure prediction by ZEFSAII (Michael W. Deem and Ramdas Pophale) SiO2 
 PCOD8260039
Probable space group: C M C M
;
_chemical_formula_sum "Si O2"
_cell_formula_units_Z 112
_cell_length_a 30.583007
_cell_length_b 11.642392
_cell_length_c 14.072668
_cell_angle_alpha 90.000000
_cell_angle_beta 90.000000
_cell_angle_gamma 90.000000
_cell_volume 5010.705106
_symmetry_space_group_name_H-M "C M C M"
_symmetry_group_IT_number 63
_symmetry_cell_setting 'orthorhombic'
loop_
_space_group_symop_operation_xyz
x,y,z
-x,-y,1/2+z
x,-y,-z
-x,y,1/2-z
-x,-y,-z
x,y,1/2-z
-x,y,z
x,-y,1/2+z
1/2+x,1/2+y,z
1/2-x,1/2-y,1/2+z
1/2+x,1/2-y,-z
1/2-x,1/2+y,1/2-z
1/2-x,1/2-y,-z
1/2+x,1/2+y,1/2-z
1/2-x,1/2+y,z
1/2+x,1/2-y,1/2+z
loop_
_atom_site_type_symbol
_atom_site_label
_atom_site_fract_x
_atom_site_fract_y
_atom_site_fract_z
Si Si1 0.381923 0.070814 0.857280
Si Si2 0.128131 0.671241 0.445948
Si Si3 0.404421 0.527364 0.103812
Si Si4 0.689581 0.471539 0.853629
Si Si5 0.706865 0.319503 0.476752
Si Si6 0.449909 0.303296 0.141976
Si Si7 0.452525 0.754715 0.142061
O O1 0.363579 0.098789 0.750000
O O2 0.431861 0.117215 0.864385
O O3 0.377486 0.935911 0.875247
O O4 0.359435 0.136510 0.945317
O O5 0.170316 0.746245 0.419048
O O6 0.082532 0.740603 0.432840
O O7 0.361762 0.505959 0.167900
O O8 0.442744 0.440859 0.136170
O O9 0.421401 0.657618 0.098234
O O10 0.386279 0.500000 0.000000
O O11 0.711689 0.450936 0.750000
O O12 0.690591 0.359258 0.919673
O O13 0.715923 0.573954 0.906041
O O14 0.750000 0.250000 0.500000
O O15 0.440715 0.261677 0.250000
O O16 0.500000 0.276785 0.113480
O O17 0.458531 0.717614 0.250000
O O18 0.500000 0.757150 0.091174
#
# Coordination Sequence:
#
# PCOD8260039 Si02
#       7
#    16  16  16  16  16  16  16
#     4  10  23  40  62  90 123 173 231 281 337 409
#     4  11  23  43  67  92 130 180 223 283 358 407
#     4  12  21  36  60  94 132 178 229 282 349 411
#     4  11  23  43  70 100 137 179 220 279 355 424
#     4  11  25  46  69 101 137 173 226 289 349 424
#     4  11  23  38  62  98 136 178 232 288 343 415
#     4  10  21  36  55  85 128 177 230 287 340 401
#
# _framework density 22.352143999999999
#
# number of rings (size 3 to 8) (size 9 to 14) (size 15 to 20)
#    0.000    1.143    2.857    3.857    0.000    9.714 
#    0.000    4.286    0.000    0.000    0.000    0.000 
#    0.000    0.000    0.000    0.000    0.000    0.000 
#
# Total GULP energy -693858.032351 kJ/mol
# GULP energy per Si atom -12390.322006 kJ/mol
# Density = 2.230127 g / cm^3
# Si number density = 22.352144 Si / 1000 Ang^3
#
#
#
# Elastic Constant Matrix: (Units=GPa)
#
#
# Indices 1 2 3 4 5 6 
#
# 1 111.1925 49.1123 12.0845 0.0000 0.0000 0.0000
# 2 49.1123 122.1202 33.2373 0.0000 0.0000 0.0000
# 3 12.0845 33.2373 130.3723 0.0000 0.0000 0.0000
# 4 0.0000 0.0000 0.0000 29.1707 0.0000 0.0000
# 5 0.0000 0.0000 0.0000 0.0000 15.0525 0.0000
# 6 0.0000 0.0000 0.0000 0.0000 0.0000 34.0880
#
#
#
# Elastic Compliance Matrix: (Units=1/GPa)
#
#
# Indices 1 2 3 4 5 6 
#
# 1 0.010938 -0.004430 0.000116 0.000000 0.000000 0.000000
# 2 -0.004430 0.010594 -0.002290 0.000000 0.000000 0.000000
# 3 0.000116 -0.002290 0.008243 0.000000 0.000000 0.000000
# 4 0.000000 0.000000 0.000000 0.034281 0.000000 0.000000
# 5 0.000000 0.000000 0.000000 0.000000 0.066434 0.000000
# 6 0.000000 0.000000 0.000000 0.000000 0.000000 0.029336
#
#
# Mechanical properties :
#
#
# Convention : Reuss Voigt Hill
#
# Bulk Modulus (GPa) = 60.36709 61.39483 60.88096
# Shear Modulus (GPa) = 28.00229 33.61228 30.80728
#
# Velocity S-wave (km/s) = 3.54330 3.88204 3.71653
# Velocity P-wave (km/s) = 6.61860 6.90075 6.76115
#
# Compressibility (1/GPa) = 0.01656532
#
# Stress axis : x y z
#
# Youngs Moduli (GPa) = 91.42776 94.39657 121.30817
#
# Poissons Ratio (x) = 0.41819 -0.01402
# Poissons Ratio (y) = 0.40504 0.27781
# Poissons Ratio (z) = -0.01057 0.21618
#
# Static dielectric constant tensor:
#      x y z
#    x 3.791190 0.000000 0.000000 
#    y 0.000000 4.085820 0.000000 
#    z 0.000000 0.000000 4.187480 
# 
# 
# High freq. dielectric constant tensor:
#      x y z
#    x 1.848990 0.000000 0.000000 
#    y 0.000000 1.878600 0.000000 
#    z 0.000000 0.000000 1.897580 
# 
# From -- ./inp_files/38581.got.cif
#   From: 2010.03.12/outbox.cif.g09.slc.cpg/sg63_20_cif.got.tgz:38581.got - 2010.04.10 19:34:48.
