data_PCOD8260165
_publ_section_title
;
Structure prediction by ZEFSAII (Michael W. Deem and Ramdas Pophale) SiO2 
 PCOD8260165
Probable space group: C M C M
;
_chemical_formula_sum "Si O2"
_cell_formula_units_Z 80
_cell_length_a 16.492289
_cell_length_b 9.769000
_cell_length_c 25.814646
_cell_angle_alpha 90.000000
_cell_angle_beta 90.000000
_cell_angle_gamma 90.000000
_cell_volume 4159.079482
_symmetry_space_group_name_H-M "C M C M"
_symmetry_group_IT_number 63
_symmetry_cell_setting 'orthorhombic'
loop_
_space_group_symop_operation_xyz
x,y,z
-x,-y,1/2+z
x,-y,-z
-x,y,1/2-z
-x,-y,-z
x,y,1/2-z
-x,y,z
x,-y,1/2+z
1/2+x,1/2+y,z
1/2-x,1/2-y,1/2+z
1/2+x,1/2-y,-z
1/2-x,1/2+y,1/2-z
1/2-x,1/2-y,-z
1/2+x,1/2+y,1/2-z
1/2-x,1/2+y,z
1/2+x,1/2-y,1/2+z
loop_
_atom_site_type_symbol
_atom_site_label
_atom_site_fract_x
_atom_site_fract_y
_atom_site_fract_z
Si Si1 0.325034 0.037044 0.371485
Si Si2 0.592234 0.747725 0.691828
Si Si3 0.164794 0.038602 0.189734
Si Si4 0.281702 0.628064 0.034829
Si Si5 0.405257 0.255624 0.613127
O O1 0.396254 0.135172 0.351190
O O2 0.256643 0.056470 0.328075
O O3 0.290781 0.084960 0.426691
O O4 0.359532 0.885335 0.375015
O O5 0.616327 0.797112 0.750000
O O6 0.500000 0.700749 0.690990
O O7 0.643349 0.616184 0.674832
O O8 0.156333 0.068634 0.250000
O O9 0.104584 0.145338 0.162252
O O10 0.363328 0.673459 0.063887
O O11 0.306770 0.500000 0.000000
O O12 0.250000 0.750000 0.000000
O O13 0.500000 0.230150 0.601456
#
# Coordination Sequence:
#
# PCOD8260165 Si02
#       5
#    16  16  16  16  16
#     4  11  22  38  63  87 118 156 201 248 294 363
#     4  10  21  37  57  85 121 157 193 237 292 352
#     4  10  21  38  60  87 121 163 204 240 288 356
#     4  11  23  44  66  87 117 157 202 251 306 364
#     4  11  24  40  61  93 125 155 199 256 311 360
#
# _framework density 19.235026000000001
#
# number of rings (size 3 to 8) (size 9 to 14) (size 15 to 20)
#    0.000    1.400    2.000    4.200    2.800    4.800 
#    0.000    3.000    0.000    0.000    0.000    0.000 
#    0.000    0.000    0.000    0.000    0.000    0.000 
#
# Total GULP energy -496115.162412 kJ/mol
# GULP energy per Si atom -12402.879060 kJ/mol
# Density = 1.919125 g / cm^3
# Si number density = 19.235026 Si / 1000 Ang^3
#
#
#
# Elastic Constant Matrix: (Units=GPa)
#
#
# Indices 1 2 3 4 5 6 
#
# 1 76.0877 22.1070 30.7811 0.0000 0.0000 0.0000
# 2 22.1070 109.0542 64.1426 0.0000 0.0000 0.0000
# 3 30.7811 64.1426 114.1943 0.0000 0.0000 0.0000
# 4 0.0000 0.0000 0.0000 44.5883 0.0000 0.0000
# 5 0.0000 0.0000 0.0000 0.0000 22.9764 0.0000
# 6 0.0000 0.0000 0.0000 0.0000 0.0000 28.8032
#
#
#
# Elastic Compliance Matrix: (Units=1/GPa)
#
#
# Indices 1 2 3 4 5 6 
#
# 1 0.014821 -0.000978 -0.003446 0.000000 0.000000 0.000000
# 2 -0.000978 0.013758 -0.007464 0.000000 0.000000 0.000000
# 3 -0.003446 -0.007464 0.013879 0.000000 0.000000 0.000000
# 4 0.000000 0.000000 0.000000 0.022427 0.000000 0.000000
# 5 0.000000 0.000000 0.000000 0.000000 0.043523 0.000000
# 6 0.000000 0.000000 0.000000 0.000000 0.000000 0.034718
#
#
# Mechanical properties :
#
#
# Convention : Reuss Voigt Hill
#
# Bulk Modulus (GPa) = 53.52803 59.26642 56.39722
# Shear Modulus (GPa) = 28.88009 31.42727 30.15368
#
# Velocity S-wave (km/s) = 3.87904 4.04648 3.96364
# Velocity P-wave (km/s) = 6.92469 7.26021 7.09444
#
# Compressibility (1/GPa) = 0.01868180
#
# Stress axis : x y z
#
# Youngs Moduli (GPa) = 67.47278 72.68309 72.05336
#
# Poissons Ratio (x) = 0.07106 0.24828
# Poissons Ratio (y) = 0.06597 0.53784
# Poissons Ratio (z) = 0.23250 0.54254
#
# Static dielectric constant tensor:
#      x y z
#    x 3.403420 0.000000 0.000000 
#    y 0.000000 3.586950 0.000000 
#    z 0.000000 0.000000 3.578900 
# 
# 
# High freq. dielectric constant tensor:
#      x y z
#    x 1.746340 0.000000 0.000000 
#    y 0.000000 1.764590 0.000000 
#    z 0.000000 0.000000 1.752430 
# 
# From -- ./inp_files/69741.got.cif
#   From: 2010.03.12/outbox.cif.g09.slc.cpg/sg63_35_cif.got.tgz:69741.got - 2010.04.10 19:34:48.
