data_PCOD8260555
_publ_section_title
;
Structure prediction by ZEFSAII (Michael W. Deem and Ramdas Pophale) SiO2 
 PCOD8260555
Probable space group: C M C M
;
_chemical_formula_sum "Si O2"
_cell_formula_units_Z 64
_cell_length_a 22.231161
_cell_length_b 9.991238
_cell_length_c 13.467018
_cell_angle_alpha 90.000000
_cell_angle_beta 90.000000
_cell_angle_gamma 90.000000
_cell_volume 2991.251221
_symmetry_space_group_name_H-M "C M C M"
_symmetry_group_IT_number 63
_symmetry_cell_setting 'orthorhombic'
loop_
_space_group_symop_operation_xyz
x,y,z
-x,-y,1/2+z
x,-y,-z
-x,y,1/2-z
-x,-y,-z
x,y,1/2-z
-x,y,z
x,-y,1/2+z
1/2+x,1/2+y,z
1/2-x,1/2-y,1/2+z
1/2+x,1/2-y,-z
1/2-x,1/2+y,1/2-z
1/2-x,1/2-y,-z
1/2+x,1/2+y,1/2-z
1/2-x,1/2+y,z
1/2+x,1/2-y,1/2+z
loop_
_atom_site_type_symbol
_atom_site_label
_atom_site_fract_x
_atom_site_fract_y
_atom_site_fract_z
Si Si1 0.296909 0.480673 0.361556
Si Si2 0.568674 0.812940 0.637116
Si Si3 0.164069 0.456238 0.360273
Si Si4 0.847632 0.799465 0.991633
O O1 0.317116 0.450179 0.250000
O O2 0.228119 0.533982 0.367097
O O3 0.298706 0.341674 0.424237
O O4 0.344719 0.587265 0.406318
O O5 0.576338 0.757918 0.750000
O O6 0.500000 0.853551 0.616690
O O7 0.589339 0.704165 0.554184
O O8 0.609707 0.943307 0.621051
O O9 0.158122 0.391343 0.250000
O O10 0.163923 0.344341 0.444599
#
# Coordination Sequence:
#
# PCOD8260555 Si02
#       4
#    16  16  16  16
#     4  10  23  38  56  90 127 159 198 246 305 363
#     4  10  23  42  63  89 120 157 203 253 305 357
#     4  10  22  37  58  88 125 160 196 249 303 356
#     4  11  22  36  63  87 119 161 202 247 297 357
#
# _framework density 21.395728999999999
#
# number of rings (size 3 to 8) (size 9 to 14) (size 15 to 20)
#    0.000    1.750    0.000    3.000   10.500    2.000 
#    0.000    2.500    0.000    3.750    0.000    3.500 
#    0.000    0.000    0.000    0.000    0.000    0.000 
#
# Total GULP energy -396432.171685 kJ/mol
# GULP energy per Si atom -12388.505365 kJ/mol
# Density = 2.134703 g / cm^3
# Si number density = 21.395729 Si / 1000 Ang^3
#
#
#
# Elastic Constant Matrix: (Units=GPa)
#
#
# Indices 1 2 3 4 5 6 
#
# 1 139.0838 55.9172 58.5330 0.0000 0.0000 0.0000
# 2 55.9172 57.3172 44.2287 0.0000 0.0000 0.0000
# 3 58.5330 44.2287 171.9595 0.0000 0.0000 0.0000
# 4 0.0000 0.0000 0.0000 33.2428 0.0000 0.0000
# 5 0.0000 0.0000 0.0000 0.0000 21.0557 0.0000
# 6 0.0000 0.0000 0.0000 0.0000 0.0000 21.2619
#
#
#
# Elastic Compliance Matrix: (Units=1/GPa)
#
#
# Indices 1 2 3 4 5 6 
#
# 1 0.012075 -0.010740 -0.001348 0.000000 0.000000 0.000000
# 2 -0.010740 0.031320 -0.004400 0.000000 0.000000 0.000000
# 3 -0.001348 -0.004400 0.007406 0.000000 0.000000 0.000000
# 4 0.000000 0.000000 0.000000 0.030082 0.000000 0.000000
# 5 0.000000 0.000000 0.000000 0.000000 0.047493 0.000000
# 6 0.000000 0.000000 0.000000 0.000000 0.000000 0.047033
#
#
# Mechanical properties :
#
#
# Convention : Reuss Voigt Hill
#
# Bulk Modulus (GPa) = 56.10068 76.19094 66.14581
# Shear Modulus (GPa) = 23.32910 29.09086 26.20998
#
# Velocity S-wave (km/s) = 3.30565 3.69135 3.50381
# Velocity P-wave (km/s) = 6.39118 7.33865 6.88124
#
# Compressibility (1/GPa) = 0.01782510
#
# Stress axis : x y z
#
# Youngs Moduli (GPa) = 82.81518 31.92896 135.03059
#
# Poissons Ratio (x) = 0.34292 0.18200
# Poissons Ratio (y) = 0.88944 0.59410
# Poissons Ratio (z) = 0.11162 0.14048
#
# Static dielectric constant tensor:
#      x y z
#    x 3.803730 0.000000 0.000000 
#    y 0.000000 3.614850 0.000000 
#    z 0.000000 0.000000 4.495610 
# 
# 
# High freq. dielectric constant tensor:
#      x y z
#    x 1.812620 0.000000 0.000000 
#    y 0.000000 1.811580 0.000000 
#    z 0.000000 0.000000 1.877430 
# 
# From -- ./inp_files/34914.got.cif
#   From: 2010.03.12/outbox.cif.g09.slc.cpg/sg63_18_cif.got.tgz:34914.got - 2010.04.10 19:34:48.
