data_PCOD8260071
_publ_section_title
;
Structure prediction by ZEFSAII (Michael W. Deem and Ramdas Pophale) SiO2 
 PCOD8260071
Probable space group: C M C M
;
_chemical_formula_sum "Si O2"
_cell_formula_units_Z 72
_cell_length_a 15.435979
_cell_length_b 26.738684
_cell_length_c 8.613762
_cell_angle_alpha 90.000000
_cell_angle_beta 90.000000
_cell_angle_gamma 90.000000
_cell_volume 3555.224874
_symmetry_space_group_name_H-M "C M C M"
_symmetry_group_IT_number 63
_symmetry_cell_setting 'orthorhombic'
loop_
_space_group_symop_operation_xyz
x,y,z
-x,-y,1/2+z
x,-y,-z
-x,y,1/2-z
-x,-y,-z
x,y,1/2-z
-x,y,z
x,-y,1/2+z
1/2+x,1/2+y,z
1/2-x,1/2-y,1/2+z
1/2+x,1/2-y,-z
1/2-x,1/2+y,1/2-z
1/2-x,1/2-y,-z
1/2+x,1/2+y,1/2-z
1/2-x,1/2+y,z
1/2+x,1/2-y,1/2+z
loop_
_atom_site_type_symbol
_atom_site_label
_atom_site_fract_x
_atom_site_fract_y
_atom_site_fract_z
Si Si1 0.500000 0.266734 0.433823
Si Si2 0.000000 0.555119 0.432463
Si Si3 0.156711 0.053924 0.933191
Si Si4 0.675798 0.214985 0.434913
Si Si5 0.831848 0.606005 0.933470
Si Si6 0.500000 0.378852 0.435071
O O1 0.500000 0.270418 0.250000
O O2 0.584150 0.237040 0.491745
O O3 0.500000 0.322749 0.504190
O O4 0.000000 0.500000 0.500000
O O5 0.083444 0.585550 0.484136
O O6 0.000000 0.550440 0.250000
O O7 0.150617 0.050968 0.750000
O O8 0.251678 0.071543 0.986034
O O9 0.085408 0.092835 0.997157
O O10 0.135460 0.000000 0.000000
O O11 0.681129 0.211203 0.250000
O O12 0.750000 0.250000 0.500000
O O13 0.688708 0.161418 0.511146
O O14 0.845570 0.605025 0.750000
O O15 0.500000 0.377010 0.250000
#
# Coordination Sequence:
#
# PCOD8260071 Si02
#       6
#     8   8  16  16  16   8
#     4   9  19  36  58  81 111 152 195 234 287 354
#     4  12  25  42  63  89 120 158 201 250 307 366
#     4  10  21  36  58  84 113 149 189 234 288 345
#     4  11  22  38  61  89 120 158 200 247 300 358
#     4  11  23  40  61  87 118 157 201 247 298 356
#     4   9  17  34  57  82 112 148 187 230 279 340
#
# _framework density 20.251882999999999
#
# number of rings (size 3 to 8) (size 9 to 14) (size 15 to 20)
#    0.000    1.556    0.000    5.333    0.000    8.000 
#    0.000    1.667    0.000    2.667    0.000    0.000 
#    0.000    0.000    0.000    0.000    0.000    0.000 
#
# Total GULP energy -446552.232484 kJ/mol
# GULP energy per Si atom -12404.228680 kJ/mol
# Density = 2.020579 g / cm^3
# Si number density = 20.251883 Si / 1000 Ang^3
#
#
#
# Elastic Constant Matrix: (Units=GPa)
#
#
# Indices 1 2 3 4 5 6 
#
# 1 106.6898 6.9793 33.1391 0.0000 0.0000 0.0000
# 2 6.9793 104.2755 22.6096 0.0000 0.0000 0.0000
# 3 33.1391 22.6096 64.2976 0.0000 0.0000 0.0000
# 4 0.0000 0.0000 0.0000 37.5953 0.0000 0.0000
# 5 0.0000 0.0000 0.0000 0.0000 14.6450 0.0000
# 6 0.0000 0.0000 0.0000 0.0000 0.0000 42.0806
#
#
#
# Elastic Compliance Matrix: (Units=1/GPa)
#
#
# Indices 1 2 3 4 5 6 
#
# 1 0.011188 0.000543 -0.005957 0.000000 0.000000 0.000000
# 2 0.000543 0.010408 -0.003940 0.000000 0.000000 0.000000
# 3 -0.005957 -0.003940 0.020008 0.000000 0.000000 0.000000
# 4 0.000000 0.000000 0.000000 0.026599 0.000000 0.000000
# 5 0.000000 0.000000 0.000000 0.000000 0.068283 0.000000
# 6 0.000000 0.000000 0.000000 0.000000 0.000000 0.023764
#
#
# Mechanical properties :
#
#
# Convention : Reuss Voigt Hill
#
# Bulk Modulus (GPa) = 43.67528 44.52430 44.09979
# Shear Modulus (GPa) = 26.79680 33.03317 29.91499
#
# Velocity S-wave (km/s) = 3.64149 4.04309 3.84754
# Velocity P-wave (km/s) = 6.26845 6.62030 6.44678
#
# Compressibility (1/GPa) = 0.02289625
#
# Stress axis : x y z
#
# Youngs Moduli (GPa) = 89.38303 96.08128 49.97929
#
# Poissons Ratio (x) = -0.05216 0.29773
# Poissons Ratio (y) = -0.04852 0.19690
# Poissons Ratio (z) = 0.53246 0.37852
#
# Static dielectric constant tensor:
#      x y z
#    x 3.770940 0.000000 0.000000 
#    y 0.000000 2.368020 0.000000 
#    z 0.000000 0.000000 3.499860 
# 
# 
# High freq. dielectric constant tensor:
#      x y z
#    x 1.812340 0.000000 0.000000 
#    y 0.000000 1.811490 0.000000 
#    z 0.000000 0.000000 1.773130 
# 
# From -- ./inp_files/4696.got.cif
#   From: 2010.03.12/outbox.cif.g09.slc.cpg/sg63_3_cif.got.tgz:4696.got - 2010.04.10 19:34:48.
