data_PCOD8260124
_publ_section_title
;
Structure prediction by ZEFSAII (Michael W. Deem and Ramdas Pophale) SiO2 
 PCOD8260124
Probable space group: C M C M
;
_chemical_formula_sum "Si O2"
_cell_formula_units_Z 96
_cell_length_a 16.256583
_cell_length_b 11.726979
_cell_length_c 26.540940
_cell_angle_alpha 90.000000
_cell_angle_beta 90.000000
_cell_angle_gamma 90.000000
_cell_volume 5059.780924
_symmetry_space_group_name_H-M "C M C M"
_symmetry_group_IT_number 63
_symmetry_cell_setting 'orthorhombic'
loop_
_space_group_symop_operation_xyz
x,y,z
-x,-y,1/2+z
x,-y,-z
-x,y,1/2-z
-x,-y,-z
x,y,1/2-z
-x,y,z
x,-y,1/2+z
1/2+x,1/2+y,z
1/2-x,1/2-y,1/2+z
1/2+x,1/2-y,-z
1/2-x,1/2+y,1/2-z
1/2-x,1/2-y,-z
1/2+x,1/2+y,1/2-z
1/2-x,1/2+y,z
1/2+x,1/2-y,1/2+z
loop_
_atom_site_type_symbol
_atom_site_label
_atom_site_fract_x
_atom_site_fract_y
_atom_site_fract_z
Si Si1 0.903858 0.196183 0.439960
Si Si2 0.402169 0.688131 0.806029
Si Si3 0.154170 0.139382 0.954553
Si Si4 0.902177 0.653978 0.396299
Si Si5 0.662917 0.057228 0.946467
Si Si6 0.408744 0.508357 0.372383
O O1 0.856203 0.133475 0.485504
O O2 0.890528 0.329971 0.438010
O O3 0.870440 0.131600 0.388699
O O4 0.000000 0.170982 0.446444
O O5 0.365885 0.706742 0.750000
O O6 0.500000 0.676057 0.804550
O O7 0.379193 0.795977 0.841073
O O8 0.364004 0.569556 0.829573
O O9 0.143296 0.271498 0.939176
O O10 0.242800 0.090469 0.940021
O O11 0.087069 0.067360 0.923649
O O12 0.864511 0.527825 0.401659
O O13 0.000000 0.653061 0.405517
O O14 0.641902 0.000000 0.000000
O O15 0.500000 0.531463 0.352589
#
# Coordination Sequence:
#
# PCOD8260124 Si02
#       6
#    16  16  16  16  16  16
#     4  11  21  33  50  72 109 151 185 220 263 318
#     4   8  15  32  59  84 101 126 175 232 272 311
#     4  11  21  33  52  74 107 144 186 220 259 312
#     4  10  21  37  56  80 107 142 184 221 266 321
#     4  12  24  33  50  75 114 150 186 219 264 317
#     4   9  18  31  51  79 104 130 174 223 269 313
#
# _framework density 18.973154000000001
#
# number of rings (size 3 to 8) (size 9 to 14) (size 15 to 20)
#    0.000    1.833    1.667    5.000    2.333    2.000 
#    0.000    0.000    0.000    5.000    0.000    4.667 
#    0.000    0.000    0.000    0.000    0.000    0.000 
#
# Total GULP energy -594743.101155 kJ/mol
# GULP energy per Si atom -12390.481274 kJ/mol
# Density = 1.892997 g / cm^3
# Si number density = 18.973154 Si / 1000 Ang^3
#
#
#
# Elastic Constant Matrix: (Units=GPa)
#
#
# Indices 1 2 3 4 5 6 
#
# 1 60.3211 33.0701 26.6146 0.0000 0.0000 0.0000
# 2 33.0701 122.8395 54.7963 0.0000 0.0000 0.0000
# 3 26.6146 54.7963 115.9904 0.0000 0.0000 0.0000
# 4 0.0000 0.0000 0.0000 22.0985 0.0000 0.0000
# 5 0.0000 0.0000 0.0000 0.0000 10.5070 0.0000
# 6 0.0000 0.0000 0.0000 0.0000 0.0000 32.1700
#
#
#
# Elastic Compliance Matrix: (Units=1/GPa)
#
#
# Indices 1 2 3 4 5 6 
#
# 1 0.020048 -0.004238 -0.002598 0.000000 0.000000 0.000000
# 2 -0.004238 0.011210 -0.004324 0.000000 0.000000 0.000000
# 3 -0.002598 -0.004324 0.011260 0.000000 0.000000 0.000000
# 4 0.000000 0.000000 0.000000 0.045252 0.000000 0.000000
# 5 0.000000 0.000000 0.000000 0.000000 0.095175 0.000000
# 6 0.000000 0.000000 0.000000 0.000000 0.000000 0.031085
#
#
# Mechanical properties :
#
#
# Convention : Reuss Voigt Hill
#
# Bulk Modulus (GPa) = 49.50773 58.67924 54.09348
# Shear Modulus (GPa) = 20.56920 25.26641 22.91780
#
# Velocity S-wave (km/s) = 3.29617 3.65320 3.47927
# Velocity P-wave (km/s) = 6.37468 6.98492 6.68676
#
# Compressibility (1/GPa) = 0.02019887
#
# Stress axis : x y z
#
# Youngs Moduli (GPa) = 49.88094 89.20332 88.80996
#
# Poissons Ratio (x) = 0.37807 0.23071
# Poissons Ratio (y) = 0.21141 0.38397
# Poissons Ratio (z) = 0.12958 0.38567
#
# Static dielectric constant tensor:
#      x y z
#    x 3.217720 0.000000 0.000000 
#    y 0.000000 3.759620 0.000000 
#    z 0.000000 0.000000 3.523210 
# 
# 
# High freq. dielectric constant tensor:
#      x y z
#    x 1.712100 0.000000 0.000000 
#    y 0.000000 1.751690 0.000000 
#    z 0.000000 0.000000 1.701570 
# 
# From -- ./inp_files/63667.got.cif
#   From: 2010.03.12/outbox.cif.g09.slc.cpg/sg63_32_cif.got.tgz:63667.got - 2010.04.10 19:34:48.
