data_PCOD8260952
_publ_section_title
;
Structure prediction by ZEFSAII (Michael W. Deem and Ramdas Pophale) SiO2 
 PCOD8260952
Probable space group: C M C M
;
_chemical_formula_sum "Si O2"
_cell_formula_units_Z 88
_cell_length_a 20.661018
_cell_length_b 8.573203
_cell_length_c 25.850715
_cell_angle_alpha 90.000000
_cell_angle_beta 90.000000
_cell_angle_gamma 90.000000
_cell_volume 4578.965623
_symmetry_space_group_name_H-M "C M C M"
_symmetry_group_IT_number 63
_symmetry_cell_setting 'orthorhombic'
loop_
_space_group_symop_operation_xyz
x,y,z
-x,-y,1/2+z
x,-y,-z
-x,y,1/2-z
-x,-y,-z
x,y,1/2-z
-x,y,z
x,-y,1/2+z
1/2+x,1/2+y,z
1/2-x,1/2-y,1/2+z
1/2+x,1/2-y,-z
1/2-x,1/2+y,1/2-z
1/2-x,1/2-y,-z
1/2+x,1/2+y,1/2-z
1/2-x,1/2+y,z
1/2+x,1/2-y,1/2+z
loop_
_atom_site_type_symbol
_atom_site_label
_atom_site_fract_x
_atom_site_fract_y
_atom_site_fract_z
Si Si1 0.609204 0.500000 0.000000
Si Si2 0.770450 0.612900 0.193098
Si Si3 0.572798 0.305588 0.404575
Si Si4 0.824282 0.451448 0.904137
Si Si5 0.208343 0.775823 0.950112
Si Si6 0.345448 0.421023 0.191488
O O1 0.567938 0.594314 0.957593
O O2 0.651181 0.392243 0.962581
O O3 0.786199 0.550102 0.250000
O O4 0.820845 0.515268 0.157021
O O5 0.693480 0.582855 0.181571
O O6 0.787584 0.794978 0.187431
O O7 0.500000 0.257498 0.389469
O O8 0.613215 0.150305 0.419167
O O9 0.602349 0.395591 0.354441
O O10 0.823527 0.610911 0.935417
O O11 0.757797 0.349139 0.909120
O O12 0.250000 0.750000 0.000000
O O13 0.376923 0.416984 0.250000
#
# Coordination Sequence:
#
# PCOD8260952 Si02
#       6
#     8  16  16  16  16  16
#     4  12  23  38  58  80 113 142 188 242 284 332
#     4   9  17  30  52  84 111 133 166 220 286 329
#     4  11  24  39  53  76 113 157 196 225 266 329
#     4  11  20  35  57  83 113 142 177 230 280 337
#     4  12  20  34  59  86 106 132 177 233 291 333
#     4   9  18  34  57  83 111 140 178 230 283 333
#
# _framework density 19.218315
#
# number of rings (size 3 to 8) (size 9 to 14) (size 15 to 20)
#    0.000    1.455    3.636    3.545    0.000    0.364 
#    0.000    2.727    0.000    0.000    0.000    0.000 
#    0.000   16.000    0.000    0.000    0.000    0.000 
#
# Total GULP energy -545087.650589 kJ/mol
# GULP energy per Si atom -12388.355695 kJ/mol
# Density = 1.917457 g / cm^3
# Si number density = 19.218315 Si / 1000 Ang^3
#
#
#
# Elastic Constant Matrix: (Units=GPa)
#
#
# Indices 1 2 3 4 5 6 
#
# 1 103.7840 43.0575 42.2692 0.0000 0.0000 0.0000
# 2 43.0575 79.5206 35.0214 0.0000 0.0000 0.0000
# 3 42.2692 35.0214 98.2159 0.0000 0.0000 0.0000
# 4 0.0000 0.0000 0.0000 29.3694 0.0000 0.0000
# 5 0.0000 0.0000 0.0000 0.0000 21.0894 0.0000
# 6 0.0000 0.0000 0.0000 0.0000 0.0000 4.9547
#
#
#
# Elastic Compliance Matrix: (Units=1/GPa)
#
#
# Indices 1 2 3 4 5 6 
#
# 1 0.013530 -0.005649 -0.003809 0.000000 0.000000 0.000000
# 2 -0.005649 0.017276 -0.003729 0.000000 0.000000 0.000000
# 3 -0.003809 -0.003729 0.013151 0.000000 0.000000 0.000000
# 4 0.000000 0.000000 0.000000 0.034049 0.000000 0.000000
# 5 0.000000 0.000000 0.000000 0.000000 0.047417 0.000000
# 6 0.000000 0.000000 0.000000 0.000000 0.000000 0.201830
#
#
# Mechanical properties :
#
#
# Convention : Reuss Voigt Hill
#
# Bulk Modulus (GPa) = 56.87127 58.02407 57.44767
# Shear Modulus (GPa) = 13.90868 21.82751 17.86809
#
# Velocity S-wave (km/s) = 2.69312 3.37377 3.05248
# Velocity P-wave (km/s) = 6.27113 6.74048 6.51003
#
# Compressibility (1/GPa) = 0.01758357
#
# Stress axis : x y z
#
# Youngs Moduli (GPa) = 73.90910 57.88274 76.04197
#
# Poissons Ratio (x) = 0.32696 0.28963
# Poissons Ratio (y) = 0.41749 0.28358
# Poissons Ratio (z) = 0.28151 0.21586
#
# Static dielectric constant tensor:
#      x y z
#    x 2.992570 0.000000 0.000000 
#    y 0.000000 3.419280 0.000000 
#    z 0.000000 0.000000 3.858590 
# 
# 
# High freq. dielectric constant tensor:
#      x y z
#    x 1.700770 0.000000 0.000000 
#    y 0.000000 1.740120 0.000000 
#    z 0.000000 0.000000 1.781450 
# 
# From -- ./inp_files/74027.got.cif
#   From: 2010.03.12/outbox.cif.g09.slc.cpg/sg63_38_cif.got.tgz:74027.got - 2010.04.10 19:34:48.
