data_PCOD8260577
_publ_section_title
;
Structure prediction by ZEFSAII (Michael W. Deem and Ramdas Pophale) SiO2 
 PCOD8260577
Probable space group: C M C M
;
_chemical_formula_sum "Si O2"
_cell_formula_units_Z 72
_cell_length_a 17.648318
_cell_length_b 9.067671
_cell_length_c 19.918503
_cell_angle_alpha 90.000000
_cell_angle_beta 90.000000
_cell_angle_gamma 90.000000
_cell_volume 3187.540932
_symmetry_space_group_name_H-M "C M C M"
_symmetry_group_IT_number 63
_symmetry_cell_setting 'orthorhombic'
loop_
_space_group_symop_operation_xyz
x,y,z
-x,-y,1/2+z
x,-y,-z
-x,y,1/2-z
-x,-y,-z
x,y,1/2-z
-x,y,z
x,-y,1/2+z
1/2+x,1/2+y,z
1/2-x,1/2-y,1/2+z
1/2+x,1/2-y,-z
1/2-x,1/2+y,1/2-z
1/2-x,1/2-y,-z
1/2+x,1/2+y,1/2-z
1/2-x,1/2+y,z
1/2+x,1/2-y,1/2+z
loop_
_atom_site_type_symbol
_atom_site_label
_atom_site_fract_x
_atom_site_fract_y
_atom_site_fract_z
Si Si1 0.085387 0.968408 0.074537
Si Si2 0.377281 0.213081 0.891309
Si Si3 0.357099 0.000000 0.500000
Si Si4 0.202534 0.278811 0.890945
Si Si5 0.268686 0.900139 0.750000
Si Si6 0.851713 0.678227 0.750000
O O1 0.086733 0.125854 0.110812
O O2 0.000000 0.904078 0.077071
O O3 0.142292 0.852834 0.106694
O O4 0.113649 0.000000 0.000000
O O5 0.286446 0.214461 0.899445
O O6 0.399675 0.147789 0.817692
O O7 0.408089 0.108590 0.952117
O O8 0.307490 0.899099 0.550043
O O9 0.189213 0.348451 0.817836
O O10 0.181173 0.846379 0.750000
O O11 0.274988 0.077546 0.750000
#
# Coordination Sequence:
#
# PCOD8260577 Si02
#       6
#    16  16   8  16   8   8
#     4  11  25  44  62  94 136 171 206 263 328 381
#     4  11  23  38  65  93 128 165 217 262 315 375
#     4  12  20  34  61  94 117 158 212 266 304 360
#     4  11  23  38  65  93 128 165 217 262 315 375
#     4  10  22  38  58  93 133 165 205 267 325 369
#     4  10  22  38  58  93 133 165 205 267 325 369
#
# _framework density 22.587945999999999
#
# number of rings (size 3 to 8) (size 9 to 14) (size 15 to 20)
#    0.000    1.111    4.444    2.000   12.444    0.000 
#    0.000    4.444    0.000    1.333    0.000    0.000 
#    0.000    0.000    0.000    0.000    0.000    0.000 
#
# Total GULP energy -446103.476330 kJ/mol
# GULP energy per Si atom -12391.763231 kJ/mol
# Density = 2.253653 g / cm^3
# Si number density = 22.587946 Si / 1000 Ang^3
#
#
#
# Elastic Constant Matrix: (Units=GPa)
#
#
# Indices 1 2 3 4 5 6 
#
# 1 52.2641 6.2773 5.8302 0.0000 0.0000 0.0000
# 2 6.2773 96.5988 37.5273 0.0000 0.0000 0.0000
# 3 5.8302 37.5273 197.9262 0.0000 0.0000 0.0000
# 4 0.0000 0.0000 0.0000 38.1717 0.0000 0.0000
# 5 0.0000 0.0000 0.0000 0.0000 -2.3749 0.0000
# 6 0.0000 0.0000 0.0000 0.0000 0.0000 17.0144
#
#
#
# Elastic Compliance Matrix: (Units=1/GPa)
#
#
# Indices 1 2 3 4 5 6 
#
# 1 0.019307 -0.001116 -0.000357 0.000000 0.000000 0.000000
# 2 -0.001116 0.011240 -0.002098 0.000000 0.000000 0.000000
# 3 -0.000357 -0.002098 0.005461 0.000000 0.000000 0.000000
# 4 0.000000 0.000000 0.000000 0.026197 0.000000 0.000000
# 5 0.000000 0.000000 0.000000 0.000000 -0.421072 0.000000
# 6 0.000000 0.000000 0.000000 0.000000 0.000000 0.058774
#
#
# Mechanical properties :
#
#
# Convention : Reuss Voigt Hill
#
# Bulk Modulus (GPa) = 34.64355 49.56207 42.10281
# Shear Modulus (GPa) = -17.64734 30.37252 6.36259
#
# Velocity S-wave (km/s) = -2.79816 3.67090 1.68016
# Velocity P-wave (km/s) = 2.22056 6.32114 4.73750
#
# Compressibility (1/GPa) = 0.02886540
#
# Stress axis : x y z
#
# Youngs Moduli (GPa) = 51.79340 88.97006 183.12550
#
# Poissons Ratio (x) = 0.09928 0.06540
# Poissons Ratio (y) = 0.05780 0.38424
# Poissons Ratio (z) = 0.01850 0.18668
#
# Static dielectric constant tensor:
#      x y z
#    x 3.449040 0.000000 0.000000 
#    y 0.000000 4.427310 0.000000 
#    z 0.000000 0.000000 4.680570 
# 
# 
# High freq. dielectric constant tensor:
#      x y z
#    x 1.828730 0.000000 0.000000 
#    y 0.000000 1.903610 0.000000 
#    z 0.000000 0.000000 1.919650 
# 
# From -- ./inp_files/56351.got.cif
#   From: 2010.03.12/outbox.cif.g09.slc.cpg/sg63_29_cif.got.tgz:56351.got - 2010.04.10 19:34:48.
