data_PCOD8260766
_publ_section_title
;
Structure prediction by ZEFSAII (Michael W. Deem and Ramdas Pophale) SiO2 
 PCOD8260766
Probable space group: C M C M
;
_chemical_formula_sum "Si O2"
_cell_formula_units_Z 112
_cell_length_a 22.830877
_cell_length_b 16.567841
_cell_length_c 14.330675
_cell_angle_alpha 90.000000
_cell_angle_beta 90.000000
_cell_angle_gamma 90.000000
_cell_volume 5420.697337
_symmetry_space_group_name_H-M "C M C M"
_symmetry_group_IT_number 63
_symmetry_cell_setting 'orthorhombic'
loop_
_space_group_symop_operation_xyz
x,y,z
-x,-y,1/2+z
x,-y,-z
-x,y,1/2-z
-x,-y,-z
x,y,1/2-z
-x,y,z
x,-y,1/2+z
1/2+x,1/2+y,z
1/2-x,1/2-y,1/2+z
1/2+x,1/2-y,-z
1/2-x,1/2+y,1/2-z
1/2-x,1/2-y,-z
1/2+x,1/2+y,1/2-z
1/2-x,1/2+y,z
1/2+x,1/2-y,1/2+z
loop_
_atom_site_type_symbol
_atom_site_label
_atom_site_fract_x
_atom_site_fract_y
_atom_site_fract_z
Si Si1 0.568196 0.092023 0.483904
Si Si2 0.435026 0.474215 0.394116
Si Si3 0.667362 0.648732 0.854639
Si Si4 0.261319 0.589997 0.019357
Si Si5 0.867889 0.122464 0.148498
Si Si6 0.660660 0.835963 0.643179
Si Si7 0.068089 0.283733 0.142452
O O1 0.500000 0.101646 0.462409
O O2 0.601598 0.122049 0.392192
O O3 0.586835 0.142152 0.576315
O O4 0.586039 0.000000 0.500000
O O5 0.435137 0.500000 0.500000
O O6 0.500000 0.446899 0.361606
O O7 0.390716 0.400711 0.379627
O O8 0.416660 0.553609 0.336712
O O9 0.687966 0.627258 0.750000
O O10 0.650044 0.741351 0.863548
O O11 0.723039 0.630578 0.920462
O O12 0.320186 0.586373 0.079425
O O13 0.213509 0.640751 0.074668
O O14 0.237918 0.500000 0.000000
O O15 0.839814 0.140610 0.250000
O O16 0.895890 0.205086 0.109243
O O17 0.673546 0.862929 0.750000
O O18 0.081942 0.306771 0.250000
O O19 0.000000 0.263067 0.130231
#
# Coordination Sequence:
#
# PCOD8260766 Si02
#       7
#    16  16  16  16  16  16  16
#     4  10  22  42  67  92 120 156 200 259 323 382
#     4  11  22  37  60  93 134 177 215 256 310 374
#     4  11  23  41  62  90 127 170 216 262 313 371
#     4  12  23  42  64  90 123 165 211 267 316 369
#     4  11  20  35  61  91 128 171 211 256 310 367
#     4  11  26  44  64  90 122 161 209 261 316 384
#     4   9  19  35  59  93 129 166 209 257 310 371
#
# _framework density 20.661546999999999
#
# number of rings (size 3 to 8) (size 9 to 14) (size 15 to 20)
#    0.000    1.286    2.857    3.000    0.000    3.714 
#    0.000    5.000    0.000    0.000    0.000    0.000 
#    0.000    0.000    0.000    0.000    0.000    0.000 
#
# Total GULP energy -694471.686219 kJ/mol
# GULP energy per Si atom -12401.280111 kJ/mol
# Density = 2.061452 g / cm^3
# Si number density = 20.661547 Si / 1000 Ang^3
#
#
#
# Elastic Constant Matrix: (Units=GPa)
#
#
# Indices 1 2 3 4 5 6 
#
# 1 88.2620 53.8354 58.2598 0.0000 0.0000 0.0000
# 2 53.8354 135.3535 51.1983 0.0000 0.0000 0.0000
# 3 58.2598 51.1983 130.9594 0.0000 0.0000 0.0000
# 4 0.0000 0.0000 0.0000 24.0411 0.0000 0.0000
# 5 0.0000 0.0000 0.0000 0.0000 30.1789 0.0000
# 6 0.0000 0.0000 0.0000 0.0000 0.0000 31.1121
#
#
#
# Elastic Compliance Matrix: (Units=1/GPa)
#
#
# Indices 1 2 3 4 5 6 
#
# 1 0.018525 -0.004989 -0.006291 0.000000 0.000000 0.000000
# 2 -0.004989 0.010014 -0.001696 0.000000 0.000000 0.000000
# 3 -0.006291 -0.001696 0.011097 0.000000 0.000000 0.000000
# 4 0.000000 0.000000 0.000000 0.041595 0.000000 0.000000
# 5 0.000000 0.000000 0.000000 0.000000 0.033136 0.000000
# 6 0.000000 0.000000 0.000000 0.000000 0.000000 0.032142
#
#
# Mechanical properties :
#
#
# Convention : Reuss Voigt Hill
#
# Bulk Modulus (GPa) = 73.06718 75.68468 74.37593
# Shear Modulus (GPa) = 28.24513 29.81851 29.03182
#
# Velocity S-wave (km/s) = 3.70136 3.80305 3.75255
# Velocity P-wave (km/s) = 7.32853 7.48295 7.40614
#
# Compressibility (1/GPa) = 0.01368604
#
# Stress axis : x y z
#
# Youngs Moduli (GPa) = 53.98027 99.86457 90.11041
#
# Poissons Ratio (x) = 0.49819 0.56689
# Poissons Ratio (y) = 0.26929 0.15278
# Poissons Ratio (z) = 0.33959 0.16932
#
# Static dielectric constant tensor:
#      x y z
#    x 3.743210 0.000000 0.000000 
#    y 0.000000 3.821200 0.000000 
#    z 0.000000 0.000000 4.006290 
# 
# 
# High freq. dielectric constant tensor:
#      x y z
#    x 1.798040 0.000000 0.000000 
#    y 0.000000 1.814050 0.000000 
#    z 0.000000 0.000000 1.823190 
# 
# From -- ./inp_files/36934.got.cif
#   From: 2010.03.12/outbox.cif.g09.slc.cpg/sg63_19_cif.got.tgz:36934.got - 2010.04.10 19:34:48.
