data_PCOD8260938
_publ_section_title
;
Structure prediction by ZEFSAII (Michael W. Deem and Ramdas Pophale) SiO2 
 PCOD8260938
Probable space group: C M C M
;
_chemical_formula_sum "Si O2"
_cell_formula_units_Z 80
_cell_length_a 25.054910
_cell_length_b 20.661084
_cell_length_c 8.663480
_cell_angle_alpha 90.000000
_cell_angle_beta 90.000000
_cell_angle_gamma 90.000000
_cell_volume 4484.750919
_symmetry_space_group_name_H-M "C M C M"
_symmetry_group_IT_number 63
_symmetry_cell_setting 'orthorhombic'
loop_
_space_group_symop_operation_xyz
x,y,z
-x,-y,1/2+z
x,-y,-z
-x,y,1/2-z
-x,-y,-z
x,y,1/2-z
-x,y,z
x,-y,1/2+z
1/2+x,1/2+y,z
1/2-x,1/2-y,1/2+z
1/2+x,1/2-y,-z
1/2-x,1/2+y,1/2-z
1/2-x,1/2-y,-z
1/2+x,1/2+y,1/2-z
1/2-x,1/2+y,z
1/2+x,1/2-y,1/2+z
loop_
_atom_site_type_symbol
_atom_site_label
_atom_site_fract_x
_atom_site_fract_y
_atom_site_fract_z
Si Si1 0.387349 0.762508 0.568720
Si Si2 0.714123 0.433022 0.432361
Si Si3 0.000000 0.276102 0.918560
Si Si4 0.389475 0.376657 0.931957
Si Si5 0.275038 0.814105 0.929648
Si Si6 0.500000 0.377806 0.421409
O O1 0.395303 0.745295 0.750000
O O2 0.443036 0.794758 0.501996
O O3 0.374897 0.696366 0.480348
O O4 0.339025 0.812230 0.545237
O O5 0.736866 0.500000 0.500000
O O6 0.712763 0.435826 0.250000
O O7 0.654571 0.423203 0.495110
O O8 0.753831 0.376516 0.483595
O O9 0.000000 0.308418 0.750000
O O10 0.000000 0.198920 0.910990
O O11 0.386915 0.382250 0.750000
O O12 0.447232 0.400879 0.988886
O O13 0.259876 0.817958 0.750000
O O14 0.250000 0.750000 0.000000
O O15 0.500000 0.408258 0.250000
#
# Coordination Sequence:
#
# PCOD8260938 Si02
#       6
#    16  16   8  16  16   8
#     4   9  17  30  51  77 108 143 179 218 268 320
#     4  12  25  41  57  76 106 144 184 229 281 332
#     4   7  12  25  45  72 103 136 171 212 258 311
#     4  11  20  32  52  78 107 139 181 226 272 321
#     4  11  21  34  55  83 111 144 184 226 271 325
#     4   9  17  31  50  72 103 142 182 222 268 315
#
# _framework density 17.838225999999999
#
# number of rings (size 3 to 8) (size 9 to 14) (size 15 to 20)
#    0.000    1.800    2.000    5.700    0.000    0.800 
#    0.000    0.500    0.000    0.000    0.000    0.700 
#    0.000    0.000    0.000    0.000    0.000    0.000 
#
# Total GULP energy -495812.885735 kJ/mol
# GULP energy per Si atom -12395.322143 kJ/mol
# Density = 1.779763 g / cm^3
# Si number density = 17.838226 Si / 1000 Ang^3
#
#
#
# Elastic Constant Matrix: (Units=GPa)
#
#
# Indices 1 2 3 4 5 6 
#
# 1 129.6131 50.3194 49.0807 0.0000 0.0000 0.0000
# 2 50.3194 88.1012 45.4476 0.0000 0.0000 0.0000
# 3 49.0807 45.4476 142.5617 0.0000 0.0000 0.0000
# 4 0.0000 0.0000 0.0000 23.9544 0.0000 0.0000
# 5 0.0000 0.0000 0.0000 0.0000 27.1999 0.0000
# 6 0.0000 0.0000 0.0000 0.0000 0.0000 15.3975
#
#
#
# Elastic Compliance Matrix: (Units=1/GPa)
#
#
# Indices 1 2 3 4 5 6 
#
# 1 0.010375 -0.004887 -0.002014 0.000000 0.000000 0.000000
# 2 -0.004887 0.015886 -0.003382 0.000000 0.000000 0.000000
# 3 -0.002014 -0.003382 0.008786 0.000000 0.000000 0.000000
# 4 0.000000 0.000000 0.000000 0.041746 0.000000 0.000000
# 5 0.000000 0.000000 0.000000 0.000000 0.036765 0.000000
# 6 0.000000 0.000000 0.000000 0.000000 0.000000 0.064945
#
#
# Mechanical properties :
#
#
# Convention : Reuss Voigt Hill
#
# Bulk Modulus (GPa) = 69.05244 72.21904 70.63574
# Shear Modulus (GPa) = 24.52220 27.67225 26.09722
#
# Velocity S-wave (km/s) = 3.71172 3.94291 3.82906
# Velocity P-wave (km/s) = 7.56066 7.82957 7.69629
#
# Compressibility (1/GPa) = 0.01448175
#
# Stress axis : x y z
#
# Youngs Moduli (GPa) = 96.38421 62.94704 113.81676
#
# Poissons Ratio (x) = 0.30761 0.22923
# Poissons Ratio (y) = 0.47102 0.38493
# Poissons Ratio (z) = 0.19412 0.21289
#
# Static dielectric constant tensor:
#      x y z
#    x 3.903350 0.000000 0.000000 
#    y 0.000000 2.945620 0.000000 
#    z 0.000000 0.000000 3.354450 
# 
# 
# High freq. dielectric constant tensor:
#      x y z
#    x 1.711140 0.000000 0.000000 
#    y 0.000000 1.638290 0.000000 
#    z 0.000000 0.000000 1.694270 
# 
# From -- ./inp_files/12126.got.cif
#   From: 2010.03.12/outbox.cif.g09.slc.cpg/sg63_7_cif.got.tgz:12126.got - 2010.04.10 19:34:48.
