data_PCOD8260784
_publ_section_title
;
Structure prediction by ZEFSAII (Michael W. Deem and Ramdas Pophale) SiO2 
 PCOD8260784
Probable space group: C M C M
;
_chemical_formula_sum "Si O2"
_cell_formula_units_Z 96
_cell_length_a 10.877787
_cell_length_b 19.597147
_cell_length_c 22.711688
_cell_angle_alpha 90.000000
_cell_angle_beta 90.000000
_cell_angle_gamma 90.000000
_cell_volume 4841.532086
_symmetry_space_group_name_H-M "C M C M"
_symmetry_group_IT_number 63
_symmetry_cell_setting 'orthorhombic'
loop_
_space_group_symop_operation_xyz
x,y,z
-x,-y,1/2+z
x,-y,-z
-x,y,1/2-z
-x,-y,-z
x,y,1/2-z
-x,y,z
x,-y,1/2+z
1/2+x,1/2+y,z
1/2-x,1/2-y,1/2+z
1/2+x,1/2-y,-z
1/2-x,1/2+y,1/2-z
1/2-x,1/2-y,-z
1/2+x,1/2+y,1/2-z
1/2-x,1/2+y,z
1/2+x,1/2-y,1/2+z
loop_
_atom_site_type_symbol
_atom_site_label
_atom_site_fract_x
_atom_site_fract_y
_atom_site_fract_z
Si Si1 0.362154 0.131720 0.129656
Si Si2 0.763136 0.249797 0.181754
Si Si3 0.862033 0.630137 0.617798
Si Si4 0.764715 0.503991 0.819216
Si Si5 0.856164 0.691824 0.494490
Si Si6 0.000000 0.829765 0.820251
Si Si7 0.500000 0.479073 0.817934
O O1 0.500000 0.104526 0.133843
O O2 0.353404 0.203413 0.165152
O O3 0.279865 0.074488 0.161168
O O4 0.324615 0.146339 0.062369
O O5 0.768338 0.264984 0.250000
O O6 0.761253 0.323057 0.150405
O O7 0.880224 0.209015 0.156186
O O8 0.844533 0.552432 0.638982
O O9 0.843691 0.638563 0.548142
O O10 0.000000 0.651958 0.636235
O O11 0.799223 0.512393 0.750000
O O12 0.621872 0.522552 0.832047
O O13 0.750000 0.750000 0.500000
O O14 0.000000 0.719833 0.491300
O O15 0.000000 0.829154 0.750000
O O16 0.000000 0.904966 0.849342
O O17 0.500000 0.459065 0.750000
#
# Coordination Sequence:
#
# PCOD8260784 Si02
#       7
#    16  16  16  16  16   8   8
#     4  11  23  39  62  89 121 161 205 252 305 367
#     4  11  20  33  58  89 119 151 197 253 303 362
#     4  11  23  39  62  88 119 162 207 253 308 366
#     4  11  23  40  61  89 129 165 200 251 311 374
#     4  10  22  43  66  91 122 162 211 264 310 362
#     4   9  16  30  56  85 111 143 193 250 290 348
#     4   9  18  36  58  82 118 163 200 238 299 367
#
# _framework density 19.828434999999999
#
# number of rings (size 3 to 8) (size 9 to 14) (size 15 to 20)
#    0.000    1.500    4.167    1.500    0.000    3.667 
#    4.500    2.500    0.000    1.000    0.000    0.000 
#    0.000    0.000    0.000    0.000    0.000    0.000 
#
# Total GULP energy -594939.056912 kJ/mol
# GULP energy per Si atom -12394.563686 kJ/mol
# Density = 1.978330 g / cm^3
# Si number density = 19.828435 Si / 1000 Ang^3
#
#
#
# Elastic Constant Matrix: (Units=GPa)
#
#
# Indices 1 2 3 4 5 6 
#
# 1 76.8654 17.6941 31.0255 0.0000 0.0000 0.0000
# 2 17.6941 77.4740 26.2874 0.0000 0.0000 0.0000
# 3 31.0255 26.2874 86.2330 0.0000 0.0000 0.0000
# 4 0.0000 0.0000 0.0000 36.4849 0.0000 0.0000
# 5 0.0000 0.0000 0.0000 0.0000 25.5403 0.0000
# 6 0.0000 0.0000 0.0000 0.0000 0.0000 27.0962
#
#
#
# Elastic Compliance Matrix: (Units=1/GPa)
#
#
# Indices 1 2 3 4 5 6 
#
# 1 0.015450 -0.001832 -0.005000 0.000000 0.000000 0.000000
# 2 -0.001832 0.014614 -0.003796 0.000000 0.000000 0.000000
# 3 -0.005000 -0.003796 0.014553 0.000000 0.000000 0.000000
# 4 0.000000 0.000000 0.000000 0.027409 0.000000 0.000000
# 5 0.000000 0.000000 0.000000 0.000000 0.039154 0.000000
# 6 0.000000 0.000000 0.000000 0.000000 0.000000 0.036906
#
#
# Mechanical properties :
#
#
# Convention : Reuss Voigt Hill
#
# Bulk Modulus (GPa) = 42.80753 43.39850 43.10302
# Shear Modulus (GPa) = 28.22838 28.86198 28.54518
#
# Velocity S-wave (km/s) = 3.77720 3.81935 3.79833
# Velocity P-wave (km/s) = 6.37642 6.43308 6.40481
#
# Compressibility (1/GPa) = 0.02336038
#
# Stress axis : x y z
#
# Youngs Moduli (GPa) = 64.72624 68.42806 68.71619
#
# Poissons Ratio (x) = 0.12535 0.34359
# Poissons Ratio (y) = 0.11857 0.26083
# Poissons Ratio (z) = 0.32364 0.25974
#
# Static dielectric constant tensor:
#      x y z
#    x 3.859520 0.000000 0.000000 
#    y 0.000000 3.383450 0.000000 
#    z 0.000000 0.000000 3.509350 
# 
# 
# High freq. dielectric constant tensor:
#      x y z
#    x 1.775730 0.000000 0.000000 
#    y 0.000000 1.760780 0.000000 
#    z 0.000000 0.000000 1.764680 
# 
# From -- ./inp_files/52937.got.cif
#   From: 2010.03.12/outbox.cif.g09.slc.cpg/sg63_27_cif.got.tgz:52937.got - 2010.04.10 19:34:48.
