data_PCOD8260378
_publ_section_title
;
Structure prediction by ZEFSAII (Michael W. Deem and Ramdas Pophale) SiO2 
 PCOD8260378
Probable space group: C M C M
;
_chemical_formula_sum "Si O2"
_cell_formula_units_Z 96
_cell_length_a 9.011132
_cell_length_b 23.251485
_cell_length_c 25.038283
_cell_angle_alpha 90.000000
_cell_angle_beta 90.000000
_cell_angle_gamma 90.000000
_cell_volume 5246.076152
_symmetry_space_group_name_H-M "C M C M"
_symmetry_group_IT_number 63
_symmetry_cell_setting 'orthorhombic'
loop_
_space_group_symop_operation_xyz
x,y,z
-x,-y,1/2+z
x,-y,-z
-x,y,1/2-z
-x,-y,-z
x,y,1/2-z
-x,y,z
x,-y,1/2+z
1/2+x,1/2+y,z
1/2-x,1/2-y,1/2+z
1/2+x,1/2-y,-z
1/2-x,1/2+y,1/2-z
1/2-x,1/2-y,-z
1/2+x,1/2+y,1/2-z
1/2-x,1/2+y,z
1/2+x,1/2-y,1/2+z
loop_
_atom_site_type_symbol
_atom_site_label
_atom_site_fract_x
_atom_site_fract_y
_atom_site_fract_z
Si Si1 0.171066 0.683160 0.188207
Si Si2 0.671262 0.315078 0.311656
Si Si3 0.829016 0.004219 0.560381
Si Si4 0.674780 0.114628 0.900899
Si Si5 0.324618 0.188630 0.001914
Si Si6 0.670964 0.376697 0.596195
O O1 0.203688 0.671180 0.250000
O O2 0.208093 0.749167 0.173804
O O3 0.278404 0.641576 0.155150
O O4 0.000000 0.669846 0.174677
O O5 0.707817 0.327035 0.250000
O O6 0.500000 0.328193 0.323907
O O7 0.772071 0.357108 0.346114
O O8 0.740181 0.051068 0.593966
O O9 0.000000 0.023222 0.558124
O O10 0.765961 0.000000 0.500000
O O11 0.806257 0.944588 0.590942
O O12 0.500000 0.109398 0.899588
O O13 0.729319 0.153050 0.950515
O O14 0.500000 0.196423 0.003226
O O15 0.250000 0.250000 0.000000
O O16 0.273973 0.155714 0.054413
O O17 0.500000 0.359489 0.586642
#
# Coordination Sequence:
#
# PCOD8260378 Si02
#       6
#    16  16  16  16  16  16
#     4   9  19  37  60  85 114 150 187 226 280 338
#     4   9  19  37  60  83 110 148 188 224 271 334
#     4  10  21  39  59  78 107 152 195 229 274 334
#     4  11  23  36  55  84 113 143 184 233 282 328
#     4  11  23  36  53  81 115 147 181 226 281 337
#     4  11  22  36  57  84 111 144 189 233 278 331
#
# _framework density 18.299391
#
# number of rings (size 3 to 8) (size 9 to 14) (size 15 to 20)
#    0.000    1.833    1.667    3.500    0.000    7.667 
#    0.000    2.500    0.000    1.000    0.000    0.000 
#    0.000    0.000    0.000    0.000    0.000    0.000 
#
# Total GULP energy -595441.178214 kJ/mol
# GULP energy per Si atom -12405.024546 kJ/mol
# Density = 1.825774 g / cm^3
# Si number density = 18.299391 Si / 1000 Ang^3
#
#
#
# Elastic Constant Matrix: (Units=GPa)
#
#
# Indices 1 2 3 4 5 6 
#
# 1 64.3759 52.2720 38.3412 0.0000 0.0000 0.0000
# 2 52.2720 111.1188 55.0532 0.0000 0.0000 0.0000
# 3 38.3412 55.0532 96.0939 0.0000 0.0000 0.0000
# 4 0.0000 0.0000 0.0000 25.1252 0.0000 0.0000
# 5 0.0000 0.0000 0.0000 0.0000 33.7378 0.0000
# 6 0.0000 0.0000 0.0000 0.0000 0.0000 32.8830
#
#
#
# Elastic Compliance Matrix: (Units=1/GPa)
#
#
# Indices 1 2 3 4 5 6 
#
# 1 0.026641 -0.010146 -0.004817 0.000000 0.000000 0.000000
# 2 -0.010146 0.016430 -0.005365 0.000000 0.000000 0.000000
# 3 -0.004817 -0.005365 0.015402 0.000000 0.000000 0.000000
# 4 0.000000 0.000000 0.000000 0.039801 0.000000 0.000000
# 5 0.000000 0.000000 0.000000 0.000000 0.029640 0.000000
# 6 0.000000 0.000000 0.000000 0.000000 0.000000 0.030411
#
#
# Mechanical properties :
#
#
# Convention : Reuss Voigt Hill
#
# Bulk Modulus (GPa) = 56.12373 62.54682 59.33527
# Shear Modulus (GPa) = 24.39987 26.74401 25.57194
#
# Velocity S-wave (km/s) = 3.65550 3.82707 3.74226
# Velocity P-wave (km/s) = 6.96801 7.33366 7.15317
#
# Compressibility (1/GPa) = 0.01781778
#
# Stress axis : x y z
#
# Youngs Moduli (GPa) = 37.53642 60.86408 64.92641
#
# Poissons Ratio (x) = 0.61751 0.31275
# Poissons Ratio (y) = 0.38083 0.34832
# Poissons Ratio (z) = 0.18081 0.32653
#
# Static dielectric constant tensor:
#      x y z
#    x 3.340900 0.000000 0.000000 
#    y 0.000000 1.678750 0.000000 
#    z 0.000000 0.000000 3.354200 
# 
# 
# High freq. dielectric constant tensor:
#      x y z
#    x 1.712350 0.000000 0.000000 
#    y 0.000000 1.709970 0.000000 
#    z 0.000000 0.000000 1.711270 
# 
# From -- ./inp_files/59846.got.cif
#   From: 2010.03.12/outbox.cif.g09.slc.cpg/sg63_30_cif.got.tgz:59846.got - 2010.04.10 19:34:48.
