data_PCOD8260342
_publ_section_title
;
Structure prediction by ZEFSAII (Michael W. Deem and Ramdas Pophale) SiO2 
 PCOD8260342
Probable space group: C M C M
;
_chemical_formula_sum "Si O2"
_cell_formula_units_Z 96
_cell_length_a 18.916269
_cell_length_b 14.201118
_cell_length_c 18.818287
_cell_angle_alpha 90.000000
_cell_angle_beta 90.000000
_cell_angle_gamma 90.000000
_cell_volume 5055.197238
_symmetry_space_group_name_H-M "C M C M"
_symmetry_group_IT_number 63
_symmetry_cell_setting 'orthorhombic'
loop_
_space_group_symop_operation_xyz
x,y,z
-x,-y,1/2+z
x,-y,-z
-x,y,1/2-z
-x,-y,-z
x,y,1/2-z
-x,y,z
x,-y,1/2+z
1/2+x,1/2+y,z
1/2-x,1/2-y,1/2+z
1/2+x,1/2-y,-z
1/2-x,1/2+y,1/2-z
1/2-x,1/2-y,-z
1/2+x,1/2+y,1/2-z
1/2-x,1/2+y,z
1/2+x,1/2-y,1/2+z
loop_
_atom_site_type_symbol
_atom_site_label
_atom_site_fract_x
_atom_site_fract_y
_atom_site_fract_z
Si Si1 0.082326 0.464981 0.923562
Si Si2 0.689482 0.724550 0.088618
Si Si3 0.310564 0.922999 0.165657
Si Si4 0.649814 0.229718 0.062732
Si Si5 0.675058 0.539239 0.330373
Si Si6 0.580942 0.368943 0.169173
O O1 0.121249 0.520781 0.861184
O O2 0.097079 0.354408 0.918119
O O3 0.000000 0.484885 0.913474
O O4 0.110013 0.500000 0.000000
O O5 0.687823 0.817905 0.135573
O O6 0.769724 0.696531 0.070799
O O7 0.657779 0.634947 0.128719
O O8 0.640949 0.737121 0.018679
O O9 0.312549 0.915901 0.250000
O O10 0.240839 0.978483 0.138614
O O11 0.631850 0.312233 0.117132
O O12 0.693798 0.567112 0.250000
O O13 0.603965 0.477615 0.335127
O O14 0.591196 0.331643 0.250000
O O15 0.500000 0.360157 0.144720
#
# Coordination Sequence:
#
# PCOD8260342 Si02
#       6
#    16  16  16  16  16  16
#     4  11  23  41  61  84 122 162 199 247 306 364
#     4  11  22  37  61  93 122 156 199 251 302 359
#     4  11  22  39  63  88 120 158 204 254 300 359
#     4  11  22  37  62  91 121 158 200 249 302 361
#     4  10  21  38  62  89 122 160 199 249 302 355
#     4  10  22  41  62  88 123 160 202 253 305 358
#
# _framework density 18.990355999999998
#
# number of rings (size 3 to 8) (size 9 to 14) (size 15 to 20)
#    0.000    1.333    5.000    1.000    0.000    2.333 
#    0.000    3.333    0.000    2.000    0.000    0.000 
#    0.000    0.000    0.000    0.000    0.000    0.000 
#
# Total GULP energy -595353.088321 kJ/mol
# GULP energy per Si atom -12403.189340 kJ/mol
# Density = 1.894713 g / cm^3
# Si number density = 18.990356 Si / 1000 Ang^3
#
#
#
# Elastic Constant Matrix: (Units=GPa)
#
#
# Indices 1 2 3 4 5 6 
#
# 1 61.2545 14.1358 24.2748 0.0000 0.0000 0.0000
# 2 14.1358 117.5228 52.4539 0.0000 0.0000 0.0000
# 3 24.2748 52.4539 95.4593 0.0000 0.0000 0.0000
# 4 0.0000 0.0000 0.0000 35.8937 0.0000 0.0000
# 5 0.0000 0.0000 0.0000 0.0000 24.1774 0.0000
# 6 0.0000 0.0000 0.0000 0.0000 0.0000 25.6981
#
#
#
# Elastic Compliance Matrix: (Units=1/GPa)
#
#
# Indices 1 2 3 4 5 6 
#
# 1 0.018157 -0.000163 -0.004528 0.000000 0.000000 0.000000
# 2 -0.000163 0.011275 -0.006154 0.000000 0.000000 0.000000
# 3 -0.004528 -0.006154 0.015009 0.000000 0.000000 0.000000
# 4 0.000000 0.000000 0.000000 0.027860 0.000000 0.000000
# 5 0.000000 0.000000 0.000000 0.000000 0.041361 0.000000
# 6 0.000000 0.000000 0.000000 0.000000 0.000000 0.038913
#
#
# Mechanical properties :
#
#
# Convention : Reuss Voigt Hill
#
# Bulk Modulus (GPa) = 43.95349 50.66284 47.30816
# Shear Modulus (GPa) = 27.49523 29.37863 28.43693
#
# Velocity S-wave (km/s) = 3.80919 3.93750 3.87388
# Velocity P-wave (km/s) = 6.52242 6.88534 6.70634
#
# Compressibility (1/GPa) = 0.02275132
#
# Stress axis : x y z
#
# Youngs Moduli (GPa) = 55.07442 88.68842 66.62794
#
# Poissons Ratio (x) = 0.01447 0.30167
# Poissons Ratio (y) = 0.00899 0.41004
# Poissons Ratio (z) = 0.24936 0.54581
#
# Static dielectric constant tensor:
#      x y z
#    x 3.335590 0.000000 0.000000 
#    y 0.000000 3.410760 0.000000 
#    z 0.000000 0.000000 3.547340 
# 
# 
# High freq. dielectric constant tensor:
#      x y z
#    x 1.728110 0.000000 0.000000 
#    y 0.000000 1.744980 0.000000 
#    z 0.000000 0.000000 1.742690 
# 
# From -- ./inp_files/56548.got.cif
#   From: 2010.03.12/outbox.cif.g09.slc.cpg/sg63_29_cif.got.tgz:56548.got - 2010.04.10 19:34:48.
