data_PCOD8260094
_publ_section_title
;
Structure prediction by ZEFSAII (Michael W. Deem and Ramdas Pophale) SiO2 
 PCOD8260094
Probable space group: C M C M
;
_chemical_formula_sum "Si O2"
_cell_formula_units_Z 80
_cell_length_a 8.999934
_cell_length_b 19.848533
_cell_length_c 25.023490
_cell_angle_alpha 90.000000
_cell_angle_beta 90.000000
_cell_angle_gamma 90.000000
_cell_volume 4470.083323
_symmetry_space_group_name_H-M "C M C M"
_symmetry_group_IT_number 63
_symmetry_cell_setting 'orthorhombic'
loop_
_space_group_symop_operation_xyz
x,y,z
-x,-y,1/2+z
x,-y,-z
-x,y,1/2-z
-x,-y,-z
x,y,1/2-z
-x,y,z
x,-y,1/2+z
1/2+x,1/2+y,z
1/2-x,1/2-y,1/2+z
1/2+x,1/2-y,-z
1/2-x,1/2+y,1/2-z
1/2-x,1/2-y,-z
1/2+x,1/2+y,1/2-z
1/2-x,1/2+y,z
1/2+x,1/2-y,1/2+z
loop_
_atom_site_type_symbol
_atom_site_label
_atom_site_fract_x
_atom_site_fract_y
_atom_site_fract_z
Si Si1 0.672173 0.693868 0.311525
Si Si2 0.170981 0.169515 0.812709
Si Si3 0.663581 0.579515 0.992790
Si Si4 0.325047 0.576796 0.109322
Si Si5 0.175331 0.566096 0.611703
O O1 0.702382 0.675244 0.250000
O O2 0.500000 0.710939 0.321625
O O3 0.767711 0.757716 0.329925
O O4 0.724257 0.630439 0.346413
O O5 0.192335 0.158581 0.750000
O O6 0.264433 0.111756 0.840905
O O7 0.000000 0.164500 0.830016
O O8 0.500000 0.607484 0.977499
O O9 0.776332 0.598242 0.945390
O O10 0.655839 0.500000 0.000000
O O11 0.714984 0.607979 0.050700
O O12 0.500000 0.560135 0.112221
O O13 0.237032 0.508563 0.120502
O O14 0.000000 0.563954 0.613912
#
# Coordination Sequence:
#
# PCOD8260094 Si02
#       5
#    16  16  16  16  16
#     4   9  18  34  55  77 102 131 164 205 253 302
#     4  10  21  37  55  73  98 134 171 206 250 304
#     4   8  15  30  50  71 100 136 170 205 248 299
#     4   9  18  33  53  77 105 137 170 205 250 302
#     4  11  21  32  51  78 105 132 168 213 254 295
#
# _framework density 17.896757999999998
#
# number of rings (size 3 to 8) (size 9 to 14) (size 15 to 20)
#    0.000    2.600    0.000    3.600    0.000    6.400 
#    0.000    3.000    0.000    0.000    0.000    0.000 
#    0.000    0.000    0.000    0.000    0.000    0.000 
#
# Total GULP energy -495941.800371 kJ/mol
# GULP energy per Si atom -12398.545009 kJ/mol
# Density = 1.785602 g / cm^3
# Si number density = 17.896758 Si / 1000 Ang^3
#
#
#
# Elastic Constant Matrix: (Units=GPa)
#
#
# Indices 1 2 3 4 5 6 
#
# 1 115.6573 65.4802 57.0638 0.0000 0.0000 0.0000
# 2 65.4802 92.4337 63.8054 0.0000 0.0000 0.0000
# 3 57.0638 63.8054 89.2896 0.0000 0.0000 0.0000
# 4 0.0000 0.0000 0.0000 5.4358 0.0000 0.0000
# 5 0.0000 0.0000 0.0000 0.0000 23.6705 0.0000
# 6 0.0000 0.0000 0.0000 0.0000 0.0000 28.7517
#
#
#
# Elastic Compliance Matrix: (Units=1/GPa)
#
#
# Indices 1 2 3 4 5 6 
#
# 1 0.015115 -0.007972 -0.003963 0.000000 0.000000 0.000000
# 2 -0.007972 0.025554 -0.013166 0.000000 0.000000 0.000000
# 3 -0.003963 -0.013166 0.023141 0.000000 0.000000 0.000000
# 4 0.000000 0.000000 0.000000 0.183965 0.000000 0.000000
# 5 0.000000 0.000000 0.000000 0.000000 0.042247 0.000000
# 6 0.000000 0.000000 0.000000 0.000000 0.000000 0.034781
#
#
# Mechanical properties :
#
#
# Convention : Reuss Voigt Hill
#
# Bulk Modulus (GPa) = 73.48799 74.45328 73.97064
# Shear Modulus (GPa) = 13.17385 18.97369 16.07377
#
# Velocity S-wave (km/s) = 2.71606 3.25956 3.00015
# Velocity P-wave (km/s) = 7.14054 7.47384 7.30909
#
# Compressibility (1/GPa) = 0.01360766
#
# Stress axis : x y z
#
# Youngs Moduli (GPa) = 66.16016 39.13293 43.21394
#
# Poissons Ratio (x) = 0.31195 0.17127
# Poissons Ratio (y) = 0.52740 0.56896
# Poissons Ratio (z) = 0.26221 0.51522
#
# Static dielectric constant tensor:
#      x y z
#    x 3.309270 0.000000 0.000000 
#    y 0.000000 3.098390 0.000000 
#    z 0.000000 0.000000 3.710200 
# 
# 
# High freq. dielectric constant tensor:
#      x y z
#    x 1.690860 0.000000 0.000000 
#    y 0.000000 1.667880 0.000000 
#    z 0.000000 0.000000 1.703580 
# 
# From -- ./inp_files/66610.got.cif
#   From: 2010.03.12/outbox.cif.g09.slc.cpg/sg63_34_cif.got.tgz:66610.got - 2010.04.10 19:34:48.
