data_PCOD8260724
_publ_section_title
;
Structure prediction by ZEFSAII (Michael W. Deem and Ramdas Pophale) SiO2 
 PCOD8260724
Probable space group: C M C M
;
_chemical_formula_sum "Si O2"
_cell_formula_units_Z 72
_cell_length_a 27.102880
_cell_length_b 14.561514
_cell_length_c 8.682332
_cell_angle_alpha 90.000000
_cell_angle_beta 90.000000
_cell_angle_gamma 90.000000
_cell_volume 3426.560174
_symmetry_space_group_name_H-M "C M C M"
_symmetry_group_IT_number 63
_symmetry_cell_setting 'orthorhombic'
loop_
_space_group_symop_operation_xyz
x,y,z
-x,-y,1/2+z
x,-y,-z
-x,y,1/2-z
-x,-y,-z
x,y,1/2-z
-x,y,z
x,-y,1/2+z
1/2+x,1/2+y,z
1/2-x,1/2-y,1/2+z
1/2+x,1/2-y,-z
1/2-x,1/2+y,1/2-z
1/2-x,1/2-y,-z
1/2+x,1/2+y,1/2-z
1/2-x,1/2+y,z
1/2+x,1/2-y,1/2+z
loop_
_atom_site_type_symbol
_atom_site_label
_atom_site_fract_x
_atom_site_fract_y
_atom_site_fract_z
Si Si1 0.767219 0.845404 0.931015
Si Si2 0.371065 0.403646 0.431665
Si Si3 0.910484 0.271799 0.071756
Si Si4 0.000000 0.601964 0.567494
Si Si5 0.172948 0.412795 0.428607
O O1 0.775800 0.836126 0.750000
O O2 0.750000 0.750000 0.000000
O O3 0.817062 0.881969 0.005158
O O4 0.723121 0.913999 0.972220
O O5 0.390187 0.500000 0.500000
O O6 0.368750 0.411365 0.250000
O O7 0.409700 0.323801 0.479278
O O8 0.919969 0.249226 0.250000
O O9 0.857696 0.319956 0.046332
O O10 0.952593 0.340442 0.009641
O O11 0.000000 0.500000 0.500000
O O12 0.000000 0.591317 0.750000
O O13 0.143011 0.500000 0.500000
O O14 0.184458 0.427267 0.250000
#
# Coordination Sequence:
#
# PCOD8260724 Si02
#       5
#    16  16  16   8  16
#     4  12  23  38  59  87 124 165 211 256 308 365
#     4  12  25  42  65  91 124 167 213 260 314 371
#     4  10  22  41  64  91 126 163 207 259 312 371
#     4  10  22  42  69 100 131 166 203 252 314 376
#     4  11  22  36  57  86 123 164 207 254 305 363
#
# _framework density 21.012326000000002
#
# number of rings (size 3 to 8) (size 9 to 14) (size 15 to 20)
#    0.000    0.889    2.222    6.000    0.000    1.778 
#    0.000    0.556    0.000    0.000    0.000    0.000 
#    0.000    0.000    0.000    0.000    0.000    0.000 
#
# Total GULP energy -446444.455098 kJ/mol
# GULP energy per Si atom -12401.234864 kJ/mol
# Density = 2.096450 g / cm^3
# Si number density = 21.012326 Si / 1000 Ang^3
#
#
#
# Elastic Constant Matrix: (Units=GPa)
#
#
# Indices 1 2 3 4 5 6 
#
# 1 91.2444 46.8571 39.7008 0.0000 0.0000 0.0000
# 2 46.8571 176.0792 74.6924 0.0000 0.0000 0.0000
# 3 39.7008 74.6924 144.0239 0.0000 0.0000 0.0000
# 4 0.0000 0.0000 0.0000 43.1729 0.0000 0.0000
# 5 0.0000 0.0000 0.0000 0.0000 22.9649 0.0000
# 6 0.0000 0.0000 0.0000 0.0000 0.0000 32.6146
#
#
#
# Elastic Compliance Matrix: (Units=1/GPa)
#
#
# Indices 1 2 3 4 5 6 
#
# 1 0.013284 -0.002541 -0.002344 0.000000 0.000000 0.000000
# 2 -0.002541 0.007767 -0.003328 0.000000 0.000000 0.000000
# 3 -0.002344 -0.003328 0.009315 0.000000 0.000000 0.000000
# 4 0.000000 0.000000 0.000000 0.023163 0.000000 0.000000
# 5 0.000000 0.000000 0.000000 0.000000 0.043545 0.000000
# 6 0.000000 0.000000 0.000000 0.000000 0.000000 0.030661
#
#
# Mechanical properties :
#
#
# Convention : Reuss Voigt Hill
#
# Bulk Modulus (GPa) = 71.72939 81.53868 76.63404
# Shear Modulus (GPa) = 33.60050 36.42364 35.01207
#
# Velocity S-wave (km/s) = 4.00319 4.16798 4.08642
# Velocity P-wave (km/s) = 7.45509 7.87732 7.66911
#
# Compressibility (1/GPa) = 0.01394129
#
# Stress axis : x y z
#
# Youngs Moduli (GPa) = 75.27674 128.75019 107.35070
#
# Poissons Ratio (x) = 0.32712 0.25165
# Poissons Ratio (y) = 0.19126 0.35723
# Poissons Ratio (z) = 0.17647 0.42844
#
# Static dielectric constant tensor:
#      x y z
#    x 3.741180 0.000000 0.000000 
#    y 0.000000 4.177990 0.000000 
#    z 0.000000 0.000000 3.952470 
# 
# 
# High freq. dielectric constant tensor:
#      x y z
#    x 1.802330 0.000000 0.000000 
#    y 0.000000 1.848540 0.000000 
#    z 0.000000 0.000000 1.824430 
# 
# From -- ./inp_files/11681.got.cif
#   From: 2010.03.12/outbox.cif.g09.slc.cpg/sg63_6_cif.got.tgz:11681.got - 2010.04.10 19:34:48.
