data_PCOD8260335
_publ_section_title
;
Structure prediction by ZEFSAII (Michael W. Deem and Ramdas Pophale) SiO2 
 PCOD8260335
Probable space group: C M C M
;
_chemical_formula_sum "Si O2"
_cell_formula_units_Z 56
_cell_length_a 30.885251
_cell_length_b 5.001116
_cell_length_c 16.243294
_cell_angle_alpha 90.000000
_cell_angle_beta 90.000000
_cell_angle_gamma 90.000000
_cell_volume 2508.950934
_symmetry_space_group_name_H-M "C M C M"
_symmetry_group_IT_number 63
_symmetry_cell_setting 'orthorhombic'
loop_
_space_group_symop_operation_xyz
x,y,z
-x,-y,1/2+z
x,-y,-z
-x,y,1/2-z
-x,-y,-z
x,y,1/2-z
-x,y,z
x,-y,1/2+z
1/2+x,1/2+y,z
1/2-x,1/2-y,1/2+z
1/2+x,1/2-y,-z
1/2-x,1/2+y,1/2-z
1/2-x,1/2-y,-z
1/2+x,1/2+y,1/2-z
1/2-x,1/2+y,z
1/2+x,1/2-y,1/2+z
loop_
_atom_site_type_symbol
_atom_site_label
_atom_site_fract_x
_atom_site_fract_y
_atom_site_fract_z
Si Si1 0.370300 0.895554 0.090637
Si Si2 0.221949 0.635793 0.845410
Si Si3 0.084664 0.877411 0.344112
Si Si4 0.000000 0.752564 0.058813
O O1 0.320435 0.810039 0.100300
O O2 0.400352 0.639311 0.106474
O O3 0.379728 0.140924 0.152645
O O4 0.380817 0.000000 0.000000
O O5 0.208717 0.661829 0.750000
O O6 0.241209 0.348604 0.868040
O O7 0.076983 0.961836 0.250000
O O8 0.041427 0.754066 0.382356
O O9 0.000000 0.500000 0.000000
O O10 0.000000 0.000000 0.000000
#
# Coordination Sequence:
#
# PCOD8260335 Si02
#       4
#    16  16  16   8
#     4  12  25  42  66  97 133 172 219 276 334 390
#     4  10  21  38  61  90 126 169 217 270 330 395
#     4  12  25  44  68  96 131 175 222 266 324 398
#     4  12  25  44  69  98 133 166 209 266 325 378
#
# _framework density 22.320086
#
# number of rings (size 3 to 8) (size 9 to 14) (size 15 to 20)
#    0.000    0.571    0.000    9.857    0.000    3.429 
#    0.000    4.286    0.000    0.000    0.000    0.000 
#    0.000    0.000    0.000    0.000    0.000    0.000 
#
# Total GULP energy -347430.571985 kJ/mol
# GULP energy per Si atom -12408.234714 kJ/mol
# Density = 2.226928 g / cm^3
# Si number density = 22.320086 Si / 1000 Ang^3
#
#
#
# Elastic Constant Matrix: (Units=GPa)
#
#
# Indices 1 2 3 4 5 6 
#
# 1 121.9527 42.4514 61.1806 0.0000 0.0000 0.0000
# 2 42.4514 143.0663 41.7487 0.0000 0.0000 0.0000
# 3 61.1806 41.7487 108.0261 0.0000 0.0000 0.0000
# 4 0.0000 0.0000 0.0000 29.7244 0.0000 0.0000
# 5 0.0000 0.0000 0.0000 0.0000 34.2857 0.0000
# 6 0.0000 0.0000 0.0000 0.0000 0.0000 34.4021
#
#
#
# Elastic Compliance Matrix: (Units=1/GPa)
#
#
# Indices 1 2 3 4 5 6 
#
# 1 0.011832 -0.001753 -0.006024 0.000000 0.000000 0.000000
# 2 -0.001753 0.008138 -0.002152 0.000000 0.000000 0.000000
# 3 -0.006024 -0.002152 0.013500 0.000000 0.000000 0.000000
# 4 0.000000 0.000000 0.000000 0.033642 0.000000 0.000000
# 5 0.000000 0.000000 0.000000 0.000000 0.029167 0.000000
# 6 0.000000 0.000000 0.000000 0.000000 0.000000 0.029068
#
#
# Mechanical properties :
#
#
# Convention : Reuss Voigt Hill
#
# Bulk Modulus (GPa) = 73.46182 73.75628 73.60905
# Shear Modulus (GPa) = 33.39064 34.86006 34.12535
#
# Velocity S-wave (km/s) = 3.87200 3.95628 3.91437
# Velocity P-wave (km/s) = 7.27834 7.34752 7.31301
#
# Compressibility (1/GPa) = 0.01361251
#
# Stress axis : x y z
#
# Youngs Moduli (GPa) = 84.51646 122.88025 74.07282
#
# Poissons Ratio (x) = 0.21542 0.44618
# Poissons Ratio (y) = 0.14817 0.15942
# Poissons Ratio (z) = 0.50909 0.26446
#
# Static dielectric constant tensor:
#      x y z
#    x 4.281190 0.000000 0.000000 
#    y 0.000000 4.099830 0.000000 
#    z 0.000000 0.000000 3.936680 
# 
# 
# High freq. dielectric constant tensor:
#      x y z
#    x 1.888790 0.000000 0.000000 
#    y 0.000000 1.896120 0.000000 
#    z 0.000000 0.000000 1.877660 
# 
# From -- ./inp_files/38225.got.cif
#   From: 2010.03.12/outbox.cif.g09.slc.cpg/sg63_20_cif.got.tgz:38225.got - 2010.04.10 19:34:48.
