data_PCOD8260583
_publ_section_title
;
Structure prediction by ZEFSAII (Michael W. Deem and Ramdas Pophale) SiO2 
 PCOD8260583
Probable space group: C M C M
;
_chemical_formula_sum "Si O2"
_cell_formula_units_Z 64
_cell_length_a 16.002480
_cell_length_b 8.810921
_cell_length_c 22.252343
_cell_angle_alpha 90.000000
_cell_angle_beta 90.000000
_cell_angle_gamma 90.000000
_cell_volume 3137.504418
_symmetry_space_group_name_H-M "C M C M"
_symmetry_group_IT_number 63
_symmetry_cell_setting 'orthorhombic'
loop_
_space_group_symop_operation_xyz
x,y,z
-x,-y,1/2+z
x,-y,-z
-x,y,1/2-z
-x,-y,-z
x,y,1/2-z
-x,y,z
x,-y,1/2+z
1/2+x,1/2+y,z
1/2-x,1/2-y,1/2+z
1/2+x,1/2-y,-z
1/2-x,1/2+y,1/2-z
1/2-x,1/2-y,-z
1/2+x,1/2+y,1/2-z
1/2-x,1/2+y,z
1/2+x,1/2-y,1/2+z
loop_
_atom_site_type_symbol
_atom_site_label
_atom_site_fract_x
_atom_site_fract_y
_atom_site_fract_z
Si Si1 0.000000 0.272023 0.523428
Si Si2 0.240983 0.928078 0.873776
Si Si3 0.000000 0.551742 0.899995
Si Si4 0.318327 0.308833 0.452315
Si Si5 0.647757 0.838112 0.318451
O O1 0.000000 0.361782 0.462166
O O2 0.000000 0.375060 0.583250
O O3 0.086537 0.177263 0.523874
O O4 0.312680 0.813685 0.898022
O O5 0.169187 0.830776 0.841076
O O6 0.204173 0.021858 0.930385
O O7 0.274827 0.045841 0.824105
O O8 0.920469 0.593100 0.861648
O O9 0.250000 0.250000 0.500000
O O10 0.616733 0.830295 0.250000
#
# Coordination Sequence:
#
# PCOD8260583 Si02
#       5
#     8  16   8  16  16
#     4  11  22  39  62  91 131 163 201 260 326 379
#     4  10  22  38  60  92 121 159 214 249 317 377
#     4  11  23  37  60  93 120 162 208 250 321 387
#     4  11  22  38  62  93 132 166 201 259 318 388
#     4  11  22  41  62  86 121 163 211 263 306 368
#
# _framework density 20.398378000000001
#
# number of rings (size 3 to 8) (size 9 to 14) (size 15 to 20)
#    0.000    1.250    2.500    4.875    3.500    1.000 
#    0.000    3.750    0.000    0.000    0.000    0.000 
#    0.000    0.000    0.000    0.000    0.000    0.000 
#
# Total GULP energy -396666.505214 kJ/mol
# GULP energy per Si atom -12395.828288 kJ/mol
# Density = 2.035195 g / cm^3
# Si number density = 20.398378 Si / 1000 Ang^3
#
#
#
# Elastic Constant Matrix: (Units=GPa)
#
#
# Indices 1 2 3 4 5 6 
#
# 1 122.0570 27.7056 37.2740 0.0000 0.0000 0.0000
# 2 27.7056 98.8566 29.3479 0.0000 0.0000 0.0000
# 3 37.2740 29.3479 109.7694 0.0000 0.0000 0.0000
# 4 0.0000 0.0000 0.0000 29.9038 0.0000 0.0000
# 5 0.0000 0.0000 0.0000 0.0000 41.7004 0.0000
# 6 0.0000 0.0000 0.0000 0.0000 0.0000 29.6994
#
#
#
# Elastic Compliance Matrix: (Units=1/GPa)
#
#
# Indices 1 2 3 4 5 6 
#
# 1 0.009439 -0.001840 -0.002713 0.000000 0.000000 0.000000
# 2 -0.001840 0.011346 -0.002409 0.000000 0.000000 0.000000
# 3 -0.002713 -0.002409 0.010675 0.000000 0.000000 0.000000
# 4 0.000000 0.000000 0.000000 0.033441 0.000000 0.000000
# 5 0.000000 0.000000 0.000000 0.000000 0.023981 0.000000
# 6 0.000000 0.000000 0.000000 0.000000 0.000000 0.033671
#
#
# Mechanical properties :
#
#
# Convention : Reuss Voigt Hill
#
# Bulk Modulus (GPa) = 57.02260 57.70422 57.36341
# Shear Modulus (GPa) = 35.13151 36.01776 35.57464
#
# Velocity S-wave (km/s) = 4.15453 4.20660 4.18065
# Velocity P-wave (km/s) = 7.14343 7.20722 7.17540
#
# Compressibility (1/GPa) = 0.01753691
#
# Stress axis : x y z
#
# Youngs Moduli (GPa) = 105.94203 88.13353 93.67362
#
# Poissons Ratio (x) = 0.16216 0.25416
# Poissons Ratio (y) = 0.19492 0.22564
# Poissons Ratio (z) = 0.28745 0.21230
#
# Static dielectric constant tensor:
#      x y z
#    x 3.694470 0.000000 0.000000 
#    y 0.000000 3.852430 0.000000 
#    z 0.000000 0.000000 3.637970 
# 
# 
# High freq. dielectric constant tensor:
#      x y z
#    x 1.789910 0.000000 0.000000 
#    y 0.000000 1.806440 0.000000 
#    z 0.000000 0.000000 1.793130 
# 
# From -- ./inp_files/55051.got.cif
#   From: 2010.03.12/outbox.cif.g09.slc.cpg/sg63_28_cif.got.tgz:55051.got - 2010.04.10 19:34:48.
