data_PCOD8260380
_publ_section_title
;
Structure prediction by ZEFSAII (Michael W. Deem and Ramdas Pophale) SiO2 
 PCOD8260380
Probable space group: C M C M
;
_chemical_formula_sum "Si O2"
_cell_formula_units_Z 72
_cell_length_a 16.100973
_cell_length_b 27.057883
_cell_length_c 8.688451
_cell_angle_alpha 90.000000
_cell_angle_beta 90.000000
_cell_angle_gamma 90.000000
_cell_volume 3785.195302
_symmetry_space_group_name_H-M "C M C M"
_symmetry_group_IT_number 63
_symmetry_cell_setting 'orthorhombic'
loop_
_space_group_symop_operation_xyz
x,y,z
-x,-y,1/2+z
x,-y,-z
-x,y,1/2-z
-x,-y,-z
x,y,1/2-z
-x,y,z
x,-y,1/2+z
1/2+x,1/2+y,z
1/2-x,1/2-y,1/2+z
1/2+x,1/2-y,-z
1/2-x,1/2+y,1/2-z
1/2-x,1/2-y,-z
1/2+x,1/2+y,1/2-z
1/2-x,1/2+y,z
1/2+x,1/2-y,1/2+z
loop_
_atom_site_type_symbol
_atom_site_label
_atom_site_fract_x
_atom_site_fract_y
_atom_site_fract_z
Si Si1 0.323009 0.449630 0.924855
Si Si2 0.906253 0.851122 0.926514
Si Si3 0.247755 0.196104 0.570008
Si Si4 0.500000 0.944826 0.432689
Si Si5 0.661335 0.106320 0.066472
O O1 0.306158 0.462064 0.750000
O O2 0.396200 0.409982 0.948339
O O3 0.236433 0.428567 0.992155
O O4 0.352457 0.500000 0.000000
O O5 0.883594 0.837105 0.750000
O O6 0.000000 0.835920 0.967064
O O7 0.845270 0.823361 0.041622
O O8 0.266972 0.197592 0.750000
O O9 0.250000 0.250000 0.500000
O O10 0.317469 0.161941 0.488623
O O11 0.500000 0.949036 0.250000
O O12 0.421022 0.913914 0.487932
O O13 0.500000 0.000000 0.500000
O O14 0.651291 0.106509 0.250000
#
# Coordination Sequence:
#
# PCOD8260380 Si02
#       5
#    16  16  16   8  16
#     4   9  18  31  51  78 109 147 186 225 273 325
#     4   9  19  37  57  79 111 148 186 230 279 330
#     4  11  22  39  62  86 113 146 188 236 292 353
#     4  12  24  38  58  88 124 162 200 244 299 356
#     4  10  21  39  59  82 114 152 196 244 291 344
#
# _framework density 19.021476
#
# number of rings (size 3 to 8) (size 9 to 14) (size 15 to 20)
#    0.000    2.000    0.000    5.667    0.000    7.111 
#    2.000    0.000    0.000    0.000    0.000    0.000 
#    0.000    0.000    0.000    0.000    0.000    0.000 
#
# Total GULP energy -446369.179290 kJ/mol
# GULP energy per Si atom -12399.143869 kJ/mol
# Density = 1.897818 g / cm^3
# Si number density = 19.021476 Si / 1000 Ang^3
#
#
#
# Elastic Constant Matrix: (Units=GPa)
#
#
# Indices 1 2 3 4 5 6 
#
# 1 98.8736 38.1697 37.2760 0.0000 0.0000 0.0000
# 2 38.1697 129.8016 47.0791 0.0000 0.0000 0.0000
# 3 37.2760 47.0791 103.7690 0.0000 0.0000 0.0000
# 4 0.0000 0.0000 0.0000 37.0606 0.0000 0.0000
# 5 0.0000 0.0000 0.0000 0.0000 30.3375 0.0000
# 6 0.0000 0.0000 0.0000 0.0000 0.0000 17.6268
#
#
#
# Elastic Compliance Matrix: (Units=1/GPa)
#
#
# Indices 1 2 3 4 5 6 
#
# 1 0.012298 -0.002411 -0.003324 0.000000 0.000000 0.000000
# 2 -0.002411 0.009694 -0.003532 0.000000 0.000000 0.000000
# 3 -0.003324 -0.003532 0.012433 0.000000 0.000000 0.000000
# 4 0.000000 0.000000 0.000000 0.026983 0.000000 0.000000
# 5 0.000000 0.000000 0.000000 0.000000 0.032963 0.000000
# 6 0.000000 0.000000 0.000000 0.000000 0.000000 0.056732
#
#
# Mechanical properties :
#
#
# Convention : Reuss Voigt Hill
#
# Bulk Modulus (GPa) = 62.92625 64.16596 63.54610
# Shear Modulus (GPa) = 28.58238 30.99959 29.79098
#
# Velocity S-wave (km/s) = 3.88059 4.04135 3.96179
# Velocity P-wave (km/s) = 7.29604 7.45543 7.37616
#
# Compressibility (1/GPa) = 0.01589162
#
# Stress axis : x y z
#
# Youngs Moduli (GPa) = 81.31617 103.15580 80.42923
#
# Poissons Ratio (x) = 0.24868 0.26734
# Poissons Ratio (y) = 0.19603 0.28409
# Poissons Ratio (z) = 0.27028 0.36436
#
# Static dielectric constant tensor:
#      x y z
#    x 3.406670 0.000000 0.000000 
#    y 0.000000 3.083910 0.000000 
#    z 0.000000 0.000000 3.408530 
# 
# 
# High freq. dielectric constant tensor:
#      x y z
#    x 1.736500 0.000000 0.000000 
#    y 0.000000 1.741310 0.000000 
#    z 0.000000 0.000000 1.741970 
# 
# From -- ./inp_files/4609.got.cif
#   From: 2010.03.12/outbox.cif.g09.slc.cpg/sg63_3_cif.got.tgz:4609.got - 2010.04.10 19:34:48.
