data_PCOD8260944
_publ_section_title
;
Structure prediction by ZEFSAII (Michael W. Deem and Ramdas Pophale) SiO2 
 PCOD8260944
Probable space group: C M C M
;
_chemical_formula_sum "Si O2"
_cell_formula_units_Z 80
_cell_length_a 22.687136
_cell_length_b 21.240851
_cell_length_c 10.118377
_cell_angle_alpha 90.000000
_cell_angle_beta 90.000000
_cell_angle_gamma 90.000000
_cell_volume 4875.985929
_symmetry_space_group_name_H-M "C M C M"
_symmetry_group_IT_number 63
_symmetry_cell_setting 'orthorhombic'
loop_
_space_group_symop_operation_xyz
x,y,z
-x,-y,1/2+z
x,-y,-z
-x,y,1/2-z
-x,-y,-z
x,y,1/2-z
-x,y,z
x,-y,1/2+z
1/2+x,1/2+y,z
1/2-x,1/2-y,1/2+z
1/2+x,1/2-y,-z
1/2-x,1/2+y,1/2-z
1/2-x,1/2-y,-z
1/2+x,1/2+y,1/2-z
1/2-x,1/2+y,z
1/2+x,1/2-y,1/2+z
loop_
_atom_site_type_symbol
_atom_site_label
_atom_site_fract_x
_atom_site_fract_y
_atom_site_fract_z
Si Si1 0.753114 0.070586 0.750000
Si Si2 0.274381 0.649286 0.994856
Si Si3 0.068182 0.643394 0.979521
Si Si4 0.250719 0.923838 0.750000
Si Si5 0.667328 0.768198 0.092836
Si Si6 0.113438 0.439807 0.250000
Si Si7 0.388273 0.913340 0.750000
O O1 0.785771 0.102964 0.627001
O O2 0.682304 0.079726 0.750000
O O3 0.765160 0.996918 0.750000
O O4 0.277595 0.605811 0.121802
O O5 0.324548 0.702249 0.015682
O O6 0.211441 0.681794 0.972644
O O7 0.083999 0.621008 0.125187
O O8 0.000000 0.660422 0.970167
O O9 0.101895 0.707009 0.936108
O O10 0.084066 0.587158 0.880992
O O11 0.318814 0.906351 0.750000
O O12 0.679826 0.761133 0.250000
O O13 0.097887 0.512930 0.250000
#
# Coordination Sequence:
#
# PCOD8260944 Si02
#       7
#     8  16  16   8  16   8   8
#     4  11  20  35  53  79 107 130 175 214 258 312
#     4  11  20  34  54  76 101 135 170 210 263 317
#     4  12  23  36  52  71 100 137 183 223 255 293
#     4  11  20  33  55  77 105 140 167 212 260 306
#     4  11  21  35  53  74 101 133 180 214 259 314
#     4  11  21  37  51  69 103 144 180 215 249 299
#     4  11  23  35  49  73 105 136 182 221 253 289
#
# _framework density 16.406938
#
# number of rings (size 3 to 8) (size 9 to 14) (size 15 to 20)
#    0.000    0.800    7.000    1.800    0.000    6.400 
#    0.000    0.000    0.000    0.000    0.000    0.000 
#    0.000    4.800    0.000    0.000    0.000    0.000 
#
# Total GULP energy -496004.615180 kJ/mol
# GULP energy per Si atom -12400.115380 kJ/mol
# Density = 1.636959 g / cm^3
# Si number density = 16.406938 Si / 1000 Ang^3
#
#
#
# Elastic Constant Matrix: (Units=GPa)
#
#
# Indices 1 2 3 4 5 6 
#
# 1 54.9692 44.0980 20.8031 0.0000 0.0000 0.0000
# 2 44.0980 95.5082 49.8978 0.0000 0.0000 0.0000
# 3 20.8031 49.8978 135.8903 0.0000 0.0000 0.0000
# 4 0.0000 0.0000 0.0000 46.5006 0.0000 0.0000
# 5 0.0000 0.0000 0.0000 0.0000 337.3134 0.0000
# 6 0.0000 0.0000 0.0000 0.0000 0.0000 22.3335
#
#
#
# Elastic Compliance Matrix: (Units=1/GPa)
#
#
# Indices 1 2 3 4 5 6 
#
# 1 0.028933 -0.013667 0.000589 0.000000 0.000000 0.000000
# 2 -0.013667 0.019411 -0.005035 0.000000 0.000000 0.000000
# 3 0.000589 -0.005035 0.009118 0.000000 0.000000 0.000000
# 4 0.000000 0.000000 0.000000 0.021505 0.000000 0.000000
# 5 0.000000 0.000000 0.000000 0.000000 0.002965 0.000000
# 6 0.000000 0.000000 0.000000 0.000000 0.000000 0.044776
#
#
# Mechanical properties :
#
#
# Convention : Reuss Voigt Hill
#
# Bulk Modulus (GPa) = 47.09059 57.32951 52.21005
# Shear Modulus (GPa) = 29.40974 92.66742 61.03858
#
# Velocity S-wave (km/s) = 4.23841 7.52351 6.10604
# Velocity P-wave (km/s) = 7.26058 10.51138 9.03341
#
# Compressibility (1/GPa) = 0.02123566
#
# Stress axis : x y z
#
# Youngs Moduli (GPa) = 34.56277 51.51674 109.67696
#
# Poissons Ratio (x) = 0.70406 -0.06460
# Poissons Ratio (y) = 0.47235 0.55227
# Poissons Ratio (z) = -0.02036 0.25941
#
# Static dielectric constant tensor:
#      x y z
#    x 2.856020 0.000000 0.000000 
#    y 0.000000 3.353520 0.000000 
#    z 0.000000 0.000000 3.252240 
# 
# 
# High freq. dielectric constant tensor:
#      x y z
#    x 1.586570 0.000000 0.000000 
#    y 0.000000 1.634050 0.000000 
#    z 0.000000 0.000000 1.656820 
# 
# From -- ./inp_files/10150.got.cif
#   From: 2010.03.12/outbox.cif.g09.slc.cpg/sg63_6_cif.got.tgz:10150.got - 2010.04.10 19:34:48.
