data_PCOD8260654
_publ_section_title
;
Structure prediction by ZEFSAII (Michael W. Deem and Ramdas Pophale) SiO2 
 PCOD8260654
Probable space group: C M C M
;
_chemical_formula_sum "Si O2"
_cell_formula_units_Z 96
_cell_length_a 8.522273
_cell_length_b 28.707503
_cell_length_c 20.217516
_cell_angle_alpha 90.000000
_cell_angle_beta 90.000000
_cell_angle_gamma 90.000000
_cell_volume 4946.279535
_symmetry_space_group_name_H-M "C M C M"
_symmetry_group_IT_number 63
_symmetry_cell_setting 'orthorhombic'
loop_
_space_group_symop_operation_xyz
x,y,z
-x,-y,1/2+z
x,-y,-z
-x,y,1/2-z
-x,-y,-z
x,y,1/2-z
-x,y,z
x,-y,1/2+z
1/2+x,1/2+y,z
1/2-x,1/2-y,1/2+z
1/2+x,1/2-y,-z
1/2-x,1/2+y,1/2-z
1/2-x,1/2-y,-z
1/2+x,1/2+y,1/2-z
1/2-x,1/2+y,z
1/2+x,1/2-y,1/2+z
loop_
_atom_site_type_symbol
_atom_site_label
_atom_site_fract_x
_atom_site_fract_y
_atom_site_fract_z
Si Si1 0.317986 0.875472 0.018639
Si Si2 0.317982 0.531648 0.938550
Si Si3 0.816026 0.781083 0.058816
Si Si4 0.320609 0.213336 0.325037
Si Si5 0.680545 0.971958 0.674228
Si Si6 0.180450 0.120638 0.374904
O O1 0.500000 0.873019 0.000116
O O2 0.282105 0.921072 0.061948
O O3 0.270189 0.830576 0.061137
O O4 0.217710 0.876658 0.952090
O O5 0.500000 0.544359 0.944952
O O6 0.288766 0.504548 0.870648
O O7 0.262501 0.500000 0.000000
O O8 0.777197 0.756555 0.128292
O O9 0.000000 0.788568 0.048002
O O10 0.750000 0.750000 0.000000
O O11 0.293466 0.229870 0.250000
O O12 0.500000 0.197713 0.337594
O O13 0.209857 0.169978 0.340718
O O14 0.718429 0.983911 0.750000
O O15 0.500000 0.981719 0.657039
O O16 0.714781 0.917880 0.661025
O O17 0.000000 0.106595 0.366168
#
# Coordination Sequence:
#
# PCOD8260654 Si02
#       6
#    16  16  16  16  16  16
#     4  12  24  39  62  90 122 159 202 253 303 357
#     4  11  23  40  64  92 121 157 203 253 301 359
#     4  11  22  38  62  89 121 159 202 250 298 357
#     4  10  22  40  61  87 121 161 201 243 299 362
#     4  11  24  41  62  90 125 164 203 245 301 366
#     4  12  23  36  59  91 125 159 199 249 304 362
#
# _framework density 19.408525999999998
#
# number of rings (size 3 to 8) (size 9 to 14) (size 15 to 20)
#    0.000    0.833    3.333    5.000    0.000    5.000 
#    0.000    0.833    0.000    3.000    0.000    0.000 
#    0.000    0.000    0.000    0.000    0.000    0.000 
#
# Total GULP energy -595582.535563 kJ/mol
# GULP energy per Si atom -12407.969491 kJ/mol
# Density = 1.936435 g / cm^3
# Si number density = 19.408526 Si / 1000 Ang^3
#
#
#
# Elastic Constant Matrix: (Units=GPa)
#
#
# Indices 1 2 3 4 5 6 
#
# 1 58.5908 34.2091 35.6197 0.0000 0.0000 0.0000
# 2 34.2091 127.3028 46.5709 0.0000 0.0000 0.0000
# 3 35.6197 46.5709 116.8341 0.0000 0.0000 0.0000
# 4 0.0000 0.0000 0.0000 11.3708 0.0000 0.0000
# 5 0.0000 0.0000 0.0000 0.0000 23.3750 0.0000
# 6 0.0000 0.0000 0.0000 0.0000 0.0000 34.5583
#
#
#
# Elastic Compliance Matrix: (Units=1/GPa)
#
#
# Indices 1 2 3 4 5 6 
#
# 1 0.022702 -0.004178 -0.005256 0.000000 0.000000 0.000000
# 2 -0.004178 0.009965 -0.002698 0.000000 0.000000 0.000000
# 3 -0.005256 -0.002698 0.011237 0.000000 0.000000 0.000000
# 4 0.000000 0.000000 0.000000 0.087945 0.000000 0.000000
# 5 0.000000 0.000000 0.000000 0.000000 0.042781 0.000000
# 6 0.000000 0.000000 0.000000 0.000000 0.000000 0.028937
#
#
# Mechanical properties :
#
#
# Convention : Reuss Voigt Hill
#
# Bulk Modulus (GPa) = 50.91664 59.50300 55.20982
# Shear Modulus (GPa) = 21.33311 26.28270 23.80791
#
# Velocity S-wave (km/s) = 3.31896 3.68391 3.50619
# Velocity P-wave (km/s) = 6.40144 6.98711 6.70068
#
# Compressibility (1/GPa) = 0.01963994
#
# Stress axis : x y z
#
# Youngs Moduli (GPa) = 44.04875 100.34997 88.99021
#
# Poissons Ratio (x) = 0.41924 0.46773
# Poissons Ratio (y) = 0.18403 0.24014
# Poissons Ratio (z) = 0.23152 0.27079
#
# Static dielectric constant tensor:
#      x y z
#    x 3.627410 0.000000 0.000000 
#    y 0.000000 3.665680 0.000000 
#    z 0.000000 0.000000 3.626650 
# 
# 
# High freq. dielectric constant tensor:
#      x y z
#    x 1.766530 0.000000 0.000000 
#    y 0.000000 1.756510 0.000000 
#    z 0.000000 0.000000 1.751090 
# 
# From -- ./inp_files/51309.got.cif
#   From: 2010.03.12/outbox.cif.g09.slc.cpg/sg63_26_cif.got.tgz:51309.got - 2010.04.10 19:34:48.
