data_PCOD8260265
_publ_section_title
;
Structure prediction by ZEFSAII (Michael W. Deem and Ramdas Pophale) SiO2 
 PCOD8260265
Probable space group: C M C M
;
_chemical_formula_sum "Si O2"
_cell_formula_units_Z 80
_cell_length_a 9.342999
_cell_length_b 25.048495
_cell_length_c 17.955723
_cell_angle_alpha 90.000000
_cell_angle_beta 90.000000
_cell_angle_gamma 90.000000
_cell_volume 4202.143087
_symmetry_space_group_name_H-M "C M C M"
_symmetry_group_IT_number 63
_symmetry_cell_setting 'orthorhombic'
loop_
_space_group_symop_operation_xyz
x,y,z
-x,-y,1/2+z
x,-y,-z
-x,y,1/2-z
-x,-y,-z
x,y,1/2-z
-x,y,z
x,-y,1/2+z
1/2+x,1/2+y,z
1/2-x,1/2-y,1/2+z
1/2+x,1/2-y,-z
1/2-x,1/2+y,1/2-z
1/2-x,1/2-y,-z
1/2+x,1/2+y,1/2-z
1/2-x,1/2+y,z
1/2+x,1/2-y,1/2+z
loop_
_atom_site_type_symbol
_atom_site_label
_atom_site_fract_x
_atom_site_fract_y
_atom_site_fract_z
Si Si1 0.164195 0.758775 0.835886
Si Si2 0.332776 0.146459 0.095416
Si Si3 0.164237 0.946183 0.836182
Si Si4 0.833418 0.930933 0.334350
Si Si5 0.666275 0.155397 0.576526
O O1 0.179942 0.742920 0.750000
O O2 0.259402 0.810167 0.851970
O O3 0.222099 0.709071 0.883894
O O4 0.000000 0.772171 0.856366
O O5 0.500000 0.145201 0.113311
O O6 0.267708 0.088567 0.112405
O O7 0.301275 0.161397 0.010374
O O8 0.193656 0.933028 0.750000
O O9 0.000000 0.932965 0.855899
O O10 0.198513 0.007644 0.853424
O O11 0.784286 0.918176 0.250000
O O12 0.747377 0.895672 0.392293
O O13 0.000000 0.918340 0.343440
O O14 0.500000 0.146660 0.593323
#
# Coordination Sequence:
#
# PCOD8260265 Si02
#       5
#    16  16  16  16  16
#     4  10  21  38  59  79 102 139 183 221 265 324
#     4  11  23  36  53  81 113 142 177 222 268 315
#     4   9  19  37  58  79 107 144 183 221 265 319
#     4   9  19  36  58  83 108 138 181 227 266 310
#     4  10  22  38  55  79 112 146 177 214 267 326
#
# _framework density 19.037906
#
# number of rings (size 3 to 8) (size 9 to 14) (size 15 to 20)
#    0.000    2.200    0.000    3.600    0.000    8.400 
#    0.000    6.000    0.000    0.000    0.000    0.000 
#    0.000    0.000    0.000    0.000    0.000    0.000 
#
# Total GULP energy -496193.520187 kJ/mol
# GULP energy per Si atom -12404.838005 kJ/mol
# Density = 1.899457 g / cm^3
# Si number density = 19.037906 Si / 1000 Ang^3
#
#
#
# Elastic Constant Matrix: (Units=GPa)
#
#
# Indices 1 2 3 4 5 6 
#
# 1 72.1412 46.6625 36.3287 0.0000 0.0000 0.0000
# 2 46.6625 94.4608 32.9252 0.0000 0.0000 0.0000
# 3 36.3287 32.9252 63.5616 0.0000 0.0000 0.0000
# 4 0.0000 0.0000 0.0000 31.5305 0.0000 0.0000
# 5 0.0000 0.0000 0.0000 0.0000 33.5380 0.0000
# 6 0.0000 0.0000 0.0000 0.0000 0.0000 36.4022
#
#
#
# Elastic Compliance Matrix: (Units=1/GPa)
#
#
# Indices 1 2 3 4 5 6 
#
# 1 0.024177 -0.008697 -0.009313 0.000000 0.000000 0.000000
# 2 -0.008697 0.016047 -0.003342 0.000000 0.000000 0.000000
# 3 -0.009313 -0.003342 0.022787 0.000000 0.000000 0.000000
# 4 0.000000 0.000000 0.000000 0.031715 0.000000 0.000000
# 5 0.000000 0.000000 0.000000 0.000000 0.029817 0.000000
# 6 0.000000 0.000000 0.000000 0.000000 0.000000 0.027471
#
#
# Mechanical properties :
#
#
# Convention : Reuss Voigt Hill
#
# Bulk Modulus (GPa) = 49.24401 51.33295 50.28848
# Shear Modulus (GPa) = 24.81538 27.91062 26.36300
#
# Velocity S-wave (km/s) = 3.61428 3.83306 3.72528
# Velocity P-wave (km/s) = 6.58330 6.82729 6.70640
#
# Compressibility (1/GPa) = 0.02030704
#
# Stress axis : x y z
#
# Youngs Moduli (GPa) = 41.36153 62.31529 43.88473
#
# Poissons Ratio (x) = 0.54195 0.40872
# Poissons Ratio (y) = 0.35972 0.14666
# Poissons Ratio (z) = 0.38522 0.20825
#
# Static dielectric constant tensor:
#      x y z
#    x 3.402360 0.000000 0.000000 
#    y 0.000000 3.472230 0.000000 
#    z 0.000000 0.000000 3.452770 
# 
# 
# High freq. dielectric constant tensor:
#      x y z
#    x 1.734720 0.000000 0.000000 
#    y 0.000000 1.749020 0.000000 
#    z 0.000000 0.000000 1.743460 
# 
# From -- ./inp_files/40434.got.cif
#   From: 2010.03.12/outbox.cif.g09.slc.cpg/sg63_21_cif.got.tgz:40434.got - 2010.04.10 19:34:48.
