data_PCOD8260608
_publ_section_title
;
Structure prediction by ZEFSAII (Michael W. Deem and Ramdas Pophale) SiO2 
 PCOD8260608
Probable space group: C M C M
;
_chemical_formula_sum "Si O2"
_cell_formula_units_Z 64
_cell_length_a 35.505994
_cell_length_b 4.997053
_cell_length_c 17.552141
_cell_angle_alpha 90.000000
_cell_angle_beta 90.000000
_cell_angle_gamma 90.000000
_cell_volume 3114.194476
_symmetry_space_group_name_H-M "C M C M"
_symmetry_group_IT_number 63
_symmetry_cell_setting 'orthorhombic'
loop_
_space_group_symop_operation_xyz
x,y,z
-x,-y,1/2+z
x,-y,-z
-x,y,1/2-z
-x,-y,-z
x,y,1/2-z
-x,y,z
x,-y,1/2+z
1/2+x,1/2+y,z
1/2-x,1/2-y,1/2+z
1/2+x,1/2-y,-z
1/2-x,1/2+y,1/2-z
1/2-x,1/2-y,-z
1/2+x,1/2+y,1/2-z
1/2-x,1/2+y,z
1/2+x,1/2-y,1/2+z
loop_
_atom_site_type_symbol
_atom_site_label
_atom_site_fract_x
_atom_site_fract_y
_atom_site_fract_z
Si Si1 0.576667 0.076904 0.414051
Si Si2 0.956875 0.921006 0.837180
Si Si3 0.774531 0.762481 0.337569
Si Si4 0.158087 0.744092 0.448965
O O1 0.550809 0.323045 0.389416
O O2 0.620386 0.154182 0.405587
O O3 0.565976 0.000000 0.500000
O O4 0.569764 0.824113 0.360003
O O5 0.948372 0.998851 0.750000
O O6 0.000000 0.831896 0.848410
O O7 0.787065 0.789399 0.250000
O O8 0.758548 0.470824 0.356788
O O9 0.810828 0.825564 0.387708
O O10 0.173507 0.500000 0.500000
O O11 0.148235 0.000000 0.500000
#
# Coordination Sequence:
#
# PCOD8260608 Si02
#       4
#    16  16  16  16
#     4  11  23  41  62  89 123 158 201 249 299 357
#     4  11  24  41  62  90 122 157 201 250 300 359
#     4  10  22  39  59  87 120 153 194 241 290 349
#     4  11  23  40  61  87 119 154 197 245 292 350
#
# _framework density 20.55106
#
# number of rings (size 3 to 8) (size 9 to 14) (size 15 to 20)
#    0.000    1.250    0.000    6.750    0.000   10.000 
#    0.000    2.500    0.000    0.000    0.000    0.000 
#    0.000    0.000    0.000    0.000    0.000    0.000 
#
# Total GULP energy -397041.088154 kJ/mol
# GULP energy per Si atom -12407.534005 kJ/mol
# Density = 2.050428 g / cm^3
# Si number density = 20.551060 Si / 1000 Ang^3
#
#
#
# Elastic Constant Matrix: (Units=GPa)
#
#
# Indices 1 2 3 4 5 6 
#
# 1 102.6654 33.1567 79.2433 0.0000 0.0000 0.0000
# 2 33.1567 122.3398 38.8644 0.0000 0.0000 0.0000
# 3 79.2433 38.8644 91.8352 0.0000 0.0000 0.0000
# 4 0.0000 0.0000 0.0000 37.1665 0.0000 0.0000
# 5 0.0000 0.0000 0.0000 0.0000 21.5053 0.0000
# 6 0.0000 0.0000 0.0000 0.0000 0.0000 -9.9363
#
#
#
# Elastic Compliance Matrix: (Units=1/GPa)
#
#
# Indices 1 2 3 4 5 6 
#
# 1 0.029166 0.000104 -0.025211 0.000000 0.000000 0.000000
# 2 0.000104 0.009444 -0.004087 0.000000 0.000000 0.000000
# 3 -0.025211 -0.004087 0.034373 0.000000 0.000000 0.000000
# 4 0.000000 0.000000 0.000000 0.026906 0.000000 0.000000
# 5 0.000000 0.000000 0.000000 0.000000 0.046500 0.000000
# 6 0.000000 0.000000 0.000000 0.000000 0.000000 -0.100641
#
#
# Mechanical properties :
#
#
# Convention : Reuss Voigt Hill
#
# Bulk Modulus (GPa) = 68.51232 68.81880 68.66556
# Shear Modulus (GPa) = 45.87136 20.78551 33.32843
#
# Velocity S-wave (km/s) = 4.72960 3.18371 4.03145
# Velocity P-wave (km/s) = 7.95207 6.86106 7.42663
#
# Compressibility (1/GPa) = 0.01459591
#
# Stress axis : x y z
#
# Youngs Moduli (GPa) = 34.28616 105.88825 29.09255
#
# Poissons Ratio (x) = -0.01105 0.73346
# Poissons Ratio (y) = -0.00358 0.11889
# Poissons Ratio (z) = 0.86440 0.43273
#
# Static dielectric constant tensor:
#      x y z
#    x 3.558580 0.000000 0.000000 
#    y 0.000000 3.959430 0.000000 
#    z 0.000000 0.000000 3.754670 
# 
# 
# High freq. dielectric constant tensor:
#      x y z
#    x 1.802610 0.000000 0.000000 
#    y 0.000000 1.823170 0.000000 
#    z 0.000000 0.000000 1.805750 
# 
# From -- ./inp_files/49320.got.cif
#   From: 2010.03.12/outbox.cif.g09.slc.cpg/sg63_25_cif.got.tgz:49320.got - 2010.04.10 19:34:48.
