data_PCOD8260661
_publ_section_title
;
Structure prediction by ZEFSAII (Michael W. Deem and Ramdas Pophale) SiO2 
 PCOD8260661
Probable space group: C M C M
;
_chemical_formula_sum "Si O2"
_cell_formula_units_Z 64
_cell_length_a 19.947322
_cell_length_b 10.366994
_cell_length_c 14.431827
_cell_angle_alpha 90.000000
_cell_angle_beta 90.000000
_cell_angle_gamma 90.000000
_cell_volume 2984.411877
_symmetry_space_group_name_H-M "C M C M"
_symmetry_group_IT_number 63
_symmetry_cell_setting 'orthorhombic'
loop_
_space_group_symop_operation_xyz
x,y,z
-x,-y,1/2+z
x,-y,-z
-x,y,1/2-z
-x,-y,-z
x,y,1/2-z
-x,y,z
x,-y,1/2+z
1/2+x,1/2+y,z
1/2-x,1/2-y,1/2+z
1/2+x,1/2-y,-z
1/2-x,1/2+y,1/2-z
1/2-x,1/2-y,-z
1/2+x,1/2+y,1/2-z
1/2-x,1/2+y,z
1/2+x,1/2-y,1/2+z
loop_
_atom_site_type_symbol
_atom_site_label
_atom_site_fract_x
_atom_site_fract_y
_atom_site_fract_z
Si Si1 0.704960 0.513505 0.641702
Si Si2 0.075078 0.157839 0.643632
Si Si3 0.576685 0.145443 0.515725
Si Si4 0.806531 0.272461 0.360538
O O1 0.715472 0.520565 0.750000
O O2 0.628252 0.548006 0.614826
O O3 0.755612 0.619662 0.598926
O O4 0.720416 0.368719 0.606619
O O5 0.086267 0.201362 0.750000
O O6 0.087247 0.283719 0.582120
O O7 0.000000 0.101481 0.628910
O O8 0.500000 0.153558 0.549335
O O9 0.620308 0.207795 0.596925
O O10 0.599981 0.000000 0.500000
O O11 0.813832 0.276608 0.250000
#
# Coordination Sequence:
#
# PCOD8260661 Si02
#       4
#    16  16  16  16
#     4   9  20  38  61  91 121 154 201 244 292 361
#     4   9  19  38  62  84 114 156 199 248 299 349
#     4  10  23  40  58  89 123 155 204 248 292 361
#     4  10  22  40  62  89 123 159 195 246 300 350
#
# _framework density 21.444762000000001
#
# number of rings (size 3 to 8) (size 9 to 14) (size 15 to 20)
#    0.000    2.500    0.000    0.000    3.500    4.500 
#    0.000    7.500    0.000    0.000    0.000    0.000 
#    0.000    0.000    0.000    0.000    0.000    0.000 
#
# Total GULP energy -396749.467960 kJ/mol
# GULP energy per Si atom -12398.420874 kJ/mol
# Density = 2.139595 g / cm^3
# Si number density = 21.444762 Si / 1000 Ang^3
#
#
#
# Elastic Constant Matrix: (Units=GPa)
#
#
# Indices 1 2 3 4 5 6 
#
# 1 127.3794 77.8338 41.7879 0.0000 0.0000 0.0000
# 2 77.8338 173.6263 36.4171 0.0000 0.0000 0.0000
# 3 41.7879 36.4171 60.4711 0.0000 0.0000 0.0000
# 4 0.0000 0.0000 0.0000 20.8416 0.0000 0.0000
# 5 0.0000 0.0000 0.0000 0.0000 28.2707 0.0000
# 6 0.0000 0.0000 0.0000 0.0000 0.0000 37.2914
#
#
#
# Elastic Compliance Matrix: (Units=1/GPa)
#
#
# Indices 1 2 3 4 5 6 
#
# 1 0.012466 -0.004328 -0.006008 0.000000 0.000000 0.000000
# 2 -0.004328 0.008095 -0.001884 0.000000 0.000000 0.000000
# 3 -0.006008 -0.001884 0.021823 0.000000 0.000000 0.000000
# 4 0.000000 0.000000 0.000000 0.047981 0.000000 0.000000
# 5 0.000000 0.000000 0.000000 0.000000 0.035372 0.000000
# 6 0.000000 0.000000 0.000000 0.000000 0.000000 0.026816
#
#
# Mechanical properties :
#
#
# Convention : Reuss Voigt Hill
#
# Bulk Modulus (GPa) = 55.72960 74.83937 65.28449
# Shear Modulus (GPa) = 27.32605 30.97661 29.15133
#
# Velocity S-wave (km/s) = 3.57354 3.80476 3.69096
# Velocity P-wave (km/s) = 6.56284 7.36723 6.97664
#
# Compressibility (1/GPa) = 0.01794379
#
# Stress axis : x y z
#
# Youngs Moduli (GPa) = 80.21601 123.53393 45.82272
#
# Poissons Ratio (x) = 0.53469 0.27531
# Poissons Ratio (y) = 0.34720 0.08633
# Poissons Ratio (z) = 0.48195 0.23273
#
# Static dielectric constant tensor:
#      x y z
#    x 4.009260 0.000000 0.000000 
#    y 0.000000 4.145450 0.000000 
#    z 0.000000 0.000000 3.649450 
# 
# 
# High freq. dielectric constant tensor:
#      x y z
#    x 1.848300 0.000000 0.000000 
#    y 0.000000 1.841990 0.000000 
#    z 0.000000 0.000000 1.834210 
# 
# From -- ./inp_files/33343.got.cif
#   From: 2010.03.12/outbox.cif.g09.slc.cpg/sg63_17_cif.got.tgz:33343.got - 2010.04.10 19:34:48.
