data_PCOD8260516
_publ_section_title
;
Structure prediction by ZEFSAII (Michael W. Deem and Ramdas Pophale) SiO2 
 PCOD8260516
Probable space group: C M C M
;
_chemical_formula_sum "Si O2"
_cell_formula_units_Z 72
_cell_length_a 10.143379
_cell_length_b 14.561135
_cell_length_c 25.021556
_cell_angle_alpha 90.000000
_cell_angle_beta 90.000000
_cell_angle_gamma 90.000000
_cell_volume 3695.661576
_symmetry_space_group_name_H-M "C M C M"
_symmetry_group_IT_number 63
_symmetry_cell_setting 'orthorhombic'
loop_
_space_group_symop_operation_xyz
x,y,z
-x,-y,1/2+z
x,-y,-z
-x,y,1/2-z
-x,-y,-z
x,y,1/2-z
-x,y,z
x,-y,1/2+z
1/2+x,1/2+y,z
1/2-x,1/2-y,1/2+z
1/2+x,1/2-y,-z
1/2-x,1/2+y,1/2-z
1/2-x,1/2-y,-z
1/2+x,1/2+y,1/2-z
1/2-x,1/2+y,z
1/2+x,1/2-y,1/2+z
loop_
_atom_site_type_symbol
_atom_site_label
_atom_site_fract_x
_atom_site_fract_y
_atom_site_fract_z
Si Si1 0.000000 0.397220 0.624994
Si Si2 0.000000 0.431000 0.188655
Si Si3 0.000000 0.790390 0.186898
Si Si4 0.651563 0.722312 0.047071
Si Si5 0.242126 0.466764 0.941742
Si Si6 0.246823 0.137979 0.630173
O O1 0.876271 0.416427 0.587808
O O2 0.000000 0.460847 0.677309
O O3 0.000000 0.296043 0.647846
O O4 0.872303 0.386275 0.164232
O O5 0.000000 0.409703 0.250000
O O6 0.871165 0.848328 0.171905
O O7 0.000000 0.766608 0.250000
O O8 0.500000 0.755420 0.036449
O O9 0.645787 0.611655 0.053772
O O10 0.713379 0.769729 0.099165
O O11 0.750000 0.750000 0.000000
O O12 0.294246 0.555526 0.909794
O O13 0.195170 0.500000 0.000000
#
# Coordination Sequence:
#
# PCOD8260516 Si02
#       6
#     8   8   8  16  16  16
#     4  10  22  38  66  95 127 163 222 270 308 387
#     4  10  21  43  66  88 122 172 220 274 326 375
#     4  12  25  43  67  95 126 169 218 279 327 364
#     4  12  26  41  64  97 131 170 212 256 317 392
#     4  11  23  39  64  95 134 171 206 254 326 391
#     4  11  24  42  65  95 129 167 217 266 318 388
#
# _framework density 19.482303000000002
#
# number of rings (size 3 to 8) (size 9 to 14) (size 15 to 20)
#    0.000    0.889    5.556    1.333    4.667    0.444 
#    0.000    0.000    0.000    1.333    0.000    0.000 
#    0.000    0.000    0.000    0.000    0.000    0.000 
#
# Total GULP energy -446337.774479 kJ/mol
# GULP energy per Si atom -12398.271513 kJ/mol
# Density = 1.943796 g / cm^3
# Si number density = 19.482303 Si / 1000 Ang^3
#
#
#
# Elastic Constant Matrix: (Units=GPa)
#
#
# Indices 1 2 3 4 5 6 
#
# 1 117.1187 25.0982 31.5727 0.0000 0.0000 0.0000
# 2 25.0982 114.8325 40.9616 0.0000 0.0000 0.0000
# 3 31.5727 40.9616 120.0354 0.0000 0.0000 0.0000
# 4 0.0000 0.0000 0.0000 22.3789 0.0000 0.0000
# 5 0.0000 0.0000 0.0000 0.0000 376.4496 0.0000
# 6 0.0000 0.0000 0.0000 0.0000 0.0000 34.3092
#
#
#
# Elastic Compliance Matrix: (Units=1/GPa)
#
#
# Indices 1 2 3 4 5 6 
#
# 1 0.009365 -0.001330 -0.002009 0.000000 0.000000 0.000000
# 2 -0.001330 0.010104 -0.003098 0.000000 0.000000 0.000000
# 3 -0.002009 -0.003098 0.009917 0.000000 0.000000 0.000000
# 4 0.000000 0.000000 0.000000 0.044685 0.000000 0.000000
# 5 0.000000 0.000000 0.000000 0.000000 0.002656 0.000000
# 6 0.000000 0.000000 0.000000 0.000000 0.000000 0.029147
#
#
# Mechanical properties :
#
#
# Convention : Reuss Voigt Hill
#
# Bulk Modulus (GPa) = 60.56716 60.80574 60.68645
# Shear Modulus (GPa) = 40.24055 103.58448 71.91251
#
# Velocity S-wave (km/s) = 4.54970 7.29958 6.08209
# Velocity P-wave (km/s) = 7.66521 10.11552 8.97439
#
# Compressibility (1/GPa) = 0.01651060
#
# Stress axis : x y z
#
# Youngs Moduli (GPa) = 106.77977 98.96888 100.84066
#
# Poissons Ratio (x) = 0.13164 0.20263
# Poissons Ratio (y) = 0.14203 0.31242
# Poissons Ratio (z) = 0.21456 0.30662
#
# Static dielectric constant tensor:
#      x y z
#    x 3.574350 0.000000 0.000000 
#    y 0.000000 3.894140 0.000000 
#    z 0.000000 0.000000 3.635420 
# 
# 
# High freq. dielectric constant tensor:
#      x y z
#    x 1.762470 0.000000 0.000000 
#    y 0.000000 1.771660 0.000000 
#    z 0.000000 0.000000 1.758170 
# 
# From -- ./inp_files/66373.got.cif
#   From: 2010.03.12/outbox.cif.g09.slc.cpg/sg63_34_cif.got.tgz:66373.got - 2010.04.10 19:34:48.
