data_PCOD8260689
_publ_section_title
;
Structure prediction by ZEFSAII (Michael W. Deem and Ramdas Pophale) SiO2 
 PCOD8260689
Probable space group: C M C M
;
_chemical_formula_sum "Si O2"
_cell_formula_units_Z 60
_cell_length_a 10.533182
_cell_length_b 18.621790
_cell_length_c 13.757746
_cell_angle_alpha 90.000000
_cell_angle_beta 90.000000
_cell_angle_gamma 90.000000
_cell_volume 2698.536522
_symmetry_space_group_name_H-M "C M C M"
_symmetry_group_IT_number 63
_symmetry_cell_setting 'orthorhombic'
loop_
_space_group_symop_operation_xyz
x,y,z
-x,-y,1/2+z
x,-y,-z
-x,y,1/2-z
-x,-y,-z
x,y,1/2-z
-x,y,z
x,-y,1/2+z
1/2+x,1/2+y,z
1/2-x,1/2-y,1/2+z
1/2+x,1/2-y,-z
1/2-x,1/2+y,1/2-z
1/2-x,1/2-y,-z
1/2+x,1/2+y,1/2-z
1/2-x,1/2+y,z
1/2+x,1/2-y,1/2+z
loop_
_atom_site_type_symbol
_atom_site_label
_atom_site_fract_x
_atom_site_fract_y
_atom_site_fract_z
Si Si1 0.500000 0.580880 0.544826
Si Si2 0.000000 0.144821 0.750000
Si Si3 0.247125 0.923282 0.546596
Si Si4 0.768443 0.719142 0.750000
Si Si5 0.860479 0.701853 0.542390
Si Si6 0.154204 0.115035 0.250000
O O1 0.500000 0.500000 0.500000
O O2 0.500000 0.588664 0.660858
O O3 0.627162 0.617339 0.504308
O O4 0.119935 0.198462 0.750000
O O5 0.364598 0.872005 0.520007
O O6 0.212955 0.928972 0.659906
O O7 0.275428 0.000000 0.500000
O O8 0.835971 0.685641 0.655782
O O9 0.788884 0.804976 0.750000
O O10 0.750000 0.750000 0.500000
O O11 0.000000 0.737691 0.530032
O O12 0.000000 0.115469 0.250000
#
# Coordination Sequence:
#
# PCOD8260689 Si02
#       6
#     8   4  16   8  16   8
#     4  10  22  40  66 104 144 184 236 300 364 425
#     4  12  24  42  74 112 142 186 254 306 354 452
#     4  11  25  44  69 105 142 191 238 298 366 436
#     4  12  26  41  73 103 148 187 242 296 371 436
#     4  12  27  46  73 104 146 190 245 302 364 434
#     4  12  24  42  68 101 145 187 240 299 369 443
#
# _framework density 22.234273999999999
#
# number of rings (size 3 to 8) (size 9 to 14) (size 15 to 20)
#    0.000    0.533    6.667    1.200    3.733    5.867 
#    0.000    0.000    0.000    0.000    0.000    0.000 
#    0.000    0.000    0.000    0.000    0.000    0.000 
#
# Total GULP energy -371812.112737 kJ/mol
# GULP energy per Si atom -12393.737091 kJ/mol
# Density = 2.218367 g / cm^3
# Si number density = 22.234274 Si / 1000 Ang^3
#
#
#
# Elastic Constant Matrix: (Units=GPa)
#
#
# Indices 1 2 3 4 5 6 
#
# 1 152.5870 42.3621 50.2614 0.0000 0.0000 0.0000
# 2 42.3621 112.6747 50.3701 0.0000 0.0000 0.0000
# 3 50.2614 50.3701 200.4692 0.0000 0.0000 0.0000
# 4 0.0000 0.0000 0.0000 35.7880 0.0000 0.0000
# 5 0.0000 0.0000 0.0000 0.0000 24.6838 0.0000
# 6 0.0000 0.0000 0.0000 0.0000 0.0000 25.0769
#
#
#
# Elastic Compliance Matrix: (Units=1/GPa)
#
#
# Indices 1 2 3 4 5 6 
#
# 1 0.007625 -0.002267 -0.001342 0.000000 0.000000 0.000000
# 2 -0.002267 0.010672 -0.002113 0.000000 0.000000 0.000000
# 3 -0.001342 -0.002113 0.005856 0.000000 0.000000 0.000000
# 4 0.000000 0.000000 0.000000 0.027942 0.000000 0.000000
# 5 0.000000 0.000000 0.000000 0.000000 0.040512 0.000000
# 6 0.000000 0.000000 0.000000 0.000000 0.000000 0.039877
#
#
# Mechanical properties :
#
#
# Convention : Reuss Voigt Hill
#
# Bulk Modulus (GPa) = 78.68672 83.52422 81.10547
# Shear Modulus (GPa) = 33.74607 38.62554 36.18580
#
# Velocity S-wave (km/s) = 3.90006 4.17250 4.03858
# Velocity P-wave (km/s) = 7.46641 7.80129 7.63569
#
# Compressibility (1/GPa) = 0.01270862
#
# Stress axis : x y z
#
# Youngs Moduli (GPa) = 131.14643 93.70315 170.77199
#
# Poissons Ratio (x) = 0.21240 0.22921
# Poissons Ratio (y) = 0.29728 0.36086
# Poissons Ratio (z) = 0.17602 0.19801
#
# Static dielectric constant tensor:
#      x y z
#    x 4.546210 0.000000 0.000000 
#    y 0.000000 4.056510 0.000000 
#    z 0.000000 0.000000 1.989590 
# 
# 
# High freq. dielectric constant tensor:
#      x y z
#    x 1.874900 0.000000 0.000000 
#    y 0.000000 1.866140 0.000000 
#    z 0.000000 0.000000 1.892520 
# 
# From -- ./inp_files/17178.got.cif
#   From: 2010.03.12/outbox.cif.g09.slc.cpg/sg63_9_cif.got.tgz:17178.got - 2010.04.10 19:34:48.
