data_PCOD8260599
_publ_section_title
;
Structure prediction by ZEFSAII (Michael W. Deem and Ramdas Pophale) SiO2 
 PCOD8260599
Probable space group: C M C M
;
_chemical_formula_sum "Si O2"
_cell_formula_units_Z 96
_cell_length_a 20.042539
_cell_length_b 27.681390
_cell_length_c 8.953306
_cell_angle_alpha 90.000000
_cell_angle_beta 90.000000
_cell_angle_gamma 90.000000
_cell_volume 4967.341967
_symmetry_space_group_name_H-M "C M C M"
_symmetry_group_IT_number 63
_symmetry_cell_setting 'orthorhombic'
loop_
_space_group_symop_operation_xyz
x,y,z
-x,-y,1/2+z
x,-y,-z
-x,y,1/2-z
-x,-y,-z
x,y,1/2-z
-x,y,z
x,-y,1/2+z
1/2+x,1/2+y,z
1/2-x,1/2-y,1/2+z
1/2+x,1/2-y,-z
1/2-x,1/2+y,1/2-z
1/2-x,1/2-y,-z
1/2+x,1/2+y,1/2-z
1/2-x,1/2+y,z
1/2+x,1/2-y,1/2+z
loop_
_atom_site_type_symbol
_atom_site_label
_atom_site_fract_x
_atom_site_fract_y
_atom_site_fract_z
Si Si1 0.925443 0.951275 0.575458
Si Si2 0.687241 0.725887 0.074992
Si Si3 0.077049 0.397485 0.576627
Si Si4 0.422821 0.213271 0.422088
Si Si5 0.305230 0.948994 0.426888
Si Si6 0.194625 0.114979 0.424876
O O1 0.925275 0.960784 0.750000
O O2 0.875911 0.908532 0.530844
O O3 0.000000 0.937841 0.519071
O O4 0.899096 0.000000 0.500000
O O5 0.693726 0.732291 0.250000
O O6 0.687179 0.670225 0.027916
O O7 0.750000 0.750000 0.000000
O O8 0.619102 0.750707 0.023466
O O9 0.093101 0.407177 0.750000
O O10 0.093938 0.342048 0.536149
O O11 0.120716 0.433025 0.475478
O O12 0.000000 0.408662 0.542056
O O13 0.404632 0.222427 0.250000
O O14 0.500000 0.224249 0.452883
O O15 0.302016 0.954331 0.250000
O O16 0.253700 0.908541 0.480944
O O17 0.286116 0.000000 0.500000
O O18 0.211103 0.108656 0.250000
#
# Coordination Sequence:
#
# PCOD8260599 Si02
#       6
#    16  16  16  16  16  16
#     4   9  18  34  56  80 106 137 174 217 266 319
#     4  11  23  37  56  82 113 149 188 233 282 333
#     4   9  19  38  62  85 112 147 185 227 277 330
#     4   9  19  37  60  85 115 150 186 229 281 333
#     4  12  25  39  58  83 112 146 185 230 279 333
#     4  10  22  39  57  79 110 147 187 231 276 324
#
# _framework density 19.326229999999999
#
# number of rings (size 3 to 8) (size 9 to 14) (size 15 to 20)
#    0.000    2.000    0.000    4.500    0.000    9.667 
#    0.000    3.333    0.000    2.000    0.000    0.000 
#    0.000    0.000    0.000    0.000    0.000    0.000 
#
# Total GULP energy -595380.447803 kJ/mol
# GULP energy per Si atom -12403.759329 kJ/mol
# Density = 1.928224 g / cm^3
# Si number density = 19.326230 Si / 1000 Ang^3
#
#
#
# Elastic Constant Matrix: (Units=GPa)
#
#
# Indices 1 2 3 4 5 6 
#
# 1 94.7128 53.3926 40.6763 0.0000 0.0000 0.0000
# 2 53.3926 113.5206 48.2506 0.0000 0.0000 0.0000
# 3 40.6763 48.2506 74.7900 0.0000 0.0000 0.0000
# 4 0.0000 0.0000 0.0000 34.3564 0.0000 0.0000
# 5 0.0000 0.0000 0.0000 0.0000 29.4932 0.0000
# 6 0.0000 0.0000 0.0000 0.0000 0.0000 15.9542
#
#
#
# Elastic Compliance Matrix: (Units=1/GPa)
#
#
# Indices 1 2 3 4 5 6 
#
# 1 0.015713 -0.005178 -0.005205 0.000000 0.000000 0.000000
# 2 -0.005178 0.013843 -0.006115 0.000000 0.000000 0.000000
# 3 -0.005205 -0.006115 0.020147 0.000000 0.000000 0.000000
# 4 0.000000 0.000000 0.000000 0.029107 0.000000 0.000000
# 5 0.000000 0.000000 0.000000 0.000000 0.033906 0.000000
# 6 0.000000 0.000000 0.000000 0.000000 0.000000 0.062679
#
#
# Mechanical properties :
#
#
# Convention : Reuss Voigt Hill
#
# Bulk Modulus (GPa) = 59.85572 63.07360 61.46466
# Shear Modulus (GPa) = 23.36890 25.34104 24.35497
#
# Velocity S-wave (km/s) = 3.48110 3.62501 3.55378
# Velocity P-wave (km/s) = 6.86993 7.08718 6.97940
#
# Compressibility (1/GPa) = 0.01670684
#
# Stress axis : x y z
#
# Youngs Moduli (GPa) = 63.64323 72.23698 49.63562
#
# Poissons Ratio (x) = 0.37402 0.25837
# Poissons Ratio (y) = 0.32953 0.30352
# Poissons Ratio (z) = 0.33128 0.44173
#
# Static dielectric constant tensor:
#      x y z
#    x 3.730380 0.000000 0.000000 
#    y 0.000000 3.588230 0.000000 
#    z 0.000000 0.000000 3.471900 
# 
# 
# High freq. dielectric constant tensor:
#      x y z
#    x 1.766560 0.000000 0.000000 
#    y 0.000000 1.755490 0.000000 
#    z 0.000000 0.000000 1.745520 
# 
# From -- ./inp_files/8623.got.cif
#   From: 2010.03.12/outbox.cif.g09.slc.cpg/sg63_5_cif.got.tgz:8623.got - 2010.04.10 19:34:48.
