data_PCOD8260395
_publ_section_title
;
Structure prediction by ZEFSAII (Michael W. Deem and Ramdas Pophale) SiO2 
 PCOD8260395
Probable space group: C M C M
;
_chemical_formula_sum "Si O2"
_cell_formula_units_Z 96
_cell_length_a 16.374993
_cell_length_b 16.799410
_cell_length_c 18.124995
_cell_angle_alpha 90.000000
_cell_angle_beta 90.000000
_cell_angle_gamma 90.000000
_cell_volume 4986.008883
_symmetry_space_group_name_H-M "C M C M"
_symmetry_group_IT_number 63
_symmetry_cell_setting 'orthorhombic'
loop_
_space_group_symop_operation_xyz
x,y,z
-x,-y,1/2+z
x,-y,-z
-x,y,1/2-z
-x,-y,-z
x,y,1/2-z
-x,y,z
x,-y,1/2+z
1/2+x,1/2+y,z
1/2-x,1/2-y,1/2+z
1/2+x,1/2-y,-z
1/2-x,1/2+y,1/2-z
1/2-x,1/2-y,-z
1/2+x,1/2+y,1/2-z
1/2-x,1/2+y,z
1/2+x,1/2-y,1/2+z
loop_
_atom_site_type_symbol
_atom_site_label
_atom_site_fract_x
_atom_site_fract_y
_atom_site_fract_z
Si Si1 0.000000 0.971619 0.837310
Si Si2 0.835079 0.712642 0.919533
Si Si3 0.175958 0.599348 0.163408
Si Si4 0.596503 0.036972 0.578302
Si Si5 0.000000 0.154334 0.838932
Si Si6 0.856694 0.135047 0.163161
Si Si7 0.852017 0.756096 0.414223
O O1 0.921236 0.926939 0.870560
O O2 0.000000 0.964029 0.750000
O O3 0.000000 0.062405 0.860818
O O4 0.871033 0.625426 0.909560
O O5 0.875297 0.775179 0.863277
O O6 0.738532 0.709058 0.901025
O O7 0.861189 0.746523 0.998688
O O8 0.168154 0.612508 0.250000
O O9 0.135765 0.515825 0.142587
O O10 0.269362 0.602698 0.135903
O O11 0.129849 0.670958 0.122827
O O12 0.500000 0.036491 0.586810
O O13 0.623825 0.000000 0.500000
O O14 0.918457 0.186831 0.877341
O O15 0.000000 0.169056 0.750000
O O16 0.861705 0.136831 0.250000
#
# Coordination Sequence:
#
# PCOD8260395 Si02
#       7
#     8  16  16  16   8  16  16
#     4   9  20  39  59  86 120 154 193 245 309 359
#     4  10  22  40  63  87 123 164 205 256 310 378
#     4  10  21  39  61  85 118 159 205 253 306 367
#     4  11  24  39  60  89 123 161 202 252 311 368
#     4  11  24  39  65  95 126 162 207 264 315 374
#     4   9  20  39  62  86 118 160 203 253 309 362
#     4  10  22  40  60  92 121 161 207 253 317 373
#
# _framework density 19.253876999999999
#
# number of rings (size 3 to 8) (size 9 to 14) (size 15 to 20)
#    0.000    2.000    1.667    0.500    5.833    1.667 
#    0.000    1.667    0.000    0.000    0.000    0.000 
#    0.000    0.000    0.000    0.000    0.000    0.000 
#
# Total GULP energy -595135.808685 kJ/mol
# GULP energy per Si atom -12398.662681 kJ/mol
# Density = 1.921005 g / cm^3
# Si number density = 19.253877 Si / 1000 Ang^3
#
#
#
# Elastic Constant Matrix: (Units=GPa)
#
#
# Indices 1 2 3 4 5 6 
#
# 1 104.2095 78.3151 38.5410 0.0000 0.0000 0.0000
# 2 78.3151 162.7312 26.6366 0.0000 0.0000 0.0000
# 3 38.5410 26.6366 35.9645 0.0000 0.0000 0.0000
# 4 0.0000 0.0000 0.0000 31.6178 0.0000 0.0000
# 5 0.0000 0.0000 0.0000 0.0000 27.2868 0.0000
# 6 0.0000 0.0000 0.0000 0.0000 0.0000 37.6486
#
#
#
# Elastic Compliance Matrix: (Units=1/GPa)
#
#
# Indices 1 2 3 4 5 6 
#
# 1 0.021937 -0.007635 -0.017854 0.000000 0.000000 0.000000
# 2 -0.007635 0.009650 0.001035 0.000000 0.000000 0.000000
# 3 -0.017854 0.001035 0.046172 0.000000 0.000000 0.000000
# 4 0.000000 0.000000 0.000000 0.031628 0.000000 0.000000
# 5 0.000000 0.000000 0.000000 0.000000 0.036648 0.000000
# 6 0.000000 0.000000 0.000000 0.000000 0.000000 0.026561
#
#
# Mechanical properties :
#
#
# Convention : Reuss Voigt Hill
#
# Bulk Modulus (GPa) = 34.66122 65.54339 50.10231
# Shear Modulus (GPa) = 21.63376 29.93816 25.78596
#
# Velocity S-wave (km/s) = 3.35566 3.94752 3.66356
# Velocity P-wave (km/s) = 5.74937 7.40897 6.63129
#
# Compressibility (1/GPa) = 0.02885069
#
# Stress axis : x y z
#
# Youngs Moduli (GPa) = 45.58559 103.62668 21.65824
#
# Poissons Ratio (x) = 0.79117 0.38668
# Poissons Ratio (y) = 0.34804 -0.02241
# Poissons Ratio (z) = 0.81387 -0.10721
#
# Static dielectric constant tensor:
#      x y z
#    x 3.741860 0.000000 0.000000 
#    y 0.000000 3.643240 0.000000 
#    z 0.000000 0.000000 3.468740 
# 
# 
# High freq. dielectric constant tensor:
#      x y z
#    x 1.755350 0.000000 0.000000 
#    y 0.000000 1.757000 0.000000 
#    z 0.000000 0.000000 1.743220 
# 
# From -- ./inp_files/54258.got.cif
#   From: 2010.03.12/outbox.cif.g09.slc.cpg/sg63_28_cif.got.tgz:54258.got - 2010.04.10 19:34:48.
