data_PCOD8260524
_publ_section_title
;
Structure prediction by ZEFSAII (Michael W. Deem and Ramdas Pophale) SiO2 
 PCOD8260524
Probable space group: C M C M
;
_chemical_formula_sum "Si O2"
_cell_formula_units_Z 104
_cell_length_a 17.313310
_cell_length_b 27.030594
_cell_length_c 13.646589
_cell_angle_alpha 90.000000
_cell_angle_beta 90.000000
_cell_angle_gamma 90.000000
_cell_volume 6386.454268
_symmetry_space_group_name_H-M "C M C M"
_symmetry_group_IT_number 63
_symmetry_cell_setting 'orthorhombic'
loop_
_space_group_symop_operation_xyz
x,y,z
-x,-y,1/2+z
x,-y,-z
-x,y,1/2-z
-x,-y,-z
x,y,1/2-z
-x,y,z
x,-y,1/2+z
1/2+x,1/2+y,z
1/2-x,1/2-y,1/2+z
1/2+x,1/2-y,-z
1/2-x,1/2+y,1/2-z
1/2-x,1/2-y,-z
1/2+x,1/2+y,1/2-z
1/2-x,1/2+y,z
1/2+x,1/2-y,1/2+z
loop_
_atom_site_type_symbol
_atom_site_label
_atom_site_fract_x
_atom_site_fract_y
_atom_site_fract_z
Si Si1 0.410750 0.321300 0.952134
Si Si2 0.271101 0.926959 0.360747
Si Si3 0.090438 0.926970 0.862580
Si Si4 0.822032 0.173996 0.859317
Si Si5 0.669606 0.228311 0.635047
Si Si6 0.414428 0.132252 0.866614
Si Si7 0.184545 0.000000 0.500000
O O1 0.500000 0.307338 0.934491
O O2 0.388772 0.371935 0.897790
O O3 0.353775 0.280063 0.911097
O O4 0.394783 0.325523 0.068035
O O5 0.273819 0.947999 0.250000
O O6 0.217315 0.879201 0.364047
O O7 0.356820 0.911797 0.398134
O O8 0.240130 0.968287 0.432294
O O9 0.117396 0.933298 0.750000
O O10 0.000000 0.936836 0.872851
O O11 0.131921 0.966552 0.930816
O O12 0.853899 0.183896 0.750000
O O13 0.759124 0.215927 0.888233
O O14 0.656482 0.232138 0.750000
O O15 0.615324 0.184801 0.591343
O O16 0.413836 0.135782 0.750000
O O17 0.500000 0.121206 0.907977
#
# Coordination Sequence:
#
# PCOD8260524 Si02
#       7
#    16  16  16  16  16  16   8
#     4  11  20  31  48  73 101 127 155 191 239 286
#     4   9  18  31  49  71  93 122 159 200 236 275
#     4  10  22  36  49  69  96 124 159 203 241 279
#     4   9  18  34  49  68  97 126 161 197 229 277
#     4   9  17  29  50  74  97 126 156 190 233 281
#     4   8  14  27  47  72  99 123 151 189 235 280
#     4  12  19  34  53  66  92 126 166 198 239 288
#
# _framework density 16.284466999999999
#
# number of rings (size 3 to 8) (size 9 to 14) (size 15 to 20)
#    0.000    2.462    1.538    3.923    0.000    1.846 
#    0.000    0.385    0.000    0.000    0.000    0.000 
#    0.000    0.000    0.000    0.000    0.000    0.000 
#
# Total GULP energy -644641.516719 kJ/mol
# GULP energy per Si atom -12396.952245 kJ/mol
# Density = 1.624740 g / cm^3
# Si number density = 16.284467 Si / 1000 Ang^3
#
#
#
# Elastic Constant Matrix: (Units=GPa)
#
#
# Indices 1 2 3 4 5 6 
#
# 1 53.9969 42.4414 39.5868 0.0000 0.0000 0.0000
# 2 42.4414 101.0632 51.9341 0.0000 0.0000 0.0000
# 3 39.5868 51.9341 84.6451 0.0000 0.0000 0.0000
# 4 0.0000 0.0000 0.0000 25.9254 0.0000 0.0000
# 5 0.0000 0.0000 0.0000 0.0000 22.4352 0.0000
# 6 0.0000 0.0000 0.0000 0.0000 0.0000 100.5030
#
#
#
# Elastic Compliance Matrix: (Units=1/GPa)
#
#
# Indices 1 2 3 4 5 6 
#
# 1 0.032551 -0.008539 -0.009984 0.000000 0.000000 0.000000
# 2 -0.008539 0.016691 -0.006247 0.000000 0.000000 0.000000
# 3 -0.009984 -0.006247 0.020317 0.000000 0.000000 0.000000
# 4 0.000000 0.000000 0.000000 0.038572 0.000000 0.000000
# 5 0.000000 0.000000 0.000000 0.000000 0.044573 0.000000
# 6 0.000000 0.000000 0.000000 0.000000 0.000000 0.009950
#
#
# Mechanical properties :
#
#
# Convention : Reuss Voigt Hill
#
# Bulk Modulus (GPa) = 49.95667 56.40330 53.17999
# Shear Modulus (GPa) = 22.84487 36.82226 29.83356
#
# Velocity S-wave (km/s) = 3.74954 4.76035 4.28486
# Velocity P-wave (km/s) = 7.03488 8.05767 7.56358
#
# Compressibility (1/GPa) = 0.02001735
#
# Stress axis : x y z
#
# Youngs Moduli (GPa) = 30.72092 59.91204 49.22101
#
# Poissons Ratio (x) = 0.51160 0.49144
# Poissons Ratio (y) = 0.26233 0.30750
# Poissons Ratio (z) = 0.30673 0.37429
#
# Static dielectric constant tensor:
#      x y z
#    x 3.219070 0.000000 0.000000 
#    y 0.000000 3.035960 0.000000 
#    z 0.000000 0.000000 3.104850 
# 
# 
# High freq. dielectric constant tensor:
#      x y z
#    x 1.620860 0.000000 0.000000 
#    y 0.000000 1.622010 0.000000 
#    z 0.000000 0.000000 1.615310 
# 
# From -- ./inp_files/34469.got.cif
#   From: 2010.03.12/outbox.cif.g09.slc.cpg/sg63_18_cif.got.tgz:34469.got - 2010.04.10 19:34:48.
