data_PCOD8260884
_publ_section_title
;
Structure prediction by ZEFSAII (Michael W. Deem and Ramdas Pophale) SiO2 
 PCOD8260884
Probable space group: C M C M
;
_chemical_formula_sum "Si O2"
_cell_formula_units_Z 96
_cell_length_a 21.489503
_cell_length_b 24.588713
_cell_length_c 9.178644
_cell_angle_alpha 90.000000
_cell_angle_beta 90.000000
_cell_angle_gamma 90.000000
_cell_volume 4849.988347
_symmetry_space_group_name_H-M "C M C M"
_symmetry_group_IT_number 63
_symmetry_cell_setting 'orthorhombic'
loop_
_space_group_symop_operation_xyz
x,y,z
-x,-y,1/2+z
x,-y,-z
-x,y,1/2-z
-x,-y,-z
x,y,1/2-z
-x,y,z
x,-y,1/2+z
1/2+x,1/2+y,z
1/2-x,1/2-y,1/2+z
1/2+x,1/2-y,-z
1/2-x,1/2+y,1/2-z
1/2-x,1/2-y,-z
1/2+x,1/2+y,1/2-z
1/2-x,1/2+y,z
1/2+x,1/2-y,1/2+z
loop_
_atom_site_type_symbol
_atom_site_label
_atom_site_fract_x
_atom_site_fract_y
_atom_site_fract_z
Si Si1 0.237667 0.301858 0.909138
Si Si2 0.137019 0.447225 0.578787
Si Si3 0.275994 0.583041 0.077677
Si Si4 0.000000 0.258727 0.076325
Si Si5 0.500000 0.642385 0.920068
Si Si6 0.600327 0.447447 0.422012
Si Si7 0.404727 0.831663 0.912525
O O1 0.263597 0.289087 0.750000
O O2 0.274762 0.353745 0.969487
O O3 0.165293 0.312822 0.903321
O O4 0.250000 0.250000 0.000000
O O5 0.108463 0.500000 0.500000
O O6 0.131515 0.454808 0.750000
O O7 0.209501 0.442099 0.534075
O O8 0.096338 0.394387 0.531764
O O9 0.289034 0.576048 0.250000
O O10 0.329660 0.556156 0.982371
O O11 0.000000 0.254440 0.250000
O O12 0.000000 0.197707 0.012422
O O13 0.940185 0.292552 0.023870
O O14 0.500000 0.658168 0.750000
O O15 0.439154 0.606574 0.959413
O O16 0.569243 0.500000 0.500000
O O17 0.601537 0.457681 0.250000
O O18 0.434523 0.827903 0.750000
#
# Coordination Sequence:
#
# PCOD8260884 Si02
#       7
#    16  16  16   8   8  16  16
#     4   9  19  34  55  82 115 151 189 235 283 337
#     4   9  18  34  58  86 117 153 188 227 281 339
#     4   9  19  35  54  83 120 152 186 230 282 339
#     4  12  26  41  62  89 113 144 194 250 289 330
#     4  10  25  45  61  79 109 152 195 234 288 354
#     4  11  23  39  60  84 112 150 193 237 285 339
#     4   9  20  40  60  80 114 158 190 227 289 349
#
# _framework density 19.793862000000001
#
# number of rings (size 3 to 8) (size 9 to 14) (size 15 to 20)
#    0.000    2.333    0.000    4.000    2.333    5.333 
#    0.000    3.750    0.000    0.000    0.000    0.000 
#    0.000    0.000    0.000    0.000    0.000    0.000 
#
# Total GULP energy -594960.815309 kJ/mol
# GULP energy per Si atom -12395.016986 kJ/mol
# Density = 1.974881 g / cm^3
# Si number density = 19.793862 Si / 1000 Ang^3
#
#
#
# Elastic Constant Matrix: (Units=GPa)
#
#
# Indices 1 2 3 4 5 6 
#
# 1 55.1410 32.9214 32.4908 0.0000 0.0000 0.0000
# 2 32.9214 180.3741 79.4115 0.0000 0.0000 0.0000
# 3 32.4908 79.4115 95.0242 0.0000 0.0000 0.0000
# 4 0.0000 0.0000 0.0000 40.7412 0.0000 0.0000
# 5 0.0000 0.0000 0.0000 0.0000 21.3503 0.0000
# 6 0.0000 0.0000 0.0000 0.0000 0.0000 -3.7245
#
#
#
# Elastic Compliance Matrix: (Units=1/GPa)
#
#
# Indices 1 2 3 4 5 6 
#
# 1 0.022862 -0.001157 -0.006850 0.000000 0.000000 0.000000
# 2 -0.001157 0.008830 -0.006983 0.000000 0.000000 0.000000
# 3 -0.006850 -0.006983 0.018702 0.000000 0.000000 0.000000
# 4 0.000000 0.000000 0.000000 0.024545 0.000000 0.000000
# 5 0.000000 0.000000 0.000000 0.000000 0.046838 0.000000
# 6 0.000000 0.000000 0.000000 0.000000 0.000000 -0.268494
#
#
# Mechanical properties :
#
#
# Convention : Reuss Voigt Hill
#
# Bulk Modulus (GPa) = 48.98881 68.90966 58.94923
# Shear Modulus (GPa) = -45.48297 24.05444 -10.71426
#
# Velocity S-wave (km/s) = -4.79877 3.48982 -2.32909
# Velocity P-wave (km/s) = 2.42921 7.15036 4.75535
#
# Compressibility (1/GPa) = 0.02041282
#
# Stress axis : x y z
#
# Youngs Moduli (GPa) = 43.73983 113.25423 53.47040
#
# Poissons Ratio (x) = 0.13102 0.36629
# Poissons Ratio (y) = 0.05060 0.37341
# Poissons Ratio (z) = 0.29963 0.79090
#
# Static dielectric constant tensor:
#      x y z
#    x 3.186550 0.000000 0.000000 
#    y 0.000000 3.403820 0.000000 
#    z 0.000000 0.000000 3.273700 
# 
# 
# High freq. dielectric constant tensor:
#      x y z
#    x 1.760970 0.000000 0.000000 
#    y 0.000000 1.790760 0.000000 
#    z 0.000000 0.000000 1.760640 
# 
# From -- ./inp_files/10518.got.cif
#   From: 2010.03.12/outbox.cif.g09.slc.cpg/sg63_6_cif.got.tgz:10518.got - 2010.04.10 19:34:48.
