data_PCOD8260986
_publ_section_title
;
Structure prediction by ZEFSAII (Michael W. Deem and Ramdas Pophale) SiO2 
 PCOD8260986
Probable space group: C M C M
;
_chemical_formula_sum "Si O2"
_cell_formula_units_Z 96
_cell_length_a 25.243830
_cell_length_b 25.255949
_cell_length_c 8.957748
_cell_angle_alpha 90.000000
_cell_angle_beta 90.000000
_cell_angle_gamma 90.000000
_cell_volume 5711.073894
_symmetry_space_group_name_H-M "C M C M"
_symmetry_group_IT_number 63
_symmetry_cell_setting 'orthorhombic'
loop_
_space_group_symop_operation_xyz
x,y,z
-x,-y,1/2+z
x,-y,-z
-x,y,1/2-z
-x,-y,-z
x,y,1/2-z
-x,y,z
x,-y,1/2+z
1/2+x,1/2+y,z
1/2-x,1/2-y,1/2+z
1/2+x,1/2-y,-z
1/2-x,1/2+y,1/2-z
1/2-x,1/2-y,-z
1/2+x,1/2+y,1/2-z
1/2-x,1/2+y,z
1/2+x,1/2-y,1/2+z
loop_
_atom_site_type_symbol
_atom_site_label
_atom_site_fract_x
_atom_site_fract_y
_atom_site_fract_z
Si Si1 0.357709 0.942334 0.927092
Si Si2 0.755409 0.443478 0.424367
Si Si3 0.861546 0.056396 0.923891
Si Si4 0.439980 0.354710 0.426237
Si Si5 0.561822 0.866396 0.424298
Si Si6 0.562866 0.250957 0.914891
O O1 0.354355 0.947529 0.750000
O O2 0.304015 0.913861 0.991829
O O3 0.407771 0.907433 0.971853
O O4 0.364243 0.000000 0.000000
O O5 0.751890 0.500000 0.500000
O O6 0.769102 0.448289 0.250000
O O7 0.697186 0.418170 0.449645
O O8 0.871463 0.046817 0.750000
O O9 0.903658 0.098115 0.990846
O O10 0.869925 0.000000 0.000000
O O11 0.437768 0.354481 0.250000
O O12 0.500000 0.363616 0.484378
O O13 0.416895 0.298066 0.479034
O O14 0.573978 0.876569 0.250000
O O15 0.500000 0.874227 0.457235
O O16 0.581051 0.807144 0.470528
O O17 0.585779 0.261809 0.750000
O O18 0.500000 0.250207 0.909181
#
# Coordination Sequence:
#
# PCOD8260986 Si02
#       6
#    16  16  16  16  16  16
#     4  11  21  32  48  70  95 121 151 186 226 272
#     4   9  16  29  47  64  86 117 155 193 226 265
#     4   9  18  30  45  67  93 123 156 190 229 271
#     4   9  17  29  45  67  96 125 152 186 229 274
#     4   9  18  33  51  70  94 122 151 185 225 269
#     4   8  15  29  48  68  89 117 154 189 221 263
#
# _framework density 16.809449000000001
#
# number of rings (size 3 to 8) (size 9 to 14) (size 15 to 20)
#    0.000    2.833    0.000    4.000    0.000    3.000 
#    0.000    1.667    0.000    1.000    0.000    0.000 
#    0.000    0.000    0.000    0.000    0.000    0.000 
#
# Total GULP energy -594769.161709 kJ/mol
# GULP energy per Si atom -12391.024202 kJ/mol
# Density = 1.677119 g / cm^3
# Si number density = 16.809449 Si / 1000 Ang^3
#
#
#
# Elastic Constant Matrix: (Units=GPa)
#
#
# Indices 1 2 3 4 5 6 
#
# 1 90.6391 58.0568 46.0594 0.0000 0.0000 0.0000
# 2 58.0568 100.1342 44.2042 0.0000 0.0000 0.0000
# 3 46.0594 44.2042 80.2327 0.0000 0.0000 0.0000
# 4 0.0000 0.0000 0.0000 27.6310 0.0000 0.0000
# 5 0.0000 0.0000 0.0000 0.0000 21.8873 0.0000
# 6 0.0000 0.0000 0.0000 0.0000 0.0000 3.5200
#
#
#
# Elastic Compliance Matrix: (Units=1/GPa)
#
#
# Indices 1 2 3 4 5 6 
#
# 1 0.019958 -0.008607 -0.006716 0.000000 0.000000 0.000000
# 2 -0.008607 0.016908 -0.004374 0.000000 0.000000 0.000000
# 3 -0.006716 -0.004374 0.018729 0.000000 0.000000 0.000000
# 4 0.000000 0.000000 0.000000 0.036191 0.000000 0.000000
# 5 0.000000 0.000000 0.000000 0.000000 0.045689 0.000000
# 6 0.000000 0.000000 0.000000 0.000000 0.000000 0.284090
#
#
# Mechanical properties :
#
#
# Convention : Reuss Voigt Hill
#
# Bulk Modulus (GPa) = 61.72285 63.07187 62.39736
# Shear Modulus (GPa) = 10.72134 18.78670 14.75402
#
# Velocity S-wave (km/s) = 2.52824 3.34672 2.96585
# Velocity P-wave (km/s) = 6.73213 7.24825 6.99495
#
# Compressibility (1/GPa) = 0.01620146
#
# Stress axis : x y z
#
# Youngs Moduli (GPa) = 50.10404 59.14365 53.39326
#
# Poissons Ratio (x) = 0.50906 0.35856
# Poissons Ratio (y) = 0.43125 0.23356
# Poissons Ratio (z) = 0.33647 0.25871
#
# Static dielectric constant tensor:
#      x y z
#    x 3.606680 0.000000 0.000000 
#    y 0.000000 3.145650 0.000000 
#    z 0.000000 0.000000 2.563450 
# 
# 
# High freq. dielectric constant tensor:
#      x y z
#    x 1.638490 0.000000 0.000000 
#    y 0.000000 1.627770 0.000000 
#    z 0.000000 0.000000 1.648450 
# 
# From -- ./inp_files/8612.got.cif
#   From: 2010.03.12/outbox.cif.g09.slc.cpg/sg63_5_cif.got.tgz:8612.got - 2010.04.10 19:34:48.
