data_PCOD8260525
_publ_section_title
;
Structure prediction by ZEFSAII (Michael W. Deem and Ramdas Pophale) SiO2 
 PCOD8260525
Probable space group: C M C M
;
_chemical_formula_sum "Si O2"
_cell_formula_units_Z 96
_cell_length_a 25.007205
_cell_length_b 8.933883
_cell_length_c 23.113490
_cell_angle_alpha 90.000000
_cell_angle_beta 90.000000
_cell_angle_gamma 90.000000
_cell_volume 5163.818168
_symmetry_space_group_name_H-M "C M C M"
_symmetry_group_IT_number 63
_symmetry_cell_setting 'orthorhombic'
loop_
_space_group_symop_operation_xyz
x,y,z
-x,-y,1/2+z
x,-y,-z
-x,y,1/2-z
-x,-y,-z
x,y,1/2-z
-x,y,z
x,-y,1/2+z
1/2+x,1/2+y,z
1/2-x,1/2-y,1/2+z
1/2+x,1/2-y,-z
1/2-x,1/2+y,1/2-z
1/2-x,1/2-y,-z
1/2+x,1/2+y,1/2-z
1/2-x,1/2+y,z
1/2+x,1/2-y,1/2+z
loop_
_atom_site_type_symbol
_atom_site_label
_atom_site_fract_x
_atom_site_fract_y
_atom_site_fract_z
Si Si1 0.817176 0.554751 0.128747
Si Si2 0.134096 0.873926 0.125646
Si Si3 0.288440 0.424391 0.941184
Si Si4 0.939405 0.162874 0.526893
Si Si5 0.351942 0.141770 0.962381
Si Si6 0.325415 0.587823 0.750000
Si Si7 0.719991 0.912572 0.750000
O O1 0.834409 0.722072 0.115270
O O2 0.757613 0.547495 0.104441
O O3 0.858753 0.433047 0.101675
O O4 0.811793 0.517100 0.196169
O O5 0.076346 0.845441 0.095391
O O6 0.134999 0.916351 0.193969
O O7 0.158715 0.005200 0.087079
O O8 0.301800 0.252934 0.956842
O O9 0.271560 0.500000 0.000000
O O10 0.904222 0.280063 0.489170
O O11 0.000000 0.220797 0.523221
O O12 0.932770 0.000000 0.500000
O O13 0.332943 0.000000 0.000000
O O14 0.286906 0.732876 0.750000
O O15 0.283682 0.449060 0.750000
#
# Coordination Sequence:
#
# PCOD8260525 Si02
#       7
#    16  16  16  16  16   8   8
#     4  11  23  34  54  82 125 153 197 230 277 347
#     4  11  20  40  54  84 115 154 197 235 284 350
#     4  12  21  33  54  82 120 157 182 227 287 349
#     4  11  23  43  64  83 111 146 192 253 312 351
#     4  12  22  37  56  88 117 148 195 238 296 350
#     4  10  22  36  59  80 121 157 202 234 275 345
#     4  10  22  36  50  82 115 171 191 228 273 335
#
# _framework density 18.590895
#
# number of rings (size 3 to 8) (size 9 to 14) (size 15 to 20)
#    0.000    0.833    6.667    1.500    2.333    2.333 
#    0.000    0.417    0.000    0.000    0.000    0.583 
#    0.000    0.000    0.000    0.000    0.000    0.000 
#
# Total GULP energy -594799.217352 kJ/mol
# GULP energy per Si atom -12391.650361 kJ/mol
# Density = 1.854858 g / cm^3
# Si number density = 18.590895 Si / 1000 Ang^3
#
#
#
# Elastic Constant Matrix: (Units=GPa)
#
#
# Indices 1 2 3 4 5 6 
#
# 1 77.0319 26.3412 59.9139 0.0000 0.0000 0.0000
# 2 26.3412 90.3811 46.0099 0.0000 0.0000 0.0000
# 3 59.9139 46.0099 137.1974 0.0000 0.0000 0.0000
# 4 0.0000 0.0000 0.0000 22.4759 0.0000 0.0000
# 5 0.0000 0.0000 0.0000 0.0000 15.9706 0.0000
# 6 0.0000 0.0000 0.0000 0.0000 0.0000 22.1474
#
#
#
# Elastic Compliance Matrix: (Units=1/GPa)
#
#
# Indices 1 2 3 4 5 6 
#
# 1 0.019862 -0.001656 -0.008119 0.000000 0.000000 0.000000
# 2 -0.001656 0.013480 -0.003797 0.000000 0.000000 0.000000
# 3 -0.008119 -0.003797 0.012108 0.000000 0.000000 0.000000
# 4 0.000000 0.000000 0.000000 0.044492 0.000000 0.000000
# 5 0.000000 0.000000 0.000000 0.000000 0.062615 0.000000
# 6 0.000000 0.000000 0.000000 0.000000 0.000000 0.045152
#
#
# Mechanical properties :
#
#
# Convention : Reuss Voigt Hill
#
# Bulk Modulus (GPa) = 54.62650 63.23785 58.93217
# Shear Modulus (GPa) = 21.64924 23.60847 22.62885
#
# Velocity S-wave (km/s) = 3.41619 3.56742 3.49263
# Velocity P-wave (km/s) = 6.70878 7.14549 6.93058
#
# Compressibility (1/GPa) = 0.01830613
#
# Stress axis : x y z
#
# Youngs Moduli (GPa) = 50.34657 74.18379 82.59266
#
# Poissons Ratio (x) = 0.12284 0.67053
# Poissons Ratio (y) = 0.08337 0.31364
# Poissons Ratio (z) = 0.40874 0.28171
#
# Static dielectric constant tensor:
#      x y z
#    x 3.147160 0.000000 0.000000 
#    y 0.000000 3.674230 0.000000 
#    z 0.000000 0.000000 3.861850 
# 
# 
# High freq. dielectric constant tensor:
#      x y z
#    x 1.677380 0.000000 0.000000 
#    y 0.000000 1.735150 0.000000 
#    z 0.000000 0.000000 1.732820 
# 
# From -- ./inp_files/65393.got.cif
#   From: 2010.03.12/outbox.cif.g09.slc.cpg/sg63_33_cif.got.tgz:65393.got - 2010.04.10 19:34:48.
