data_PCOD8260185
_publ_section_title
;
Structure prediction by ZEFSAII (Michael W. Deem and Ramdas Pophale) SiO2 
 PCOD8260185
Probable space group: C M C M
;
_chemical_formula_sum "Si O2"
_cell_formula_units_Z 80
_cell_length_a 8.727246
_cell_length_b 18.335721
_cell_length_c 25.425769
_cell_angle_alpha 90.000000
_cell_angle_beta 90.000000
_cell_angle_gamma 90.000000
_cell_volume 4068.640397
_symmetry_space_group_name_H-M "C M C M"
_symmetry_group_IT_number 63
_symmetry_cell_setting 'orthorhombic'
loop_
_space_group_symop_operation_xyz
x,y,z
-x,-y,1/2+z
x,-y,-z
-x,y,1/2-z
-x,-y,-z
x,y,1/2-z
-x,y,z
x,-y,1/2+z
1/2+x,1/2+y,z
1/2-x,1/2-y,1/2+z
1/2+x,1/2-y,-z
1/2-x,1/2+y,1/2-z
1/2-x,1/2-y,-z
1/2+x,1/2+y,1/2-z
1/2-x,1/2+y,z
1/2+x,1/2-y,1/2+z
loop_
_atom_site_type_symbol
_atom_site_label
_atom_site_fract_x
_atom_site_fract_y
_atom_site_fract_z
Si Si1 0.819998 0.829585 0.497474
Si Si2 0.818177 0.329652 0.692249
Si Si3 0.819097 0.417771 0.907133
Si Si4 0.176638 0.164538 0.810664
Si Si5 0.321566 0.914088 0.097038
O O1 0.750000 0.750000 0.500000
O O2 0.759872 0.878932 0.544429
O O3 0.777255 0.866048 0.442462
O O4 0.000000 0.822146 0.501829
O O5 0.753133 0.352433 0.750000
O O6 0.755083 0.383713 0.647414
O O7 0.767877 0.247250 0.678769
O O8 0.000000 0.332749 0.694667
O O9 0.773876 0.502036 0.909011
O O10 0.000000 0.405732 0.911719
O O11 0.199360 0.143625 0.750000
O O12 0.283509 0.110812 0.843942
O O13 0.000000 0.155014 0.827477
O O14 0.500000 0.903087 0.084857
#
# Coordination Sequence:
#
# PCOD8260185 Si02
#       5
#    16  16  16  16  16
#     4  12  25  41  62  84 110 146 189 236 288 347
#     4   8  15  31  56  82 107 142 188 232 276 327
#     4  10  21  37  58  85 117 150 188 235 283 337
#     4   9  18  34  57  83 112 151 199 245 286 332
#     4  11  23  37  56  85 119 152 190 237 286 339
#
# _framework density 19.662589000000001
#
# number of rings (size 3 to 8) (size 9 to 14) (size 15 to 20)
#    0.000    2.000    0.000    5.400    0.000    6.800 
#    0.000    2.000    0.000    1.800    0.000    0.000 
#    0.000    0.000    0.000    0.000    0.000    0.000 
#
# Total GULP energy -496082.982570 kJ/mol
# GULP energy per Si atom -12402.074564 kJ/mol
# Density = 1.961784 g / cm^3
# Si number density = 19.662589 Si / 1000 Ang^3
#
#
#
# Elastic Constant Matrix: (Units=GPa)
#
#
# Indices 1 2 3 4 5 6 
#
# 1 44.4334 49.3118 32.3476 0.0000 0.0000 0.0000
# 2 49.3118 143.9481 71.8213 0.0000 0.0000 0.0000
# 3 32.3476 71.8213 123.1126 0.0000 0.0000 0.0000
# 4 0.0000 0.0000 0.0000 24.7430 0.0000 0.0000
# 5 0.0000 0.0000 0.0000 0.0000 30.8236 0.0000
# 6 0.0000 0.0000 0.0000 0.0000 0.0000 23.9030
#
#
#
# Elastic Compliance Matrix: (Units=1/GPa)
#
#
# Indices 1 2 3 4 5 6 
#
# 1 0.037239 -0.011108 -0.003304 0.000000 0.000000 0.000000
# 2 -0.011108 0.013113 -0.004731 0.000000 0.000000 0.000000
# 3 -0.003304 -0.004731 0.011751 0.000000 0.000000 0.000000
# 4 0.000000 0.000000 0.000000 0.040415 0.000000 0.000000
# 5 0.000000 0.000000 0.000000 0.000000 0.032443 0.000000
# 6 0.000000 0.000000 0.000000 0.000000 0.000000 0.041836
#
#
# Mechanical properties :
#
#
# Convention : Reuss Voigt Hill
#
# Bulk Modulus (GPa) = 41.98930 68.71726 55.35328
# Shear Modulus (GPa) = 22.41935 26.42813 24.42374
#
# Velocity S-wave (km/s) = 3.38035 3.67015 3.52823
# Velocity P-wave (km/s) = 6.05285 7.27902 6.69407
#
# Compressibility (1/GPa) = 0.02381559
#
# Stress axis : x y z
#
# Youngs Moduli (GPa) = 26.85367 76.26172 85.10065
#
# Poissons Ratio (x) = 0.84713 0.28119
# Poissons Ratio (y) = 0.29830 0.40261
# Poissons Ratio (z) = 0.08873 0.36080
#
# Static dielectric constant tensor:
#      x y z
#    x 3.337880 0.000000 0.000000 
#    y 0.000000 3.674270 0.000000 
#    z 0.000000 0.000000 3.975830 
# 
# 
# High freq. dielectric constant tensor:
#      x y z
#    x 1.742790 0.000000 0.000000 
#    y 0.000000 1.771830 0.000000 
#    z 0.000000 0.000000 1.784640 
# 
# From -- ./inp_files/66596.got.cif
#   From: 2010.03.12/outbox.cif.g09.slc.cpg/sg63_34_cif.got.tgz:66596.got - 2010.04.10 19:34:48.
