data_PCOD8260228
_publ_section_title
;
Structure prediction by ZEFSAII (Michael W. Deem and Ramdas Pophale) SiO2 
 PCOD8260228
Probable space group: C M C M
;
_chemical_formula_sum "Si O2"
_cell_formula_units_Z 88
_cell_length_a 26.773730
_cell_length_b 18.958208
_cell_length_c 9.229051
_cell_angle_alpha 90.000000
_cell_angle_beta 90.000000
_cell_angle_gamma 90.000000
_cell_volume 4684.499632
_symmetry_space_group_name_H-M "C M C M"
_symmetry_group_IT_number 63
_symmetry_cell_setting 'orthorhombic'
loop_
_space_group_symop_operation_xyz
x,y,z
-x,-y,1/2+z
x,-y,-z
-x,y,1/2-z
-x,-y,-z
x,y,1/2-z
-x,y,z
x,-y,1/2+z
1/2+x,1/2+y,z
1/2-x,1/2-y,1/2+z
1/2+x,1/2-y,-z
1/2-x,1/2+y,1/2-z
1/2-x,1/2-y,-z
1/2+x,1/2+y,1/2-z
1/2-x,1/2+y,z
1/2+x,1/2-y,1/2+z
loop_
_atom_site_type_symbol
_atom_site_label
_atom_site_fract_x
_atom_site_fract_y
_atom_site_fract_z
Si Si1 0.059185 0.067851 0.414420
Si Si2 0.310997 0.073269 0.580723
Si Si3 0.898560 0.650819 0.417612
Si Si4 0.500000 0.926480 0.581334
Si Si5 0.885377 0.185912 0.582453
Si Si6 0.227740 0.815444 0.417021
O O1 0.078417 0.062774 0.250000
O O2 0.078707 0.139024 0.485776
O O3 0.000000 0.070063 0.421882
O O4 0.080206 0.000000 0.500000
O O5 0.320521 0.060072 0.750000
O O6 0.356986 0.117063 0.518842
O O7 0.259698 0.114808 0.552302
O O8 0.305994 0.000000 0.500000
O O9 0.885548 0.635046 0.250000
O O10 0.900341 0.733711 0.447353
O O11 0.951668 0.618584 0.462663
O O12 0.500000 0.943820 0.750000
O O13 0.500000 0.000000 0.500000
O O14 0.893368 0.166035 0.750000
O O15 0.828734 0.170761 0.532398
O O16 0.228483 0.793610 0.250000
O O17 0.250000 0.750000 0.500000
#
# Coordination Sequence:
#
# PCOD8260228 Si02
#       6
#    16  16  16   8  16  16
#     4  10  22  40  61  87 119 155 195 241 293 349
#     4  11  23  38  59  86 117 152 194 236 285 342
#     4  10  21  38  60  85 116 152 194 237 288 344
#     4  10  22  38  56  82 113 152 193 236 287 338
#     4  10  21  37  61  89 119 153 193 241 292 350
#     4  10  21  38  59  85 116 152 193 236 288 343
#
# _framework density 18.785357000000001
#
# number of rings (size 3 to 8) (size 9 to 14) (size 15 to 20)
#    0.000    1.818    1.818    1.636    1.273    6.182 
#    0.000    1.818    0.000    0.000    0.000    0.000 
#    0.000    0.000    0.000    0.000    0.000    0.000 
#
# Total GULP energy -545792.872388 kJ/mol
# GULP energy per Si atom -12404.383463 kJ/mol
# Density = 1.874260 g / cm^3
# Si number density = 18.785357 Si / 1000 Ang^3
#
#
#
# Elastic Constant Matrix: (Units=GPa)
#
#
# Indices 1 2 3 4 5 6 
#
# 1 74.8359 42.9596 36.3537 0.0000 0.0000 0.0000
# 2 42.9596 128.5097 69.2790 0.0000 0.0000 0.0000
# 3 36.3537 69.2790 97.8641 0.0000 0.0000 0.0000
# 4 0.0000 0.0000 0.0000 38.9229 0.0000 0.0000
# 5 0.0000 0.0000 0.0000 0.0000 30.2648 0.0000
# 6 0.0000 0.0000 0.0000 0.0000 0.0000 30.0726
#
#
#
# Elastic Compliance Matrix: (Units=1/GPa)
#
#
# Indices 1 2 3 4 5 6 
#
# 1 0.017362 -0.003763 -0.003785 0.000000 0.000000 0.000000
# 2 -0.003763 0.013400 -0.008088 0.000000 0.000000 0.000000
# 3 -0.003785 -0.008088 0.017350 0.000000 0.000000 0.000000
# 4 0.000000 0.000000 0.000000 0.025692 0.000000 0.000000
# 5 0.000000 0.000000 0.000000 0.000000 0.033042 0.000000
# 6 0.000000 0.000000 0.000000 0.000000 0.000000 0.033253
#
#
# Mechanical properties :
#
#
# Convention : Reuss Voigt Hill
#
# Bulk Modulus (GPa) = 59.38799 66.48826 62.93812
# Shear Modulus (GPa) = 28.25131 30.02657 29.13894
#
# Velocity S-wave (km/s) = 3.88222 4.00234 3.94274
# Velocity P-wave (km/s) = 7.19570 7.53849 7.36909
#
# Compressibility (1/GPa) = 0.01683842
#
# Stress axis : x y z
#
# Youngs Moduli (GPa) = 57.59815 74.62906 57.63739
#
# Poissons Ratio (x) = 0.28084 0.21818
# Poissons Ratio (y) = 0.21675 0.46616
# Poissons Ratio (z) = 0.21803 0.60359
#
# Static dielectric constant tensor:
#      x y z
#    x 3.611830 0.000000 0.000000 
#    y 0.000000 3.524620 0.000000 
#    z 0.000000 0.000000 3.543980 
# 
# 
# High freq. dielectric constant tensor:
#      x y z
#    x 1.736610 0.000000 0.000000 
#    y 0.000000 1.740110 0.000000 
#    z 0.000000 0.000000 1.732660 
# 
# From -- ./inp_files/14229.got.cif
#   From: 2010.03.12/outbox.cif.g09.slc.cpg/sg63_8_cif.got.tgz:14229.got - 2010.04.10 19:34:48.
