data_PCOD8260935
_publ_section_title
;
Structure prediction by ZEFSAII (Michael W. Deem and Ramdas Pophale) SiO2 
 PCOD8260935
Probable space group: C M C M
;
_chemical_formula_sum "Si O2"
_cell_formula_units_Z 80
_cell_length_a 18.076112
_cell_length_b 14.888513
_cell_length_c 17.667424
_cell_angle_alpha 90.000000
_cell_angle_beta 90.000000
_cell_angle_gamma 90.000000
_cell_volume 4754.770722
_symmetry_space_group_name_H-M "C M C M"
_symmetry_group_IT_number 63
_symmetry_cell_setting 'orthorhombic'
loop_
_space_group_symop_operation_xyz
x,y,z
-x,-y,1/2+z
x,-y,-z
-x,y,1/2-z
-x,-y,-z
x,y,1/2-z
-x,y,z
x,-y,1/2+z
1/2+x,1/2+y,z
1/2-x,1/2-y,1/2+z
1/2+x,1/2-y,-z
1/2-x,1/2+y,1/2-z
1/2-x,1/2-y,-z
1/2+x,1/2+y,1/2-z
1/2-x,1/2+y,z
1/2+x,1/2-y,1/2+z
loop_
_atom_site_type_symbol
_atom_site_label
_atom_site_fract_x
_atom_site_fract_y
_atom_site_fract_z
Si Si1 0.084267 0.236557 0.493256
Si Si2 0.585034 0.808255 0.166117
Si Si3 0.200775 0.533679 0.835188
Si Si4 0.155374 0.590055 0.044058
Si Si5 0.698081 0.591302 0.962923
O O1 0.104409 0.240749 0.403184
O O2 0.094262 0.333072 0.534365
O O3 0.134047 0.164696 0.536952
O O4 0.000000 0.206639 0.504188
O O5 0.597853 0.763764 0.250000
O O6 0.500000 0.839097 0.157499
O O7 0.634595 0.895740 0.158003
O O8 0.225181 0.515198 0.750000
O O9 0.170456 0.439353 0.869350
O O10 0.273789 0.570407 0.877947
O O11 0.130793 0.500000 0.000000
O O12 0.231873 0.628370 0.009853
O O13 0.666806 0.500000 0.000000
#
# Coordination Sequence:
#
# PCOD8260935 Si02
#       5
#    16  16  16  16  16
#     4  11  20  31  52  76 104 141 173 210 263 310
#     4   9  17  28  45  75 108 133 162 201 252 313
#     4   9  17  32  52  73  99 135 169 207 264 311
#     4   9  17  31  49  75 102 129 162 216 255 308
#     4   9  19  35  52  70 100 134 177 227 247 293
#
# _framework density 16.825206999999999
#
# number of rings (size 3 to 8) (size 9 to 14) (size 15 to 20)
#    0.000    3.000    4.000    0.600    0.000    1.600 
#    0.000    5.000    0.000    1.800    0.000    0.000 
#    0.000    0.000    0.000    0.000    0.000    0.000 
#
# Total GULP energy -495668.770281 kJ/mol
# GULP energy per Si atom -12391.719257 kJ/mol
# Density = 1.678691 g / cm^3
# Si number density = 16.825207 Si / 1000 Ang^3
#
#
#
# Elastic Constant Matrix: (Units=GPa)
#
#
# Indices 1 2 3 4 5 6 
#
# 1 50.9350 31.5905 41.1568 0.0000 0.0000 0.0000
# 2 31.5905 61.3245 35.2452 0.0000 0.0000 0.0000
# 3 41.1568 35.2452 139.7355 0.0000 0.0000 0.0000
# 4 0.0000 0.0000 0.0000 17.0005 0.0000 0.0000
# 5 0.0000 0.0000 0.0000 0.0000 19.3556 0.0000
# 6 0.0000 0.0000 0.0000 0.0000 0.0000 13.1327
#
#
#
# Elastic Compliance Matrix: (Units=1/GPa)
#
#
# Indices 1 2 3 4 5 6 
#
# 1 0.033076 -0.013379 -0.006367 0.000000 0.000000 0.000000
# 2 -0.013379 0.024483 -0.002235 0.000000 0.000000 0.000000
# 3 -0.006367 -0.002235 0.009595 0.000000 0.000000 0.000000
# 4 0.000000 0.000000 0.000000 0.058822 0.000000 0.000000
# 5 0.000000 0.000000 0.000000 0.000000 0.051665 0.000000
# 6 0.000000 0.000000 0.000000 0.000000 0.000000 0.076146
#
#
# Mechanical properties :
#
#
# Convention : Reuss Voigt Hill
#
# Bulk Modulus (GPa) = 43.11825 51.99778 47.55801
# Shear Modulus (GPa) = 16.36772 19.49792 17.93282
#
# Velocity S-wave (km/s) = 3.12237 3.40788 3.26825
# Velocity P-wave (km/s) = 6.21947 6.81591 6.52451
#
# Compressibility (1/GPa) = 0.02319204
#
# Stress axis : x y z
#
# Youngs Moduli (GPa) = 30.23373 40.84450 104.21611
#
# Poissons Ratio (x) = 0.54646 0.66358
# Poissons Ratio (y) = 0.40450 0.23290
# Poissons Ratio (z) = 0.19251 0.09128
#
# Static dielectric constant tensor:
#      x y z
#    x 2.984030 0.000000 0.000000 
#    y 0.000000 2.873490 0.000000 
#    z 0.000000 0.000000 3.454580 
# 
# 
# High freq. dielectric constant tensor:
#      x y z
#    x 1.634370 0.000000 0.000000 
#    y 0.000000 1.621110 0.000000 
#    z 0.000000 0.000000 1.646520 
# 
# From -- ./inp_files/45400.got.cif
#   From: 2010.03.12/outbox.cif.g09.slc.cpg/sg63_23_cif.got.tgz:45400.got - 2010.04.10 19:34:48.
