data_PCOD8260229
_publ_section_title
;
Structure prediction by ZEFSAII (Michael W. Deem and Ramdas Pophale) SiO2 
 PCOD8260229
Probable space group: C M C M
;
_chemical_formula_sum "Si O2"
_cell_formula_units_Z 96
_cell_length_a 21.452305
_cell_length_b 14.131885
_cell_length_c 15.795669
_cell_angle_alpha 90.000000
_cell_angle_beta 90.000000
_cell_angle_gamma 90.000000
_cell_volume 4788.638822
_symmetry_space_group_name_H-M "C M C M"
_symmetry_group_IT_number 63
_symmetry_cell_setting 'orthorhombic'
loop_
_space_group_symop_operation_xyz
x,y,z
-x,-y,1/2+z
x,-y,-z
-x,y,1/2-z
-x,-y,-z
x,y,1/2-z
-x,y,z
x,-y,1/2+z
1/2+x,1/2+y,z
1/2-x,1/2-y,1/2+z
1/2+x,1/2-y,-z
1/2-x,1/2+y,1/2-z
1/2-x,1/2-y,-z
1/2+x,1/2+y,1/2-z
1/2-x,1/2+y,z
1/2+x,1/2-y,1/2+z
loop_
_atom_site_type_symbol
_atom_site_label
_atom_site_fract_x
_atom_site_fract_y
_atom_site_fract_z
Si Si1 0.244646 0.982590 0.095979
Si Si2 0.573378 0.197087 0.422114
Si Si3 0.152170 0.833657 0.346088
Si Si4 0.238145 0.808072 0.846108
Si Si5 0.926601 0.593605 0.250000
Si Si6 0.853484 0.332232 0.090083
Si Si7 0.573610 0.119389 0.750000
O O1 0.183432 0.934012 0.135248
O O2 0.306065 0.918837 0.106351
O O3 0.253558 0.082203 0.142057
O O4 0.228544 0.000000 0.000000
O O5 0.500000 0.188001 0.439542
O O6 0.592838 0.307450 0.406189
O O7 0.596044 0.143545 0.336508
O O8 0.610116 0.153350 0.502068
O O9 0.128866 0.833613 0.250000
O O10 0.200102 0.749602 0.367098
O O11 0.217038 0.788174 0.750000
O O12 0.183926 0.767780 0.908118
O O13 0.900629 0.487595 0.250000
O O14 0.000000 0.594183 0.250000
O O15 0.902885 0.328832 0.165808
O O16 0.500000 0.123910 0.750000
#
# Coordination Sequence:
#
# PCOD8260229 Si02
#       7
#    16  16  16  16   8  16   8
#     4  11  23  36  59  92 123 157 200 259 310 364
#     4  11  22  40  63  89 123 164 207 252 302 363
#     4  10  21  37  61  90 119 158 202 251 313 368
#     4  10  21  39  61  89 122 159 203 252 309 366
#     4   9  22  38  57  86 118 162 208 245 294 353
#     4  11  24  39  62  93 122 166 207 246 308 369
#     4  11  24  40  57  86 130 168 205 251 296 363
#
# _framework density 20.047450999999999
#
# number of rings (size 3 to 8) (size 9 to 14) (size 15 to 20)
#    0.000    1.500    1.667    3.000    7.000    2.667 
#    0.000    2.500    0.000    5.500    0.000    0.000 
#    0.000    0.000    0.000    0.000    0.000    0.000 
#
# Total GULP energy -595101.668100 kJ/mol
# GULP energy per Si atom -12397.951419 kJ/mol
# Density = 2.000182 g / cm^3
# Si number density = 20.047451 Si / 1000 Ang^3
#
#
#
# Elastic Constant Matrix: (Units=GPa)
#
#
# Indices 1 2 3 4 5 6 
#
# 1 74.4789 28.2600 37.9172 0.0000 0.0000 0.0000
# 2 28.2600 92.6245 11.9145 0.0000 0.0000 0.0000
# 3 37.9172 11.9145 116.2062 0.0000 0.0000 0.0000
# 4 0.0000 0.0000 0.0000 29.6856 0.0000 0.0000
# 5 0.0000 0.0000 0.0000 0.0000 53.8637 0.0000
# 6 0.0000 0.0000 0.0000 0.0000 0.0000 25.3368
#
#
#
# Elastic Compliance Matrix: (Units=1/GPa)
#
#
# Indices 1 2 3 4 5 6 
#
# 1 0.017983 -0.004795 -0.005376 0.000000 0.000000 0.000000
# 2 -0.004795 0.012219 0.000312 0.000000 0.000000 0.000000
# 3 -0.005376 0.000312 0.010328 0.000000 0.000000 0.000000
# 4 0.000000 0.000000 0.000000 0.033686 0.000000 0.000000
# 5 0.000000 0.000000 0.000000 0.000000 0.018565 0.000000
# 6 0.000000 0.000000 0.000000 0.000000 0.000000 0.039468
#
#
# Mechanical properties :
#
#
# Convention : Reuss Voigt Hill
#
# Bulk Modulus (GPa) = 48.05157 48.83253 48.44205
# Shear Modulus (GPa) = 31.46523 35.45843 33.46183
#
# Velocity S-wave (km/s) = 3.96604 4.21018 4.08993
# Velocity P-wave (km/s) = 6.70772 6.93149 6.82052
#
# Compressibility (1/GPa) = 0.02081098
#
# Stress axis : x y z
#
# Youngs Moduli (GPa) = 55.60804 81.83855 96.82793
#
# Poissons Ratio (x) = 0.39243 0.52055
# Poissons Ratio (y) = 0.26665 -0.03019
# Poissons Ratio (z) = 0.29895 -0.02552
#
# Static dielectric constant tensor:
#      x y z
#    x 3.549260 0.000000 0.000000 
#    y 0.000000 3.957140 0.000000 
#    z 0.000000 0.000000 3.722000 
# 
# 
# High freq. dielectric constant tensor:
#      x y z
#    x 1.772800 0.000000 0.000000 
#    y 0.000000 1.767690 0.000000 
#    z 0.000000 0.000000 1.799400 
# 
# From -- ./inp_files/35442.got.cif
#   From: 2010.03.12/outbox.cif.g09.slc.cpg/sg63_18_cif.got.tgz:35442.got - 2010.04.10 19:34:48.
