data_PCOD8260100
_publ_section_title
;
Structure prediction by ZEFSAII (Michael W. Deem and Ramdas Pophale) SiO2 
 PCOD8260100
Probable space group: C M C M
;
_chemical_formula_sum "Si O2"
_cell_formula_units_Z 88
_cell_length_a 22.096652
_cell_length_b 24.292113
_cell_length_c 9.057603
_cell_angle_alpha 90.000000
_cell_angle_beta 90.000000
_cell_angle_gamma 90.000000
_cell_volume 4861.889120
_symmetry_space_group_name_H-M "C M C M"
_symmetry_group_IT_number 63
_symmetry_cell_setting 'orthorhombic'
loop_
_space_group_symop_operation_xyz
x,y,z
-x,-y,1/2+z
x,-y,-z
-x,y,1/2-z
-x,-y,-z
x,y,1/2-z
-x,y,z
x,-y,1/2+z
1/2+x,1/2+y,z
1/2-x,1/2-y,1/2+z
1/2+x,1/2-y,-z
1/2-x,1/2+y,1/2-z
1/2-x,1/2-y,-z
1/2+x,1/2+y,1/2-z
1/2-x,1/2+y,z
1/2+x,1/2-y,1/2+z
loop_
_atom_site_type_symbol
_atom_site_label
_atom_site_fract_x
_atom_site_fract_y
_atom_site_fract_z
Si Si1 0.616926 0.371920 0.923862
Si Si2 0.570202 0.270141 0.419306
Si Si3 0.647879 0.055344 0.921566
Si Si4 0.070126 0.355428 0.919628
Si Si5 0.000000 0.058585 0.423355
Si Si6 0.712103 0.555910 0.576918
O O1 0.627866 0.374476 0.750000
O O2 0.558904 0.407508 0.973374
O O3 0.608369 0.308842 0.972433
O O4 0.675812 0.393651 0.007653
O O5 0.582960 0.286527 0.250000
O O6 0.500000 0.277442 0.456928
O O7 0.589861 0.207407 0.448495
O O8 0.636798 0.046915 0.750000
O O9 0.717814 0.066674 0.958383
O O10 0.609838 0.107014 0.975307
O O11 0.624825 0.000000 0.000000
O O12 0.082032 0.371430 0.750000
O O13 0.000000 0.363784 0.959353
O O14 0.000000 0.048733 0.250000
O O15 0.000000 0.000000 0.500000
O O16 0.689457 0.500000 0.500000
O O17 0.698959 0.551117 0.750000
#
# Coordination Sequence:
#
# PCOD8260100 Si02
#       6
#    16  16  16  16   8  16
#     4  11  21  34  52  77 107 141 182 224 268 317
#     4   9  18  34  55  78 106 143 180 218 268 318
#     4  10  21  37  58  82 109 141 177 218 266 320
#     4   9  19  36  58  84 112 140 175 218 265 320
#     4  10  22  34  46  72 106 136 173 222 267 310
#     4  10  21  37  55  77 105 140 182 223 267 321
#
# _framework density 18.099959999999999
#
# number of rings (size 3 to 8) (size 9 to 14) (size 15 to 20)
#    0.000    2.182    0.909    3.273    0.000    6.545 
#    0.000    2.727    0.000    0.000    0.000    0.000 
#    0.000    0.000    0.000    0.000    0.000    0.000 
#
# Total GULP energy -545780.221516 kJ/mol
# GULP energy per Si atom -12404.095944 kJ/mol
# Density = 1.805876 g / cm^3
# Si number density = 18.099960 Si / 1000 Ang^3
#
#
#
# Elastic Constant Matrix: (Units=GPa)
#
#
# Indices 1 2 3 4 5 6 
#
# 1 64.8310 51.3489 44.2348 0.0000 0.0000 0.0000
# 2 51.3489 115.4286 53.4423 0.0000 0.0000 0.0000
# 3 44.2348 53.4423 82.4983 0.0000 0.0000 0.0000
# 4 0.0000 0.0000 0.0000 40.0744 0.0000 0.0000
# 5 0.0000 0.0000 0.0000 0.0000 27.0814 0.0000
# 6 0.0000 0.0000 0.0000 0.0000 0.0000 31.3803
#
#
#
# Elastic Compliance Matrix: (Units=1/GPa)
#
#
# Indices 1 2 3 4 5 6 
#
# 1 0.028786 -0.008084 -0.010198 0.000000 0.000000 0.000000
# 2 -0.008084 0.014645 -0.005153 0.000000 0.000000 0.000000
# 3 -0.010198 -0.005153 0.020927 0.000000 0.000000 0.000000
# 4 0.000000 0.000000 0.000000 0.024954 0.000000 0.000000
# 5 0.000000 0.000000 0.000000 0.000000 0.036926 0.000000
# 6 0.000000 0.000000 0.000000 0.000000 0.000000 0.031867
#
#
# Mechanical properties :
#
#
# Convention : Reuss Voigt Hill
#
# Bulk Modulus (GPa) = 57.17755 62.31219 59.74487
# Shear Modulus (GPa) = 23.71887 27.28934 25.50411
#
# Velocity S-wave (km/s) = 3.62392 3.88713 3.75783
# Velocity P-wave (km/s) = 7.01205 7.39241 7.20474
#
# Compressibility (1/GPa) = 0.01748938
#
# Stress axis : x y z
#
# Youngs Moduli (GPa) = 34.73969 68.28221 47.78463
#
# Poissons Ratio (x) = 0.55199 0.48730
# Poissons Ratio (y) = 0.28083 0.24621
# Poissons Ratio (z) = 0.35427 0.35183
#
# Static dielectric constant tensor:
#      x y z
#    x 3.235840 0.000000 0.000000 
#    y 0.000000 3.327360 0.000000 
#    z 0.000000 0.000000 3.344880 
# 
# 
# High freq. dielectric constant tensor:
#      x y z
#    x 1.689690 0.000000 0.000000 
#    y 0.000000 1.705050 0.000000 
#    z 0.000000 0.000000 1.707380 
# 
# From -- ./inp_files/8162.got.cif
#   From: 2010.03.12/outbox.cif.g09.slc.cpg/sg63_5_cif.got.tgz:8162.got - 2010.04.10 19:34:48.
