data_PCOD8260119
_publ_section_title
;
Structure prediction by ZEFSAII (Michael W. Deem and Ramdas Pophale) SiO2 
 PCOD8260119
Probable space group: C M C M
;
_chemical_formula_sum "Si O2"
_cell_formula_units_Z 104
_cell_length_a 22.450425
_cell_length_b 28.262581
_cell_length_c 8.613910
_cell_angle_alpha 90.000000
_cell_angle_beta 90.000000
_cell_angle_gamma 90.000000
_cell_volume 5465.585805
_symmetry_space_group_name_H-M "C M C M"
_symmetry_group_IT_number 63
_symmetry_cell_setting 'orthorhombic'
loop_
_space_group_symop_operation_xyz
x,y,z
-x,-y,1/2+z
x,-y,-z
-x,y,1/2-z
-x,-y,-z
x,y,1/2-z
-x,y,z
x,-y,1/2+z
1/2+x,1/2+y,z
1/2-x,1/2-y,1/2+z
1/2+x,1/2-y,-z
1/2-x,1/2+y,1/2-z
1/2-x,1/2-y,-z
1/2+x,1/2+y,1/2-z
1/2-x,1/2+y,z
1/2+x,1/2-y,1/2+z
loop_
_atom_site_type_symbol
_atom_site_label
_atom_site_fract_x
_atom_site_fract_y
_atom_site_fract_z
Si Si1 0.332834 0.893279 0.926960
Si Si2 0.311071 0.790041 0.571889
Si Si3 0.770800 0.950182 0.067807
Si Si4 0.933345 0.449301 0.424654
Si Si5 0.677118 0.696652 0.067740
Si Si6 0.617994 0.399784 0.934171
Si Si7 0.500000 0.553422 0.566032
O O1 0.313357 0.903548 0.750000
O O2 0.347151 0.838117 0.952047
O O3 0.279934 0.911427 0.036496
O O4 0.395078 0.916458 0.965767
O O5 0.305818 0.774481 0.750000
O O6 0.347436 0.748302 0.482980
O O7 0.245032 0.801940 0.503695
O O8 0.783198 0.953790 0.250000
O O9 0.831323 0.937057 0.979608
O O10 0.747764 0.000000 0.000000
O O11 0.931891 0.500000 0.500000
O O12 0.907117 0.451453 0.250000
O O13 0.000000 0.428946 0.422361
O O14 0.677045 0.690275 0.250000
O O15 0.638320 0.652476 0.001999
O O16 0.608951 0.399667 0.750000
O O17 0.557011 0.416397 0.012591
O O18 0.500000 0.500000 0.500000
O O19 0.500000 0.549093 0.750000
#
# Coordination Sequence:
#
# PCOD8260119 Si02
#       7
#    16  16  16  16  16  16   8
#     4  11  21  36  56  82 115 149 186 232 284 337
#     4   9  18  33  54  84 117 148 183 226 278 335
#     4  12  24  37  55  82 116 152 188 233 286 341
#     4  10  21  37  56  79 108 145 189 231 275 332
#     4   9  18  34  57  84 114 147 183 226 279 337
#     4  11  22  41  63  86 117 153 194 241 295 348
#     4  12  26  44  64  90 118 156 204 248 299 358
#
# _framework density 19.028153
#
# number of rings (size 3 to 8) (size 9 to 14) (size 15 to 20)
#    0.000    1.538    1.538    4.385    0.000    3.385 
#    0.000    0.000    1.692    0.000    0.000    0.000 
#    0.000    0.000    0.000    0.000    0.000    0.000 
#
# Total GULP energy -644680.554416 kJ/mol
# GULP energy per Si atom -12397.702970 kJ/mol
# Density = 1.898484 g / cm^3
# Si number density = 19.028153 Si / 1000 Ang^3
#
#
#
# Elastic Constant Matrix: (Units=GPa)
#
#
# Indices 1 2 3 4 5 6 
#
# 1 82.7310 50.0844 27.5632 0.0000 0.0000 0.0000
# 2 50.0844 122.6867 39.3426 0.0000 0.0000 0.0000
# 3 27.5632 39.3426 70.1585 0.0000 0.0000 0.0000
# 4 0.0000 0.0000 0.0000 33.9420 0.0000 0.0000
# 5 0.0000 0.0000 0.0000 0.0000 29.4387 0.0000
# 6 0.0000 0.0000 0.0000 0.0000 0.0000 34.0874
#
#
#
# Elastic Compliance Matrix: (Units=1/GPa)
#
#
# Indices 1 2 3 4 5 6 
#
# 1 0.016671 -0.005737 -0.003332 0.000000 0.000000 0.000000
# 2 -0.005737 0.011912 -0.004426 0.000000 0.000000 0.000000
# 3 -0.003332 -0.004426 0.018045 0.000000 0.000000 0.000000
# 4 0.000000 0.000000 0.000000 0.029462 0.000000 0.000000
# 5 0.000000 0.000000 0.000000 0.000000 0.033969 0.000000
# 6 0.000000 0.000000 0.000000 0.000000 0.000000 0.029336
#
#
# Mechanical properties :
#
#
# Convention : Reuss Voigt Hill
#
# Bulk Modulus (GPa) = 50.92483 56.61740 53.77112
# Shear Modulus (GPa) = 28.91329 30.06602 29.48965
#
# Velocity S-wave (km/s) = 3.90231 3.97934 3.94101
# Velocity P-wave (km/s) = 6.86476 7.13671 7.00206
#
# Compressibility (1/GPa) = 0.01963679
#
# Stress axis : x y z
#
# Youngs Moduli (GPa) = 59.98576 83.94802 55.41813
#
# Poissons Ratio (x) = 0.48160 0.18467
# Poissons Ratio (y) = 0.34413 0.24529
# Poissons Ratio (z) = 0.19989 0.37156
#
# Static dielectric constant tensor:
#      x y z
#    x 3.412680 0.000000 0.000000 
#    y 0.000000 3.735980 0.000000 
#    z 0.000000 0.000000 3.444590 
# 
# 
# High freq. dielectric constant tensor:
#      x y z
#    x 1.715120 0.000000 0.000000 
#    y 0.000000 1.750730 0.000000 
#    z 0.000000 0.000000 1.745500 
# 
# From -- ./inp_files/8833.got.cif
#   From: 2010.03.12/outbox.cif.g09.slc.cpg/sg63_5_cif.got.tgz:8833.got - 2010.04.10 19:34:48.
