data_PCOD8260348
_publ_section_title
;
Structure prediction by ZEFSAII (Michael W. Deem and Ramdas Pophale) SiO2 
 PCOD8260348
Probable space group: C M C M
;
_chemical_formula_sum "Si O2"
_cell_formula_units_Z 112
_cell_length_a 17.001125
_cell_length_b 14.178404
_cell_length_c 21.891797
_cell_angle_alpha 90.000000
_cell_angle_beta 90.000000
_cell_angle_gamma 90.000000
_cell_volume 5276.991806
_symmetry_space_group_name_H-M "C M C M"
_symmetry_group_IT_number 63
_symmetry_cell_setting 'orthorhombic'
loop_
_space_group_symop_operation_xyz
x,y,z
-x,-y,1/2+z
x,-y,-z
-x,y,1/2-z
-x,-y,-z
x,y,1/2-z
-x,y,z
x,-y,1/2+z
1/2+x,1/2+y,z
1/2-x,1/2-y,1/2+z
1/2+x,1/2-y,-z
1/2-x,1/2+y,1/2-z
1/2-x,1/2-y,-z
1/2+x,1/2+y,1/2-z
1/2-x,1/2+y,z
1/2+x,1/2-y,1/2+z
loop_
_atom_site_type_symbol
_atom_site_label
_atom_site_fract_x
_atom_site_fract_y
_atom_site_fract_z
Si Si1 0.089185 0.644078 0.595556
Si Si2 0.339457 0.541865 0.817833
Si Si3 0.091252 0.068382 0.554479
Si Si4 0.659050 0.761492 0.986880
Si Si5 0.205825 0.608954 0.180971
Si Si6 0.590028 0.069209 0.083594
Si Si7 0.775972 0.703615 0.818582
O O1 0.108319 0.728625 0.548786
O O2 0.097011 0.540707 0.563154
O O3 0.151358 0.651366 0.649779
O O4 0.000000 0.656755 0.620124
O O5 0.380043 0.525008 0.750000
O O6 0.395480 0.525942 0.876928
O O7 0.263926 0.477493 0.824703
O O8 0.305167 0.646399 0.820352
O O9 0.132172 0.170239 0.550784
O O10 0.000000 0.083751 0.544215
O O11 0.123849 0.000000 0.500000
O O12 0.645982 0.861343 0.953872
O O13 0.750000 0.750000 0.000000
O O14 0.185786 0.636807 0.250000
O O15 0.122320 0.579755 0.152299
O O16 0.250922 0.697795 0.149470
O O17 0.500000 0.103816 0.079546
O O18 0.805838 0.721226 0.750000
#
# Coordination Sequence:
#
# PCOD8260348 Si02
#       7
#    16  16  16  16  16  16  16
#     4  11  23  39  62  91 125 163 202 260 333 393
#     4  10  21  41  66  92 128 168 217 269 315 385
#     4  11  26  44  64  94 132 171 215 270 324 383
#     4  12  26  41  64  90 123 168 213 266 315 389
#     4  10  21  38  62  91 125 164 210 259 312 378
#     4  11  23  39  63  94 128 161 204 264 329 391
#     4  10  21  39  61  91 124 164 216 264 314 378
#
# _framework density 21.224214
#
# number of rings (size 3 to 8) (size 9 to 14) (size 15 to 20)
#    0.000    1.286    1.429    4.286    4.000    2.000 
#    0.000    1.429    0.000    6.857    0.000    0.000 
#    0.000    0.000    0.000    0.000    0.000    0.000 
#
# Total GULP energy -694069.535935 kJ/mol
# GULP energy per Si atom -12394.098856 kJ/mol
# Density = 2.117591 g / cm^3
# Si number density = 21.224214 Si / 1000 Ang^3
#
#
#
# Elastic Constant Matrix: (Units=GPa)
#
#
# Indices 1 2 3 4 5 6 
#
# 1 95.4662 27.5331 30.0198 0.0000 0.0000 0.0000
# 2 27.5331 74.8363 32.2018 0.0000 0.0000 0.0000
# 3 30.0198 32.2018 93.2683 0.0000 0.0000 0.0000
# 4 0.0000 0.0000 0.0000 33.3135 0.0000 0.0000
# 5 0.0000 0.0000 0.0000 0.0000 29.6778 0.0000
# 6 0.0000 0.0000 0.0000 0.0000 0.0000 30.3198
#
#
#
# Elastic Compliance Matrix: (Units=1/GPa)
#
#
# Indices 1 2 3 4 5 6 
#
# 1 0.012319 -0.003319 -0.002819 0.000000 0.000000 0.000000
# 2 -0.003319 0.016588 -0.004659 0.000000 0.000000 0.000000
# 3 -0.002819 -0.004659 0.013238 0.000000 0.000000 0.000000
# 4 0.000000 0.000000 0.000000 0.030018 0.000000 0.000000
# 5 0.000000 0.000000 0.000000 0.000000 0.033695 0.000000
# 6 0.000000 0.000000 0.000000 0.000000 0.000000 0.032982
#
#
# Mechanical properties :
#
#
# Convention : Reuss Voigt Hill
#
# Bulk Modulus (GPa) = 48.66073 49.23111 48.94592
# Shear Modulus (GPa) = 29.88933 30.24997 30.06965
#
# Velocity S-wave (km/s) = 3.75676 3.77935 3.76807
# Velocity P-wave (km/s) = 6.46486 6.50314 6.48403
#
# Compressibility (1/GPa) = 0.02055045
#
# Stress axis : x y z
#
# Youngs Moduli (GPa) = 81.17794 60.28308 75.54217
#
# Poissons Ratio (x) = 0.20009 0.21295
# Poissons Ratio (y) = 0.26944 0.35195
# Poissons Ratio (z) = 0.22884 0.28086
#
# Static dielectric constant tensor:
#      x y z
#    x 3.610460 0.000000 0.000000 
#    y 0.000000 4.028740 0.000000 
#    z 0.000000 0.000000 4.140000 
# 
# 
# High freq. dielectric constant tensor:
#      x y z
#    x 1.815230 0.000000 0.000000 
#    y 0.000000 1.843480 0.000000 
#    z 0.000000 0.000000 1.838400 
# 
# From -- ./inp_files/62961.got.cif
#   From: 2010.03.12/outbox.cif.g09.slc.cpg/sg63_32_cif.got.tgz:62961.got - 2010.04.10 19:34:48.
