data_PCOD8260790
_publ_section_title
;
Structure prediction by ZEFSAII (Michael W. Deem and Ramdas Pophale) SiO2 
 PCOD8260790
Probable space group: C M C M
;
_chemical_formula_sum "Si O2"
_cell_formula_units_Z 68
_cell_length_a 7.804887
_cell_length_b 18.676466
_cell_length_c 22.052906
_cell_angle_alpha 90.000000
_cell_angle_beta 90.000000
_cell_angle_gamma 90.000000
_cell_volume 3214.601533
_symmetry_space_group_name_H-M "C M C M"
_symmetry_group_IT_number 63
_symmetry_cell_setting 'orthorhombic'
loop_
_space_group_symop_operation_xyz
x,y,z
-x,-y,1/2+z
x,-y,-z
-x,y,1/2-z
-x,-y,-z
x,y,1/2-z
-x,y,z
x,-y,1/2+z
1/2+x,1/2+y,z
1/2-x,1/2-y,1/2+z
1/2+x,1/2-y,-z
1/2-x,1/2+y,1/2-z
1/2-x,1/2-y,-z
1/2+x,1/2+y,1/2-z
1/2-x,1/2+y,z
1/2+x,1/2-y,1/2+z
loop_
_atom_site_type_symbol
_atom_site_label
_atom_site_fract_x
_atom_site_fract_y
_atom_site_fract_z
Si Si1 0.000000 0.126598 0.183523
Si Si2 0.302228 0.920927 0.600269
Si Si3 0.700797 0.830969 0.013819
Si Si4 0.500000 0.237131 0.750000
Si Si5 0.188520 0.869261 0.250000
Si Si6 0.696443 0.917508 0.125443
O O1 0.823343 0.104041 0.152861
O O2 0.000000 0.213317 0.189635
O O3 0.000000 0.090272 0.250000
O O4 0.500000 0.899663 0.615467
O O5 0.233664 0.882711 0.539510
O O6 0.286081 0.006074 0.592639
O O7 0.500000 0.839471 0.018012
O O8 0.750000 0.750000 0.000000
O O9 0.775293 0.858710 0.078435
O O10 0.672855 0.192600 0.750000
O O11 0.204862 0.917499 0.310574
O O12 0.000000 0.834309 0.250000
O O13 0.500000 0.899362 0.140806
#
# Coordination Sequence:
#
# PCOD8260790 Si02
#       6
#     8  16  16   4   8  16
#     4  10  26  42  69  91 139 168 214 273 323 388
#     4  10  23  43  67  98 131 170 219 266 326 391
#     4  10  23  40  65  95 131 173 217 270 327 386
#     4  10  26  48  60  94 136 176 208 276 336 364
#     4  12  26  41  67  97 131 171 223 266 323 399
#     4  10  22  43  68  92 135 174 214 273 331 383
#
# _framework density 21.153479000000001
#
# number of rings (size 3 to 8) (size 9 to 14) (size 15 to 20)
#    0.353    1.412    1.176    0.706    8.235    5.176 
#    0.000    1.176    0.000    0.000    0.000    0.000 
#    0.000    0.000    0.000    0.000    0.000    0.000 
#
# Total GULP energy -421484.709343 kJ/mol
# GULP energy per Si atom -12396.609098 kJ/mol
# Density = 2.110533 g / cm^3
# Si number density = 21.153479 Si / 1000 Ang^3
#
#
#
# Elastic Constant Matrix: (Units=GPa)
#
#
# Indices 1 2 3 4 5 6 
#
# 1 101.2446 32.2700 45.1426 0.0000 0.0000 0.0000
# 2 32.2700 124.9986 67.1256 0.0000 0.0000 0.0000
# 3 45.1426 67.1256 182.1117 0.0000 0.0000 0.0000
# 4 0.0000 0.0000 0.0000 44.5572 0.0000 0.0000
# 5 0.0000 0.0000 0.0000 0.0000 27.5743 0.0000
# 6 0.0000 0.0000 0.0000 0.0000 0.0000 25.5864
#
#
#
# Elastic Compliance Matrix: (Units=1/GPa)
#
#
# Indices 1 2 3 4 5 6 
#
# 1 0.011413 -0.001779 -0.002173 0.000000 0.000000 0.000000
# 2 -0.001779 0.010252 -0.003338 0.000000 0.000000 0.000000
# 3 -0.002173 -0.003338 0.007260 0.000000 0.000000 0.000000
# 4 0.000000 0.000000 0.000000 0.022443 0.000000 0.000000
# 5 0.000000 0.000000 0.000000 0.000000 0.036266 0.000000
# 6 0.000000 0.000000 0.000000 0.000000 0.000000 0.039083
#
#
# Mechanical properties :
#
#
# Convention : Reuss Voigt Hill
#
# Bulk Modulus (GPa) = 69.71341 77.49235 73.60288
# Shear Modulus (GPa) = 34.22795 37.13135 35.67965
#
# Velocity S-wave (km/s) = 4.02690 4.19421 4.11141
# Velocity P-wave (km/s) = 7.39248 7.75681 7.57684
#
# Compressibility (1/GPa) = 0.01434444
#
# Stress axis : x y z
#
# Youngs Moduli (GPa) = 87.61751 97.54337 137.73876
#
# Poissons Ratio (x) = 0.17357 0.29935
# Poissons Ratio (y) = 0.15591 0.45973
# Poissons Ratio (z) = 0.19042 0.32557
#
# Static dielectric constant tensor:
#      x y z
#    x 3.745420 0.000000 0.000000 
#    y 0.000000 3.708380 0.000000 
#    z 0.000000 0.000000 4.038850 
# 
# 
# High freq. dielectric constant tensor:
#      x y z
#    x 1.825080 0.000000 0.000000 
#    y 0.000000 1.828370 0.000000 
#    z 0.000000 0.000000 1.838360 
# 
# From -- ./inp_files/50529.got.cif
#   From: 2010.03.12/outbox.cif.g09.slc.cpg/sg63_26_cif.got.tgz:50529.got - 2010.04.10 19:34:48.
