data_PCOD8260166
_publ_section_title
;
Structure prediction by ZEFSAII (Michael W. Deem and Ramdas Pophale) SiO2 
 PCOD8260166
Probable space group: C M C M
;
_chemical_formula_sum "Si O2"
_cell_formula_units_Z 80
_cell_length_a 16.171794
_cell_length_b 9.778870
_cell_length_c 25.800931
_cell_angle_alpha 90.000000
_cell_angle_beta 90.000000
_cell_angle_gamma 90.000000
_cell_volume 4080.207507
_symmetry_space_group_name_H-M "C M C M"
_symmetry_group_IT_number 63
_symmetry_cell_setting 'orthorhombic'
loop_
_space_group_symop_operation_xyz
x,y,z
-x,-y,1/2+z
x,-y,-z
-x,y,1/2-z
-x,-y,-z
x,y,1/2-z
-x,y,z
x,-y,1/2+z
1/2+x,1/2+y,z
1/2-x,1/2-y,1/2+z
1/2+x,1/2-y,-z
1/2-x,1/2+y,1/2-z
1/2-x,1/2-y,-z
1/2+x,1/2+y,1/2-z
1/2-x,1/2+y,z
1/2+x,1/2-y,1/2+z
loop_
_atom_site_type_symbol
_atom_site_label
_atom_site_fract_x
_atom_site_fract_y
_atom_site_fract_z
Si Si1 0.908497 0.503510 0.307275
Si Si2 0.839462 0.727947 0.369395
Si Si3 0.173989 0.230322 0.188998
Si Si4 0.241379 0.122030 0.463839
Si Si5 0.401713 0.532033 0.392214
O O1 0.876365 0.545099 0.250000
O O2 0.910735 0.635166 0.344561
O O3 0.854083 0.380172 0.329920
O O4 0.000000 0.443927 0.303808
O O5 0.769854 0.729749 0.325098
O O6 0.805567 0.643221 0.417837
O O7 0.874248 0.874973 0.385083
O O8 0.160237 0.207015 0.250000
O O9 0.121219 0.113896 0.159824
O O10 0.250000 0.250000 0.500000
O O11 0.148735 0.096001 0.440971
O O12 0.271315 0.000000 0.500000
O O13 0.500000 0.540962 0.403343
#
# Coordination Sequence:
#
# PCOD8260166 Si02
#       5
#    16  16  16  16  16
#     4  10  21  37  57  85 122 158 192 238 293 349
#     4  11  22  38  63  88 118 155 203 248 292 362
#     4  10  21  38  60  87 122 164 203 239 289 356
#     4  11  23  44  65  88 117 157 201 252 307 367
#     4  11  24  40  62  93 124 157 199 256 312 359
#
# _framework density 19.606846000000001
#
# number of rings (size 3 to 8) (size 9 to 14) (size 15 to 20)
#    0.000    1.400    2.000    4.200    2.800    4.800 
#    0.000    0.000    0.000    3.000    0.000    0.000 
#    0.000    0.000    0.000    0.000    0.000    0.000 
#
# Total GULP energy -495842.210773 kJ/mol
# GULP energy per Si atom -12396.055269 kJ/mol
# Density = 1.956222 g / cm^3
# Si number density = 19.606846 Si / 1000 Ang^3
#
#
#
# Elastic Constant Matrix: (Units=GPa)
#
#
# Indices 1 2 3 4 5 6 
#
# 1 92.6441 46.8044 39.8725 0.0000 0.0000 0.0000
# 2 46.8044 138.7993 67.8415 0.0000 0.0000 0.0000
# 3 39.8725 67.8415 104.8078 0.0000 0.0000 0.0000
# 4 0.0000 0.0000 0.0000 45.4288 0.0000 0.0000
# 5 0.0000 0.0000 0.0000 0.0000 12.5976 0.0000
# 6 0.0000 0.0000 0.0000 0.0000 0.0000 29.4532
#
#
#
# Elastic Compliance Matrix: (Units=1/GPa)
#
#
# Indices 1 2 3 4 5 6 
#
# 1 0.013731 -0.003038 -0.003257 0.000000 0.000000 0.000000
# 2 -0.003038 0.011211 -0.006101 0.000000 0.000000 0.000000
# 3 -0.003257 -0.006101 0.014730 0.000000 0.000000 0.000000
# 4 0.000000 0.000000 0.000000 0.022012 0.000000 0.000000
# 5 0.000000 0.000000 0.000000 0.000000 0.079380 0.000000
# 6 0.000000 0.000000 0.000000 0.000000 0.000000 0.033952
#
#
# Mechanical properties :
#
#
# Convention : Reuss Voigt Hill
#
# Bulk Modulus (GPa) = 67.20966 71.69868 69.45417
# Shear Modulus (GPa) = 24.41777 29.61143 27.01460
#
# Velocity S-wave (km/s) = 3.53281 3.89042 3.71592
# Velocity P-wave (km/s) = 7.14101 7.53844 7.34242
#
# Compressibility (1/GPa) = 0.01487881
#
# Stress axis : x y z
#
# Youngs Moduli (GPa) = 72.82971 89.19640 67.89051
#
# Poissons Ratio (x) = 0.27099 0.22112
# Poissons Ratio (y) = 0.22127 0.41421
# Poissons Ratio (z) = 0.23721 0.54420
#
# Static dielectric constant tensor:
#      x y z
#    x 3.488490 0.000000 0.000000 
#    y 0.000000 3.653060 0.000000 
#    z 0.000000 0.000000 3.754560 
# 
# 
# High freq. dielectric constant tensor:
#      x y z
#    x 1.757720 0.000000 0.000000 
#    y 0.000000 1.778490 0.000000 
#    z 0.000000 0.000000 1.770050 
# 
# From -- ./inp_files/69710.got.cif
#   From: 2010.03.12/outbox.cif.g09.slc.cpg/sg63_35_cif.got.tgz:69710.got - 2010.04.10 19:34:48.
