data_PCOD8260757
_publ_section_title
;
Structure prediction by ZEFSAII (Michael W. Deem and Ramdas Pophale) SiO2 
 PCOD8260757
Probable space group: C M C M
;
_chemical_formula_sum "Si O2"
_cell_formula_units_Z 96
_cell_length_a 14.891853
_cell_length_b 19.972538
_cell_length_c 15.627136
_cell_angle_alpha 90.000000
_cell_angle_beta 90.000000
_cell_angle_gamma 90.000000
_cell_volume 4647.949368
_symmetry_space_group_name_H-M "C M C M"
_symmetry_group_IT_number 63
_symmetry_cell_setting 'orthorhombic'
loop_
_space_group_symop_operation_xyz
x,y,z
-x,-y,1/2+z
x,-y,-z
-x,y,1/2-z
-x,-y,-z
x,y,1/2-z
-x,y,z
x,-y,1/2+z
1/2+x,1/2+y,z
1/2-x,1/2-y,1/2+z
1/2+x,1/2-y,-z
1/2-x,1/2+y,1/2-z
1/2-x,1/2-y,-z
1/2+x,1/2+y,1/2-z
1/2-x,1/2+y,z
1/2+x,1/2-y,1/2+z
loop_
_atom_site_type_symbol
_atom_site_label
_atom_site_fract_x
_atom_site_fract_y
_atom_site_fract_z
Si Si1 0.103863 0.151536 0.345086
Si Si2 0.099714 0.524755 0.648667
Si Si3 0.243223 0.262100 0.900241
Si Si4 0.903196 0.923623 0.010731
Si Si5 0.397007 0.125547 0.149529
Si Si6 0.265633 0.386361 0.152497
O O1 0.121894 0.120592 0.250000
O O2 0.162554 0.217558 0.357876
O O3 0.137092 0.101983 0.420257
O O4 0.000000 0.171265 0.354215
O O5 0.094165 0.521409 0.750000
O O6 0.127161 0.449825 0.615623
O O7 0.170686 0.581994 0.620031
O O8 0.000000 0.543478 0.612873
O O9 0.166699 0.318185 0.890463
O O10 0.224416 0.193217 0.851981
O O11 0.250000 0.250000 0.000000
O O12 0.841047 0.914875 0.091551
O O13 0.000000 0.888141 0.028011
O O14 0.921713 0.000000 0.000000
O O15 0.381803 0.128242 0.250000
O O16 0.500000 0.142451 0.125695
O O17 0.283832 0.409213 0.250000
#
# Coordination Sequence:
#
# PCOD8260757 Si02
#       6
#    16  16  16  16  16  16
#     4  10  22  42  66  88 117 164 214 257 307 368
#     4   8  17  36  62  92 124 159 204 256 306 365
#     4  12  24  39  60  90 130 165 204 261 312 371
#     4  10  23  42  62  89 125 161 208 262 308 366
#     4   9  19  38  64  91 119 159 211 258 304 368
#     4  11  23  38  62  96 130 165 203 252 321 380
#
# _framework density 20.65427
#
# number of rings (size 3 to 8) (size 9 to 14) (size 15 to 20)
#    0.000    2.000    1.667    2.500    2.333    3.000 
#    0.000    3.333    0.000    2.500    0.000    0.000 
#    0.000    0.000    0.000    0.000    0.000    0.000 
#
# Total GULP energy -594776.556245 kJ/mol
# GULP energy per Si atom -12391.178255 kJ/mol
# Density = 2.060726 g / cm^3
# Si number density = 20.654270 Si / 1000 Ang^3
#
#
#
# Elastic Constant Matrix: (Units=GPa)
#
#
# Indices 1 2 3 4 5 6 
#
# 1 110.7753 47.3701 58.0805 0.0000 0.0000 0.0000
# 2 47.3701 85.7020 23.9787 0.0000 0.0000 0.0000
# 3 58.0805 23.9787 115.5097 0.0000 0.0000 0.0000
# 4 0.0000 0.0000 0.0000 14.9813 0.0000 0.0000
# 5 0.0000 0.0000 0.0000 0.0000 32.8877 0.0000
# 6 0.0000 0.0000 0.0000 0.0000 0.0000 33.2478
#
#
#
# Elastic Compliance Matrix: (Units=1/GPa)
#
#
# Indices 1 2 3 4 5 6 
#
# 1 0.015123 -0.006616 -0.006231 0.000000 0.000000 0.000000
# 2 -0.006616 0.015282 0.000154 0.000000 0.000000 0.000000
# 3 -0.006231 0.000154 0.011758 0.000000 0.000000 0.000000
# 4 0.000000 0.000000 0.000000 0.066750 0.000000 0.000000
# 5 0.000000 0.000000 0.000000 0.000000 0.030406 0.000000
# 6 0.000000 0.000000 0.000000 0.000000 0.000000 0.030077
#
#
# Mechanical properties :
#
#
# Convention : Reuss Voigt Hill
#
# Bulk Modulus (GPa) = 59.60010 63.42728 61.51369
# Shear Modulus (GPa) = 24.95322 28.39388 26.67355
#
# Velocity S-wave (km/s) = 3.47960 3.71175 3.59755
# Velocity P-wave (km/s) = 6.71284 7.01036 6.86321
#
# Compressibility (1/GPa) = 0.01677850
#
# Stress axis : x y z
#
# Youngs Moduli (GPa) = 66.12335 65.43674 85.04633
#
# Poissons Ratio (x) = 0.43291 0.52991
# Poissons Ratio (y) = 0.43745 -0.01311
# Poissons Ratio (z) = 0.41201 -0.01009
#
# Static dielectric constant tensor:
#      x y z
#    x 4.303500 0.000000 0.000000 
#    y 0.000000 3.926960 0.000000 
#    z 0.000000 0.000000 3.761490 
# 
# 
# High freq. dielectric constant tensor:
#      x y z
#    x 1.816730 0.000000 0.000000 
#    y 0.000000 1.801150 0.000000 
#    z 0.000000 0.000000 1.807000 
# 
# From -- ./inp_files/31874.got.cif
#   From: 2010.03.12/outbox.cif.g09.slc.cpg/sg63_16_cif.got.tgz:31874.got - 2010.04.10 19:34:48.
