data_PCOD8260717
_publ_section_title
;
Structure prediction by ZEFSAII (Michael W. Deem and Ramdas Pophale) SiO2 
 PCOD8260717
Probable space group: C M C M
;
_chemical_formula_sum "Si O2"
_cell_formula_units_Z 72
_cell_length_a 27.214507
_cell_length_b 14.570110
_cell_length_c 8.717259
_cell_angle_alpha 90.000000
_cell_angle_beta 90.000000
_cell_angle_gamma 90.000000
_cell_volume 3456.553247
_symmetry_space_group_name_H-M "C M C M"
_symmetry_group_IT_number 63
_symmetry_cell_setting 'orthorhombic'
loop_
_space_group_symop_operation_xyz
x,y,z
-x,-y,1/2+z
x,-y,-z
-x,y,1/2-z
-x,-y,-z
x,y,1/2-z
-x,y,z
x,-y,1/2+z
1/2+x,1/2+y,z
1/2-x,1/2-y,1/2+z
1/2+x,1/2-y,-z
1/2-x,1/2+y,1/2-z
1/2-x,1/2-y,-z
1/2+x,1/2+y,1/2-z
1/2-x,1/2+y,z
1/2+x,1/2-y,1/2+z
loop_
_atom_site_type_symbol
_atom_site_label
_atom_site_fract_x
_atom_site_fract_y
_atom_site_fract_z
Si Si1 0.171258 0.088494 0.930393
Si Si2 0.404859 0.286717 0.572115
Si Si3 0.500000 0.398066 0.568738
Si Si4 0.868405 0.593446 0.927923
Si Si5 0.234174 0.653579 0.068610
O O1 0.178178 0.082460 0.750000
O O2 0.141156 0.179515 0.972227
O O3 0.223553 0.084193 0.015828
O O4 0.142204 0.000000 0.000000
O O5 0.395021 0.309594 0.750000
O O6 0.453464 0.338405 0.512532
O O7 0.407624 0.176480 0.547429
O O8 0.500000 0.500000 0.500000
O O9 0.500000 0.408263 0.750000
O O10 0.858224 0.576751 0.750000
O O11 0.890501 0.500000 0.000000
O O12 0.817191 0.617875 0.006116
O O13 0.231071 0.661428 0.250000
O O14 0.250000 0.750000 0.000000
#
# Coordination Sequence:
#
# PCOD8260717 Si02
#       5
#    16  16   8  16  16
#     4  12  24  38  59  87 122 162 205 252 305 364
#     4  10  22  41  64  89 122 159 203 254 310 372
#     4  10  22  42  67  96 124 158 197 248 315 377
#     4  11  23  40  62  88 123 166 210 257 307 361
#     4  12  23  38  59  87 123 163 208 253 304 360
#
# _framework density 20.829999000000001
#
# number of rings (size 3 to 8) (size 9 to 14) (size 15 to 20)
#    0.000    0.889    2.222    6.000    0.000    3.556 
#    0.000    0.556    0.000    0.000    0.000    0.000 
#    0.000    0.000    0.000    0.000    0.000    0.000 
#
# Total GULP energy -446415.708941 kJ/mol
# GULP energy per Si atom -12400.436359 kJ/mol
# Density = 2.078259 g / cm^3
# Si number density = 20.829999 Si / 1000 Ang^3
#
#
#
# Elastic Constant Matrix: (Units=GPa)
#
#
# Indices 1 2 3 4 5 6 
#
# 1 95.4414 49.1438 35.8162 0.0000 0.0000 0.0000
# 2 49.1438 163.6320 58.8173 0.0000 0.0000 0.0000
# 3 35.8162 58.8173 141.5691 0.0000 0.0000 0.0000
# 4 0.0000 0.0000 0.0000 40.5357 0.0000 0.0000
# 5 0.0000 0.0000 0.0000 0.0000 18.3759 0.0000
# 6 0.0000 0.0000 0.0000 0.0000 0.0000 78.9095
#
#
#
# Elastic Compliance Matrix: (Units=1/GPa)
#
#
# Indices 1 2 3 4 5 6 
#
# 1 0.012829 -0.003158 -0.001934 0.000000 0.000000 0.000000
# 2 -0.003158 0.007961 -0.002509 0.000000 0.000000 0.000000
# 3 -0.001934 -0.002509 0.008595 0.000000 0.000000 0.000000
# 4 0.000000 0.000000 0.000000 0.024670 0.000000 0.000000
# 5 0.000000 0.000000 0.000000 0.000000 0.054419 0.000000
# 6 0.000000 0.000000 0.000000 0.000000 0.000000 0.012673
#
#
# Mechanical properties :
#
#
# Convention : Reuss Voigt Hill
#
# Bulk Modulus (GPa) = 70.49645 76.46634 73.48140
# Shear Modulus (GPa) = 35.44169 44.68858 40.06514
#
# Velocity S-wave (km/s) = 4.12937 4.63687 4.39046
# Velocity P-wave (km/s) = 7.52680 8.09054 7.81375
#
# Compressibility (1/GPa) = 0.01418511
#
# Stress axis : x y z
#
# Youngs Moduli (GPa) = 77.94609 125.60458 116.34364
#
# Poissons Ratio (x) = 0.39666 0.22498
# Poissons Ratio (y) = 0.24615 0.29188
# Poissons Ratio (z) = 0.15073 0.31512
#
# Static dielectric constant tensor:
#      x y z
#    x 3.680790 0.000000 0.000000 
#    y 0.000000 4.252270 0.000000 
#    z 0.000000 0.000000 3.777680 
# 
# 
# High freq. dielectric constant tensor:
#      x y z
#    x 1.788270 0.000000 0.000000 
#    y 0.000000 1.841250 0.000000 
#    z 0.000000 0.000000 1.820200 
# 
# From -- ./inp_files/11730.got.cif
#   From: 2010.03.12/outbox.cif.g09.slc.cpg/sg63_6_cif.got.tgz:11730.got - 2010.04.10 19:34:48.
