data_PCOD8260087
_publ_section_title
;
Structure prediction by ZEFSAII (Michael W. Deem and Ramdas Pophale) SiO2 
 PCOD8260087
Probable space group: C M C M
;
_chemical_formula_sum "Si O2"
_cell_formula_units_Z 80
_cell_length_a 18.132537
_cell_length_b 10.308301
_cell_length_c 24.403050
_cell_angle_alpha 90.000000
_cell_angle_beta 90.000000
_cell_angle_gamma 90.000000
_cell_volume 4561.311935
_symmetry_space_group_name_H-M "C M C M"
_symmetry_group_IT_number 63
_symmetry_cell_setting 'orthorhombic'
loop_
_space_group_symop_operation_xyz
x,y,z
-x,-y,1/2+z
x,-y,-z
-x,y,1/2-z
-x,-y,-z
x,y,1/2-z
-x,y,z
x,-y,1/2+z
1/2+x,1/2+y,z
1/2-x,1/2-y,1/2+z
1/2+x,1/2-y,-z
1/2-x,1/2+y,1/2-z
1/2-x,1/2-y,-z
1/2+x,1/2+y,1/2-z
1/2-x,1/2+y,z
1/2+x,1/2-y,1/2+z
loop_
_atom_site_type_symbol
_atom_site_label
_atom_site_fract_x
_atom_site_fract_y
_atom_site_fract_z
Si Si1 0.680311 0.789549 0.250000
Si Si2 0.912496 0.880421 0.466241
Si Si3 0.583904 0.218040 0.643997
Si Si4 0.583620 0.481759 0.351709
Si Si5 0.814012 0.012456 0.750000
Si Si6 0.412028 0.869747 0.027151
O O1 0.632196 0.818088 0.303631
O O2 0.744667 0.893859 0.250000
O O3 0.708752 0.640035 0.250000
O O4 0.890980 0.892236 0.402393
O O5 0.879715 0.747826 0.490828
O O6 0.000000 0.882915 0.472604
O O7 0.877962 0.000000 0.500000
O O8 0.500000 0.178291 0.657723
O O9 0.588316 0.369463 0.629306
O O10 0.613633 0.141183 0.590516
O O11 0.500000 0.449333 0.333356
O O12 0.637684 0.451496 0.302338
O O13 0.500000 0.867429 0.025507
O O14 0.380040 0.000000 0.000000
#
# Coordination Sequence:
#
# PCOD8260087 Si02
#       6
#     8  16  16  16   8  16
#     4  10  21  37  55  71  97 134 170 208 252 294
#     4   9  14  24  45  73 101 125 153 197 246 290
#     4   9  16  30  54  79  99 126 169 209 240 290
#     4   9  16  29  54  80  98 124 169 213 244 284
#     4  10  21  37  53  71  99 134 168 208 252 298
#     4   9  16  26  43  73 108 131 152 193 251 301
#
# _framework density 17.538813000000001
#
# number of rings (size 3 to 8) (size 9 to 14) (size 15 to 20)
#    0.000    2.800    2.000    0.600    0.000    2.400 
#    3.600    0.000    0.000    3.600    0.000    0.000 
#    0.000    0.000    0.000    0.000    0.000    0.000 
#
# Total GULP energy -495857.403638 kJ/mol
# GULP energy per Si atom -12396.435091 kJ/mol
# Density = 1.749889 g / cm^3
# Si number density = 17.538813 Si / 1000 Ang^3
#
#
#
# Elastic Constant Matrix: (Units=GPa)
#
#
# Indices 1 2 3 4 5 6 
#
# 1 61.5448 42.1828 57.3627 0.0000 0.0000 0.0000
# 2 42.1828 116.5554 88.3418 0.0000 0.0000 0.0000
# 3 57.3627 88.3418 166.3663 0.0000 0.0000 0.0000
# 4 0.0000 0.0000 0.0000 27.0168 0.0000 0.0000
# 5 0.0000 0.0000 0.0000 0.0000 -5.0282 0.0000
# 6 0.0000 0.0000 0.0000 0.0000 0.0000 20.5821
#
#
#
# Elastic Compliance Matrix: (Units=1/GPa)
#
#
# Indices 1 2 3 4 5 6 
#
# 1 0.025130 -0.004230 -0.006419 0.000000 0.000000 0.000000
# 2 -0.004230 0.015070 -0.006544 0.000000 0.000000 0.000000
# 3 -0.006419 -0.006544 0.011699 0.000000 0.000000 0.000000
# 4 0.000000 0.000000 0.000000 0.037014 0.000000 0.000000
# 5 0.000000 0.000000 0.000000 0.000000 -0.198879 0.000000
# 6 0.000000 0.000000 0.000000 0.000000 0.000000 0.048586
#
#
# Mechanical properties :
#
#
# Convention : Reuss Voigt Hill
#
# Bulk Modulus (GPa) = 57.09676 80.02680 68.56178
# Shear Modulus (GPa) = -236.33192 18.95277 -108.68958
#
# Velocity S-wave (km/s) = -11.62069 3.29084 -7.88070
# Velocity P-wave (km/s) = 12.14203 7.75674 6.60537
#
# Compressibility (1/GPa) = 0.01751413
#
# Stress axis : x y z
#
# Youngs Moduli (GPa) = 39.79307 66.35498 85.47794
#
# Poissons Ratio (x) = 0.28067 0.54865
# Poissons Ratio (y) = 0.16832 0.55937
# Poissons Ratio (z) = 0.25542 0.43423
#
# Static dielectric constant tensor:
#      x y z
#    x 2.821420 0.000000 0.000000 
#    y 0.000000 3.309220 0.000000 
#    z 0.000000 0.000000 3.416350 
# 
# 
# High freq. dielectric constant tensor:
#      x y z
#    x 1.626970 0.000000 0.000000 
#    y 0.000000 1.665160 0.000000 
#    z 0.000000 0.000000 1.696860 
# 
# From -- ./inp_files/62605.got.cif
#   From: 2010.03.12/outbox.cif.g09.slc.cpg/sg63_32_cif.got.tgz:62605.got - 2010.04.10 19:34:48.
