data_PCOD8260586
_publ_section_title
;
Structure prediction by ZEFSAII (Michael W. Deem and Ramdas Pophale) SiO2 
 PCOD8260586
Probable space group: C M C M
;
_chemical_formula_sum "Si O2"
_cell_formula_units_Z 64
_cell_length_a 28.497238
_cell_length_b 9.011214
_cell_length_c 11.254898
_cell_angle_alpha 90.000000
_cell_angle_beta 90.000000
_cell_angle_gamma 90.000000
_cell_volume 2890.198268
_symmetry_space_group_name_H-M "C M C M"
_symmetry_group_IT_number 63
_symmetry_cell_setting 'orthorhombic'
loop_
_space_group_symop_operation_xyz
x,y,z
-x,-y,1/2+z
x,-y,-z
-x,y,1/2-z
-x,-y,-z
x,y,1/2-z
-x,y,z
x,-y,1/2+z
1/2+x,1/2+y,z
1/2-x,1/2-y,1/2+z
1/2+x,1/2-y,-z
1/2-x,1/2+y,1/2-z
1/2-x,1/2-y,-z
1/2+x,1/2+y,1/2-z
1/2-x,1/2+y,z
1/2+x,1/2-y,1/2+z
loop_
_atom_site_type_symbol
_atom_site_label
_atom_site_fract_x
_atom_site_fract_y
_atom_site_fract_z
Si Si1 0.189491 0.250164 0.113368
Si Si2 0.555488 0.582571 0.619632
Si Si3 0.908316 0.673027 0.984985
Si Si4 0.500000 0.104211 0.882087
Si Si5 0.748246 0.500000 0.000000
O O1 0.179710 0.263803 0.250000
O O2 0.138968 0.246530 0.052926
O O3 0.215835 0.096878 0.086455
O O4 0.219630 0.392442 0.077058
O O5 0.574912 0.500000 0.500000
O O6 0.572365 0.520578 0.750000
O O7 0.500000 0.585490 0.617254
O O8 0.575491 0.750997 0.608730
O O9 0.952017 0.700935 0.892174
O O10 0.898208 0.500000 0.000000
O O11 0.500000 0.028556 0.750000
O O12 0.500000 0.000000 0.000000
#
# Coordination Sequence:
#
# PCOD8260586 Si02
#       5
#    16  16  16   8   8
#     4  11  23  44  70  96 132 171 218 281 342 405
#     4  10  23  44  67  96 137 185 232 280 333 396
#     4  11  23  42  64 102 136 177 224 270 331 400
#     4  10  22  38  61  92 137 180 222 270 324 388
#     4  10  24  46  68  98 126 162 230 274 352 400
#
# _framework density 22.143809999999998
#
# number of rings (size 3 to 8) (size 9 to 14) (size 15 to 20)
#    0.000    1.500    2.500    1.500    1.750    7.000 
#    0.000    1.250    0.000    0.000    0.000    0.000 
#    0.000    0.000    0.000    0.000    0.000    0.000 
#
# Total GULP energy -396421.119928 kJ/mol
# GULP energy per Si atom -12388.159998 kJ/mol
# Density = 2.209341 g / cm^3
# Si number density = 22.143810 Si / 1000 Ang^3
#
#
#
# Elastic Constant Matrix: (Units=GPa)
#
#
# Indices 1 2 3 4 5 6 
#
# 1 127.1673 21.4272 32.4277 0.0000 0.0000 0.0000
# 2 21.4272 89.7174 40.6107 0.0000 0.0000 0.0000
# 3 32.4277 40.6107 166.3538 0.0000 0.0000 0.0000
# 4 0.0000 0.0000 0.0000 27.6266 0.0000 0.0000
# 5 0.0000 0.0000 0.0000 0.0000 -32.7718 0.0000
# 6 0.0000 0.0000 0.0000 0.0000 0.0000 3.0449
#
#
#
# Elastic Compliance Matrix: (Units=1/GPa)
#
#
# Indices 1 2 3 4 5 6 
#
# 1 0.008435 -0.001428 -0.001296 0.000000 0.000000 0.000000
# 2 -0.001428 0.012773 -0.002840 0.000000 0.000000 0.000000
# 3 -0.001296 -0.002840 0.006957 0.000000 0.000000 0.000000
# 4 0.000000 0.000000 0.000000 0.036197 0.000000 0.000000
# 5 0.000000 0.000000 0.000000 0.000000 -0.030514 0.000000
# 6 0.000000 0.000000 0.000000 0.000000 0.000000 0.328421
#
#
# Mechanical properties :
#
#
# Convention : Reuss Voigt Hill
#
# Bulk Modulus (GPa) = 58.69335 63.57441 61.13388
# Shear Modulus (GPa) = 13.19002 18.83146 16.01074
#
# Velocity S-wave (km/s) = 2.44325 2.91935 2.69185
# Velocity P-wave (km/s) = 5.87557 6.33527 6.10975
#
# Compressibility (1/GPa) = 0.01703770
#
# Stress axis : x y z
#
# Youngs Moduli (GPa) = 118.55864 78.29285 143.73867
#
# Poissons Ratio (x) = 0.11180 0.18622
# Poissons Ratio (y) = 0.16930 0.40817
# Poissons Ratio (z) = 0.15360 0.22233
#
# Static dielectric constant tensor:
#      x y z
#    x 4.275650 0.000000 0.000000 
#    y 0.000000 4.527560 0.000000 
#    z 0.000000 0.000000 4.135150 
# 
# 
# High freq. dielectric constant tensor:
#      x y z
#    x 1.878890 0.000000 0.000000 
#    y 0.000000 1.874360 0.000000 
#    z 0.000000 0.000000 1.865270 
# 
# From -- ./inp_files/25495.got.cif
#   From: 2010.03.12/outbox.cif.g09.slc.cpg/sg63_13_cif.got.tgz:25495.got - 2010.04.10 19:34:48.
