data_PCOD8260175
_publ_section_title
;
Structure prediction by ZEFSAII (Michael W. Deem and Ramdas Pophale) SiO2 
 PCOD8260175
Probable space group: C M C M
;
_chemical_formula_sum "Si O2"
_cell_formula_units_Z 88
_cell_length_a 26.667487
_cell_length_b 19.125772
_cell_length_c 9.100866
_cell_angle_alpha 90.000000
_cell_angle_beta 90.000000
_cell_angle_gamma 90.000000
_cell_volume 4641.771805
_symmetry_space_group_name_H-M "C M C M"
_symmetry_group_IT_number 63
_symmetry_cell_setting 'orthorhombic'
loop_
_space_group_symop_operation_xyz
x,y,z
-x,-y,1/2+z
x,-y,-z
-x,y,1/2-z
-x,-y,-z
x,y,1/2-z
-x,y,z
x,-y,1/2+z
1/2+x,1/2+y,z
1/2-x,1/2-y,1/2+z
1/2+x,1/2-y,-z
1/2-x,1/2+y,1/2-z
1/2-x,1/2-y,-z
1/2+x,1/2+y,1/2-z
1/2-x,1/2+y,z
1/2+x,1/2-y,1/2+z
loop_
_atom_site_type_symbol
_atom_site_label
_atom_site_fract_x
_atom_site_fract_y
_atom_site_fract_z
Si Si1 0.888460 0.306593 0.076188
Si Si2 0.559492 0.068206 0.416337
Si Si3 0.597200 0.661410 0.577241
Si Si4 0.226117 0.684579 0.578737
Si Si5 0.306197 0.573405 0.578526
Si Si6 0.000000 0.073630 0.921371
O O1 0.896647 0.307630 0.250000
O O2 0.831390 0.324266 0.032197
O O3 0.923565 0.363571 0.002414
O O4 0.904763 0.232067 0.014523
O O5 0.580633 0.068480 0.250000
O O6 0.500000 0.067374 0.414614
O O7 0.580637 0.000000 0.500000
O O8 0.597944 0.679371 0.750000
O O9 0.646127 0.618626 0.528216
O O10 0.548862 0.616837 0.531938
O O11 0.232022 0.699314 0.750000
O O12 0.250000 0.750000 0.500000
O O13 0.255714 0.614457 0.533513
O O14 0.306462 0.500000 0.500000
O O15 0.308867 0.558430 0.750000
O O16 0.000000 0.058055 0.750000
O O17 0.000000 0.000000 0.000000
#
# Coordination Sequence:
#
# PCOD8260175 Si02
#       6
#    16  16  16  16  16   8
#     4  11  23  37  59  90 121 153 196 244 291 350
#     4  10  22  41  64  88 118 156 195 239 292 350
#     4  10  21  38  58  83 117 156 195 239 291 347
#     4  10  21  38  58  83 115 152 195 239 287 343
#     4  10  21  37  58  83 114 151 193 237 287 342
#     4  10  22  38  58  84 115 152 195 240 290 348
#
# _framework density 18.958278
#
# number of rings (size 3 to 8) (size 9 to 14) (size 15 to 20)
#    0.000    1.818    1.818    1.636    1.273    4.727 
#    0.000    1.818    0.000    0.000    0.000    0.000 
#    0.000    0.000    0.000    0.000    0.000    0.000 
#
# Total GULP energy -545785.401724 kJ/mol
# GULP energy per Si atom -12404.213676 kJ/mol
# Density = 1.891513 g / cm^3
# Si number density = 18.958278 Si / 1000 Ang^3
#
#
#
# Elastic Constant Matrix: (Units=GPa)
#
#
# Indices 1 2 3 4 5 6 
#
# 1 77.0538 45.4864 32.7480 0.0000 0.0000 0.0000
# 2 45.4864 168.7296 69.3756 0.0000 0.0000 0.0000
# 3 32.7480 69.3756 78.2340 0.0000 0.0000 0.0000
# 4 0.0000 0.0000 0.0000 44.6387 0.0000 0.0000
# 5 0.0000 0.0000 0.0000 0.0000 21.4415 0.0000
# 6 0.0000 0.0000 0.0000 0.0000 0.0000 32.5767
#
#
#
# Elastic Compliance Matrix: (Units=1/GPa)
#
#
# Indices 1 2 3 4 5 6 
#
# 1 0.016441 -0.002522 -0.004646 0.000000 0.000000 0.000000
# 2 -0.002522 0.009714 -0.007559 0.000000 0.000000 0.000000
# 3 -0.004646 -0.007559 0.021430 0.000000 0.000000 0.000000
# 4 0.000000 0.000000 0.000000 0.022402 0.000000 0.000000
# 5 0.000000 0.000000 0.000000 0.000000 0.046639 0.000000
# 6 0.000000 0.000000 0.000000 0.000000 0.000000 0.030697
#
#
# Mechanical properties :
#
#
# Convention : Reuss Voigt Hill
#
# Bulk Modulus (GPa) = 55.15001 68.80416 61.97708
# Shear Modulus (GPa) = 27.34936 31.49189 29.42062
#
# Velocity S-wave (km/s) = 3.80229 4.08010 3.94364
# Velocity P-wave (km/s) = 6.95916 7.65294 7.31428
#
# Compressibility (1/GPa) = 0.01813236
#
# Stress axis : x y z
#
# Youngs Moduli (GPa) = 60.82279 102.93944 46.66440
#
# Poissons Ratio (x) = 0.25963 0.21678
# Poissons Ratio (y) = 0.15340 0.35272
# Poissons Ratio (z) = 0.28256 0.77809
#
# Static dielectric constant tensor:
#      x y z
#    x 3.813280 0.000000 0.000000 
#    y 0.000000 3.481480 0.000000 
#    z 0.000000 0.000000 3.546890 
# 
# 
# High freq. dielectric constant tensor:
#      x y z
#    x 1.744980 0.000000 0.000000 
#    y 0.000000 1.747430 0.000000 
#    z 0.000000 0.000000 1.738180 
# 
# From -- ./inp_files/14242.got.cif
#   From: 2010.03.12/outbox.cif.g09.slc.cpg/sg63_8_cif.got.tgz:14242.got - 2010.04.10 19:34:48.
