data_PCOD8260701
_publ_section_title
;
Structure prediction by ZEFSAII (Michael W. Deem and Ramdas Pophale) SiO2 
 PCOD8260701
Probable space group: C M C M
;
_chemical_formula_sum "Si O2"
_cell_formula_units_Z 84
_cell_length_a 12.497540
_cell_length_b 12.955639
_cell_length_c 26.114063
_cell_angle_alpha 90.000000
_cell_angle_beta 90.000000
_cell_angle_gamma 90.000000
_cell_volume 4228.222385
_symmetry_space_group_name_H-M "C M C M"
_symmetry_group_IT_number 63
_symmetry_cell_setting 'orthorhombic'
loop_
_space_group_symop_operation_xyz
x,y,z
-x,-y,1/2+z
x,-y,-z
-x,y,1/2-z
-x,-y,-z
x,y,1/2-z
-x,y,z
x,-y,1/2+z
1/2+x,1/2+y,z
1/2-x,1/2-y,1/2+z
1/2+x,1/2-y,-z
1/2-x,1/2+y,1/2-z
1/2-x,1/2-y,-z
1/2+x,1/2+y,1/2-z
1/2-x,1/2+y,z
1/2+x,1/2-y,1/2+z
loop_
_atom_site_type_symbol
_atom_site_label
_atom_site_fract_x
_atom_site_fract_y
_atom_site_fract_z
Si Si1 0.374374 0.370549 0.750000
Si Si2 0.375697 0.379777 0.508085
Si Si3 0.000000 0.372387 0.363175
Si Si4 0.811219 0.288313 0.929900
Si Si5 0.231027 0.557881 0.750000
Si Si6 0.500000 0.046631 0.750000
Si Si7 0.500000 0.946523 0.944607
Si Si8 0.704070 0.222860 0.835106
O O1 0.500000 0.372249 0.750000
O O2 0.332869 0.486357 0.750000
O O3 0.331971 0.317640 0.699167
O O4 0.348631 0.500000 0.500000
O O5 0.500000 0.364414 0.522660
O O6 0.303961 0.331807 0.552919
O O7 0.346534 0.317696 0.456745
O O8 0.000000 0.383807 0.300966
O O9 0.108458 0.309564 0.374360
O O10 0.000000 0.474490 0.397384
O O11 0.803129 0.260987 0.869762
O O12 0.895815 0.377295 0.940095
O O13 0.239940 0.626580 0.800775
O O14 0.117063 0.490986 0.750000
O O15 0.500000 0.000000 0.000000
#
# Coordination Sequence:
#
# PCOD8260701 Si02
#       8
#     8  16   8  16   8   4   8  16
#     4  11  22  43  67  95 131 172 209 262 328 404
#     4  10  23  43  64  88 126 169 209 267 329 381
#     4  10  22  40  70  93 126 169 217 278 327 379
#     4  11  25  41  64  96 126 164 224 268 319 397
#     4   9  21  41  65  93 128 167 202 268 328 386
#     4   8  18  40  68  92 120 158 228 258 316 392
#     4  12  28  44  65  95 136 176 222 282 337 393
#     4  10  23  40  65  96 124 165 220 263 320 394
#
# _framework density 19.866503000000002
#
# number of rings (size 3 to 8) (size 9 to 14) (size 15 to 20)
#    0.000    1.714    1.905    1.143   16.000    0.000 
#    1.714    1.905    2.095    0.000    0.000    0.000 
#    0.000    0.000    0.000    0.000    0.000    0.000 
#
# Total GULP energy -520627.395778 kJ/mol
# GULP energy per Si atom -12395.890376 kJ/mol
# Density = 1.982129 g / cm^3
# Si number density = 19.866503 Si / 1000 Ang^3
#
#
#
# Elastic Constant Matrix: (Units=GPa)
#
#
# Indices 1 2 3 4 5 6 
#
# 1 90.5701 57.2463 61.4535 0.0000 0.0000 0.0000
# 2 57.2463 132.7533 65.5223 0.0000 0.0000 0.0000
# 3 61.4535 65.5223 122.4598 0.0000 0.0000 0.0000
# 4 0.0000 0.0000 0.0000 21.8694 0.0000 0.0000
# 5 0.0000 0.0000 0.0000 0.0000 33.8020 0.0000
# 6 0.0000 0.0000 0.0000 0.0000 0.0000 15.2302
#
#
#
# Elastic Compliance Matrix: (Units=1/GPa)
#
#
# Indices 1 2 3 4 5 6 
#
# 1 0.018638 -0.004648 -0.006866 0.000000 0.000000 0.000000
# 2 -0.004648 0.011395 -0.003764 0.000000 0.000000 0.000000
# 3 -0.006866 -0.003764 0.013626 0.000000 0.000000 0.000000
# 4 0.000000 0.000000 0.000000 0.045726 0.000000 0.000000
# 5 0.000000 0.000000 0.000000 0.000000 0.029584 0.000000
# 6 0.000000 0.000000 0.000000 0.000000 0.000000 0.065659
#
#
# Mechanical properties :
#
#
# Convention : Reuss Voigt Hill
#
# Bulk Modulus (GPa) = 76.32730 79.35860 77.84295
# Shear Modulus (GPa) = 22.77367 24.95106 23.86237
#
# Velocity S-wave (km/s) = 3.38943 3.54776 3.46950
# Velocity P-wave (km/s) = 7.33629 7.53756 7.43761
#
# Compressibility (1/GPa) = 0.01310147
#
# Stress axis : x y z
#
# Youngs Moduli (GPa) = 53.65430 87.75636 73.39154
#
# Poissons Ratio (x) = 0.40792 0.50390
# Poissons Ratio (y) = 0.24940 0.27627
# Poissons Ratio (z) = 0.36838 0.33035
#
# Static dielectric constant tensor:
#      x y z
#    x 3.813810 0.000000 0.000000 
#    y 0.000000 3.570110 0.000000 
#    z 0.000000 0.000000 3.561280 
# 
# 
# High freq. dielectric constant tensor:
#      x y z
#    x 1.783300 0.000000 0.000000 
#    y 0.000000 1.771720 0.000000 
#    z 0.000000 0.000000 1.776510 
# 
# From -- ./inp_files/72668.got.cif
#   From: 2010.03.12/outbox.cif.g09.slc.cpg/sg63_37_cif.got.tgz:72668.got - 2010.04.10 19:34:48.
