data_PCOD8260805
_publ_section_title
;
Structure prediction by ZEFSAII (Michael W. Deem and Ramdas Pophale) SiO2 
 PCOD8260805
Probable space group: C M C M
;
_chemical_formula_sum "Si O2"
_cell_formula_units_Z 40
_cell_length_a 22.901556
_cell_length_b 8.147394
_cell_length_c 8.132142
_cell_angle_alpha 90.000000
_cell_angle_beta 90.000000
_cell_angle_gamma 90.000000
_cell_volume 1517.360111
_symmetry_space_group_name_H-M "C M C M"
_symmetry_group_IT_number 63
_symmetry_cell_setting 'orthorhombic'
loop_
_space_group_symop_operation_xyz
x,y,z
-x,-y,1/2+z
x,-y,-z
-x,y,1/2-z
-x,-y,-z
x,y,1/2-z
-x,y,z
x,-y,1/2+z
1/2+x,1/2+y,z
1/2-x,1/2-y,1/2+z
1/2+x,1/2-y,-z
1/2-x,1/2+y,1/2-z
1/2-x,1/2-y,-z
1/2+x,1/2+y,1/2-z
1/2-x,1/2+y,z
1/2+x,1/2-y,1/2+z
loop_
_atom_site_type_symbol
_atom_site_label
_atom_site_fract_x
_atom_site_fract_y
_atom_site_fract_z
Si Si1 0.186559 0.540839 0.250000
Si Si2 0.377453 0.298984 0.069169
Si Si3 0.181106 0.848589 0.750000
Si Si4 0.000000 0.686807 0.553132
O O1 0.156476 0.624233 0.411530
O O2 0.176788 0.348529 0.250000
O O3 0.254780 0.579009 0.250000
O O4 0.370969 0.389633 0.250000
O O5 0.350017 0.404428 0.919734
O O6 0.444841 0.274949 0.027075
O O7 0.000000 0.500000 0.500000
O O8 0.000000 0.702644 0.750000
#
# Coordination Sequence:
#
# PCOD8260805 Si02
#       4
#     8  16   8   8
#     4  10  24  35  63  79 125 150 195 236 286 340
#     4  10  23  35  56  83 118 151 191 239 293 345
#     4  12  20  43  53  91 115 160 189 242 282 344
#     4  12  20  32  54  81 118 150 188 238 298 349
#
# _framework density 26.361574000000001
#
# number of rings (size 3 to 8) (size 9 to 14) (size 15 to 20)
#    1.200    0.000    2.000    6.600    0.000    0.000 
#    0.000    0.000    0.000    0.000    0.000    8.400 
#    0.000    0.000    0.000    0.000    0.000    0.000 
#
# Total GULP energy -247913.329380 kJ/mol
# GULP energy per Si atom -12395.666469 kJ/mol
# Density = 2.630157 g / cm^3
# Si number density = 26.361574 Si / 1000 Ang^3
#
#
#
# Elastic Constant Matrix: (Units=GPa)
#
#
# Indices 1 2 3 4 5 6 
#
# 1 232.2438 20.8451 104.2895 0.0000 0.0000 0.0000
# 2 20.8451 104.5836 83.0503 0.0000 0.0000 0.0000
# 3 104.2895 83.0503 258.2941 0.0000 0.0000 0.0000
# 4 0.0000 0.0000 0.0000 57.4994 0.0000 0.0000
# 5 0.0000 0.0000 0.0000 0.0000 159.2705 0.0000
# 6 0.0000 0.0000 0.0000 0.0000 0.0000 -154.1833
#
#
#
# Elastic Compliance Matrix: (Units=1/GPa)
#
#
# Indices 1 2 3 4 5 6 
#
# 1 0.005317 0.000866 -0.002425 0.000000 0.000000 0.000000
# 2 0.000866 0.012981 -0.004524 0.000000 0.000000 0.000000
# 3 -0.002425 -0.004524 0.006305 0.000000 0.000000 0.000000
# 4 0.000000 0.000000 0.000000 0.017391 0.000000 0.000000
# 5 0.000000 0.000000 0.000000 0.000000 0.006279 0.000000
# 6 0.000000 0.000000 0.000000 0.000000 0.000000 -0.006486
#
#
# Mechanical properties :
#
#
# Convention : Reuss Voigt Hill
#
# Bulk Modulus (GPa) = 80.39765 112.38794 96.39280
# Shear Modulus (GPa) = 86.05839 38.31310 62.18575
#
# Velocity S-wave (km/s) = 5.71981 3.81644 4.86218
# Velocity P-wave (km/s) = 8.61313 7.88328 8.25627
#
# Compressibility (1/GPa) = 0.01243817
#
# Stress axis : x y z
#
# Youngs Moduli (GPa) = 188.06862 77.03352 158.59497
#
# Poissons Ratio (x) = -0.06673 0.38466
# Poissons Ratio (y) = -0.16291 0.71744
# Poissons Ratio (z) = 0.45614 0.34848
#
# Static dielectric constant tensor:
#      x y z
#    x 4.951210 0.000000 0.000000 
#    y 0.000000 4.743650 0.000000 
#    z 0.000000 0.000000 5.319960 
# 
# 
# High freq. dielectric constant tensor:
#      x y z
#    x 2.048670 0.000000 0.000000 
#    y 0.000000 2.098290 0.000000 
#    z 0.000000 0.000000 2.102780 
# 
# From -- ./inp_files/11280.got.cif
#   From: 2010.03.12/outbox.cif.g09.slc.cpg/sg63_6_cif.got.tgz:11280.got - 2010.04.10 19:34:48.
