data_PCOD8260682
_publ_section_title
;
Structure prediction by ZEFSAII (Michael W. Deem and Ramdas Pophale) SiO2 
 PCOD8260682
Probable space group: C M C M
;
_chemical_formula_sum "Si O2"
_cell_formula_units_Z 80
_cell_length_a 8.868755
_cell_length_b 19.990962
_cell_length_c 22.522773
_cell_angle_alpha 90.000000
_cell_angle_beta 90.000000
_cell_angle_gamma 90.000000
_cell_volume 3993.173782
_symmetry_space_group_name_H-M "C M C M"
_symmetry_group_IT_number 63
_symmetry_cell_setting 'orthorhombic'
loop_
_space_group_symop_operation_xyz
x,y,z
-x,-y,1/2+z
x,-y,-z
-x,y,1/2-z
-x,-y,-z
x,y,1/2-z
-x,y,z
x,-y,1/2+z
1/2+x,1/2+y,z
1/2-x,1/2-y,1/2+z
1/2+x,1/2-y,-z
1/2-x,1/2+y,1/2-z
1/2-x,1/2-y,-z
1/2+x,1/2+y,1/2-z
1/2-x,1/2+y,z
1/2+x,1/2-y,1/2+z
loop_
_atom_site_type_symbol
_atom_site_label
_atom_site_fract_x
_atom_site_fract_y
_atom_site_fract_z
Si Si1 0.823667 0.677340 0.498613
Si Si2 0.325447 0.124768 0.130570
Si Si3 0.823134 0.863418 0.113817
Si Si4 0.674288 0.982517 0.318781
Si Si5 0.327636 0.746740 0.318192
O O1 0.750000 0.750000 0.500000
O O2 0.786577 0.639699 0.437600
O O3 0.757375 0.630115 0.550168
O O4 0.000000 0.686638 0.508370
O O5 0.500000 0.138656 0.145285
O O6 0.224221 0.170555 0.173204
O O7 0.283542 0.048404 0.144258
O O8 0.775020 0.922624 0.157113
O O9 0.779463 0.792622 0.142264
O O10 0.000000 0.865090 0.103689
O O11 0.712338 0.994705 0.250000
O O12 0.500000 0.962810 0.327294
O O13 0.310496 0.767687 0.250000
O O14 0.500000 0.755292 0.339154
#
# Coordination Sequence:
#
# PCOD8260682 Si02
#       5
#    16  16  16  16  16
#     4  11  22  39  64  94 127 162 205 258 312 368
#     4  10  22  40  65  93 122 161 205 253 311 374
#     4  12  25  40  61  89 123 166 210 256 309 364
#     4  10  22  42  65  90 124 163 204 255 313 371
#     4  11  23  38  60  90 122 159 205 258 313 369
#
# _framework density 20.034189000000001
#
# number of rings (size 3 to 8) (size 9 to 14) (size 15 to 20)
#    0.000    1.200    2.000    4.200    0.000    7.600 
#    0.000    4.000    0.000    0.000    0.000    0.000 
#    0.000    0.000    0.000    0.000    0.000    0.000 
#
# Total GULP energy -496286.181102 kJ/mol
# GULP energy per Si atom -12407.154528 kJ/mol
# Density = 1.998859 g / cm^3
# Si number density = 20.034189 Si / 1000 Ang^3
#
#
#
# Elastic Constant Matrix: (Units=GPa)
#
#
# Indices 1 2 3 4 5 6 
#
# 1 102.7705 34.8646 46.7653 0.0000 0.0000 0.0000
# 2 34.8646 83.1878 29.7699 0.0000 0.0000 0.0000
# 3 46.7653 29.7699 102.8065 0.0000 0.0000 0.0000
# 4 0.0000 0.0000 0.0000 40.5711 0.0000 0.0000
# 5 0.0000 0.0000 0.0000 0.0000 30.5757 0.0000
# 6 0.0000 0.0000 0.0000 0.0000 0.0000 35.9136
#
#
#
# Elastic Compliance Matrix: (Units=1/GPa)
#
#
# Indices 1 2 3 4 5 6 
#
# 1 0.013263 -0.003792 -0.004935 0.000000 0.000000 0.000000
# 2 -0.003792 0.014495 -0.002472 0.000000 0.000000 0.000000
# 3 -0.004935 -0.002472 0.012688 0.000000 0.000000 0.000000
# 4 0.000000 0.000000 0.000000 0.024648 0.000000 0.000000
# 5 0.000000 0.000000 0.000000 0.000000 0.032706 0.000000
# 6 0.000000 0.000000 0.000000 0.000000 0.000000 0.027845
#
#
# Mechanical properties :
#
#
# Convention : Reuss Voigt Hill
#
# Bulk Modulus (GPa) = 55.41265 56.84049 56.12657
# Shear Modulus (GPa) = 32.45527 33.23642 32.84584
#
# Velocity S-wave (km/s) = 4.02928 4.07748 4.05345
# Velocity P-wave (km/s) = 7.02609 7.11345 7.06990
#
# Compressibility (1/GPa) = 0.01804642
#
# Stress axis : x y z
#
# Youngs Moduli (GPa) = 75.40033 68.98845 78.81668
#
# Poissons Ratio (x) = 0.26164 0.38894
# Poissons Ratio (y) = 0.28595 0.19486
# Poissons Ratio (z) = 0.37208 0.17056
#
# Static dielectric constant tensor:
#      x y z
#    x 3.646200 0.000000 0.000000 
#    y 0.000000 3.605870 0.000000 
#    z 0.000000 0.000000 3.891240 
# 
# 
# High freq. dielectric constant tensor:
#      x y z
#    x 1.783890 0.000000 0.000000 
#    y 0.000000 1.780520 0.000000 
#    z 0.000000 0.000000 1.797710 
# 
# From -- ./inp_files/66619.got.cif
#   From: 2010.03.12/outbox.cif.g09.slc.cpg/sg63_34_cif.got.tgz:66619.got - 2010.04.10 19:34:48.
