data_PCOD8260120
_publ_section_title
;
Structure prediction by ZEFSAII (Michael W. Deem and Ramdas Pophale) SiO2 
 PCOD8260120
Probable space group: C M C M
;
_chemical_formula_sum "Si O2"
_cell_formula_units_Z 96
_cell_length_a 25.312647
_cell_length_b 23.454368
_cell_length_c 8.780779
_cell_angle_alpha 90.000000
_cell_angle_beta 90.000000
_cell_angle_gamma 90.000000
_cell_volume 5213.079456
_symmetry_space_group_name_H-M "C M C M"
_symmetry_group_IT_number 63
_symmetry_cell_setting 'orthorhombic'
loop_
_space_group_symop_operation_xyz
x,y,z
-x,-y,1/2+z
x,-y,-z
-x,y,1/2-z
-x,-y,-z
x,y,1/2-z
-x,y,z
x,-y,1/2+z
1/2+x,1/2+y,z
1/2-x,1/2-y,1/2+z
1/2+x,1/2-y,-z
1/2-x,1/2+y,1/2-z
1/2-x,1/2-y,-z
1/2+x,1/2+y,1/2-z
1/2-x,1/2+y,z
1/2+x,1/2-y,1/2+z
loop_
_atom_site_type_symbol
_atom_site_label
_atom_site_fract_x
_atom_site_fract_y
_atom_site_fract_z
Si Si1 0.440594 0.559358 0.570903
Si Si2 0.659607 0.875805 0.426425
Si Si3 0.807598 0.750546 0.928333
Si Si4 0.745221 0.438303 0.929743
Si Si5 0.941591 0.441357 0.427987
Si Si6 0.845630 0.861827 0.430417
O O1 0.420879 0.500000 0.500000
O O2 0.439217 0.551113 0.750000
O O3 0.500000 0.574506 0.514508
O O4 0.401147 0.609649 0.520239
O O5 0.672816 0.888790 0.250000
O O6 0.665187 0.809481 0.463236
O O7 0.697343 0.914349 0.529541
O O8 0.599464 0.891535 0.469204
O O9 0.802577 0.763263 0.750000
O O10 0.750000 0.750000 0.000000
O O11 0.844768 0.797766 0.006035
O O12 0.738686 0.442332 0.750000
O O13 0.735993 0.500000 0.000000
O O14 0.702482 0.395585 0.996941
O O15 0.921271 0.500000 0.500000
O O16 0.943873 0.451638 0.250000
O O17 0.000000 0.424611 0.490300
O O18 0.838245 0.861140 0.250000
#
# Coordination Sequence:
#
# PCOD8260120 Si02
#       6
#    16  16  16  16  16  16
#     4   9  19  36  58  83 111 145 183 227 280 334
#     4  10  21  37  56  79 109 143 184 228 273 329
#     4  11  22  37  57  80 110 149 190 231 278 329
#     4  12  24  36  54  80 112 144 179 226 279 335
#     4   9  18  34  56  81 109 142 178 221 273 326
#     4  11  22  37  57  81 112 146 186 231 277 332
#
# _framework density 18.415219
#
# number of rings (size 3 to 8) (size 9 to 14) (size 15 to 20)
#    0.000    1.667    1.667    3.500    0.000    5.333 
#    0.000    0.833    0.000    1.000    0.000    0.000 
#    0.000    0.000    0.000    0.000    0.000    0.000 
#
# Total GULP energy -595321.678192 kJ/mol
# GULP energy per Si atom -12402.534962 kJ/mol
# Density = 1.837331 g / cm^3
# Si number density = 18.415219 Si / 1000 Ang^3
#
#
#
# Elastic Constant Matrix: (Units=GPa)
#
#
# Indices 1 2 3 4 5 6 
#
# 1 112.2891 56.2657 29.3291 0.0000 0.0000 0.0000
# 2 56.2657 108.4116 29.4769 0.0000 0.0000 0.0000
# 3 29.3291 29.4769 63.8780 0.0000 0.0000 0.0000
# 4 0.0000 0.0000 0.0000 33.5746 0.0000 0.0000
# 5 0.0000 0.0000 0.0000 0.0000 15.8818 0.0000
# 6 0.0000 0.0000 0.0000 0.0000 0.0000 33.6092
#
#
#
# Elastic Compliance Matrix: (Units=1/GPa)
#
#
# Indices 1 2 3 4 5 6 
#
# 1 0.012569 -0.005665 -0.003157 0.000000 0.000000 0.000000
# 2 -0.005665 0.013101 -0.003444 0.000000 0.000000 0.000000
# 3 -0.003157 -0.003444 0.018694 0.000000 0.000000 0.000000
# 4 0.000000 0.000000 0.000000 0.029784 0.000000 0.000000
# 5 0.000000 0.000000 0.000000 0.000000 0.062965 0.000000
# 6 0.000000 0.000000 0.000000 0.000000 0.000000 0.029754
#
#
# Mechanical properties :
#
#
# Convention : Reuss Voigt Hill
#
# Bulk Modulus (GPa) = 50.42599 57.19133 53.80866
# Shear Modulus (GPa) = 25.25145 27.91360 26.58252
#
# Velocity S-wave (km/s) = 3.70703 3.89754 3.80347
# Velocity P-wave (km/s) = 6.76498 7.16787 6.96934
#
# Compressibility (1/GPa) = 0.01983104
#
# Stress axis : x y z
#
# Youngs Moduli (GPa) = 79.56323 76.33188 53.49399
#
# Poissons Ratio (x) = 0.43241 0.16887
# Poissons Ratio (y) = 0.45071 0.18426
# Poissons Ratio (z) = 0.25116 0.26292
#
# Static dielectric constant tensor:
#      x y z
#    x 3.690930 0.000000 0.000000 
#    y 0.000000 -0.158390 0.000000 
#    z 0.000000 0.000000 3.454630 
# 
# 
# High freq. dielectric constant tensor:
#      x y z
#    x 1.716820 0.000000 0.000000 
#    y 0.000000 1.715270 0.000000 
#    z 0.000000 0.000000 1.718620 
# 
# From -- ./inp_files/10424.got.cif
#   From: 2010.03.12/outbox.cif.g09.slc.cpg/sg63_6_cif.got.tgz:10424.got - 2010.04.10 19:34:48.
