data_PCOD8260672
_publ_section_title
;
Structure prediction by ZEFSAII (Michael W. Deem and Ramdas Pophale) SiO2 
 PCOD8260672
Probable space group: C M C M
;
_chemical_formula_sum "Si O2"
_cell_formula_units_Z 80
_cell_length_a 8.608595
_cell_length_b 15.569823
_cell_length_c 28.937258
_cell_angle_alpha 90.000000
_cell_angle_beta 90.000000
_cell_angle_gamma 90.000000
_cell_volume 3878.585132
_symmetry_space_group_name_H-M "C M C M"
_symmetry_group_IT_number 63
_symmetry_cell_setting 'orthorhombic'
loop_
_space_group_symop_operation_xyz
x,y,z
-x,-y,1/2+z
x,-y,-z
-x,y,1/2-z
-x,-y,-z
x,y,1/2-z
-x,y,z
x,-y,1/2+z
1/2+x,1/2+y,z
1/2-x,1/2-y,1/2+z
1/2+x,1/2-y,-z
1/2-x,1/2+y,1/2-z
1/2-x,1/2-y,-z
1/2+x,1/2+y,1/2-z
1/2-x,1/2+y,z
1/2+x,1/2-y,1/2+z
loop_
_atom_site_type_symbol
_atom_site_label
_atom_site_fract_x
_atom_site_fract_y
_atom_site_fract_z
Si Si1 0.180308 0.970940 0.136154
Si Si2 0.321362 0.720860 0.641037
Si Si3 0.681627 0.722395 0.048619
Si Si4 0.183323 0.127008 0.198475
Si Si5 0.319572 0.959450 0.951277
O O1 0.202175 0.876847 0.158915
O O2 0.000000 0.987020 0.124120
O O3 0.245504 0.043431 0.171096
O O4 0.280423 0.973540 0.089141
O O5 0.500000 0.748922 0.642728
O O6 0.262793 0.722702 0.588473
O O7 0.226825 0.784850 0.673406
O O8 0.500000 0.741740 0.049476
O O9 0.713442 0.622858 0.058149
O O10 0.750000 0.750000 0.000000
O O11 0.255700 0.126315 0.250000
O O12 0.000000 0.121795 0.201402
O O13 0.500000 0.933332 0.950633
O O14 0.272652 0.000000 0.000000
#
# Coordination Sequence:
#
# PCOD8260672 Si02
#       5
#    16  16  16  16  16
#     4  10  22  40  63  91 125 167 209 257 315 377
#     4  11  23  40  64  95 128 164 213 264 317 375
#     4  12  24  39  60  88 126 169 213 258 314 375
#     4  10  22  42  66  92 125 168 214 262 320 378
#     4  11  23  38  59  90 126 164 208 258 313 373
#
# _framework density 20.626076999999999
#
# number of rings (size 3 to 8) (size 9 to 14) (size 15 to 20)
#    0.000    1.200    2.000    4.200    0.000    7.600 
#    0.000    2.000    0.000    0.000    0.000    0.000 
#    0.000    0.000    0.000    0.000    0.000    0.000 
#
# Total GULP energy -496189.329367 kJ/mol
# GULP energy per Si atom -12404.733234 kJ/mol
# Density = 2.057913 g / cm^3
# Si number density = 20.626077 Si / 1000 Ang^3
#
#
#
# Elastic Constant Matrix: (Units=GPa)
#
#
# Indices 1 2 3 4 5 6 
#
# 1 22.5948 10.1176 9.5850 0.0000 0.0000 0.0000
# 2 10.1176 124.8152 48.6576 0.0000 0.0000 0.0000
# 3 9.5850 48.6576 144.1409 0.0000 0.0000 0.0000
# 4 0.0000 0.0000 0.0000 28.0744 0.0000 0.0000
# 5 0.0000 0.0000 0.0000 0.0000 20.9865 0.0000
# 6 0.0000 0.0000 0.0000 0.0000 0.0000 33.9295
#
#
#
# Elastic Compliance Matrix: (Units=1/GPa)
#
#
# Indices 1 2 3 4 5 6 
#
# 1 0.046467 -0.002950 -0.002094 0.000000 0.000000 0.000000
# 2 -0.002950 0.009413 -0.002981 0.000000 0.000000 0.000000
# 3 -0.002094 -0.002981 0.008083 0.000000 0.000000 0.000000
# 4 0.000000 0.000000 0.000000 0.035620 0.000000 0.000000
# 5 0.000000 0.000000 0.000000 0.000000 0.047650 0.000000
# 6 0.000000 0.000000 0.000000 0.000000 0.000000 0.029473
#
#
# Mechanical properties :
#
#
# Convention : Reuss Voigt Hill
#
# Bulk Modulus (GPa) = 20.87146 47.58571 34.22858
# Shear Modulus (GPa) = 23.95457 31.47746 27.71601
#
# Velocity S-wave (km/s) = 3.41159 3.91077 3.66968
# Velocity P-wave (km/s) = 5.06552 6.59643 5.88100
#
# Compressibility (1/GPa) = 0.04791233
#
# Stress axis : x y z
#
# Youngs Moduli (GPa) = 21.52051 106.23290 123.71105
#
# Poissons Ratio (x) = 0.31342 0.25905
# Poissons Ratio (y) = 0.06349 0.36884
# Poissons Ratio (z) = 0.04506 0.31673
#
# Static dielectric constant tensor:
#      x y z
#    x 3.642660 0.000000 0.000000 
#    y 0.000000 3.847360 0.000000 
#    z 0.000000 0.000000 3.898930 
# 
# 
# High freq. dielectric constant tensor:
#      x y z
#    x 1.802780 0.000000 0.000000 
#    y 0.000000 1.819370 0.000000 
#    z 0.000000 0.000000 1.805320 
# 
# From -- ./inp_files/66569.got.cif
#   From: 2010.03.12/outbox.cif.g09.slc.cpg/sg63_34_cif.got.tgz:66569.got - 2010.04.10 19:34:48.
