data_PCOD8260429
_publ_section_title
;
Structure prediction by ZEFSAII (Michael W. Deem and Ramdas Pophale) SiO2 
 PCOD8260429
Probable space group: C M C M
;
_chemical_formula_sum "Si O2"
_cell_formula_units_Z 96
_cell_length_a 13.385062
_cell_length_b 19.546959
_cell_length_c 15.856022
_cell_angle_alpha 90.000000
_cell_angle_beta 90.000000
_cell_angle_gamma 90.000000
_cell_volume 4148.526121
_symmetry_space_group_name_H-M "C M C M"
_symmetry_group_IT_number 63
_symmetry_cell_setting 'orthorhombic'
loop_
_space_group_symop_operation_xyz
x,y,z
-x,-y,1/2+z
x,-y,-z
-x,y,1/2-z
-x,-y,-z
x,y,1/2-z
-x,y,z
x,-y,1/2+z
1/2+x,1/2+y,z
1/2-x,1/2-y,1/2+z
1/2+x,1/2-y,-z
1/2-x,1/2+y,1/2-z
1/2-x,1/2-y,-z
1/2+x,1/2+y,1/2-z
1/2-x,1/2+y,z
1/2+x,1/2-y,1/2+z
loop_
_atom_site_type_symbol
_atom_site_label
_atom_site_fract_x
_atom_site_fract_y
_atom_site_fract_z
Si Si1 0.384814 0.234857 0.415395
Si Si2 0.300142 0.635636 0.653519
Si Si3 0.883570 0.714588 0.600596
Si Si4 0.116190 0.870231 0.847524
Si Si5 0.389642 0.173284 0.250000
Si Si6 0.109935 0.514456 0.250000
Si Si7 0.746668 0.494986 0.595435
O O1 0.500000 0.216584 0.416399
O O2 0.367618 0.315364 0.404363
O O3 0.344540 0.207038 0.504180
O O4 0.331791 0.196841 0.335337
O O5 0.337048 0.637000 0.750000
O O6 0.183855 0.660988 0.652084
O O7 0.321421 0.561208 0.614146
O O8 0.861090 0.792739 0.625333
O O9 0.000000 0.696699 0.615010
O O10 0.145143 0.878298 0.750000
O O11 0.000000 0.887236 0.863791
O O12 0.184098 0.925102 0.896819
O O13 0.500000 0.208464 0.250000
O O14 0.402131 0.094263 0.250000
O O15 0.165669 0.494836 0.163930
O O16 0.000000 0.480013 0.250000
O O17 0.789878 0.500000 0.500000
#
# Coordination Sequence:
#
# PCOD8260429 Si02
#       7
#    16  16  16  16   8   8  16
#     4  10  21  39  63  95 130 161 207 264 320 384
#     4  12  24  39  61  96 131 167 209 264 332 383
#     4  10  23  40  65  98 128 166 215 265 322 383
#     4  10  21  42  69  97 131 175 222 267 322 392
#     4   9  20  37  62  89 115 163 212 255 314 375
#     4  11  26  47  67  91 129 175 227 271 321 391
#     4  12  27  45  67  96 133 176 224 270 329 396
#
# _framework density 23.140747999999999
#
# number of rings (size 3 to 8) (size 9 to 14) (size 15 to 20)
#    0.000    1.333    2.500    2.000    4.667    3.000 
#    0.000    0.000    0.000    0.000    0.000    0.000 
#    0.000    0.000    0.000    0.000    0.000    0.000 
#
# Total GULP energy -594950.491915 kJ/mol
# GULP energy per Si atom -12394.801915 kJ/mol
# Density = 2.308808 g / cm^3
# Si number density = 23.140748 Si / 1000 Ang^3
#
#
#
# Elastic Constant Matrix: (Units=GPa)
#
#
# Indices 1 2 3 4 5 6 
#
# 1 31.5541 -9.4032 33.2077 0.0000 0.0000 0.0000
# 2 -9.4032 73.6009 0.6454 0.0000 0.0000 0.0000
# 3 33.2077 0.6454 128.0588 0.0000 0.0000 0.0000
# 4 0.0000 0.0000 0.0000 29.5561 0.0000 0.0000
# 5 0.0000 0.0000 0.0000 0.0000 14.1356 0.0000
# 6 0.0000 0.0000 0.0000 0.0000 0.0000 27.8940
#
#
#
# Elastic Compliance Matrix: (Units=1/GPa)
#
#
# Indices 1 2 3 4 5 6 
#
# 1 0.046087 0.005993 -0.011981 0.000000 0.000000 0.000000
# 2 0.005993 0.014367 -0.001627 0.000000 0.000000 0.000000
# 3 -0.011981 -0.001627 0.010924 0.000000 0.000000 0.000000
# 4 0.000000 0.000000 0.000000 0.033834 0.000000 0.000000
# 5 0.000000 0.000000 0.000000 0.000000 0.070744 0.000000
# 6 0.000000 0.000000 0.000000 0.000000 0.000000 0.035850
#
#
# Mechanical properties :
#
#
# Convention : Reuss Voigt Hill
#
# Bulk Modulus (GPa) = 17.81000 31.34593 24.57797
# Shear Modulus (GPa) = 20.34585 28.23473 24.29029
#
# Velocity S-wave (km/s) = 2.96838 3.49683 3.24339
# Velocity P-wave (km/s) = 4.41152 5.46616 4.96691
#
# Compressibility (1/GPa) = 0.05614823
#
# Stress axis : x y z
#
# Youngs Moduli (GPa) = 21.69823 69.60521 91.54133
#
# Poissons Ratio (x) = -0.41715 1.09678
# Poissons Ratio (y) = -0.13004 0.14889
# Poissons Ratio (z) = 0.25997 0.11321
#
# Static dielectric constant tensor:
#      x y z
#    x 4.449810 0.000000 0.000000 
#    y 0.000000 4.082960 0.000000 
#    z 0.000000 0.000000 4.721790 
# 
# 
# High freq. dielectric constant tensor:
#      x y z
#    x 1.906160 0.000000 0.000000 
#    y 0.000000 1.911370 0.000000 
#    z 0.000000 0.000000 1.932400 
# 
# From -- ./inp_files/31969.got.cif
#   From: 2010.03.12/outbox.cif.g09.slc.cpg/sg63_16_cif.got.tgz:31969.got - 2010.04.10 19:34:48.
