data_PCOD8260391
_publ_section_title
;
Structure prediction by ZEFSAII (Michael W. Deem and Ramdas Pophale) SiO2 
 PCOD8260391
Probable space group: C M C M
;
_chemical_formula_sum "Si O2"
_cell_formula_units_Z 96
_cell_length_a 21.830693
_cell_length_b 25.654573
_cell_length_c 8.337919
_cell_angle_alpha 90.000000
_cell_angle_beta 90.000000
_cell_angle_gamma 90.000000
_cell_volume 4669.710795
_symmetry_space_group_name_H-M "C M C M"
_symmetry_group_IT_number 63
_symmetry_cell_setting 'orthorhombic'
loop_
_space_group_symop_operation_xyz
x,y,z
-x,-y,1/2+z
x,-y,-z
-x,y,1/2-z
-x,-y,-z
x,y,1/2-z
-x,y,z
x,-y,1/2+z
1/2+x,1/2+y,z
1/2-x,1/2-y,1/2+z
1/2+x,1/2-y,-z
1/2-x,1/2+y,1/2-z
1/2-x,1/2-y,-z
1/2+x,1/2+y,1/2-z
1/2-x,1/2+y,z
1/2+x,1/2-y,1/2+z
loop_
_atom_site_type_symbol
_atom_site_label
_atom_site_fract_x
_atom_site_fract_y
_atom_site_fract_z
Si Si1 0.704627 0.848107 0.562110
Si Si2 0.657740 0.646725 0.439960
Si Si3 0.381093 0.239134 0.562681
Si Si4 0.868128 0.554324 0.940930
Si Si5 0.500000 0.810211 0.931909
Si Si6 0.430566 0.443788 0.559770
Si Si7 0.000000 0.420679 0.433516
O O1 0.704732 0.835284 0.750000
O O2 0.772914 0.858985 0.496321
O O3 0.676181 0.798689 0.470800
O O4 0.666250 0.899476 0.528446
O O5 0.657112 0.642682 0.250000
O O6 0.633886 0.702814 0.496054
O O7 0.614360 0.600946 0.511265
O O8 0.397075 0.237234 0.750000
O O9 0.439911 0.223567 0.460912
O O10 0.863599 0.561385 0.750000
O O11 0.938018 0.555739 0.008558
O O12 0.838709 0.500000 0.000000
O O13 0.500000 0.830754 0.750000
O O14 0.500000 0.858584 0.051382
O O15 0.407041 0.500000 0.500000
O O16 0.428971 0.443063 0.750000
O O17 0.500000 0.433389 0.497914
O O18 0.000000 0.435988 0.250000
#
# Coordination Sequence:
#
# PCOD8260391 Si02
#       7
#    16  16  16  16   8  16   8
#     4  11  22  39  59  85 122 157 197 245 297 350
#     4   9  21  38  61  89 116 155 199 241 287 353
#     4  11  22  39  62  87 118 157 201 241 292 353
#     4  11  23  39  60  86 116 156 204 249 300 352
#     4  12  24  37  59  90 122 156 193 245 303 347
#     4   9  18  36  61  86 114 148 189 236 292 349
#     4  10  21  39  61  84 116 154 198 245 294 353
#
# _framework density 20.558019000000002
#
# number of rings (size 3 to 8) (size 9 to 14) (size 15 to 20)
#    0.000    1.667    1.667    3.000    1.167    1.333 
#    0.000    7.500    0.000    0.000    0.000    0.000 
#    0.000    0.000    0.000    0.000    0.000    0.000 
#
# Total GULP energy -595253.305118 kJ/mol
# GULP energy per Si atom -12401.110523 kJ/mol
# Density = 2.051123 g / cm^3
# Si number density = 20.558019 Si / 1000 Ang^3
#
#
#
# Elastic Constant Matrix: (Units=GPa)
#
#
# Indices 1 2 3 4 5 6 
#
# 1 126.5279 64.2101 9.0298 0.0000 0.0000 0.0000
# 2 64.2101 165.2963 3.1560 0.0000 0.0000 0.0000
# 3 9.0298 3.1560 31.0998 0.0000 0.0000 0.0000
# 4 0.0000 0.0000 0.0000 29.8168 0.0000 0.0000
# 5 0.0000 0.0000 0.0000 0.0000 15.0408 0.0000
# 6 0.0000 0.0000 0.0000 0.0000 0.0000 -5.8766
#
#
#
# Elastic Compliance Matrix: (Units=1/GPa)
#
#
# Indices 1 2 3 4 5 6 
#
# 1 0.010038 -0.003851 -0.002524 0.000000 0.000000 0.000000
# 2 -0.003851 0.007539 0.000353 0.000000 0.000000 0.000000
# 3 -0.002524 0.000353 0.032851 0.000000 0.000000 0.000000
# 4 0.000000 0.000000 0.000000 0.033538 0.000000 0.000000
# 5 0.000000 0.000000 0.000000 0.000000 0.066486 0.000000
# 6 0.000000 0.000000 0.000000 0.000000 0.000000 -0.170166
#
#
# Mechanical properties :
#
#
# Convention : Reuss Voigt Hill
#
# Bulk Modulus (GPa) = 26.05185 52.85730 39.45457
# Shear Modulus (GPa) = 975.73214 24.23140 499.98177
#
# Velocity S-wave (km/s) = 21.80949 3.43692 15.61196
# Velocity P-wave (km/s) = 25.43433 6.44337 18.55293
#
# Compressibility (1/GPa) = 0.03838499
#
# Stress axis : x y z
#
# Youngs Moduli (GPa) = 99.62327 132.64438 30.44007
#
# Poissons Ratio (x) = 0.51082 0.07682
# Poissons Ratio (y) = 0.38365 -0.01075
# Poissons Ratio (z) = 0.25141 -0.04684
#
# Static dielectric constant tensor:
#      x y z
#    x 4.029610 0.000000 0.000000 
#    y 0.000000 3.850290 0.000000 
#    z 0.000000 0.000000 3.446320 
# 
# 
# High freq. dielectric constant tensor:
#      x y z
#    x 1.810240 0.000000 0.000000 
#    y 0.000000 1.814790 0.000000 
#    z 0.000000 0.000000 1.784860 
# 
# From -- ./inp_files/10555.got.cif
#   From: 2010.03.12/outbox.cif.g09.slc.cpg/sg63_6_cif.got.tgz:10555.got - 2010.04.10 19:34:48.
