data_PCOD8260535
_publ_section_title
;
Structure prediction by ZEFSAII (Michael W. Deem and Ramdas Pophale) SiO2 
 PCOD8260535
Probable space group: C M C M
;
_chemical_formula_sum "Si O2"
_cell_formula_units_Z 72
_cell_length_a 20.308222
_cell_length_b 9.274643
_cell_length_c 21.186180
_cell_angle_alpha 90.000000
_cell_angle_beta 90.000000
_cell_angle_gamma 90.000000
_cell_volume 3990.448973
_symmetry_space_group_name_H-M "C M C M"
_symmetry_group_IT_number 63
_symmetry_cell_setting 'orthorhombic'
loop_
_space_group_symop_operation_xyz
x,y,z
-x,-y,1/2+z
x,-y,-z
-x,y,1/2-z
-x,-y,-z
x,y,1/2-z
-x,y,z
x,-y,1/2+z
1/2+x,1/2+y,z
1/2-x,1/2-y,1/2+z
1/2+x,1/2-y,-z
1/2-x,1/2+y,1/2-z
1/2-x,1/2-y,-z
1/2+x,1/2+y,1/2-z
1/2-x,1/2+y,z
1/2+x,1/2-y,1/2+z
loop_
_atom_site_type_symbol
_atom_site_label
_atom_site_fract_x
_atom_site_fract_y
_atom_site_fract_z
Si Si1 0.195323 0.617317 0.677057
Si Si2 0.925879 0.426560 0.677496
Si Si3 0.865751 0.000000 0.000000
Si Si4 0.575269 0.628937 0.614831
Si Si5 0.688827 0.566313 0.125452
O O1 0.213712 0.596023 0.750000
O O2 0.122542 0.558049 0.661618
O O3 0.247437 0.531765 0.635386
O O4 0.197487 0.784841 0.661076
O O5 0.918799 0.377050 0.750000
O O6 0.906849 0.291096 0.634252
O O7 0.000000 0.479889 0.663041
O O8 0.911566 0.887736 0.039356
O O9 0.820067 0.088537 0.049688
O O10 0.500000 0.591754 0.632221
O O11 0.623775 0.517947 0.651794
#
# Coordination Sequence:
#
# PCOD8260535 Si02
#       5
#    16  16   8  16  16
#     4  11  22  38  57  83 116 144 187 236 282 335
#     4   9  19  36  58  83 112 147 185 231 285 338
#     4   8  21  38  56  84 113 146 190 230 271 336
#     4   9  18  37  60  82 112 148 185 227 278 331
#     4  10  22  36  57  83 108 155 180 230 281 326
#
# _framework density 18.043082999999999
#
# number of rings (size 3 to 8) (size 9 to 14) (size 15 to 20)
#    1.333    1.111    0.000    2.333    0.000    5.333 
#    0.000    0.000    0.000    2.667    0.000    0.000 
#    0.000    0.000    0.000    0.000    0.000    0.000 
#
# Total GULP energy -446154.745041 kJ/mol
# GULP energy per Si atom -12393.187362 kJ/mol
# Density = 1.800202 g / cm^3
# Si number density = 18.043083 Si / 1000 Ang^3
#
#
#
# Elastic Constant Matrix: (Units=GPa)
#
#
# Indices 1 2 3 4 5 6 
#
# 1 113.3897 53.4002 20.3476 0.0000 0.0000 0.0000
# 2 53.4002 88.0854 7.0156 0.0000 0.0000 0.0000
# 3 20.3476 7.0156 36.8828 0.0000 0.0000 0.0000
# 4 0.0000 0.0000 0.0000 20.6240 0.0000 0.0000
# 5 0.0000 0.0000 0.0000 0.0000 31.9552 0.0000
# 6 0.0000 0.0000 0.0000 0.0000 0.0000 32.5548
#
#
#
# Elastic Compliance Matrix: (Units=1/GPa)
#
#
# Indices 1 2 3 4 5 6 
#
# 1 0.013534 -0.007727 -0.005997 0.000000 0.000000 0.000000
# 2 -0.007727 0.015939 0.001231 0.000000 0.000000 0.000000
# 3 -0.005997 0.001231 0.030187 0.000000 0.000000 0.000000
# 4 0.000000 0.000000 0.000000 0.048487 0.000000 0.000000
# 5 0.000000 0.000000 0.000000 0.000000 0.031294 0.000000
# 6 0.000000 0.000000 0.000000 0.000000 0.000000 0.030717
#
#
# Mechanical properties :
#
#
# Convention : Reuss Voigt Hill
#
# Bulk Modulus (GPa) = 28.83951 44.43164 36.63557
# Shear Modulus (GPa) = 24.18925 27.53311 25.86118
#
# Velocity S-wave (km/s) = 3.66545 3.91060 3.79000
# Velocity P-wave (km/s) = 5.82515 6.71335 6.28496
#
# Compressibility (1/GPa) = 0.03467465
#
# Stress axis : x y z
#
# Youngs Moduli (GPa) = 73.88553 62.73862 33.12671
#
# Poissons Ratio (x) = 0.48481 0.19866
# Poissons Ratio (y) = 0.57094 -0.04079
# Poissons Ratio (z) = 0.44308 -0.07725
#
# Static dielectric constant tensor:
#      x y z
#    x 3.445540 0.000000 0.000000 
#    y 0.000000 3.094620 0.000000 
#    z 0.000000 0.000000 3.214220 
# 
# 
# High freq. dielectric constant tensor:
#      x y z
#    x 1.710890 0.000000 0.000000 
#    y 0.000000 1.685710 0.000000 
#    z 0.000000 0.000000 1.686150 
# 
# From -- ./inp_files/63491.got.cif
#   From: 2010.03.12/outbox.cif.g09.slc.cpg/sg63_32_cif.got.tgz:63491.got - 2010.04.10 19:34:48.
