data_PCOD8260970
_publ_section_title
;
Structure prediction by ZEFSAII (Michael W. Deem and Ramdas Pophale) SiO2 
 PCOD8260970
Probable space group: C M C M
;
_chemical_formula_sum "Si O2"
_cell_formula_units_Z 40
_cell_length_a 13.936266
_cell_length_b 5.394876
_cell_length_c 20.118913
_cell_angle_alpha 90.000000
_cell_angle_beta 90.000000
_cell_angle_gamma 90.000000
_cell_volume 1512.628945
_symmetry_space_group_name_H-M "C M C M"
_symmetry_group_IT_number 63
_symmetry_cell_setting 'orthorhombic'
loop_
_space_group_symop_operation_xyz
x,y,z
-x,-y,1/2+z
x,-y,-z
-x,y,1/2-z
-x,-y,-z
x,y,1/2-z
-x,y,z
x,-y,1/2+z
1/2+x,1/2+y,z
1/2-x,1/2-y,1/2+z
1/2+x,1/2-y,-z
1/2-x,1/2+y,1/2-z
1/2-x,1/2-y,-z
1/2+x,1/2+y,1/2-z
1/2-x,1/2+y,z
1/2+x,1/2-y,1/2+z
loop_
_atom_site_type_symbol
_atom_site_label
_atom_site_fract_x
_atom_site_fract_y
_atom_site_fract_z
Si Si1 0.702544 0.833532 0.134665
Si Si2 0.000000 0.803854 0.058502
Si Si3 0.500000 0.674928 0.173501
Si Si4 0.335918 0.000000 0.000000
O O1 0.748247 0.581070 0.164435
O O2 0.591437 0.841864 0.154847
O O3 0.720953 0.822984 0.053082
O O4 0.903021 0.647291 0.052136
O O5 0.000000 0.924593 0.130857
O O6 0.000000 0.000000 0.000000
O O7 0.500000 0.596865 0.250000
#
# Coordination Sequence:
#
# PCOD8260970 Si02
#       4
#    16   8   8   8
#     4  12  27  47  78 116 152 201 259 321 389 470
#     4  11  20  43  78 113 155 203 269 319 392 479
#     4  12  28  52  77 110 159 214 259 323 398 472
#     4  11  22  42  76 119 160 196 260 337 406 453
#
# _framework density 26.444026999999998
#
# number of rings (size 3 to 8) (size 9 to 14) (size 15 to 20)
#    0.000    0.400    4.000    4.800    0.000    3.200 
#    0.000   14.000    0.000    0.000    0.000    0.000 
#    0.000    0.000    0.000    0.000    0.000    0.000 
#
# Total GULP energy -248089.763364 kJ/mol
# GULP energy per Si atom -12404.488168 kJ/mol
# Density = 2.638384 g / cm^3
# Si number density = 26.444027 Si / 1000 Ang^3
#
#
#
# Elastic Constant Matrix: (Units=GPa)
#
#
# Indices 1 2 3 4 5 6 
#
# 1 166.6504 63.9059 13.3450 0.0000 0.0000 0.0000
# 2 63.9059 177.7197 38.5902 0.0000 0.0000 0.0000
# 3 13.3450 38.5902 156.8894 0.0000 0.0000 0.0000
# 4 0.0000 0.0000 0.0000 27.9095 0.0000 0.0000
# 5 0.0000 0.0000 0.0000 0.0000 10.4897 0.0000
# 6 0.0000 0.0000 0.0000 0.0000 0.0000 0.9992
#
#
#
# Elastic Compliance Matrix: (Units=1/GPa)
#
#
# Indices 1 2 3 4 5 6 
#
# 1 0.006960 -0.002508 0.000025 0.000000 0.000000 0.000000
# 2 -0.002508 0.006848 -0.001471 0.000000 0.000000 0.000000
# 3 0.000025 -0.001471 0.006734 0.000000 0.000000 0.000000
# 4 0.000000 0.000000 0.000000 0.035830 0.000000 0.000000
# 5 0.000000 0.000000 0.000000 0.000000 0.095332 0.000000
# 6 0.000000 0.000000 0.000000 0.000000 0.000000 1.000817
#
#
# Mechanical properties :
#
#
# Convention : Reuss Voigt Hill
#
# Bulk Modulus (GPa) = 79.15565 81.43795 80.29680
# Shear Modulus (GPa) = 4.29317 33.57424 18.93370
#
# Velocity S-wave (km/s) = 1.27555 3.56706 2.67870
# Velocity P-wave (km/s) = 5.67165 6.91581 6.32440
#
# Compressibility (1/GPa) = 0.01263334
#
# Stress axis : x y z
#
# Youngs Moduli (GPa) = 143.66869 146.02314 148.50791
#
# Poissons Ratio (x) = 0.36627 -0.00370
# Poissons Ratio (y) = 0.36036 0.21847
# Poissons Ratio (z) = -0.00358 0.21482
#
# Static dielectric constant tensor:
#      x y z
#    x 5.067540 0.000000 0.000000 
#    y 0.000000 5.391260 0.000000 
#    z 0.000000 0.000000 4.923970 
# 
# 
# High freq. dielectric constant tensor:
#      x y z
#    x 2.084190 0.000000 0.000000 
#    y 0.000000 2.075210 0.000000 
#    z 0.000000 0.000000 2.033750 
# 
# From -- ./inp_files/54883.got.cif
#   From: 2010.03.12/outbox.cif.g09.slc.cpg/sg63_28_cif.got.tgz:54883.got - 2010.04.10 19:34:48.
