data_PCOD8260247
_publ_section_title
;
Structure prediction by ZEFSAII (Michael W. Deem and Ramdas Pophale) SiO2 
 PCOD8260247
Probable space group: C M C M
;
_chemical_formula_sum "Si O2"
_cell_formula_units_Z 120
_cell_length_a 27.657138
_cell_length_b 16.825233
_cell_length_c 13.830059
_cell_angle_alpha 90.000000
_cell_angle_beta 90.000000
_cell_angle_gamma 90.000000
_cell_volume 6435.649104
_symmetry_space_group_name_H-M "C M C M"
_symmetry_group_IT_number 63
_symmetry_cell_setting 'orthorhombic'
loop_
_space_group_symop_operation_xyz
x,y,z
-x,-y,1/2+z
x,-y,-z
-x,y,1/2-z
-x,-y,-z
x,y,1/2-z
-x,y,z
x,-y,1/2+z
1/2+x,1/2+y,z
1/2-x,1/2-y,1/2+z
1/2+x,1/2-y,-z
1/2-x,1/2+y,1/2-z
1/2-x,1/2-y,-z
1/2+x,1/2+y,1/2-z
1/2-x,1/2+y,z
1/2+x,1/2-y,1/2+z
loop_
_atom_site_type_symbol
_atom_site_label
_atom_site_fract_x
_atom_site_fract_y
_atom_site_fract_z
Si Si1 0.824368 0.134345 0.364148
Si Si2 0.359945 0.935667 0.077581
Si Si3 0.138365 0.735456 0.496456
Si Si4 0.270296 0.226896 0.141957
Si Si5 0.948561 0.466102 0.860454
Si Si6 0.944211 0.288967 0.636821
Si Si7 0.740008 0.901203 0.145439
Si Si8 0.801992 0.000000 0.500000
O O1 0.838948 0.127258 0.250000
O O2 0.856746 0.201105 0.416895
O O3 0.767187 0.154558 0.373519
O O4 0.833347 0.051610 0.422885
O O5 0.315291 0.930308 0.150904
O O6 0.408846 0.967202 0.125026
O O7 0.373458 0.849739 0.039315
O O8 0.342699 0.000000 0.000000
O O9 0.187232 0.725754 0.434975
O O10 0.093683 0.762867 0.426951
O O11 0.292625 0.221716 0.250000
O O12 0.239097 0.306780 0.128372
O O13 0.957733 0.450831 0.750000
O O14 0.933661 0.379317 0.899518
O O15 0.000000 0.493769 0.906908
O O16 0.932633 0.275882 0.750000
O O17 0.000000 0.265089 0.615176
O O18 0.763394 0.922231 0.250000
O O19 0.769838 0.939197 0.059915
#
# Coordination Sequence:
#
# PCOD8260247 Si02
#       8
#    16  16  16  16  16  16  16   8
#     4  11  24  39  57  82 116 154 191 242 295 346
#     4  12  22  31  49  78 112 153 202 240 276 333
#     4  12  21  36  58  79 111 155 196 239 292 349
#     4  10  21  38  56  79 112 150 191 237 293 347
#     4   9  19  35  51  72 109 153 197 242 282 326
#     4   9  19  36  57  84 117 151 192 242 287 332
#     4  11  22  36  55  78 110 150 192 239 285 337
#     4  12  22  40  56  78 114 148 194 238 284 354
#
# _framework density 18.646137
#
# number of rings (size 3 to 8) (size 9 to 14) (size 15 to 20)
#    0.000    1.333    4.667    3.200    0.000    1.333 
#    0.000    0.000    0.000    0.400    0.000    0.467 
#    0.000    0.000    0.000    0.000    0.000    0.000 
#
# Total GULP energy -743503.604604 kJ/mol
# GULP energy per Si atom -12391.726743 kJ/mol
# Density = 1.860370 g / cm^3
# Si number density = 18.646137 Si / 1000 Ang^3
#
#
#
# Elastic Constant Matrix: (Units=GPa)
#
#
# Indices 1 2 3 4 5 6 
#
# 1 77.3155 17.2271 31.6710 0.0000 0.0000 0.0000
# 2 17.2271 68.9658 43.0006 0.0000 0.0000 0.0000
# 3 31.6710 43.0006 110.8068 0.0000 0.0000 0.0000
# 4 0.0000 0.0000 0.0000 31.8653 0.0000 0.0000
# 5 0.0000 0.0000 0.0000 0.0000 44.5105 0.0000
# 6 0.0000 0.0000 0.0000 0.0000 0.0000 36.4640
#
#
#
# Elastic Compliance Matrix: (Units=1/GPa)
#
#
# Indices 1 2 3 4 5 6 
#
# 1 0.014750 -0.001393 -0.003675 0.000000 0.000000 0.000000
# 2 -0.001393 0.019260 -0.007076 0.000000 0.000000 0.000000
# 3 -0.003675 -0.007076 0.012821 0.000000 0.000000 0.000000
# 4 0.000000 0.000000 0.000000 0.031382 0.000000 0.000000
# 5 0.000000 0.000000 0.000000 0.000000 0.022467 0.000000
# 6 0.000000 0.000000 0.000000 0.000000 0.000000 0.027424
#
#
# Mechanical properties :
#
#
# Convention : Reuss Voigt Hill
#
# Bulk Modulus (GPa) = 44.36058 48.98727 46.67392
# Shear Modulus (GPa) = 31.26829 33.58059 32.42444
#
# Velocity S-wave (km/s) = 4.09948 4.24835 4.17458
# Velocity P-wave (km/s) = 6.80074 7.09886 6.95140
#
# Compressibility (1/GPa) = 0.02254254
#
# Stress axis : x y z
#
# Youngs Moduli (GPa) = 67.79713 51.92160 77.99591
#
# Poissons Ratio (x) = 0.07232 0.28666
# Poissons Ratio (y) = 0.09443 0.55190
# Poissons Ratio (z) = 0.24918 0.36740
#
# Static dielectric constant tensor:
#      x y z
#    x 3.265680 0.000000 0.000000 
#    y 0.000000 3.341140 0.000000 
#    z 0.000000 0.000000 3.691090 
# 
# 
# High freq. dielectric constant tensor:
#      x y z
#    x 1.696680 0.000000 0.000000 
#    y 0.000000 1.702910 0.000000 
#    z 0.000000 0.000000 1.743880 
# 
# From -- ./inp_files/38769.got.cif
#   From: 2010.03.12/outbox.cif.g09.slc.cpg/sg63_20_cif.got.tgz:38769.got - 2010.04.10 19:34:48.
