data_PCOD8260566
_publ_section_title
;
Structure prediction by ZEFSAII (Michael W. Deem and Ramdas Pophale) SiO2 
 PCOD8260566
Probable space group: C M C M
;
_chemical_formula_sum "Si O2"
_cell_formula_units_Z 112
_cell_length_a 14.839458
_cell_length_b 25.017366
_cell_length_c 14.542680
_cell_angle_alpha 90.000000
_cell_angle_beta 90.000000
_cell_angle_gamma 90.000000
_cell_volume 5398.884905
_symmetry_space_group_name_H-M "C M C M"
_symmetry_group_IT_number 63
_symmetry_cell_setting 'orthorhombic'
loop_
_space_group_symop_operation_xyz
x,y,z
-x,-y,1/2+z
x,-y,-z
-x,y,1/2-z
-x,-y,-z
x,y,1/2-z
-x,y,z
x,-y,1/2+z
1/2+x,1/2+y,z
1/2-x,1/2-y,1/2+z
1/2+x,1/2-y,-z
1/2-x,1/2+y,1/2-z
1/2-x,1/2-y,-z
1/2+x,1/2+y,1/2-z
1/2-x,1/2+y,z
1/2+x,1/2-y,1/2+z
loop_
_atom_site_type_symbol
_atom_site_label
_atom_site_fract_x
_atom_site_fract_y
_atom_site_fract_z
Si Si1 0.104119 0.879087 0.858219
Si Si2 0.737844 0.468619 0.856492
Si Si3 0.256337 0.913628 0.143468
Si Si4 0.605657 0.276465 0.533792
Si Si5 0.396824 0.331032 0.147798
Si Si6 0.895334 0.341101 0.461273
Si Si7 0.601370 0.106783 0.147915
O O1 0.118133 0.872029 0.750000
O O2 0.161056 0.929215 0.897949
O O3 0.143929 0.825057 0.904665
O O4 0.000000 0.888545 0.884454
O O5 0.714219 0.476052 0.750000
O O6 0.739956 0.527706 0.901546
O O7 0.835514 0.443458 0.872867
O O8 0.284385 0.917738 0.250000
O O9 0.162874 0.883056 0.130084
O O10 0.338504 0.884962 0.092465
O O11 0.500000 0.273677 0.549994
O O12 0.628675 0.286053 0.426491
O O13 0.643977 0.218185 0.562328
O O14 0.380195 0.307341 0.250000
O O15 0.500000 0.349712 0.135096
O O16 0.884187 0.347751 0.571367
O O17 0.000000 0.347204 0.432461
O O18 0.622376 0.130764 0.250000
O O19 0.500000 0.084358 0.143518
#
# Coordination Sequence:
#
# PCOD8260566 Si02
#       7
#    16  16  16  16  16  16  16
#     4   9  18  34  57  85 115 148 186 228 280 340
#     4   9  19  36  56  80 111 147 188 235 281 328
#     4  10  22  38  56  83 116 149 189 233 283 345
#     4   9  19  36  57  82 113 147 187 233 279 333
#     4   9  19  37  58  80 111 151 191 232 280 332
#     4  10  22  38  58  85 115 150 189 233 287 341
#     4   9  19  37  58  80 108 144 190 239 283 330
#
# _framework density 20.745024999999998
#
# number of rings (size 3 to 8) (size 9 to 14) (size 15 to 20)
#    0.000    2.714    0.000    0.000    2.000    3.714 
#    0.000   10.000    0.000    2.571    0.000    0.000 
#    0.000    0.000    0.000    0.000    0.000    0.000 
#
# Total GULP energy -694149.043158 kJ/mol
# GULP energy per Si atom -12395.518628 kJ/mol
# Density = 2.069781 g / cm^3
# Si number density = 20.745025 Si / 1000 Ang^3
#
#
#
# Elastic Constant Matrix: (Units=GPa)
#
#
# Indices 1 2 3 4 5 6 
#
# 1 85.8675 55.4300 31.7410 0.0000 0.0000 0.0000
# 2 55.4300 170.9327 46.8412 0.0000 0.0000 0.0000
# 3 31.7410 46.8412 64.3513 0.0000 0.0000 0.0000
# 4 0.0000 0.0000 0.0000 29.4960 0.0000 0.0000
# 5 0.0000 0.0000 0.0000 0.0000 21.8390 0.0000
# 6 0.0000 0.0000 0.0000 0.0000 0.0000 31.7395
#
#
#
# Elastic Compliance Matrix: (Units=1/GPa)
#
#
# Indices 1 2 3 4 5 6 
#
# 1 0.015981 -0.003775 -0.005134 0.000000 0.000000 0.000000
# 2 -0.003775 0.008200 -0.004106 0.000000 0.000000 0.000000
# 3 -0.005134 -0.004106 0.021061 0.000000 0.000000 0.000000
# 4 0.000000 0.000000 0.000000 0.033903 0.000000 0.000000
# 5 0.000000 0.000000 0.000000 0.000000 0.045790 0.000000
# 6 0.000000 0.000000 0.000000 0.000000 0.000000 0.031507
#
#
# Mechanical properties :
#
#
# Convention : Reuss Voigt Hill
#
# Bulk Modulus (GPa) = 52.05738 65.46397 58.76067
# Shear Modulus (GPa) = 26.47230 29.09086 27.78158
#
# Velocity S-wave (km/s) = 3.57610 3.74880 3.66347
# Velocity P-wave (km/s) = 6.49613 7.09669 6.80304
#
# Compressibility (1/GPa) = 0.01920957
#
# Stress axis : x y z
#
# Youngs Moduli (GPa) = 62.57488 121.95413 47.48024
#
# Poissons Ratio (x) = 0.46041 0.24379
# Poissons Ratio (y) = 0.23624 0.19498
# Poissons Ratio (z) = 0.32129 0.50080
#
# Static dielectric constant tensor:
#      x y z
#    x 3.738900 0.000000 0.000000 
#    y 0.000000 3.856500 0.000000 
#    z 0.000000 0.000000 3.845720 
# 
# 
# High freq. dielectric constant tensor:
#      x y z
#    x 1.810100 0.000000 0.000000 
#    y 0.000000 1.801890 0.000000 
#    z 0.000000 0.000000 1.810420 
# 
# From -- ./inp_files/32312.got.cif
#   From: 2010.03.12/outbox.cif.g09.slc.cpg/sg63_17_cif.got.tgz:32312.got - 2010.04.10 19:34:48.
