data_PCOD8260794
_publ_section_title
;
Structure prediction by ZEFSAII (Michael W. Deem and Ramdas Pophale) SiO2 
 PCOD8260794
Probable space group: C M C M
;
_chemical_formula_sum "Si O2"
_cell_formula_units_Z 48
_cell_length_a 13.612874
_cell_length_b 8.296008
_cell_length_c 17.727384
_cell_angle_alpha 90.000000
_cell_angle_beta 90.000000
_cell_angle_gamma 90.000000
_cell_volume 2001.997999
_symmetry_space_group_name_H-M "C M C M"
_symmetry_group_IT_number 63
_symmetry_cell_setting 'orthorhombic'
loop_
_space_group_symop_operation_xyz
x,y,z
-x,-y,1/2+z
x,-y,-z
-x,y,1/2-z
-x,-y,-z
x,y,1/2-z
-x,y,z
x,-y,1/2+z
1/2+x,1/2+y,z
1/2-x,1/2-y,1/2+z
1/2+x,1/2-y,-z
1/2-x,1/2+y,1/2-z
1/2-x,1/2-y,-z
1/2+x,1/2+y,1/2-z
1/2-x,1/2+y,z
1/2+x,1/2-y,1/2+z
loop_
_atom_site_type_symbol
_atom_site_label
_atom_site_fract_x
_atom_site_fract_y
_atom_site_fract_z
Si Si1 0.789165 0.647928 0.335971
Si Si2 0.388631 0.661028 0.963214
Si Si3 0.387333 0.184004 0.616105
O O1 0.817509 0.686190 0.250000
O O2 0.831150 0.789866 0.388625
O O3 0.670592 0.663063 0.346857
O O4 0.834061 0.478069 0.358266
O O5 0.500000 0.623686 0.939261
O O6 0.341187 0.500000 0.000000
O O7 0.383097 0.803697 0.025184
O O8 0.500000 0.186082 0.644507
#
# Coordination Sequence:
#
# PCOD8260794 Si02
#       3
#    16  16  16
#     4  12  25  42  69 103 139 180 227 286 351 407
#     4  10  22  43  72 102 136 184 235 283 340 409
#     4  11  25  46  71 100 138 183 232 282 337 411
#
# _framework density 23.976047000000001
#
# number of rings (size 3 to 8) (size 9 to 14) (size 15 to 20)
#    0.000    1.000    0.000    6.000    0.000    7.333 
#    0.000    3.333    0.000   20.000    0.000    0.000 
#    0.000    0.000    0.000    0.000    0.000    0.000 
#
# Total GULP energy -297558.362465 kJ/mol
# GULP energy per Si atom -12398.265103 kJ/mol
# Density = 2.392148 g / cm^3
# Si number density = 23.976047 Si / 1000 Ang^3
#
#
#
# Elastic Constant Matrix: (Units=GPa)
#
#
# Indices 1 2 3 4 5 6 
#
# 1 179.8507 88.9260 63.9846 0.0000 0.0000 0.0000
# 2 88.9260 108.4138 52.9326 0.0000 0.0000 0.0000
# 3 63.9846 52.9326 156.2101 0.0000 0.0000 0.0000
# 4 0.0000 0.0000 0.0000 18.4727 0.0000 0.0000
# 5 0.0000 0.0000 0.0000 0.0000 13.4622 0.0000
# 6 0.0000 0.0000 0.0000 0.0000 0.0000 41.8217
#
#
#
# Elastic Compliance Matrix: (Units=1/GPa)
#
#
# Indices 1 2 3 4 5 6 
#
# 1 0.009646 -0.007169 -0.001522 0.000000 0.000000 0.000000
# 2 -0.007169 0.016381 -0.002614 0.000000 0.000000 0.000000
# 3 -0.001522 -0.002614 0.007911 0.000000 0.000000 0.000000
# 4 0.000000 0.000000 0.000000 0.054134 0.000000 0.000000
# 5 0.000000 0.000000 0.000000 0.000000 0.074282 0.000000
# 6 0.000000 0.000000 0.000000 0.000000 0.000000 0.023911
#
#
# Mechanical properties :
#
#
# Convention : Reuss Voigt Hill
#
# Bulk Modulus (GPa) = 88.28152 95.12899 91.70526
# Shear Modulus (GPa) = 23.51259 30.66008 27.08633
#
# Velocity S-wave (km/s) = 3.13496 3.57988 3.36478
# Velocity P-wave (km/s) = 7.07140 7.53991 7.30941
#
# Compressibility (1/GPa) = 0.01132740
#
# Stress axis : x y z
#
# Youngs Moduli (GPa) = 103.66482 61.04643 126.40934
#
# Poissons Ratio (x) = 0.43767 0.19238
# Poissons Ratio (y) = 0.74322 0.33045
# Poissons Ratio (z) = 0.15776 0.15958
#
# Static dielectric constant tensor:
#      x y z
#    x 4.713980 0.000000 0.000000 
#    y 0.000000 4.235430 0.000000 
#    z 0.000000 0.000000 4.363430 
# 
# 
# High freq. dielectric constant tensor:
#      x y z
#    x 1.963780 0.000000 0.000000 
#    y 0.000000 1.952210 0.000000 
#    z 0.000000 0.000000 1.943190 
# 
# From -- ./inp_files/43137.got.cif
#   From: 2010.03.12/outbox.cif.g09.slc.cpg/sg63_22_cif.got.tgz:43137.got - 2010.04.10 19:34:48.
