data_PCOD8260245
_publ_section_title
;
Structure prediction by ZEFSAII (Michael W. Deem and Ramdas Pophale) SiO2 
 PCOD8260245
Probable space group: C M C M
;
_chemical_formula_sum "Si O2"
_cell_formula_units_Z 128
_cell_length_a 23.193762
_cell_length_b 13.228892
_cell_length_c 22.398127
_cell_angle_alpha 90.000000
_cell_angle_beta 90.000000
_cell_angle_gamma 90.000000
_cell_volume 6872.367417
_symmetry_space_group_name_H-M "C M C M"
_symmetry_group_IT_number 63
_symmetry_cell_setting 'orthorhombic'
loop_
_space_group_symop_operation_xyz
x,y,z
-x,-y,1/2+z
x,-y,-z
-x,y,1/2-z
-x,-y,-z
x,y,1/2-z
-x,y,z
x,-y,1/2+z
1/2+x,1/2+y,z
1/2-x,1/2-y,1/2+z
1/2+x,1/2-y,-z
1/2-x,1/2+y,1/2-z
1/2-x,1/2-y,-z
1/2+x,1/2+y,1/2-z
1/2-x,1/2+y,z
1/2+x,1/2-y,1/2+z
loop_
_atom_site_type_symbol
_atom_site_label
_atom_site_fract_x
_atom_site_fract_y
_atom_site_fract_z
Si Si1 0.934791 0.968893 0.065263
Si Si2 0.288981 0.316999 0.820293
Si Si3 0.935100 0.386608 0.489597
Si Si4 0.277089 0.392914 0.024179
Si Si5 0.333199 0.473434 0.358761
Si Si6 0.061975 0.256350 0.897338
Si Si7 0.168782 0.263284 0.439215
Si Si8 0.665198 0.737313 0.815196
O O1 0.895152 0.016998 0.118128
O O2 0.929814 0.848673 0.068304
O O3 0.000000 0.008767 0.074608
O O4 0.911450 0.000000 0.000000
O O5 0.303099 0.292262 0.750000
O O6 0.294454 0.437334 0.831763
O O7 0.329782 0.258315 0.867576
O O8 0.225490 0.281071 0.839503
O O9 0.911997 0.500000 0.500000
O O10 0.937779 0.344565 0.555625
O O11 0.892398 0.317999 0.449698
O O12 0.000000 0.385194 0.461085
O O13 0.308526 0.408684 0.086445
O O14 0.218979 0.333286 0.035873
O O15 0.256878 0.500000 0.000000
O O16 0.321369 0.340586 0.976753
O O17 0.338194 0.385103 0.309689
O O18 0.113448 0.281940 0.853294
O O19 0.000000 0.254815 0.863249
O O20 0.656642 0.782912 0.750000
#
# Coordination Sequence:
#
# PCOD8260245 Si02
#       8
#    16  16  16  16  16  16  16  16
#     4   9  18  31  52  83 115 144 173 215 275 342
#     4  11  24  38  54  79 114 158 197 231 272 330
#     4  10  22  39  60  85 114 146 183 233 293 345
#     4  11  21  33  57  91 116 144 179 236 299 346
#     4  11  20  35  56  80 115 147 184 231 282 335
#     4   9  19  35  57  85 113 140 180 229 280 341
#     4  11  22  36  58  84 116 149 190 235 285 347
#     4  10  21  38  56  77 111 151 191 230 277 326
#
# _framework density 18.625312999999998
#
# number of rings (size 3 to 8) (size 9 to 14) (size 15 to 20)
#    0.000    1.750    2.500    2.625    3.500    1.250 
#    0.000    0.000    0.000    2.625    0.000    1.750 
#    0.000    0.000    0.000    0.000    0.000    0.000 
#
# Total GULP energy -793117.477650 kJ/mol
# GULP energy per Si atom -12392.460588 kJ/mol
# Density = 1.858292 g / cm^3
# Si number density = 18.625313 Si / 1000 Ang^3
#
#
#
# Elastic Constant Matrix: (Units=GPa)
#
#
# Indices 1 2 3 4 5 6 
#
# 1 111.3196 41.9579 45.4749 0.0000 0.0000 0.0000
# 2 41.9579 82.2324 29.8369 0.0000 0.0000 0.0000
# 3 45.4749 29.8369 86.4568 0.0000 0.0000 0.0000
# 4 0.0000 0.0000 0.0000 21.5968 0.0000 0.0000
# 5 0.0000 0.0000 0.0000 0.0000 23.4318 0.0000
# 6 0.0000 0.0000 0.0000 0.0000 0.0000 13.7884
#
#
#
# Elastic Compliance Matrix: (Units=1/GPa)
#
#
# Indices 1 2 3 4 5 6 
#
# 1 0.012852 -0.004692 -0.005140 0.000000 0.000000 0.000000
# 2 -0.004692 0.015615 -0.002921 0.000000 0.000000 0.000000
# 3 -0.005140 -0.002921 0.015278 0.000000 0.000000 0.000000
# 4 0.000000 0.000000 0.000000 0.046303 0.000000 0.000000
# 5 0.000000 0.000000 0.000000 0.000000 0.042677 0.000000
# 6 0.000000 0.000000 0.000000 0.000000 0.000000 0.072525
#
#
# Mechanical properties :
#
#
# Convention : Reuss Voigt Hill
#
# Bulk Modulus (GPa) = 54.83140 57.17202 56.00171
# Shear Modulus (GPa) = 21.11172 22.61267 21.86219
#
# Velocity S-wave (km/s) = 3.37040 3.48815 3.42978
# Velocity P-wave (km/s) = 6.68200 6.85459 6.76885
#
# Compressibility (1/GPa) = 0.01823773
#
# Stress axis : x y z
#
# Youngs Moduli (GPa) = 77.81126 64.04300 65.45278
#
# Poissons Ratio (x) = 0.30050 0.33645
# Poissons Ratio (y) = 0.36511 0.19116
# Poissons Ratio (z) = 0.39998 0.18705
#
# Static dielectric constant tensor:
#      x y z
#    x 3.817850 0.000000 0.000000 
#    y 0.000000 3.438890 0.000000 
#    z 0.000000 0.000000 3.380990 
# 
# 
# High freq. dielectric constant tensor:
#      x y z
#    x 1.727610 0.000000 0.000000 
#    y 0.000000 1.722060 0.000000 
#    z 0.000000 0.000000 1.707340 
# 
# From -- ./inp_files/65190.got.cif
#   From: 2010.03.12/outbox.cif.g09.slc.cpg/sg63_33_cif.got.tgz:65190.got - 2010.04.10 19:34:48.
