data_PCOD8260650
_publ_section_title
;
Structure prediction by ZEFSAII (Michael W. Deem and Ramdas Pophale) SiO2 
 PCOD8260650
Probable space group: C M C M
;
_chemical_formula_sum "Si O2"
_cell_formula_units_Z 96
_cell_length_a 8.788317
_cell_length_b 22.237427
_cell_length_c 23.546700
_cell_angle_alpha 90.000000
_cell_angle_beta 90.000000
_cell_angle_gamma 90.000000
_cell_volume 4601.721167
_symmetry_space_group_name_H-M "C M C M"
_symmetry_group_IT_number 63
_symmetry_cell_setting 'orthorhombic'
loop_
_space_group_symop_operation_xyz
x,y,z
-x,-y,1/2+z
x,-y,-z
-x,y,1/2-z
-x,-y,-z
x,y,1/2-z
-x,y,z
x,-y,1/2+z
1/2+x,1/2+y,z
1/2-x,1/2-y,1/2+z
1/2+x,1/2-y,-z
1/2-x,1/2+y,1/2-z
1/2-x,1/2-y,-z
1/2+x,1/2+y,1/2-z
1/2-x,1/2+y,z
1/2+x,1/2-y,1/2+z
loop_
_atom_site_type_symbol
_atom_site_label
_atom_site_fract_x
_atom_site_fract_y
_atom_site_fract_z
Si Si1 0.319424 0.210191 0.122114
Si Si2 0.180471 0.830859 0.184803
Si Si3 0.675765 0.967738 0.920259
Si Si4 0.677240 0.095780 0.188814
Si Si5 0.178873 0.144663 0.477727
Si Si6 0.678361 0.895869 0.086591
O O1 0.500000 0.208605 0.115051
O O2 0.263528 0.271009 0.152073
O O3 0.256257 0.156714 0.161851
O O4 0.247765 0.199030 0.059824
O O5 0.239947 0.831284 0.250000
O O6 0.251997 0.886027 0.149439
O O7 0.000000 0.835828 0.184323
O O8 0.500000 0.952138 0.934864
O O9 0.707416 0.960104 0.852917
O O10 0.779791 0.921482 0.954355
O O11 0.714227 0.036374 0.935008
O O12 0.755045 0.083052 0.250000
O O13 0.500000 0.106245 0.197758
O O14 0.244803 0.149734 0.541671
O O15 0.000000 0.152688 0.480542
O O16 0.500000 0.884174 0.089494
#
# Coordination Sequence:
#
# PCOD8260650 Si02
#       6
#    16  16  16  16  16  16
#     4   9  18  35  58  82 110 145 184 226 276 335
#     4  10  22  40  61  85 114 149 187 227 274 328
#     4   9  19  35  55  80 111 148 189 231 277 333
#     4   8  13  25  50  80 104 131 175 227 271 317
#     4  11  22  36  58  86 113 142 181 234 291 337
#     4  11  23  38  57  81 113 153 192 229 272 329
#
# _framework density 20.86176
#
# number of rings (size 3 to 8) (size 9 to 14) (size 15 to 20)
#    0.000    2.333    0.000    4.000    0.000    7.667 
#    0.000    1.667    0.000   12.000    0.000    0.000 
#    0.000    0.000    0.000    0.000    0.000    0.000 
#
# Total GULP energy -595043.055655 kJ/mol
# GULP energy per Si atom -12396.730326 kJ/mol
# Density = 2.081428 g / cm^3
# Si number density = 20.861760 Si / 1000 Ang^3
#
#
#
# Elastic Constant Matrix: (Units=GPa)
#
#
# Indices 1 2 3 4 5 6 
#
# 1 58.6656 18.8265 29.5770 0.0000 0.0000 0.0000
# 2 18.8265 35.0294 6.6033 0.0000 0.0000 0.0000
# 3 29.5770 6.6033 120.3767 0.0000 0.0000 0.0000
# 4 0.0000 0.0000 0.0000 28.5570 0.0000 0.0000
# 5 0.0000 0.0000 0.0000 0.0000 28.0753 0.0000
# 6 0.0000 0.0000 0.0000 0.0000 0.0000 22.4439
#
#
#
# Elastic Compliance Matrix: (Units=1/GPa)
#
#
# Indices 1 2 3 4 5 6 
#
# 1 0.023331 -0.011579 -0.005097 0.000000 0.000000 0.000000
# 2 -0.011579 0.034592 0.000947 0.000000 0.000000 0.000000
# 3 -0.005097 0.000947 0.009508 0.000000 0.000000 0.000000
# 4 0.000000 0.000000 0.000000 0.035018 0.000000 0.000000
# 5 0.000000 0.000000 0.000000 0.000000 0.035618 0.000000
# 6 0.000000 0.000000 0.000000 0.000000 0.000000 0.044555
#
#
# Mechanical properties :
#
#
# Convention : Reuss Voigt Hill
#
# Bulk Modulus (GPa) = 27.79818 36.00950 31.90384
# Shear Modulus (GPa) = 22.11693 26.41957 24.26825
#
# Velocity S-wave (km/s) = 3.25955 3.56253 3.41440
# Velocity P-wave (km/s) = 5.24596 5.84984 5.55611
#
# Compressibility (1/GPa) = 0.03597358
#
# Stress axis : x y z
#
# Youngs Moduli (GPa) = 42.86058 28.90861 105.17723
#
# Poissons Ratio (x) = 0.33472 0.53614
# Poissons Ratio (y) = 0.49626 -0.09964
# Poissons Ratio (z) = 0.21848 -0.02739
#
# Static dielectric constant tensor:
#      x y z
#    x 3.347000 0.000000 0.000000 
#    y 0.000000 3.666930 0.000000 
#    z 0.000000 0.000000 4.194190 
# 
# 
# High freq. dielectric constant tensor:
#      x y z
#    x 1.781100 0.000000 0.000000 
#    y 0.000000 1.806810 0.000000 
#    z 0.000000 0.000000 1.836040 
# 
# From -- ./inp_files/59948.got.cif
#   From: 2010.03.12/outbox.cif.g09.slc.cpg/sg63_30_cif.got.tgz:59948.got - 2010.04.10 19:34:48.
