data_PCOD8260697
_publ_section_title
;
Structure prediction by ZEFSAII (Michael W. Deem and Ramdas Pophale) SiO2 
 PCOD8260697
Probable space group: C M C M
;
_chemical_formula_sum "Si O2"
_cell_formula_units_Z 64
_cell_length_a 8.631560
_cell_length_b 30.729621
_cell_length_c 12.070169
_cell_angle_alpha 90.000000
_cell_angle_beta 90.000000
_cell_angle_gamma 90.000000
_cell_volume 3201.546755
_symmetry_space_group_name_H-M "C M C M"
_symmetry_group_IT_number 63
_symmetry_cell_setting 'orthorhombic'
loop_
_space_group_symop_operation_xyz
x,y,z
-x,-y,1/2+z
x,-y,-z
-x,y,1/2-z
-x,-y,-z
x,y,1/2-z
-x,y,z
x,-y,1/2+z
1/2+x,1/2+y,z
1/2-x,1/2-y,1/2+z
1/2+x,1/2-y,-z
1/2-x,1/2+y,1/2-z
1/2-x,1/2-y,-z
1/2+x,1/2+y,1/2-z
1/2-x,1/2+y,z
1/2+x,1/2-y,1/2+z
loop_
_atom_site_type_symbol
_atom_site_label
_atom_site_fract_x
_atom_site_fract_y
_atom_site_fract_z
Si Si1 0.679965 0.828147 0.250000
Si Si2 0.818069 0.373063 0.622934
Si Si3 0.817430 0.796934 0.022416
Si Si4 0.177628 0.548944 0.537434
Si Si5 0.822728 0.081503 0.750000
O O1 0.500000 0.815692 0.250000
O O2 0.762141 0.809599 0.143174
O O3 0.700048 0.879635 0.250000
O O4 0.762690 0.377769 0.750000
O O5 0.736437 0.331600 0.568723
O O6 0.772509 0.417393 0.559003
O O7 0.000000 0.364703 0.616217
O O8 0.000000 0.794665 0.019012
O O9 0.750000 0.750000 0.000000
O O10 0.200846 0.500000 0.500000
O O11 0.291360 0.553405 0.641157
O O12 0.000000 0.557675 0.572408
O O13 0.000000 0.098092 0.750000
#
# Coordination Sequence:
#
# PCOD8260697 Si02
#       5
#     8  16  16  16   8
#     4  12  24  44  70  95 126 167 218 274 325 380
#     4  10  22  41  64  93 131 171 216 266 317 376
#     4  12  26  44  67  96 130 170 215 263 324 388
#     4  10  22  40  67  96 126 170 219 265 316 379
#     4  12  24  40  64  95 130 169 212 268 329 386
#
# _framework density 19.990338999999999
#
# number of rings (size 3 to 8) (size 9 to 14) (size 15 to 20)
#    0.000    1.000    2.500    4.500    3.500    1.000 
#    0.000    0.000    0.000    0.000    0.000    0.000 
#    0.000    0.000    0.000    0.000    0.000    0.000 
#
# Total GULP energy -396913.123629 kJ/mol
# GULP energy per Si atom -12403.535113 kJ/mol
# Density = 1.994484 g / cm^3
# Si number density = 19.990339 Si / 1000 Ang^3
#
#
#
# Elastic Constant Matrix: (Units=GPa)
#
#
# Indices 1 2 3 4 5 6 
#
# 1 96.7304 56.4226 69.7801 0.0000 0.0000 0.0000
# 2 56.4226 159.8882 75.1352 0.0000 0.0000 0.0000
# 3 69.7801 75.1352 182.1223 0.0000 0.0000 0.0000
# 4 0.0000 0.0000 0.0000 32.6487 0.0000 0.0000
# 5 0.0000 0.0000 0.0000 0.0000 65.8464 0.0000
# 6 0.0000 0.0000 0.0000 0.0000 0.0000 31.3123
#
#
#
# Elastic Compliance Matrix: (Units=1/GPa)
#
#
# Indices 1 2 3 4 5 6 
#
# 1 0.015608 -0.003346 -0.004600 0.000000 0.000000 0.000000
# 2 -0.003346 0.008476 -0.002215 0.000000 0.000000 0.000000
# 3 -0.004600 -0.002215 0.008167 0.000000 0.000000 0.000000
# 4 0.000000 0.000000 0.000000 0.030629 0.000000 0.000000
# 5 0.000000 0.000000 0.000000 0.000000 0.015187 0.000000
# 6 0.000000 0.000000 0.000000 0.000000 0.000000 0.031936
#
#
# Mechanical properties :
#
#
# Convention : Reuss Voigt Hill
#
# Bulk Modulus (GPa) = 83.82574 93.49075 88.65824
# Shear Modulus (GPa) = 37.22977 41.78834 39.50905
#
# Velocity S-wave (km/s) = 4.32022 4.57708 4.45050
# Velocity P-wave (km/s) = 8.17985 8.64884 8.41761
#
# Compressibility (1/GPa) = 0.01192951
#
# Stress axis : x y z
#
# Youngs Moduli (GPa) = 64.06928 117.98035 122.44664
#
# Poissons Ratio (x) = 0.39481 0.56321
# Poissons Ratio (y) = 0.21440 0.27117
# Poissons Ratio (z) = 0.29470 0.26128
#
# Static dielectric constant tensor:
#      x y z
#    x 3.632210 0.000000 0.000000 
#    y 0.000000 3.669800 0.000000 
#    z 0.000000 0.000000 3.809660 
# 
# 
# High freq. dielectric constant tensor:
#      x y z
#    x 1.779960 0.000000 0.000000 
#    y 0.000000 1.791610 0.000000 
#    z 0.000000 0.000000 1.796390 
# 
# From -- ./inp_files/16211.got.cif
#   From: 2010.03.12/outbox.cif.g09.slc.cpg/sg63_9_cif.got.tgz:16211.got - 2010.04.10 19:34:48.
