data_PCOD8260368
_publ_section_title
;
Structure prediction by ZEFSAII (Michael W. Deem and Ramdas Pophale) SiO2 
 PCOD8260368
Probable space group: C M C M
;
_chemical_formula_sum "Si O2"
_cell_formula_units_Z 80
_cell_length_a 26.708225
_cell_length_b 8.907207
_cell_length_c 15.939763
_cell_angle_alpha 90.000000
_cell_angle_beta 90.000000
_cell_angle_gamma 90.000000
_cell_volume 3792.000896
_symmetry_space_group_name_H-M "C M C M"
_symmetry_group_IT_number 63
_symmetry_cell_setting 'orthorhombic'
loop_
_space_group_symop_operation_xyz
x,y,z
-x,-y,1/2+z
x,-y,-z
-x,y,1/2-z
-x,-y,-z
x,y,1/2-z
-x,y,z
x,-y,1/2+z
1/2+x,1/2+y,z
1/2-x,1/2-y,1/2+z
1/2+x,1/2-y,-z
1/2-x,1/2+y,1/2-z
1/2-x,1/2-y,-z
1/2+x,1/2+y,1/2-z
1/2-x,1/2+y,z
1/2+x,1/2-y,1/2+z
loop_
_atom_site_type_symbol
_atom_site_label
_atom_site_fract_x
_atom_site_fract_y
_atom_site_fract_z
Si Si1 0.592791 0.145882 0.040507
Si Si2 0.266031 0.235649 0.596430
Si Si3 0.863889 0.891075 0.925977
Si Si4 0.444286 0.397965 0.344959
Si Si5 0.185642 0.436233 0.845166
O O1 0.557471 0.249589 0.097402
O O2 0.637957 0.084071 0.096446
O O3 0.611438 0.241117 0.961643
O O4 0.564910 0.000000 0.000000
O O5 0.250000 0.250000 0.500000
O O6 0.313481 0.341359 0.621325
O O7 0.218887 0.284824 0.652925
O O8 0.279155 0.065462 0.617605
O O9 0.903519 0.975916 0.866824
O O10 0.846968 0.000000 0.000000
O O11 0.434604 0.345909 0.250000
O O12 0.500000 0.467421 0.355845
O O13 0.168488 0.469832 0.750000
#
# Coordination Sequence:
#
# PCOD8260368 Si02
#       5
#    16  16  16  16  16
#     4  11  21  42  65  93 124 166 214 263 322 385
#     4  12  22  41  62  89 129 173 217 263 314 385
#     4  10  21  38  67  91 121 168 218 257 315 386
#     4  10  24  45  68  96 130 165 209 273 333 379
#     4  12  25  38  58  92 128 168 213 263 322 383
#
# _framework density 21.097042999999999
#
# number of rings (size 3 to 8) (size 9 to 14) (size 15 to 20)
#    0.000    1.000    4.000    3.000    2.800    5.600 
#    0.000    0.000    0.000    2.400    0.000    0.000 
#    0.000    0.000    0.000    0.000    0.000    0.000 
#
# Total GULP energy -495936.755368 kJ/mol
# GULP energy per Si atom -12398.418884 kJ/mol
# Density = 2.104902 g / cm^3
# Si number density = 21.097043 Si / 1000 Ang^3
#
#
#
# Elastic Constant Matrix: (Units=GPa)
#
#
# Indices 1 2 3 4 5 6 
#
# 1 81.7725 19.3146 30.1783 0.0000 0.0000 0.0000
# 2 19.3146 88.8125 28.9347 0.0000 0.0000 0.0000
# 3 30.1783 28.9347 99.9238 0.0000 0.0000 0.0000
# 4 0.0000 0.0000 0.0000 24.3502 0.0000 0.0000
# 5 0.0000 0.0000 0.0000 0.0000 28.1451 0.0000
# 6 0.0000 0.0000 0.0000 0.0000 0.0000 27.5174
#
#
#
# Elastic Compliance Matrix: (Units=1/GPa)
#
#
# Indices 1 2 3 4 5 6 
#
# 1 0.014032 -0.001845 -0.003703 0.000000 0.000000 0.000000
# 2 -0.001845 0.012675 -0.003113 0.000000 0.000000 0.000000
# 3 -0.003703 -0.003113 0.012028 0.000000 0.000000 0.000000
# 4 0.000000 0.000000 0.000000 0.041067 0.000000 0.000000
# 5 0.000000 0.000000 0.000000 0.000000 0.035530 0.000000
# 6 0.000000 0.000000 0.000000 0.000000 0.000000 0.036341
#
#
# Mechanical properties :
#
#
# Convention : Reuss Voigt Hill
#
# Bulk Modulus (GPa) = 46.70450 47.48490 47.09470
# Shear Modulus (GPa) = 28.38768 28.80796 28.59782
#
# Velocity S-wave (km/s) = 3.67219 3.69927 3.68576
# Velocity P-wave (km/s) = 6.33766 6.38771 6.36274
#
# Compressibility (1/GPa) = 0.02141121
#
# Stress axis : x y z
#
# Youngs Moduli (GPa) = 71.26767 78.89457 83.14225
#
# Poissons Ratio (x) = 0.14556 0.30792
# Poissons Ratio (y) = 0.13149 0.25883
# Poissons Ratio (z) = 0.26394 0.24561
#
# Static dielectric constant tensor:
#      x y z
#    x 3.741960 0.000000 0.000000 
#    y 0.000000 4.078040 0.000000 
#    z 0.000000 0.000000 3.778730 
# 
# 
# High freq. dielectric constant tensor:
#      x y z
#    x 1.817270 0.000000 0.000000 
#    y 0.000000 1.836350 0.000000 
#    z 0.000000 0.000000 1.819650 
# 
# From -- ./inp_files/48802.got.cif
#   From: 2010.03.12/outbox.cif.g09.slc.cpg/sg63_25_cif.got.tgz:48802.got - 2010.04.10 19:34:48.
