data_PCOD8260086
_publ_section_title
;
Structure prediction by ZEFSAII (Michael W. Deem and Ramdas Pophale) SiO2 
 PCOD8260086
Probable space group: C M C M
;
_chemical_formula_sum "Si O2"
_cell_formula_units_Z 96
_cell_length_a 9.592532
_cell_length_b 19.927650
_cell_length_c 29.570793
_cell_angle_alpha 90.000000
_cell_angle_beta 90.000000
_cell_angle_gamma 90.000000
_cell_volume 5652.652850
_symmetry_space_group_name_H-M "C M C M"
_symmetry_group_IT_number 63
_symmetry_cell_setting 'orthorhombic'
loop_
_space_group_symop_operation_xyz
x,y,z
-x,-y,1/2+z
x,-y,-z
-x,y,1/2-z
-x,-y,-z
x,y,1/2-z
-x,y,z
x,-y,1/2+z
1/2+x,1/2+y,z
1/2-x,1/2-y,1/2+z
1/2+x,1/2-y,-z
1/2-x,1/2+y,1/2-z
1/2-x,1/2-y,-z
1/2+x,1/2+y,1/2-z
1/2-x,1/2+y,z
1/2+x,1/2-y,1/2+z
loop_
_atom_site_type_symbol
_atom_site_label
_atom_site_fract_x
_atom_site_fract_y
_atom_site_fract_z
Si Si1 0.341869 0.265425 0.380016
Si Si2 0.657084 0.231842 0.700356
Si Si3 0.659451 0.073243 0.480226
Si Si4 0.159855 0.388511 0.618829
Si Si5 0.163638 0.810458 0.021210
Si Si6 0.842659 0.108598 0.200208
O O1 0.500000 0.267821 0.363360
O O2 0.252191 0.298119 0.339496
O O3 0.297682 0.188752 0.390524
O O4 0.319155 0.308934 0.424802
O O5 0.706456 0.206161 0.750000
O O6 0.500000 0.207864 0.691244
O O7 0.667019 0.311618 0.699547
O O8 0.500000 0.099202 0.487705
O O9 0.692205 0.070585 0.426772
O O10 0.770546 0.120305 0.504750
O O11 0.680191 0.000000 0.500000
O O12 0.246742 0.420832 0.660237
O O13 0.000000 0.394485 0.633160
O O14 0.000000 0.805340 0.007556
O O15 0.250000 0.750000 0.000000
O O16 0.793684 0.082960 0.250000
O O17 0.000000 0.084721 0.191057
#
# Coordination Sequence:
#
# PCOD8260086 Si02
#       6
#    16  16  16  16  16  16
#     4   9  17  28  43  66  94 123 158 199 240 288
#     4   8  14  24  38  60  91 123 154 189 233 288
#     4  10  21  37  53  71 100 135 169 208 254 300
#     4   9  16  28  44  65  93 124 159 195 239 291
#     4  11  21  34  52  74 101 130 168 209 246 293
#     4   8  14  24  38  60  90 121 153 190 235 286
#
# _framework density 16.983176
#
# number of rings (size 3 to 8) (size 9 to 14) (size 15 to 20)
#    0.000    2.833    1.667    1.500    0.000    3.000 
#    0.000    3.333    0.000    0.000    0.000    1.167 
#    0.000    1.333    0.000    0.000    0.000    0.000 
#
# Total GULP energy -594966.340516 kJ/mol
# GULP energy per Si atom -12395.132094 kJ/mol
# Density = 1.694452 g / cm^3
# Si number density = 16.983176 Si / 1000 Ang^3
#
#
#
# Elastic Constant Matrix: (Units=GPa)
#
#
# Indices 1 2 3 4 5 6 
#
# 1 107.0289 36.4324 87.5085 0.0000 0.0000 0.0000
# 2 36.4324 39.1467 37.2461 0.0000 0.0000 0.0000
# 3 87.5085 37.2461 154.7711 0.0000 0.0000 0.0000
# 4 0.0000 0.0000 0.0000 13.1738 0.0000 0.0000
# 5 0.0000 0.0000 0.0000 0.0000 38.3322 0.0000
# 6 0.0000 0.0000 0.0000 0.0000 0.0000 16.1855
#
#
#
# Elastic Compliance Matrix: (Units=1/GPa)
#
#
# Indices 1 2 3 4 5 6 
#
# 1 0.020112 -0.010244 -0.008906 0.000000 0.000000 0.000000
# 2 -0.010244 0.038348 -0.003437 0.000000 0.000000 0.000000
# 3 -0.008906 -0.003437 0.012324 0.000000 0.000000 0.000000
# 4 0.000000 0.000000 0.000000 0.075908 0.000000 0.000000
# 5 0.000000 0.000000 0.000000 0.000000 0.026088 0.000000
# 6 0.000000 0.000000 0.000000 0.000000 0.000000 0.061784
#
#
# Mechanical properties :
#
#
# Convention : Reuss Voigt Hill
#
# Bulk Modulus (GPa) = 39.04616 69.25786 54.15201
# Shear Modulus (GPa) = 17.34456 22.85562 20.10009
#
# Velocity S-wave (km/s) = 3.19921 3.67247 3.44398
# Velocity P-wave (km/s) = 6.05703 7.67147 6.91155
#
# Compressibility (1/GPa) = 0.02561071
#
# Stress axis : x y z
#
# Youngs Moduli (GPa) = 49.72105 26.07676 81.14287
#
# Poissons Ratio (x) = 0.26712 0.72269
# Poissons Ratio (y) = 0.50933 0.27887
# Poissons Ratio (z) = 0.44283 0.08962
#
# Static dielectric constant tensor:
#      x y z
#    x 3.343110 0.000000 0.000000 
#    y 0.000000 2.778290 0.000000 
#    z 0.000000 0.000000 3.635850 
# 
# 
# High freq. dielectric constant tensor:
#      x y z
#    x 1.659260 0.000000 0.000000 
#    y 0.000000 1.587290 0.000000 
#    z 0.000000 0.000000 1.671960 
# 
# From -- ./inp_files/67011.got.cif
#   From: 2010.03.12/outbox.cif.g09.slc.cpg/sg63_34_cif.got.tgz:67011.got - 2010.04.10 19:34:48.
