data_PCOD8260123
_publ_section_title
;
Structure prediction by ZEFSAII (Michael W. Deem and Ramdas Pophale) SiO2 
 PCOD8260123
Probable space group: C M C M
;
_chemical_formula_sum "Si O2"
_cell_formula_units_Z 104
_cell_length_a 20.148014
_cell_length_b 29.139068
_cell_length_c 8.826141
_cell_angle_alpha 90.000000
_cell_angle_beta 90.000000
_cell_angle_gamma 90.000000
_cell_volume 5181.777514
_symmetry_space_group_name_H-M "C M C M"
_symmetry_group_IT_number 63
_symmetry_cell_setting 'orthorhombic'
loop_
_space_group_symop_operation_xyz
x,y,z
-x,-y,1/2+z
x,-y,-z
-x,y,1/2-z
-x,-y,-z
x,y,1/2-z
-x,y,z
x,-y,1/2+z
1/2+x,1/2+y,z
1/2-x,1/2-y,1/2+z
1/2+x,1/2-y,-z
1/2-x,1/2+y,1/2-z
1/2-x,1/2-y,-z
1/2+x,1/2+y,1/2-z
1/2-x,1/2+y,z
1/2+x,1/2-y,1/2+z
loop_
_atom_site_type_symbol
_atom_site_label
_atom_site_fract_x
_atom_site_fract_y
_atom_site_fract_z
Si Si1 0.175855 0.292256 0.073756
Si Si2 0.925745 0.643572 0.076456
Si Si3 0.734766 0.454737 0.573920
Si Si4 0.826484 0.802879 0.427502
Si Si5 0.116660 0.545422 0.073757
Si Si6 0.882165 0.109943 0.427889
Si Si7 0.000000 0.051370 0.569044
O O1 0.174100 0.279281 0.250000
O O2 0.249154 0.310043 0.027527
O O3 0.123623 0.331789 0.037837
O O4 0.153520 0.248207 0.977405
O O5 0.901253 0.650235 0.250000
O O6 0.927014 0.589730 0.034356
O O7 0.000000 0.662941 0.055327
O O8 0.702888 0.500000 0.500000
O O9 0.736274 0.464148 0.750000
O O10 0.808715 0.445828 0.510205
O O11 0.689439 0.411459 0.534820
O O12 0.838486 0.808805 0.250000
O O13 0.875788 0.838018 0.512737
O O14 0.118644 0.535966 0.250000
O O15 0.084759 0.500000 0.000000
O O16 0.899615 0.109844 0.250000
O O17 0.936521 0.080302 0.515791
O O18 0.000000 0.046965 0.750000
O O19 0.000000 0.000000 0.500000
#
# Coordination Sequence:
#
# PCOD8260123 Si02
#       7
#    16  16  16  16  16  16   8
#     4  10  21  38  61  89 118 150 190 239 292 350
#     4  10  21  37  56  79 111 153 195 234 283 341
#     4   9  18  31  51  78 108 142 181 230 283 334
#     4  10  21  38  62  90 118 148 186 237 297 355
#     4   9  18  33  52  78 111 146 186 232 281 332
#     4  11  22  38  60  87 116 152 197 244 296 353
#     4  12  26  44  62  84 120 164 208 252 301 362
#
# _framework density 20.070332000000001
#
# number of rings (size 3 to 8) (size 9 to 14) (size 15 to 20)
#    0.000    2.000    0.000    3.462    0.000    6.769 
#    1.385    3.077    0.000    0.000    0.000    0.000 
#    0.000    0.000    0.000    0.000    0.000    0.000 
#
# Total GULP energy -644821.138209 kJ/mol
# GULP energy per Si atom -12400.406504 kJ/mol
# Density = 2.002465 g / cm^3
# Si number density = 20.070332 Si / 1000 Ang^3
#
#
#
# Elastic Constant Matrix: (Units=GPa)
#
#
# Indices 1 2 3 4 5 6 
#
# 1 66.8947 39.4044 33.8326 0.0000 0.0000 0.0000
# 2 39.4044 108.6366 40.5478 0.0000 0.0000 0.0000
# 3 33.8326 40.5478 72.6442 0.0000 0.0000 0.0000
# 4 0.0000 0.0000 0.0000 40.1528 0.0000 0.0000
# 5 0.0000 0.0000 0.0000 0.0000 23.4344 0.0000
# 6 0.0000 0.0000 0.0000 0.0000 0.0000 32.5686
#
#
#
# Elastic Compliance Matrix: (Units=1/GPa)
#
#
# Indices 1 2 3 4 5 6 
#
# 1 0.021625 -0.005160 -0.007192 0.000000 0.000000 0.000000
# 2 -0.005160 0.012858 -0.004774 0.000000 0.000000 0.000000
# 3 -0.007192 -0.004774 0.019780 0.000000 0.000000 0.000000
# 4 0.000000 0.000000 0.000000 0.024905 0.000000 0.000000
# 5 0.000000 0.000000 0.000000 0.000000 0.042672 0.000000
# 6 0.000000 0.000000 0.000000 0.000000 0.000000 0.030704
#
#
# Mechanical properties :
#
#
# Convention : Reuss Voigt Hill
#
# Bulk Modulus (GPa) = 49.96816 52.86059 51.41437
# Shear Modulus (GPa) = 25.84418 28.19055 27.01736
#
# Velocity S-wave (km/s) = 3.59232 3.75185 3.67295
# Velocity P-wave (km/s) = 6.49284 6.72037 6.60758
#
# Compressibility (1/GPa) = 0.02001275
#
# Stress axis : x y z
#
# Youngs Moduli (GPa) = 46.24187 77.76990 50.55642
#
# Poissons Ratio (x) = 0.40127 0.36358
# Poissons Ratio (y) = 0.23859 0.24136
# Poissons Ratio (z) = 0.33255 0.37129
#
# Static dielectric constant tensor:
#      x y z
#    x 3.685570 0.000000 0.000000 
#    y 0.000000 3.618240 0.000000 
#    z 0.000000 0.000000 3.566190 
# 
# 
# High freq. dielectric constant tensor:
#      x y z
#    x 1.774110 0.000000 0.000000 
#    y 0.000000 1.788050 0.000000 
#    z 0.000000 0.000000 1.781070 
# 
# From -- ./inp_files/8769.got.cif
#   From: 2010.03.12/outbox.cif.g09.slc.cpg/sg63_5_cif.got.tgz:8769.got - 2010.04.10 19:34:48.
