data_PCOD8260282
_publ_section_title
;
Structure prediction by ZEFSAII (Michael W. Deem and Ramdas Pophale) SiO2 
 PCOD8260282
Probable space group: C M C M
;
_chemical_formula_sum "Si O2"
_cell_formula_units_Z 96
_cell_length_a 11.539049
_cell_length_b 18.116880
_cell_length_c 22.267253
_cell_angle_alpha 90.000000
_cell_angle_beta 90.000000
_cell_angle_gamma 90.000000
_cell_volume 4655.004111
_symmetry_space_group_name_H-M "C M C M"
_symmetry_group_IT_number 63
_symmetry_cell_setting 'orthorhombic'
loop_
_space_group_symop_operation_xyz
x,y,z
-x,-y,1/2+z
x,-y,-z
-x,y,1/2-z
-x,-y,-z
x,y,1/2-z
-x,y,z
x,-y,1/2+z
1/2+x,1/2+y,z
1/2-x,1/2-y,1/2+z
1/2+x,1/2-y,-z
1/2-x,1/2+y,1/2-z
1/2-x,1/2-y,-z
1/2+x,1/2+y,1/2-z
1/2-x,1/2+y,z
1/2+x,1/2-y,1/2+z
loop_
_atom_site_type_symbol
_atom_site_label
_atom_site_fract_x
_atom_site_fract_y
_atom_site_fract_z
Si Si1 0.811771 0.531118 0.870901
Si Si2 0.130357 0.455870 0.750000
Si Si3 0.864386 0.852214 0.750000
Si Si4 0.636451 0.885076 0.928888
Si Si5 0.245661 0.768100 0.853297
Si Si6 0.872810 0.332971 0.055422
Si Si7 0.627715 0.625858 0.682526
O O1 0.870790 0.507686 0.808498
O O2 0.800247 0.462456 0.915916
O O3 0.885219 0.596290 0.901221
O O4 0.684211 0.563986 0.859499
O O5 0.250299 0.406928 0.750000
O O6 0.000000 0.415874 0.750000
O O7 0.852556 0.802911 0.689910
O O8 0.000000 0.884369 0.750000
O O9 0.500000 0.900002 0.932084
O O10 0.663260 0.830318 0.873777
O O11 0.686662 0.855059 0.992078
O O12 0.193540 0.734382 0.914048
O O13 0.309280 0.704450 0.816600
O O14 0.000000 0.303015 0.040656
O O15 0.627080 0.594785 0.750000
O O16 0.500000 0.638132 0.656831
#
# Coordination Sequence:
#
# PCOD8260282 Si02
#       7
#    16   8   8  16  16  16  16
#     4  11  22  38  60  91 123 157 207 262 314 374
#     4  12  24  39  62  95 127 165 215 263 318 380
#     4  12  26  41  62  97 137 169 203 257 330 386
#     4  11  22  39  62  90 120 161 212 262 314 370
#     4  11  22  40  62  91 123 162 208 257 310 385
#     4  10  22  39  62  87 120 160 205 262 319 375
#     4  10  21  38  59  88 125 166 204 250 313 379
#
# _framework density 20.622968
#
# number of rings (size 3 to 8) (size 9 to 14) (size 15 to 20)
#    0.000    1.167    3.333    3.500    0.000    2.667 
#    0.000    2.500    0.000   10.000    0.000    0.000 
#    0.000    0.000    0.000    0.000    0.000    0.000 
#
# Total GULP energy -594887.425055 kJ/mol
# GULP energy per Si atom -12393.488022 kJ/mol
# Density = 2.057603 g / cm^3
# Si number density = 20.622968 Si / 1000 Ang^3
#
#
#
# Elastic Constant Matrix: (Units=GPa)
#
#
# Indices 1 2 3 4 5 6 
#
# 1 118.0596 34.5394 25.1827 0.0000 0.0000 0.0000
# 2 34.5394 84.0637 13.8223 0.0000 0.0000 0.0000
# 3 25.1827 13.8223 90.0734 0.0000 0.0000 0.0000
# 4 0.0000 0.0000 0.0000 41.0083 0.0000 0.0000
# 5 0.0000 0.0000 0.0000 0.0000 24.6546 0.0000
# 6 0.0000 0.0000 0.0000 0.0000 0.0000 19.0178
#
#
#
# Elastic Compliance Matrix: (Units=1/GPa)
#
#
# Indices 1 2 3 4 5 6 
#
# 1 0.010047 -0.003761 -0.002232 0.000000 0.000000 0.000000
# 2 -0.003761 0.013612 -0.001037 0.000000 0.000000 0.000000
# 3 -0.002232 -0.001037 0.011885 0.000000 0.000000 0.000000
# 4 0.000000 0.000000 0.000000 0.024385 0.000000 0.000000
# 5 0.000000 0.000000 0.000000 0.000000 0.040560 0.000000
# 6 0.000000 0.000000 0.000000 0.000000 0.000000 0.052582
#
#
# Mechanical properties :
#
#
# Convention : Reuss Voigt Hill
#
# Bulk Modulus (GPa) = 46.54729 48.80950 47.67840
# Shear Modulus (GPa) = 28.68741 31.51294 30.10018
#
# Velocity S-wave (km/s) = 3.73371 3.91327 3.82455
# Velocity P-wave (km/s) = 6.41928 6.64358 6.53239
#
# Compressibility (1/GPa) = 0.02148353
#
# Stress axis : x y z
#
# Youngs Moduli (GPa) = 99.53594 73.46696 84.13841
#
# Poissons Ratio (x) = 0.27630 0.18777
# Poissons Ratio (y) = 0.37435 0.08728
# Poissons Ratio (z) = 0.22213 0.07621
#
# Static dielectric constant tensor:
#      x y z
#    x 3.679930 0.000000 0.000000 
#    y 0.000000 3.681540 0.000000 
#    z 0.000000 0.000000 3.896660 
# 
# 
# High freq. dielectric constant tensor:
#      x y z
#    x 1.792820 0.000000 0.000000 
#    y 0.000000 1.804020 0.000000 
#    z 0.000000 0.000000 1.818110 
# 
# From -- ./inp_files/61534.got.cif
#   From: 2010.03.12/outbox.cif.g09.slc.cpg/sg63_31_cif.got.tgz:61534.got - 2010.04.10 19:34:48.
