data_PCOD8260769
_publ_section_title
;
Structure prediction by ZEFSAII (Michael W. Deem and Ramdas Pophale) SiO2 
 PCOD8260769
Probable space group: C M C M
;
_chemical_formula_sum "Si O2"
_cell_formula_units_Z 72
_cell_length_a 25.250571
_cell_length_b 8.869257
_cell_length_c 14.787573
_cell_angle_alpha 90.000000
_cell_angle_beta 90.000000
_cell_angle_gamma 90.000000
_cell_volume 3311.733219
_symmetry_space_group_name_H-M "C M C M"
_symmetry_group_IT_number 63
_symmetry_cell_setting 'orthorhombic'
loop_
_space_group_symop_operation_xyz
x,y,z
-x,-y,1/2+z
x,-y,-z
-x,y,1/2-z
-x,-y,-z
x,y,1/2-z
-x,y,z
x,-y,1/2+z
1/2+x,1/2+y,z
1/2-x,1/2-y,1/2+z
1/2+x,1/2-y,-z
1/2-x,1/2+y,1/2-z
1/2-x,1/2-y,-z
1/2+x,1/2+y,1/2-z
1/2-x,1/2+y,z
1/2+x,1/2-y,1/2+z
loop_
_atom_site_type_symbol
_atom_site_label
_atom_site_fract_x
_atom_site_fract_y
_atom_site_fract_z
Si Si1 0.940809 0.425144 0.095951
Si Si2 0.863407 0.088113 0.750000
Si Si3 0.285011 0.646659 0.058751
Si Si4 0.747336 0.550785 0.250000
Si Si5 0.131247 0.445276 0.750000
Si Si6 0.400197 0.605468 0.081380
O O1 0.896991 0.489347 0.162531
O O2 0.941115 0.241532 0.096723
O O3 0.000000 0.472604 0.126846
O O4 0.927840 0.500000 0.000000
O O5 0.798985 0.076657 0.750000
O O6 0.874840 0.265034 0.750000
O O7 0.890400 0.006880 0.835047
O O8 0.260732 0.646873 0.159205
O O9 0.345996 0.696515 0.061085
O O10 0.282733 0.500000 0.000000
O O11 0.250000 0.750000 0.000000
O O12 0.808058 0.492733 0.250000
O O13 0.420459 0.500000 0.000000
#
# Coordination Sequence:
#
# PCOD8260769 Si02
#       6
#    16   8  16   8   8  16
#     4  11  26  46  68  97 130 171 231 289 347 404
#     4  10  23  44  61 103 136 175 222 265 335 411
#     4  10  24  38  60  94 137 174 219 269 326 409
#     4  10  26  37  63  98 137 177 222 266 338 412
#     4  12  26  41  74  93 137 180 221 287 335 405
#     4  10  22  42  67  94 136 174 221 275 331 408
#
# _framework density 21.740880000000001
#
# number of rings (size 3 to 8) (size 9 to 14) (size 15 to 20)
#    0.000    1.556    0.000    2.333   15.556    2.222 
#    0.000    2.222    0.000    0.000    0.000    0.000 
#    0.000    0.000    0.000    0.000    0.000    0.000 
#
# Total GULP energy -446135.021016 kJ/mol
# GULP energy per Si atom -12392.639473 kJ/mol
# Density = 2.169140 g / cm^3
# Si number density = 21.740880 Si / 1000 Ang^3
#
#
#
# Elastic Constant Matrix: (Units=GPa)
#
#
# Indices 1 2 3 4 5 6 
#
# 1 86.8793 45.8224 38.4469 0.0000 0.0000 0.0000
# 2 45.8224 89.3833 45.3571 0.0000 0.0000 0.0000
# 3 38.4469 45.3571 142.6882 0.0000 0.0000 0.0000
# 4 0.0000 0.0000 0.0000 37.5427 0.0000 0.0000
# 5 0.0000 0.0000 0.0000 0.0000 31.9257 0.0000
# 6 0.0000 0.0000 0.0000 0.0000 0.0000 29.4563
#
#
#
# Elastic Compliance Matrix: (Units=1/GPa)
#
#
# Indices 1 2 3 4 5 6 
#
# 1 0.016271 -0.007293 -0.002066 0.000000 0.000000 0.000000
# 2 -0.007293 0.016608 -0.003314 0.000000 0.000000 0.000000
# 3 -0.002066 -0.003314 0.008618 0.000000 0.000000 0.000000
# 4 0.000000 0.000000 0.000000 0.026636 0.000000 0.000000
# 5 0.000000 0.000000 0.000000 0.000000 0.031323 0.000000
# 6 0.000000 0.000000 0.000000 0.000000 0.000000 0.033949
#
#
# Mechanical properties :
#
#
# Convention : Reuss Voigt Hill
#
# Bulk Modulus (GPa) = 61.91416 64.24483 63.07950
# Shear Modulus (GPa) = 30.46261 32.40657 31.43459
#
# Velocity S-wave (km/s) = 3.74728 3.86499 3.80659
# Velocity P-wave (km/s) = 6.87480 7.03790 6.95682
#
# Compressibility (1/GPa) = 0.01615139
#
# Stress axis : x y z
#
# Youngs Moduli (GPa) = 61.45917 60.21062 116.02980
#
# Poissons Ratio (x) = 0.43912 0.23971
# Poissons Ratio (y) = 0.44822 0.38456
# Poissons Ratio (z) = 0.12697 0.19956
#
# Static dielectric constant tensor:
#      x y z
#    x 3.973470 0.000000 0.000000 
#    y 0.000000 2.474250 0.000000 
#    z 0.000000 0.000000 4.263040 
# 
# 
# High freq. dielectric constant tensor:
#      x y z
#    x 1.853690 0.000000 0.000000 
#    y 0.000000 1.851960 0.000000 
#    z 0.000000 0.000000 1.875430 
# 
# From -- ./inp_files/37600.got.cif
#   From: 2010.03.12/outbox.cif.g09.slc.cpg/sg63_19_cif.got.tgz:37600.got - 2010.04.10 19:34:48.
