data_PCOD8260845
_publ_section_title
;
Structure prediction by ZEFSAII (Michael W. Deem and Ramdas Pophale) SiO2 
 PCOD8260845
Probable space group: C M C M
;
_chemical_formula_sum "Si O2"
_cell_formula_units_Z 72
_cell_length_a 10.566707
_cell_length_b 25.035495
_cell_length_c 14.202488
_cell_angle_alpha 90.000000
_cell_angle_beta 90.000000
_cell_angle_gamma 90.000000
_cell_volume 3757.165094
_symmetry_space_group_name_H-M "C M C M"
_symmetry_group_IT_number 63
_symmetry_cell_setting 'orthorhombic'
loop_
_space_group_symop_operation_xyz
x,y,z
-x,-y,1/2+z
x,-y,-z
-x,y,1/2-z
-x,-y,-z
x,y,1/2-z
-x,y,z
x,-y,1/2+z
1/2+x,1/2+y,z
1/2-x,1/2-y,1/2+z
1/2+x,1/2-y,-z
1/2-x,1/2+y,1/2-z
1/2-x,1/2-y,-z
1/2+x,1/2+y,1/2-z
1/2-x,1/2+y,z
1/2+x,1/2-y,1/2+z
loop_
_atom_site_type_symbol
_atom_site_label
_atom_site_fract_x
_atom_site_fract_y
_atom_site_fract_z
Si Si1 0.000000 0.342182 0.141582
Si Si2 0.349771 0.654130 0.250000
Si Si3 0.644207 0.396368 0.553254
Si Si4 0.144065 0.251825 0.750000
Si Si5 0.703968 0.000000 0.000000
Si Si6 0.500000 0.031747 0.858057
Si Si7 0.238837 0.199949 0.567241
O O1 0.000000 0.405180 0.128780
O O2 0.120553 0.318066 0.091030
O O3 0.000000 0.324973 0.250000
O O4 0.500000 0.671616 0.250000
O O5 0.314915 0.619146 0.159009
O O6 0.256124 0.704653 0.250000
O O7 0.500000 0.413316 0.552835
O O8 0.716061 0.447260 0.514681
O O9 0.664663 0.346810 0.484592
O O10 0.158960 0.214385 0.659363
O O11 0.000000 0.276021 0.750000
O O12 0.622867 0.993152 0.094100
O O13 0.500000 0.014383 0.750000
O O14 0.250000 0.250000 0.500000
#
# Coordination Sequence:
#
# PCOD8260845 Si02
#       7
#     8   8  16   8   8   8  16
#     4  11  23  43  67  89 126 177 222 257 324 393
#     4  10  24  44  67  96 131 175 218 266 332 397
#     4  11  24  44  67  96 130 171 218 269 327 394
#     4  12  26  42  61 100 135 171 218 274 326 381
#     4  11  23  44  68  96 127 171 218 266 334 385
#     4  10  23  43  66  97 129 164 220 273 319 390
#     4  12  25  40  65  94 132 171 216 268 322 389
#
# _framework density 19.163385000000002
#
# number of rings (size 3 to 8) (size 9 to 14) (size 15 to 20)
#    0.000    0.889    5.556    1.000    6.222    0.000 
#    4.000    0.000    0.000    0.000    0.000    0.000 
#    0.000    0.000    0.000    0.000    0.000    0.000 
#
# Total GULP energy -446504.917547 kJ/mol
# GULP energy per Si atom -12402.914376 kJ/mol
# Density = 1.911977 g / cm^3
# Si number density = 19.163385 Si / 1000 Ang^3
#
#
#
# Elastic Constant Matrix: (Units=GPa)
#
#
# Indices 1 2 3 4 5 6 
#
# 1 77.1289 25.0770 32.8371 0.0000 0.0000 0.0000
# 2 25.0770 113.2431 57.7534 0.0000 0.0000 0.0000
# 3 32.8371 57.7534 145.1348 0.0000 0.0000 0.0000
# 4 0.0000 0.0000 0.0000 28.8226 0.0000 0.0000
# 5 0.0000 0.0000 0.0000 0.0000 24.0927 0.0000
# 6 0.0000 0.0000 0.0000 0.0000 0.0000 -57.8582
#
#
#
# Elastic Compliance Matrix: (Units=1/GPa)
#
#
# Indices 1 2 3 4 5 6 
#
# 1 0.014684 -0.001954 -0.002545 0.000000 0.000000 0.000000
# 2 -0.001954 0.011339 -0.004070 0.000000 0.000000 0.000000
# 3 -0.002545 -0.004070 0.009085 0.000000 0.000000 0.000000
# 4 0.000000 0.000000 0.000000 0.034695 0.000000 0.000000
# 5 0.000000 0.000000 0.000000 0.000000 0.041506 0.000000
# 6 0.000000 0.000000 0.000000 0.000000 0.000000 -0.017284
#
#
# Mechanical properties :
#
#
# Convention : Reuss Voigt Hill
#
# Bulk Modulus (GPa) = 55.64500 62.98242 59.31371
# Shear Modulus (GPa) = 42.67895 13.66739 28.17317
#
# Velocity S-wave (km/s) = 4.72435 2.67348 3.83842
# Velocity P-wave (km/s) = 7.67199 6.51670 7.11782
#
# Compressibility (1/GPa) = 0.01797107
#
# Stress axis : x y z
#
# Youngs Moduli (GPa) = 68.10140 88.19178 110.06557
#
# Poissons Ratio (x) = 0.17231 0.28009
# Poissons Ratio (y) = 0.13306 0.44797
# Poissons Ratio (z) = 0.17330 0.35894
#
# Static dielectric constant tensor:
#      x y z
#    x 3.593220 0.000000 0.000000 
#    y 0.000000 3.489130 0.000000 
#    z 0.000000 0.000000 3.795200 
# 
# 
# High freq. dielectric constant tensor:
#      x y z
#    x 1.756680 0.000000 0.000000 
#    y 0.000000 1.749190 0.000000 
#    z 0.000000 0.000000 1.764440 
# 
# From -- ./inp_files/28000.got.cif
#   From: 2010.03.12/outbox.cif.g09.slc.cpg/sg63_14_cif.got.tgz:28000.got - 2010.04.10 19:34:48.
