data_PCOD8260224
_publ_section_title
;
Structure prediction by ZEFSAII (Michael W. Deem and Ramdas Pophale) SiO2 
 PCOD8260224
Probable space group: C M C M
;
_chemical_formula_sum "Si O2"
_cell_formula_units_Z 112
_cell_length_a 15.128696
_cell_length_b 21.714317
_cell_length_c 15.065039
_cell_angle_alpha 90.000000
_cell_angle_beta 90.000000
_cell_angle_gamma 90.000000
_cell_volume 4949.005428
_symmetry_space_group_name_H-M "C M C M"
_symmetry_group_IT_number 63
_symmetry_cell_setting 'orthorhombic'
loop_
_space_group_symop_operation_xyz
x,y,z
-x,-y,1/2+z
x,-y,-z
-x,y,1/2-z
-x,-y,-z
x,y,1/2-z
-x,y,z
x,-y,1/2+z
1/2+x,1/2+y,z
1/2-x,1/2-y,1/2+z
1/2+x,1/2-y,-z
1/2-x,1/2+y,1/2-z
1/2-x,1/2-y,-z
1/2+x,1/2+y,1/2-z
1/2-x,1/2+y,z
1/2+x,1/2-y,1/2+z
loop_
_atom_site_type_symbol
_atom_site_label
_atom_site_fract_x
_atom_site_fract_y
_atom_site_fract_z
Si Si1 0.899178 0.625199 0.853600
Si Si2 0.727390 0.980586 0.096760
Si Si3 0.596565 0.086971 0.147844
Si Si4 0.135598 0.277961 0.849611
Si Si5 0.595939 0.321557 0.017097
Si Si6 0.898767 0.075040 0.651042
Si Si7 0.664033 0.739986 0.349098
O O1 0.882069 0.613286 0.750000
O O2 0.830262 0.582294 0.906110
O O3 0.883351 0.696680 0.876855
O O4 0.000000 0.608211 0.879414
O O5 0.821518 0.976621 0.148755
O O6 0.666490 0.033108 0.137350
O O7 0.755818 0.000000 0.000000
O O8 0.579374 0.095756 0.250000
O O9 0.500000 0.072526 0.103010
O O10 0.634689 0.152114 0.112873
O O11 0.094222 0.273551 0.750000
O O12 0.082976 0.238330 0.921224
O O13 0.232505 0.248996 0.846509
O O14 0.500000 0.342548 0.984920
O O15 0.635650 0.375774 0.078317
O O16 0.648609 0.310666 0.925786
O O17 0.898479 0.104318 0.750000
O O18 0.000000 0.051247 0.631097
O O19 0.631548 0.718418 0.250000
#
# Coordination Sequence:
#
# PCOD8260224 Si02
#       7
#    16  16  16  16  16  16  16
#     4  10  21  39  62  90 128 176 225 267 313 376
#     4  12  26  39  63  92 125 167 213 271 329 389
#     4  10  22  40  61  89 128 172 216 263 319 384
#     4  10  21  37  60  91 129 169 214 265 322 381
#     4  11  22  36  64  96 127 162 205 262 324 387
#     4  10  23  45  71  97 124 162 219 279 333 389
#     4  10  22  39  63  93 132 176 216 260 317 388
#
# _framework density 22.63081
#
# number of rings (size 3 to 8) (size 9 to 14) (size 15 to 20)
#    0.000    1.571    0.000    4.286    4.000    6.000 
#    0.000    0.000    0.000    0.000    0.000    0.000 
#    0.000    0.000    0.000    0.000    0.000    0.000 
#
# Total GULP energy -693914.984647 kJ/mol
# GULP energy per Si atom -12391.339012 kJ/mol
# Density = 2.257930 g / cm^3
# Si number density = 22.630810 Si / 1000 Ang^3
#
#
#
# Elastic Constant Matrix: (Units=GPa)
#
#
# Indices 1 2 3 4 5 6 
#
# 1 142.2341 45.5729 31.2263 0.0000 0.0000 0.0000
# 2 45.5729 71.8110 24.6323 0.0000 0.0000 0.0000
# 3 31.2263 24.6323 107.4492 0.0000 0.0000 0.0000
# 4 0.0000 0.0000 0.0000 35.9262 0.0000 0.0000
# 5 0.0000 0.0000 0.0000 0.0000 3.1132 0.0000
# 6 0.0000 0.0000 0.0000 0.0000 0.0000 28.1507
#
#
#
# Elastic Compliance Matrix: (Units=1/GPa)
#
#
# Indices 1 2 3 4 5 6 
#
# 1 0.009021 -0.005237 -0.001421 0.000000 0.000000 0.000000
# 2 -0.005237 0.018155 -0.002640 0.000000 0.000000 0.000000
# 3 -0.001421 -0.002640 0.010325 0.000000 0.000000 0.000000
# 4 0.000000 0.000000 0.000000 0.027835 0.000000 0.000000
# 5 0.000000 0.000000 0.000000 0.000000 0.321213 0.000000
# 6 0.000000 0.000000 0.000000 0.000000 0.000000 0.035523
#
#
# Mechanical properties :
#
#
# Convention : Reuss Voigt Hill
#
# Bulk Modulus (GPa) = 52.89877 58.26192 55.58035
# Shear Modulus (GPa) = 11.18647 28.10888 19.64768
#
# Velocity S-wave (km/s) = 2.22570 3.52811 2.94969
# Velocity P-wave (km/s) = 5.48000 6.51131 6.01779
#
# Compressibility (1/GPa) = 0.01890403
#
# Stress axis : x y z
#
# Youngs Moduli (GPa) = 110.85625 55.08221 96.85389
#
# Poissons Ratio (x) = 0.28848 0.13762
# Poissons Ratio (y) = 0.58059 0.25568
# Poissons Ratio (z) = 0.15752 0.14541
#
# Static dielectric constant tensor:
#      x y z
#    x 4.106680 0.000000 0.000000 
#    y 0.000000 3.962910 0.000000 
#    z 0.000000 0.000000 3.948380 
# 
# 
# High freq. dielectric constant tensor:
#      x y z
#    x 1.905210 0.000000 0.000000 
#    y 0.000000 1.866590 0.000000 
#    z 0.000000 0.000000 1.892430 
# 
# From -- ./inp_files/32329.got.cif
#   From: 2010.03.12/outbox.cif.g09.slc.cpg/sg63_17_cif.got.tgz:32329.got - 2010.04.10 19:34:48.
