data_PCOD8260953
_publ_section_title
;
Structure prediction by ZEFSAII (Michael W. Deem and Ramdas Pophale) SiO2 
 PCOD8260953
Probable space group: C M C M
;
_chemical_formula_sum "Si O2"
_cell_formula_units_Z 96
_cell_length_a 8.335048
_cell_length_b 24.885150
_cell_length_c 23.690765
_cell_angle_alpha 90.000000
_cell_angle_beta 90.000000
_cell_angle_gamma 90.000000
_cell_volume 4913.912884
_symmetry_space_group_name_H-M "C M C M"
_symmetry_group_IT_number 63
_symmetry_cell_setting 'orthorhombic'
loop_
_space_group_symop_operation_xyz
x,y,z
-x,-y,1/2+z
x,-y,-z
-x,y,1/2-z
-x,-y,-z
x,y,1/2-z
-x,y,z
x,-y,1/2+z
1/2+x,1/2+y,z
1/2-x,1/2-y,1/2+z
1/2+x,1/2-y,-z
1/2-x,1/2+y,1/2-z
1/2-x,1/2-y,-z
1/2+x,1/2+y,1/2-z
1/2-x,1/2+y,z
1/2+x,1/2-y,1/2+z
loop_
_atom_site_type_symbol
_atom_site_label
_atom_site_fract_x
_atom_site_fract_y
_atom_site_fract_z
Si Si1 0.690808 0.273553 0.750000
Si Si2 0.309667 0.235339 0.869092
Si Si3 0.185578 0.018390 0.561539
Si Si4 0.686033 0.134725 0.560717
Si Si5 0.809573 0.103286 0.250000
Si Si6 0.313487 0.334214 0.942773
Si Si7 0.315127 0.072922 0.368187
O O1 0.500000 0.271752 0.750000
O O2 0.759203 0.243854 0.694190
O O3 0.749213 0.335052 0.750000
O O4 0.500000 0.240201 0.867994
O O5 0.255169 0.177549 0.892379
O O6 0.245094 0.282294 0.910027
O O7 0.209662 0.081707 0.569410
O O8 0.000000 0.004009 0.569326
O O9 0.246772 0.000000 0.500000
O O10 0.287947 0.986988 0.608255
O O11 0.500000 0.120449 0.568357
O O12 0.710984 0.160212 0.499310
O O13 0.738380 0.072821 0.196406
O O14 0.000000 0.099289 0.250000
O O15 0.500000 0.328547 0.958631
O O16 0.293617 0.386077 0.903446
O O17 0.500000 0.089279 0.374124
#
# Coordination Sequence:
#
# PCOD8260953 Si02
#       7
#     8  16  16  16   8  16  16
#     4   9  16  33  60  85 112 153 196 234 277 345
#     4   9  19  34  56  86 118 154 198 240 292 357
#     4  11  23  40  62  84 113 157 204 244 296 363
#     4  11  22  36  56  87 122 156 194 247 304 352
#     4  11  21  39  66  89 120 159 198 238 287 353
#     4  11  20  35  58  86 119 158 198 236 290 361
#     4  12  24  38  60  92 124 151 194 251 300 342
#
# _framework density 19.536366000000001
#
# number of rings (size 3 to 8) (size 9 to 14) (size 15 to 20)
#    0.000    1.333    3.333    3.750    0.000    0.667 
#    0.000    3.333    0.000    2.000    0.000    0.000 
#    0.000    0.000    0.000    0.000    0.000    0.000 
#
# Total GULP energy -595439.294241 kJ/mol
# GULP energy per Si atom -12404.985297 kJ/mol
# Density = 1.949190 g / cm^3
# Si number density = 19.536366 Si / 1000 Ang^3
#
#
#
# Elastic Constant Matrix: (Units=GPa)
#
#
# Indices 1 2 3 4 5 6 
#
# 1 49.5450 14.5495 17.1550 0.0000 0.0000 0.0000
# 2 14.5495 130.9339 68.4531 0.0000 0.0000 0.0000
# 3 17.1550 68.4531 144.1120 0.0000 0.0000 0.0000
# 4 0.0000 0.0000 0.0000 26.7004 0.0000 0.0000
# 5 0.0000 0.0000 0.0000 0.0000 21.6202 0.0000
# 6 0.0000 0.0000 0.0000 0.0000 0.0000 16.4198
#
#
#
# Elastic Compliance Matrix: (Units=1/GPa)
#
#
# Indices 1 2 3 4 5 6 
#
# 1 0.021237 -0.001381 -0.001872 0.000000 0.000000 0.000000
# 2 -0.001381 0.010250 -0.004705 0.000000 0.000000 0.000000
# 3 -0.001872 -0.004705 0.009397 0.000000 0.000000 0.000000
# 4 0.000000 0.000000 0.000000 0.037453 0.000000 0.000000
# 5 0.000000 0.000000 0.000000 0.000000 0.046253 0.000000
# 6 0.000000 0.000000 0.000000 0.000000 0.000000 0.060902
#
#
# Mechanical properties :
#
#
# Convention : Reuss Voigt Hill
#
# Bulk Modulus (GPa) = 40.04978 58.32291 49.18634
# Shear Modulus (GPa) = 23.84008 27.91030 25.87519
#
# Velocity S-wave (km/s) = 3.49706 3.78383 3.64327
# Velocity P-wave (km/s) = 6.07046 7.00058 6.55205
#
# Compressibility (1/GPa) = 0.02496893
#
# Stress axis : x y z
#
# Youngs Moduli (GPa) = 47.08656 97.55623 106.42199
#
# Poissons Ratio (x) = 0.13475 0.19922
# Poissons Ratio (y) = 0.06504 0.50067
# Poissons Ratio (z) = 0.08815 0.45896
#
# Static dielectric constant tensor:
#      x y z
#    x 3.293070 0.000000 0.000000 
#    y 0.000000 3.545270 0.000000 
#    z 0.000000 0.000000 3.818510 
# 
# 
# High freq. dielectric constant tensor:
#      x y z
#    x 1.746910 0.000000 0.000000 
#    y 0.000000 1.758780 0.000000 
#    z 0.000000 0.000000 1.762570 
# 
# From -- ./inp_files/60012.got.cif
#   From: 2010.03.12/outbox.cif.g09.slc.cpg/sg63_31_cif.got.tgz:60012.got - 2010.04.10 19:34:48.
