data_PCOD8260169
_publ_section_title
;
Structure prediction by ZEFSAII (Michael W. Deem and Ramdas Pophale) SiO2 
 PCOD8260169
Probable space group: C M C M
;
_chemical_formula_sum "Si O2"
_cell_formula_units_Z 112
_cell_length_a 14.053873
_cell_length_b 17.679589
_cell_length_c 23.557497
_cell_angle_alpha 90.000000
_cell_angle_beta 90.000000
_cell_angle_gamma 90.000000
_cell_volume 5853.253504
_symmetry_space_group_name_H-M "C M C M"
_symmetry_group_IT_number 63
_symmetry_cell_setting 'orthorhombic'
loop_
_space_group_symop_operation_xyz
x,y,z
-x,-y,1/2+z
x,-y,-z
-x,y,1/2-z
-x,-y,-z
x,y,1/2-z
-x,y,z
x,-y,1/2+z
1/2+x,1/2+y,z
1/2-x,1/2-y,1/2+z
1/2+x,1/2-y,-z
1/2-x,1/2+y,1/2-z
1/2-x,1/2-y,-z
1/2+x,1/2+y,1/2-z
1/2-x,1/2+y,z
1/2+x,1/2-y,1/2+z
loop_
_atom_site_type_symbol
_atom_site_label
_atom_site_fract_x
_atom_site_fract_y
_atom_site_fract_z
Si Si1 0.890803 0.819440 0.377513
Si Si2 0.762335 0.115845 0.421644
Si Si3 0.603401 0.021836 0.314323
Si Si4 0.895531 0.214264 0.495608
Si Si5 0.889947 0.383372 0.491440
Si Si6 0.245930 0.546758 0.898458
Si Si7 0.309128 0.181838 0.185702
O O1 0.879232 0.776584 0.437239
O O2 0.823473 0.892538 0.379033
O O3 0.860046 0.761296 0.328235
O O4 0.000000 0.844812 0.366877
O O5 0.820713 0.156405 0.470724
O O6 0.652949 0.110000 0.444607
O O7 0.770673 0.163118 0.362508
O O8 0.801844 0.030614 0.414500
O O9 0.607712 0.994941 0.250000
O O10 0.500000 0.004163 0.340553
O O11 0.681344 0.971172 0.344602
O O12 0.618287 0.112089 0.318565
O O13 0.884496 0.297173 0.468997
O O14 0.000000 0.181182 0.482726
O O15 0.823514 0.431320 0.449897
O O16 0.000000 0.411550 0.492242
O O17 0.266337 0.187065 0.250000
#
# Coordination Sequence:
#
# PCOD8260169 Si02
#       7
#    16  16  16  16  16  16  16
#     4  11  22  37  56  81 114 149 189 234 276 321
#     4  11  21  37  57  81 116 149 184 224 277 340
#     4   9  19  37  58  80 109 146 186 228 277 337
#     4  10  21  37  58  80 110 151 191 232 272 322
#     4  11  21  34  54  82 113 145 181 229 283 331
#     4  11  23  34  53  83 117 149 181 224 281 337
#     4  10  21  37  61  85 108 143 188 235 283 329
#
# _framework density 19.134658000000002
#
# number of rings (size 3 to 8) (size 9 to 14) (size 15 to 20)
#    0.000    1.571    2.857    2.571    0.000    5.429 
#    0.000    1.429    0.000    0.429    0.000    4.000 
#    0.000    0.000    0.000    0.000    0.000    0.000 
#
# Total GULP energy -694112.245156 kJ/mol
# GULP energy per Si atom -12394.861521 kJ/mol
# Density = 1.909111 g / cm^3
# Si number density = 19.134658 Si / 1000 Ang^3
#
#
#
# Elastic Constant Matrix: (Units=GPa)
#
#
# Indices 1 2 3 4 5 6 
#
# 1 69.3663 39.6683 29.3066 0.0000 0.0000 0.0000
# 2 39.6683 97.7179 35.4607 0.0000 0.0000 0.0000
# 3 29.3066 35.4607 91.7602 0.0000 0.0000 0.0000
# 4 0.0000 0.0000 0.0000 29.2141 0.0000 0.0000
# 5 0.0000 0.0000 0.0000 0.0000 17.2015 0.0000
# 6 0.0000 0.0000 0.0000 0.0000 0.0000 14.3677
#
#
#
# Elastic Compliance Matrix: (Units=1/GPa)
#
#
# Indices 1 2 3 4 5 6 
#
# 1 0.019824 -0.006688 -0.003747 0.000000 0.000000 0.000000
# 2 -0.006688 0.014159 -0.003336 0.000000 0.000000 0.000000
# 3 -0.003747 -0.003336 0.013384 0.000000 0.000000 0.000000
# 4 0.000000 0.000000 0.000000 0.034230 0.000000 0.000000
# 5 0.000000 0.000000 0.000000 0.000000 0.058134 0.000000
# 6 0.000000 0.000000 0.000000 0.000000 0.000000 0.069600
#
#
# Mechanical properties :
#
#
# Convention : Reuss Voigt Hill
#
# Bulk Modulus (GPa) = 50.43961 51.96839 51.20400
# Shear Modulus (GPa) = 20.53553 22.45059 21.49306
#
# Velocity S-wave (km/s) = 3.27954 3.42905 3.35513
# Velocity P-wave (km/s) = 6.38421 6.54952 6.46739
#
# Compressibility (1/GPa) = 0.01982569
#
# Stress axis : x y z
#
# Youngs Moduli (GPa) = 50.44467 70.62697 74.71734
#
# Poissons Ratio (x) = 0.47233 0.27996
# Poissons Ratio (y) = 0.33736 0.24924
# Poissons Ratio (z) = 0.18901 0.23560
#
# Static dielectric constant tensor:
#      x y z
#    x 3.421120 0.000000 0.000000 
#    y 0.000000 3.517960 0.000000 
#    z 0.000000 0.000000 3.698910 
# 
# 
# High freq. dielectric constant tensor:
#      x y z
#    x 1.723590 0.000000 0.000000 
#    y 0.000000 1.749970 0.000000 
#    z 0.000000 0.000000 1.741910 
# 
# From -- ./inp_files/63021.got.cif
#   From: 2010.03.12/outbox.cif.g09.slc.cpg/sg63_32_cif.got.tgz:63021.got - 2010.04.10 19:34:48.
