data_PCOD8260392
_publ_section_title
;
Structure prediction by ZEFSAII (Michael W. Deem and Ramdas Pophale) SiO2 
 PCOD8260392
Probable space group: C M C M
;
_chemical_formula_sum "Si O2"
_cell_formula_units_Z 64
_cell_length_a 20.442218
_cell_length_b 16.393194
_cell_length_c 10.168735
_cell_angle_alpha 90.000000
_cell_angle_beta 90.000000
_cell_angle_gamma 90.000000
_cell_volume 3407.677788
_symmetry_space_group_name_H-M "C M C M"
_symmetry_group_IT_number 63
_symmetry_cell_setting 'orthorhombic'
loop_
_space_group_symop_operation_xyz
x,y,z
-x,-y,1/2+z
x,-y,-z
-x,y,1/2-z
-x,-y,-z
x,y,1/2-z
-x,y,z
x,-y,1/2+z
1/2+x,1/2+y,z
1/2-x,1/2-y,1/2+z
1/2+x,1/2-y,-z
1/2-x,1/2+y,1/2-z
1/2-x,1/2-y,-z
1/2+x,1/2+y,1/2-z
1/2-x,1/2+y,z
1/2+x,1/2-y,1/2+z
loop_
_atom_site_type_symbol
_atom_site_label
_atom_site_fract_x
_atom_site_fract_y
_atom_site_fract_z
Si Si1 0.748523 0.994156 0.250000
Si Si2 0.886010 0.573617 0.750000
Si Si3 0.837990 0.000000 0.500000
Si Si4 0.924636 0.678812 0.995630
Si Si5 0.423788 0.642706 0.402160
Si Si6 0.365819 0.105590 0.250000
O O1 0.711484 0.082161 0.250000
O O2 0.693470 0.922467 0.250000
O O3 0.792676 0.984411 0.376426
O O4 0.914815 0.614272 0.879745
O O5 0.908278 0.478383 0.750000
O O6 0.883412 0.921070 0.512541
O O7 0.902595 0.766959 0.944244
O O8 0.000000 0.678799 0.039055
O O9 0.880627 0.657790 0.120763
O O10 0.406473 0.629911 0.250000
O O11 0.500000 0.628068 0.429081
#
# Coordination Sequence:
#
# PCOD8260392 Si02
#       6
#     8   8   8  16  16   8
#     4  10  24  40  60  88 124 162 208 260 274 360
#     4  10  21  39  61  84 128 167 204 250 300 354
#     4  12  21  44  66  86 115 172 202 242 320 358
#     4  11  21  38  63  92 126 160 200 254 314 364
#     4  10  22  41  65  96 125 150 199 262 314 370
#     4  10  23  39  57  90 134 159 202 258 290 350
#
# _framework density 18.781120000000001
#
# number of rings (size 3 to 8) (size 9 to 14) (size 15 to 20)
#    0.750    0.750    2.500    3.375    0.000    4.000 
#    0.000    8.750    0.000    0.000    0.000    0.000 
#    0.000    0.000    0.000    0.000    0.000    0.000 
#
# Total GULP energy -396842.077285 kJ/mol
# GULP energy per Si atom -12401.314915 kJ/mol
# Density = 1.873837 g / cm^3
# Si number density = 18.781120 Si / 1000 Ang^3
#
#
#
# Elastic Constant Matrix: (Units=GPa)
#
#
# Indices 1 2 3 4 5 6 
#
# 1 81.6856 47.6349 49.4110 0.0000 0.0000 0.0000
# 2 47.6349 80.2044 17.8887 0.0000 0.0000 0.0000
# 3 49.4110 17.8887 122.9143 0.0000 0.0000 0.0000
# 4 0.0000 0.0000 0.0000 350.1655 0.0000 0.0000
# 5 0.0000 0.0000 0.0000 0.0000 44.8630 0.0000
# 6 0.0000 0.0000 0.0000 0.0000 0.0000 4.1142
#
#
#
# Elastic Compliance Matrix: (Units=1/GPa)
#
#
# Indices 1 2 3 4 5 6 
#
# 1 0.024543 -0.012791 -0.008005 0.000000 0.000000 0.000000
# 2 -0.012791 0.019553 0.002296 0.000000 0.000000 0.000000
# 3 -0.008005 0.002296 0.011019 0.000000 0.000000 0.000000
# 4 0.000000 0.000000 0.000000 0.002856 0.000000 0.000000
# 5 0.000000 0.000000 0.000000 0.000000 0.022290 0.000000
# 6 0.000000 0.000000 0.000000 0.000000 0.000000 0.243062
#
#
# Mechanical properties :
#
#
# Convention : Reuss Voigt Hill
#
# Bulk Modulus (GPa) = 55.19878 57.18593 56.19235
# Shear Modulus (GPa) = 13.64770 91.15319 52.40044
#
# Velocity S-wave (km/s) = 2.69861 6.97423 5.28783
# Velocity P-wave (km/s) = 6.25814 9.76565 8.20159
#
# Compressibility (1/GPa) = 0.01811634
#
# Stress axis : x y z
#
# Youngs Moduli (GPa) = 40.74427 51.14303 90.74919
#
# Poissons Ratio (x) = 0.65419 0.72642
# Poissons Ratio (y) = 0.52118 -0.20839
# Poissons Ratio (z) = 0.32614 -0.11744
#
# Static dielectric constant tensor:
#      x y z
#    x 3.422490 0.000000 0.000000 
#    y 0.000000 3.426590 0.000000 
#    z 0.000000 0.000000 3.882280 
# 
# 
# High freq. dielectric constant tensor:
#      x y z
#    x 1.728760 0.000000 0.000000 
#    y 0.000000 1.726960 0.000000 
#    z 0.000000 0.000000 1.740170 
# 
# From -- ./inp_files/7570.got.cif
#   From: 2010.03.12/outbox.cif.g09.slc.cpg/sg63_4_cif.got.tgz:7570.got - 2010.04.10 19:34:48.
