data_PCOD8260303
_publ_section_title
;
Structure prediction by ZEFSAII (Michael W. Deem and Ramdas Pophale) SiO2 
 PCOD8260303
Probable space group: C M C M
;
_chemical_formula_sum "Si O2"
_cell_formula_units_Z 112
_cell_length_a 18.855251
_cell_length_b 12.275766
_cell_length_c 24.353314
_cell_angle_alpha 90.000000
_cell_angle_beta 90.000000
_cell_angle_gamma 90.000000
_cell_volume 5636.882574
_symmetry_space_group_name_H-M "C M C M"
_symmetry_group_IT_number 63
_symmetry_cell_setting 'orthorhombic'
loop_
_space_group_symop_operation_xyz
x,y,z
-x,-y,1/2+z
x,-y,-z
-x,y,1/2-z
-x,-y,-z
x,y,1/2-z
-x,y,z
x,-y,1/2+z
1/2+x,1/2+y,z
1/2-x,1/2-y,1/2+z
1/2+x,1/2-y,-z
1/2-x,1/2+y,1/2-z
1/2-x,1/2-y,-z
1/2+x,1/2+y,1/2-z
1/2-x,1/2+y,z
1/2+x,1/2-y,1/2+z
loop_
_atom_site_type_symbol
_atom_site_label
_atom_site_fract_x
_atom_site_fract_y
_atom_site_fract_z
Si Si1 0.169486 0.913972 0.610069
Si Si2 0.421640 0.906887 0.455875
Si Si3 0.917930 0.833038 0.508900
Si Si4 0.818630 0.509027 0.866840
Si Si5 0.634660 0.801232 0.688220
Si Si6 0.295737 0.229094 0.810837
Si Si7 0.080735 0.887436 0.114879
O O1 0.134349 0.894896 0.550584
O O2 0.251795 0.948360 0.604945
O O3 0.160158 0.804931 0.646826
O O4 0.128046 0.014100 0.638919
O O5 0.500000 0.904496 0.428505
O O6 0.406035 0.795170 0.487023
O O7 0.416793 0.000000 0.500000
O O8 0.362131 0.924742 0.411335
O O9 0.895138 0.864651 0.447556
O O10 0.000000 0.865667 0.521098
O O11 0.869829 0.422477 0.836985
O O12 0.795072 0.600944 0.823851
O O13 0.603589 0.801915 0.750000
O O14 0.715510 0.766626 0.688265
O O15 0.588767 0.720435 0.651211
O O16 0.328137 0.246005 0.750000
O O17 0.000000 0.925210 0.116953
#
# Coordination Sequence:
#
# PCOD8260303 Si02
#       7
#    16  16  16  16  16  16  16
#     4  11  22  38  62  94 122 159 207 251 307 366
#     4  10  21  38  60  86 120 161 201 244 303 368
#     4  10  21  39  62  87 124 168 204 247 305 371
#     4  11  21  39  63  91 118 158 202 261 308 362
#     4  10  22  39  60  87 120 160 205 252 308 369
#     4  10  21  40  63  88 120 157 203 255 309 361
#     4  11  23  40  62  90 128 166 204 249 306 370
#
# _framework density 19.869138
#
# number of rings (size 3 to 8) (size 9 to 14) (size 15 to 20)
#    0.000    1.571    2.857    2.143    0.000    5.429 
#    0.000    2.857    0.000    4.286    0.000    0.000 
#    0.000    0.000    0.000    0.000    0.000    0.000 
#
# Total GULP energy -694435.580390 kJ/mol
# GULP energy per Si atom -12400.635364 kJ/mol
# Density = 1.982392 g / cm^3
# Si number density = 19.869138 Si / 1000 Ang^3
#
#
#
# Elastic Constant Matrix: (Units=GPa)
#
#
# Indices 1 2 3 4 5 6 
#
# 1 57.9588 20.2306 33.8013 0.0000 0.0000 0.0000
# 2 20.2306 117.5730 26.1258 0.0000 0.0000 0.0000
# 3 33.8013 26.1258 99.6862 0.0000 0.0000 0.0000
# 4 0.0000 0.0000 0.0000 27.0828 0.0000 0.0000
# 5 0.0000 0.0000 0.0000 0.0000 7.2944 0.0000
# 6 0.0000 0.0000 0.0000 0.0000 0.0000 33.3647
#
#
#
# Elastic Compliance Matrix: (Units=1/GPa)
#
#
# Indices 1 2 3 4 5 6 
#
# 1 0.022061 -0.002266 -0.006886 0.000000 0.000000 0.000000
# 2 -0.002266 0.009264 -0.001660 0.000000 0.000000 0.000000
# 3 -0.006886 -0.001660 0.012801 0.000000 0.000000 0.000000
# 4 0.000000 0.000000 0.000000 0.036924 0.000000 0.000000
# 5 0.000000 0.000000 0.000000 0.000000 0.137091 0.000000
# 6 0.000000 0.000000 0.000000 0.000000 0.000000 0.029972
#
#
# Mechanical properties :
#
#
# Convention : Reuss Voigt Hill
#
# Bulk Modulus (GPa) = 44.43957 48.39259 46.41608
# Shear Modulus (GPa) = 18.03510 26.55240 22.29375
#
# Velocity S-wave (km/s) = 3.01606 3.65960 3.35330
# Velocity P-wave (km/s) = 5.87738 6.50118 6.19713
#
# Compressibility (1/GPa) = 0.02250247
#
# Stress axis : x y z
#
# Youngs Moduli (GPa) = 45.32962 107.94473 78.11590
#
# Poissons Ratio (x) = 0.24457 0.53794
# Poissons Ratio (y) = 0.10270 0.12965
# Poissons Ratio (z) = 0.31216 0.17915
#
# Static dielectric constant tensor:
#      x y z
#    x 3.489350 0.000000 0.000000 
#    y 0.000000 3.969200 0.000000 
#    z 0.000000 0.000000 3.949780 
# 
# 
# High freq. dielectric constant tensor:
#      x y z
#    x 1.760220 0.000000 0.000000 
#    y 0.000000 1.800140 0.000000 
#    z 0.000000 0.000000 1.766610 
# 
# From -- ./inp_files/64652.got.cif
#   From: 2010.03.12/outbox.cif.g09.slc.cpg/sg63_33_cif.got.tgz:64652.got - 2010.04.10 19:34:48.
