data_PCOD8260269
_publ_section_title
;
Structure prediction by ZEFSAII (Michael W. Deem and Ramdas Pophale) SiO2 
 PCOD8260269
Probable space group: C M C M
;
_chemical_formula_sum "Si O2"
_cell_formula_units_Z 80
_cell_length_a 14.433904
_cell_length_b 12.043078
_cell_length_c 22.384705
_cell_angle_alpha 90.000000
_cell_angle_beta 90.000000
_cell_angle_gamma 90.000000
_cell_volume 3891.102642
_symmetry_space_group_name_H-M "C M C M"
_symmetry_group_IT_number 63
_symmetry_cell_setting 'orthorhombic'
loop_
_space_group_symop_operation_xyz
x,y,z
-x,-y,1/2+z
x,-y,-z
-x,y,1/2-z
-x,-y,-z
x,y,1/2-z
-x,y,z
x,-y,1/2+z
1/2+x,1/2+y,z
1/2-x,1/2-y,1/2+z
1/2+x,1/2-y,-z
1/2-x,1/2+y,1/2-z
1/2-x,1/2-y,-z
1/2+x,1/2+y,1/2-z
1/2-x,1/2+y,z
1/2+x,1/2-y,1/2+z
loop_
_atom_site_type_symbol
_atom_site_label
_atom_site_fract_x
_atom_site_fract_y
_atom_site_fract_z
Si Si1 0.104870 0.683854 0.137948
Si Si2 0.609802 0.583025 0.412297
Si Si3 0.106832 0.148829 0.960714
Si Si4 0.604646 0.052972 0.681905
Si Si5 0.793689 0.230766 0.317377
O O1 0.124885 0.733500 0.071837
O O2 0.116561 0.551007 0.137319
O O3 0.181694 0.734809 0.182010
O O4 0.000000 0.715938 0.159156
O O5 0.500000 0.596599 0.399735
O O6 0.645546 0.649619 0.471616
O O7 0.641891 0.454743 0.420396
O O8 0.667092 0.630337 0.356666
O O9 0.000000 0.123072 0.969791
O O10 0.630318 0.016671 0.750000
O O11 0.500000 0.097537 0.679565
O O12 0.669435 0.151512 0.658202
O O13 0.828871 0.212765 0.250000
#
# Coordination Sequence:
#
# PCOD8260269 Si02
#       5
#    16  16  16  16  16
#     4  10  21  38  59  82 114 156 197 236 284 346
#     4   9  18  36  61  89 121 151 186 244 304 347
#     4   8  17  36  61  86 115 153 193 239 298 351
#     4   9  19  37  56  77 114 156 187 230 293 343
#     4  11  23  35  57  87 116 153 198 238 285 351
#
# _framework density 20.559726000000001
#
# number of rings (size 3 to 8) (size 9 to 14) (size 15 to 20)
#    0.000    2.600    0.000    2.400    2.800    3.200 
#    0.000    2.000    0.000   12.000    0.000    0.000 
#    0.000    0.000    0.000    0.000    0.000    0.000 
#
# Total GULP energy -495710.952757 kJ/mol
# GULP energy per Si atom -12392.773819 kJ/mol
# Density = 2.051293 g / cm^3
# Si number density = 20.559726 Si / 1000 Ang^3
#
#
#
# Elastic Constant Matrix: (Units=GPa)
#
#
# Indices 1 2 3 4 5 6 
#
# 1 93.7643 48.1775 29.8543 0.0000 0.0000 0.0000
# 2 48.1775 103.6334 53.7317 0.0000 0.0000 0.0000
# 3 29.8543 53.7317 95.9161 0.0000 0.0000 0.0000
# 4 0.0000 0.0000 0.0000 42.2736 0.0000 0.0000
# 5 0.0000 0.0000 0.0000 0.0000 19.6792 0.0000
# 6 0.0000 0.0000 0.0000 0.0000 0.0000 24.0556
#
#
#
# Elastic Compliance Matrix: (Units=1/GPa)
#
#
# Indices 1 2 3 4 5 6 
#
# 1 0.014081 -0.006023 -0.001009 0.000000 0.000000 0.000000
# 2 -0.006023 0.016176 -0.007187 0.000000 0.000000 0.000000
# 3 -0.001009 -0.007187 0.014766 0.000000 0.000000 0.000000
# 4 0.000000 0.000000 0.000000 0.023655 0.000000 0.000000
# 5 0.000000 0.000000 0.000000 0.000000 0.050815 0.000000
# 6 0.000000 0.000000 0.000000 0.000000 0.000000 0.041570
#
#
# Mechanical properties :
#
#
# Convention : Reuss Voigt Hill
#
# Bulk Modulus (GPa) = 60.29447 61.87120 61.08283
# Shear Modulus (GPa) = 25.63727 27.97171 26.80449
#
# Velocity S-wave (km/s) = 3.53507 3.69251 3.61465
# Velocity P-wave (km/s) = 6.78620 6.95257 6.86989
#
# Compressibility (1/GPa) = 0.01658527
#
# Stress axis : x y z
#
# Youngs Moduli (GPa) = 71.01817 61.82150 67.72430
#
# Poissons Ratio (x) = 0.37235 0.06831
# Poissons Ratio (y) = 0.42774 0.48672
# Poissons Ratio (z) = 0.07164 0.44430
#
# Static dielectric constant tensor:
#      x y z
#    x 3.732920 0.000000 0.000000 
#    y 0.000000 3.592380 0.000000 
#    z 0.000000 0.000000 3.554940 
# 
# 
# High freq. dielectric constant tensor:
#      x y z
#    x 1.799460 0.000000 0.000000 
#    y 0.000000 1.797460 0.000000 
#    z 0.000000 0.000000 1.784750 
# 
# From -- ./inp_files/62562.got.cif
#   From: 2010.03.12/outbox.cif.g09.slc.cpg/sg63_32_cif.got.tgz:62562.got - 2010.04.10 19:34:48.
