data_PCOD8260564
_publ_section_title
;
Structure prediction by ZEFSAII (Michael W. Deem and Ramdas Pophale) SiO2 
 PCOD8260564
Probable space group: C M C M
;
_chemical_formula_sum "Si O2"
_cell_formula_units_Z 72
_cell_length_a 20.140831
_cell_length_b 19.605851
_cell_length_c 9.455208
_cell_angle_alpha 90.000000
_cell_angle_beta 90.000000
_cell_angle_gamma 90.000000
_cell_volume 3733.654869
_symmetry_space_group_name_H-M "C M C M"
_symmetry_group_IT_number 63
_symmetry_cell_setting 'orthorhombic'
loop_
_space_group_symop_operation_xyz
x,y,z
-x,-y,1/2+z
x,-y,-z
-x,y,1/2-z
-x,-y,-z
x,y,1/2-z
-x,y,z
x,-y,1/2+z
1/2+x,1/2+y,z
1/2-x,1/2-y,1/2+z
1/2+x,1/2-y,-z
1/2-x,1/2+y,1/2-z
1/2-x,1/2-y,-z
1/2+x,1/2+y,1/2-z
1/2-x,1/2+y,z
1/2+x,1/2-y,1/2+z
loop_
_atom_site_type_symbol
_atom_site_label
_atom_site_fract_x
_atom_site_fract_y
_atom_site_fract_z
Si Si1 0.804998 0.289271 0.086465
Si Si2 0.421199 0.562862 0.590362
Si Si3 0.000000 0.565484 0.590982
Si Si4 0.075771 0.192967 0.412108
Si Si5 0.355517 0.930656 0.085918
O O1 0.785892 0.283165 0.250000
O O2 0.877368 0.257177 0.058390
O O3 0.806611 0.369140 0.040097
O O4 0.750000 0.250000 0.000000
O O5 0.391442 0.500000 0.500000
O O6 0.392002 0.561709 0.750000
O O7 0.500000 0.556779 0.595715
O O8 0.399848 0.632299 0.513574
O O9 0.000000 0.500000 0.500000
O O10 0.929659 0.602381 0.560205
O O11 0.000000 0.539458 0.750000
O O12 0.081241 0.167532 0.250000
O O13 0.000000 0.214992 0.446149
O O14 0.345369 0.949046 0.250000
O O15 0.341234 0.000000 0.000000
#
# Coordination Sequence:
#
# PCOD8260564 Si02
#       5
#    16  16   8  16  16
#     4  10  22  38  56  79 110 147 183 222 273 329
#     4   9  16  27  46  73 105 137 171 216 268 318
#     4   8  14  26  48  78 110 136 167 214 265 316
#     4   9  18  33  54  78 103 136 181 227 273 326
#     4   9  18  33  55  82 110 142 180 222 271 325
#
# _framework density 19.284053
#
# number of rings (size 3 to 8) (size 9 to 14) (size 15 to 20)
#    0.000    2.889    0.000    0.667    1.556    4.444 
#    0.000    1.111    0.000    2.667    0.000    0.000 
#    0.000    0.000    0.000    0.000    0.000    0.000 
#
# Total GULP energy -446025.184806 kJ/mol
# GULP energy per Si atom -12389.588467 kJ/mol
# Density = 1.924016 g / cm^3
# Si number density = 19.284053 Si / 1000 Ang^3
#
#
#
# Elastic Constant Matrix: (Units=GPa)
#
#
# Indices 1 2 3 4 5 6 
#
# 1 72.3066 57.3375 39.1398 0.0000 0.0000 0.0000
# 2 57.3375 148.4710 75.5348 0.0000 0.0000 0.0000
# 3 39.1398 75.5348 99.5342 0.0000 0.0000 0.0000
# 4 0.0000 0.0000 0.0000 31.7827 0.0000 0.0000
# 5 0.0000 0.0000 0.0000 0.0000 23.7629 0.0000
# 6 0.0000 0.0000 0.0000 0.0000 0.0000 22.9707
#
#
#
# Elastic Compliance Matrix: (Units=1/GPa)
#
#
# Indices 1 2 3 4 5 6 
#
# 1 0.020603 -0.006246 -0.003361 0.000000 0.000000 0.000000
# 2 -0.006246 0.012865 -0.007307 0.000000 0.000000 0.000000
# 3 -0.003361 -0.007307 0.016913 0.000000 0.000000 0.000000
# 4 0.000000 0.000000 0.000000 0.031464 0.000000 0.000000
# 5 0.000000 0.000000 0.000000 0.000000 0.042082 0.000000
# 6 0.000000 0.000000 0.000000 0.000000 0.000000 0.043534
#
#
# Mechanical properties :
#
#
# Convention : Reuss Voigt Hill
#
# Bulk Modulus (GPa) = 60.41455 73.81511 67.11483
# Shear Modulus (GPa) = 24.17713 25.58991 24.88352
#
# Velocity S-wave (km/s) = 3.54466 3.64675 3.59607
# Velocity P-wave (km/s) = 6.93899 7.48950 7.21949
#
# Compressibility (1/GPa) = 0.01655230
#
# Stress axis : x y z
#
# Youngs Moduli (GPa) = 48.53720 77.73100 59.12456
#
# Poissons Ratio (x) = 0.48554 0.19874
# Poissons Ratio (y) = 0.30318 0.43200
# Poissons Ratio (z) = 0.16315 0.56795
#
# Static dielectric constant tensor:
#      x y z
#    x 3.176820 0.000000 0.000000 
#    y 0.000000 3.400830 0.000000 
#    z 0.000000 0.000000 3.603600 
# 
# 
# High freq. dielectric constant tensor:
#      x y z
#    x 1.726120 0.000000 0.000000 
#    y 0.000000 1.746420 0.000000 
#    z 0.000000 0.000000 1.747590 
# 
# From -- ./inp_files/9861.got.cif
#   From: 2010.03.12/outbox.cif.g09.slc.cpg/sg63_5_cif.got.tgz:9861.got - 2010.04.10 19:34:48.
