data_PCOD8260750
_publ_section_title
;
Structure prediction by ZEFSAII (Michael W. Deem and Ramdas Pophale) SiO2 
 PCOD8260750
Probable space group: C M C M
;
_chemical_formula_sum "Si O2"
_cell_formula_units_Z 64
_cell_length_a 7.703998
_cell_length_b 19.266736
_cell_length_c 18.914390
_cell_angle_alpha 90.000000
_cell_angle_beta 90.000000
_cell_angle_gamma 90.000000
_cell_volume 2807.479848
_symmetry_space_group_name_H-M "C M C M"
_symmetry_group_IT_number 63
_symmetry_cell_setting 'orthorhombic'
loop_
_space_group_symop_operation_xyz
x,y,z
-x,-y,1/2+z
x,-y,-z
-x,y,1/2-z
-x,-y,-z
x,y,1/2-z
-x,y,z
x,-y,1/2+z
1/2+x,1/2+y,z
1/2-x,1/2-y,1/2+z
1/2+x,1/2-y,-z
1/2-x,1/2+y,1/2-z
1/2-x,1/2-y,-z
1/2+x,1/2+y,1/2-z
1/2-x,1/2+y,z
1/2+x,1/2-y,1/2+z
loop_
_atom_site_type_symbol
_atom_site_label
_atom_site_fract_x
_atom_site_fract_y
_atom_site_fract_z
Si Si1 0.799605 0.744859 0.671537
Si Si2 0.500000 0.001439 0.666451
Si Si3 0.800384 0.178293 0.035774
Si Si4 0.500000 0.924318 0.966025
Si Si5 0.809529 0.901633 0.166951
O O1 0.726193 0.763338 0.750000
O O2 0.771352 0.810402 0.620188
O O3 0.709469 0.676549 0.636628
O O4 0.000000 0.724942 0.677164
O O5 0.500000 0.983936 0.750000
O O6 0.500000 0.931687 0.619736
O O7 0.332801 0.044575 0.639784
O O8 0.672789 0.117252 0.009728
O O9 0.000000 0.157502 0.019280
O O10 0.750000 0.250000 0.000000
O O11 0.500000 0.000000 0.000000
O O12 0.782037 0.893272 0.250000
O O13 0.000000 0.930838 0.147270
#
# Coordination Sequence:
#
# PCOD8260750 Si02
#       5
#    16   8  16   8  16
#     4   9  18  35  63  99 135 168 221 286 339 394
#     4  10  22  42  64  92 140 178 216 275 344 405
#     4  11  25  46  72  99 135 182 230 284 345 405
#     4  12  30  48  68 102 139 184 227 281 350 414
#     4   9  17  30  56  95 131 171 214 263 329 402
#
# _framework density 22.796244000000002
#
# number of rings (size 3 to 8) (size 9 to 14) (size 15 to 20)
#    0.000    2.000    2.500    0.000    5.250    2.500 
#    0.000    0.000    0.000    0.000    0.000    0.000 
#    0.000    0.000    0.000    0.000    0.000    0.000 
#
# Total GULP energy -396689.805185 kJ/mol
# GULP energy per Si atom -12396.556412 kJ/mol
# Density = 2.274436 g / cm^3
# Si number density = 22.796244 Si / 1000 Ang^3
#
#
#
# Elastic Constant Matrix: (Units=GPa)
#
#
# Indices 1 2 3 4 5 6 
#
# 1 177.2576 67.8213 18.5960 0.0000 0.0000 0.0000
# 2 67.8213 110.7006 31.2378 0.0000 0.0000 0.0000
# 3 18.5960 31.2378 56.1970 0.0000 0.0000 0.0000
# 4 0.0000 0.0000 0.0000 38.5649 0.0000 0.0000
# 5 0.0000 0.0000 0.0000 0.0000 17.8128 0.0000
# 6 0.0000 0.0000 0.0000 0.0000 0.0000 30.7993
#
#
#
# Elastic Compliance Matrix: (Units=1/GPa)
#
#
# Indices 1 2 3 4 5 6 
#
# 1 0.007369 -0.004539 0.000084 0.000000 0.000000 0.000000
# 2 -0.004539 0.013509 -0.006007 0.000000 0.000000 0.000000
# 3 0.000084 -0.006007 0.021106 0.000000 0.000000 0.000000
# 4 0.000000 0.000000 0.000000 0.025930 0.000000 0.000000
# 5 0.000000 0.000000 0.000000 0.000000 0.056139 0.000000
# 6 0.000000 0.000000 0.000000 0.000000 0.000000 0.032468
#
#
# Mechanical properties :
#
#
# Convention : Reuss Voigt Hill
#
# Bulk Modulus (GPa) = 47.48118 64.38502 55.93310
# Shear Modulus (GPa) = 27.10531 32.53542 29.82037
#
# Velocity S-wave (km/s) = 3.45197 3.78196 3.62073
# Velocity P-wave (km/s) = 6.06315 6.88302 6.48606
#
# Compressibility (1/GPa) = 0.02106098
#
# Stress axis : x y z
#
# Youngs Moduli (GPa) = 135.70038 74.02412 47.38006
#
# Poissons Ratio (x) = 0.33596 -0.00399
# Poissons Ratio (y) = 0.61588 0.28463
# Poissons Ratio (z) = -0.01144 0.44469
#
# Static dielectric constant tensor:
#      x y z
#    x 4.223970 0.000000 0.000000 
#    y 0.000000 3.773110 0.000000 
#    z 0.000000 0.000000 4.384800 
# 
# 
# High freq. dielectric constant tensor:
#      x y z
#    x 1.904890 0.000000 0.000000 
#    y 0.000000 1.863170 0.000000 
#    z 0.000000 0.000000 1.908210 
# 
# From -- ./inp_files/50335.got.cif
#   From: 2010.03.12/outbox.cif.g09.slc.cpg/sg63_26_cif.got.tgz:50335.got - 2010.04.10 19:34:48.
