data_PCOD8260513
_publ_section_title
;
Structure prediction by ZEFSAII (Michael W. Deem and Ramdas Pophale) SiO2 
 PCOD8260513
Probable space group: C M C M
;
_chemical_formula_sum "Si O2"
_cell_formula_units_Z 64
_cell_length_a 18.307277
_cell_length_b 7.555961
_cell_length_c 21.021651
_cell_angle_alpha 90.000000
_cell_angle_beta 90.000000
_cell_angle_gamma 90.000000
_cell_volume 2907.905454
_symmetry_space_group_name_H-M "C M C M"
_symmetry_group_IT_number 63
_symmetry_cell_setting 'orthorhombic'
loop_
_space_group_symop_operation_xyz
x,y,z
-x,-y,1/2+z
x,-y,-z
-x,y,1/2-z
-x,-y,-z
x,y,1/2-z
-x,y,z
x,-y,1/2+z
1/2+x,1/2+y,z
1/2-x,1/2-y,1/2+z
1/2+x,1/2-y,-z
1/2-x,1/2+y,1/2-z
1/2-x,1/2-y,-z
1/2+x,1/2+y,1/2-z
1/2-x,1/2+y,z
1/2+x,1/2-y,1/2+z
loop_
_atom_site_type_symbol
_atom_site_label
_atom_site_fract_x
_atom_site_fract_y
_atom_site_fract_z
Si Si1 0.583490 0.793748 0.995699
Si Si2 0.191355 0.541296 0.821243
Si Si3 0.836358 0.169597 0.624387
Si Si4 0.916869 0.171788 0.362019
O O1 0.500000 0.767548 0.971246
O O2 0.640360 0.701394 0.948375
O O3 0.594405 0.701481 0.063090
O O4 0.602389 0.000000 0.000000
O O5 0.224575 0.536043 0.750000
O O6 0.156825 0.351622 0.837153
O O7 0.253887 0.593868 0.871924
O O8 0.127510 0.684530 0.822390
O O9 0.889696 0.024569 0.655764
O O10 0.000000 0.192666 0.341052
#
# Coordination Sequence:
#
# PCOD8260513 Si02
#       4
#    16  16  16  16
#     4  10  21  42  71 105 145 179 219 286 358 422
#     4  12  27  46  67  98 140 184 237 294 342 403
#     4  12  24  44  72 101 135 189 230 282 352 413
#     4  11  25  46  72 105 142 180 226 286 355 421
#
# _framework density 22.008967999999999
#
# number of rings (size 3 to 8) (size 9 to 14) (size 15 to 20)
#    0.000    0.750    5.000    2.250    0.000    5.500 
#    4.500    0.000    0.000    6.750    0.000    0.000 
#    0.000    0.000    0.000    0.000    0.000    0.000 
#
# Total GULP energy -396953.865655 kJ/mol
# GULP energy per Si atom -12404.808302 kJ/mol
# Density = 2.195888 g / cm^3
# Si number density = 22.008968 Si / 1000 Ang^3
#
#
#
# Elastic Constant Matrix: (Units=GPa)
#
#
# Indices 1 2 3 4 5 6 
#
# 1 100.8640 32.7250 37.2845 0.0000 0.0000 0.0000
# 2 32.7250 155.5333 31.0937 0.0000 0.0000 0.0000
# 3 37.2845 31.0937 68.4708 0.0000 0.0000 0.0000
# 4 0.0000 0.0000 0.0000 3.1148 0.0000 0.0000
# 5 0.0000 0.0000 0.0000 0.0000 24.2721 0.0000
# 6 0.0000 0.0000 0.0000 0.0000 0.0000 42.7836
#
#
#
# Elastic Compliance Matrix: (Units=1/GPa)
#
#
# Indices 1 2 3 4 5 6 
#
# 1 0.012691 -0.001417 -0.006267 0.000000 0.000000 0.000000
# 2 -0.001417 0.007230 -0.002511 0.000000 0.000000 0.000000
# 3 -0.006267 -0.002511 0.019158 0.000000 0.000000 0.000000
# 4 0.000000 0.000000 0.000000 0.321049 0.000000 0.000000
# 5 0.000000 0.000000 0.000000 0.000000 0.041200 0.000000
# 6 0.000000 0.000000 0.000000 0.000000 0.000000 0.023373
#
#
# Mechanical properties :
#
#
# Convention : Reuss Voigt Hill
#
# Bulk Modulus (GPa) = 53.51293 58.56384 56.03839
# Shear Modulus (GPa) = 11.07860 28.95177 20.01518
#
# Velocity S-wave (km/s) = 2.24602 3.63085 3.01891
# Velocity P-wave (km/s) = 5.57612 6.65164 6.13748
#
# Compressibility (1/GPa) = 0.01868707
#
# Stress axis : x y z
#
# Youngs Moduli (GPa) = 78.79752 138.31696 52.19824
#
# Poissons Ratio (x) = 0.19604 0.32712
# Poissons Ratio (y) = 0.11168 0.13109
# Poissons Ratio (z) = 0.49381 0.34737
#
# Static dielectric constant tensor:
#      x y z
#    x 3.957530 0.000000 0.000000 
#    y 0.000000 4.272400 0.000000 
#    z 0.000000 0.000000 3.963690 
# 
# 
# High freq. dielectric constant tensor:
#      x y z
#    x 1.862730 0.000000 0.000000 
#    y 0.000000 1.893110 0.000000 
#    z 0.000000 0.000000 1.849960 
# 
# From -- ./inp_files/55017.got.cif
#   From: 2010.03.12/outbox.cif.g09.slc.cpg/sg63_28_cif.got.tgz:55017.got - 2010.04.10 19:34:48.
