data_PCOD8260068
_publ_section_title
;
Structure prediction by ZEFSAII (Michael W. Deem and Ramdas Pophale) SiO2 
 PCOD8260068
Probable space group: C M C M
;
_chemical_formula_sum "Si O2"
_cell_formula_units_Z 112
_cell_length_a 27.992383
_cell_length_b 10.972215
_cell_length_c 17.624326
_cell_angle_alpha 90.000000
_cell_angle_beta 90.000000
_cell_angle_gamma 90.000000
_cell_volume 5413.108075
_symmetry_space_group_name_H-M "C M C M"
_symmetry_group_IT_number 63
_symmetry_cell_setting 'orthorhombic'
loop_
_space_group_symop_operation_xyz
x,y,z
-x,-y,1/2+z
x,-y,-z
-x,y,1/2-z
-x,-y,-z
x,y,1/2-z
-x,y,z
x,-y,1/2+z
1/2+x,1/2+y,z
1/2-x,1/2-y,1/2+z
1/2+x,1/2-y,-z
1/2-x,1/2+y,1/2-z
1/2-x,1/2-y,-z
1/2+x,1/2+y,1/2-z
1/2-x,1/2+y,z
1/2+x,1/2-y,1/2+z
loop_
_atom_site_type_symbol
_atom_site_label
_atom_site_fract_x
_atom_site_fract_y
_atom_site_fract_z
Si Si1 0.553054 0.375609 0.336826
Si Si2 0.054044 0.273533 0.080145
Si Si3 0.116757 0.443863 0.162648
Si Si4 0.119536 0.056024 0.421510
Si Si5 0.552247 0.124495 0.421055
Si Si6 0.714675 0.620012 0.340213
Si Si7 0.722651 0.892057 0.160505
O O1 0.563414 0.337044 0.250000
O O2 0.500000 0.436275 0.342947
O O3 0.595199 0.463685 0.363060
O O4 0.554258 0.260799 0.391228
O O5 0.082142 0.327727 0.152338
O O6 0.079246 0.151074 0.053068
O O7 0.000000 0.244292 0.103566
O O8 0.056927 0.373185 0.012472
O O9 0.118624 0.481298 0.250000
O O10 0.096385 0.556108 0.115586
O O11 0.169162 0.414161 0.130160
O O12 0.163131 0.119313 0.378548
O O13 0.138802 0.000000 0.500000
O O14 0.500000 0.067169 0.399304
O O15 0.708249 0.612887 0.250000
O O16 0.738786 0.752666 0.361793
O O17 0.744100 0.502097 0.371682
O O18 0.723010 0.904067 0.250000
#
# Coordination Sequence:
#
# PCOD8260068 Si02
#       7
#    16  16  16  16  16  16  16
#     4  10  21  36  57  87 121 162 211 260 305 360
#     4  11  23  39  61  87 124 172 211 247 310 381
#     4  11  22  38  62  93 123 156 206 265 316 373
#     4  12  23  39  61  89 125 166 209 255 315 372
#     4  10  21  38  58  85 125 169 208 250 307 377
#     4  10  21  42  67  92 122 162 210 265 321 386
#     4   9  20  39  65  91 121 159 203 258 325 382
#
# _framework density 20.690517
#
# number of rings (size 3 to 8) (size 9 to 14) (size 15 to 20)
#    0.000    1.571    2.857    2.143    0.000    5.143 
#    0.000    5.000    0.000    0.000    0.000    0.000 
#    0.000    0.000    0.000    0.000    0.000    0.000 
#
# Total GULP energy -694199.671101 kJ/mol
# GULP energy per Si atom -12396.422698 kJ/mol
# Density = 2.064342 g / cm^3
# Si number density = 20.690517 Si / 1000 Ang^3
#
#
#
# Elastic Constant Matrix: (Units=GPa)
#
#
# Indices 1 2 3 4 5 6 
#
# 1 114.6583 56.8559 25.6283 0.0000 0.0000 0.0000
# 2 56.8559 108.4236 9.6767 0.0000 0.0000 0.0000
# 3 25.6283 9.6767 45.4159 0.0000 0.0000 0.0000
# 4 0.0000 0.0000 0.0000 25.4722 0.0000 0.0000
# 5 0.0000 0.0000 0.0000 0.0000 23.8109 0.0000
# 6 0.0000 0.0000 0.0000 0.0000 0.0000 42.3965
#
#
#
# Elastic Compliance Matrix: (Units=1/GPa)
#
#
# Indices 1 2 3 4 5 6 
#
# 1 0.013269 -0.006412 -0.006122 0.000000 0.000000 0.000000
# 2 -0.006412 0.012500 0.000955 0.000000 0.000000 0.000000
# 3 -0.006122 0.000955 0.025270 0.000000 0.000000 0.000000
# 4 0.000000 0.000000 0.000000 0.039259 0.000000 0.000000
# 5 0.000000 0.000000 0.000000 0.000000 0.041998 0.000000
# 6 0.000000 0.000000 0.000000 0.000000 0.000000 0.023587
#
#
# Mechanical properties :
#
#
# Convention : Reuss Voigt Hill
#
# Bulk Modulus (GPa) = 35.86580 50.31330 43.08955
# Shear Modulus (GPa) = 26.54859 30.09171 28.32015
#
# Velocity S-wave (km/s) = 3.58596 3.81776 3.70368
# Velocity P-wave (km/s) = 5.87517 6.61843 6.25784
#
# Compressibility (1/GPa) = 0.02788171
#
# Stress axis : x y z
#
# Youngs Moduli (GPa) = 75.36137 79.99876 39.57296
#
# Poissons Ratio (x) = 0.51295 0.24226
# Poissons Ratio (y) = 0.48321 -0.03779
# Poissons Ratio (z) = 0.46134 -0.07639
#
# Static dielectric constant tensor:
#      x y z
#    x 3.796540 0.000000 0.000000 
#    y 0.000000 3.927970 0.000000 
#    z 0.000000 0.000000 3.534970 
# 
# 
# High freq. dielectric constant tensor:
#      x y z
#    x 1.804710 0.000000 0.000000 
#    y 0.000000 1.820760 0.000000 
#    z 0.000000 0.000000 1.793840 
# 
# From -- ./inp_files/38569.got.cif
#   From: 2010.03.12/outbox.cif.g09.slc.cpg/sg63_20_cif.got.tgz:38569.got - 2010.04.10 19:34:48.
