data_PCOD8260208
_publ_section_title
;
Structure prediction by ZEFSAII (Michael W. Deem and Ramdas Pophale) SiO2 
 PCOD8260208
Probable space group: C M C M
;
_chemical_formula_sum "Si O2"
_cell_formula_units_Z 96
_cell_length_a 19.881165
_cell_length_b 27.441661
_cell_length_c 8.885036
_cell_angle_alpha 90.000000
_cell_angle_beta 90.000000
_cell_angle_gamma 90.000000
_cell_volume 4847.428551
_symmetry_space_group_name_H-M "C M C M"
_symmetry_group_IT_number 63
_symmetry_cell_setting 'orthorhombic'
loop_
_space_group_symop_operation_xyz
x,y,z
-x,-y,1/2+z
x,-y,-z
-x,y,1/2-z
-x,-y,-z
x,y,1/2-z
-x,y,z
x,-y,1/2+z
1/2+x,1/2+y,z
1/2-x,1/2-y,1/2+z
1/2+x,1/2-y,-z
1/2-x,1/2+y,1/2-z
1/2-x,1/2-y,-z
1/2+x,1/2+y,1/2-z
1/2-x,1/2+y,z
1/2+x,1/2-y,1/2+z
loop_
_atom_site_type_symbol
_atom_site_label
_atom_site_fract_x
_atom_site_fract_y
_atom_site_fract_z
Si Si1 0.577582 0.051185 0.425923
Si Si2 0.922828 0.232533 0.573916
Si Si3 0.193945 0.604234 0.573753
Si Si4 0.923131 0.132444 0.076006
Si Si5 0.817211 0.051132 0.427703
Si Si6 0.694857 0.783973 0.425294
O O1 0.593843 0.048307 0.250000
O O2 0.500000 0.064079 0.456269
O O3 0.620952 0.093506 0.503440
O O4 0.597454 0.000000 0.500000
O O5 0.909845 0.236245 0.750000
O O6 0.900866 0.178842 0.521284
O O7 0.878587 0.273093 0.491844
O O8 0.000000 0.242761 0.530575
O O9 0.192607 0.592841 0.750000
O O10 0.247275 0.569529 0.494116
O O11 0.212921 0.660120 0.540946
O O12 0.912791 0.146146 0.250000
O O13 0.876851 0.087668 0.027001
O O14 0.000000 0.117668 0.041937
O O15 0.809692 0.045488 0.250000
O O16 0.837023 0.000000 0.500000
O O17 0.693834 0.772647 0.250000
O O18 0.750000 0.750000 0.500000
#
# Coordination Sequence:
#
# PCOD8260208 Si02
#       6
#    16  16  16  16  16  16
#     4  10  21  38  61  87 115 148 185 227 277 332
#     4  10  21  37  59  87 118 152 189 231 280 335
#     4  11  24  40  58  82 113 148 188 233 280 332
#     4   9  19  37  60  85 114 150 191 233 280 334
#     4  11  23  38  58  83 113 149 188 233 283 335
#     4  11  24  40  60  85 114 150 190 236 287 338
#
# _framework density 19.804314000000002
#
# number of rings (size 3 to 8) (size 9 to 14) (size 15 to 20)
#    0.000    1.667    0.000    4.000    0.000    9.667 
#    0.000    3.333    0.000    0.000    0.000    0.000 
#    0.000    0.000    0.000    0.000    0.000    0.000 
#
# Total GULP energy -595515.839457 kJ/mol
# GULP energy per Si atom -12406.579989 kJ/mol
# Density = 1.975924 g / cm^3
# Si number density = 19.804314 Si / 1000 Ang^3
#
#
#
# Elastic Constant Matrix: (Units=GPa)
#
#
# Indices 1 2 3 4 5 6 
#
# 1 75.7826 22.0440 29.9324 0.0000 0.0000 0.0000
# 2 22.0440 57.2467 33.2197 0.0000 0.0000 0.0000
# 3 29.9324 33.2197 91.8204 0.0000 0.0000 0.0000
# 4 0.0000 0.0000 0.0000 35.1409 0.0000 0.0000
# 5 0.0000 0.0000 0.0000 0.0000 33.3383 0.0000
# 6 0.0000 0.0000 0.0000 0.0000 0.0000 41.3395
#
#
#
# Elastic Compliance Matrix: (Units=1/GPa)
#
#
# Indices 1 2 3 4 5 6 
#
# 1 0.015812 -0.003921 -0.003736 0.000000 0.000000 0.000000
# 2 -0.003921 0.023082 -0.007073 0.000000 0.000000 0.000000
# 3 -0.003736 -0.007073 0.014668 0.000000 0.000000 0.000000
# 4 0.000000 0.000000 0.000000 0.028457 0.000000 0.000000
# 5 0.000000 0.000000 0.000000 0.000000 0.029996 0.000000
# 6 0.000000 0.000000 0.000000 0.000000 0.000000 0.024190
#
#
# Mechanical properties :
#
#
# Convention : Reuss Voigt Hill
#
# Bulk Modulus (GPa) = 41.48925 43.91575 42.70250
# Shear Modulus (GPa) = 28.78573 31.27398 30.02986
#
# Velocity S-wave (km/s) = 3.81663 3.97816 3.89823
# Velocity P-wave (km/s) = 6.35746 6.58210 6.47075
#
# Compressibility (1/GPa) = 0.02410263
#
# Stress axis : x y z
#
# Youngs Moduli (GPa) = 63.24414 43.32326 68.17747
#
# Poissons Ratio (x) = 0.16986 0.25471
# Poissons Ratio (y) = 0.24796 0.48221
# Poissons Ratio (z) = 0.23628 0.30642
#
# Static dielectric constant tensor:
#      x y z
#    x 3.755550 0.000000 0.000000 
#    y 0.000000 3.696580 0.000000 
#    z 0.000000 0.000000 3.700470 
# 
# 
# High freq. dielectric constant tensor:
#      x y z
#    x 1.783370 0.000000 0.000000 
#    y 0.000000 1.771340 0.000000 
#    z 0.000000 0.000000 1.784880 
# 
# From -- ./inp_files/8643.got.cif
#   From: 2010.03.12/outbox.cif.g09.slc.cpg/sg63_5_cif.got.tgz:8643.got - 2010.04.10 19:34:48.
