data_PCOD8260487
_publ_section_title
;
Structure prediction by ZEFSAII (Michael W. Deem and Ramdas Pophale) SiO2 
 PCOD8260487
Probable space group: C M C M
;
_chemical_formula_sum "Si O2"
_cell_formula_units_Z 56
_cell_length_a 28.841227
_cell_length_b 5.133452
_cell_length_c 16.803842
_cell_angle_alpha 90.000000
_cell_angle_beta 90.000000
_cell_angle_gamma 90.000000
_cell_volume 2487.893742
_symmetry_space_group_name_H-M "C M C M"
_symmetry_group_IT_number 63
_symmetry_cell_setting 'orthorhombic'
loop_
_space_group_symop_operation_xyz
x,y,z
-x,-y,1/2+z
x,-y,-z
-x,y,1/2-z
-x,-y,-z
x,y,1/2-z
-x,y,z
x,-y,1/2+z
1/2+x,1/2+y,z
1/2-x,1/2-y,1/2+z
1/2+x,1/2-y,-z
1/2-x,1/2+y,1/2-z
1/2-x,1/2-y,-z
1/2+x,1/2+y,1/2-z
1/2-x,1/2+y,z
1/2+x,1/2-y,1/2+z
loop_
_atom_site_type_symbol
_atom_site_label
_atom_site_fract_x
_atom_site_fract_y
_atom_site_fract_z
Si Si1 0.500000 0.247162 0.944971
Si Si2 0.448213 0.555604 0.839387
Si Si3 0.130167 0.746306 0.446181
Si Si4 0.279850 0.172580 0.158775
O O1 0.454191 0.279162 0.888015
O O2 0.500000 0.500000 0.000000
O O3 0.500000 0.000000 0.000000
O O4 0.430895 0.496637 0.750000
O O5 0.500000 0.690927 0.838621
O O6 0.411823 0.738056 0.883575
O O7 0.119257 0.500000 0.500000
O O8 0.177316 0.710677 0.398685
O O9 0.134418 0.000000 0.500000
O O10 0.296727 0.194223 0.250000
O O11 0.241450 0.390631 0.140571
#
# Coordination Sequence:
#
# PCOD8260487 Si02
#       4
#     8  16  16  16
#     4  10  21  40  67  96 129 168 221 286 345 396
#     4   9  22  46  70  98 136 187 237 287 345 418
#     4  12  26  42  67 102 139 182 228 289 352 414
#     4  10  22  43  70  98 133 179 228 283 345 416
#
# _framework density 22.509003
#
# number of rings (size 3 to 8) (size 9 to 14) (size 15 to 20)
#    0.857    0.857    0.000    3.429    0.000    8.571 
#    0.000   10.000    0.000    0.000    0.000    0.000 
#    0.000    0.000    0.000    0.000    0.000    0.000 
#
# Total GULP energy -346969.672471 kJ/mol
# GULP energy per Si atom -12391.774017 kJ/mol
# Density = 2.245777 g / cm^3
# Si number density = 22.509003 Si / 1000 Ang^3
#
#
#
# Elastic Constant Matrix: (Units=GPa)
#
#
# Indices 1 2 3 4 5 6 
#
# 1 84.7283 16.3198 72.7076 0.0000 0.0000 0.0000
# 2 16.3198 121.0552 78.3963 0.0000 0.0000 0.0000
# 3 72.7076 78.3963 196.0906 0.0000 0.0000 0.0000
# 4 0.0000 0.0000 0.0000 28.6601 0.0000 0.0000
# 5 0.0000 0.0000 0.0000 0.0000 65.9936 0.0000
# 6 0.0000 0.0000 0.0000 0.0000 0.0000 24.7781
#
#
#
# Elastic Compliance Matrix: (Units=1/GPa)
#
#
# Indices 1 2 3 4 5 6 
#
# 1 0.017871 0.002539 -0.007641 0.000000 0.000000 0.000000
# 2 0.002539 0.011508 -0.005542 0.000000 0.000000 0.000000
# 3 -0.007641 -0.005542 0.010149 0.000000 0.000000 0.000000
# 4 0.000000 0.000000 0.000000 0.034892 0.000000 0.000000
# 5 0.000000 0.000000 0.000000 0.000000 0.015153 0.000000
# 6 0.000000 0.000000 0.000000 0.000000 0.000000 0.040358
#
#
# Mechanical properties :
#
#
# Convention : Reuss Voigt Hill
#
# Bulk Modulus (GPa) = 54.82914 81.85795 68.34354
# Shear Modulus (GPa) = 31.78680 39.51637 35.65158
#
# Velocity S-wave (km/s) = 3.76198 4.19451 3.98412
# Velocity P-wave (km/s) = 6.57888 7.73978 7.18282
#
# Compressibility (1/GPa) = 0.01823848
#
# Stress axis : x y z
#
# Youngs Moduli (GPa) = 55.95779 86.89929 98.53373
#
# Poissons Ratio (x) = -0.22068 0.75294
# Poissons Ratio (y) = -0.14210 0.54610
# Poissons Ratio (z) = 0.42760 0.48162
#
# Static dielectric constant tensor:
#      x y z
#    x 4.039210 0.000000 0.000000 
#    y 0.000000 3.107540 0.000000 
#    z 0.000000 0.000000 4.461720 
# 
# 
# High freq. dielectric constant tensor:
#      x y z
#    x 1.884350 0.000000 0.000000 
#    y 0.000000 1.876260 0.000000 
#    z 0.000000 0.000000 1.913720 
# 
# From -- ./inp_files/48583.got.cif
#   From: 2010.03.12/outbox.cif.g09.slc.cpg/sg63_25_cif.got.tgz:48583.got - 2010.04.10 19:34:48.
