data_PCOD8260017
_publ_section_title
;
Structure prediction by ZEFSAII (Michael W. Deem and Ramdas Pophale) SiO2 
 PCOD8260017
Probable space group: C M C M
;
_chemical_formula_sum "Si O2"
_cell_formula_units_Z 96
_cell_length_a 8.921649
_cell_length_b 19.952601
_cell_length_c 29.228628
_cell_angle_alpha 90.000000
_cell_angle_beta 90.000000
_cell_angle_gamma 90.000000
_cell_volume 5202.991074
_symmetry_space_group_name_H-M "C M C M"
_symmetry_group_IT_number 63
_symmetry_cell_setting 'orthorhombic'
loop_
_space_group_symop_operation_xyz
x,y,z
-x,-y,1/2+z
x,-y,-z
-x,y,1/2-z
-x,-y,-z
x,y,1/2-z
-x,y,z
x,-y,1/2+z
1/2+x,1/2+y,z
1/2-x,1/2-y,1/2+z
1/2+x,1/2-y,-z
1/2-x,1/2+y,1/2-z
1/2-x,1/2-y,-z
1/2+x,1/2+y,1/2-z
1/2-x,1/2+y,z
1/2+x,1/2-y,1/2+z
loop_
_atom_site_type_symbol
_atom_site_label
_atom_site_fract_x
_atom_site_fract_y
_atom_site_fract_z
Si Si1 0.826247 0.193828 0.697437
Si Si2 0.174510 0.444199 0.537570
Si Si3 0.674740 0.453889 0.631689
Si Si4 0.329473 0.699881 0.363149
Si Si5 0.172750 0.557545 0.696294
Si Si6 0.674214 0.695283 0.031471
O O1 0.789227 0.210831 0.750000
O O2 0.783191 0.257630 0.667416
O O3 0.731780 0.129999 0.680480
O O4 0.000000 0.177134 0.690528
O O5 0.206595 0.500000 0.500000
O O6 0.239019 0.471628 0.585215
O O7 0.254582 0.376656 0.521179
O O8 0.000000 0.429029 0.543588
O O9 0.500000 0.465875 0.622744
O O10 0.705825 0.377672 0.646506
O O11 0.732076 0.500264 0.672219
O O12 0.500000 0.717294 0.349566
O O13 0.300029 0.716525 0.416120
O O14 0.197293 0.548050 0.750000
O O15 0.000000 0.551385 0.682062
O O16 0.500000 0.690463 0.019618
O O17 0.750000 0.750000 0.000000
#
# Coordination Sequence:
#
# PCOD8260017 Si02
#       6
#    16  16  16  16  16  16
#     4  10  21  36  55  80 108 139 178 222 266 315
#     4  10  21  37  57  81 110 143 179 222 270 320
#     4  10  21  37  57  81 110 143 179 222 269 319
#     4   9  20  37  55  78 108 141 177 217 264 317
#     4  10  21  37  57  80 108 143 181 222 268 318
#     4  10  21  37  57  81 109 142 181 223 268 320
#
# _framework density 18.450925000000002
#
# number of rings (size 3 to 8) (size 9 to 14) (size 15 to 20)
#    0.000    2.167    0.000    3.500    0.000    9.333 
#    0.000    5.000    0.000    0.000    0.000    0.000 
#    0.000    0.000    0.000    0.000    0.000    0.000 
#
# Total GULP energy -595429.863866 kJ/mol
# GULP energy per Si atom -12404.788831 kJ/mol
# Density = 1.840893 g / cm^3
# Si number density = 18.450925 Si / 1000 Ang^3
#
#
#
# Elastic Constant Matrix: (Units=GPa)
#
#
# Indices 1 2 3 4 5 6 
#
# 1 104.7942 66.5538 54.4463 0.0000 0.0000 0.0000
# 2 66.5538 108.3972 67.1678 0.0000 0.0000 0.0000
# 3 54.4463 67.1678 75.7554 0.0000 0.0000 0.0000
# 4 0.0000 0.0000 0.0000 36.3619 0.0000 0.0000
# 5 0.0000 0.0000 0.0000 0.0000 35.1737 0.0000
# 6 0.0000 0.0000 0.0000 0.0000 0.0000 39.1070
#
#
#
# Elastic Compliance Matrix: (Units=1/GPa)
#
#
# Indices 1 2 3 4 5 6 
#
# 1 0.017000 -0.006362 -0.006577 0.000000 0.000000 0.000000
# 2 -0.006362 0.022855 -0.015691 0.000000 0.000000 0.000000
# 3 -0.006577 -0.015691 0.031840 0.000000 0.000000 0.000000
# 4 0.000000 0.000000 0.000000 0.027501 0.000000 0.000000
# 5 0.000000 0.000000 0.000000 0.000000 0.028430 0.000000
# 6 0.000000 0.000000 0.000000 0.000000 0.000000 0.025571
#
#
# Mechanical properties :
#
#
# Convention : Reuss Voigt Hill
#
# Bulk Modulus (GPa) = 69.28352 73.92031 71.60191
# Shear Modulus (GPa) = 23.22661 28.84711 26.03686
#
# Velocity S-wave (km/s) = 3.55185 3.95834 3.76059
# Velocity P-wave (km/s) = 7.37920 7.81290 7.59914
#
# Compressibility (1/GPa) = 0.01443345
#
# Stress axis : x y z
#
# Youngs Moduli (GPa) = 58.82199 43.75479 31.40708
#
# Poissons Ratio (x) = 0.27838 0.20657
# Poissons Ratio (y) = 0.37425 0.49281
# Poissons Ratio (z) = 0.38689 0.68656
#
# Static dielectric constant tensor:
#      x y z
#    x 3.526380 0.000000 0.000000 
#    y 0.000000 3.368060 0.000000 
#    z 0.000000 0.000000 3.318150 
# 
# 
# High freq. dielectric constant tensor:
#      x y z
#    x 1.732650 0.000000 0.000000 
#    y 0.000000 1.719780 0.000000 
#    z 0.000000 0.000000 1.713300 
# 
# From -- ./inp_files/67006.got.cif
#   From: 2010.03.12/outbox.cif.g09.slc.cpg/sg63_34_cif.got.tgz:67006.got - 2010.04.10 19:34:48.
