data_PCOD8260684
_publ_section_title
;
Structure prediction by ZEFSAII (Michael W. Deem and Ramdas Pophale) SiO2 
 PCOD8260684
Probable space group: C M C M
;
_chemical_formula_sum "Si O2"
_cell_formula_units_Z 96
_cell_length_a 20.481711
_cell_length_b 16.228293
_cell_length_c 13.918897
_cell_angle_alpha 90.000000
_cell_angle_beta 90.000000
_cell_angle_gamma 90.000000
_cell_volume 4626.407626
_symmetry_space_group_name_H-M "C M C M"
_symmetry_group_IT_number 63
_symmetry_cell_setting 'orthorhombic'
loop_
_space_group_symop_operation_xyz
x,y,z
-x,-y,1/2+z
x,-y,-z
-x,y,1/2-z
-x,-y,-z
x,y,1/2-z
-x,y,z
x,-y,1/2+z
1/2+x,1/2+y,z
1/2-x,1/2-y,1/2+z
1/2+x,1/2-y,-z
1/2-x,1/2+y,1/2-z
1/2-x,1/2-y,-z
1/2+x,1/2+y,1/2-z
1/2-x,1/2+y,z
1/2+x,1/2-y,1/2+z
loop_
_atom_site_type_symbol
_atom_site_label
_atom_site_fract_x
_atom_site_fract_y
_atom_site_fract_z
Si Si1 0.500000 0.655387 0.136415
Si Si2 0.242050 0.847362 0.491855
Si Si3 0.424338 0.226186 0.143959
Si Si4 0.635102 0.574694 0.365438
Si Si5 0.386626 0.095157 0.990704
Si Si6 0.137265 0.110811 0.638840
Si Si7 0.500000 0.840891 0.363622
O O1 0.500000 0.650743 0.250000
O O2 0.432705 0.615038 0.099987
O O3 0.500000 0.747950 0.098699
O O4 0.250000 0.750000 0.500000
O O5 0.196396 0.883418 0.578465
O O6 0.309904 0.893656 0.477377
O O7 0.210477 0.864981 0.388614
O O8 0.391138 0.220529 0.250000
O O9 0.500000 0.220683 0.155396
O O10 0.407321 0.314988 0.095101
O O11 0.401798 0.147172 0.085384
O O12 0.647838 0.582326 0.250000
O O13 0.624508 0.480676 0.400979
O O14 0.432339 0.122052 0.902446
O O15 0.403465 0.000000 0.000000
O O16 0.124854 0.107529 0.750000
O O17 0.500000 0.850791 0.250000
#
# Coordination Sequence:
#
# PCOD8260684 Si02
#       7
#     8  16  16  16  16  16   8
#     4   9  20  39  63  93 129 168 206 250 307 374
#     4  12  24  42  65  91 129 171 213 264 322 382
#     4  10  22  40  65  94 127 166 209 263 325 382
#     4  10  22  40  65  98 133 167 212 264 319 385
#     4  12  25  43  66  92 126 164 215 274 323 380
#     4  10  22  41  63  94 130 164 208 259 318 387
#     4  11  25  45  65  92 127 169 217 263 324 388
#
# _framework density 20.750440999999999
#
# number of rings (size 3 to 8) (size 9 to 14) (size 15 to 20)
#    0.000    1.333    2.500    2.750    1.167    2.667 
#    0.000    0.833    0.000    0.000    0.000    0.000 
#    0.000    0.000    0.000    0.000    0.000    0.000 
#
# Total GULP energy -594660.759739 kJ/mol
# GULP energy per Si atom -12388.765828 kJ/mol
# Density = 2.070321 g / cm^3
# Si number density = 20.750441 Si / 1000 Ang^3
#
#
#
# Elastic Constant Matrix: (Units=GPa)
#
#
# Indices 1 2 3 4 5 6 
#
# 1 160.2278 73.2405 44.8986 0.0000 0.0000 0.0000
# 2 73.2405 218.8520 62.6693 0.0000 0.0000 0.0000
# 3 44.8986 62.6693 57.9462 0.0000 0.0000 0.0000
# 4 0.0000 0.0000 0.0000 33.1222 0.0000 0.0000
# 5 0.0000 0.0000 0.0000 0.0000 26.8968 0.0000
# 6 0.0000 0.0000 0.0000 0.0000 0.0000 11.3853
#
#
#
# Elastic Compliance Matrix: (Units=1/GPa)
#
#
# Indices 1 2 3 4 5 6 
#
# 1 0.008237 -0.001346 -0.004927 0.000000 0.000000 0.000000
# 2 -0.001346 0.006839 -0.006354 0.000000 0.000000 0.000000
# 3 -0.004927 -0.006354 0.027946 0.000000 0.000000 0.000000
# 4 0.000000 0.000000 0.000000 0.030191 0.000000 0.000000
# 5 0.000000 0.000000 0.000000 0.000000 0.037179 0.000000
# 6 0.000000 0.000000 0.000000 0.000000 0.000000 0.087832
#
#
# Mechanical properties :
#
#
# Convention : Reuss Voigt Hill
#
# Bulk Modulus (GPa) = 56.27521 88.73811 72.50666
# Shear Modulus (GPa) = 21.79592 31.36205 26.57899
#
# Velocity S-wave (km/s) = 3.24448 3.89188 3.58283
# Velocity P-wave (km/s) = 6.41984 7.94059 7.22036
#
# Compressibility (1/GPa) = 0.01776981
#
# Stress axis : x y z
#
# Youngs Moduli (GPa) = 121.40635 146.21797 35.78266
#
# Poissons Ratio (x) = 0.19677 0.17629
# Poissons Ratio (y) = 0.16338 0.22736
# Poissons Ratio (z) = 0.59814 0.92905
#
# Static dielectric constant tensor:
#      x y z
#    x 3.997980 0.000000 0.000000 
#    y 0.000000 4.123300 0.000000 
#    z 0.000000 0.000000 3.801360 
# 
# 
# High freq. dielectric constant tensor:
#      x y z
#    x 1.817700 0.000000 0.000000 
#    y 0.000000 1.834080 0.000000 
#    z 0.000000 0.000000 1.813990 
# 
# From -- ./inp_files/35422.got.cif
#   From: 2010.03.12/outbox.cif.g09.slc.cpg/sg63_18_cif.got.tgz:35422.got - 2010.04.10 19:34:48.
