data_PCOD8260115
_publ_section_title
;
Structure prediction by ZEFSAII (Michael W. Deem and Ramdas Pophale) SiO2 
 PCOD8260115
Probable space group: C M C M
;
_chemical_formula_sum "Si O2"
_cell_formula_units_Z 96
_cell_length_a 26.898360
_cell_length_b 20.441241
_cell_length_c 9.083570
_cell_angle_alpha 90.000000
_cell_angle_beta 90.000000
_cell_angle_gamma 90.000000
_cell_volume 4994.472516
_symmetry_space_group_name_H-M "C M C M"
_symmetry_group_IT_number 63
_symmetry_cell_setting 'orthorhombic'
loop_
_space_group_symop_operation_xyz
x,y,z
-x,-y,1/2+z
x,-y,-z
-x,y,1/2-z
-x,-y,-z
x,y,1/2-z
-x,y,z
x,-y,1/2+z
1/2+x,1/2+y,z
1/2-x,1/2-y,1/2+z
1/2+x,1/2-y,-z
1/2-x,1/2+y,1/2-z
1/2-x,1/2-y,-z
1/2+x,1/2+y,1/2-z
1/2-x,1/2+y,z
1/2+x,1/2-y,1/2+z
loop_
_atom_site_type_symbol
_atom_site_label
_atom_site_fract_x
_atom_site_fract_y
_atom_site_fract_z
Si Si1 0.782974 0.803285 0.921387
Si Si2 0.879894 0.565400 0.422498
Si Si3 0.102729 0.809516 0.922692
Si Si4 0.234161 0.564786 0.422188
Si Si5 0.442560 0.811078 0.581024
Si Si6 0.057768 0.932699 0.421878
O O1 0.771174 0.797891 0.750000
O O2 0.840441 0.791009 0.957075
O O3 0.767212 0.874907 0.978659
O O4 0.750000 0.750000 0.000000
O O5 0.900177 0.500000 0.500000
O O6 0.886878 0.555377 0.250000
O O7 0.822872 0.578375 0.466906
O O8 0.911323 0.627335 0.478617
O O9 0.093190 0.819693 0.750000
O O10 0.068323 0.751544 0.981368
O O11 0.090119 0.875963 0.006212
O O12 0.254811 0.500000 0.500000
O O13 0.239753 0.553565 0.250000
O O14 0.428336 0.794677 0.750000
O O15 0.500000 0.829617 0.566618
O O16 0.070350 0.938265 0.250000
O O17 0.000000 0.916535 0.447956
O O18 0.072857 0.000000 0.500000
#
# Coordination Sequence:
#
# PCOD8260115 Si02
#       6
#    16  16  16  16  16  16
#     4  10  22  38  56  80 109 142 182 225 269 321
#     4   9  18  33  54  78 105 138 175 217 264 315
#     4  11  23  37  55  82 113 143 181 229 277 327
#     4   9  18  34  54  76 104 137 173 213 259 312
#     4  10  21  37  56  78 106 143 185 224 267 324
#     4  10  21  38  60  84 111 146 186 227 274 328
#
# _framework density 19.221250000000001
#
# number of rings (size 3 to 8) (size 9 to 14) (size 15 to 20)
#    0.000    2.167    0.000    2.500    0.000    8.333 
#    0.000    5.000    0.000    0.000    0.000    0.000 
#    0.000    0.000    0.000    0.000    0.000    0.000 
#
# Total GULP energy -595424.348608 kJ/mol
# GULP energy per Si atom -12404.673929 kJ/mol
# Density = 1.917750 g / cm^3
# Si number density = 19.221250 Si / 1000 Ang^3
#
#
#
# Elastic Constant Matrix: (Units=GPa)
#
#
# Indices 1 2 3 4 5 6 
#
# 1 49.3805 25.5935 26.6023 0.0000 0.0000 0.0000
# 2 25.5935 114.2882 43.8687 0.0000 0.0000 0.0000
# 3 26.6023 43.8687 70.1713 0.0000 0.0000 0.0000
# 4 0.0000 0.0000 0.0000 41.7435 0.0000 0.0000
# 5 0.0000 0.0000 0.0000 0.0000 24.9121 0.0000
# 6 0.0000 0.0000 0.0000 0.0000 0.0000 39.5631
#
#
#
# Elastic Compliance Matrix: (Units=1/GPa)
#
#
# Indices 1 2 3 4 5 6 
#
# 1 0.026062 -0.002689 -0.008199 0.000000 0.000000 0.000000
# 2 -0.002689 0.011790 -0.006351 0.000000 0.000000 0.000000
# 3 -0.008199 -0.006351 0.021330 0.000000 0.000000 0.000000
# 4 0.000000 0.000000 0.000000 0.023956 0.000000 0.000000
# 5 0.000000 0.000000 0.000000 0.000000 0.040141 0.000000
# 6 0.000000 0.000000 0.000000 0.000000 0.000000 0.025276
#
#
# Mechanical properties :
#
#
# Convention : Reuss Voigt Hill
#
# Bulk Modulus (GPa) = 40.48147 47.32988 43.90568
# Shear Modulus (GPa) = 26.14149 30.42878 28.28514
#
# Velocity S-wave (km/s) = 3.69186 3.98311 3.84025
# Velocity P-wave (km/s) = 6.26735 6.76984 6.52343
#
# Compressibility (1/GPa) = 0.02470266
#
# Stress axis : x y z
#
# Youngs Moduli (GPa) = 38.37064 84.81876 46.88304
#
# Poissons Ratio (x) = 0.22808 0.38439
# Poissons Ratio (y) = 0.10318 0.29776
# Poissons Ratio (z) = 0.31460 0.53870
#
# Static dielectric constant tensor:
#      x y z
#    x 3.531520 0.000000 0.000000 
#    y 0.000000 3.669910 0.000000 
#    z 0.000000 0.000000 3.486970 
# 
# 
# High freq. dielectric constant tensor:
#      x y z
#    x 1.746390 0.000000 0.000000 
#    y 0.000000 1.759980 0.000000 
#    z 0.000000 0.000000 1.744490 
# 
# From -- ./inp_files/12369.got.cif
#   From: 2010.03.12/outbox.cif.g09.slc.cpg/sg63_7_cif.got.tgz:12369.got - 2010.04.10 19:34:48.
