data_PCOD8260161
_publ_section_title
;
Structure prediction by ZEFSAII (Michael W. Deem and Ramdas Pophale) SiO2 
 PCOD8260161
Probable space group: C M C M
;
_chemical_formula_sum "Si O2"
_cell_formula_units_Z 80
_cell_length_a 8.794381
_cell_length_b 15.642091
_cell_length_c 28.794264
_cell_angle_alpha 90.000000
_cell_angle_beta 90.000000
_cell_angle_gamma 90.000000
_cell_volume 3961.011169
_symmetry_space_group_name_H-M "C M C M"
_symmetry_group_IT_number 63
_symmetry_cell_setting 'orthorhombic'
loop_
_space_group_symop_operation_xyz
x,y,z
-x,-y,1/2+z
x,-y,-z
-x,y,1/2-z
-x,-y,-z
x,y,1/2-z
-x,y,z
x,-y,1/2+z
1/2+x,1/2+y,z
1/2-x,1/2-y,1/2+z
1/2+x,1/2-y,-z
1/2-x,1/2+y,1/2-z
1/2-x,1/2-y,-z
1/2+x,1/2+y,1/2-z
1/2-x,1/2+y,z
1/2+x,1/2-y,1/2+z
loop_
_atom_site_type_symbol
_atom_site_label
_atom_site_fract_x
_atom_site_fract_y
_atom_site_fract_z
Si Si1 0.319745 0.288703 0.639975
Si Si2 0.323743 0.274013 0.451668
Si Si3 0.819051 0.373258 0.302324
Si Si4 0.175522 0.026968 0.550900
Si Si5 0.679275 0.036971 0.358757
O O1 0.500000 0.290498 0.639205
O O2 0.259129 0.280059 0.587815
O O3 0.257596 0.210998 0.671542
O O4 0.256798 0.377200 0.661082
O O5 0.500000 0.249199 0.452648
O O6 0.250000 0.250000 0.500000
O O7 0.298697 0.373229 0.441238
O O8 0.754890 0.373173 0.250000
O O9 0.758337 0.457597 0.328464
O O10 0.000000 0.372946 0.302474
O O11 0.000000 0.000549 0.557667
O O12 0.232550 0.000000 0.500000
O O13 0.276341 0.975872 0.587641
O O14 0.500000 0.046339 0.354288
#
# Coordination Sequence:
#
# PCOD8260161 Si02
#       5
#    16  16  16  16  16
#     4  11  22  39  62  88 123 164 205 251 305 364
#     4  11  22  36  58  88 125 163 204 250 301 363
#     4   9  20  40  64  89 121 162 205 252 310 370
#     4  10  21  37  57  84 120 160 199 246 301 360
#     4  11  22  38  62  91 121 158 204 255 305 361
#
# _framework density 20.196863
#
# number of rings (size 3 to 8) (size 9 to 14) (size 15 to 20)
#    0.000    1.600    2.000    3.000    0.000    3.600 
#    0.000    0.000    0.000    8.400    0.000    0.000 
#    0.000    0.000    0.000    0.000    0.000    0.000 
#
# Total GULP energy -496205.096961 kJ/mol
# GULP energy per Si atom -12405.127424 kJ/mol
# Density = 2.015089 g / cm^3
# Si number density = 20.196863 Si / 1000 Ang^3
#
#
#
# Elastic Constant Matrix: (Units=GPa)
#
#
# Indices 1 2 3 4 5 6 
#
# 1 73.7456 48.1778 30.1351 0.0000 0.0000 0.0000
# 2 48.1778 163.2655 69.4267 0.0000 0.0000 0.0000
# 3 30.1351 69.4267 137.8357 0.0000 0.0000 0.0000
# 4 0.0000 0.0000 0.0000 30.2196 0.0000 0.0000
# 5 0.0000 0.0000 0.0000 0.0000 17.8429 0.0000
# 6 0.0000 0.0000 0.0000 0.0000 0.0000 32.0741
#
#
#
# Elastic Compliance Matrix: (Units=1/GPa)
#
#
# Indices 1 2 3 4 5 6 
#
# 1 0.017045 -0.004384 -0.001518 0.000000 0.000000 0.000000
# 2 -0.004384 0.008922 -0.003536 0.000000 0.000000 0.000000
# 3 -0.001518 -0.003536 0.009368 0.000000 0.000000 0.000000
# 4 0.000000 0.000000 0.000000 0.033091 0.000000 0.000000
# 5 0.000000 0.000000 0.000000 0.000000 0.056045 0.000000
# 6 0.000000 0.000000 0.000000 0.000000 0.000000 0.031178
#
#
# Mechanical properties :
#
#
# Convention : Reuss Voigt Hill
#
# Bulk Modulus (GPa) = 60.75758 74.48066 67.61912
# Shear Modulus (GPa) = 27.77623 31.16780 29.47202
#
# Velocity S-wave (km/s) = 3.71249 3.93262 3.82414
# Velocity P-wave (km/s) = 6.96597 7.58802 7.28364
#
# Compressibility (1/GPa) = 0.01645885
#
# Stress axis : x y z
#
# Youngs Moduli (GPa) = 58.66950 112.08112 106.74915
#
# Poissons Ratio (x) = 0.49137 0.16207
# Poissons Ratio (y) = 0.25721 0.37741
# Poissons Ratio (z) = 0.08908 0.39626
#
# Static dielectric constant tensor:
#      x y z
#    x 3.462220 0.000000 0.000000 
#    y 0.000000 4.037670 0.000000 
#    z 0.000000 0.000000 3.687080 
# 
# 
# High freq. dielectric constant tensor:
#      x y z
#    x 1.771910 0.000000 0.000000 
#    y 0.000000 1.808260 0.000000 
#    z 0.000000 0.000000 1.785280 
# 
# From -- ./inp_files/66632.got.cif
#   From: 2010.03.12/outbox.cif.g09.slc.cpg/sg63_34_cif.got.tgz:66632.got - 2010.04.10 19:34:48.
