data_PCOD8260883
_publ_section_title
;
Structure prediction by ZEFSAII (Michael W. Deem and Ramdas Pophale) SiO2 
 PCOD8260883
Probable space group: C M C M
;
_chemical_formula_sum "Si O2"
_cell_formula_units_Z 68
_cell_length_a 19.583606
_cell_length_b 17.151185
_cell_length_c 9.152929
_cell_angle_alpha 90.000000
_cell_angle_beta 90.000000
_cell_angle_gamma 90.000000
_cell_volume 3074.304551
_symmetry_space_group_name_H-M "C M C M"
_symmetry_group_IT_number 63
_symmetry_cell_setting 'orthorhombic'
loop_
_space_group_symop_operation_xyz
x,y,z
-x,-y,1/2+z
x,-y,-z
-x,y,1/2-z
-x,-y,-z
x,y,1/2-z
-x,y,z
x,-y,1/2+z
1/2+x,1/2+y,z
1/2-x,1/2-y,1/2+z
1/2+x,1/2-y,-z
1/2-x,1/2+y,1/2-z
1/2-x,1/2-y,-z
1/2+x,1/2+y,1/2-z
1/2-x,1/2+y,z
1/2+x,1/2-y,1/2+z
loop_
_atom_site_type_symbol
_atom_site_label
_atom_site_fract_x
_atom_site_fract_y
_atom_site_fract_z
Si Si1 0.000000 0.303490 0.250000
Si Si2 0.860546 0.248506 0.250000
Si Si3 0.250874 0.439399 0.750000
Si Si4 0.723055 0.884501 0.250000
Si Si5 0.418650 0.332532 0.250000
Si Si6 0.109337 0.648978 0.250000
Si Si7 0.500000 0.091389 0.029783
Si Si8 0.677960 0.637651 0.499847
O O1 0.940955 0.238953 0.250000
O O2 0.000000 0.359687 0.385383
O O3 0.849979 0.342473 0.250000
O O4 0.829342 0.212320 0.103518
O O5 0.215077 0.523179 0.750000
O O6 0.189235 0.376223 0.750000
O O7 0.301056 0.433634 0.891285
O O8 0.759742 0.849839 0.391589
O O9 0.500000 0.339402 0.250000
O O10 0.394091 0.242753 0.250000
O O11 0.389342 0.374960 0.397280
O O12 0.069914 0.614421 0.389029
O O13 0.500000 0.000000 0.000000
#
# Coordination Sequence:
#
# PCOD8260883 Si02
#       8
#     4   8   8   8   8   8   8  16
#     4  12  26  40  64 100 132 166 234 274 310 392
#     4  11  25  39  67 101 133 172 222 276 323 379
#     4  11  26  43  67 103 137 176 217 276 337 399
#     4  11  24  43  69  95 138 176 216 263 340 402
#     4  11  23  45  73  96 130 176 222 276 342 395
#     4  11  25  42  65  94 141 183 222 264 332 398
#     4  11  25  41  57  91 143 190 223 260 311 398
#     4  10  25  43  67  99 134 166 225 278 328 394
#
# _framework density 22.118824
#
# number of rings (size 3 to 8) (size 9 to 14) (size 15 to 20)
#    0.000    1.176    1.176    3.529   18.118    0.000 
#    0.000    0.000    0.000   11.294    3.059    0.000 
#    0.000    0.000    0.000    0.000    0.000    0.000 
#
# Total GULP energy -421316.098690 kJ/mol
# GULP energy per Si atom -12391.649961 kJ/mol
# Density = 2.206848 g / cm^3
# Si number density = 22.118824 Si / 1000 Ang^3
#
#
#
# Elastic Constant Matrix: (Units=GPa)
#
#
# Indices 1 2 3 4 5 6 
#
# 1 120.3504 25.9253 43.0528 0.0000 0.0000 0.0000
# 2 25.9253 61.4796 25.9539 0.0000 0.0000 0.0000
# 3 43.0528 25.9539 173.3753 0.0000 0.0000 0.0000
# 4 0.0000 0.0000 0.0000 30.1543 0.0000 0.0000
# 5 0.0000 0.0000 0.0000 0.0000 8.3188 0.0000
# 6 0.0000 0.0000 0.0000 0.0000 0.0000 23.1508
#
#
#
# Elastic Compliance Matrix: (Units=1/GPa)
#
#
# Indices 1 2 3 4 5 6 
#
# 1 0.009702 -0.003282 -0.001918 0.000000 0.000000 0.000000
# 2 -0.003282 0.018473 -0.001950 0.000000 0.000000 0.000000
# 3 -0.001918 -0.001950 0.006536 0.000000 0.000000 0.000000
# 4 0.000000 0.000000 0.000000 0.033163 0.000000 0.000000
# 5 0.000000 0.000000 0.000000 0.000000 0.120210 0.000000
# 6 0.000000 0.000000 0.000000 0.000000 0.000000 0.043195
#
#
# Mechanical properties :
#
#
# Convention : Reuss Voigt Hill
#
# Bulk Modulus (GPa) = 48.99341 60.56327 54.77834
# Shear Modulus (GPa) = 19.81124 29.67633 24.74378
#
# Velocity S-wave (km/s) = 2.99603 3.66687 3.34829
# Velocity P-wave (km/s) = 5.84520 6.73559 6.30613
#
# Compressibility (1/GPa) = 0.02041091
#
# Stress axis : x y z
#
# Youngs Moduli (GPa) = 103.07055 54.13372 152.99664
#
# Poissons Ratio (x) = 0.17764 0.29345
# Poissons Ratio (y) = 0.33823 0.29841
# Poissons Ratio (z) = 0.19769 0.10559
#
# Static dielectric constant tensor:
#      x y z
#    x 4.075930 0.000000 0.000000 
#    y 0.000000 3.771790 0.000000 
#    z 0.000000 0.000000 4.450810 
# 
# 
# High freq. dielectric constant tensor:
#      x y z
#    x 1.868310 0.000000 0.000000 
#    y 0.000000 1.852210 0.000000 
#    z 0.000000 0.000000 1.899290 
# 
# From -- ./inp_files/7686.got.cif
#   From: 2010.03.12/outbox.cif.g09.slc.cpg/sg63_4_cif.got.tgz:7686.got - 2010.04.10 19:34:48.
