data_PCOD8260715
_publ_section_title
;
Structure prediction by ZEFSAII (Michael W. Deem and Ramdas Pophale) SiO2 
 PCOD8260715
Probable space group: C M C M
;
_chemical_formula_sum "Si O2"
_cell_formula_units_Z 80
_cell_length_a 11.371449
_cell_length_b 19.675939
_cell_length_c 17.887134
_cell_angle_alpha 90.000000
_cell_angle_beta 90.000000
_cell_angle_gamma 90.000000
_cell_volume 4002.137780
_symmetry_space_group_name_H-M "C M C M"
_symmetry_group_IT_number 63
_symmetry_cell_setting 'orthorhombic'
loop_
_space_group_symop_operation_xyz
x,y,z
-x,-y,1/2+z
x,-y,-z
-x,y,1/2-z
-x,-y,-z
x,y,1/2-z
-x,y,z
x,-y,1/2+z
1/2+x,1/2+y,z
1/2-x,1/2-y,1/2+z
1/2+x,1/2-y,-z
1/2-x,1/2+y,1/2-z
1/2-x,1/2-y,-z
1/2+x,1/2+y,1/2-z
1/2-x,1/2+y,z
1/2+x,1/2-y,1/2+z
loop_
_atom_site_type_symbol
_atom_site_label
_atom_site_fract_x
_atom_site_fract_y
_atom_site_fract_z
Si Si1 0.000000 0.486998 0.087645
Si Si2 0.290886 0.936343 0.664035
Si Si3 0.360724 0.812418 0.574424
Si Si4 0.633683 0.558147 0.836137
Si Si5 0.500000 0.154217 0.835661
Si Si6 0.772267 0.678132 0.908096
O O1 0.113309 0.519311 0.123186
O O2 0.000000 0.407811 0.106229
O O3 0.000000 0.500000 0.000000
O O4 0.325106 0.926271 0.750000
O O5 0.284497 0.862492 0.626489
O O6 0.170170 0.978933 0.654852
O O7 0.500000 0.823113 0.586512
O O8 0.326373 0.736137 0.597718
O O9 0.324845 0.828373 0.490385
O O10 0.648655 0.580862 0.750000
O O11 0.500000 0.564728 0.863190
O O12 0.714186 0.606559 0.886591
O O13 0.500000 0.129538 0.750000
O O14 0.381193 0.196677 0.852780
#
# Coordination Sequence:
#
# PCOD8260715 Si02
#       6
#     8  16  16  16   8  16
#     4  12  22  36  66  94 126 155 198 257 314 366
#     4  11  23  39  62  93 124 159 203 257 310 368
#     4  11  24  42  64  89 126 166 206 259 314 372
#     4  10  22  41  63  89 124 164 206 256 311 371
#     4  12  22  38  64  94 124 160 210 266 312 363
#     4  11  23  41  63  91 123 164 212 257 311 371
#
# _framework density 19.989317
#
# number of rings (size 3 to 8) (size 9 to 14) (size 15 to 20)
#    0.000    1.000    4.000    3.300    0.000    1.600 
#    1.800    1.000    0.000    0.000    0.000    0.000 
#    0.000    0.000    0.000    0.000    0.000    0.000 
#
# Total GULP energy -496052.450466 kJ/mol
# GULP energy per Si atom -12401.311262 kJ/mol
# Density = 1.994382 g / cm^3
# Si number density = 19.989317 Si / 1000 Ang^3
#
#
#
# Elastic Constant Matrix: (Units=GPa)
#
#
# Indices 1 2 3 4 5 6 
#
# 1 110.3223 34.4434 39.9836 0.0000 0.0000 0.0000
# 2 34.4434 98.1357 57.2330 0.0000 0.0000 0.0000
# 3 39.9836 57.2330 102.5176 0.0000 0.0000 0.0000
# 4 0.0000 0.0000 0.0000 29.1674 0.0000 0.0000
# 5 0.0000 0.0000 0.0000 0.0000 29.9444 0.0000
# 6 0.0000 0.0000 0.0000 0.0000 0.0000 30.5232
#
#
#
# Elastic Compliance Matrix: (Units=1/GPa)
#
#
# Indices 1 2 3 4 5 6 
#
# 1 0.010810 -0.001980 -0.003111 0.000000 0.000000 0.000000
# 2 -0.001980 0.015472 -0.007865 0.000000 0.000000 0.000000
# 3 -0.003111 -0.007865 0.015359 0.000000 0.000000 0.000000
# 4 0.000000 0.000000 0.000000 0.034285 0.000000 0.000000
# 5 0.000000 0.000000 0.000000 0.000000 0.033395 0.000000
# 6 0.000000 0.000000 0.000000 0.000000 0.000000 0.032762
#
#
# Mechanical properties :
#
#
# Convention : Reuss Voigt Hill
#
# Bulk Modulus (GPa) = 63.57860 63.81062 63.69461
# Shear Modulus (GPa) = 28.86210 29.88138 29.37174
#
# Velocity S-wave (km/s) = 3.80396 3.87055 3.83740
# Velocity P-wave (km/s) = 7.15324 7.20878 7.18106
#
# Compressibility (1/GPa) = 0.01572856
#
# Stress axis : x y z
#
# Youngs Moduli (GPa) = 92.50805 64.63292 65.10948
#
# Poissons Ratio (x) = 0.12796 0.20254
# Poissons Ratio (y) = 0.18315 0.51212
# Poissons Ratio (z) = 0.28777 0.50837
#
# Static dielectric constant tensor:
#      x y z
#    x 3.752830 0.000000 0.000000 
#    y 0.000000 3.651420 0.000000 
#    z 0.000000 0.000000 4.424580 
# 
# 
# High freq. dielectric constant tensor:
#      x y z
#    x 1.786680 0.000000 0.000000 
#    y 0.000000 1.775830 0.000000 
#    z 0.000000 0.000000 1.786690 
# 
# From -- ./inp_files/42187.got.cif
#   From: 2010.03.12/outbox.cif.g09.slc.cpg/sg63_22_cif.got.tgz:42187.got - 2010.04.10 19:34:48.
