data_PCOD8260452
_publ_section_title
;
Structure prediction by ZEFSAII (Michael W. Deem and Ramdas Pophale) SiO2 
 PCOD8260452
Probable space group: C M C M
;
_chemical_formula_sum "Si O2"
_cell_formula_units_Z 96
_cell_length_a 14.846413
_cell_length_b 21.381550
_cell_length_c 13.754865
_cell_angle_alpha 90.000000
_cell_angle_beta 90.000000
_cell_angle_gamma 90.000000
_cell_volume 4366.335018
_symmetry_space_group_name_H-M "C M C M"
_symmetry_group_IT_number 63
_symmetry_cell_setting 'orthorhombic'
loop_
_space_group_symop_operation_xyz
x,y,z
-x,-y,1/2+z
x,-y,-z
-x,y,1/2-z
-x,-y,-z
x,y,1/2-z
-x,y,z
x,-y,1/2+z
1/2+x,1/2+y,z
1/2-x,1/2-y,1/2+z
1/2+x,1/2-y,-z
1/2-x,1/2+y,1/2-z
1/2-x,1/2-y,-z
1/2+x,1/2+y,1/2-z
1/2-x,1/2+y,z
1/2+x,1/2-y,1/2+z
loop_
_atom_site_type_symbol
_atom_site_label
_atom_site_fract_x
_atom_site_fract_y
_atom_site_fract_z
Si Si1 0.725195 0.597119 0.135136
Si Si2 0.101052 0.014416 0.635489
Si Si3 0.349183 0.653075 0.641954
Si Si4 0.860735 0.332195 0.359174
Si Si5 0.901717 0.799507 0.554576
Si Si6 0.600970 0.928263 0.517548
O O1 0.735634 0.592164 0.250000
O O2 0.666453 0.539187 0.092207
O O3 0.675810 0.661357 0.107430
O O4 0.825072 0.599722 0.090763
O O5 0.099325 0.007281 0.750000
O O6 0.139492 0.081819 0.605549
O O7 0.000000 0.005876 0.593451
O O8 0.392216 0.662358 0.750000
O O9 0.245793 0.669973 0.645027
O O10 0.396149 0.697359 0.562939
O O11 0.900522 0.333129 0.250000
O O12 0.895411 0.272396 0.416927
O O13 0.894913 0.393789 0.413830
O O14 0.000000 0.824822 0.587140
O O15 0.500000 0.920699 0.561603
O O16 0.624183 0.000000 0.500000
#
# Coordination Sequence:
#
# PCOD8260452 Si02
#       6
#    16  16  16  16  16  16
#     4  11  24  41  64  96 138 180 222 277 337 397
#     4   9  18  35  61  96 135 175 218 263 321 393
#     4  10  21  39  66  96 133 178 222 272 331 392
#     4  11  24  46  72  95 130 177 224 273 329 399
#     4  12  25  41  66 100 138 180 226 272 328 403
#     4  11  25  45  70  99 128 166 227 290 343 403
#
# _framework density 21.986402999999999
#
# number of rings (size 3 to 8) (size 9 to 14) (size 15 to 20)
#    0.000    1.333    1.667    3.500    0.000    6.333 
#    0.000    3.333    0.000    2.000    0.000    0.000 
#    0.000    0.000    0.000    0.000    0.000    0.000 
#
# Total GULP energy -595259.345003 kJ/mol
# GULP energy per Si atom -12401.236354 kJ/mol
# Density = 2.193636 g / cm^3
# Si number density = 21.986403 Si / 1000 Ang^3
#
#
#
# Elastic Constant Matrix: (Units=GPa)
#
#
# Indices 1 2 3 4 5 6 
#
# 1 144.8198 34.6412 36.4903 0.0000 0.0000 0.0000
# 2 34.6412 125.7848 70.2836 0.0000 0.0000 0.0000
# 3 36.4903 70.2836 134.4654 0.0000 0.0000 0.0000
# 4 0.0000 0.0000 0.0000 33.5723 0.0000 0.0000
# 5 0.0000 0.0000 0.0000 0.0000 133.1477 0.0000
# 6 0.0000 0.0000 0.0000 0.0000 0.0000 66.9641
#
#
#
# Elastic Compliance Matrix: (Units=1/GPa)
#
#
# Indices 1 2 3 4 5 6 
#
# 1 0.007565 -0.001322 -0.001362 0.000000 0.000000 0.000000
# 2 -0.001322 0.011461 -0.005632 0.000000 0.000000 0.000000
# 3 -0.001362 -0.005632 0.010750 0.000000 0.000000 0.000000
# 4 0.000000 0.000000 0.000000 0.029786 0.000000 0.000000
# 5 0.000000 0.000000 0.000000 0.000000 0.007510 0.000000
# 6 0.000000 0.000000 0.000000 0.000000 0.000000 0.014933
#
#
# Mechanical properties :
#
#
# Convention : Reuss Voigt Hill
#
# Bulk Modulus (GPa) = 76.07975 76.43336 76.25656
# Shear Modulus (GPa) = 48.53484 64.31381 56.42432
#
# Velocity S-wave (km/s) = 4.70349 5.41434 5.07139
# Velocity P-wave (km/s) = 8.01095 8.59804 8.30968
#
# Compressibility (1/GPa) = 0.01314410
#
# Stress axis : x y z
#
# Youngs Moduli (GPa) = 132.19561 87.25183 93.02350
#
# Poissons Ratio (x) = 0.11539 0.12666
# Poissons Ratio (y) = 0.17483 0.52388
# Poissons Ratio (z) = 0.17999 0.49138
#
# Static dielectric constant tensor:
#      x y z
#    x 4.163190 0.000000 0.000000 
#    y 0.000000 3.904210 0.000000 
#    z 0.000000 0.000000 4.196460 
# 
# 
# High freq. dielectric constant tensor:
#      x y z
#    x 1.877110 0.000000 0.000000 
#    y 0.000000 1.859990 0.000000 
#    z 0.000000 0.000000 1.868900 
# 
# From -- ./inp_files/31888.got.cif
#   From: 2010.03.12/outbox.cif.g09.slc.cpg/sg63_16_cif.got.tgz:31888.got - 2010.04.10 19:34:48.
