data_PCOD8260093
_publ_section_title
;
Structure prediction by ZEFSAII (Michael W. Deem and Ramdas Pophale) SiO2 
 PCOD8260093
Probable space group: C M C M
;
_chemical_formula_sum "Si O2"
_cell_formula_units_Z 80
_cell_length_a 9.048614
_cell_length_b 25.726274
_cell_length_c 18.424203
_cell_angle_alpha 90.000000
_cell_angle_beta 90.000000
_cell_angle_gamma 90.000000
_cell_volume 4288.917211
_symmetry_space_group_name_H-M "C M C M"
_symmetry_group_IT_number 63
_symmetry_cell_setting 'orthorhombic'
loop_
_space_group_symop_operation_xyz
x,y,z
-x,-y,1/2+z
x,-y,-z
-x,y,1/2-z
-x,-y,-z
x,y,1/2-z
-x,y,z
x,-y,1/2+z
1/2+x,1/2+y,z
1/2-x,1/2-y,1/2+z
1/2+x,1/2-y,-z
1/2-x,1/2+y,1/2-z
1/2-x,1/2-y,-z
1/2+x,1/2+y,1/2-z
1/2-x,1/2+y,z
1/2+x,1/2-y,1/2+z
loop_
_atom_site_type_symbol
_atom_site_label
_atom_site_fract_x
_atom_site_fract_y
_atom_site_fract_z
Si Si1 0.836794 0.799211 0.585238
Si Si2 0.675106 0.903202 0.085139
Si Si3 0.169709 0.991662 0.333794
Si Si4 0.664013 0.701381 0.587076
Si Si5 0.825909 0.912487 0.566332
O O1 0.730737 0.755172 0.619006
O O2 0.843250 0.794248 0.498923
O O3 0.779156 0.857463 0.603190
O O4 0.000000 0.790543 0.618134
O O5 0.500000 0.900631 0.079944
O O6 0.724863 0.944114 0.145761
O O7 0.734580 0.846994 0.109931
O O8 0.739821 0.921825 0.008319
O O9 0.192131 0.005318 0.250000
O O10 0.000000 0.976769 0.350998
O O11 0.217908 0.042352 0.378596
O O12 0.500000 0.693832 0.619670
O O13 0.000000 0.911372 0.547852
#
# Coordination Sequence:
#
# PCOD8260093 Si02
#       5
#    16  16  16  16  16
#     4   8  14  25  43  70 101 129 158 198 247 293
#     4  11  21  32  50  76 104 133 167 208 251 293
#     4  10  21  37  55  73  97 132 170 207 250 300
#     4   9  16  27  45  70 100 132 164 200 245 295
#     4   9  18  33  53  76 102 132 167 205 247 299
#
# _framework density 18.652726000000001
#
# number of rings (size 3 to 8) (size 9 to 14) (size 15 to 20)
#    0.000    2.600    0.000    4.200    0.000    8.400 
#    0.000    0.000    0.000    1.200    0.000    2.800 
#    0.000    0.000    0.000    0.000    0.000    0.000 
#
# Total GULP energy -495931.376197 kJ/mol
# GULP energy per Si atom -12398.284405 kJ/mol
# Density = 1.861027 g / cm^3
# Si number density = 18.652726 Si / 1000 Ang^3
#
#
#
# Elastic Constant Matrix: (Units=GPa)
#
#
# Indices 1 2 3 4 5 6 
#
# 1 99.0328 48.8854 21.8252 0.0000 0.0000 0.0000
# 2 48.8854 129.4548 28.7587 0.0000 0.0000 0.0000
# 3 21.8252 28.7587 35.9756 0.0000 0.0000 0.0000
# 4 0.0000 0.0000 0.0000 2.9569 0.0000 0.0000
# 5 0.0000 0.0000 0.0000 0.0000 12.4743 0.0000
# 6 0.0000 0.0000 0.0000 0.0000 0.0000 35.0473
#
#
#
# Elastic Compliance Matrix: (Units=1/GPa)
#
#
# Indices 1 2 3 4 5 6 
#
# 1 0.013070 -0.003860 -0.004844 0.000000 0.000000 0.000000
# 2 -0.003860 0.010532 -0.006078 0.000000 0.000000 0.000000
# 3 -0.004844 -0.006078 0.035594 0.000000 0.000000 0.000000
# 4 0.000000 0.000000 0.000000 0.338193 0.000000 0.000000
# 5 0.000000 0.000000 0.000000 0.000000 0.080165 0.000000
# 6 0.000000 0.000000 0.000000 0.000000 0.000000 0.028533
#
#
# Mechanical properties :
#
#
# Convention : Reuss Voigt Hill
#
# Bulk Modulus (GPa) = 33.74558 51.48911 42.61734
# Shear Modulus (GPa) = 9.16540 21.09528 15.13034
#
# Velocity S-wave (km/s) = 2.21909 3.36661 2.85118
# Velocity P-wave (km/s) = 4.96957 6.54034 5.80830
#
# Compressibility (1/GPa) = 0.02963351
#
# Stress axis : x y z
#
# Youngs Moduli (GPa) = 76.50858 94.94459 28.09451
#
# Poissons Ratio (x) = 0.36645 0.13609
# Poissons Ratio (y) = 0.29529 0.17076
# Poissons Ratio (z) = 0.37061 0.57708
#
# Static dielectric constant tensor:
#      x y z
#    x 3.508490 0.000000 0.000000 
#    y 0.000000 3.813290 0.000000 
#    z 0.000000 0.000000 2.889320 
# 
# 
# High freq. dielectric constant tensor:
#      x y z
#    x 1.720250 0.000000 0.000000 
#    y 0.000000 1.744710 0.000000 
#    z 0.000000 0.000000 1.664740 
# 
# From -- ./inp_files/40541.got.cif
#   From: 2010.03.12/outbox.cif.g09.slc.cpg/sg63_21_cif.got.tgz:40541.got - 2010.04.10 19:34:48.
