data_PCOD8260781
_publ_section_title
;
Structure prediction by ZEFSAII (Michael W. Deem and Ramdas Pophale) SiO2 
 PCOD8260781
Probable space group: C M C M
;
_chemical_formula_sum "Si O2"
_cell_formula_units_Z 112
_cell_length_a 27.188883
_cell_length_b 12.628348
_cell_length_c 15.737181
_cell_angle_alpha 90.000000
_cell_angle_beta 90.000000
_cell_angle_gamma 90.000000
_cell_volume 5403.371739
_symmetry_space_group_name_H-M "C M C M"
_symmetry_group_IT_number 63
_symmetry_cell_setting 'orthorhombic'
loop_
_space_group_symop_operation_xyz
x,y,z
-x,-y,1/2+z
x,-y,-z
-x,y,1/2-z
-x,-y,-z
x,y,1/2-z
-x,y,z
x,-y,1/2+z
1/2+x,1/2+y,z
1/2-x,1/2-y,1/2+z
1/2+x,1/2-y,-z
1/2-x,1/2+y,1/2-z
1/2-x,1/2-y,-z
1/2+x,1/2+y,1/2-z
1/2-x,1/2+y,z
1/2+x,1/2-y,1/2+z
loop_
_atom_site_type_symbol
_atom_site_label
_atom_site_fract_x
_atom_site_fract_y
_atom_site_fract_z
Si Si1 0.399857 0.443284 0.154351
Si Si2 0.798464 0.524993 0.656546
Si Si3 0.873416 0.401577 0.938325
Si Si4 0.557274 0.330245 0.656253
Si Si5 0.697385 0.544138 0.406619
Si Si6 0.941788 0.231769 0.970237
Si Si7 0.697774 0.228919 0.958520
O O1 0.405573 0.396340 0.250000
O O2 0.433625 0.545765 0.142994
O O3 0.342862 0.474096 0.141406
O O4 0.416449 0.361522 0.082867
O O5 0.801070 0.569521 0.750000
O O6 0.845821 0.448143 0.643813
O O7 0.749076 0.457889 0.642153
O O8 0.797909 0.627809 0.600037
O O9 0.926507 0.345025 0.927106
O O10 0.879188 0.500000 0.000000
O O11 0.841530 0.301282 0.970258
O O12 0.579868 0.293996 0.750000
O O13 0.500000 0.309250 0.661646
O O14 0.576184 0.269989 0.570407
O O15 0.706570 0.500000 0.500000
O O16 0.679468 0.666443 0.408741
O O17 0.000000 0.218613 0.963292
O O18 0.750000 0.250000 0.000000
#
# Coordination Sequence:
#
# PCOD8260781 Si02
#       7
#    16  16  16  16  16  16  16
#     4  11  23  35  54  91 130 166 210 260 315 389
#     4  11  24  39  58  90 127 165 211 263 319 382
#     4  10  22  43  62  84 120 162 213 268 315 376
#     4   9  18  35  58  87 123 158 200 260 326 392
#     4  12  21  37  62  88 124 167 212 258 322 386
#     4  11  23  40  65  93 122 168 219 270 334 389
#     4  11  20  39  63  87 118 169 210 253 316 385
#
# _framework density 20.727798
#
# number of rings (size 3 to 8) (size 9 to 14) (size 15 to 20)
#    0.000    1.286    2.857    4.286    0.000    4.000 
#    0.000    4.286    0.000    0.000    0.000    2.000 
#    0.000    0.000    0.000    0.000    0.000    0.000 
#
# Total GULP energy -693956.810089 kJ/mol
# GULP energy per Si atom -12392.085894 kJ/mol
# Density = 2.068062 g / cm^3
# Si number density = 20.727798 Si / 1000 Ang^3
#
#
#
# Elastic Constant Matrix: (Units=GPa)
#
#
# Indices 1 2 3 4 5 6 
#
# 1 61.4950 35.5531 34.0489 0.0000 0.0000 0.0000
# 2 35.5531 101.5091 29.1853 0.0000 0.0000 0.0000
# 3 34.0489 29.1853 113.3728 0.0000 0.0000 0.0000
# 4 0.0000 0.0000 0.0000 9.0038 0.0000 0.0000
# 5 0.0000 0.0000 0.0000 0.0000 20.5291 0.0000
# 6 0.0000 0.0000 0.0000 0.0000 0.0000 37.3893
#
#
#
# Elastic Compliance Matrix: (Units=1/GPa)
#
#
# Indices 1 2 3 4 5 6 
#
# 1 0.022917 -0.006531 -0.005201 0.000000 0.000000 0.000000
# 2 -0.006531 0.012500 -0.001256 0.000000 0.000000 0.000000
# 3 -0.005201 -0.001256 0.010706 0.000000 0.000000 0.000000
# 4 0.000000 0.000000 0.000000 0.111064 0.000000 0.000000
# 5 0.000000 0.000000 0.000000 0.000000 0.048711 0.000000
# 6 0.000000 0.000000 0.000000 0.000000 0.000000 0.026746
#
#
# Mechanical properties :
#
#
# Convention : Reuss Voigt Hill
#
# Bulk Modulus (GPa) = 49.63888 52.66130 51.15009
# Shear Modulus (GPa) = 18.84387 25.22372 22.03380
#
# Velocity S-wave (km/s) = 3.01842 3.49220 3.26392
# Velocity P-wave (km/s) = 6.01230 6.45925 6.23978
#
# Compressibility (1/GPa) = 0.02014550
#
# Stress axis : x y z
#
# Youngs Moduli (GPa) = 43.63488 79.99931 93.40549
#
# Poissons Ratio (x) = 0.52250 0.48584
# Poissons Ratio (y) = 0.28499 0.11735
# Poissons Ratio (z) = 0.22696 0.10051
#
# Static dielectric constant tensor:
#      x y z
#    x 3.995270 0.000000 0.000000 
#    y 0.000000 3.808670 0.000000 
#    z 0.000000 0.000000 4.057020 
# 
# 
# High freq. dielectric constant tensor:
#      x y z
#    x 1.816040 0.000000 0.000000 
#    y 0.000000 1.803100 0.000000 
#    z 0.000000 0.000000 1.804180 
# 
# From -- ./inp_files/38563.got.cif
#   From: 2010.03.12/outbox.cif.g09.slc.cpg/sg63_20_cif.got.tgz:38563.got - 2010.04.10 19:34:48.
