data_PCOD8260328
_publ_section_title
;
Structure prediction by ZEFSAII (Michael W. Deem and Ramdas Pophale) SiO2 
 PCOD8260328
Probable space group: C M C M
;
_chemical_formula_sum "Si O2"
_cell_formula_units_Z 96
_cell_length_a 9.105934
_cell_length_b 19.260040
_cell_length_c 27.346995
_cell_angle_alpha 90.000000
_cell_angle_beta 90.000000
_cell_angle_gamma 90.000000
_cell_volume 4796.133843
_symmetry_space_group_name_H-M "C M C M"
_symmetry_group_IT_number 63
_symmetry_cell_setting 'orthorhombic'
loop_
_space_group_symop_operation_xyz
x,y,z
-x,-y,1/2+z
x,-y,-z
-x,y,1/2-z
-x,-y,-z
x,y,1/2-z
-x,y,z
x,-y,1/2+z
1/2+x,1/2+y,z
1/2-x,1/2-y,1/2+z
1/2+x,1/2-y,-z
1/2-x,1/2+y,1/2-z
1/2-x,1/2-y,-z
1/2+x,1/2+y,1/2-z
1/2-x,1/2+y,z
1/2+x,1/2-y,1/2+z
loop_
_atom_site_type_symbol
_atom_site_label
_atom_site_fract_x
_atom_site_fract_y
_atom_site_fract_z
Si Si1 0.832347 0.977894 0.638562
Si Si2 0.668301 0.232098 0.648352
Si Si3 0.334314 0.614078 0.694091
Si Si4 0.173147 0.358145 0.806068
Si Si5 0.669619 0.954684 0.451773
Si Si6 0.331429 0.202802 0.538675
O O1 0.821837 0.033077 0.682140
O O2 0.764378 0.008501 0.589527
O O3 0.000000 0.956461 0.627769
O O4 0.746035 0.910568 0.656073
O O5 0.500000 0.243804 0.663728
O O6 0.717124 0.154051 0.660978
O O7 0.771619 0.282097 0.679573
O O8 0.689300 0.241057 0.590506
O O9 0.291313 0.625343 0.750000
O O10 0.500000 0.640514 0.683409
O O11 0.217833 0.374047 0.750000
O O12 0.000000 0.361388 0.812845
O O13 0.500000 0.951672 0.434904
O O14 0.729754 0.876313 0.460538
O O15 0.689548 0.000000 0.500000
O O16 0.500000 0.199675 0.522845
O O17 0.250000 0.250000 0.500000
#
# Coordination Sequence:
#
# PCOD8260328 Si02
#       6
#    16  16  16  16  16  16
#     4  11  23  40  64  93 126 162 203 257 310 365
#     4  11  23  40  62  91 125 159 202 256 307 361
#     4  10  21  38  61  89 121 159 200 244 300 365
#     4  11  25  43  63  89 124 167 211 254 306 369
#     4  10  22  42  65  91 124 164 207 253 307 370
#     4  10  23  41  62  91 125 160 203 253 307 368
#
# _framework density 20.016121999999999
#
# number of rings (size 3 to 8) (size 9 to 14) (size 15 to 20)
#    0.000    1.500    1.667    2.500    2.333    7.333 
#    0.000    0.000    0.000    0.000    0.000    0.000 
#    0.000    0.000    0.000    0.000    0.000    0.000 
#
# Total GULP energy -595403.579044 kJ/mol
# GULP energy per Si atom -12404.241230 kJ/mol
# Density = 1.997056 g / cm^3
# Si number density = 20.016122 Si / 1000 Ang^3
#
#
#
# Elastic Constant Matrix: (Units=GPa)
#
#
# Indices 1 2 3 4 5 6 
#
# 1 91.6418 39.0975 52.4503 0.0000 0.0000 0.0000
# 2 39.0975 84.7290 24.3364 0.0000 0.0000 0.0000
# 3 52.4503 24.3364 81.8084 0.0000 0.0000 0.0000
# 4 0.0000 0.0000 0.0000 39.5106 0.0000 0.0000
# 5 0.0000 0.0000 0.0000 0.0000 33.5098 0.0000
# 6 0.0000 0.0000 0.0000 0.0000 0.0000 37.1527
#
#
#
# Elastic Compliance Matrix: (Units=1/GPa)
#
#
# Indices 1 2 3 4 5 6 
#
# 1 0.019650 -0.005958 -0.010826 0.000000 0.000000 0.000000
# 2 -0.005958 0.014711 -0.000557 0.000000 0.000000 0.000000
# 3 -0.010826 -0.000557 0.019330 0.000000 0.000000 0.000000
# 4 0.000000 0.000000 0.000000 0.025310 0.000000 0.000000
# 5 0.000000 0.000000 0.000000 0.000000 0.029842 0.000000
# 6 0.000000 0.000000 0.000000 0.000000 0.000000 0.026916
#
#
# Mechanical properties :
#
#
# Convention : Reuss Voigt Hill
#
# Bulk Modulus (GPa) = 52.60170 54.43864 53.52017
# Shear Modulus (GPa) = 28.28423 31.52095 29.90259
#
# Velocity S-wave (km/s) = 3.76316 3.97265 3.86933
# Velocity P-wave (km/s) = 6.72448 6.94975 6.83804
#
# Compressibility (1/GPa) = 0.01901079
#
# Stress axis : x y z
#
# Youngs Moduli (GPa) = 50.89051 67.97460 51.73253
#
# Poissons Ratio (x) = 0.40498 0.56006
# Poissons Ratio (y) = 0.30320 0.02879
# Poissons Ratio (z) = 0.55094 0.03783
#
# Static dielectric constant tensor:
#      x y z
#    x 3.662320 0.000000 0.000000 
#    y 0.000000 3.767510 0.000000 
#    z 0.000000 0.000000 3.636450 
# 
# 
# High freq. dielectric constant tensor:
#      x y z
#    x 1.782940 0.000000 0.000000 
#    y 0.000000 1.789850 0.000000 
#    z 0.000000 0.000000 1.788400 
# 
# From -- ./inp_files/66883.got.cif
#   From: 2010.03.12/outbox.cif.g09.slc.cpg/sg63_34_cif.got.tgz:66883.got - 2010.04.10 19:34:48.
