data_PCOD8260198
_publ_section_title
;
Structure prediction by ZEFSAII (Michael W. Deem and Ramdas Pophale) SiO2 
 PCOD8260198
Probable space group: C M C M
;
_chemical_formula_sum "Si O2"
_cell_formula_units_Z 112
_cell_length_a 13.193949
_cell_length_b 29.337059
_cell_length_c 14.623150
_cell_angle_alpha 90.000000
_cell_angle_beta 90.000000
_cell_angle_gamma 90.000000
_cell_volume 5660.206949
_symmetry_space_group_name_H-M "C M C M"
_symmetry_group_IT_number 63
_symmetry_cell_setting 'orthorhombic'
loop_
_space_group_symop_operation_xyz
x,y,z
-x,-y,1/2+z
x,-y,-z
-x,y,1/2-z
-x,-y,-z
x,y,1/2-z
-x,y,z
x,-y,1/2+z
1/2+x,1/2+y,z
1/2-x,1/2-y,1/2+z
1/2+x,1/2-y,-z
1/2-x,1/2+y,1/2-z
1/2-x,1/2-y,-z
1/2+x,1/2+y,1/2-z
1/2-x,1/2+y,z
1/2+x,1/2-y,1/2+z
loop_
_atom_site_type_symbol
_atom_site_label
_atom_site_fract_x
_atom_site_fract_y
_atom_site_fract_z
Si Si1 0.301385 0.671258 0.351733
Si Si2 0.613606 0.232413 0.144984
Si Si3 0.230054 0.573087 0.347743
Si Si4 0.113323 0.996937 0.392533
Si Si5 0.616013 0.677177 0.956461
Si Si6 0.783175 0.906492 0.355283
Si Si7 0.616396 0.052489 0.980133
O O1 0.338229 0.688207 0.250000
O O2 0.188882 0.690431 0.372776
O O3 0.300931 0.616968 0.353106
O O4 0.375579 0.685153 0.434071
O O5 0.613362 0.247282 0.250000
O O6 0.500000 0.217807 0.113864
O O7 0.652694 0.276062 0.089221
O O8 0.172215 0.571583 0.250000
O O9 0.304237 0.529943 0.349219
O O10 0.146252 0.577315 0.426110
O O11 0.000000 0.011182 0.362131
O O12 0.126266 0.000000 0.500000
O O13 0.130850 0.945156 0.359935
O O14 0.500000 0.666434 0.930851
O O15 0.685195 0.636363 0.917770
O O16 0.766325 0.891234 0.250000
O O17 0.679776 0.928165 0.395088
O O18 0.500000 0.061131 0.956142
O O19 0.641159 0.000000 0.000000
#
# Coordination Sequence:
#
# PCOD8260198 Si02
#       7
#    16  16  16  16  16  16  16
#     4  10  21  37  59  85 116 154 196 239 291 351
#     4   9  19  37  61  89 118 149 192 245 296 347
#     4  11  21  37  58  84 115 150 194 239 288 341
#     4  11  21  36  58  84 119 158 195 237 287 344
#     4  11  22  38  60  89 123 157 195 240 295 352
#     4  12  23  39  61  87 119 155 199 241 289 351
#     4  11  23  41  60  82 115 154 197 245 297 345
#
# _framework density 19.787261999999998
#
# number of rings (size 3 to 8) (size 9 to 14) (size 15 to 20)
#    0.000    1.286    4.286    1.714    0.000    5.714 
#    0.000    4.286    0.000    0.000    0.000    2.000 
#    0.000    0.000    0.000    0.000    0.000    0.000 
#
# Total GULP energy -694264.555675 kJ/mol
# GULP energy per Si atom -12397.581351 kJ/mol
# Density = 1.974223 g / cm^3
# Si number density = 19.787262 Si / 1000 Ang^3
#
#
#
# Elastic Constant Matrix: (Units=GPa)
#
#
# Indices 1 2 3 4 5 6 
#
# 1 73.9073 14.8211 26.4006 0.0000 0.0000 0.0000
# 2 14.8211 61.6811 16.7388 0.0000 0.0000 0.0000
# 3 26.4006 16.7388 127.2077 0.0000 0.0000 0.0000
# 4 0.0000 0.0000 0.0000 28.0329 0.0000 0.0000
# 5 0.0000 0.0000 0.0000 0.0000 83.4518 0.0000
# 6 0.0000 0.0000 0.0000 0.0000 0.0000 19.9208
#
#
#
# Elastic Compliance Matrix: (Units=1/GPa)
#
#
# Indices 1 2 3 4 5 6 
#
# 1 0.015091 -0.002879 -0.002753 0.000000 0.000000 0.000000
# 2 -0.002879 0.017362 -0.001687 0.000000 0.000000 0.000000
# 3 -0.002753 -0.001687 0.008655 0.000000 0.000000 0.000000
# 4 0.000000 0.000000 0.000000 0.035672 0.000000 0.000000
# 5 0.000000 0.000000 0.000000 0.000000 0.011983 0.000000
# 6 0.000000 0.000000 0.000000 0.000000 0.000000 0.050199
#
#
# Mechanical properties :
#
#
# Convention : Reuss Voigt Hill
#
# Bulk Modulus (GPa) = 37.77973 42.07966 39.92969
# Shear Modulus (GPa) = 30.78369 39.93683 35.36026
#
# Velocity S-wave (km/s) = 3.94856 4.49743 4.23190
# Velocity P-wave (km/s) = 6.31843 6.94848 6.64093
#
# Compressibility (1/GPa) = 0.02646922
#
# Stress axis : x y z
#
# Youngs Moduli (GPa) = 66.26335 57.59684 115.54614
#
# Poissons Ratio (x) = 0.16583 0.31812
# Poissons Ratio (y) = 0.19078 0.19494
# Poissons Ratio (z) = 0.18244 0.09717
#
# Static dielectric constant tensor:
#      x y z
#    x 3.458990 0.000000 0.000000 
#    y 0.000000 3.539900 0.000000 
#    z 0.000000 0.000000 3.841790 
# 
# 
# High freq. dielectric constant tensor:
#      x y z
#    x 1.753410 0.000000 0.000000 
#    y 0.000000 1.766240 0.000000 
#    z 0.000000 0.000000 1.786670 
# 
# From -- ./inp_files/30436.got.cif
#   From: 2010.03.12/outbox.cif.g09.slc.cpg/sg63_16_cif.got.tgz:30436.got - 2010.04.10 19:34:48.
