data_PCOD8260903
_publ_section_title
;
Structure prediction by ZEFSAII (Michael W. Deem and Ramdas Pophale) SiO2 
 PCOD8260903
Probable space group: C M C M
;
_chemical_formula_sum "Si O2"
_cell_formula_units_Z 104
_cell_length_a 21.026256
_cell_length_b 18.823814
_cell_length_c 15.286576
_cell_angle_alpha 90.000000
_cell_angle_beta 90.000000
_cell_angle_gamma 90.000000
_cell_volume 6050.340137
_symmetry_space_group_name_H-M "C M C M"
_symmetry_group_IT_number 63
_symmetry_cell_setting 'orthorhombic'
loop_
_space_group_symop_operation_xyz
x,y,z
-x,-y,1/2+z
x,-y,-z
-x,y,1/2-z
-x,-y,-z
x,y,1/2-z
-x,y,z
x,-y,1/2+z
1/2+x,1/2+y,z
1/2-x,1/2-y,1/2+z
1/2+x,1/2-y,-z
1/2-x,1/2+y,1/2-z
1/2-x,1/2-y,-z
1/2+x,1/2+y,1/2-z
1/2-x,1/2+y,z
1/2+x,1/2-y,1/2+z
loop_
_atom_site_type_symbol
_atom_site_label
_atom_site_fract_x
_atom_site_fract_y
_atom_site_fract_z
Si Si1 0.222595 0.651741 0.351981
Si Si2 0.647901 0.716739 0.900456
Si Si3 0.350902 0.722291 0.095890
Si Si4 0.722732 0.147289 0.852380
Si Si5 0.251933 0.497013 0.599836
Si Si6 0.645362 0.505323 0.250000
Si Si7 0.924938 0.152465 0.250000
Si Si8 0.574732 0.643140 0.750000
O O1 0.238521 0.652703 0.250000
O O2 0.163046 0.701813 0.373890
O O3 0.285452 0.678736 0.400590
O O4 0.207583 0.572070 0.384730
O O5 0.711761 0.670097 0.897827
O O6 0.594965 0.686039 0.836211
O O7 0.620375 0.714621 0.998727
O O8 0.336010 0.805294 0.114690
O O9 0.402053 0.693615 0.163912
O O10 0.732925 0.158725 0.750000
O O11 0.709052 0.065482 0.876306
O O12 0.275782 0.500000 0.500000
O O13 0.312901 0.492688 0.662373
O O14 0.599096 0.572104 0.250000
O O15 0.604803 0.434343 0.250000
O O16 0.000000 0.151702 0.250000
O O17 0.500000 0.634637 0.750000
#
# Coordination Sequence:
#
# PCOD8260903 Si02
#       8
#    16  16  16  16  16   8   8   8
#     4  11  18  33  55  83 112 141 172 219 280 338
#     4  11  20  35  56  79 106 140 181 229 276 322
#     4  11  20  35  56  79 106 140 181 229 276 322
#     4  11  18  33  55  83 112 141 172 219 280 338
#     4  12  20  31  53  85 118 146 172 212 275 341
#     4  12  23  38  52  76 108 150 191 224 262 310
#     4  12  25  40  55  74 106 150 198 233 261 306
#     4  12  25  40  55  74 106 150 198 233 261 306
#
# _framework density 17.189117
#
# number of rings (size 3 to 8) (size 9 to 14) (size 15 to 20)
#    0.000    0.615    7.692    4.846    0.000    0.615 
#    0.000    0.000    0.000    2.769    0.000    2.154 
#    0.000    3.692    0.000    0.000    0.000    0.000 
#
# Total GULP energy -644923.824304 kJ/mol
# GULP energy per Si atom -12402.381237 kJ/mol
# Density = 1.714999 g / cm^3
# Si number density = 17.189117 Si / 1000 Ang^3
#
#
#
# Elastic Constant Matrix: (Units=GPa)
#
#
# Indices 1 2 3 4 5 6 
#
# 1 36.2539 8.3476 10.3483 0.0000 0.0000 0.0000
# 2 8.3476 102.7981 1.7815 0.0000 0.0000 0.0000
# 3 10.3483 1.7815 113.4909 0.0000 0.0000 0.0000
# 4 0.0000 0.0000 0.0000 23.3025 0.0000 0.0000
# 5 0.0000 0.0000 0.0000 0.0000 7.4215 0.0000
# 6 0.0000 0.0000 0.0000 0.0000 0.0000 8.3254
#
#
#
# Elastic Compliance Matrix: (Units=1/GPa)
#
#
# Indices 1 2 3 4 5 6 
#
# 1 0.028853 -0.002298 -0.002595 0.000000 0.000000 0.000000
# 2 -0.002298 0.009913 0.000054 0.000000 0.000000 0.000000
# 3 -0.002595 0.000054 0.009047 0.000000 0.000000 0.000000
# 4 0.000000 0.000000 0.000000 0.042914 0.000000 0.000000
# 5 0.000000 0.000000 0.000000 0.000000 0.134744 0.000000
# 6 0.000000 0.000000 0.000000 0.000000 0.000000 0.120114
#
#
# Mechanical properties :
#
#
# Convention : Reuss Voigt Hill
#
# Bulk Modulus (GPa) = 26.22213 32.61088 29.41650
# Shear Modulus (GPa) = 13.58788 23.28092 18.43440
#
# Velocity S-wave (km/s) = 2.81462 3.68421 3.27838
# Velocity P-wave (km/s) = 5.08439 6.09187 5.61079
#
# Compressibility (1/GPa) = 0.03813573
#
# Stress axis : x y z
#
# Youngs Moduli (GPa) = 34.65844 100.87272 110.53352
#
# Poissons Ratio (x) = 0.23181 0.28681
# Poissons Ratio (y) = 0.07965 -0.00596
# Poissons Ratio (z) = 0.08993 -0.00544
#
# Static dielectric constant tensor:
#      x y z
#    x 2.694020 0.000000 0.000000 
#    y 0.000000 3.789120 0.000000 
#    z 0.000000 0.000000 3.431120 
# 
# 
# High freq. dielectric constant tensor:
#      x y z
#    x 1.593630 0.000000 0.000000 
#    y 0.000000 1.684570 0.000000 
#    z 0.000000 0.000000 1.689930 
# 
# From -- ./inp_files/35664.got.cif
#   From: 2010.03.12/outbox.cif.g09.slc.cpg/sg63_18_cif.got.tgz:35664.got - 2010.04.10 19:34:48.
