data_PCOD8260931
_publ_section_title
;
Structure prediction by ZEFSAII (Michael W. Deem and Ramdas Pophale) SiO2 
 PCOD8260931
Probable space group: C M C M
;
_chemical_formula_sum "Si O2"
_cell_formula_units_Z 96
_cell_length_a 8.850580
_cell_length_b 23.896289
_cell_length_c 26.167551
_cell_angle_alpha 90.000000
_cell_angle_beta 90.000000
_cell_angle_gamma 90.000000
_cell_volume 5534.332824
_symmetry_space_group_name_H-M "C M C M"
_symmetry_group_IT_number 63
_symmetry_cell_setting 'orthorhombic'
loop_
_space_group_symop_operation_xyz
x,y,z
-x,-y,1/2+z
x,-y,-z
-x,y,1/2-z
-x,-y,-z
x,y,1/2-z
-x,y,z
x,-y,1/2+z
1/2+x,1/2+y,z
1/2-x,1/2-y,1/2+z
1/2+x,1/2-y,-z
1/2-x,1/2+y,1/2-z
1/2-x,1/2-y,-z
1/2+x,1/2+y,1/2-z
1/2-x,1/2+y,z
1/2+x,1/2-y,1/2+z
loop_
_atom_site_type_symbol
_atom_site_label
_atom_site_fract_x
_atom_site_fract_y
_atom_site_fract_z
Si Si1 0.678709 0.921337 0.890673
Si Si2 0.179089 0.239547 0.882397
Si Si3 0.177680 0.674599 0.463598
Si Si4 0.321400 0.479607 0.056006
Si Si5 0.678302 0.139626 0.926850
Si Si6 0.320745 0.164922 0.193134
O O1 0.500000 0.933104 0.891570
O O2 0.734623 0.882028 0.936860
O O3 0.728583 0.890734 0.837937
O O4 0.767439 0.978960 0.898972
O O5 0.238841 0.271043 0.933788
O O6 0.259543 0.178644 0.880697
O O7 0.232109 0.277666 0.834510
O O8 0.000000 0.230445 0.882060
O O9 0.228949 0.672897 0.522037
O O10 0.000000 0.675390 0.456901
O O11 0.500000 0.474828 0.055829
O O12 0.253354 0.420572 0.072458
O O13 0.262420 0.500000 0.000000
O O14 0.500000 0.131864 0.922314
O O15 0.250141 0.162587 0.250000
O O16 0.500000 0.165891 0.195269
#
# Coordination Sequence:
#
# PCOD8260931 Si02
#       6
#    16  16  16  16  16  16
#     4   9  16  30  51  73  98 128 165 202 237 287
#     4   9  17  30  47  70 100 127 158 198 240 287
#     4   8  15  27  44  66  94 129 160 191 231 279
#     4  11  22  33  46  68  99 134 169 204 242 288
#     4  11  20  30  46  67  97 134 169 197 232 284
#     4   8  15  30  55  81 100 123 157 200 251 299
#
# _framework density 17.346264999999999
#
# number of rings (size 3 to 8) (size 9 to 14) (size 15 to 20)
#    0.000    2.667    1.667    3.500    0.000    0.667 
#    0.000    4.167    0.000    3.000    0.000    0.000 
#    0.000    0.000    0.000    0.000    0.000    0.000 
#
# Total GULP energy -594816.105240 kJ/mol
# GULP energy per Si atom -12392.002193 kJ/mol
# Density = 1.730678 g / cm^3
# Si number density = 17.346265 Si / 1000 Ang^3
#
#
#
# Elastic Constant Matrix: (Units=GPa)
#
#
# Indices 1 2 3 4 5 6 
#
# 1 42.5825 42.3861 30.1842 0.0000 0.0000 0.0000
# 2 42.3861 144.4209 62.3995 0.0000 0.0000 0.0000
# 3 30.1842 62.3995 94.6275 0.0000 0.0000 0.0000
# 4 0.0000 0.0000 0.0000 15.4018 0.0000 0.0000
# 5 0.0000 0.0000 0.0000 0.0000 11.5296 0.0000
# 6 0.0000 0.0000 0.0000 0.0000 0.0000 25.1824
#
#
#
# Elastic Compliance Matrix: (Units=1/GPa)
#
#
# Indices 1 2 3 4 5 6 
#
# 1 0.035638 -0.007758 -0.006252 0.000000 0.000000 0.000000
# 2 -0.007758 0.011372 -0.005024 0.000000 0.000000 0.000000
# 3 -0.006252 -0.005024 0.015875 0.000000 0.000000 0.000000
# 4 0.000000 0.000000 0.000000 0.064927 0.000000 0.000000
# 5 0.000000 0.000000 0.000000 0.000000 0.086734 0.000000
# 6 0.000000 0.000000 0.000000 0.000000 0.000000 0.039710
#
#
# Mechanical properties :
#
#
# Convention : Reuss Voigt Hill
#
# Bulk Modulus (GPa) = 40.29600 61.28562 50.79081
# Shear Modulus (GPa) = 16.63360 20.20015 18.41688
#
# Velocity S-wave (km/s) = 3.10000 3.41622 3.26194
# Velocity P-wave (km/s) = 6.00784 7.13920 6.59781
#
# Compressibility (1/GPa) = 0.02481636
#
# Stress axis : x y z
#
# Youngs Moduli (GPa) = 28.06019 87.93569 62.99195
#
# Poissons Ratio (x) = 0.68221 0.39381
# Poissons Ratio (y) = 0.21769 0.31649
# Poissons Ratio (z) = 0.17543 0.44181
#
# Static dielectric constant tensor:
#      x y z
#    x 2.857440 0.000000 0.000000 
#    y 0.000000 3.300360 0.000000 
#    z 0.000000 0.000000 3.511240 
# 
# 
# High freq. dielectric constant tensor:
#      x y z
#    x 1.642200 0.000000 0.000000 
#    y 0.000000 1.677970 0.000000 
#    z 0.000000 0.000000 1.638900 
# 
# From -- ./inp_files/67002.got.cif
#   From: 2010.03.12/outbox.cif.g09.slc.cpg/sg63_34_cif.got.tgz:67002.got - 2010.04.10 19:34:48.
