data_PCOD8260881
_publ_section_title
;
Structure prediction by ZEFSAII (Michael W. Deem and Ramdas Pophale) SiO2 
 PCOD8260881
Probable space group: C M C M
;
_chemical_formula_sum "Si O2"
_cell_formula_units_Z 112
_cell_length_a 23.464267
_cell_length_b 14.323433
_cell_length_c 15.593459
_cell_angle_alpha 90.000000
_cell_angle_beta 90.000000
_cell_angle_gamma 90.000000
_cell_volume 5240.787801
_symmetry_space_group_name_H-M "C M C M"
_symmetry_group_IT_number 63
_symmetry_cell_setting 'orthorhombic'
loop_
_space_group_symop_operation_xyz
x,y,z
-x,-y,1/2+z
x,-y,-z
-x,y,1/2-z
-x,-y,-z
x,y,1/2-z
-x,y,z
x,-y,1/2+z
1/2+x,1/2+y,z
1/2-x,1/2-y,1/2+z
1/2+x,1/2-y,-z
1/2-x,1/2+y,1/2-z
1/2-x,1/2-y,-z
1/2+x,1/2+y,1/2-z
1/2-x,1/2+y,z
1/2+x,1/2-y,1/2+z
loop_
_atom_site_type_symbol
_atom_site_label
_atom_site_fract_x
_atom_site_fract_y
_atom_site_fract_z
Si Si1 0.253714 0.123609 0.084894
Si Si2 0.434590 0.786279 0.513644
Si Si3 0.937086 0.080655 0.931496
Si Si4 0.232133 0.666149 0.889982
Si Si5 0.390742 0.119285 0.844947
Si Si6 0.626730 0.089202 0.152422
Si Si7 0.175472 0.026268 0.654907
O O1 0.235621 0.223182 0.121517
O O2 0.305298 0.080478 0.139714
O O3 0.200099 0.052700 0.090660
O O4 0.274211 0.133437 0.987796
O O5 0.500000 0.810229 0.531403
O O6 0.421122 0.676734 0.520246
O O7 0.419078 0.816874 0.417289
O O8 0.397477 0.836479 0.585798
O O9 0.889727 0.053910 0.862445
O O10 0.000000 0.089948 0.887792
O O11 0.938975 0.000000 0.000000
O O12 0.176874 0.632671 0.839795
O O13 0.288422 0.621368 0.849724
O O14 0.415392 0.144347 0.750000
O O15 0.402776 0.010538 0.865496
O O16 0.614172 0.121547 0.250000
O O17 0.178407 0.984050 0.750000
#
# Coordination Sequence:
#
# PCOD8260881 Si02
#       7
#    16  16  16  16  16  16  16
#     4  11  23  39  63  93 130 173 221 266 321 392
#     4  11  25  45  70  96 125 176 230 272 332 401
#     4  10  24  47  69  91 126 171 225 279 328 390
#     4  11  23  39  63  93 129 175 217 265 326 391
#     4  11  24  41  64  97 136 172 214 273 341 403
#     4  11  23  41  65  98 137 172 213 274 335 395
#     4  12  25  39  63 100 134 170 216 269 331 395
#
# _framework density 21.370833000000001
#
# number of rings (size 3 to 8) (size 9 to 14) (size 15 to 20)
#    0.000    1.000    2.857    3.429    4.000    6.000 
#    0.000    2.857    0.000    2.571    0.000    0.000 
#    0.000    0.000    0.000    0.000    0.000    0.000 
#
# Total GULP energy -694561.997517 kJ/mol
# GULP energy per Si atom -12402.892813 kJ/mol
# Density = 2.132219 g / cm^3
# Si number density = 21.370833 Si / 1000 Ang^3
#
#
#
# Elastic Constant Matrix: (Units=GPa)
#
#
# Indices 1 2 3 4 5 6 
#
# 1 102.6750 37.0961 23.5798 0.0000 0.0000 0.0000
# 2 37.0961 133.6928 52.5452 0.0000 0.0000 0.0000
# 3 23.5798 52.5452 100.3136 0.0000 0.0000 0.0000
# 4 0.0000 0.0000 0.0000 14.8328 0.0000 0.0000
# 5 0.0000 0.0000 0.0000 0.0000 11.8931 0.0000
# 6 0.0000 0.0000 0.0000 0.0000 0.0000 33.3428
#
#
#
# Elastic Compliance Matrix: (Units=1/GPa)
#
#
# Indices 1 2 3 4 5 6 
#
# 1 0.010945 -0.002551 -0.001237 0.000000 0.000000 0.000000
# 2 -0.002551 0.010013 -0.004646 0.000000 0.000000 0.000000
# 3 -0.001237 -0.004646 0.012693 0.000000 0.000000 0.000000
# 4 0.000000 0.000000 0.000000 0.067418 0.000000 0.000000
# 5 0.000000 0.000000 0.000000 0.000000 0.084082 0.000000
# 6 0.000000 0.000000 0.000000 0.000000 0.000000 0.029992
#
#
# Mechanical properties :
#
#
# Convention : Reuss Voigt Hill
#
# Bulk Modulus (GPa) = 59.57601 62.56932 61.07266
# Shear Modulus (GPa) = 21.04338 26.91108 23.97723
#
# Velocity S-wave (km/s) = 3.14136 3.55243 3.35320
# Velocity P-wave (km/s) = 6.41056 6.79469 6.60542
#
# Compressibility (1/GPa) = 0.01678528
#
# Stress axis : x y z
#
# Youngs Moduli (GPa) = 91.36500 99.86530 78.78503
#
# Poissons Ratio (x) = 0.25475 0.09742
# Poissons Ratio (y) = 0.23307 0.36600
# Poissons Ratio (z) = 0.11298 0.46393
#
# Static dielectric constant tensor:
#      x y z
#    x 4.022350 0.000000 0.000000 
#    y 0.000000 3.963970 0.000000 
#    z 0.000000 0.000000 3.803990 
# 
# 
# High freq. dielectric constant tensor:
#      x y z
#    x 1.835120 0.000000 0.000000 
#    y 0.000000 1.849580 0.000000 
#    z 0.000000 0.000000 1.836230 
# 
# From -- ./inp_files/36918.got.cif
#   From: 2010.03.12/outbox.cif.g09.slc.cpg/sg63_19_cif.got.tgz:36918.got - 2010.04.10 19:34:48.
