data_PCOD8260352
_publ_section_title
;
Structure prediction by ZEFSAII (Michael W. Deem and Ramdas Pophale) SiO2 
 PCOD8260352
Probable space group: C M C M
;
_chemical_formula_sum "Si O2"
_cell_formula_units_Z 96
_cell_length_a 20.111776
_cell_length_b 14.423787
_cell_length_c 16.895458
_cell_angle_alpha 90.000000
_cell_angle_beta 90.000000
_cell_angle_gamma 90.000000
_cell_volume 4901.169168
_symmetry_space_group_name_H-M "C M C M"
_symmetry_group_IT_number 63
_symmetry_cell_setting 'orthorhombic'
loop_
_space_group_symop_operation_xyz
x,y,z
-x,-y,1/2+z
x,-y,-z
-x,y,1/2-z
-x,-y,-z
x,y,1/2-z
-x,y,z
x,-y,1/2+z
1/2+x,1/2+y,z
1/2-x,1/2-y,1/2+z
1/2+x,1/2-y,-z
1/2-x,1/2+y,1/2-z
1/2-x,1/2-y,-z
1/2+x,1/2+y,1/2-z
1/2-x,1/2+y,z
1/2+x,1/2-y,1/2+z
loop_
_atom_site_type_symbol
_atom_site_label
_atom_site_fract_x
_atom_site_fract_y
_atom_site_fract_z
Si Si1 0.361449 0.149488 0.091273
Si Si2 0.721371 0.347181 0.659348
Si Si3 0.574473 0.322562 0.340937
Si Si4 0.197799 0.945334 0.157739
Si Si5 0.423834 0.969622 0.158722
Si Si6 0.679463 0.162121 0.588199
O O1 0.300832 0.160489 0.152284
O O2 0.411760 0.234198 0.103879
O O3 0.400273 0.054280 0.104696
O O4 0.332503 0.148372 0.003781
O O5 0.701733 0.329446 0.750000
O O6 0.697682 0.448129 0.630008
O O7 0.684233 0.271179 0.606250
O O8 0.581825 0.290794 0.250000
O O9 0.500000 0.358561 0.358537
O O10 0.624793 0.405830 0.360437
O O11 0.217058 0.937679 0.250000
O O12 0.251521 0.887782 0.108768
O O13 0.414184 0.997232 0.250000
O O14 0.500000 0.946121 0.139173
O O15 0.380924 0.879085 0.139033
#
# Coordination Sequence:
#
# PCOD8260352 Si02
#       6
#    16  16  16  16  16  16
#     4  12  23  36  60  95 124 155 200 258 314 362
#     4  11  22  38  62  90 120 157 205 253 298 363
#     4  10  21  39  63  89 120 160 206 255 306 362
#     4  10  21  38  63  90 120 161 209 256 298 360
#     4  11  24  42  64  90 124 167 209 250 306 376
#     4  12  24  39  60  92 128 161 198 252 316 369
#
# _framework density 19.587163
#
# number of rings (size 3 to 8) (size 9 to 14) (size 15 to 20)
#    0.000    1.000    3.333    4.500    0.000    3.333 
#    0.000    0.833    0.000    4.000    0.000    0.000 
#    0.000    0.000    0.000    0.000    0.000    0.000 
#
# Total GULP energy -595518.886622 kJ/mol
# GULP energy per Si atom -12406.643471 kJ/mol
# Density = 1.954258 g / cm^3
# Si number density = 19.587163 Si / 1000 Ang^3
#
#
#
# Elastic Constant Matrix: (Units=GPa)
#
#
# Indices 1 2 3 4 5 6 
#
# 1 152.1176 69.1897 44.3292 0.0000 0.0000 0.0000
# 2 69.1897 139.4052 42.8542 0.0000 0.0000 0.0000
# 3 44.3292 42.8542 80.3916 0.0000 0.0000 0.0000
# 4 0.0000 0.0000 0.0000 -13.3413 0.0000 0.0000
# 5 0.0000 0.0000 0.0000 0.0000 23.3452 0.0000
# 6 0.0000 0.0000 0.0000 0.0000 0.0000 36.8228
#
#
#
# Elastic Compliance Matrix: (Units=1/GPa)
#
#
# Indices 1 2 3 4 5 6 
#
# 1 0.009102 -0.003558 -0.003123 0.000000 0.000000 0.000000
# 2 -0.003558 0.009970 -0.003353 0.000000 0.000000 0.000000
# 3 -0.003123 -0.003353 0.015948 0.000000 0.000000 0.000000
# 4 0.000000 0.000000 0.000000 -0.074955 0.000000 0.000000
# 5 0.000000 0.000000 0.000000 0.000000 0.042835 0.000000
# 6 0.000000 0.000000 0.000000 0.000000 0.000000 0.027157
#
#
# Mechanical properties :
#
#
# Convention : Reuss Voigt Hill
#
# Bulk Modulus (GPa) = 66.87180 76.07342 71.47261
# Shear Modulus (GPa) = 90.73149 23.73475 57.23312
#
# Velocity S-wave (km/s) = 6.81340 3.48480 5.41139
# Velocity P-wave (km/s) = 9.80364 7.42391 8.69557
#
# Compressibility (1/GPa) = 0.01495399
#
# Stress axis : x y z
#
# Youngs Moduli (GPa) = 109.86635 100.30358 62.70298
#
# Poissons Ratio (x) = 0.35684 0.19579
# Poissons Ratio (y) = 0.39086 0.21023
# Poissons Ratio (z) = 0.34306 0.33630
#
# Static dielectric constant tensor:
#      x y z
#    x 3.659520 0.000000 0.000000 
#    y 0.000000 3.668510 0.000000 
#    z 0.000000 0.000000 3.498920 
# 
# 
# High freq. dielectric constant tensor:
#      x y z
#    x 1.761340 0.000000 0.000000 
#    y 0.000000 1.767270 0.000000 
#    z 0.000000 0.000000 1.760350 
# 
# From -- ./inp_files/35329.got.cif
#   From: 2010.03.12/outbox.cif.g09.slc.cpg/sg63_18_cif.got.tgz:35329.got - 2010.04.10 19:34:48.
