data_PCOD8260888
_publ_section_title
;
Structure prediction by ZEFSAII (Michael W. Deem and Ramdas Pophale) SiO2 
 PCOD8260888
Probable space group: C M C M
;
_chemical_formula_sum "Si O2"
_cell_formula_units_Z 52
_cell_length_a 12.142915
_cell_length_b 31.656347
_cell_length_c 7.446226
_cell_angle_alpha 90.000000
_cell_angle_beta 90.000000
_cell_angle_gamma 90.000000
_cell_volume 2862.331738
_symmetry_space_group_name_H-M "C M C M"
_symmetry_group_IT_number 63
_symmetry_cell_setting 'orthorhombic'
loop_
_space_group_symop_operation_xyz
x,y,z
-x,-y,1/2+z
x,-y,-z
-x,y,1/2-z
-x,-y,-z
x,y,1/2-z
-x,y,z
x,-y,1/2+z
1/2+x,1/2+y,z
1/2-x,1/2-y,1/2+z
1/2+x,1/2-y,-z
1/2-x,1/2+y,1/2-z
1/2-x,1/2-y,-z
1/2+x,1/2+y,1/2-z
1/2-x,1/2+y,z
1/2+x,1/2-y,1/2+z
loop_
_atom_site_type_symbol
_atom_site_label
_atom_site_fract_x
_atom_site_fract_y
_atom_site_fract_z
Si Si1 0.378190 0.664715 0.750000
Si Si2 0.877927 0.454450 0.541008
Si Si3 0.500000 0.816245 0.040183
Si Si4 0.217208 0.631456 0.458083
Si Si5 0.000000 0.245759 0.750000
O O1 0.500000 0.643448 0.750000
O O2 0.315614 0.651367 0.570371
O O3 0.391140 0.715815 0.750000
O O4 0.822261 0.500000 0.500000
O O5 0.890929 0.446756 0.750000
O O6 0.802878 0.416295 0.467396
O O7 0.000000 0.453278 0.450824
O O8 0.500000 0.805085 0.250000
O O9 0.393976 0.842753 0.985829
O O10 0.500000 0.772866 0.930908
O O11 0.252282 0.632284 0.250000
#
# Coordination Sequence:
#
# PCOD8260888 Si02
#       5
#     8  16   8  16   4
#     4  10  26  45  59  87 111 168 213 246 300 349
#     4   9  18  30  52  91 129 152 181 231 294 366
#     4  12  22  38  65  95 121 155 193 248 317 376
#     4  11  21  39  65  89 125 160 196 246 306 361
#     4  10  26  46  56  90 122 144 214 262 298 356
#
# _framework density 18.167007000000002
#
# number of rings (size 3 to 8) (size 9 to 14) (size 15 to 20)
#    0.462    1.231    4.615    0.000    2.154    3.077 
#    0.000    0.000    0.000    0.923    0.000    0.000 
#    0.000    0.000    0.000    0.000    0.000    0.000 
#
# Total GULP energy -322297.947718 kJ/mol
# GULP energy per Si atom -12396.074912 kJ/mol
# Density = 1.812566 g / cm^3
# Si number density = 18.167007 Si / 1000 Ang^3
#
#
#
# Elastic Constant Matrix: (Units=GPa)
#
#
# Indices 1 2 3 4 5 6 
#
# 1 111.9988 60.6638 39.3992 0.0000 0.0000 0.0000
# 2 60.6638 171.5962 53.4688 0.0000 0.0000 0.0000
# 3 39.3992 53.4688 107.8405 0.0000 0.0000 0.0000
# 4 0.0000 0.0000 0.0000 30.5912 0.0000 0.0000
# 5 0.0000 0.0000 0.0000 0.0000 279.1208 0.0000
# 6 0.0000 0.0000 0.0000 0.0000 0.0000 -532.0155
#
#
#
# Elastic Compliance Matrix: (Units=1/GPa)
#
#
# Indices 1 2 3 4 5 6 
#
# 1 0.011635 -0.003298 -0.002616 0.000000 0.000000 0.000000
# 2 -0.003298 0.007828 -0.002676 0.000000 0.000000 0.000000
# 3 -0.002616 -0.002676 0.011555 0.000000 0.000000 0.000000
# 4 0.000000 0.000000 0.000000 0.032689 0.000000 0.000000
# 5 0.000000 0.000000 0.000000 0.000000 0.003583 0.000000
# 6 0.000000 0.000000 0.000000 0.000000 0.000000 -0.001880
#
#
# Mechanical properties :
#
#
# Convention : Reuss Voigt Hill
#
# Bulk Modulus (GPa) = 72.26266 77.61101 74.93683
# Shear Modulus (GPa) = 57.33753 -28.60046 14.36854
#
# Velocity S-wave (km/s) = 5.62404 -3.97206 2.81537
# Velocity P-wave (km/s) = 9.05739 4.66661 7.20464
#
# Compressibility (1/GPa) = 0.01383841
#
# Stress axis : x y z
#
# Youngs Moduli (GPa) = 85.94506 127.75433 86.54037
#
# Poissons Ratio (x) = 0.42139 0.22635
# Poissons Ratio (y) = 0.28348 0.23158
# Poissons Ratio (z) = 0.22479 0.34186
#
# Static dielectric constant tensor:
#      x y z
#    x 2.951190 0.000000 0.000000 
#    y 0.000000 3.591050 0.000000 
#    z 0.000000 0.000000 3.409970 
# 
# 
# High freq. dielectric constant tensor:
#      x y z
#    x 1.664700 0.000000 0.000000 
#    y 0.000000 1.715700 0.000000 
#    z 0.000000 0.000000 1.715650 
# 
# From -- ./inp_files/2988.got.cif
#   From: 2010.03.12/outbox.cif.g09.slc.cpg/sg63_2_cif.got.tgz:2988.got - 2010.04.10 19:34:48.
