data_PCOD8260046
_publ_section_title
;
Structure prediction by ZEFSAII (Michael W. Deem and Ramdas Pophale) SiO2 
 PCOD8260046
Probable space group: C M C M
;
_chemical_formula_sum "Si O2"
_cell_formula_units_Z 96
_cell_length_a 11.450957
_cell_length_b 23.345678
_cell_length_c 18.221606
_cell_angle_alpha 90.000000
_cell_angle_beta 90.000000
_cell_angle_gamma 90.000000
_cell_volume 4871.188399
_symmetry_space_group_name_H-M "C M C M"
_symmetry_group_IT_number 63
_symmetry_cell_setting 'orthorhombic'
loop_
_space_group_symop_operation_xyz
x,y,z
-x,-y,1/2+z
x,-y,-z
-x,y,1/2-z
-x,-y,-z
x,y,1/2-z
-x,y,z
x,-y,1/2+z
1/2+x,1/2+y,z
1/2-x,1/2-y,1/2+z
1/2+x,1/2-y,-z
1/2-x,1/2+y,1/2-z
1/2-x,1/2-y,-z
1/2+x,1/2+y,1/2-z
1/2-x,1/2+y,z
1/2+x,1/2-y,1/2+z
loop_
_atom_site_type_symbol
_atom_site_label
_atom_site_fract_x
_atom_site_fract_y
_atom_site_fract_z
Si Si1 0.367674 0.482988 0.169294
Si Si2 0.190502 0.877355 0.427317
Si Si3 0.862196 0.907321 0.586530
Si Si4 0.764712 0.200419 0.165697
Si Si5 0.129430 0.753858 0.047780
Si Si6 0.633533 0.821731 0.169836
O O1 0.307794 0.476038 0.250000
O O2 0.500000 0.501730 0.181881
O O3 0.367702 0.424573 0.124008
O O4 0.309985 0.535122 0.123607
O O5 0.205668 0.900184 0.509827
O O6 0.114092 0.819391 0.425895
O O7 0.316289 0.862200 0.393625
O O8 0.836773 0.854600 0.640039
O O9 0.000000 0.911114 0.569529
O O10 0.727578 0.192543 0.250000
O O11 0.648153 0.211378 0.117066
O O12 0.848736 0.254773 0.152247
O O13 0.000000 0.737957 0.012321
O O14 0.250000 0.750000 0.000000
O O15 0.690477 0.835158 0.250000
O O16 0.500000 0.836839 0.172663
#
# Coordination Sequence:
#
# PCOD8260046 Si02
#       6
#    16  16  16  16  16  16
#     4  10  21  36  56  82 113 152 197 244 297 357
#     4  11  21  35  57  86 117 151 191 246 304 357
#     4  11  21  35  55  84 119 157 197 245 302 360
#     4  10  21  37  57  85 118 157 199 245 295 354
#     4  11  23  39  61  91 126 164 200 245 302 363
#     4   9  19  35  56  83 115 154 199 246 296 355
#
# _framework density 19.707716000000001
#
# number of rings (size 3 to 8) (size 9 to 14) (size 15 to 20)
#    0.000    1.667    1.667    3.500    0.000    6.667 
#    0.000    0.000    0.000    3.000    0.000    0.000 
#    0.000    0.000    0.000    0.000    0.000    0.000 
#
# Total GULP energy -594729.099962 kJ/mol
# GULP energy per Si atom -12390.189583 kJ/mol
# Density = 1.966286 g / cm^3
# Si number density = 19.707716 Si / 1000 Ang^3
#
#
#
# Elastic Constant Matrix: (Units=GPa)
#
#
# Indices 1 2 3 4 5 6 
#
# 1 95.1575 22.3870 42.0014 0.0000 0.0000 0.0000
# 2 22.3870 112.1445 55.4229 0.0000 0.0000 0.0000
# 3 42.0014 55.4229 144.7457 0.0000 0.0000 0.0000
# 4 0.0000 0.0000 0.0000 38.1976 0.0000 0.0000
# 5 0.0000 0.0000 0.0000 0.0000 27.9525 0.0000
# 6 0.0000 0.0000 0.0000 0.0000 0.0000 16.6951
#
#
#
# Elastic Compliance Matrix: (Units=1/GPa)
#
#
# Indices 1 2 3 4 5 6 
#
# 1 0.012116 -0.000840 -0.003194 0.000000 0.000000 0.000000
# 2 -0.000840 0.011057 -0.003990 0.000000 0.000000 0.000000
# 3 -0.003194 -0.003990 0.009363 0.000000 0.000000 0.000000
# 4 0.000000 0.000000 0.000000 0.026180 0.000000 0.000000
# 5 0.000000 0.000000 0.000000 0.000000 0.035775 0.000000
# 6 0.000000 0.000000 0.000000 0.000000 0.000000 0.059898
#
#
# Mechanical properties :
#
#
# Convention : Reuss Voigt Hill
#
# Bulk Modulus (GPa) = 60.65009 65.74112 63.19560
# Shear Modulus (GPa) = 28.41993 32.05147 30.23570
#
# Velocity S-wave (km/s) = 3.80158 4.03717 3.92114
# Velocity P-wave (km/s) = 7.07891 7.42712 7.25510
#
# Compressibility (1/GPa) = 0.01648802
#
# Stress axis : x y z
#
# Youngs Moduli (GPa) = 82.53263 90.44413 106.80114
#
# Poissons Ratio (x) = 0.07599 0.34114
# Poissons Ratio (y) = 0.06934 0.42611
# Poissons Ratio (z) = 0.26362 0.36085
#
# Static dielectric constant tensor:
#      x y z
#    x 3.336860 0.000000 0.000000 
#    y 0.000000 3.637010 0.000000 
#    z 0.000000 0.000000 4.079540 
# 
# 
# High freq. dielectric constant tensor:
#      x y z
#    x 1.726760 0.000000 0.000000 
#    y 0.000000 1.764060 0.000000 
#    z 0.000000 0.000000 1.789760 
# 
# From -- ./inp_files/42469.got.cif
#   From: 2010.03.12/outbox.cif.g09.slc.cpg/sg63_22_cif.got.tgz:42469.got - 2010.04.10 19:34:48.
