data_PCOD8260711
_publ_section_title
;
Structure prediction by ZEFSAII (Michael W. Deem and Ramdas Pophale) SiO2 
 PCOD8260711
Probable space group: C M C M
;
_chemical_formula_sum "Si O2"
_cell_formula_units_Z 104
_cell_length_a 20.987994
_cell_length_b 27.867038
_cell_length_c 8.842666
_cell_angle_alpha 90.000000
_cell_angle_beta 90.000000
_cell_angle_gamma 90.000000
_cell_volume 5171.838593
_symmetry_space_group_name_H-M "C M C M"
_symmetry_group_IT_number 63
_symmetry_cell_setting 'orthorhombic'
loop_
_space_group_symop_operation_xyz
x,y,z
-x,-y,1/2+z
x,-y,-z
-x,y,1/2-z
-x,-y,-z
x,y,1/2-z
-x,y,z
x,-y,1/2+z
1/2+x,1/2+y,z
1/2-x,1/2-y,1/2+z
1/2+x,1/2-y,-z
1/2-x,1/2+y,1/2-z
1/2-x,1/2-y,-z
1/2+x,1/2+y,1/2-z
1/2-x,1/2+y,z
1/2+x,1/2-y,1/2+z
loop_
_atom_site_type_symbol
_atom_site_label
_atom_site_fract_x
_atom_site_fract_y
_atom_site_fract_z
Si Si1 0.104241 0.370038 0.572247
Si Si2 0.180839 0.048722 0.073120
Si Si3 0.352150 0.303236 0.077171
Si Si4 0.072007 0.101010 0.574233
Si Si5 0.000000 0.552720 0.072409
Si Si6 0.070153 0.276114 0.077702
Si Si7 0.259795 0.869317 0.426263
O O1 0.119888 0.371184 0.750000
O O2 0.062998 0.416978 0.525151
O O3 0.065711 0.322343 0.530494
O O4 0.167493 0.365354 0.472817
O O5 0.180584 0.042580 0.250000
O O6 0.109699 0.060517 0.017165
O O7 0.230171 0.089272 0.026798
O O8 0.205746 0.000000 0.000000
O O9 0.359429 0.286434 0.250000
O O10 0.398700 0.347203 0.040938
O O11 0.279234 0.319702 0.042533
O O12 0.373298 0.259458 0.971809
O O13 0.077369 0.088235 0.750000
O O14 0.000000 0.100775 0.515976
O O15 0.000000 0.545164 0.250000
O O16 0.000000 0.500000 0.000000
O O17 0.084639 0.291763 0.250000
O O18 0.000000 0.251434 0.065913
O O19 0.252896 0.882759 0.250000
#
# Coordination Sequence:
#
# PCOD8260711 Si02
#       7
#    16  16  16  16   8  16  16
#     4  11  23  42  65  91 121 156 196 240 295 359
#     4  11  22  37  57  81 111 150 195 245 299 355
#     4   9  19  36  58  84 117 159 201 242 294 353
#     4   9  18  34  55  80 113 153 198 247 298 352
#     4  10  24  44  68  96 124 156 196 244 301 366
#     4  11  23  37  58  89 123 160 202 248 297 349
#     4  10  22  41  62  87 119 155 197 247 300 361
#
# _framework density 20.108903000000002
#
# number of rings (size 3 to 8) (size 9 to 14) (size 15 to 20)
#    0.000    1.846    0.769    4.154    0.000    7.692 
#    0.000    1.538    0.000    0.000    0.000    0.000 
#    0.000    0.000    0.000    0.000    0.000    0.000 
#
# Total GULP energy -644782.548397 kJ/mol
# GULP energy per Si atom -12399.664392 kJ/mol
# Density = 2.006313 g / cm^3
# Si number density = 20.108903 Si / 1000 Ang^3
#
#
#
# Elastic Constant Matrix: (Units=GPa)
#
#
# Indices 1 2 3 4 5 6 
#
# 1 121.9078 35.0088 28.8340 0.0000 0.0000 0.0000
# 2 35.0088 104.7241 40.4773 0.0000 0.0000 0.0000
# 3 28.8340 40.4773 81.5482 0.0000 0.0000 0.0000
# 4 0.0000 0.0000 0.0000 36.7497 0.0000 0.0000
# 5 0.0000 0.0000 0.0000 0.0000 33.4290 0.0000
# 6 0.0000 0.0000 0.0000 0.0000 0.0000 18.8318
#
#
#
# Elastic Compliance Matrix: (Units=1/GPa)
#
#
# Indices 1 2 3 4 5 6 
#
# 1 0.009376 -0.002293 -0.002177 0.000000 0.000000 0.000000
# 2 -0.002293 0.012376 -0.005332 0.000000 0.000000 0.000000
# 3 -0.002177 -0.005332 0.015679 0.000000 0.000000 0.000000
# 4 0.000000 0.000000 0.000000 0.027211 0.000000 0.000000
# 5 0.000000 0.000000 0.000000 0.000000 0.029914 0.000000
# 6 0.000000 0.000000 0.000000 0.000000 0.000000 0.053102
#
#
# Mechanical properties :
#
#
# Convention : Reuss Voigt Hill
#
# Bulk Modulus (GPa) = 56.09474 57.42447 56.75961
# Shear Modulus (GPa) = 28.86727 31.39278 30.13003
#
# Velocity S-wave (km/s) = 3.79297 3.95541 3.87504
# Velocity P-wave (km/s) = 6.86573 7.03414 6.95044
#
# Compressibility (1/GPa) = 0.01782698
#
# Stress axis : x y z
#
# Youngs Moduli (GPa) = 106.65127 80.79833 63.77831
#
# Poissons Ratio (x) = 0.18527 0.13886
# Poissons Ratio (y) = 0.24455 0.34009
# Poissons Ratio (z) = 0.23220 0.43085
#
# Static dielectric constant tensor:
#      x y z
#    x 3.772610 0.000000 0.000000 
#    y 0.000000 3.598770 0.000000 
#    z 0.000000 0.000000 3.579500 
# 
# 
# High freq. dielectric constant tensor:
#      x y z
#    x 1.792810 0.000000 0.000000 
#    y 0.000000 1.777300 0.000000 
#    z 0.000000 0.000000 1.786700 
# 
# From -- ./inp_files/8840.got.cif
#   From: 2010.03.12/outbox.cif.g09.slc.cpg/sg63_5_cif.got.tgz:8840.got - 2010.04.10 19:34:48.
