data_PCOD8260470
_publ_section_title
;
Structure prediction by ZEFSAII (Michael W. Deem and Ramdas Pophale) SiO2 
 PCOD8260470
Probable space group: C M C M
;
_chemical_formula_sum "Si O2"
_cell_formula_units_Z 112
_cell_length_a 27.662306
_cell_length_b 12.221414
_cell_length_c 15.309050
_cell_angle_alpha 90.000000
_cell_angle_beta 90.000000
_cell_angle_gamma 90.000000
_cell_volume 5175.568712
_symmetry_space_group_name_H-M "C M C M"
_symmetry_group_IT_number 63
_symmetry_cell_setting 'orthorhombic'
loop_
_space_group_symop_operation_xyz
x,y,z
-x,-y,1/2+z
x,-y,-z
-x,y,1/2-z
-x,-y,-z
x,y,1/2-z
-x,y,z
x,-y,1/2+z
1/2+x,1/2+y,z
1/2-x,1/2-y,1/2+z
1/2+x,1/2-y,-z
1/2-x,1/2+y,1/2-z
1/2-x,1/2-y,-z
1/2+x,1/2+y,1/2-z
1/2-x,1/2+y,z
1/2+x,1/2-y,1/2+z
loop_
_atom_site_type_symbol
_atom_site_label
_atom_site_fract_x
_atom_site_fract_y
_atom_site_fract_z
Si Si1 0.197881 0.174240 0.149875
Si Si2 0.638036 0.958884 0.911252
Si Si3 0.849421 0.961457 0.403428
Si Si4 0.054728 0.316179 0.519713
Si Si5 0.946094 0.879385 0.152192
Si Si6 0.198871 0.741436 0.148586
Si Si7 0.890209 0.684247 0.849168
O O1 0.202836 0.205107 0.250000
O O2 0.248404 0.214385 0.107509
O O3 0.153142 0.242030 0.111227
O O4 0.188511 0.044627 0.140591
O O5 0.586532 0.913047 0.942275
O O6 0.668130 0.868633 0.860440
O O7 0.627950 0.059159 0.846348
O O8 0.665254 0.000000 0.000000
O O9 0.901962 0.965860 0.355490
O O10 0.825482 0.841084 0.403811
O O11 0.859453 0.000000 0.500000
O O12 0.064005 0.209395 0.578059
O O13 0.066457 0.294399 0.417325
O O14 0.000000 0.355037 0.527514
O O15 0.943797 0.827720 0.250000
O O16 0.000000 0.932097 0.138299
O O17 0.200277 0.774894 0.250000
O O18 0.905416 0.717784 0.750000
#
# Coordination Sequence:
#
# PCOD8260470 Si02
#       7
#    16  16  16  16  16  16  16
#     4  10  24  42  63  91 129 172 216 269 328 391
#     4  10  22  38  64  93 127 167 214 273 330 388
#     4  12  25  41  66  97 134 172 221 277 336 399
#     4  10  21  40  64  95 129 165 215 276 336 392
#     4  10  21  40  69 100 131 171 223 281 336 395
#     4  11  24  43  67  94 127 173 224 269 326 395
#     4  10  22  41  62  91 134 177 219 266 329 400
#
# _framework density 21.640134
#
# number of rings (size 3 to 8) (size 9 to 14) (size 15 to 20)
#    0.000    1.571    1.429    2.571    4.000    4.857 
#    0.000    0.714    0.000    0.857    0.000    0.000 
#    0.000    0.000    0.000    0.000    0.000    0.000 
#
# Total GULP energy -694216.532157 kJ/mol
# GULP energy per Si atom -12396.723789 kJ/mol
# Density = 2.159088 g / cm^3
# Si number density = 21.640134 Si / 1000 Ang^3
#
#
#
# Elastic Constant Matrix: (Units=GPa)
#
#
# Indices 1 2 3 4 5 6 
#
# 1 118.0947 51.1552 21.7282 0.0000 0.0000 0.0000
# 2 51.1552 90.0826 30.2517 0.0000 0.0000 0.0000
# 3 21.7282 30.2517 94.3958 0.0000 0.0000 0.0000
# 4 0.0000 0.0000 0.0000 35.6912 0.0000 0.0000
# 5 0.0000 0.0000 0.0000 0.0000 25.4782 0.0000
# 6 0.0000 0.0000 0.0000 0.0000 0.0000 23.0753
#
#
#
# Elastic Compliance Matrix: (Units=1/GPa)
#
#
# Indices 1 2 3 4 5 6 
#
# 1 0.011261 -0.006191 -0.000608 0.000000 0.000000 0.000000
# 2 -0.006191 0.015843 -0.003652 0.000000 0.000000 0.000000
# 3 -0.000608 -0.003652 0.011904 0.000000 0.000000 0.000000
# 4 0.000000 0.000000 0.000000 0.028018 0.000000 0.000000
# 5 0.000000 0.000000 0.000000 0.000000 0.039249 0.000000
# 6 0.000000 0.000000 0.000000 0.000000 0.000000 0.043336
#
#
# Mechanical properties :
#
#
# Convention : Reuss Voigt Hill
#
# Bulk Modulus (GPa) = 55.23019 56.53814 55.88417
# Shear Modulus (GPa) = 28.32060 30.14481 29.23271
#
# Velocity S-wave (km/s) = 3.62153 3.73635 3.67939
# Velocity P-wave (km/s) = 6.56238 6.69305 6.62804
#
# Compressibility (1/GPa) = 0.01810604
#
# Stress axis : x y z
#
# Youngs Moduli (GPa) = 88.79949 63.11941 84.00422
#
# Poissons Ratio (x) = 0.39076 0.05109
# Poissons Ratio (y) = 0.54973 0.30681
# Poissons Ratio (z) = 0.05400 0.23053
#
# Static dielectric constant tensor:
#      x y z
#    x 4.167150 0.000000 0.000000 
#    y 0.000000 3.854520 0.000000 
#    z 0.000000 0.000000 3.919230 
# 
# 
# High freq. dielectric constant tensor:
#      x y z
#    x 1.852080 0.000000 0.000000 
#    y 0.000000 1.841970 0.000000 
#    z 0.000000 0.000000 1.855840 
# 
# From -- ./inp_files/38499.got.cif
#   From: 2010.03.12/outbox.cif.g09.slc.cpg/sg63_20_cif.got.tgz:38499.got - 2010.04.10 19:34:48.
