data_PCOD8260104
_publ_section_title
;
Structure prediction by ZEFSAII (Michael W. Deem and Ramdas Pophale) SiO2 
 PCOD8260104
Probable space group: C M C M
;
_chemical_formula_sum "Si O2"
_cell_formula_units_Z 80
_cell_length_a 9.318947
_cell_length_b 20.220890
_cell_length_c 24.228030
_cell_angle_alpha 90.000000
_cell_angle_beta 90.000000
_cell_angle_gamma 90.000000
_cell_volume 4565.467034
_symmetry_space_group_name_H-M "C M C M"
_symmetry_group_IT_number 63
_symmetry_cell_setting 'orthorhombic'
loop_
_space_group_symop_operation_xyz
x,y,z
-x,-y,1/2+z
x,-y,-z
-x,y,1/2-z
-x,-y,-z
x,y,1/2-z
-x,y,z
x,-y,1/2+z
1/2+x,1/2+y,z
1/2-x,1/2-y,1/2+z
1/2+x,1/2-y,-z
1/2-x,1/2+y,1/2-z
1/2-x,1/2-y,-z
1/2+x,1/2+y,1/2-z
1/2-x,1/2+y,z
1/2+x,1/2-y,1/2+z
loop_
_atom_site_type_symbol
_atom_site_label
_atom_site_fract_x
_atom_site_fract_y
_atom_site_fract_z
Si Si1 0.334972 0.071683 0.475666
Si Si2 0.666896 0.310120 0.027154
Si Si3 0.337358 0.391721 0.750000
Si Si4 0.338291 0.234207 0.750000
Si Si5 0.836962 0.236771 0.646745
Si Si6 0.334891 0.111137 0.355119
O O1 0.500000 0.094204 0.484501
O O2 0.230328 0.120967 0.507150
O O3 0.299258 0.070459 0.410490
O O4 0.305451 0.000000 0.500000
O O5 0.500000 0.304991 0.010781
O O6 0.687503 0.307462 0.092915
O O7 0.750000 0.250000 0.000000
O O8 0.500000 0.417571 0.750000
O O9 0.328049 0.312966 0.750000
O O10 0.259571 0.418376 0.805114
O O11 0.500000 0.208021 0.750000
O O12 0.261598 0.206957 0.804854
O O13 0.796175 0.312470 0.632602
O O14 0.000000 0.233197 0.667639
O O15 0.500000 0.103447 0.337682
#
# Coordination Sequence:
#
# PCOD8260104 Si02
#       6
#    16  16   8   8  16  16
#     4  10  21  37  55  77 108 143 179 219 265 315
#     4  11  21  34  54  79 107 139 177 216 260 312
#     4   9  17  27  43  72 101 128 165 213 261 300
#     4   9  17  27  43  72 103 130 163 211 263 306
#     4   9  17  30  48  71 101 136 170 208 258 315
#     4   9  16  30  49  71 100 135 170 207 258 314
#
# _framework density 17.522849999999998
#
# number of rings (size 3 to 8) (size 9 to 14) (size 15 to 20)
#    0.000    2.400    2.000    1.200    0.000    5.200 
#    0.000    0.000    0.000    1.200    0.000    1.400 
#    0.000    0.000    0.000    0.000    0.000    0.000 
#
# Total GULP energy -496044.550605 kJ/mol
# GULP energy per Si atom -12401.113765 kJ/mol
# Density = 1.748297 g / cm^3
# Si number density = 17.522850 Si / 1000 Ang^3
#
#
#
# Elastic Constant Matrix: (Units=GPa)
#
#
# Indices 1 2 3 4 5 6 
#
# 1 128.2561 47.6849 87.8176 0.0000 0.0000 0.0000
# 2 47.6849 57.2526 49.7839 0.0000 0.0000 0.0000
# 3 87.8176 49.7839 147.3946 0.0000 0.0000 0.0000
# 4 0.0000 0.0000 0.0000 18.3773 0.0000 0.0000
# 5 0.0000 0.0000 0.0000 0.0000 33.4029 0.0000
# 6 0.0000 0.0000 0.0000 0.0000 0.0000 20.2821
#
#
#
# Elastic Compliance Matrix: (Units=1/GPa)
#
#
# Indices 1 2 3 4 5 6 
#
# 1 0.014727 -0.006564 -0.006557 0.000000 0.000000 0.000000
# 2 -0.006564 0.027655 -0.005430 0.000000 0.000000 0.000000
# 3 -0.006557 -0.005430 0.012525 0.000000 0.000000 0.000000
# 4 0.000000 0.000000 0.000000 0.054415 0.000000 0.000000
# 5 0.000000 0.000000 0.000000 0.000000 0.029938 0.000000
# 6 0.000000 0.000000 0.000000 0.000000 0.000000 0.049304
#
#
# Mechanical properties :
#
#
# Convention : Reuss Voigt Hill
#
# Bulk Modulus (GPa) = 56.16398 78.16399 67.16399
# Shear Modulus (GPa) = 21.58870 24.25361 22.92115
#
# Velocity S-wave (km/s) = 3.51384 3.72440 3.62065
# Velocity P-wave (km/s) = 6.97024 7.94976 7.47606
#
# Compressibility (1/GPa) = 0.01780501
#
# Stress axis : x y z
#
# Youngs Moduli (GPa) = 67.90103 36.15954 79.83781
#
# Poissons Ratio (x) = 0.23736 0.52353
# Poissons Ratio (y) = 0.44572 0.43351
# Poissons Ratio (z) = 0.44525 0.19634
#
# Static dielectric constant tensor:
#      x y z
#    x 3.373980 0.000000 0.000000 
#    y 0.000000 2.967850 0.000000 
#    z 0.000000 0.000000 3.495880 
# 
# 
# High freq. dielectric constant tensor:
#      x y z
#    x 1.683880 0.000000 0.000000 
#    y 0.000000 1.622460 0.000000 
#    z 0.000000 0.000000 1.692610 
# 
# From -- ./inp_files/59549.got.cif
#   From: 2010.03.12/outbox.cif.g09.slc.cpg/sg63_30_cif.got.tgz:59549.got - 2010.04.10 19:34:48.
