data_PCOD8260092
_publ_section_title
;
Structure prediction by ZEFSAII (Michael W. Deem and Ramdas Pophale) SiO2 
 PCOD8260092
Probable space group: C M C M
;
_chemical_formula_sum "Si O2"
_cell_formula_units_Z 80
_cell_length_a 8.969710
_cell_length_b 25.707895
_cell_length_c 19.206210
_cell_angle_alpha 90.000000
_cell_angle_beta 90.000000
_cell_angle_gamma 90.000000
_cell_volume 4428.805345
_symmetry_space_group_name_H-M "C M C M"
_symmetry_group_IT_number 63
_symmetry_cell_setting 'orthorhombic'
loop_
_space_group_symop_operation_xyz
x,y,z
-x,-y,1/2+z
x,-y,-z
-x,y,1/2-z
-x,-y,-z
x,y,1/2-z
-x,y,z
x,-y,1/2+z
1/2+x,1/2+y,z
1/2-x,1/2-y,1/2+z
1/2+x,1/2-y,-z
1/2-x,1/2+y,1/2-z
1/2-x,1/2-y,-z
1/2+x,1/2+y,1/2-z
1/2-x,1/2+y,z
1/2+x,1/2-y,1/2+z
loop_
_atom_site_type_symbol
_atom_site_label
_atom_site_fract_x
_atom_site_fract_y
_atom_site_fract_z
Si Si1 0.826819 0.703326 0.330070
Si Si2 0.171279 0.691119 0.668109
Si Si3 0.175972 0.609936 0.071168
Si Si4 0.324282 0.605684 0.923325
Si Si5 0.164138 0.503042 0.582482
O O1 0.794316 0.689416 0.250000
O O2 0.731387 0.752585 0.354907
O O3 0.774249 0.654465 0.375626
O O4 0.000000 0.716234 0.341998
O O5 0.191300 0.683497 0.750000
O O6 0.268422 0.647474 0.631555
O O7 0.000000 0.686386 0.644826
O O8 0.220076 0.554298 0.106463
O O9 0.000000 0.610766 0.055952
O O10 0.258292 0.619078 0.998542
O O11 0.500000 0.607531 0.928196
O O12 0.276295 0.548624 0.895173
O O13 0.153132 0.500000 0.500000
O O14 0.000000 0.515476 0.613760
#
# Coordination Sequence:
#
# PCOD8260092 Si02
#       5
#    16  16  16  16  16
#     4   9  18  34  55  77 101 130 165 206 251 296
#     4  10  21  37  55  73  97 132 169 205 251 305
#     4   9  18  33  53  76 104 136 168 204 247 298
#     4  11  21  32  51  77 103 132 168 211 253 293
#     4   8  15  30  50  72 101 135 168 202 244 295
#
# _framework density 18.063561
#
# number of rings (size 3 to 8) (size 9 to 14) (size 15 to 20)
#    0.000    2.600    0.000    3.600    0.000    6.400 
#    0.000    1.000    0.000    3.600    0.000    0.000 
#    0.000    0.000    0.000    0.000    0.000    0.000 
#
# Total GULP energy -495931.568783 kJ/mol
# GULP energy per Si atom -12398.289220 kJ/mol
# Density = 1.802245 g / cm^3
# Si number density = 18.063561 Si / 1000 Ang^3
#
#
#
# Elastic Constant Matrix: (Units=GPa)
#
#
# Indices 1 2 3 4 5 6 
#
# 1 89.0266 62.2465 36.1439 0.0000 0.0000 0.0000
# 2 62.2465 161.4441 59.0909 0.0000 0.0000 0.0000
# 3 36.1439 59.0909 46.7196 0.0000 0.0000 0.0000
# 4 0.0000 0.0000 0.0000 -7.8274 0.0000 0.0000
# 5 0.0000 0.0000 0.0000 0.0000 20.6498 0.0000
# 6 0.0000 0.0000 0.0000 0.0000 0.0000 33.2934
#
#
#
# Elastic Compliance Matrix: (Units=1/GPa)
#
#
# Indices 1 2 3 4 5 6 
#
# 1 0.017267 -0.003292 -0.009195 0.000000 0.000000 0.000000
# 2 -0.003292 0.012161 -0.012834 0.000000 0.000000 0.000000
# 3 -0.009195 -0.012834 0.044750 0.000000 0.000000 0.000000
# 4 0.000000 0.000000 0.000000 -0.127756 0.000000 0.000000
# 5 0.000000 0.000000 0.000000 0.000000 0.048427 0.000000
# 6 0.000000 0.000000 0.000000 0.000000 0.000000 0.030036
#
#
# Mechanical properties :
#
#
# Convention : Reuss Voigt Hill
#
# Bulk Modulus (GPa) = 42.48718 68.01698 55.25208
# Shear Modulus (GPa) = 59.97147 18.53708 39.25427
#
# Velocity S-wave (km/s) = 5.76822 3.20693 4.66673
# Velocity P-wave (km/s) = 8.24227 7.17276 7.72605
#
# Compressibility (1/GPa) = 0.02353651
#
# Stress axis : x y z
#
# Youngs Moduli (GPa) = 57.91237 82.23048 22.34626
#
# Poissons Ratio (x) = 0.27073 0.20547
# Poissons Ratio (y) = 0.19066 0.28679
# Poissons Ratio (z) = 0.53248 1.05536
#
# Static dielectric constant tensor:
#      x y z
#    x 3.321770 0.000000 0.000000 
#    y 0.000000 3.890540 0.000000 
#    z 0.000000 0.000000 3.079690 
# 
# 
# High freq. dielectric constant tensor:
#      x y z
#    x 1.696220 0.000000 0.000000 
#    y 0.000000 1.717320 0.000000 
#    z 0.000000 0.000000 1.669600 
# 
# From -- ./inp_files/40486.got.cif
#   From: 2010.03.12/outbox.cif.g09.slc.cpg/sg63_21_cif.got.tgz:40486.got - 2010.04.10 19:34:48.
