data_PCOD8260774
_publ_section_title
;
Structure prediction by ZEFSAII (Michael W. Deem and Ramdas Pophale) SiO2 
 PCOD8260774
Probable space group: C M C M
;
_chemical_formula_sum "Si O2"
_cell_formula_units_Z 64
_cell_length_a 19.035548
_cell_length_b 10.240977
_cell_length_c 15.282007
_cell_angle_alpha 90.000000
_cell_angle_beta 90.000000
_cell_angle_gamma 90.000000
_cell_volume 2979.114319
_symmetry_space_group_name_H-M "C M C M"
_symmetry_group_IT_number 63
_symmetry_cell_setting 'orthorhombic'
loop_
_space_group_symop_operation_xyz
x,y,z
-x,-y,1/2+z
x,-y,-z
-x,y,1/2-z
-x,-y,-z
x,y,1/2-z
-x,y,z
x,-y,1/2+z
1/2+x,1/2+y,z
1/2-x,1/2-y,1/2+z
1/2+x,1/2-y,-z
1/2-x,1/2+y,1/2-z
1/2-x,1/2-y,-z
1/2+x,1/2+y,1/2-z
1/2-x,1/2+y,z
1/2+x,1/2-y,1/2+z
loop_
_atom_site_type_symbol
_atom_site_label
_atom_site_fract_x
_atom_site_fract_y
_atom_site_fract_z
Si Si1 0.709356 0.495594 0.897856
Si Si2 0.184324 0.725288 0.153187
Si Si3 0.581455 0.852188 0.994295
Si Si4 0.919933 0.163169 0.150148
O O1 0.760117 0.390439 0.854646
O O2 0.725435 0.637981 0.858497
O O3 0.628922 0.458266 0.875724
O O4 0.723457 0.500000 0.000000
O O5 0.150786 0.718163 0.250000
O O6 0.122946 0.721567 0.081778
O O7 0.500000 0.847582 0.968904
O O8 0.596909 0.785903 0.087655
O O9 0.609080 0.000000 0.000000
O O10 0.906679 0.208478 0.250000
O O11 0.000000 0.115773 0.136885
#
# Coordination Sequence:
#
# PCOD8260774 Si02
#       4
#    16  16  16  16
#     4  12  25  45  68  95 133 172 220 271 329 389
#     4  12  26  43  66  99 134 175 220 270 329 390
#     4  10  23  43  66  97 134 174 220 270 329 391
#     4  10  22  42  68  96 129 171 219 272 329 390
#
# _framework density 21.482894999999999
#
# number of rings (size 3 to 8) (size 9 to 14) (size 15 to 20)
#    0.000    1.000    2.500    3.750    3.500    3.000 
#    0.000    2.500    0.000    0.000    0.000    0.000 
#    0.000    0.000    0.000    0.000    0.000    0.000 
#
# Total GULP energy -396984.840053 kJ/mol
# GULP energy per Si atom -12405.776252 kJ/mol
# Density = 2.143400 g / cm^3
# Si number density = 21.482895 Si / 1000 Ang^3
#
#
#
# Elastic Constant Matrix: (Units=GPa)
#
#
# Indices 1 2 3 4 5 6 
#
# 1 64.8491 36.9892 30.7313 0.0000 0.0000 0.0000
# 2 36.9892 146.3934 46.5953 0.0000 0.0000 0.0000
# 3 30.7313 46.5953 159.5790 0.0000 0.0000 0.0000
# 4 0.0000 0.0000 0.0000 23.9665 0.0000 0.0000
# 5 0.0000 0.0000 0.0000 0.0000 30.0460 0.0000
# 6 0.0000 0.0000 0.0000 0.0000 0.0000 29.8359
#
#
#
# Elastic Compliance Matrix: (Units=1/GPa)
#
#
# Indices 1 2 3 4 5 6 
#
# 1 0.018861 -0.003979 -0.002470 0.000000 0.000000 0.000000
# 2 -0.003979 0.008370 -0.001678 0.000000 0.000000 0.000000
# 3 -0.002470 -0.001678 0.007232 0.000000 0.000000 0.000000
# 4 0.000000 0.000000 0.000000 0.041725 0.000000 0.000000
# 5 0.000000 0.000000 0.000000 0.000000 0.033282 0.000000
# 6 0.000000 0.000000 0.000000 0.000000 0.000000 0.033517
#
#
# Mechanical properties :
#
#
# Convention : Reuss Voigt Hill
#
# Bulk Modulus (GPa) = 54.91889 66.60589 60.76239
# Shear Modulus (GPa) = 30.24598 33.87006 32.05802
#
# Velocity S-wave (km/s) = 3.75628 3.97496 3.86717
# Velocity P-wave (km/s) = 6.66576 7.22070 6.94877
#
# Compressibility (1/GPa) = 0.01820867
#
# Stress axis : x y z
#
# Youngs Moduli (GPa) = 53.02005 119.46926 138.27279
#
# Poissons Ratio (x) = 0.47540 0.34157
# Poissons Ratio (y) = 0.21098 0.23198
# Poissons Ratio (z) = 0.13097 0.20044
#
# Static dielectric constant tensor:
#      x y z
#    x 3.870840 0.000000 0.000000 
#    y 0.000000 3.973960 0.000000 
#    z 0.000000 0.000000 3.965420 
# 
# 
# High freq. dielectric constant tensor:
#      x y z
#    x 1.843540 0.000000 0.000000 
#    y 0.000000 1.846640 0.000000 
#    z 0.000000 0.000000 1.858740 
# 
# From -- ./inp_files/36205.got.cif
#   From: 2010.03.12/outbox.cif.g09.slc.cpg/sg63_19_cif.got.tgz:36205.got - 2010.04.10 19:34:48.
