data_PCOD8260451
_publ_section_title
;
Structure prediction by ZEFSAII (Michael W. Deem and Ramdas Pophale) SiO2 
 PCOD8260451
Probable space group: C M C M
;
_chemical_formula_sum "Si O2"
_cell_formula_units_Z 96
_cell_length_a 17.403871
_cell_length_b 15.142473
_cell_length_c 17.373573
_cell_angle_alpha 90.000000
_cell_angle_beta 90.000000
_cell_angle_gamma 90.000000
_cell_volume 4578.590543
_symmetry_space_group_name_H-M "C M C M"
_symmetry_group_IT_number 63
_symmetry_cell_setting 'orthorhombic'
loop_
_space_group_symop_operation_xyz
x,y,z
-x,-y,1/2+z
x,-y,-z
-x,y,1/2-z
-x,-y,-z
x,y,1/2-z
-x,y,z
x,-y,1/2+z
1/2+x,1/2+y,z
1/2-x,1/2-y,1/2+z
1/2+x,1/2-y,-z
1/2-x,1/2+y,1/2-z
1/2-x,1/2-y,-z
1/2+x,1/2+y,1/2-z
1/2-x,1/2+y,z
1/2+x,1/2-y,1/2+z
loop_
_atom_site_type_symbol
_atom_site_label
_atom_site_fract_x
_atom_site_fract_y
_atom_site_fract_z
Si Si1 0.912190 0.377495 0.840522
Si Si2 0.140165 0.433764 0.164348
Si Si3 0.588143 0.759798 0.410813
Si Si4 0.586082 0.582729 0.159477
Si Si5 0.814150 0.923207 0.162828
Si Si6 0.174354 0.755152 0.444679
O O1 0.893383 0.365358 0.750000
O O2 0.907680 0.481155 0.863287
O O3 0.845788 0.327478 0.889111
O O4 0.000000 0.345656 0.858298
O O5 0.113548 0.405297 0.250000
O O6 0.130897 0.350455 0.108758
O O7 0.228768 0.461484 0.163860
O O8 0.500000 0.773472 0.390256
O O9 0.623059 0.677097 0.363293
O O10 0.600614 0.737723 0.500103
O O11 0.586138 0.575559 0.250000
O O12 0.500000 0.576865 0.125331
O O13 0.634134 0.500902 0.126113
O O14 0.840175 0.897895 0.250000
O O15 0.821143 0.839296 0.109062
O O16 0.250000 0.750000 0.500000
#
# Coordination Sequence:
#
# PCOD8260451 Si02
#       6
#    16  16  16  16  16  16
#     4  10  23  44  69  95 125 167 219 269 317 376
#     4  10  21  39  66  95 124 163 210 265 318 372
#     4  11  23  40  62  93 130 166 205 254 315 382
#     4   9  20  39  64  92 123 164 212 262 311 367
#     4  10  22  41  65  91 121 163 216 263 312 373
#     4  12  25  42  60  92 131 170 205 257 318 384
#
# _framework density 20.967151000000001
#
# number of rings (size 3 to 8) (size 9 to 14) (size 15 to 20)
#    0.000    1.667    1.667    2.000    2.333    4.333 
#    0.000    5.000    0.000    0.000    0.000    0.000 
#    0.000    0.000    0.000    0.000    0.000    0.000 
#
# Total GULP energy -594992.554458 kJ/mol
# GULP energy per Si atom -12395.678218 kJ/mol
# Density = 2.091943 g / cm^3
# Si number density = 20.967151 Si / 1000 Ang^3
#
#
#
# Elastic Constant Matrix: (Units=GPa)
#
#
# Indices 1 2 3 4 5 6 
#
# 1 75.4097 62.2527 44.1949 0.0000 0.0000 0.0000
# 2 62.2527 147.9411 55.9974 0.0000 0.0000 0.0000
# 3 44.1949 55.9974 74.9855 0.0000 0.0000 0.0000
# 4 0.0000 0.0000 0.0000 0.3313 0.0000 0.0000
# 5 0.0000 0.0000 0.0000 0.0000 32.6839 0.0000
# 6 0.0000 0.0000 0.0000 0.0000 0.0000 33.7557
#
#
#
# Elastic Compliance Matrix: (Units=1/GPa)
#
#
# Indices 1 2 3 4 5 6 
#
# 1 0.024213 -0.006673 -0.009287 0.000000 0.000000 0.000000
# 2 -0.006673 0.011262 -0.004477 0.000000 0.000000 0.000000
# 3 -0.009287 -0.004477 0.022153 0.000000 0.000000 0.000000
# 4 0.000000 0.000000 0.000000 3.018724 0.000000 0.000000
# 5 0.000000 0.000000 0.000000 0.000000 0.030596 0.000000
# 6 0.000000 0.000000 0.000000 0.000000 0.000000 0.029625
#
#
# Mechanical properties :
#
#
# Convention : Reuss Voigt Hill
#
# Bulk Modulus (GPa) = 59.69156 69.24735 64.46946
# Shear Modulus (GPa) = 1.57083 22.41359 11.99221
#
# Velocity S-wave (km/s) = 0.86649 3.27308 2.39415
# Velocity P-wave (km/s) = 5.43433 6.88349 6.20139
#
# Compressibility (1/GPa) = 0.01675279
#
# Stress axis : x y z
#
# Youngs Moduli (GPa) = 41.30081 88.79249 45.14067
#
# Poissons Ratio (x) = 0.59254 0.41922
# Poissons Ratio (y) = 0.27561 0.20211
# Poissons Ratio (z) = 0.38356 0.39755
#
# Static dielectric constant tensor:
#      x y z
#    x 4.061670 0.000000 0.000000 
#    y 0.000000 3.790920 0.000000 
#    z 0.000000 0.000000 3.826320 
# 
# 
# High freq. dielectric constant tensor:
#      x y z
#    x 1.823230 0.000000 0.000000 
#    y 0.000000 1.825310 0.000000 
#    z 0.000000 0.000000 1.815290 
# 
# From -- ./inp_files/35376.got.cif
#   From: 2010.03.12/outbox.cif.g09.slc.cpg/sg63_18_cif.got.tgz:35376.got - 2010.04.10 19:34:48.
