data_PCOD8260948
_publ_section_title
;
Structure prediction by ZEFSAII (Michael W. Deem and Ramdas Pophale) SiO2 
 PCOD8260948
Probable space group: C M C M
;
_chemical_formula_sum "Si O2"
_cell_formula_units_Z 112
_cell_length_a 15.522815
_cell_length_b 14.820124
_cell_length_c 27.330929
_cell_angle_alpha 90.000000
_cell_angle_beta 90.000000
_cell_angle_gamma 90.000000
_cell_volume 6287.481395
_symmetry_space_group_name_H-M "C M C M"
_symmetry_group_IT_number 63
_symmetry_cell_setting 'orthorhombic'
loop_
_space_group_symop_operation_xyz
x,y,z
-x,-y,1/2+z
x,-y,-z
-x,y,1/2-z
-x,-y,-z
x,y,1/2-z
-x,y,z
x,-y,1/2+z
1/2+x,1/2+y,z
1/2-x,1/2-y,1/2+z
1/2+x,1/2-y,-z
1/2-x,1/2+y,1/2-z
1/2-x,1/2-y,-z
1/2+x,1/2+y,1/2-z
1/2-x,1/2+y,z
1/2+x,1/2-y,1/2+z
loop_
_atom_site_type_symbol
_atom_site_label
_atom_site_fract_x
_atom_site_fract_y
_atom_site_fract_z
Si Si1 0.600847 0.750648 0.803130
Si Si2 0.098384 0.049473 0.694382
Si Si3 0.597051 0.105838 0.498727
Si Si4 0.266627 0.655367 0.947249
Si Si5 0.667101 0.169185 0.099785
Si Si6 0.404217 0.599772 0.020895
Si Si7 0.309660 0.528189 0.392492
O O1 0.635858 0.787364 0.750000
O O2 0.500000 0.739860 0.798308
O O3 0.637483 0.649942 0.811916
O O4 0.620856 0.814617 0.848572
O O5 0.105708 0.016059 0.750000
O O6 0.000000 0.046737 0.675922
O O7 0.153547 0.981377 0.661776
O O8 0.500000 0.123848 0.518735
O O9 0.668827 0.152890 0.532817
O O10 0.600808 0.145435 0.443664
O O11 0.618470 0.000000 0.500000
O O12 0.275143 0.744492 0.914509
O O13 0.292104 0.569038 0.915790
O O14 0.334107 0.661387 0.992709
O O15 0.720853 0.080091 0.109655
O O16 0.500000 0.643572 0.016538
O O17 0.377019 0.589238 0.077159
O O18 0.404863 0.500000 0.000000
#
# Coordination Sequence:
#
# PCOD8260948 Si02
#       7
#    16  16  16  16  16  16  16
#     4   9  19  36  57  84 112 137 177 231 283 335
#     4   9  18  35  58  82 109 141 176 223 286 343
#     4  11  22  38  55  76 111 154 195 230 271 323
#     4  11  21  39  52  77 113 148 186 232 269 320
#     4  12  22  35  58  82 109 149 188 228 275 331
#     4   9  18  31  50  74 108 143 172 217 272 325
#     4  11  20  34  54  78 115 139 185 223 273 329
#
# _framework density 17.813175000000001
#
# number of rings (size 3 to 8) (size 9 to 14) (size 15 to 20)
#    0.000    1.714    4.286    2.571    0.000    2.286 
#    0.000    0.714    0.000    0.000    0.000    0.000 
#    0.000    3.429    0.000    0.000    0.000    0.000 
#
# Total GULP energy -694136.080576 kJ/mol
# GULP energy per Si atom -12395.287153 kJ/mol
# Density = 1.777263 g / cm^3
# Si number density = 17.813175 Si / 1000 Ang^3
#
#
#
# Elastic Constant Matrix: (Units=GPa)
#
#
# Indices 1 2 3 4 5 6 
#
# 1 80.1112 9.1577 21.2999 0.0000 0.0000 0.0000
# 2 9.1577 59.0427 25.3409 0.0000 0.0000 0.0000
# 3 21.2999 25.3409 99.2053 0.0000 0.0000 0.0000
# 4 0.0000 0.0000 0.0000 29.1379 0.0000 0.0000
# 5 0.0000 0.0000 0.0000 0.0000 26.1987 0.0000
# 6 0.0000 0.0000 0.0000 0.0000 0.0000 0.6128
#
#
#
# Elastic Compliance Matrix: (Units=1/GPa)
#
#
# Indices 1 2 3 4 5 6 
#
# 1 0.013285 -0.000939 -0.002612 0.000000 0.000000 0.000000
# 2 -0.000939 0.019089 -0.004674 0.000000 0.000000 0.000000
# 3 -0.002612 -0.004674 0.011835 0.000000 0.000000 0.000000
# 4 0.000000 0.000000 0.000000 0.034320 0.000000 0.000000
# 5 0.000000 0.000000 0.000000 0.000000 0.038170 0.000000
# 6 0.000000 0.000000 0.000000 0.000000 0.000000 1.631784
#
#
# Mechanical properties :
#
#
# Convention : Reuss Voigt Hill
#
# Bulk Modulus (GPa) = 36.02767 38.88402 37.45584
# Shear Modulus (GPa) = 2.81819 23.36058 13.08939
#
# Velocity S-wave (km/s) = 1.25917 3.62528 2.71369
# Velocity P-wave (km/s) = 4.73109 6.27692 5.55801
#
# Compressibility (1/GPa) = 0.02775645
#
# Stress axis : x y z
#
# Youngs Moduli (GPa) = 75.27522 52.38676 84.49507
#
# Poissons Ratio (x) = 0.04920 0.22073
# Poissons Ratio (y) = 0.07070 0.39496
# Poissons Ratio (z) = 0.19665 0.24487
#
# Static dielectric constant tensor:
#      x y z
#    x 3.236450 0.000000 0.000000 
#    y 0.000000 3.258860 0.000000 
#    z 0.000000 0.000000 3.603650 
# 
# 
# High freq. dielectric constant tensor:
#      x y z
#    x 1.678490 0.000000 0.000000 
#    y 0.000000 1.680880 0.000000 
#    z 0.000000 0.000000 1.684110 
# 
# From -- ./inp_files/73538.got.cif
#   From: 2010.03.12/outbox.cif.g09.slc.cpg/sg63_37_cif.got.tgz:73538.got - 2010.04.10 19:34:48.
