data_PCOD8260443
_publ_section_title
;
Structure prediction by ZEFSAII (Michael W. Deem and Ramdas Pophale) SiO2 
 PCOD8260443
Probable space group: C M C M
;
_chemical_formula_sum "Si O2"
_cell_formula_units_Z 80
_cell_length_a 8.868757
_cell_length_b 28.652529
_cell_length_c 15.830328
_cell_angle_alpha 90.000000
_cell_angle_beta 90.000000
_cell_angle_gamma 90.000000
_cell_volume 4022.681329
_symmetry_space_group_name_H-M "C M C M"
_symmetry_group_IT_number 63
_symmetry_cell_setting 'orthorhombic'
loop_
_space_group_symop_operation_xyz
x,y,z
-x,-y,1/2+z
x,-y,-z
-x,y,1/2-z
-x,-y,-z
x,y,1/2-z
-x,y,z
x,-y,1/2+z
1/2+x,1/2+y,z
1/2-x,1/2-y,1/2+z
1/2+x,1/2-y,-z
1/2-x,1/2+y,1/2-z
1/2-x,1/2-y,-z
1/2+x,1/2+y,1/2-z
1/2-x,1/2+y,z
1/2+x,1/2-y,1/2+z
loop_
_atom_site_type_symbol
_atom_site_label
_atom_site_fract_x
_atom_site_fract_y
_atom_site_fract_z
Si Si1 0.321567 0.644422 0.750000
Si Si2 0.324799 0.305790 0.576123
Si Si3 0.174935 0.699868 0.599951
Si Si4 0.323053 0.479012 0.909232
Si Si5 0.172452 0.610149 0.346011
Si Si6 0.178794 0.960954 0.250000
O O1 0.500000 0.643904 0.750000
O O2 0.267079 0.670773 0.667309
O O3 0.256783 0.591660 0.750000
O O4 0.500000 0.312349 0.554617
O O5 0.229158 0.315142 0.492211
O O6 0.293466 0.254697 0.614278
O O7 0.269720 0.342894 0.644706
O O8 0.000000 0.687945 0.610067
O O9 0.500000 0.469519 0.899164
O O10 0.237477 0.429974 0.905827
O O11 0.263848 0.512996 0.834692
O O12 0.283311 0.500000 0.000000
O O13 0.188127 0.593021 0.250000
O O14 0.000000 0.620425 0.370512
O O15 0.000000 0.959539 0.250000
#
# Coordination Sequence:
#
# PCOD8260443 Si02
#       6
#     8  16  16  16  16   8
#     4  11  23  37  60  89 124 165 204 243 294 361
#     4  10  22  40  64  88 118 159 203 247 301 364
#     4  10  22  41  61  89 123 157 202 253 301 354
#     4  10  21  39  65  90 116 156 204 250 301 363
#     4  11  24  40  60  91 125 156 197 250 307 362
#     4   9  20  39  58  87 122 153 200 253 294 351
#
# _framework density 19.887232000000001
#
# number of rings (size 3 to 8) (size 9 to 14) (size 15 to 20)
#    0.000    1.800    1.000    2.100    4.200    4.000 
#    0.000    2.000    0.000    0.000    0.000    0.000 
#    0.000    0.000    0.000    0.000    0.000    0.000 
#
# Total GULP energy -496187.850736 kJ/mol
# GULP energy per Si atom -12404.696268 kJ/mol
# Density = 1.984197 g / cm^3
# Si number density = 19.887232 Si / 1000 Ang^3
#
#
#
# Elastic Constant Matrix: (Units=GPa)
#
#
# Indices 1 2 3 4 5 6 
#
# 1 64.3063 45.0250 27.5302 0.0000 0.0000 0.0000
# 2 45.0250 121.3093 51.2582 0.0000 0.0000 0.0000
# 3 27.5302 51.2582 99.4421 0.0000 0.0000 0.0000
# 4 0.0000 0.0000 0.0000 33.1640 0.0000 0.0000
# 5 0.0000 0.0000 0.0000 0.0000 32.0542 0.0000
# 6 0.0000 0.0000 0.0000 0.0000 0.0000 34.0287
#
#
#
# Elastic Compliance Matrix: (Units=1/GPa)
#
#
# Indices 1 2 3 4 5 6 
#
# 1 0.021429 -0.006964 -0.002343 0.000000 0.000000 0.000000
# 2 -0.006964 0.012802 -0.004671 0.000000 0.000000 0.000000
# 3 -0.002343 -0.004671 0.013112 0.000000 0.000000 0.000000
# 4 0.000000 0.000000 0.000000 0.030153 0.000000 0.000000
# 5 0.000000 0.000000 0.000000 0.000000 0.031197 0.000000
# 6 0.000000 0.000000 0.000000 0.000000 0.000000 0.029387
#
#
# Mechanical properties :
#
#
# Convention : Reuss Voigt Hill
#
# Bulk Modulus (GPa) = 51.57792 59.18714 55.38253
# Shear Modulus (GPa) = 28.98571 30.59900 29.79236
#
# Velocity S-wave (km/s) = 3.82187 3.92679 3.87468
# Velocity P-wave (km/s) = 6.74293 7.09828 6.92288
#
# Compressibility (1/GPa) = 0.01938814
#
# Stress axis : x y z
#
# Youngs Moduli (GPa) = 46.66490 78.11509 76.26347
#
# Poissons Ratio (x) = 0.54396 0.17870
# Poissons Ratio (y) = 0.32496 0.35622
# Poissons Ratio (z) = 0.10935 0.36486
#
# Static dielectric constant tensor:
#      x y z
#    x 3.539320 0.000000 0.000000 
#    y 0.000000 3.694470 0.000000 
#    z 0.000000 0.000000 3.639840 
# 
# 
# High freq. dielectric constant tensor:
#      x y z
#    x 1.772080 0.000000 0.000000 
#    y 0.000000 1.784750 0.000000 
#    z 0.000000 0.000000 1.778830 
# 
# From -- ./inp_files/40573.got.cif
#   From: 2010.03.12/outbox.cif.g09.slc.cpg/sg63_21_cif.got.tgz:40573.got - 2010.04.10 19:34:48.
