data_PCOD8260782
_publ_section_title
;
Structure prediction by ZEFSAII (Michael W. Deem and Ramdas Pophale) SiO2 
 PCOD8260782
Probable space group: C M C M
;
_chemical_formula_sum "Si O2"
_cell_formula_units_Z 64
_cell_length_a 15.446502
_cell_length_b 11.785135
_cell_length_c 15.973209
_cell_angle_alpha 90.000000
_cell_angle_beta 90.000000
_cell_angle_gamma 90.000000
_cell_volume 2907.748772
_symmetry_space_group_name_H-M "C M C M"
_symmetry_group_IT_number 63
_symmetry_cell_setting 'orthorhombic'
loop_
_space_group_symop_operation_xyz
x,y,z
-x,-y,1/2+z
x,-y,-z
-x,y,1/2-z
-x,-y,-z
x,y,1/2-z
-x,y,z
x,-y,1/2+z
1/2+x,1/2+y,z
1/2-x,1/2-y,1/2+z
1/2+x,1/2-y,-z
1/2-x,1/2+y,1/2-z
1/2-x,1/2-y,-z
1/2+x,1/2+y,1/2-z
1/2-x,1/2+y,z
1/2+x,1/2-y,1/2+z
loop_
_atom_site_type_symbol
_atom_site_label
_atom_site_fract_x
_atom_site_fract_y
_atom_site_fract_z
Si Si1 0.153825 0.286016 0.850001
Si Si2 0.844350 0.821782 0.843962
Si Si3 0.500000 0.941779 0.590458
Si Si4 0.500000 0.817910 0.154490
Si Si5 0.400183 0.546168 0.911157
O O1 0.140055 0.296286 0.750000
O O2 0.248488 0.323256 0.883460
O O3 0.148348 0.156967 0.879857
O O4 0.084593 0.365508 0.896185
O O5 0.831193 0.778182 0.750000
O O6 0.913185 0.735561 0.889090
O O7 0.884032 0.947533 0.844060
O O8 0.500000 0.000000 0.500000
O O9 0.500000 0.046512 0.654720
O O10 0.500000 0.774207 0.250000
O O11 0.500000 0.578320 0.918415
O O12 0.364207 0.500000 0.000000
#
# Coordination Sequence:
#
# PCOD8260782 Si02
#       5
#    16  16   8   8  16
#     4  11  25  45  68  98 134 180 227 273 334 407
#     4  10  23  41  68  97 129 173 226 277 332 396
#     4  12  28  43  67  94 135 178 218 277 335 405
#     4  10  22  43  65  91 130 174 218 274 329 393
#     4  11  24  41  68  97 134 172 222 280 336 396
#
# _framework density 22.010154
#
# number of rings (size 3 to 8) (size 9 to 14) (size 15 to 20)
#    0.000    1.250    2.500    1.875    7.000    3.000 
#    0.000    0.000    0.000    0.000    0.000    0.000 
#    0.000    0.000    0.000    0.000    0.000    0.000 
#
# Total GULP energy -396715.820460 kJ/mol
# GULP energy per Si atom -12397.369389 kJ/mol
# Density = 2.196006 g / cm^3
# Si number density = 22.010154 Si / 1000 Ang^3
#
#
#
# Elastic Constant Matrix: (Units=GPa)
#
#
# Indices 1 2 3 4 5 6 
#
# 1 148.3733 44.0232 23.2539 0.0000 0.0000 0.0000
# 2 44.0232 142.0484 11.7097 0.0000 0.0000 0.0000
# 3 23.2539 11.7097 67.8560 0.0000 0.0000 0.0000
# 4 0.0000 0.0000 0.0000 41.3599 0.0000 0.0000
# 5 0.0000 0.0000 0.0000 0.0000 10.2100 0.0000
# 6 0.0000 0.0000 0.0000 0.0000 0.0000 32.7282
#
#
#
# Elastic Compliance Matrix: (Units=1/GPa)
#
#
# Indices 1 2 3 4 5 6 
#
# 1 0.007754 -0.002215 -0.002275 0.000000 0.000000 0.000000
# 2 -0.002215 0.007774 -0.000582 0.000000 0.000000 0.000000
# 3 -0.002275 -0.000582 0.015617 0.000000 0.000000 0.000000
# 4 0.000000 0.000000 0.000000 0.024178 0.000000 0.000000
# 5 0.000000 0.000000 0.000000 0.000000 0.097943 0.000000
# 6 0.000000 0.000000 0.000000 0.000000 0.000000 0.030555
#
#
# Mechanical properties :
#
#
# Convention : Reuss Voigt Hill
#
# Bulk Modulus (GPa) = 47.61923 57.36128 52.49025
# Shear Modulus (GPa) = 24.87975 35.47900 30.17937
#
# Velocity S-wave (km/s) = 3.36575 4.01925 3.70693
# Velocity P-wave (km/s) = 6.06519 6.90341 6.49783
#
# Compressibility (1/GPa) = 0.02099992
#
# Stress axis : x y z
#
# Youngs Moduli (GPa) = 128.97209 128.62613 64.03213
#
# Poissons Ratio (x) = 0.28497 0.14566
# Poissons Ratio (y) = 0.28573 0.03729
# Poissons Ratio (z) = 0.29339 0.07491
#
# Static dielectric constant tensor:
#      x y z
#    x 4.268500 0.000000 0.000000 
#    y 0.000000 3.927460 0.000000 
#    z 0.000000 0.000000 3.830070 
# 
# 
# High freq. dielectric constant tensor:
#      x y z
#    x 1.879420 0.000000 0.000000 
#    y 0.000000 1.873880 0.000000 
#    z 0.000000 0.000000 1.850640 
# 
# From -- ./inp_files/43493.got.cif
#   From: 2010.03.12/outbox.cif.g09.slc.cpg/sg63_22_cif.got.tgz:43493.got - 2010.04.10 19:34:48.
