data_PCOD8260532
_publ_section_title
;
Structure prediction by ZEFSAII (Michael W. Deem and Ramdas Pophale) SiO2 
 PCOD8260532
Probable space group: C M C M
;
_chemical_formula_sum "Si O2"
_cell_formula_units_Z 72
_cell_length_a 17.593945
_cell_length_b 22.708093
_cell_length_c 8.867973
_cell_angle_alpha 90.000000
_cell_angle_beta 90.000000
_cell_angle_gamma 90.000000
_cell_volume 3542.976375
_symmetry_space_group_name_H-M "C M C M"
_symmetry_group_IT_number 63
_symmetry_cell_setting 'orthorhombic'
loop_
_space_group_symop_operation_xyz
x,y,z
-x,-y,1/2+z
x,-y,-z
-x,y,1/2-z
-x,-y,-z
x,y,1/2-z
-x,y,z
x,-y,1/2+z
1/2+x,1/2+y,z
1/2-x,1/2-y,1/2+z
1/2+x,1/2-y,-z
1/2-x,1/2+y,1/2-z
1/2-x,1/2-y,-z
1/2+x,1/2+y,1/2-z
1/2-x,1/2+y,z
1/2+x,1/2-y,1/2+z
loop_
_atom_site_type_symbol
_atom_site_label
_atom_site_fract_x
_atom_site_fract_y
_atom_site_fract_z
Si Si1 0.087834 0.245575 0.576168
Si Si2 0.776266 0.438639 0.427494
Si Si3 0.087434 0.619998 0.424805
Si Si4 0.647883 0.635324 0.072863
Si Si5 0.500000 0.436352 0.927721
O O1 0.102782 0.229611 0.750000
O O2 0.111401 0.312684 0.543147
O O3 0.137742 0.203656 0.470101
O O4 0.000000 0.236475 0.535128
O O5 0.750513 0.500000 0.500000
O O6 0.769709 0.444427 0.250000
O O7 0.862353 0.423136 0.473571
O O8 0.721331 0.387825 0.486801
O O9 0.100827 0.604737 0.250000
O O10 0.000000 0.609620 0.469267
O O11 0.661581 0.629649 0.250000
O O12 0.574249 0.598936 0.018119
O O13 0.500000 0.443785 0.750000
O O14 0.500000 0.500000 0.000000
#
# Coordination Sequence:
#
# PCOD8260532 Si02
#       5
#    16  16  16  16   8
#     4   9  18  35  61  92 124 158 198 244 296 353
#     4  12  26  43  62  87 119 158 202 250 304 358
#     4   9  20  41  67  93 121 155 197 247 302 359
#     4  11  22  38  59  87 122 161 203 247 297 352
#     4  10  22  36  54  82 114 156 203 244 289 344
#
# _framework density 20.321897
#
# number of rings (size 3 to 8) (size 9 to 14) (size 15 to 20)
#    0.000    1.778    1.111    4.667    0.000    6.222 
#    0.000    2.222    0.000    0.000    0.000    0.000 
#    0.000    0.000    0.000    0.000    0.000    0.000 
#
# Total GULP energy -446595.292771 kJ/mol
# GULP energy per Si atom -12405.424799 kJ/mol
# Density = 2.027564 g / cm^3
# Si number density = 20.321897 Si / 1000 Ang^3
#
#
#
# Elastic Constant Matrix: (Units=GPa)
#
#
# Indices 1 2 3 4 5 6 
#
# 1 81.8002 14.4522 37.2827 0.0000 0.0000 0.0000
# 2 14.4522 52.6985 27.6913 0.0000 0.0000 0.0000
# 3 37.2827 27.6913 100.5634 0.0000 0.0000 0.0000
# 4 0.0000 0.0000 0.0000 38.7097 0.0000 0.0000
# 5 0.0000 0.0000 0.0000 0.0000 24.5970 0.0000
# 6 0.0000 0.0000 0.0000 0.0000 0.0000 34.3001
#
#
#
# Elastic Compliance Matrix: (Units=1/GPa)
#
#
# Indices 1 2 3 4 5 6 
#
# 1 0.014795 -0.001374 -0.005107 0.000000 0.000000 0.000000
# 2 -0.001374 0.022314 -0.005635 0.000000 0.000000 0.000000
# 3 -0.005107 -0.005635 0.013389 0.000000 0.000000 0.000000
# 4 0.000000 0.000000 0.000000 0.025833 0.000000 0.000000
# 5 0.000000 0.000000 0.000000 0.000000 0.040655 0.000000
# 6 0.000000 0.000000 0.000000 0.000000 0.000000 0.029154
#
#
# Mechanical properties :
#
#
# Convention : Reuss Voigt Hill
#
# Bulk Modulus (GPa) = 38.07164 43.76827 40.91996
# Shear Modulus (GPa) = 27.91303 29.89709 28.90506
#
# Velocity S-wave (km/s) = 3.71016 3.83975 3.77551
# Velocity P-wave (km/s) = 6.09333 6.42203 6.25984
#
# Compressibility (1/GPa) = 0.02626627
#
# Stress axis : x y z
#
# Youngs Moduli (GPa) = 67.58939 44.81566 74.68871
#
# Poissons Ratio (x) = 0.06158 0.38142
# Poissons Ratio (y) = 0.09287 0.42086
# Poissons Ratio (z) = 0.34517 0.25253
#
# Static dielectric constant tensor:
#      x y z
#    x 3.687560 0.000000 0.000000 
#    y 0.000000 3.626160 0.000000 
#    z 0.000000 0.000000 3.543650 
# 
# 
# High freq. dielectric constant tensor:
#      x y z
#    x 1.795040 0.000000 0.000000 
#    y 0.000000 1.800070 0.000000 
#    z 0.000000 0.000000 1.787520 
# 
# From -- ./inp_files/6103.got.cif
#   From: 2010.03.12/outbox.cif.g09.slc.cpg/sg63_4_cif.got.tgz:6103.got - 2010.04.10 19:34:48.
