data_PCOD8260153
_publ_section_title
;
Structure prediction by ZEFSAII (Michael W. Deem and Ramdas Pophale) SiO2 
 PCOD8260153
Probable space group: C M C M
;
_chemical_formula_sum "Si O2"
_cell_formula_units_Z 96
_cell_length_a 8.906230
_cell_length_b 22.029586
_cell_length_c 23.334563
_cell_angle_alpha 90.000000
_cell_angle_beta 90.000000
_cell_angle_gamma 90.000000
_cell_volume 4578.254321
_symmetry_space_group_name_H-M "C M C M"
_symmetry_group_IT_number 63
_symmetry_cell_setting 'orthorhombic'
loop_
_space_group_symop_operation_xyz
x,y,z
-x,-y,1/2+z
x,-y,-z
-x,y,1/2-z
-x,-y,-z
x,y,1/2-z
-x,y,z
x,-y,1/2+z
1/2+x,1/2+y,z
1/2-x,1/2-y,1/2+z
1/2+x,1/2-y,-z
1/2-x,1/2+y,1/2-z
1/2-x,1/2-y,-z
1/2+x,1/2+y,1/2-z
1/2-x,1/2+y,z
1/2+x,1/2-y,1/2+z
loop_
_atom_site_type_symbol
_atom_site_label
_atom_site_fract_x
_atom_site_fract_y
_atom_site_fract_z
Si Si1 0.177501 0.100623 0.585734
Si Si2 0.326535 0.709538 0.378731
Si Si3 0.672284 0.413666 0.815678
Si Si4 0.324623 0.853763 0.978852
Si Si5 0.674122 0.023391 0.412616
Si Si6 0.322171 0.168464 0.816033
O O1 0.242408 0.149651 0.540291
O O2 0.241707 0.114576 0.649081
O O3 0.000000 0.103882 0.586301
O O4 0.231785 0.034135 0.565874
O O5 0.500000 0.715045 0.395817
O O6 0.296817 0.654701 0.335295
O O7 0.235010 0.699616 0.437562
O O8 0.269780 0.768749 0.345227
O O9 0.715521 0.418587 0.750000
O O10 0.500000 0.431909 0.827548
O O11 0.779867 0.460809 0.847795
O O12 0.500000 0.844191 0.988559
O O13 0.285937 0.919127 0.951767
O O14 0.500000 0.006227 0.416087
O O15 0.268509 0.166910 0.750000
O O16 0.500000 0.160112 0.819845
#
# Coordination Sequence:
#
# PCOD8260153 Si02
#       6
#    16  16  16  16  16  16
#     4  12  25  39  58  83 113 151 191 233 281 333
#     4   9  18  35  60  88 115 145 185 232 282 334
#     4   9  17  31  54  84 115 146 184 232 282 333
#     4  10  21  38  61  88 116 146 183 230 284 338
#     4  10  21  37  57  82 113 149 188 232 283 338
#     4  10  22  41  63  85 113 152 193 232 277 330
#
# _framework density 20.968691
#
# number of rings (size 3 to 8) (size 9 to 14) (size 15 to 20)
#    0.000    2.000    0.000    3.500    0.000    8.667 
#    0.000    0.000    0.000    3.000    0.000    0.000 
#    0.000    0.000    0.000    0.000    0.000    0.000 
#
# Total GULP energy -595382.664265 kJ/mol
# GULP energy per Si atom -12403.805506 kJ/mol
# Density = 2.092097 g / cm^3
# Si number density = 20.968691 Si / 1000 Ang^3
#
#
#
# Elastic Constant Matrix: (Units=GPa)
#
#
# Indices 1 2 3 4 5 6 
#
# 1 81.4311 21.5339 41.8101 0.0000 0.0000 0.0000
# 2 21.5339 41.4264 10.6142 0.0000 0.0000 0.0000
# 3 41.8101 10.6142 117.8663 0.0000 0.0000 0.0000
# 4 0.0000 0.0000 0.0000 24.4363 0.0000 0.0000
# 5 0.0000 0.0000 0.0000 0.0000 33.0116 0.0000
# 6 0.0000 0.0000 0.0000 0.0000 0.0000 27.0757
#
#
#
# Elastic Compliance Matrix: (Units=1/GPa)
#
#
# Indices 1 2 3 4 5 6 
#
# 1 0.017007 -0.007467 -0.005360 0.000000 0.000000 0.000000
# 2 -0.007467 0.027988 0.000128 0.000000 0.000000 0.000000
# 3 -0.005360 0.000128 0.010374 0.000000 0.000000 0.000000
# 4 0.000000 0.000000 0.000000 0.040923 0.000000 0.000000
# 5 0.000000 0.000000 0.000000 0.000000 0.030292 0.000000
# 6 0.000000 0.000000 0.000000 0.000000 0.000000 0.036933
#
#
# Mechanical properties :
#
#
# Convention : Reuss Voigt Hill
#
# Bulk Modulus (GPa) = 33.36580 43.18224 38.27402
# Shear Modulus (GPa) = 25.13746 28.02242 26.57994
#
# Velocity S-wave (km/s) = 3.46614 3.65964 3.56420
# Velocity P-wave (km/s) = 5.65381 6.20449 5.93554
#
# Compressibility (1/GPa) = 0.02997080
#
# Stress axis : x y z
#
# Youngs Moduli (GPa) = 58.79850 35.72984 96.39380
#
# Poissons Ratio (x) = 0.26680 0.51671
# Poissons Ratio (y) = 0.43906 -0.01238
# Poissons Ratio (z) = 0.31519 -0.00459
#
# Static dielectric constant tensor:
#      x y z
#    x 3.605830 0.000000 0.000000 
#    y 0.000000 3.762130 0.000000 
#    z 0.000000 0.000000 3.933190 
# 
# 
# High freq. dielectric constant tensor:
#      x y z
#    x 1.810440 0.000000 0.000000 
#    y 0.000000 1.817700 0.000000 
#    z 0.000000 0.000000 1.831650 
# 
# From -- ./inp_files/60256.got.cif
#   From: 2010.03.12/outbox.cif.g09.slc.cpg/sg63_31_cif.got.tgz:60256.got - 2010.04.10 19:34:48.
