data_PCOD8260223
_publ_section_title
;
Structure prediction by ZEFSAII (Michael W. Deem and Ramdas Pophale) SiO2 
 PCOD8260223
Probable space group: C M C M
;
_chemical_formula_sum "Si O2"
_cell_formula_units_Z 112
_cell_length_a 15.450624
_cell_length_b 23.642368
_cell_length_c 13.726487
_cell_angle_alpha 90.000000
_cell_angle_beta 90.000000
_cell_angle_gamma 90.000000
_cell_volume 5014.139355
_symmetry_space_group_name_H-M "C M C M"
_symmetry_group_IT_number 63
_symmetry_cell_setting 'orthorhombic'
loop_
_space_group_symop_operation_xyz
x,y,z
-x,-y,1/2+z
x,-y,-z
-x,y,1/2-z
-x,-y,-z
x,y,1/2-z
-x,y,z
x,-y,1/2+z
1/2+x,1/2+y,z
1/2-x,1/2-y,1/2+z
1/2+x,1/2-y,-z
1/2-x,1/2+y,1/2-z
1/2-x,1/2-y,-z
1/2+x,1/2+y,1/2-z
1/2-x,1/2+y,z
1/2+x,1/2-y,1/2+z
loop_
_atom_site_type_symbol
_atom_site_label
_atom_site_fract_x
_atom_site_fract_y
_atom_site_fract_z
Si Si1 0.768807 0.910947 0.638748
Si Si2 0.903822 0.825082 0.549549
Si Si3 0.351515 0.797675 0.052674
Si Si4 0.906927 0.593165 0.639455
Si Si5 0.100597 0.343493 0.640341
Si Si6 0.244197 0.966274 0.362290
Si Si7 0.826069 0.845341 0.362515
O O1 0.799222 0.907386 0.750000
O O2 0.830741 0.869055 0.580733
O O3 0.666369 0.896674 0.627662
O O4 0.785185 0.973614 0.591066
O O5 0.878931 0.763587 0.592369
O O6 0.905276 0.825563 0.430730
O O7 0.000000 0.841149 0.586931
O O8 0.416665 0.846207 0.088147
O O9 0.256832 0.813567 0.091229
O O10 0.363148 0.796174 0.934649
O O11 0.876171 0.605546 0.750000
O O12 0.835218 0.553560 0.589110
O O13 0.000000 0.562644 0.635533
O O14 0.108847 0.318834 0.750000
O O15 0.000000 0.361358 0.620055
O O16 0.261106 0.982315 0.250000
O O17 0.178523 0.913905 0.371760
O O18 0.839706 0.827591 0.250000
#
# Coordination Sequence:
#
# PCOD8260223 Si02
#       7
#    16  16  16  16  16  16  16
#     4  10  22  41  62  89 126 166 210 258 313 372
#     4  12  26  42  62  92 127 168 212 261 315 366
#     4  11  21  41  61  89 129 164 199 253 306 373
#     4   9  17  31  57  93 127 161 201 247 304 372
#     4  10  21  37  60  91 128 169 207 246 303 374
#     4   8  17  36  60  84 118 161 204 258 312 365
#     4  10  22  42  68  93 120 161 210 259 318 372
#
# _framework density 22.336834
#
# number of rings (size 3 to 8) (size 9 to 14) (size 15 to 20)
#    0.000    2.000    1.429    3.000    0.000    3.429 
#    0.000    4.286    0.000    5.143    0.000    0.000 
#    0.000    0.000    0.000    0.000    0.000    0.000 
#
# Total GULP energy -693780.239602 kJ/mol
# GULP energy per Si atom -12388.932850 kJ/mol
# Density = 2.228599 g / cm^3
# Si number density = 22.336834 Si / 1000 Ang^3
#
#
#
# Elastic Constant Matrix: (Units=GPa)
#
#
# Indices 1 2 3 4 5 6 
#
# 1 85.3984 40.4525 15.8165 0.0000 0.0000 0.0000
# 2 40.4525 129.6845 25.0207 0.0000 0.0000 0.0000
# 3 15.8165 25.0207 75.1683 0.0000 0.0000 0.0000
# 4 0.0000 0.0000 0.0000 22.1687 0.0000 0.0000
# 5 0.0000 0.0000 0.0000 0.0000 26.3669 0.0000
# 6 0.0000 0.0000 0.0000 0.0000 0.0000 12.5303
#
#
#
# Elastic Compliance Matrix: (Units=1/GPa)
#
#
# Indices 1 2 3 4 5 6 
#
# 1 0.013914 -0.004035 -0.001585 0.000000 0.000000 0.000000
# 2 -0.004035 0.009410 -0.002283 0.000000 0.000000 0.000000
# 3 -0.001585 -0.002283 0.014397 0.000000 0.000000 0.000000
# 4 0.000000 0.000000 0.000000 0.045109 0.000000 0.000000
# 5 0.000000 0.000000 0.000000 0.000000 0.037926 0.000000
# 6 0.000000 0.000000 0.000000 0.000000 0.000000 0.079806
#
#
# Mechanical properties :
#
#
# Convention : Reuss Voigt Hill
#
# Bulk Modulus (GPa) = 45.62868 50.31451 47.97160
# Shear Modulus (GPa) = 22.35399 26.14396 24.24897
#
# Velocity S-wave (km/s) = 3.16692 3.42488 3.29843
# Velocity P-wave (km/s) = 5.81760 6.18175 6.00244
#
# Compressibility (1/GPa) = 0.02191604
#
# Stress axis : x y z
#
# Youngs Moduli (GPa) = 71.86756 106.26929 69.45903
#
# Poissons Ratio (x) = 0.42875 0.11008
# Poissons Ratio (y) = 0.28995 0.15860
# Poissons Ratio (z) = 0.11390 0.24265
#
# Static dielectric constant tensor:
#      x y z
#    x 3.793700 0.000000 0.000000 
#    y 0.000000 4.010980 0.000000 
#    z 0.000000 0.000000 4.298510 
# 
# 
# High freq. dielectric constant tensor:
#      x y z
#    x 1.855880 0.000000 0.000000 
#    y 0.000000 1.870270 0.000000 
#    z 0.000000 0.000000 1.888590 
# 
# From -- ./inp_files/32358.got.cif
#   From: 2010.03.12/outbox.cif.g09.slc.cpg/sg63_17_cif.got.tgz:32358.got - 2010.04.10 19:34:48.
