data_PCOD8260480
_publ_section_title
;
Structure prediction by ZEFSAII (Michael W. Deem and Ramdas Pophale) SiO2 
 PCOD8260480
Probable space group: C M C M
;
_chemical_formula_sum "Si O2"
_cell_formula_units_Z 112
_cell_length_a 28.944644
_cell_length_b 5.611062
_cell_length_c 27.852147
_cell_angle_alpha 90.000000
_cell_angle_beta 90.000000
_cell_angle_gamma 90.000000
_cell_volume 4523.472543
_symmetry_space_group_name_H-M "C M C M"
_symmetry_group_IT_number 63
_symmetry_cell_setting 'orthorhombic'
loop_
_space_group_symop_operation_xyz
x,y,z
-x,-y,1/2+z
x,-y,-z
-x,y,1/2-z
-x,-y,-z
x,y,1/2-z
-x,y,z
x,-y,1/2+z
1/2+x,1/2+y,z
1/2-x,1/2-y,1/2+z
1/2+x,1/2-y,-z
1/2-x,1/2+y,1/2-z
1/2-x,1/2-y,-z
1/2+x,1/2+y,1/2-z
1/2-x,1/2+y,z
1/2+x,1/2-y,1/2+z
loop_
_atom_site_type_symbol
_atom_site_label
_atom_site_fract_x
_atom_site_fract_y
_atom_site_fract_z
Si Si1 0.395685 0.112542 0.623699
Si Si2 0.449625 0.262142 0.329597
Si Si3 0.362381 0.468292 0.697005
Si Si4 0.727798 0.636885 0.550631
Si Si5 0.771562 0.843613 0.163816
Si Si6 0.449071 0.489890 0.930926
Si Si7 0.129458 0.303767 0.540483
O O1 0.360284 0.273050 0.654303
O O2 0.423726 0.243840 0.581289
O O3 0.367079 0.913516 0.594590
O O4 0.431355 0.006908 0.662923
O O5 0.500000 0.257767 0.303877
O O6 0.412921 0.411925 0.299175
O O7 0.454905 0.369951 0.381904
O O8 0.351924 0.361263 0.750000
O O9 0.324627 0.665172 0.681888
O O10 0.746192 0.378033 0.530247
O O11 0.735017 0.645985 0.607144
O O12 0.673936 0.636620 0.536802
O O13 0.749232 0.596958 0.184276
O O14 0.500000 0.446190 0.953847
O O15 0.417100 0.646796 0.966653
O O16 0.130613 0.500000 0.500000
#
# Coordination Sequence:
#
# PCOD8260480 Si02
#       7
#    16  16  16  16  16  16  16
#     4  10  21  40  66  91 131 173 223 276 339 412
#     4   9  19  38  64  91 125 168 214 269 332 400
#     4  11  25  41  63  96 131 168 216 275 341 418
#     4  10  23  42  70  98 130 176 229 282 343 407
#     4  10  23  42  70  97 132 177 226 280 342 407
#     4   9  19  38  64  93 126 168 219 272 332 399
#     4  11  25  41  63  96 136 178 226 286 347 411
#
# _framework density 24.759739
#
# number of rings (size 3 to 8) (size 9 to 14) (size 15 to 20)
#    0.000    2.000    0.000    3.000   10.000    4.000 
#    0.000    0.714    0.000    0.000    0.000    0.000 
#    0.000    0.000    0.000    0.000    0.000    0.000 
#
# Total GULP energy -694253.163091 kJ/mol
# GULP energy per Si atom -12397.377912 kJ/mol
# Density = 2.470338 g / cm^3
# Si number density = 24.759739 Si / 1000 Ang^3
#
#
#
# Elastic Constant Matrix: (Units=GPa)
#
#
# Indices 1 2 3 4 5 6 
#
# 1 154.0231 46.2117 25.0946 0.0000 0.0000 0.0000
# 2 46.2117 112.7362 35.1405 0.0000 0.0000 0.0000
# 3 25.0946 35.1405 75.9676 0.0000 0.0000 0.0000
# 4 0.0000 0.0000 0.0000 15.9458 0.0000 0.0000
# 5 0.0000 0.0000 0.0000 0.0000 9.2283 0.0000
# 6 0.0000 0.0000 0.0000 0.0000 0.0000 69.1406
#
#
#
# Elastic Compliance Matrix: (Units=1/GPa)
#
#
# Indices 1 2 3 4 5 6 
#
# 1 0.007501 -0.002690 -0.001233 0.000000 0.000000 0.000000
# 2 -0.002690 0.011330 -0.004352 0.000000 0.000000 0.000000
# 3 -0.001233 -0.004352 0.015584 0.000000 0.000000 0.000000
# 4 0.000000 0.000000 0.000000 0.062712 0.000000 0.000000
# 5 0.000000 0.000000 0.000000 0.000000 0.108362 0.000000
# 6 0.000000 0.000000 0.000000 0.000000 0.000000 0.014463
#
#
# Mechanical properties :
#
#
# Convention : Reuss Voigt Hill
#
# Bulk Modulus (GPa) = 55.98121 61.73559 58.85840
# Shear Modulus (GPa) = 20.62221 34.61496 27.61859
#
# Velocity S-wave (km/s) = 2.88912 3.74309 3.34348
# Velocity P-wave (km/s) = 5.81276 6.60825 6.22323
#
# Compressibility (1/GPa) = 0.01786314
#
# Stress axis : x y z
#
# Youngs Moduli (GPa) = 133.32278 88.26476 64.16808
#
# Poissons Ratio (x) = 0.23744 0.07914
# Poissons Ratio (y) = 0.35866 0.27927
# Poissons Ratio (z) = 0.16443 0.38414
#
# Static dielectric constant tensor:
#      x y z
#    x 8.419710 0.000000 0.000000 
#    y 0.000000 4.709250 0.000000 
#    z 0.000000 0.000000 4.211610 
# 
# 
# High freq. dielectric constant tensor:
#      x y z
#    x 1.988310 0.000000 0.000000 
#    y 0.000000 1.989020 0.000000 
#    z 0.000000 0.000000 1.981260 
# 
# From -- ./inp_files/74524.got.cif
#   From: 2010.03.12/outbox.cif.g09.slc.cpg/sg63_38_cif.got.tgz:74524.got - 2010.04.10 19:34:48.
