data_PCOD8260653
_publ_section_title
;
Structure prediction by ZEFSAII (Michael W. Deem and Ramdas Pophale) SiO2 
 PCOD8260653
Probable space group: C M C M
;
_chemical_formula_sum "Si O2"
_cell_formula_units_Z 64
_cell_length_a 9.077343
_cell_length_b 10.008375
_cell_length_c 34.985724
_cell_angle_alpha 90.000000
_cell_angle_beta 90.000000
_cell_angle_gamma 90.000000
_cell_volume 3178.433879
_symmetry_space_group_name_H-M "C M C M"
_symmetry_group_IT_number 63
_symmetry_cell_setting 'orthorhombic'
loop_
_space_group_symop_operation_xyz
x,y,z
-x,-y,1/2+z
x,-y,-z
-x,y,1/2-z
-x,-y,-z
x,y,1/2-z
-x,y,z
x,-y,1/2+z
1/2+x,1/2+y,z
1/2-x,1/2-y,1/2+z
1/2+x,1/2-y,-z
1/2-x,1/2+y,1/2-z
1/2-x,1/2-y,-z
1/2+x,1/2+y,1/2-z
1/2-x,1/2+y,z
1/2+x,1/2-y,1/2+z
loop_
_atom_site_type_symbol
_atom_site_label
_atom_site_fract_x
_atom_site_fract_y
_atom_site_fract_z
Si Si1 0.328947 0.541299 0.957688
Si Si2 0.671986 0.270958 0.584939
Si Si3 0.827166 0.272210 0.664857
Si Si4 0.830751 0.457128 0.293822
O O1 0.500000 0.581534 0.956839
O O2 0.295286 0.420806 0.928703
O O3 0.233381 0.668712 0.946309
O O4 0.279819 0.500000 0.000000
O O5 0.500000 0.244199 0.589839
O O6 0.749535 0.244102 0.624938
O O7 0.785589 0.418433 0.679855
O O8 0.772565 0.166298 0.695926
O O9 0.000000 0.254421 0.659223
O O10 0.803710 0.497615 0.250000
O O11 0.000000 0.416515 0.300828
#
# Coordination Sequence:
#
# PCOD8260653 Si02
#       4
#    16  16  16  16
#     4  10  22  40  61  87 118 151 191 239 289 343
#     4  11  23  38  59  87 117 153 195 236 285 342
#     4  11  23  39  60  86 117 153 193 237 286 340
#     4  10  22  40  61  87 118 151 191 239 289 343
#
# _framework density 20.135701999999998
#
# number of rings (size 3 to 8) (size 9 to 14) (size 15 to 20)
#    0.000    1.500    0.000    4.500    0.000   10.000 
#    0.000    0.000    0.000    0.000    0.000    0.000 
#    0.000    0.000    0.000    0.000    0.000    0.000 
#
# Total GULP energy -397049.027161 kJ/mol
# GULP energy per Si atom -12407.782099 kJ/mol
# Density = 2.008987 g / cm^3
# Si number density = 20.135702 Si / 1000 Ang^3
#
#
#
# Elastic Constant Matrix: (Units=GPa)
#
#
# Indices 1 2 3 4 5 6 
#
# 1 85.6509 46.5990 28.3964 0.0000 0.0000 0.0000
# 2 46.5990 68.3399 8.7134 0.0000 0.0000 0.0000
# 3 28.3964 8.7134 86.7236 0.0000 0.0000 0.0000
# 4 0.0000 0.0000 0.0000 37.1534 0.0000 0.0000
# 5 0.0000 0.0000 0.0000 0.0000 32.2076 0.0000
# 6 0.0000 0.0000 0.0000 0.0000 0.0000 36.1255
#
#
#
# Elastic Compliance Matrix: (Units=1/GPa)
#
#
# Indices 1 2 3 4 5 6 
#
# 1 0.020839 -0.013513 -0.005466 0.000000 0.000000 0.000000
# 2 -0.013513 0.023585 0.002055 0.000000 0.000000 0.000000
# 3 -0.005466 0.002055 0.013114 0.000000 0.000000 0.000000
# 4 0.000000 0.000000 0.000000 0.026915 0.000000 0.000000
# 5 0.000000 0.000000 0.000000 0.000000 0.031049 0.000000
# 6 0.000000 0.000000 0.000000 0.000000 0.000000 0.027681
#
#
# Mechanical properties :
#
#
# Convention : Reuss Voigt Hill
#
# Bulk Modulus (GPa) = 42.21062 45.34798 43.77930
# Shear Modulus (GPa) = 27.03768 31.56434 29.30101
#
# Velocity S-wave (km/s) = 3.66836 3.96356 3.81882
# Velocity P-wave (km/s) = 6.24108 6.59671 6.42136
#
# Compressibility (1/GPa) = 0.02369072
#
# Stress axis : x y z
#
# Youngs Moduli (GPa) = 47.98678 42.40051 76.25371
#
# Poissons Ratio (x) = 0.57294 0.41679
# Poissons Ratio (y) = 0.64843 -0.15669
# Poissons Ratio (z) = 0.26229 -0.08713
#
# Static dielectric constant tensor:
#      x y z
#    x 3.650930 0.000000 0.000000 
#    y 0.000000 3.663130 0.000000 
#    z 0.000000 0.000000 3.716470 
# 
# 
# High freq. dielectric constant tensor:
#      x y z
#    x 1.788300 0.000000 0.000000 
#    y 0.000000 1.794890 0.000000 
#    z 0.000000 0.000000 1.802180 
# 
# From -- ./inp_files/71336.got.cif
#   From: 2010.03.12/outbox.cif.g09.slc.cpg/sg63_36_cif.got.tgz:71336.got - 2010.04.10 19:34:48.
