data_PCOD8260273
_publ_section_title
;
Structure prediction by ZEFSAII (Michael W. Deem and Ramdas Pophale) SiO2 
 PCOD8260273
Probable space group: C M C M
;
_chemical_formula_sum "Si O2"
_cell_formula_units_Z 104
_cell_length_a 21.441689
_cell_length_b 26.978781
_cell_length_c 8.940401
_cell_angle_alpha 90.000000
_cell_angle_beta 90.000000
_cell_angle_gamma 90.000000
_cell_volume 5171.759415
_symmetry_space_group_name_H-M "C M C M"
_symmetry_group_IT_number 63
_symmetry_cell_setting 'orthorhombic'
loop_
_space_group_symop_operation_xyz
x,y,z
-x,-y,1/2+z
x,-y,-z
-x,y,1/2-z
-x,-y,-z
x,y,1/2-z
-x,y,z
x,-y,1/2+z
1/2+x,1/2+y,z
1/2-x,1/2-y,1/2+z
1/2+x,1/2-y,-z
1/2-x,1/2+y,1/2-z
1/2-x,1/2-y,-z
1/2+x,1/2+y,1/2-z
1/2-x,1/2+y,z
1/2+x,1/2-y,1/2+z
loop_
_atom_site_type_symbol
_atom_site_label
_atom_site_fract_x
_atom_site_fract_y
_atom_site_fract_z
Si Si1 0.211622 0.447815 0.573099
Si Si2 0.315119 0.391995 0.423590
Si Si3 0.886940 0.618872 0.573506
Si Si4 0.000000 0.551781 0.576111
Si Si5 0.306549 0.720279 0.925326
Si Si6 0.571960 0.781003 0.924059
Si Si7 0.931325 0.048790 0.922238
O O1 0.190433 0.500000 0.500000
O O2 0.204821 0.453012 0.750000
O O3 0.281128 0.433453 0.524171
O O4 0.173455 0.400492 0.512409
O O5 0.295491 0.398458 0.250000
O O6 0.301928 0.336412 0.480168
O O7 0.388136 0.403242 0.447484
O O8 0.874137 0.619621 0.750000
O O9 0.940083 0.581303 0.523562
O O10 0.908053 0.672786 0.523578
O O11 0.000000 0.500000 0.500000
O O12 0.000000 0.542883 0.750000
O O13 0.295427 0.724151 0.750000
O O14 0.376664 0.739142 0.964798
O O15 0.250000 0.750000 0.000000
O O16 0.576376 0.795383 0.750000
O O17 0.500000 0.764660 0.962298
O O18 0.935123 0.035124 0.750000
O O19 0.000000 0.061830 0.986306
O O20 0.903309 0.000000 0.000000
#
# Coordination Sequence:
#
# PCOD8260273 Si02
#       7
#    16  16  16   8  16  16  16
#     4  12  25  40  59  86 118 155 197 242 294 353
#     4  10  21  38  59  84 115 153 195 243 295 349
#     4  11  22  39  59  84 116 153 196 240 291 346
#     4  10  22  36  54  80 110 144 184 230 279 334
#     4  10  22  39  59  85 116 152 197 247 299 352
#     4  10  21  38  61  89 120 158 203 250 300 356
#     4   9  18  33  55  83 114 148 185 226 279 342
#
# _framework density 20.109210999999998
#
# number of rings (size 3 to 8) (size 9 to 14) (size 15 to 20)
#    0.000    1.692    0.769    3.692    0.000    8.615 
#    0.000    3.077    0.000    0.000    0.000    4.308 
#    0.000    0.000    0.000    0.000    0.000    0.000 
#
# Total GULP energy -644676.722649 kJ/mol
# GULP energy per Si atom -12397.629282 kJ/mol
# Density = 2.006344 g / cm^3
# Si number density = 20.109211 Si / 1000 Ang^3
#
#
#
# Elastic Constant Matrix: (Units=GPa)
#
#
# Indices 1 2 3 4 5 6 
#
# 1 115.1024 39.0495 35.1954 0.0000 0.0000 0.0000
# 2 39.0495 93.2539 33.9358 0.0000 0.0000 0.0000
# 3 35.1954 33.9358 72.3262 0.0000 0.0000 0.0000
# 4 0.0000 0.0000 0.0000 31.3319 0.0000 0.0000
# 5 0.0000 0.0000 0.0000 0.0000 8.1607 0.0000
# 6 0.0000 0.0000 0.0000 0.0000 0.0000 39.1443
#
#
#
# Elastic Compliance Matrix: (Units=1/GPa)
#
#
# Indices 1 2 3 4 5 6 
#
# 1 0.010940 -0.003188 -0.003828 0.000000 0.000000 0.000000
# 2 -0.003188 0.013860 -0.004952 0.000000 0.000000 0.000000
# 3 -0.003828 -0.004952 0.018012 0.000000 0.000000 0.000000
# 4 0.000000 0.000000 0.000000 0.031916 0.000000 0.000000
# 5 0.000000 0.000000 0.000000 0.000000 0.122539 0.000000
# 6 0.000000 0.000000 0.000000 0.000000 0.000000 0.025547
#
#
# Mechanical properties :
#
#
# Convention : Reuss Voigt Hill
#
# Bulk Modulus (GPa) = 52.97407 55.22710 54.10058
# Shear Modulus (GPa) = 19.75949 27.22748 23.49348
#
# Velocity S-wave (km/s) = 3.13806 3.68364 3.42174
# Velocity P-wave (km/s) = 6.28731 6.75392 6.52479
#
# Compressibility (1/GPa) = 0.01887716
#
# Stress axis : x y z
#
# Youngs Moduli (GPa) = 91.40829 72.14762 55.51729
#
# Poissons Ratio (x) = 0.23001 0.21251
# Poissons Ratio (y) = 0.29142 0.27492
# Poissons Ratio (z) = 0.34989 0.35728
#
# Static dielectric constant tensor:
#      x y z
#    x 4.006690 0.000000 0.000000 
#    y 0.000000 3.691160 0.000000 
#    z 0.000000 0.000000 3.653940 
# 
# 
# High freq. dielectric constant tensor:
#      x y z
#    x 1.802940 0.000000 0.000000 
#    y 0.000000 1.783110 0.000000 
#    z 0.000000 0.000000 1.774890 
# 
# From -- ./inp_files/8747.got.cif
#   From: 2010.03.12/outbox.cif.g09.slc.cpg/sg63_5_cif.got.tgz:8747.got - 2010.04.10 19:34:48.
