data_PCOD8260412
_publ_section_title
;
Structure prediction by ZEFSAII (Michael W. Deem and Ramdas Pophale) SiO2 
 PCOD8260412
Probable space group: C M C M
;
_chemical_formula_sum "Si O2"
_cell_formula_units_Z 80
_cell_length_a 15.740325
_cell_length_b 13.475681
_cell_length_c 18.305452
_cell_angle_alpha 90.000000
_cell_angle_beta 90.000000
_cell_angle_gamma 90.000000
_cell_volume 3882.798686
_symmetry_space_group_name_H-M "C M C M"
_symmetry_group_IT_number 63
_symmetry_cell_setting 'orthorhombic'
loop_
_space_group_symop_operation_xyz
x,y,z
-x,-y,1/2+z
x,-y,-z
-x,y,1/2-z
-x,-y,-z
x,y,1/2-z
-x,y,z
x,-y,1/2+z
1/2+x,1/2+y,z
1/2-x,1/2-y,1/2+z
1/2+x,1/2-y,-z
1/2-x,1/2+y,1/2-z
1/2-x,1/2-y,-z
1/2+x,1/2+y,1/2-z
1/2-x,1/2+y,z
1/2+x,1/2-y,1/2+z
loop_
_atom_site_type_symbol
_atom_site_label
_atom_site_fract_x
_atom_site_fract_y
_atom_site_fract_z
Si Si1 0.398622 0.389573 0.879007
Si Si2 0.597390 0.304824 0.472028
Si Si3 0.146697 0.673517 0.831213
Si Si4 0.904910 0.602078 0.978434
Si Si5 0.836265 0.902195 0.332302
O O1 0.500000 0.404380 0.866514
O O2 0.364867 0.291623 0.838385
O O3 0.345975 0.480438 0.845073
O O4 0.374090 0.382771 0.965349
O O5 0.500000 0.282698 0.489341
O O6 0.642914 0.197098 0.484421
O O7 0.605838 0.345362 0.390739
O O8 0.117534 0.641774 0.750000
O O9 0.090479 0.616694 0.890903
O O10 0.242286 0.637630 0.845588
O O11 0.000000 0.593155 0.009778
O O12 0.855945 0.500000 0.000000
O O13 0.866521 0.876566 0.250000
#
# Coordination Sequence:
#
# PCOD8260412 Si02
#       5
#    16  16  16  16  16
#     4  10  21  39  63  85 108 148 199 239 274 330
#     4   9  19  36  57  81 109 144 190 238 280 331
#     4  10  22  37  54  81 113 145 187 237 282 328
#     4   9  19  36  57  80 106 141 188 235 280 337
#     4  11  23  35  52  84 120 148 180 229 287 341
#
# _framework density 20.603694999999998
#
# number of rings (size 3 to 8) (size 9 to 14) (size 15 to 20)
#    0.000    2.200    0.000    3.600    0.000   12.000 
#    0.000    3.000    0.000    3.600    0.000    0.000 
#    0.000    0.000    0.000    0.000    0.000    0.000 
#
# Total GULP energy -495646.792549 kJ/mol
# GULP energy per Si atom -12391.169814 kJ/mol
# Density = 2.055680 g / cm^3
# Si number density = 20.603695 Si / 1000 Ang^3
#
#
#
# Elastic Constant Matrix: (Units=GPa)
#
#
# Indices 1 2 3 4 5 6 
#
# 1 44.2468 25.5063 7.9010 0.0000 0.0000 0.0000
# 2 25.5063 128.9679 52.7131 0.0000 0.0000 0.0000
# 3 7.9010 52.7131 127.9533 0.0000 0.0000 0.0000
# 4 0.0000 0.0000 0.0000 26.1558 0.0000 0.0000
# 5 0.0000 0.0000 0.0000 0.0000 5.6748 0.0000
# 6 0.0000 0.0000 0.0000 0.0000 0.0000 29.8067
#
#
#
# Elastic Compliance Matrix: (Units=1/GPa)
#
#
# Indices 1 2 3 4 5 6 
#
# 1 0.025548 -0.005300 0.000606 0.000000 0.000000 0.000000
# 2 -0.005300 0.010424 -0.003967 0.000000 0.000000 0.000000
# 3 0.000606 -0.003967 0.009412 0.000000 0.000000 0.000000
# 4 0.000000 0.000000 0.000000 0.038232 0.000000 0.000000
# 5 0.000000 0.000000 0.000000 0.000000 0.176217 0.000000
# 6 0.000000 0.000000 0.000000 0.000000 0.000000 0.033550
#
#
# Mechanical properties :
#
#
# Convention : Reuss Voigt Hill
#
# Bulk Modulus (GPa) = 35.63664 52.60097 44.11880
# Shear Modulus (GPa) = 15.62215 26.66398 21.14306
#
# Velocity S-wave (km/s) = 2.75657 3.60131 3.20688
# Velocity P-wave (km/s) = 5.24074 6.54812 5.93057
#
# Compressibility (1/GPa) = 0.02806101
#
# Stress axis : x y z
#
# Youngs Moduli (GPa) = 39.14245 95.93684 106.24531
#
# Poissons Ratio (x) = 0.50850 -0.06439
# Poissons Ratio (y) = 0.20747 0.42146
# Poissons Ratio (z) = -0.02372 0.38057
#
# Static dielectric constant tensor:
#      x y z
#    x 3.454830 0.000000 0.000000 
#    y 0.000000 3.929300 0.000000 
#    z 0.000000 0.000000 3.812410 
# 
# 
# High freq. dielectric constant tensor:
#      x y z
#    x 1.780380 0.000000 0.000000 
#    y 0.000000 1.814220 0.000000 
#    z 0.000000 0.000000 1.811580 
# 
# From -- ./inp_files/45417.got.cif
#   From: 2010.03.12/outbox.cif.g09.slc.cpg/sg63_23_cif.got.tgz:45417.got - 2010.04.10 19:34:48.
