data_PCOD8260764
_publ_section_title
;
Structure prediction by ZEFSAII (Michael W. Deem and Ramdas Pophale) SiO2 
 PCOD8260764
Probable space group: C M C M
;
_chemical_formula_sum "Si O2"
_cell_formula_units_Z 72
_cell_length_a 28.463643
_cell_length_b 13.206567
_cell_length_c 9.596803
_cell_angle_alpha 90.000000
_cell_angle_beta 90.000000
_cell_angle_gamma 90.000000
_cell_volume 3607.505505
_symmetry_space_group_name_H-M "C M C M"
_symmetry_group_IT_number 63
_symmetry_cell_setting 'orthorhombic'
loop_
_space_group_symop_operation_xyz
x,y,z
-x,-y,1/2+z
x,-y,-z
-x,y,1/2-z
-x,-y,-z
x,y,1/2-z
-x,y,z
x,-y,1/2+z
1/2+x,1/2+y,z
1/2-x,1/2-y,1/2+z
1/2+x,1/2-y,-z
1/2-x,1/2+y,1/2-z
1/2-x,1/2-y,-z
1/2+x,1/2+y,1/2-z
1/2-x,1/2+y,z
1/2+x,1/2-y,1/2+z
loop_
_atom_site_type_symbol
_atom_site_label
_atom_site_fract_x
_atom_site_fract_y
_atom_site_fract_z
Si Si1 0.442906 0.105108 0.750000
Si Si2 0.818081 0.206557 0.911696
Si Si3 0.500000 0.600724 0.088607
Si Si4 0.947273 0.619166 0.250000
Si Si5 0.258699 0.904641 0.912310
Si Si6 0.919399 0.747325 0.990748
O O1 0.500000 0.117961 0.750000
O O2 0.418592 0.159099 0.621317
O O3 0.422148 0.990407 0.750000
O O4 0.818602 0.169724 0.750000
O O5 0.798889 0.320412 0.919191
O O6 0.869152 0.203405 0.980086
O O7 0.787883 0.132004 0.007687
O O8 0.500000 0.570860 0.250000
O O9 0.500000 0.500000 0.000000
O O10 0.453489 0.662913 0.053778
O O11 0.937305 0.690685 0.123962
O O12 0.000000 0.582114 0.250000
O O13 0.247405 0.931181 0.750000
O O14 0.278075 0.000000 0.000000
#
# Coordination Sequence:
#
# PCOD8260764 Si02
#       6
#     8  16   8   8  16  16
#     4  11  22  40  62  93 134 174 214 258 317 388
#     4  10  23  41  64  93 126 167 210 259 317 373
#     4  12  28  46  67  93 126 174 223 267 319 368
#     4  11  22  36  66  95 126 176 210 252 325 378
#     4  10  22  42  66  93 125 163 208 261 319 380
#     4  12  22  43  63  94 135 166 215 268 310 377
#
# _framework density 19.958390999999999
#
# number of rings (size 3 to 8) (size 9 to 14) (size 15 to 20)
#    0.000    1.111    4.444    1.333    3.111    5.333 
#    0.000    0.000    0.000    0.000    0.000    0.000 
#    0.000    0.000    0.000    0.000    0.000    0.000 
#
# Total GULP energy -446295.791152 kJ/mol
# GULP energy per Si atom -12397.105310 kJ/mol
# Density = 1.991296 g / cm^3
# Si number density = 19.958391 Si / 1000 Ang^3
#
#
#
# Elastic Constant Matrix: (Units=GPa)
#
#
# Indices 1 2 3 4 5 6 
#
# 1 97.1308 10.8038 30.9695 0.0000 0.0000 0.0000
# 2 10.8038 90.8792 44.8377 0.0000 0.0000 0.0000
# 3 30.9695 44.8377 170.7725 0.0000 0.0000 0.0000
# 4 0.0000 0.0000 0.0000 49.5347 0.0000 0.0000
# 5 0.0000 0.0000 0.0000 0.0000 58.9169 0.0000
# 6 0.0000 0.0000 0.0000 0.0000 0.0000 25.5174
#
#
#
# Elastic Compliance Matrix: (Units=1/GPa)
#
#
# Indices 1 2 3 4 5 6 
#
# 1 0.010938 -0.000370 -0.001887 0.000000 0.000000 0.000000
# 2 -0.000370 0.012654 -0.003255 0.000000 0.000000 0.000000
# 3 -0.001887 -0.003255 0.007053 0.000000 0.000000 0.000000
# 4 0.000000 0.000000 0.000000 0.020188 0.000000 0.000000
# 5 0.000000 0.000000 0.000000 0.000000 0.016973 0.000000
# 6 0.000000 0.000000 0.000000 0.000000 0.000000 0.039189
#
#
# Mechanical properties :
#
#
# Convention : Reuss Voigt Hill
#
# Bulk Modulus (GPa) = 50.96470 59.11161 55.03815
# Shear Modulus (GPa) = 40.14211 44.93856 42.54034
#
# Velocity S-wave (km/s) = 4.48961 4.75026 4.62177
# Velocity P-wave (km/s) = 7.24336 7.73100 7.49115
#
# Compressibility (1/GPa) = 0.01962143
#
# Stress axis : x y z
#
# Youngs Moduli (GPa) = 91.42418 79.02862 141.79210
#
# Poissons Ratio (x) = 0.02920 0.26750
# Poissons Ratio (y) = 0.03378 0.46158
# Poissons Ratio (z) = 0.17248 0.25726
#
# Static dielectric constant tensor:
#      x y z
#    x 3.629160 0.000000 0.000000 
#    y 0.000000 3.745100 0.000000 
#    z 0.000000 0.000000 3.870380 
# 
# 
# High freq. dielectric constant tensor:
#      x y z
#    x 1.770140 0.000000 0.000000 
#    y 0.000000 1.784240 0.000000 
#    z 0.000000 0.000000 1.803250 
# 
# From -- ./inp_files/11790.got.cif
#   From: 2010.03.12/outbox.cif.g09.slc.cpg/sg63_6_cif.got.tgz:11790.got - 2010.04.10 19:34:48.
