data_PCOD8260001
_publ_section_title
;
Structure prediction by ZEFSAII (Michael W. Deem and Ramdas Pophale) SiO2 
 PCOD8260001
Probable space group: C M C M
;
_chemical_formula_sum "Si O2"
_cell_formula_units_Z 72
_cell_length_a 15.124973
_cell_length_b 29.174262
_cell_length_c 8.726296
_cell_angle_alpha 90.000000
_cell_angle_beta 90.000000
_cell_angle_gamma 90.000000
_cell_volume 3850.564719
_symmetry_space_group_name_H-M "C M C M"
_symmetry_group_IT_number 63
_symmetry_cell_setting 'orthorhombic'
loop_
_space_group_symop_operation_xyz
x,y,z
-x,-y,1/2+z
x,-y,-z
-x,y,1/2-z
-x,-y,-z
x,y,1/2-z
-x,y,z
x,-y,1/2+z
1/2+x,1/2+y,z
1/2-x,1/2-y,1/2+z
1/2+x,1/2-y,-z
1/2-x,1/2+y,1/2-z
1/2-x,1/2-y,-z
1/2+x,1/2+y,1/2-z
1/2-x,1/2+y,z
1/2+x,1/2-y,1/2+z
loop_
_atom_site_type_symbol
_atom_site_label
_atom_site_fract_x
_atom_site_fract_y
_atom_site_fract_z
Si Si1 0.309615 0.048953 0.429310
Si Si2 0.740710 0.643517 0.428944
Si Si3 0.601681 0.803433 0.428933
Si Si4 0.500000 0.950802 0.569668
Si Si5 0.100730 0.207355 0.573768
O O1 0.314058 0.039887 0.250000
O O2 0.239840 0.089047 0.468418
O O3 0.405641 0.069636 0.486741
O O4 0.282237 0.000000 0.500000
O O5 0.724176 0.652063 0.250000
O O6 0.835721 0.664142 0.472617
O O7 0.662320 0.665328 0.526397
O O8 0.620034 0.810694 0.250000
O O9 0.500000 0.814905 0.472152
O O10 0.624001 0.750963 0.469920
O O11 0.500000 0.952417 0.750000
O O12 0.500000 0.000000 0.500000
O O13 0.118414 0.220436 0.750000
O O14 0.000000 0.191668 0.547802
#
# Coordination Sequence:
#
# PCOD8260001 Si02
#       5
#    16  16  16   8  16
#     4   9  19  33  51  74 103 139 175 214 259 306
#     4  11  22  34  54  81 109 142 177 218 266 317
#     4  10  21  36  54  79 111 144 178 217 259 310
#     4   8  14  28  46  66  94 130 168 202 240 294
#     4  10  21  38  58  78 103 138 178 222 270 317
#
# _framework density 18.698557000000001
#
# number of rings (size 3 to 8) (size 9 to 14) (size 15 to 20)
#    0.000    2.222    0.000    2.667    1.556    4.444 
#    0.000    0.000    0.000    0.667    0.000    0.000 
#    0.000    0.000    0.000    0.000    0.000    0.000 
#
# Total GULP energy -446118.251817 kJ/mol
# GULP energy per Si atom -12392.173662 kJ/mol
# Density = 1.865600 g / cm^3
# Si number density = 18.698557 Si / 1000 Ang^3
#
#
#
# Elastic Constant Matrix: (Units=GPa)
#
#
# Indices 1 2 3 4 5 6 
#
# 1 66.3077 39.7935 17.2318 0.0000 0.0000 0.0000
# 2 39.7935 85.2980 10.3527 0.0000 0.0000 0.0000
# 3 17.2318 10.3527 33.4471 0.0000 0.0000 0.0000
# 4 0.0000 0.0000 0.0000 28.4428 0.0000 0.0000
# 5 0.0000 0.0000 0.0000 0.0000 27.2233 0.0000
# 6 0.0000 0.0000 0.0000 0.0000 0.0000 21.5474
#
#
#
# Elastic Compliance Matrix: (Units=1/GPa)
#
#
# Indices 1 2 3 4 5 6 
#
# 1 0.023275 -0.009770 -0.008967 0.000000 0.000000 0.000000
# 2 -0.009770 0.016282 -0.000006 0.000000 0.000000 0.000000
# 3 -0.008967 -0.000006 0.034520 0.000000 0.000000 0.000000
# 4 0.000000 0.000000 0.000000 0.035158 0.000000 0.000000
# 5 0.000000 0.000000 0.000000 0.000000 0.036733 0.000000
# 6 0.000000 0.000000 0.000000 0.000000 0.000000 0.046409
#
#
# Mechanical properties :
#
#
# Convention : Reuss Voigt Hill
#
# Bulk Modulus (GPa) = 27.32974 35.53429 31.43202
# Shear Modulus (GPa) = 20.65599 23.28771 21.97185
#
# Velocity S-wave (km/s) = 3.32728 3.53289 3.43163
# Velocity P-wave (km/s) = 5.42299 5.97384 5.70507
#
# Compressibility (1/GPa) = 0.03659017
#
# Stress axis : x y z
#
# Youngs Moduli (GPa) = 42.96499 61.41659 28.96900
#
# Poissons Ratio (x) = 0.60003 0.25977
# Poissons Ratio (y) = 0.41976 0.00018
# Poissons Ratio (z) = 0.38527 0.00039
#
# Static dielectric constant tensor:
#      x y z
#    x 3.298150 0.000000 0.000000 
#    y 0.000000 3.337950 0.000000 
#    z 0.000000 0.000000 3.405120 
# 
# 
# High freq. dielectric constant tensor:
#      x y z
#    x 1.713550 0.000000 0.000000 
#    y 0.000000 1.716810 0.000000 
#    z 0.000000 0.000000 1.731210 
# 
# From -- ./inp_files/4585.got.cif
#   From: 2010.03.12/outbox.cif.g09.slc.cpg/sg63_3_cif.got.tgz:4585.got - 2010.04.10 19:34:48.
