data_PCOD8260230
_publ_section_title
;
Structure prediction by ZEFSAII (Michael W. Deem and Ramdas Pophale) SiO2 
 PCOD8260230
Probable space group: C M C M
;
_chemical_formula_sum "Si O2"
_cell_formula_units_Z 112
_cell_length_a 14.831955
_cell_length_b 14.796339
_cell_length_c 23.124012
_cell_angle_alpha 90.000000
_cell_angle_beta 90.000000
_cell_angle_gamma 90.000000
_cell_volume 5074.764091
_symmetry_space_group_name_H-M "C M C M"
_symmetry_group_IT_number 63
_symmetry_cell_setting 'orthorhombic'
loop_
_space_group_symop_operation_xyz
x,y,z
-x,-y,1/2+z
x,-y,-z
-x,y,1/2-z
-x,-y,-z
x,y,1/2-z
-x,y,z
x,-y,1/2+z
1/2+x,1/2+y,z
1/2-x,1/2-y,1/2+z
1/2+x,1/2-y,-z
1/2-x,1/2+y,1/2-z
1/2-x,1/2-y,-z
1/2+x,1/2+y,1/2-z
1/2-x,1/2+y,z
1/2+x,1/2-y,1/2+z
loop_
_atom_site_type_symbol
_atom_site_label
_atom_site_fract_x
_atom_site_fract_y
_atom_site_fract_z
Si Si1 0.100649 0.355867 0.580635
Si Si2 0.599153 0.660532 0.384285
Si Si3 0.230523 0.852994 0.512637
Si Si4 0.359750 0.493770 0.184834
Si Si5 0.396640 0.643163 0.912599
Si Si6 0.895362 0.674841 0.813570
Si Si7 0.651177 0.021380 0.184230
O O1 0.172762 0.394853 0.533070
O O2 0.117332 0.250239 0.592696
O O3 0.109837 0.403497 0.642636
O O4 0.000000 0.372510 0.555913
O O5 0.500000 0.687201 0.408335
O O6 0.661621 0.630296 0.435881
O O7 0.584643 0.577721 0.340339
O O8 0.646738 0.747466 0.354070
O O9 0.250000 0.750000 0.500000
O O10 0.179234 0.897062 0.457348
O O11 0.391687 0.473514 0.250000
O O12 0.377383 0.402517 0.148976
O O13 0.257673 0.526360 0.182914
O O14 0.500000 0.621563 0.932481
O O15 0.849034 0.678891 0.750000
O O16 0.879615 0.576220 0.840404
O O17 0.000000 0.697045 0.807504
O O18 0.614644 0.035500 0.250000
#
# Coordination Sequence:
#
# PCOD8260230 Si02
#       7
#    16  16  16  16  16  16  16
#     4  10  21  41  67  94 126 166 214 267 321 377
#     4  11  22  39  64  92 126 168 210 256 313 372
#     4  10  22  41  65  92 126 164 209 261 312 374
#     4  11  24  40  63  96 133 170 210 259 314 379
#     4  10  23  42  66  94 128 168 210 258 318 381
#     4   9  19  35  58  88 120 159 209 262 313 367
#     4  10  21  37  61  92 129 171 214 261 318 380
#
# _framework density 22.069991999999999
#
# number of rings (size 3 to 8) (size 9 to 14) (size 15 to 20)
#    0.000    1.857    1.429    1.714    4.000    4.286 
#    0.000    2.857    0.000    0.857    0.000    0.000 
#    0.000    0.000    0.000    0.000    0.000    0.000 
#
# Total GULP energy -694137.867000 kJ/mol
# GULP energy per Si atom -12395.319054 kJ/mol
# Density = 2.201976 g / cm^3
# Si number density = 22.069992 Si / 1000 Ang^3
#
#
#
# Elastic Constant Matrix: (Units=GPa)
#
#
# Indices 1 2 3 4 5 6 
#
# 1 121.4847 25.5030 54.6680 0.0000 0.0000 0.0000
# 2 25.5030 81.4743 52.2863 0.0000 0.0000 0.0000
# 3 54.6680 52.2863 134.7759 0.0000 0.0000 0.0000
# 4 0.0000 0.0000 0.0000 32.2233 0.0000 0.0000
# 5 0.0000 0.0000 0.0000 0.0000 4.6490 0.0000
# 6 0.0000 0.0000 0.0000 0.0000 0.0000 22.0086
#
#
#
# Elastic Compliance Matrix: (Units=1/GPa)
#
#
# Indices 1 2 3 4 5 6 
#
# 1 0.010100 -0.000709 -0.003822 0.000000 0.000000 0.000000
# 2 -0.000709 0.016392 -0.006072 0.000000 0.000000 0.000000
# 3 -0.003822 -0.006072 0.011326 0.000000 0.000000 0.000000
# 4 0.000000 0.000000 0.000000 0.031033 0.000000 0.000000
# 5 0.000000 0.000000 0.000000 0.000000 0.215101 0.000000
# 6 0.000000 0.000000 0.000000 0.000000 0.000000 0.045437
#
#
# Mechanical properties :
#
#
# Convention : Reuss Voigt Hill
#
# Bulk Modulus (GPa) = 60.19434 66.96106 63.57770
# Shear Modulus (GPa) = 14.03975 25.46133 19.75054
#
# Velocity S-wave (km/s) = 2.52493 3.40025 2.99474
# Velocity P-wave (km/s) = 5.98614 6.76918 6.38966
#
# Compressibility (1/GPa) = 0.01661286
#
# Stress axis : x y z
#
# Youngs Moduli (GPa) = 99.00880 61.00406 88.29615
#
# Poissons Ratio (x) = 0.04324 0.33745
# Poissons Ratio (y) = 0.07018 0.53612
# Poissons Ratio (z) = 0.37839 0.37041
#
# Static dielectric constant tensor:
#      x y z
#    x 4.341990 0.000000 0.000000 
#    y 0.000000 3.940480 0.000000 
#    z 0.000000 0.000000 4.122490 
# 
# 
# High freq. dielectric constant tensor:
#      x y z
#    x 1.878310 0.000000 0.000000 
#    y 0.000000 1.857810 0.000000 
#    z 0.000000 0.000000 1.860530 
# 
# From -- ./inp_files/63008.got.cif
#   From: 2010.03.12/outbox.cif.g09.slc.cpg/sg63_32_cif.got.tgz:63008.got - 2010.04.10 19:34:48.
