data_PCOD8260246
_publ_section_title
;
Structure prediction by ZEFSAII (Michael W. Deem and Ramdas Pophale) SiO2 
 PCOD8260246
Probable space group: C M C M
;
_chemical_formula_sum "Si O2"
_cell_formula_units_Z 80
_cell_length_a 11.104929
_cell_length_b 13.865063
_cell_length_c 26.879353
_cell_angle_alpha 90.000000
_cell_angle_beta 90.000000
_cell_angle_gamma 90.000000
_cell_volume 4138.628502
_symmetry_space_group_name_H-M "C M C M"
_symmetry_group_IT_number 63
_symmetry_cell_setting 'orthorhombic'
loop_
_space_group_symop_operation_xyz
x,y,z
-x,-y,1/2+z
x,-y,-z
-x,y,1/2-z
-x,-y,-z
x,y,1/2-z
-x,y,z
x,-y,1/2+z
1/2+x,1/2+y,z
1/2-x,1/2-y,1/2+z
1/2+x,1/2-y,-z
1/2-x,1/2+y,1/2-z
1/2-x,1/2-y,-z
1/2+x,1/2+y,1/2-z
1/2-x,1/2+y,z
1/2+x,1/2-y,1/2+z
loop_
_atom_site_type_symbol
_atom_site_label
_atom_site_fract_x
_atom_site_fract_y
_atom_site_fract_z
Si Si1 0.637991 0.740759 0.038496
Si Si2 0.224564 0.379597 0.121015
Si Si3 0.862751 0.975861 0.553446
Si Si4 0.359071 0.235502 0.307181
Si Si5 0.363349 0.024910 0.303380
O O1 0.500000 0.748106 0.015102
O O2 0.647259 0.823246 0.079982
O O3 0.652158 0.637375 0.065033
O O4 0.750000 0.750000 0.000000
O O5 0.306525 0.460766 0.096424
O O6 0.300986 0.307579 0.153880
O O7 0.138710 0.439381 0.157164
O O8 0.000000 0.008784 0.551075
O O9 0.801728 0.000000 0.500000
O O10 0.325959 0.261699 0.250000
O O11 0.500000 0.244882 0.316267
O O12 0.307282 0.128127 0.320172
O O13 0.305418 0.992739 0.250000
O O14 0.500000 0.051746 0.293302
#
# Coordination Sequence:
#
# PCOD8260246 Si02
#       5
#    16  16  16  16  16
#     4  11  24  41  59  83 115 152 198 245 291 348
#     4  12  20  34  60  86 109 147 196 241 279 337
#     4  10  21  38  56  78 113 155 191 230 294 351
#     4   9  19  35  56  85 117 149 189 233 280 341
#     4   9  19  36  55  79 114 147 177 225 289 345
#
# _framework density 19.330075999999998
#
# number of rings (size 3 to 8) (size 9 to 14) (size 15 to 20)
#    0.000    1.800    2.000    4.200    0.000    0.800 
#    0.000    3.000    0.000    0.000    0.000   16.800 
#    0.000    0.000    0.000    0.000    0.000    0.000 
#
# Total GULP energy -495530.435082 kJ/mol
# GULP energy per Si atom -12388.260877 kJ/mol
# Density = 1.928608 g / cm^3
# Si number density = 19.330076 Si / 1000 Ang^3
#
#
#
# Elastic Constant Matrix: (Units=GPa)
#
#
# Indices 1 2 3 4 5 6 
#
# 1 80.9791 41.2090 40.6879 0.0000 0.0000 0.0000
# 2 41.2090 131.5654 61.7199 0.0000 0.0000 0.0000
# 3 40.6879 61.7199 99.2683 0.0000 0.0000 0.0000
# 4 0.0000 0.0000 0.0000 47.9263 0.0000 0.0000
# 5 0.0000 0.0000 0.0000 0.0000 -1.1783 0.0000
# 6 0.0000 0.0000 0.0000 0.0000 0.0000 23.4592
#
#
#
# Elastic Compliance Matrix: (Units=1/GPa)
#
#
# Indices 1 2 3 4 5 6 
#
# 1 0.016238 -0.002772 -0.004932 0.000000 0.000000 0.000000
# 2 -0.002772 0.011204 -0.005830 0.000000 0.000000 0.000000
# 3 -0.004932 -0.005830 0.015720 0.000000 0.000000 0.000000
# 4 0.000000 0.000000 0.000000 0.020865 0.000000 0.000000
# 5 0.000000 0.000000 0.000000 0.000000 -0.848656 0.000000
# 6 0.000000 0.000000 0.000000 0.000000 0.000000 0.042627
#
#
# Mechanical properties :
#
#
# Convention : Reuss Voigt Hill
#
# Bulk Modulus (GPa) = 62.13618 66.56073 64.34846
# Shear Modulus (GPa) = -7.04652 25.25449 9.10399
#
# Velocity S-wave (km/s) = -1.91136 3.61846 2.17255
# Velocity P-wave (km/s) = 5.22911 7.20876 6.29721
#
# Compressibility (1/GPa) = 0.01609368
#
# Stress axis : x y z
#
# Youngs Moduli (GPa) = 61.58535 89.25387 63.61433
#
# Poissons Ratio (x) = 0.24745 0.31373
# Poissons Ratio (y) = 0.17074 0.37085
# Poissons Ratio (z) = 0.30372 0.52032
#
# Static dielectric constant tensor:
#      x y z
#    x 2.734880 0.000000 0.000000 
#    y 0.000000 3.772320 0.000000 
#    z 0.000000 0.000000 3.618850 
# 
# 
# High freq. dielectric constant tensor:
#      x y z
#    x 1.727800 0.000000 0.000000 
#    y 0.000000 1.772650 0.000000 
#    z 0.000000 0.000000 1.753630 
# 
# From -- ./inp_files/61113.got.cif
#   From: 2010.03.12/outbox.cif.g09.slc.cpg/sg63_31_cif.got.tgz:61113.got - 2010.04.10 19:34:48.
