data_PCOD8260152
_publ_section_title
;
Structure prediction by ZEFSAII (Michael W. Deem and Ramdas Pophale) SiO2 
 PCOD8260152
Probable space group: C M C M
;
_chemical_formula_sum "Si O2"
_cell_formula_units_Z 96
_cell_length_a 25.083394
_cell_length_b 23.328828
_cell_length_c 8.720419
_cell_angle_alpha 90.000000
_cell_angle_beta 90.000000
_cell_angle_gamma 90.000000
_cell_volume 5102.894312
_symmetry_space_group_name_H-M "C M C M"
_symmetry_group_IT_number 63
_symmetry_cell_setting 'orthorhombic'
loop_
_space_group_symop_operation_xyz
x,y,z
-x,-y,1/2+z
x,-y,-z
-x,y,1/2-z
-x,-y,-z
x,y,1/2-z
-x,y,z
x,-y,1/2+z
1/2+x,1/2+y,z
1/2-x,1/2-y,1/2+z
1/2+x,1/2-y,-z
1/2-x,1/2+y,1/2-z
1/2-x,1/2-y,-z
1/2+x,1/2+y,1/2-z
1/2-x,1/2+y,z
1/2+x,1/2-y,1/2+z
loop_
_atom_site_type_symbol
_atom_site_label
_atom_site_fract_x
_atom_site_fract_y
_atom_site_fract_z
Si Si1 0.938292 0.560621 0.928363
Si Si2 0.059480 0.940144 0.930429
Si Si3 0.658231 0.366830 0.926553
Si Si4 0.846928 0.626945 0.069086
Si Si5 0.250244 0.438974 0.069747
Si Si6 0.807376 0.258582 0.072513
O O1 0.923534 0.559725 0.750000
O O2 0.000000 0.574470 0.956162
O O3 0.922222 0.500000 0.000000
O O4 0.905860 0.609973 0.014792
O O5 0.058559 0.947634 0.750000
O O6 0.100603 0.890464 0.979807
O O7 0.000000 0.924491 0.991333
O O8 0.079505 0.000000 0.000000
O O9 0.670299 0.383256 0.750000
O O10 0.657499 0.298571 0.948031
O O11 0.704108 0.393384 0.031110
O O12 0.841499 0.623902 0.250000
O O13 0.805512 0.582423 0.996977
O O14 0.837698 0.691430 0.014928
O O15 0.244586 0.445158 0.250000
O O16 0.266091 0.500000 0.000000
O O17 0.800500 0.275252 0.250000
O O18 0.750000 0.250000 0.000000
#
# Coordination Sequence:
#
# PCOD8260152 Si02
#       6
#    16  16  16  16  16  16
#     4  10  21  39  63  90 120 154 193 238 292 352
#     4   9  18  34  56  82 112 147 184 226 277 333
#     4  10  21  37  57  82 113 147 190 235 283 344
#     4  12  24  39  59  84 117 153 195 240 288 345
#     4  12  24  37  56  82 115 148 186 235 291 349
#     4  11  22  38  59  83 114 154 197 240 290 345
#
# _framework density 18.812853
#
# number of rings (size 3 to 8) (size 9 to 14) (size 15 to 20)
#    0.000    1.333    1.667    5.000    0.000    3.667 
#    0.000    0.833    0.000    3.000    0.000    0.000 
#    0.000    0.000    0.000    0.000    0.000    0.000 
#
# Total GULP energy -595451.304146 kJ/mol
# GULP energy per Si atom -12405.235503 kJ/mol
# Density = 1.877003 g / cm^3
# Si number density = 18.812853 Si / 1000 Ang^3
#
#
#
# Elastic Constant Matrix: (Units=GPa)
#
#
# Indices 1 2 3 4 5 6 
#
# 1 102.9591 53.8723 46.3775 0.0000 0.0000 0.0000
# 2 53.8723 108.3367 50.6796 0.0000 0.0000 0.0000
# 3 46.3775 50.6796 130.3789 0.0000 0.0000 0.0000
# 4 0.0000 0.0000 0.0000 33.4257 0.0000 0.0000
# 5 0.0000 0.0000 0.0000 0.0000 27.8534 0.0000
# 6 0.0000 0.0000 0.0000 0.0000 0.0000 36.7578
#
#
#
# Elastic Compliance Matrix: (Units=1/GPa)
#
#
# Indices 1 2 3 4 5 6 
#
# 1 0.013895 -0.005619 -0.002758 0.000000 0.000000 0.000000
# 2 -0.005619 0.013554 -0.003270 0.000000 0.000000 0.000000
# 3 -0.002758 -0.003270 0.009922 0.000000 0.000000 0.000000
# 4 0.000000 0.000000 0.000000 0.029917 0.000000 0.000000
# 5 0.000000 0.000000 0.000000 0.000000 0.035902 0.000000
# 6 0.000000 0.000000 0.000000 0.000000 0.000000 0.027205
#
#
# Mechanical properties :
#
#
# Convention : Reuss Voigt Hill
#
# Bulk Modulus (GPa) = 71.03951 71.50373 71.27162
# Shear Modulus (GPa) = 31.56883 32.32373 31.94628
#
# Velocity S-wave (km/s) = 4.10084 4.14958 4.12528
# Velocity P-wave (km/s) = 7.76310 7.81339 7.78829
#
# Compressibility (1/GPa) = 0.01407667
#
# Stress axis : x y z
#
# Youngs Moduli (GPa) = 71.96633 73.77663 100.78388
#
# Poissons Ratio (x) = 0.41457 0.27801
# Poissons Ratio (y) = 0.40440 0.32955
# Poissons Ratio (z) = 0.19852 0.24124
#
# Static dielectric constant tensor:
#      x y z
#    x 3.595550 0.000000 0.000000 
#    y 0.000000 3.615530 0.000000 
#    z 0.000000 0.000000 3.570690 
# 
# 
# High freq. dielectric constant tensor:
#      x y z
#    x 1.731370 0.000000 0.000000 
#    y 0.000000 1.731200 0.000000 
#    z 0.000000 0.000000 1.741680 
# 
# From -- ./inp_files/10504.got.cif
#   From: 2010.03.12/outbox.cif.g09.slc.cpg/sg63_6_cif.got.tgz:10504.got - 2010.04.10 19:34:48.
