data_PCOD8260921
_publ_section_title
;
Structure prediction by ZEFSAII (Michael W. Deem and Ramdas Pophale) SiO2 
 PCOD8260921
Probable space group: C M C M
;
_chemical_formula_sum "Si O2"
_cell_formula_units_Z 96
_cell_length_a 16.100859
_cell_length_b 19.810617
_cell_length_c 15.892241
_cell_angle_alpha 90.000000
_cell_angle_beta 90.000000
_cell_angle_gamma 90.000000
_cell_volume 5069.115549
_symmetry_space_group_name_H-M "C M C M"
_symmetry_group_IT_number 63
_symmetry_cell_setting 'orthorhombic'
loop_
_space_group_symop_operation_xyz
x,y,z
-x,-y,1/2+z
x,-y,-z
-x,y,1/2-z
-x,-y,-z
x,y,1/2-z
-x,y,z
x,-y,1/2+z
1/2+x,1/2+y,z
1/2-x,1/2-y,1/2+z
1/2+x,1/2-y,-z
1/2-x,1/2+y,1/2-z
1/2-x,1/2-y,-z
1/2+x,1/2+y,1/2-z
1/2-x,1/2+y,z
1/2+x,1/2-y,1/2+z
loop_
_atom_site_type_symbol
_atom_site_label
_atom_site_fract_x
_atom_site_fract_y
_atom_site_fract_z
Si Si1 0.675959 0.424784 0.849958
Si Si2 0.500000 0.627248 0.349675
Si Si3 0.594562 0.984913 0.750000
Si Si4 0.500000 0.781260 0.350162
Si Si5 0.327149 0.180731 0.579063
Si Si6 0.713475 0.202711 0.392213
Si Si7 0.906478 0.674725 0.250000
Si Si8 0.199726 0.527214 0.910124
O O1 0.681557 0.430368 0.750000
O O2 0.581806 0.412280 0.881468
O O3 0.733146 0.364343 0.881212
O O4 0.710618 0.493403 0.891335
O O5 0.500000 0.630291 0.250000
O O6 0.500000 0.704038 0.383314
O O7 0.500000 0.010476 0.750000
O O8 0.636253 0.011222 0.835232
O O9 0.601484 0.905225 0.750000
O O10 0.500000 0.785154 0.250000
O O11 0.420165 0.820301 0.385401
O O12 0.326721 0.206827 0.483842
O O13 0.271085 0.233320 0.631263
O O14 0.286741 0.107076 0.585913
O O15 0.635437 0.205364 0.331742
O O16 0.000000 0.699997 0.250000
O O17 0.164648 0.500000 0.000000
#
# Coordination Sequence:
#
# PCOD8260921 Si02
#       8
#    16   8   8   8  16  16   8  16
#     4  11  19  40  65  90 118 159 209 249 304 367
#     4   9  20  36  67  92 115 152 209 268 297 351
#     4  11  24  39  58  90 126 162 201 243 296 362
#     4  11  24  38  59  95 127 156 197 259 317 354
#     4  11  26  37  62  91 127 157 200 258 315 362
#     4  11  21  42  62  88 117 163 206 255 301 365
#     4  11  22  39  66  86 116 166 213 239 290 370
#     4  12  23  41  62  89 123 166 204 246 305 377
#
# _framework density 18.938215
#
# number of rings (size 3 to 8) (size 9 to 14) (size 15 to 20)
#    0.000    1.000    6.667    0.000    4.667    0.333 
#    0.000    0.417    1.833    0.000    0.000    0.000 
#    0.000    0.000    0.000    0.000    0.000    0.000 
#
# Total GULP energy -595310.616988 kJ/mol
# GULP energy per Si atom -12402.304521 kJ/mol
# Density = 1.889511 g / cm^3
# Si number density = 18.938215 Si / 1000 Ang^3
#
#
#
# Elastic Constant Matrix: (Units=GPa)
#
#
# Indices 1 2 3 4 5 6 
#
# 1 137.7757 52.2267 44.9958 0.0000 0.0000 0.0000
# 2 52.2267 112.6803 15.4624 0.0000 0.0000 0.0000
# 3 44.9958 15.4624 92.8204 0.0000 0.0000 0.0000
# 4 0.0000 0.0000 0.0000 21.7020 0.0000 0.0000
# 5 0.0000 0.0000 0.0000 0.0000 21.8501 0.0000
# 6 0.0000 0.0000 0.0000 0.0000 0.0000 19.0184
#
#
#
# Elastic Compliance Matrix: (Units=1/GPa)
#
#
# Indices 1 2 3 4 5 6 
#
# 1 0.010226 -0.004154 -0.004265 0.000000 0.000000 0.000000
# 2 -0.004154 0.010770 0.000220 0.000000 0.000000 0.000000
# 3 -0.004265 0.000220 0.012804 0.000000 0.000000 0.000000
# 4 0.000000 0.000000 0.000000 0.046079 0.000000 0.000000
# 5 0.000000 0.000000 0.000000 0.000000 0.045766 0.000000
# 6 0.000000 0.000000 0.000000 0.000000 0.000000 0.052581
#
#
# Mechanical properties :
#
#
# Convention : Reuss Voigt Hill
#
# Bulk Modulus (GPa) = 57.46794 63.18289 60.32542
# Shear Modulus (GPa) = 24.94691 27.88688 26.41689
#
# Velocity S-wave (km/s) = 3.63337 3.84150 3.73889
# Velocity P-wave (km/s) = 6.92912 7.28775 7.11069
#
# Compressibility (1/GPa) = 0.01740101
#
# Stress axis : x y z
#
# Youngs Moduli (GPa) = 97.79099 92.85015 78.09795
#
# Poissons Ratio (x) = 0.38573 0.33309
# Poissons Ratio (y) = 0.40626 -0.01716
# Poissons Ratio (z) = 0.41709 -0.02041
#
# Static dielectric constant tensor:
#      x y z
#    x 3.688460 0.000000 0.000000 
#    y 0.000000 3.544590 0.000000 
#    z 0.000000 0.000000 3.536400 
# 
# 
# High freq. dielectric constant tensor:
#      x y z
#    x 1.735990 0.000000 0.000000 
#    y 0.000000 1.734320 0.000000 
#    z 0.000000 0.000000 1.739460 
# 
# From -- ./inp_files/32012.got.cif
#   From: 2010.03.12/outbox.cif.g09.slc.cpg/sg63_17_cif.got.tgz:32012.got - 2010.04.10 19:34:48.
