data_PCOD8260033
_publ_section_title
;
Structure prediction by ZEFSAII (Michael W. Deem and Ramdas Pophale) SiO2 
 PCOD8260033
Probable space group: C M C M
;
_chemical_formula_sum "Si O2"
_cell_formula_units_Z 56
_cell_length_a 15.550456
_cell_length_b 19.706059
_cell_length_c 8.766929
_cell_angle_alpha 90.000000
_cell_angle_beta 90.000000
_cell_angle_gamma 90.000000
_cell_volume 2686.521972
_symmetry_space_group_name_H-M "C M C M"
_symmetry_group_IT_number 63
_symmetry_cell_setting 'orthorhombic'
loop_
_space_group_symop_operation_xyz
x,y,z
-x,-y,1/2+z
x,-y,-z
-x,y,1/2-z
-x,-y,-z
x,y,1/2-z
-x,y,z
x,-y,1/2+z
1/2+x,1/2+y,z
1/2-x,1/2-y,1/2+z
1/2+x,1/2-y,-z
1/2-x,1/2+y,1/2-z
1/2-x,1/2-y,-z
1/2+x,1/2+y,1/2-z
1/2-x,1/2+y,z
1/2+x,1/2-y,1/2+z
loop_
_atom_site_type_symbol
_atom_site_label
_atom_site_fract_x
_atom_site_fract_y
_atom_site_fract_z
Si Si1 0.402385 0.437234 0.415872
Si Si2 0.350112 0.166354 0.571019
Si Si3 0.500000 0.924054 0.568535
Si Si4 0.829519 0.180566 0.427111
O O1 0.354382 0.500000 0.500000
O O2 0.358818 0.423875 0.250000
O O3 0.500000 0.458184 0.387737
O O4 0.402930 0.371608 0.524994
O O5 0.362753 0.153349 0.750000
O O6 0.415590 0.117408 0.483037
O O7 0.252517 0.152904 0.521172
O O8 0.365225 0.245381 0.527079
O O9 0.500000 0.930163 0.750000
O O10 0.500000 0.000000 0.500000
O O11 0.806228 0.178536 0.250000
#
# Coordination Sequence:
#
# PCOD8260033 Si02
#       4
#    16  16   8  16
#     4  10  21  36  55  83 118 156 197 242 292 350
#     4  10  22  41  63  90 122 156 200 249 300 358
#     4  12  26  44  66  92 125 162 207 256 310 370
#     4  10  21  38  62  90 121 158 200 248 300 356
#
# _framework density 20.844794
#
# number of rings (size 3 to 8) (size 9 to 14) (size 15 to 20)
#    0.000    1.714    0.000    3.857    2.000    6.286 
#    0.000    5.714    0.000    0.000    0.000    0.000 
#    0.000    0.000    0.000    0.000    0.000    0.000 
#
# Total GULP energy -347037.543859 kJ/mol
# GULP energy per Si atom -12394.197995 kJ/mol
# Density = 2.079735 g / cm^3
# Si number density = 20.844794 Si / 1000 Ang^3
#
#
#
# Elastic Constant Matrix: (Units=GPa)
#
#
# Indices 1 2 3 4 5 6 
#
# 1 61.8241 53.4823 41.8680 0.0000 0.0000 0.0000
# 2 53.4823 151.0073 71.4346 0.0000 0.0000 0.0000
# 3 41.8680 71.4346 125.3571 0.0000 0.0000 0.0000
# 4 0.0000 0.0000 0.0000 38.1826 0.0000 0.0000
# 5 0.0000 0.0000 0.0000 0.0000 33.7494 0.0000
# 6 0.0000 0.0000 0.0000 0.0000 0.0000 24.5037
#
#
#
# Elastic Compliance Matrix: (Units=1/GPa)
#
#
# Indices 1 2 3 4 5 6 
#
# 1 0.025072 -0.006734 -0.004537 0.000000 0.000000 0.000000
# 2 -0.006734 0.010875 -0.003948 0.000000 0.000000 0.000000
# 3 -0.004537 -0.003948 0.011742 0.000000 0.000000 0.000000
# 4 0.000000 0.000000 0.000000 0.026190 0.000000 0.000000
# 5 0.000000 0.000000 0.000000 0.000000 0.029630 0.000000
# 6 0.000000 0.000000 0.000000 0.000000 0.000000 0.040810
#
#
# Mechanical properties :
#
#
# Convention : Reuss Voigt Hill
#
# Bulk Modulus (GPa) = 57.96278 74.63981 66.30129
# Shear Modulus (GPa) = 27.69974 30.71405 29.20690
#
# Velocity S-wave (km/s) = 3.64930 3.84274 3.74727
# Velocity P-wave (km/s) = 6.75454 7.45480 7.11329
#
# Compressibility (1/GPa) = 0.01725245
#
# Stress axis : x y z
#
# Youngs Moduli (GPa) = 39.88446 91.95667 85.16343
#
# Poissons Ratio (x) = 0.61922 0.38636
# Poissons Ratio (y) = 0.26857 0.33622
# Poissons Ratio (z) = 0.18094 0.36304
#
# Static dielectric constant tensor:
#      x y z
#    x 3.529300 0.000000 0.000000 
#    y 0.000000 3.845830 0.000000 
#    z 0.000000 0.000000 4.104990 
# 
# 
# High freq. dielectric constant tensor:
#      x y z
#    x 1.794290 0.000000 0.000000 
#    y 0.000000 1.826660 0.000000 
#    z 0.000000 0.000000 1.835110 
# 
# From -- ./inp_files/5541.got.cif
#   From: 2010.03.12/outbox.cif.g09.slc.cpg/sg63_3_cif.got.tgz:5541.got - 2010.04.10 19:34:48.
