data_PCOD8260772
_publ_section_title
;
Structure prediction by ZEFSAII (Michael W. Deem and Ramdas Pophale) SiO2 
 PCOD8260772
Probable space group: C M C M
;
_chemical_formula_sum "Si O2"
_cell_formula_units_Z 72
_cell_length_a 25.273485
_cell_length_b 10.528459
_cell_length_c 14.042432
_cell_angle_alpha 90.000000
_cell_angle_beta 90.000000
_cell_angle_gamma 90.000000
_cell_volume 3736.562676
_symmetry_space_group_name_H-M "C M C M"
_symmetry_group_IT_number 63
_symmetry_cell_setting 'orthorhombic'
loop_
_space_group_symop_operation_xyz
x,y,z
-x,-y,1/2+z
x,-y,-z
-x,y,1/2-z
-x,-y,-z
x,y,1/2-z
-x,y,z
x,-y,1/2+z
1/2+x,1/2+y,z
1/2-x,1/2-y,1/2+z
1/2+x,1/2-y,-z
1/2-x,1/2+y,1/2-z
1/2-x,1/2-y,-z
1/2+x,1/2+y,1/2-z
1/2-x,1/2+y,z
1/2+x,1/2-y,1/2+z
loop_
_atom_site_type_symbol
_atom_site_label
_atom_site_fract_x
_atom_site_fract_y
_atom_site_fract_z
Si Si1 0.732916 0.308089 0.250000
Si Si2 0.690387 0.573041 0.250000
Si Si3 0.805238 0.265326 0.948073
Si Si4 0.382409 0.396607 0.571923
Si Si5 0.632844 0.000000 0.000000
Si Si6 0.939171 0.339819 0.139791
O O1 0.737707 0.464817 0.250000
O O2 0.786386 0.219448 0.250000
O O3 0.697885 0.274966 0.339785
O O4 0.653731 0.549924 0.157688
O O5 0.750000 0.250000 0.000000
O O6 0.845840 0.179332 0.001610
O O7 0.826955 0.407425 0.946763
O O8 0.408339 0.500000 0.500000
O O9 0.428293 0.307263 0.613999
O O10 0.596638 0.066148 0.921181
O O11 0.925426 0.362490 0.250000
O O12 0.000000 0.370217 0.117902
#
# Coordination Sequence:
#
# PCOD8260772 Si02
#       6
#     8   8  16  16   8  16
#     4  12  26  36  62  85 128 172 214 259 304 373
#     4  12  24  38  59  89 126 172 211 261 314 379
#     4  11  24  38  56  89 122 168 206 249 305 375
#     4  11  22  40  60  86 124 159 207 260 318 380
#     4  10  25  40  64  88 132 162 203 260 316 382
#     4  10  22  42  68  94 119 159 213 268 325 385
#
# _framework density 19.269047
#
# number of rings (size 3 to 8) (size 9 to 14) (size 15 to 20)
#    0.000    1.111    5.556    0.333    6.222    0.444 
#    0.000    0.000    0.000    0.000    0.000    0.000 
#    0.000    0.000    0.000    0.000    0.000    0.000 
#
# Total GULP energy -446139.771552 kJ/mol
# GULP energy per Si atom -12392.771432 kJ/mol
# Density = 1.922519 g / cm^3
# Si number density = 19.269047 Si / 1000 Ang^3
#
#
#
# Elastic Constant Matrix: (Units=GPa)
#
#
# Indices 1 2 3 4 5 6 
#
# 1 74.3623 40.7683 23.6469 0.0000 0.0000 0.0000
# 2 40.7683 113.1285 40.6511 0.0000 0.0000 0.0000
# 3 23.6469 40.6511 99.4068 0.0000 0.0000 0.0000
# 4 0.0000 0.0000 0.0000 26.1443 0.0000 0.0000
# 5 0.0000 0.0000 0.0000 0.0000 23.5144 0.0000
# 6 0.0000 0.0000 0.0000 0.0000 0.0000 25.1664
#
#
#
# Elastic Compliance Matrix: (Units=1/GPa)
#
#
# Indices 1 2 3 4 5 6 
#
# 1 0.017031 -0.005488 -0.001807 0.000000 0.000000 0.000000
# 2 -0.005488 0.012131 -0.003655 0.000000 0.000000 0.000000
# 3 -0.001807 -0.003655 0.011984 0.000000 0.000000 0.000000
# 4 0.000000 0.000000 0.000000 0.038249 0.000000 0.000000
# 5 0.000000 0.000000 0.000000 0.000000 0.042527 0.000000
# 6 0.000000 0.000000 0.000000 0.000000 0.000000 0.039736
#
#
# Mechanical properties :
#
#
# Convention : Reuss Voigt Hill
#
# Bulk Modulus (GPa) = 51.96068 55.22557 53.59313
# Shear Modulus (GPa) = 26.31937 27.08709 26.70323
#
# Velocity S-wave (km/s) = 3.69980 3.75338 3.72669
# Velocity P-wave (km/s) = 6.72873 6.89248 6.81110
#
# Compressibility (1/GPa) = 0.01924532
#
# Stress axis : x y z
#
# Youngs Moduli (GPa) = 58.71591 82.43526 83.44279
#
# Poissons Ratio (x) = 0.45242 0.15078
# Poissons Ratio (y) = 0.32225 0.30500
# Poissons Ratio (z) = 0.10610 0.30131
#
# Static dielectric constant tensor:
#      x y z
#    x 3.243160 0.000000 0.000000 
#    y 0.000000 3.266730 0.000000 
#    z 0.000000 0.000000 4.058770 
# 
# 
# High freq. dielectric constant tensor:
#      x y z
#    x 1.728660 0.000000 0.000000 
#    y 0.000000 1.758850 0.000000 
#    z 0.000000 0.000000 1.774510 
# 
# From -- ./inp_files/24762.got.cif
#   From: 2010.03.12/outbox.cif.g09.slc.cpg/sg63_13_cif.got.tgz:24762.got - 2010.04.10 19:34:48.
