data_PCOD8260205
_publ_section_title
;
Structure prediction by ZEFSAII (Michael W. Deem and Ramdas Pophale) SiO2 
 PCOD8260205
Probable space group: C M C M
;
_chemical_formula_sum "Si O2"
_cell_formula_units_Z 80
_cell_length_a 24.822897
_cell_length_b 18.292572
_cell_length_c 8.953663
_cell_angle_alpha 90.000000
_cell_angle_beta 90.000000
_cell_angle_gamma 90.000000
_cell_volume 4065.631219
_symmetry_space_group_name_H-M "C M C M"
_symmetry_group_IT_number 63
_symmetry_cell_setting 'orthorhombic'
loop_
_space_group_symop_operation_xyz
x,y,z
-x,-y,1/2+z
x,-y,-z
-x,y,1/2-z
-x,-y,-z
x,y,1/2-z
-x,y,z
x,-y,1/2+z
1/2+x,1/2+y,z
1/2-x,1/2-y,1/2+z
1/2+x,1/2-y,-z
1/2-x,1/2+y,1/2-z
1/2-x,1/2-y,-z
1/2+x,1/2+y,1/2-z
1/2-x,1/2+y,z
1/2+x,1/2-y,1/2+z
loop_
_atom_site_type_symbol
_atom_site_label
_atom_site_fract_x
_atom_site_fract_y
_atom_site_fract_z
Si Si1 0.561205 0.812797 0.421965
Si Si2 0.154779 0.421732 0.074667
Si Si3 0.937486 0.164469 0.923592
Si Si4 0.247084 0.672056 0.423422
Si Si5 0.650229 0.573900 0.421801
O O1 0.566978 0.789224 0.250000
O O2 0.500000 0.835373 0.461306
O O3 0.598519 0.881571 0.459510
O O4 0.580606 0.744030 0.518793
O O5 0.165407 0.430542 0.250000
O O6 0.151453 0.500000 0.000000
O O7 0.203031 0.376491 0.004696
O O8 0.924236 0.160392 0.750000
O O9 0.000000 0.151339 0.958929
O O10 0.905314 0.100972 0.006491
O O11 0.231844 0.680561 0.250000
O O12 0.250000 0.750000 0.500000
O O13 0.304872 0.635237 0.444145
O O14 0.670223 0.500000 0.500000
O O15 0.639542 0.556467 0.250000
#
# Coordination Sequence:
#
# PCOD8260205 Si02
#       5
#    16  16  16  16  16
#     4   9  19  37  59  83 114 152 193 236 281 333
#     4  11  23  38  58  85 117 153 192 235 287 341
#     4  10  21  37  59  87 116 148 188 233 281 334
#     4  11  24  41  62  87 115 149 190 235 284 339
#     4  11  24  40  59  84 114 150 189 231 282 336
#
# _framework density 19.677140999999999
#
# number of rings (size 3 to 8) (size 9 to 14) (size 15 to 20)
#    0.000    1.600    0.000    4.200    0.000   13.200 
#    0.000    0.000    0.000    0.000    0.000    0.000 
#    0.000    0.000    0.000    0.000    0.000    0.000 
#
# Total GULP energy -496250.137913 kJ/mol
# GULP energy per Si atom -12406.253448 kJ/mol
# Density = 1.963235 g / cm^3
# Si number density = 19.677141 Si / 1000 Ang^3
#
#
#
# Elastic Constant Matrix: (Units=GPa)
#
#
# Indices 1 2 3 4 5 6 
#
# 1 80.0283 41.7267 58.0889 0.0000 0.0000 0.0000
# 2 41.7267 123.1233 74.3570 0.0000 0.0000 0.0000
# 3 58.0889 74.3570 138.6907 0.0000 0.0000 0.0000
# 4 0.0000 0.0000 0.0000 42.6284 0.0000 0.0000
# 5 0.0000 0.0000 0.0000 0.0000 31.4958 0.0000
# 6 0.0000 0.0000 0.0000 0.0000 0.0000 27.0567
#
#
#
# Elastic Compliance Matrix: (Units=1/GPa)
#
#
# Indices 1 2 3 4 5 6 
#
# 1 0.018398 -0.002339 -0.006452 0.000000 0.000000 0.000000
# 2 -0.002339 0.012308 -0.005619 0.000000 0.000000 0.000000
# 3 -0.006452 -0.005619 0.012925 0.000000 0.000000 0.000000
# 4 0.000000 0.000000 0.000000 0.023459 0.000000 0.000000
# 5 0.000000 0.000000 0.000000 0.000000 0.031750 0.000000
# 6 0.000000 0.000000 0.000000 0.000000 0.000000 0.036959
#
#
# Mechanical properties :
#
#
# Convention : Reuss Voigt Hill
#
# Bulk Modulus (GPa) = 67.51420 76.68750 72.10085
# Shear Modulus (GPa) = 29.48860 31.41417 30.45138
#
# Velocity S-wave (km/s) = 3.87540 3.99993 3.93816
# Velocity P-wave (km/s) = 7.37635 7.77111 7.57630
#
# Compressibility (1/GPa) = 0.01481170
#
# Stress axis : x y z
#
# Youngs Moduli (GPa) = 54.35322 81.24697 77.36741
#
# Poissons Ratio (x) = 0.19001 0.49918
# Poissons Ratio (y) = 0.12711 0.43475
# Poissons Ratio (z) = 0.35069 0.45655
#
# Static dielectric constant tensor:
#      x y z
#    x 3.440670 0.000000 0.000000 
#    y 0.000000 3.587290 0.000000 
#    z 0.000000 0.000000 3.805880 
# 
# 
# High freq. dielectric constant tensor:
#      x y z
#    x 1.777550 0.000000 0.000000 
#    y 0.000000 1.772370 0.000000 
#    z 0.000000 0.000000 1.781220 
# 
# From -- ./inp_files/12062.got.cif
#   From: 2010.03.12/outbox.cif.g09.slc.cpg/sg63_7_cif.got.tgz:12062.got - 2010.04.10 19:34:48.
