data_PCOD8260150
_publ_section_title
;
Structure prediction by ZEFSAII (Michael W. Deem and Ramdas Pophale) SiO2 
 PCOD8260150
Probable space group: C M C M
;
_chemical_formula_sum "Si O2"
_cell_formula_units_Z 64
_cell_length_a 10.458317
_cell_length_b 20.240385
_cell_length_c 13.324928
_cell_angle_alpha 90.000000
_cell_angle_beta 90.000000
_cell_angle_gamma 90.000000
_cell_volume 2820.625590
_symmetry_space_group_name_H-M "C M C M"
_symmetry_group_IT_number 63
_symmetry_cell_setting 'orthorhombic'
loop_
_space_group_symop_operation_xyz
x,y,z
-x,-y,1/2+z
x,-y,-z
-x,y,1/2-z
-x,-y,-z
x,y,1/2-z
-x,y,z
x,-y,1/2+z
1/2+x,1/2+y,z
1/2-x,1/2-y,1/2+z
1/2+x,1/2-y,-z
1/2-x,1/2+y,1/2-z
1/2-x,1/2-y,-z
1/2+x,1/2+y,1/2-z
1/2-x,1/2+y,z
1/2+x,1/2-y,1/2+z
loop_
_atom_site_type_symbol
_atom_site_label
_atom_site_fract_x
_atom_site_fract_y
_atom_site_fract_z
Si Si1 0.854014 0.030604 0.631181
Si Si2 0.859945 0.431548 0.634074
Si Si3 0.140193 0.827359 0.429072
Si Si4 0.776393 0.200377 0.138310
O O1 0.850870 0.032925 0.750000
O O2 0.800834 0.100088 0.588198
O O3 0.000000 0.015410 0.594756
O O4 0.758142 0.974155 0.587655
O O5 0.866929 0.450850 0.750000
O O6 0.835751 0.353264 0.621699
O O7 0.000000 0.447125 0.585085
O O8 0.124819 0.810985 0.547820
O O9 0.223562 0.774316 0.369662
O O10 0.000000 0.826508 0.380486
O O11 0.838499 0.191431 0.250000
#
# Coordination Sequence:
#
# PCOD8260150 Si02
#       4
#    16  16  16  16
#     4   9  18  34  57  84 114 149 189 233 280 333
#     4   9  18  34  57  83 112 149 189 230 281 338
#     4  10  21  37  58  83 110 146 191 235 284 341
#     4  10  21  37  57  82 112 146 187 236 286 339
#
# _framework density 22.690002
#
# number of rings (size 3 to 8) (size 9 to 14) (size 15 to 20)
#    0.000    2.500    0.000    1.500    0.000    5.000 
#    0.000   12.500    0.000    6.000    0.000    0.000 
#    0.000    0.000    0.000    0.000    0.000    0.000 
#
# Total GULP energy -396521.613492 kJ/mol
# GULP energy per Si atom -12391.300422 kJ/mol
# Density = 2.263836 g / cm^3
# Si number density = 22.690002 Si / 1000 Ang^3
#
#
#
# Elastic Constant Matrix: (Units=GPa)
#
#
# Indices 1 2 3 4 5 6 
#
# 1 115.8190 66.3258 -10.8863 0.0000 0.0000 0.0000
# 2 66.3258 156.3580 21.8199 0.0000 0.0000 0.0000
# 3 -10.8863 21.8199 75.0622 0.0000 0.0000 0.0000
# 4 0.0000 0.0000 0.0000 30.2640 0.0000 0.0000
# 5 0.0000 0.0000 0.0000 0.0000 1.8486 0.0000
# 6 0.0000 0.0000 0.0000 0.0000 0.0000 -3.3519
#
#
#
# Elastic Compliance Matrix: (Units=1/GPa)
#
#
# Indices 1 2 3 4 5 6 
#
# 1 0.012188 -0.005646 0.003409 0.000000 0.000000 0.000000
# 2 -0.005646 0.009281 -0.003517 0.000000 0.000000 0.000000
# 3 0.003409 -0.003517 0.014839 0.000000 0.000000 0.000000
# 4 0.000000 0.000000 0.000000 0.033043 0.000000 0.000000
# 5 0.000000 0.000000 0.000000 0.000000 0.540962 0.000000
# 6 0.000000 0.000000 0.000000 0.000000 0.000000 -0.298340
#
#
# Mechanical properties :
#
#
# Convention : Reuss Voigt Hill
#
# Bulk Modulus (GPa) = 40.32183 55.75089 48.03636
# Shear Modulus (GPa) = 15.07176 23.75079 19.41127
#
# Velocity S-wave (km/s) = 2.58009 3.23886 2.92806
# Velocity P-wave (km/s) = 5.16577 6.21378 5.71385
#
# Compressibility (1/GPa) = 0.02480046
#
# Stress axis : x y z
#
# Youngs Moduli (GPa) = 82.05071 107.74534 67.39029
#
# Poissons Ratio (x) = 0.60828 -0.22971
# Poissons Ratio (y) = 0.46322 0.23699
# Poissons Ratio (z) = -0.27968 0.37891
#
# Static dielectric constant tensor:
#      x y z
#    x 4.018950 0.000000 0.000000 
#    y 0.000000 4.130700 0.000000 
#    z 0.000000 0.000000 4.069820 
# 
# 
# High freq. dielectric constant tensor:
#      x y z
#    x 1.865120 0.000000 0.000000 
#    y 0.000000 1.902060 0.000000 
#    z 0.000000 0.000000 1.900490 
# 
# From -- ./inp_files/29119.got.cif
#   From: 2010.03.12/outbox.cif.g09.slc.cpg/sg63_15_cif.got.tgz:29119.got - 2010.04.10 19:34:48.
