data_PCOD8260438
_publ_section_title
;
Structure prediction by ZEFSAII (Michael W. Deem and Ramdas Pophale) SiO2 
 PCOD8260438
Probable space group: C M C M
;
_chemical_formula_sum "Si O2"
_cell_formula_units_Z 72
_cell_length_a 20.173495
_cell_length_b 8.430584
_cell_length_c 19.239746
_cell_angle_alpha 90.000000
_cell_angle_beta 90.000000
_cell_angle_gamma 90.000000
_cell_volume 3272.187183
_symmetry_space_group_name_H-M "C M C M"
_symmetry_group_IT_number 63
_symmetry_cell_setting 'orthorhombic'
loop_
_space_group_symop_operation_xyz
x,y,z
-x,-y,1/2+z
x,-y,-z
-x,y,1/2-z
-x,-y,-z
x,y,1/2-z
-x,y,z
x,-y,1/2+z
1/2+x,1/2+y,z
1/2-x,1/2-y,1/2+z
1/2+x,1/2-y,-z
1/2-x,1/2+y,1/2-z
1/2-x,1/2-y,-z
1/2+x,1/2+y,1/2-z
1/2-x,1/2+y,z
1/2+x,1/2-y,1/2+z
loop_
_atom_site_type_symbol
_atom_site_label
_atom_site_fract_x
_atom_site_fract_y
_atom_site_fract_z
Si Si1 0.314619 0.779595 0.615160
Si Si2 0.871536 0.500000 0.000000
Si Si3 0.925693 0.294622 0.380264
Si Si4 0.206166 0.408679 0.324600
Si Si5 0.424618 0.450425 0.169561
O O1 0.325388 0.883643 0.545844
O O2 0.251602 0.659943 0.612207
O O3 0.380886 0.688038 0.636590
O O4 0.292276 0.901661 0.674546
O O5 0.916545 0.620708 0.955074
O O6 0.870826 0.362062 0.328822
O O7 0.000000 0.333046 0.353028
O O8 0.915801 0.104244 0.380008
O O9 0.234798 0.354513 0.250000
O O10 0.404422 0.487685 0.250000
O O11 0.500000 0.389812 0.166784
#
# Coordination Sequence:
#
# PCOD8260438 Si02
#       5
#    16   8  16  16  16
#     4  11  24  41  63  92 128 167 211 262 315 378
#     4  10  25  44  64  92 129 172 216 256 307 378
#     4  10  22  40  64  93 128 168 209 257 309 372
#     4  11  22  38  64  93 123 162 208 264 324 376
#     4  10  21  39  64  94 127 165 212 266 322 374
#
# _framework density 22.003630999999999
#
# number of rings (size 3 to 8) (size 9 to 14) (size 15 to 20)
#    0.000    1.556    0.000    4.333    0.000   10.222 
#    0.000    2.222    0.000    0.000    0.000    0.000 
#    0.000    0.000    0.000    0.000    0.000    0.000 
#
# Total GULP energy -446018.884056 kJ/mol
# GULP energy per Si atom -12389.413446 kJ/mol
# Density = 2.195355 g / cm^3
# Si number density = 22.003631 Si / 1000 Ang^3
#
#
#
# Elastic Constant Matrix: (Units=GPa)
#
#
# Indices 1 2 3 4 5 6 
#
# 1 123.3467 65.9581 37.3831 0.0000 0.0000 0.0000
# 2 65.9581 149.0912 58.2020 0.0000 0.0000 0.0000
# 3 37.3831 58.2020 108.5020 0.0000 0.0000 0.0000
# 4 0.0000 0.0000 0.0000 38.8805 0.0000 0.0000
# 5 0.0000 0.0000 0.0000 0.0000 20.8870 0.0000
# 6 0.0000 0.0000 0.0000 0.0000 0.0000 43.7128
#
#
#
# Elastic Compliance Matrix: (Units=1/GPa)
#
#
# Indices 1 2 3 4 5 6 
#
# 1 0.010800 -0.004206 -0.001465 0.000000 0.000000 0.000000
# 2 -0.004206 0.010122 -0.003980 0.000000 0.000000 0.000000
# 3 -0.001465 -0.003980 0.011856 0.000000 0.000000 0.000000
# 4 0.000000 0.000000 0.000000 0.025720 0.000000 0.000000
# 5 0.000000 0.000000 0.000000 0.000000 0.047877 0.000000
# 6 0.000000 0.000000 0.000000 0.000000 0.000000 0.022877
#
#
# Mechanical properties :
#
#
# Convention : Reuss Voigt Hill
#
# Bulk Modulus (GPa) = 74.20767 78.22513 76.21640
# Shear Modulus (GPa) = 32.66979 35.32252 33.99616
#
# Velocity S-wave (km/s) = 3.85742 4.01097 3.93494
# Velocity P-wave (km/s) = 7.32380 7.55505 7.44032
#
# Compressibility (1/GPa) = 0.01347570
#
# Stress axis : x y z
#
# Youngs Moduli (GPa) = 92.58879 98.79458 84.34373
#
# Poissons Ratio (x) = 0.41556 0.12355
# Poissons Ratio (y) = 0.38945 0.33572
# Poissons Ratio (z) = 0.13563 0.39324
#
# Static dielectric constant tensor:
#      x y z
#    x 4.024400 0.000000 0.000000 
#    y 0.000000 4.153100 0.000000 
#    z 0.000000 0.000000 3.867210 
# 
# 
# High freq. dielectric constant tensor:
#      x y z
#    x 1.875190 0.000000 0.000000 
#    y 0.000000 1.879960 0.000000 
#    z 0.000000 0.000000 1.847940 
# 
# From -- ./inp_files/56330.got.cif
#   From: 2010.03.12/outbox.cif.g09.slc.cpg/sg63_29_cif.got.tgz:56330.got - 2010.04.10 19:34:48.
