data_PCOD8260977
_publ_section_title
;
Structure prediction by ZEFSAII (Michael W. Deem and Ramdas Pophale) SiO2 
 PCOD8260977
Probable space group: C M C M
;
_chemical_formula_sum "Si O2"
_cell_formula_units_Z 96
_cell_length_a 15.908365
_cell_length_b 21.682600
_cell_length_c 14.408477
_cell_angle_alpha 90.000000
_cell_angle_beta 90.000000
_cell_angle_gamma 90.000000
_cell_volume 4969.983907
_symmetry_space_group_name_H-M "C M C M"
_symmetry_group_IT_number 63
_symmetry_cell_setting 'orthorhombic'
loop_
_space_group_symop_operation_xyz
x,y,z
-x,-y,1/2+z
x,-y,-z
-x,y,1/2-z
-x,-y,-z
x,y,1/2-z
-x,y,z
x,-y,1/2+z
1/2+x,1/2+y,z
1/2-x,1/2-y,1/2+z
1/2+x,1/2-y,-z
1/2-x,1/2+y,1/2-z
1/2-x,1/2-y,-z
1/2+x,1/2+y,1/2-z
1/2-x,1/2+y,z
1/2+x,1/2-y,1/2+z
loop_
_atom_site_type_symbol
_atom_site_label
_atom_site_fract_x
_atom_site_fract_y
_atom_site_fract_z
Si Si1 0.097466 0.422060 0.140347
Si Si2 0.272426 0.976336 0.859621
Si Si3 0.311576 0.838491 0.647358
Si Si4 0.122071 0.811324 0.852949
Si Si5 0.092692 0.305243 0.473520
Si Si6 0.408645 0.551635 0.360324
O O1 0.108156 0.414678 0.250000
O O2 0.162222 0.473546 0.099633
O O3 0.128195 0.358140 0.094667
O O4 0.000000 0.439313 0.116873
O O5 0.269972 0.982693 0.750000
O O6 0.307312 0.909241 0.886638
O O7 0.175214 0.984333 0.897881
O O8 0.354444 0.834372 0.750000
O O9 0.221467 0.807767 0.654167
O O10 0.359167 0.798880 0.570416
O O11 0.083730 0.800205 0.750000
O O12 0.089602 0.759870 0.922520
O O13 0.093510 0.877359 0.893482
O O14 0.000000 0.325426 0.501845
O O15 0.402365 0.551799 0.250000
O O16 0.500000 0.522903 0.392097
#
# Coordination Sequence:
#
# PCOD8260977 Si02
#       6
#    16  16  16  16  16  16
#     4   9  18  31  46  68  99 131 162 196 234 280
#     4   8  15  29  46  64  91 127 163 199 239 279
#     4   9  19  34  49  66  91 127 167 200 233 279
#     4   9  17  31  50  71  97 125 155 196 244 290
#     4  11  21  30  46  73 101 128 157 192 239 291
#     4   8  13  23  44  73  98 119 149 194 244 288
#
# _framework density 19.315957000000001
#
# number of rings (size 3 to 8) (size 9 to 14) (size 15 to 20)
#    0.000    3.000    0.000    3.500    0.000    3.333 
#    0.000    3.333    0.000    0.000    0.000   14.000 
#    0.000   10.667    0.000    0.833    0.000    0.333 
#
# Total GULP energy -594645.645237 kJ/mol
# GULP energy per Si atom -12388.450942 kJ/mol
# Density = 1.927199 g / cm^3
# Si number density = 19.315957 Si / 1000 Ang^3
#
#
#
# Elastic Constant Matrix: (Units=GPa)
#
#
# Indices 1 2 3 4 5 6 
#
# 1 105.2342 38.3155 28.5262 0.0000 0.0000 0.0000
# 2 38.3155 53.0294 14.3627 0.0000 0.0000 0.0000
# 3 28.5262 14.3627 56.6838 0.0000 0.0000 0.0000
# 4 0.0000 0.0000 0.0000 15.9979 0.0000 0.0000
# 5 0.0000 0.0000 0.0000 0.0000 6.8489 0.0000
# 6 0.0000 0.0000 0.0000 0.0000 0.0000 21.3111
#
#
#
# Elastic Compliance Matrix: (Units=1/GPa)
#
#
# Indices 1 2 3 4 5 6 
#
# 1 0.014023 -0.008826 -0.004821 0.000000 0.000000 0.000000
# 2 -0.008826 0.025803 -0.002096 0.000000 0.000000 0.000000
# 3 -0.004821 -0.002096 0.020599 0.000000 0.000000 0.000000
# 4 0.000000 0.000000 0.000000 0.062508 0.000000 0.000000
# 5 0.000000 0.000000 0.000000 0.000000 0.146008 0.000000
# 6 0.000000 0.000000 0.000000 0.000000 0.000000 0.046924
#
#
# Mechanical properties :
#
#
# Convention : Reuss Voigt Hill
#
# Bulk Modulus (GPa) = 34.55641 41.92846 38.24243
# Shear Modulus (GPa) = 14.00571 17.74779 15.87675
#
# Velocity S-wave (km/s) = 2.69566 3.03448 2.87008
# Velocity P-wave (km/s) = 5.25526 5.83363 5.55198
#
# Compressibility (1/GPa) = 0.02893819
#
# Stress axis : x y z
#
# Youngs Moduli (GPa) = 71.31114 38.75588 48.54648
#
# Poissons Ratio (x) = 0.34208 0.23403
# Poissons Ratio (y) = 0.62942 0.10175
# Poissons Ratio (z) = 0.34377 0.08123
#
# Static dielectric constant tensor:
#      x y z
#    x 3.857830 0.000000 0.000000 
#    y 0.000000 3.352610 0.000000 
#    z 0.000000 0.000000 3.280530 
# 
# 
# High freq. dielectric constant tensor:
#      x y z
#    x 1.760310 0.000000 0.000000 
#    y 0.000000 1.725610 0.000000 
#    z 0.000000 0.000000 1.730950 
# 
# From -- ./inp_files/31946.got.cif
#   From: 2010.03.12/outbox.cif.g09.slc.cpg/sg63_16_cif.got.tgz:31946.got - 2010.04.10 19:34:48.
