data_PCOD8260721
_publ_section_title
;
Structure prediction by ZEFSAII (Michael W. Deem and Ramdas Pophale) SiO2 
 PCOD8260721
Probable space group: C M C M
;
_chemical_formula_sum "Si O2"
_cell_formula_units_Z 96
_cell_length_a 8.367895
_cell_length_b 20.371915
_cell_length_c 26.381898
_cell_angle_alpha 90.000000
_cell_angle_beta 90.000000
_cell_angle_gamma 90.000000
_cell_volume 4497.323357
_symmetry_space_group_name_H-M "C M C M"
_symmetry_group_IT_number 63
_symmetry_cell_setting 'orthorhombic'
loop_
_space_group_symop_operation_xyz
x,y,z
-x,-y,1/2+z
x,-y,-z
-x,y,1/2-z
-x,-y,-z
x,y,1/2-z
-x,y,z
x,-y,1/2+z
1/2+x,1/2+y,z
1/2-x,1/2-y,1/2+z
1/2+x,1/2-y,-z
1/2-x,1/2+y,1/2-z
1/2-x,1/2-y,-z
1/2+x,1/2+y,1/2-z
1/2-x,1/2+y,z
1/2+x,1/2-y,1/2+z
loop_
_atom_site_type_symbol
_atom_site_label
_atom_site_fract_x
_atom_site_fract_y
_atom_site_fract_z
Si Si1 0.684904 0.810961 0.469124
Si Si2 0.685065 0.695040 0.307979
Si Si3 0.314618 0.455557 0.191618
Si Si4 0.683961 0.567957 0.474761
Si Si5 0.314647 0.320883 0.141248
Si Si6 0.317781 0.925360 0.633638
O O1 0.500000 0.800383 0.455542
O O2 0.750000 0.750000 0.500000
O O3 0.704305 0.875706 0.502753
O O4 0.787009 0.816674 0.418379
O O5 0.743287 0.691419 0.250000
O O6 0.500000 0.676000 0.312394
O O7 0.710672 0.767920 0.328852
O O8 0.786814 0.644966 0.341328
O O9 0.277622 0.441153 0.250000
O O10 0.500000 0.471422 0.182537
O O11 0.259422 0.392490 0.159705
O O12 0.213690 0.518146 0.174513
O O13 0.737427 0.500000 0.500000
O O14 0.500000 0.583869 0.487404
O O15 0.704887 0.563512 0.414549
O O16 0.500000 0.308940 0.153824
O O17 0.500000 0.927886 0.615404
#
# Coordination Sequence:
#
# PCOD8260721 Si02
#       6
#    16  16  16  16  16  16
#     4  12  25  42  64  91 125 162 204 253 304 362
#     4  11  24  42  64  90 123 163 206 253 305 361
#     4  10  22  41  64  90 123 163 203 246 300 361
#     4  11  24  43  66  91 122 161 204 251 305 365
#     4  11  23  41  65  93 125 161 203 251 305 365
#     4  12  25  40  62  92 125 161 203 253 305 359
#
# _framework density 21.346029999999999
#
# number of rings (size 3 to 8) (size 9 to 14) (size 15 to 20)
#    0.000    0.833    0.000    7.500    0.000   11.000 
#    0.000    0.000    0.000    0.000    0.000    0.000 
#    0.000    0.000    0.000    0.000    0.000    0.000 
#
# Total GULP energy -595689.164833 kJ/mol
# GULP energy per Si atom -12410.190934 kJ/mol
# Density = 2.129745 g / cm^3
# Si number density = 21.346030 Si / 1000 Ang^3
#
#
#
# Elastic Constant Matrix: (Units=GPa)
#
#
# Indices 1 2 3 4 5 6 
#
# 1 63.1051 29.0798 12.2662 0.0000 0.0000 0.0000
# 2 29.0798 111.7791 23.9122 0.0000 0.0000 0.0000
# 3 12.2662 23.9122 108.2943 0.0000 0.0000 0.0000
# 4 0.0000 0.0000 0.0000 45.9286 0.0000 0.0000
# 5 0.0000 0.0000 0.0000 0.0000 24.9017 0.0000
# 6 0.0000 0.0000 0.0000 0.0000 0.0000 34.2747
#
#
#
# Elastic Compliance Matrix: (Units=1/GPa)
#
#
# Indices 1 2 3 4 5 6 
#
# 1 0.018121 -0.004487 -0.001062 0.000000 0.000000 0.000000
# 2 -0.004487 0.010501 -0.001810 0.000000 0.000000 0.000000
# 3 -0.001062 -0.001810 0.009754 0.000000 0.000000 0.000000
# 4 0.000000 0.000000 0.000000 0.021773 0.000000 0.000000
# 5 0.000000 0.000000 0.000000 0.000000 0.040158 0.000000
# 6 0.000000 0.000000 0.000000 0.000000 0.000000 0.029176
#
#
# Mechanical properties :
#
#
# Convention : Reuss Voigt Hill
#
# Bulk Modulus (GPa) = 42.27033 45.96610 44.11821
# Shear Modulus (GPa) = 32.87603 35.54904 34.21253
#
# Velocity S-wave (km/s) = 3.92873 4.08532 4.00779
# Velocity P-wave (km/s) = 6.35809 6.62070 6.49072
#
# Compressibility (1/GPa) = 0.02365725
#
# Stress axis : x y z
#
# Youngs Moduli (GPa) = 55.18563 95.23056 102.52094
#
# Poissons Ratio (x) = 0.42730 0.10885
# Poissons Ratio (y) = 0.24762 0.18561
# Poissons Ratio (z) = 0.05859 0.17241
#
# Static dielectric constant tensor:
#      x y z
#    x 3.744200 0.000000 0.000000 
#    y 0.000000 3.921750 0.000000 
#    z 0.000000 0.000000 3.924240 
# 
# 
# High freq. dielectric constant tensor:
#      x y z
#    x 1.838200 0.000000 0.000000 
#    y 0.000000 1.852180 0.000000 
#    z 0.000000 0.000000 1.851710 
# 
# From -- ./inp_files/67001.got.cif
#   From: 2010.03.12/outbox.cif.g09.slc.cpg/sg63_34_cif.got.tgz:67001.got - 2010.04.10 19:34:48.
