data_PCOD8260491
_publ_section_title
;
Structure prediction by ZEFSAII (Michael W. Deem and Ramdas Pophale) SiO2 
 PCOD8260491
Probable space group: C M C M
;
_chemical_formula_sum "Si O2"
_cell_formula_units_Z 84
_cell_length_a 11.948149
_cell_length_b 31.121313
_cell_length_c 11.307099
_cell_angle_alpha 90.000000
_cell_angle_beta 90.000000
_cell_angle_gamma 90.000000
_cell_volume 4204.455265
_symmetry_space_group_name_H-M "C M C M"
_symmetry_group_IT_number 63
_symmetry_cell_setting 'orthorhombic'
loop_
_space_group_symop_operation_xyz
x,y,z
-x,-y,1/2+z
x,-y,-z
-x,y,1/2-z
-x,-y,-z
x,y,1/2-z
-x,y,z
x,-y,1/2+z
1/2+x,1/2+y,z
1/2-x,1/2-y,1/2+z
1/2+x,1/2-y,-z
1/2-x,1/2+y,1/2-z
1/2-x,1/2-y,-z
1/2+x,1/2+y,1/2-z
1/2-x,1/2+y,z
1/2+x,1/2-y,1/2+z
loop_
_atom_site_type_symbol
_atom_site_label
_atom_site_fract_x
_atom_site_fract_y
_atom_site_fract_z
Si Si1 0.715246 0.738241 0.750000
Si Si2 0.500000 0.849105 0.516745
Si Si3 0.000000 0.560463 0.117415
Si Si4 0.723457 0.840493 0.378989
Si Si5 0.500000 0.795190 0.750000
Si Si6 0.632415 0.386593 0.944388
Si Si7 0.256762 0.972714 0.614836
Si Si8 0.371049 0.318030 0.750000
O O1 0.722762 0.707327 0.865851
O O2 0.602286 0.763505 0.750000
O O3 0.814924 0.772046 0.750000
O O4 0.500000 0.900440 0.526260
O O5 0.611075 0.834499 0.451647
O O6 0.500000 0.826626 0.641254
O O7 0.110436 0.532206 0.096440
O O8 0.000000 0.579189 0.250000
O O9 0.691822 0.859250 0.250000
O O10 0.812494 0.874495 0.430833
O O11 0.500000 0.394982 0.955647
O O12 0.691048 0.427939 0.888488
O O13 0.662442 0.345782 0.863824
O O14 0.235158 0.991800 0.750000
O O15 0.213079 0.000000 0.500000
O O16 0.500000 0.307564 0.750000
#
# Coordination Sequence:
#
# PCOD8260491 Si02
#       8
#     8   8   8  16   4  16  16   8
#     4  10  26  42  56  97 135 172 222 279 328 392
#     4  12  21  41  70  96 127 177 230 273 333 396
#     4  10  21  40  69 100 132 170 215 281 331 401
#     4  10  25  42  60  92 137 176 217 277 338 389
#     4  12  26  36  68  98 126 176 236 276 338 392
#     4  11  23  42  70  93 130 179 224 270 332 406
#     4  11  24  44  70 103 139 173 224 280 344 412
#     4  10  22  40  66  95 123 172 223 276 330 385
#
# _framework density 19.978808000000001
#
# number of rings (size 3 to 8) (size 9 to 14) (size 15 to 20)
#    0.571    0.762    3.333    1.714    2.667    4.571 
#    0.000    0.000    0.000    0.000    0.000    0.000 
#    0.000    0.000    0.000    0.000    0.000    0.000 
#
# Total GULP energy -520533.269705 kJ/mol
# GULP energy per Si atom -12393.649279 kJ/mol
# Density = 1.993334 g / cm^3
# Si number density = 19.978808 Si / 1000 Ang^3
#
#
#
# Elastic Constant Matrix: (Units=GPa)
#
#
# Indices 1 2 3 4 5 6 
#
# 1 90.8216 17.2812 38.3080 0.0000 0.0000 0.0000
# 2 17.2812 67.3122 37.6261 0.0000 0.0000 0.0000
# 3 38.3080 37.6261 139.6008 0.0000 0.0000 0.0000
# 4 0.0000 0.0000 0.0000 98.2974 0.0000 0.0000
# 5 0.0000 0.0000 0.0000 0.0000 27.6143 0.0000
# 6 0.0000 0.0000 0.0000 0.0000 0.0000 29.7812
#
#
#
# Elastic Compliance Matrix: (Units=1/GPa)
#
#
# Indices 1 2 3 4 5 6 
#
# 1 0.012584 -0.001531 -0.003041 0.000000 0.000000 0.000000
# 2 -0.001531 0.017678 -0.004344 0.000000 0.000000 0.000000
# 3 -0.003041 -0.004344 0.009169 0.000000 0.000000 0.000000
# 4 0.000000 0.000000 0.000000 0.010173 0.000000 0.000000
# 5 0.000000 0.000000 0.000000 0.000000 0.036213 0.000000
# 6 0.000000 0.000000 0.000000 0.000000 0.000000 0.033578
#
#
# Mechanical properties :
#
#
# Convention : Reuss Voigt Hill
#
# Bulk Modulus (GPa) = 46.29998 53.79613 50.04806
# Shear Modulus (GPa) = 34.61952 44.77321 39.69636
#
# Velocity S-wave (km/s) = 4.16722 4.73909 4.46233
# Velocity P-wave (km/s) = 6.81023 7.54522 7.18713
#
# Compressibility (1/GPa) = 0.02159828
#
# Stress axis : x y z
#
# Youngs Moduli (GPa) = 79.46307 56.56846 109.06784
#
# Poissons Ratio (x) = 0.08662 0.33163
# Poissons Ratio (y) = 0.12167 0.47384
# Poissons Ratio (z) = 0.24162 0.24576
#
# Static dielectric constant tensor:
#      x y z
#    x 3.601320 0.000000 0.000000 
#    y 0.000000 3.461560 0.000000 
#    z 0.000000 0.000000 3.791080 
# 
# 
# High freq. dielectric constant tensor:
#      x y z
#    x 1.787050 0.000000 0.000000 
#    y 0.000000 1.768960 0.000000 
#    z 0.000000 0.000000 1.788020 
# 
# From -- ./inp_files/18079.got.cif
#   From: 2010.03.12/outbox.cif.g09.slc.cpg/sg63_10_cif.got.tgz:18079.got - 2010.04.10 19:34:48.
