data_PCOD8260309
_publ_section_title
;
Structure prediction by ZEFSAII (Michael W. Deem and Ramdas Pophale) SiO2 
 PCOD8260309
Probable space group: C M C M
;
_chemical_formula_sum "Si O2"
_cell_formula_units_Z 112
_cell_length_a 14.892706
_cell_length_b 12.446513
_cell_length_c 28.517834
_cell_angle_alpha 90.000000
_cell_angle_beta 90.000000
_cell_angle_gamma 90.000000
_cell_volume 5286.130127
_symmetry_space_group_name_H-M "C M C M"
_symmetry_group_IT_number 63
_symmetry_cell_setting 'orthorhombic'
loop_
_space_group_symop_operation_xyz
x,y,z
-x,-y,1/2+z
x,-y,-z
-x,y,1/2-z
-x,-y,-z
x,y,1/2-z
-x,y,z
x,-y,1/2+z
1/2+x,1/2+y,z
1/2-x,1/2-y,1/2+z
1/2+x,1/2-y,-z
1/2-x,1/2+y,1/2-z
1/2-x,1/2-y,-z
1/2+x,1/2+y,1/2-z
1/2-x,1/2+y,z
1/2+x,1/2-y,1/2+z
loop_
_atom_site_type_symbol
_atom_site_label
_atom_site_fract_x
_atom_site_fract_y
_atom_site_fract_z
Si Si1 0.108595 0.752517 0.017869
Si Si2 0.334111 0.456231 0.696186
Si Si3 0.602479 0.311685 0.301058
Si Si4 0.897484 0.276860 0.303604
Si Si5 0.735110 0.099520 0.968075
Si Si6 0.314223 0.042305 0.865996
Si Si7 0.398660 0.167762 0.382518
O O1 0.163574 0.864349 0.017730
O O2 0.139408 0.696154 0.066379
O O3 0.000000 0.766259 0.011090
O O4 0.153357 0.683981 0.976011
O O5 0.303681 0.451508 0.750000
O O6 0.393742 0.562121 0.686126
O O7 0.388019 0.348374 0.682679
O O8 0.247604 0.463095 0.663986
O O9 0.649320 0.290645 0.250000
O O10 0.500000 0.276567 0.296590
O O11 0.650166 0.237812 0.341015
O O12 0.867145 0.297074 0.250000
O O13 0.838445 0.351332 0.337267
O O14 0.000000 0.310578 0.310628
O O15 0.736277 0.073909 0.913243
O O16 0.709277 0.000000 0.000000
O O17 0.396685 0.961332 0.875946
O O18 0.500000 0.207957 0.382454
#
# Coordination Sequence:
#
# PCOD8260309 Si02
#       7
#    16  16  16  16  16  16  16
#     4  10  23  43  67  93 125 165 212 266 323 385
#     4  10  22  37  60  89 122 164 208 256 314 372
#     4   9  18  34  57  85 118 158 207 258 307 368
#     4  10  23  43  64  90 128 172 215 258 311 376
#     4  11  24  43  66  95 127 165 212 265 324 386
#     4  12  24  38  62  92 129 165 206 261 317 379
#     4  10  21  38  60  88 121 165 209 254 313 380
#
# _framework density 21.187521
#
# number of rings (size 3 to 8) (size 9 to 14) (size 15 to 20)
#    0.000    1.714    1.429    2.143    4.000    4.571 
#    0.000    2.143    0.000    0.000    0.000    0.000 
#    0.000    0.000    0.000    0.000    0.000    0.000 
#
# Total GULP energy -694025.977221 kJ/mol
# GULP energy per Si atom -12393.321022 kJ/mol
# Density = 2.113930 g / cm^3
# Si number density = 21.187521 Si / 1000 Ang^3
#
#
#
# Elastic Constant Matrix: (Units=GPa)
#
#
# Indices 1 2 3 4 5 6 
#
# 1 82.8634 16.8464 23.8342 0.0000 0.0000 0.0000
# 2 16.8464 104.4210 38.6584 0.0000 0.0000 0.0000
# 3 23.8342 38.6584 88.7699 0.0000 0.0000 0.0000
# 4 0.0000 0.0000 0.0000 22.2662 0.0000 0.0000
# 5 0.0000 0.0000 0.0000 0.0000 11.8095 0.0000
# 6 0.0000 0.0000 0.0000 0.0000 0.0000 23.0649
#
#
#
# Elastic Compliance Matrix: (Units=1/GPa)
#
#
# Indices 1 2 3 4 5 6 
#
# 1 0.013160 -0.000972 -0.003110 0.000000 0.000000 0.000000
# 2 -0.000972 0.011489 -0.004743 0.000000 0.000000 0.000000
# 3 -0.003110 -0.004743 0.014165 0.000000 0.000000 0.000000
# 4 0.000000 0.000000 0.000000 0.044911 0.000000 0.000000
# 5 0.000000 0.000000 0.000000 0.000000 0.084678 0.000000
# 6 0.000000 0.000000 0.000000 0.000000 0.000000 0.043356
#
#
# Mechanical properties :
#
#
# Convention : Reuss Voigt Hill
#
# Bulk Modulus (GPa) = 47.24582 48.30359 47.77470
# Shear Modulus (GPa) = 21.14489 24.54247 22.84368
#
# Velocity S-wave (km/s) = 3.16252 3.40714 3.28711
# Velocity P-wave (km/s) = 5.97350 6.19078 6.08311
#
# Compressibility (1/GPa) = 0.02116589
#
# Stress axis : x y z
#
# Youngs Moduli (GPa) = 75.98655 87.03873 70.59416
#
# Poissons Ratio (x) = 0.08457 0.21957
# Poissons Ratio (y) = 0.07384 0.33479
# Poissons Ratio (z) = 0.23634 0.41278
#
# Static dielectric constant tensor:
#      x y z
#    x 3.637740 0.000000 0.000000 
#    y 0.000000 3.785450 0.000000 
#    z 0.000000 0.000000 4.083050 
# 
# 
# High freq. dielectric constant tensor:
#      x y z
#    x 1.816290 0.000000 0.000000 
#    y 0.000000 1.835140 0.000000 
#    z 0.000000 0.000000 1.835550 
# 
# From -- ./inp_files/73435.got.cif
#   From: 2010.03.12/outbox.cif.g09.slc.cpg/sg63_37_cif.got.tgz:73435.got - 2010.04.10 19:34:48.
