data_PCOD8260131
_publ_section_title
;
Structure prediction by ZEFSAII (Michael W. Deem and Ramdas Pophale) SiO2 
 PCOD8260131
Probable space group: C M C M
;
_chemical_formula_sum "Si O2"
_cell_formula_units_Z 80
_cell_length_a 8.809718
_cell_length_b 28.729081
_cell_length_c 16.820547
_cell_angle_alpha 90.000000
_cell_angle_beta 90.000000
_cell_angle_gamma 90.000000
_cell_volume 4257.198059
_symmetry_space_group_name_H-M "C M C M"
_symmetry_group_IT_number 63
_symmetry_cell_setting 'orthorhombic'
loop_
_space_group_symop_operation_xyz
x,y,z
-x,-y,1/2+z
x,-y,-z
-x,y,1/2-z
-x,-y,-z
x,y,1/2-z
-x,y,z
x,-y,1/2+z
1/2+x,1/2+y,z
1/2-x,1/2-y,1/2+z
1/2+x,1/2-y,-z
1/2-x,1/2+y,1/2-z
1/2-x,1/2-y,-z
1/2+x,1/2+y,1/2-z
1/2-x,1/2+y,z
1/2+x,1/2-y,1/2+z
loop_
_atom_site_type_symbol
_atom_site_label
_atom_site_fract_x
_atom_site_fract_y
_atom_site_fract_z
Si Si1 0.321759 0.894217 0.936476
Si Si2 0.679746 0.423575 0.400861
Si Si3 0.327806 0.315719 0.837895
Si Si4 0.821480 0.485171 0.659260
Si Si5 0.819830 0.133619 0.750000
Si Si6 0.819293 0.239080 0.750000
O O1 0.500000 0.892653 0.951232
O O2 0.267929 0.845873 0.899248
O O3 0.275826 0.935536 0.876866
O O4 0.238928 0.900240 0.019566
O O5 0.500000 0.424868 0.402453
O O6 0.739939 0.475948 0.393354
O O7 0.742251 0.393029 0.327435
O O8 0.326685 0.339661 0.750000
O O9 0.500000 0.309721 0.869006
O O10 0.247531 0.264920 0.828820
O O11 0.763411 0.487141 0.750000
O O12 0.000000 0.493626 0.654171
O O13 0.759061 0.186331 0.750000
O O14 0.000000 0.133632 0.750000
O O15 0.000000 0.242233 0.750000
#
# Coordination Sequence:
#
# PCOD8260131 Si02
#       6
#    16  16  16  16   8   8
#     4  11  22  36  56  84 116 153 190 228 276 330
#     4  11  22  38  57  81 114 149 189 235 281 331
#     4   9  19  35  56  86 116 141 178 229 280 331
#     4  10  21  37  56  81 113 150 190 229 270 329
#     4   9  20  39  60  81 106 145 188 231 284 337
#     4   9  17  35  62  83 106 143 184 227 280 341
#
# _framework density 18.791702999999998
#
# number of rings (size 3 to 8) (size 9 to 14) (size 15 to 20)
#    0.600    1.400    1.000    3.000    0.000    4.800 
#    0.000    5.000    0.000    0.000    0.000    0.000 
#    0.000    0.000    0.000    0.000    0.000    0.000 
#
# Total GULP energy -495984.588662 kJ/mol
# GULP energy per Si atom -12399.614717 kJ/mol
# Density = 1.874893 g / cm^3
# Si number density = 18.791703 Si / 1000 Ang^3
#
#
#
# Elastic Constant Matrix: (Units=GPa)
#
#
# Indices 1 2 3 4 5 6 
#
# 1 35.9052 36.0314 17.5009 0.0000 0.0000 0.0000
# 2 36.0314 95.9154 16.1135 0.0000 0.0000 0.0000
# 3 17.5009 16.1135 76.9036 0.0000 0.0000 0.0000
# 4 0.0000 0.0000 0.0000 10.4856 0.0000 0.0000
# 5 0.0000 0.0000 0.0000 0.0000 32.1677 0.0000
# 6 0.0000 0.0000 0.0000 0.0000 0.0000 22.6721
#
#
#
# Elastic Compliance Matrix: (Units=1/GPa)
#
#
# Indices 1 2 3 4 5 6 
#
# 1 0.048536 -0.016975 -0.007489 0.000000 0.000000 0.000000
# 2 -0.016975 0.016743 0.000355 0.000000 0.000000 0.000000
# 3 -0.007489 0.000355 0.014633 0.000000 0.000000 0.000000
# 4 0.000000 0.000000 0.000000 0.095369 0.000000 0.000000
# 5 0.000000 0.000000 0.000000 0.000000 0.031087 0.000000
# 6 0.000000 0.000000 0.000000 0.000000 0.000000 0.044107
#
#
# Mechanical properties :
#
#
# Convention : Reuss Voigt Hill
#
# Bulk Modulus (GPa) = 31.55096 38.66841 35.10969
# Shear Modulus (GPa) = 16.16782 22.33699 19.25240
#
# Velocity S-wave (km/s) = 2.93639 3.45144 3.20428
# Velocity P-wave (km/s) = 5.32192 6.04196 5.69333
#
# Compressibility (1/GPa) = 0.03169475
#
# Stress axis : x y z
#
# Youngs Moduli (GPa) = 20.60345 59.72673 68.33818
#
# Poissons Ratio (x) = 1.01384 0.51175
# Poissons Ratio (y) = 0.34974 -0.02425
# Poissons Ratio (z) = 0.15429 -0.02119
#
# Static dielectric constant tensor:
#      x y z
#    x 3.351220 0.000000 0.000000 
#    y 0.000000 3.431900 0.000000 
#    z 0.000000 0.000000 4.103340 
# 
# 
# High freq. dielectric constant tensor:
#      x y z
#    x 1.730780 0.000000 0.000000 
#    y 0.000000 1.726740 0.000000 
#    z 0.000000 0.000000 1.724200 
# 
# From -- ./inp_files/40592.got.cif
#   From: 2010.03.12/outbox.cif.g09.slc.cpg/sg63_21_cif.got.tgz:40592.got - 2010.04.10 19:34:48.
