data_PCOD8260467
_publ_section_title
;
Structure prediction by ZEFSAII (Michael W. Deem and Ramdas Pophale) SiO2 
 PCOD8260467
Probable space group: C M C M
;
_chemical_formula_sum "Si O2"
_cell_formula_units_Z 96
_cell_length_a 20.224872
_cell_length_b 8.619472
_cell_length_c 27.505766
_cell_angle_alpha 90.000000
_cell_angle_beta 90.000000
_cell_angle_gamma 90.000000
_cell_volume 4795.017416
_symmetry_space_group_name_H-M "C M C M"
_symmetry_group_IT_number 63
_symmetry_cell_setting 'orthorhombic'
loop_
_space_group_symop_operation_xyz
x,y,z
-x,-y,1/2+z
x,-y,-z
-x,y,1/2-z
-x,-y,-z
x,y,1/2-z
-x,y,z
x,-y,1/2+z
1/2+x,1/2+y,z
1/2-x,1/2-y,1/2+z
1/2+x,1/2-y,-z
1/2-x,1/2+y,1/2-z
1/2-x,1/2-y,-z
1/2+x,1/2+y,1/2-z
1/2-x,1/2+y,z
1/2+x,1/2-y,1/2+z
loop_
_atom_site_type_symbol
_atom_site_label
_atom_site_fract_x
_atom_site_fract_y
_atom_site_fract_z
Si Si1 0.574542 0.536976 0.858281
Si Si2 0.655904 0.445636 0.548493
Si Si3 0.073449 0.273707 0.195439
Si Si4 0.684931 0.713870 0.693340
Si Si5 0.311355 0.042080 0.653503
Si Si6 0.794158 0.410726 0.047254
O O1 0.500000 0.595988 0.869917
O O2 0.607651 0.466016 0.906297
O O3 0.572377 0.406052 0.817506
O O4 0.617225 0.673563 0.834529
O O5 0.615730 0.500000 0.500000
O O6 0.714878 0.573013 0.548178
O O7 0.684622 0.269893 0.547327
O O8 0.099979 0.289902 0.250000
O O9 0.122324 0.362944 0.160839
O O10 0.000000 0.344892 0.189881
O O11 0.683616 0.665304 0.750000
O O12 0.746397 0.641067 0.665014
O O13 0.692162 0.897246 0.689201
O O14 0.316405 0.000852 0.596457
O O15 0.824169 0.500000 0.000000
#
# Coordination Sequence:
#
# PCOD8260467 Si02
#       6
#    16  16  16  16  16  16
#     4  11  24  42  63  89 125 169 212 260 313 373
#     4  11  22  39  66  94 125 161 205 260 318 378
#     4  10  21  40  64  88 122 167 209 251 307 376
#     4  12  25  39  62  94 127 165 209 263 314 371
#     4  12  23  41  65  95 128 163 206 262 317 371
#     4  11  22  38  65  99 124 159 202 257 317 374
#
# _framework density 20.020780999999999
#
# number of rings (size 3 to 8) (size 9 to 14) (size 15 to 20)
#    0.000    0.833    3.333    6.000    2.333    2.000 
#    0.000    0.000    0.000    1.000    0.000    0.000 
#    0.000    0.000    0.000    0.000    0.000    0.000 
#
# Total GULP energy -595007.907210 kJ/mol
# GULP energy per Si atom -12395.998067 kJ/mol
# Density = 1.997521 g / cm^3
# Si number density = 20.020781 Si / 1000 Ang^3
#
#
#
# Elastic Constant Matrix: (Units=GPa)
#
#
# Indices 1 2 3 4 5 6 
#
# 1 100.3131 33.6926 37.8287 0.0000 0.0000 0.0000
# 2 33.6926 72.6589 10.6305 0.0000 0.0000 0.0000
# 3 37.8287 10.6305 131.8915 0.0000 0.0000 0.0000
# 4 0.0000 0.0000 0.0000 35.8123 0.0000 0.0000
# 5 0.0000 0.0000 0.0000 0.0000 -16.8802 0.0000
# 6 0.0000 0.0000 0.0000 0.0000 0.0000 12.3291
#
#
#
# Elastic Compliance Matrix: (Units=1/GPa)
#
#
# Indices 1 2 3 4 5 6 
#
# 1 0.013092 -0.005587 -0.003305 0.000000 0.000000 0.000000
# 2 -0.005587 0.016312 0.000288 0.000000 0.000000 0.000000
# 3 -0.003305 0.000288 0.008507 0.000000 0.000000 0.000000
# 4 0.000000 0.000000 0.000000 0.027923 0.000000 0.000000
# 5 0.000000 0.000000 0.000000 0.000000 -0.059241 0.000000
# 6 0.000000 0.000000 0.000000 0.000000 0.000000 0.081109
#
#
# Mechanical properties :
#
#
# Convention : Reuss Voigt Hill
#
# Bulk Modulus (GPa) = 48.30478 52.12967 50.21723
# Shear Modulus (GPa) = 44.71876 21.09968 32.90922
#
# Velocity S-wave (km/s) = 4.73124 3.24989 4.05872
# Velocity P-wave (km/s) = 7.35023 6.33851 6.86304
#
# Compressibility (1/GPa) = 0.02070188
#
# Stress axis : x y z
#
# Youngs Moduli (GPa) = 76.38523 61.30583 117.55591
#
# Poissons Ratio (x) = 0.34253 0.38847
# Poissons Ratio (y) = 0.42678 -0.03383
# Poissons Ratio (z) = 0.25242 -0.01764
#
# Static dielectric constant tensor:
#      x y z
#    x 3.660610 0.000000 0.000000 
#    y 0.000000 3.478800 0.000000 
#    z 0.000000 0.000000 4.117520 
# 
# 
# High freq. dielectric constant tensor:
#      x y z
#    x 1.765810 0.000000 0.000000 
#    y 0.000000 1.774850 0.000000 
#    z 0.000000 0.000000 1.807770 
# 
# From -- ./inp_files/70301.got.cif
#   From: 2010.03.12/outbox.cif.g09.slc.cpg/sg63_36_cif.got.tgz:70301.got - 2010.04.10 19:34:48.
