data_PCOD8260818
_publ_section_title
;
Structure prediction by ZEFSAII (Michael W. Deem and Ramdas Pophale) SiO2 
 PCOD8260818
Probable space group: C M C M
;
_chemical_formula_sum "Si O2"
_cell_formula_units_Z 112
_cell_length_a 22.138110
_cell_length_b 11.103841
_cell_length_c 22.310642
_cell_angle_alpha 90.000000
_cell_angle_beta 90.000000
_cell_angle_gamma 90.000000
_cell_volume 5484.358588
_symmetry_space_group_name_H-M "C M C M"
_symmetry_group_IT_number 63
_symmetry_cell_setting 'orthorhombic'
loop_
_space_group_symop_operation_xyz
x,y,z
-x,-y,1/2+z
x,-y,-z
-x,y,1/2-z
-x,-y,-z
x,y,1/2-z
-x,y,z
x,-y,1/2+z
1/2+x,1/2+y,z
1/2-x,1/2-y,1/2+z
1/2+x,1/2-y,-z
1/2-x,1/2+y,1/2-z
1/2-x,1/2-y,-z
1/2+x,1/2+y,1/2-z
1/2-x,1/2+y,z
1/2+x,1/2-y,1/2+z
loop_
_atom_site_type_symbol
_atom_site_label
_atom_site_fract_x
_atom_site_fract_y
_atom_site_fract_z
Si Si1 0.932734 0.359877 0.512266
Si Si2 0.364487 0.744398 0.402631
Si Si3 0.761162 0.123855 0.464886
Si Si4 0.068451 0.919285 0.818578
Si Si5 0.673781 0.397327 0.318004
Si Si6 0.190996 0.441794 0.182301
Si Si7 0.347145 0.156099 0.115848
O O1 0.933280 0.500000 0.500000
O O2 0.890480 0.297872 0.463631
O O3 0.909973 0.334246 0.579999
O O4 0.000000 0.305853 0.507917
O O5 0.318070 0.639357 0.420784
O O6 0.418636 0.693192 0.361906
O O7 0.328207 0.841480 0.364600
O O8 0.750000 0.250000 0.500000
O O9 0.700794 0.096114 0.428859
O O10 0.774766 0.000000 0.500000
O O11 0.076992 0.876815 0.750000
O O12 0.000000 0.965517 0.829529
O O13 0.116042 0.022705 0.834638
O O14 0.667349 0.350315 0.250000
O O15 0.737098 0.468347 0.325955
O O16 0.674167 0.285696 0.362711
O O17 0.178026 0.397494 0.250000
O O18 0.151391 0.562669 0.171375
#
# Coordination Sequence:
#
# PCOD8260818 Si02
#       7
#    16  16  16  16  16  16  16
#     4  11  24  41  61  87 124 170 214 260 319 382
#     4  12  22  40  67  94 128 164 213 267 324 383
#     4  12  25  39  63  96 132 169 210 262 326 396
#     4  10  23  43  65  90 126 172 219 265 318 383
#     4  10  23  40  63  95 129 168 208 258 322 386
#     4  11  23  39  63  98 129 163 208 267 330 388
#     4  12  22  40  63  89 128 165 211 259 318 385
#
# _framework density 20.421714000000001
#
# number of rings (size 3 to 8) (size 9 to 14) (size 15 to 20)
#    0.000    0.857    4.286    3.429    2.000    0.571 
#    0.000    0.000    0.000    4.714    0.000    0.000 
#    0.000    0.000    0.000    0.000    0.000    0.000 
#
# Total GULP energy -694374.355374 kJ/mol
# GULP energy per Si atom -12399.542060 kJ/mol
# Density = 2.037523 g / cm^3
# Si number density = 20.421714 Si / 1000 Ang^3
#
#
#
# Elastic Constant Matrix: (Units=GPa)
#
#
# Indices 1 2 3 4 5 6 
#
# 1 118.2882 30.6375 45.8546 0.0000 0.0000 0.0000
# 2 30.6375 89.8849 38.7742 0.0000 0.0000 0.0000
# 3 45.8546 38.7742 77.0709 0.0000 0.0000 0.0000
# 4 0.0000 0.0000 0.0000 38.1869 0.0000 0.0000
# 5 0.0000 0.0000 0.0000 0.0000 31.5020 0.0000
# 6 0.0000 0.0000 0.0000 0.0000 0.0000 39.3677
#
#
#
# Elastic Compliance Matrix: (Units=1/GPa)
#
#
# Indices 1 2 3 4 5 6 
#
# 1 0.011087 -0.001192 -0.005997 0.000000 0.000000 0.000000
# 2 -0.001192 0.014337 -0.006504 0.000000 0.000000 0.000000
# 3 -0.005997 -0.006504 0.019815 0.000000 0.000000 0.000000
# 4 0.000000 0.000000 0.000000 0.026187 0.000000 0.000000
# 5 0.000000 0.000000 0.000000 0.000000 0.031744 0.000000
# 6 0.000000 0.000000 0.000000 0.000000 0.000000 0.025402
#
#
# Mechanical properties :
#
#
# Convention : Reuss Voigt Hill
#
# Bulk Modulus (GPa) = 56.00957 57.30851 56.65904
# Shear Modulus (GPa) = 30.88154 33.14317 32.01236
#
# Velocity S-wave (km/s) = 3.89291 4.03294 3.96354
# Velocity P-wave (km/s) = 6.90596 7.05759 6.98219
#
# Compressibility (1/GPa) = 0.01785409
#
# Stress axis : x y z
#
# Youngs Moduli (GPa) = 90.19239 69.74832 50.46699
#
# Poissons Ratio (x) = 0.08316 0.30264
# Poissons Ratio (y) = 0.10754 0.32822
# Poissons Ratio (z) = 0.54086 0.45362
#
# Static dielectric constant tensor:
#      x y z
#    x 3.890340 0.000000 0.000000 
#    y 0.000000 3.528210 0.000000 
#    z 0.000000 0.000000 3.910460 
# 
# 
# High freq. dielectric constant tensor:
#      x y z
#    x 1.795890 0.000000 0.000000 
#    y 0.000000 1.790800 0.000000 
#    z 0.000000 0.000000 1.811700 
# 
# From -- ./inp_files/57645.got.cif
#   From: 2010.03.12/outbox.cif.g09.slc.cpg/sg63_29_cif.got.tgz:57645.got - 2010.04.10 19:34:48.
