data_PCOD8260844
_publ_section_title
;
Structure prediction by ZEFSAII (Michael W. Deem and Ramdas Pophale) SiO2 
 PCOD8260844
Probable space group: C M C M
;
_chemical_formula_sum "Si O2"
_cell_formula_units_Z 72
_cell_length_a 17.871524
_cell_length_b 23.643134
_cell_length_c 8.306662
_cell_angle_alpha 90.000000
_cell_angle_beta 90.000000
_cell_angle_gamma 90.000000
_cell_volume 3509.887298
_symmetry_space_group_name_H-M "C M C M"
_symmetry_group_IT_number 63
_symmetry_cell_setting 'orthorhombic'
loop_
_space_group_symop_operation_xyz
x,y,z
-x,-y,1/2+z
x,-y,-z
-x,y,1/2-z
-x,-y,-z
x,y,1/2-z
-x,y,z
x,-y,1/2+z
1/2+x,1/2+y,z
1/2-x,1/2-y,1/2+z
1/2+x,1/2-y,-z
1/2-x,1/2+y,1/2-z
1/2-x,1/2-y,-z
1/2+x,1/2+y,1/2-z
1/2-x,1/2+y,z
1/2+x,1/2-y,1/2+z
loop_
_atom_site_type_symbol
_atom_site_label
_atom_site_fract_x
_atom_site_fract_y
_atom_site_fract_z
Si Si1 0.166953 0.254618 0.935582
Si Si2 0.000000 0.436895 0.558169
Si Si3 0.291644 0.563256 0.441457
Si Si4 0.145109 0.624681 0.937431
Si Si5 0.082978 0.149029 0.061282
O O1 0.165579 0.238259 0.750000
O O2 0.250000 0.250000 0.000000
O O3 0.139481 0.318147 0.960562
O O4 0.112551 0.211723 0.026380
O O5 0.000000 0.500000 0.500000
O O6 0.927581 0.409838 0.480604
O O7 0.000000 0.431246 0.750000
O O8 0.306187 0.500000 0.500000
O O9 0.284122 0.565638 0.250000
O O10 0.216491 0.587268 0.518208
O O11 0.360532 0.601434 0.506457
O O12 0.147872 0.639945 0.750000
O O13 0.077246 0.141358 0.250000
O O14 0.000000 0.141216 0.984471
#
# Coordination Sequence:
#
# PCOD8260844 Si02
#       5
#    16   8  16  16  16
#     4  12  24  41  66  96 129 167 213 266 323 386
#     4  12  26  46  68  96 134 174 219 270 325 388
#     4  11  23  41  66  94 128 170 219 269 323 386
#     4  12  25  43  67  96 130 171 218 268 326 389
#     4  10  23  43  66  94 131 173 218 269 324 383
#
# _framework density 20.513477999999999
#
# number of rings (size 3 to 8) (size 9 to 14) (size 15 to 20)
#    0.000    0.667    2.222    6.333    1.556    1.778 
#    0.000    0.000    0.000    0.000    0.000    0.000 
#    0.000    0.000    0.000    0.000    0.000    0.000 
#
# Total GULP energy -446570.116529 kJ/mol
# GULP energy per Si atom -12404.725459 kJ/mol
# Density = 2.046679 g / cm^3
# Si number density = 20.513478 Si / 1000 Ang^3
#
#
#
# Elastic Constant Matrix: (Units=GPa)
#
#
# Indices 1 2 3 4 5 6 
#
# 1 191.7344 71.5028 14.3828 0.0000 0.0000 0.0000
# 2 71.5028 148.0389 -9.1107 0.0000 0.0000 0.0000
# 3 14.3828 -9.1107 53.8606 0.0000 0.0000 0.0000
# 4 0.0000 0.0000 0.0000 36.0255 0.0000 0.0000
# 5 0.0000 0.0000 0.0000 0.0000 -40.9280 0.0000
# 6 0.0000 0.0000 0.0000 0.0000 0.0000 72.2600
#
#
#
# Elastic Compliance Matrix: (Units=1/GPa)
#
#
# Indices 1 2 3 4 5 6 
#
# 1 0.006641 -0.003352 -0.002340 0.000000 0.000000 0.000000
# 2 -0.003352 0.008518 0.002336 0.000000 0.000000 0.000000
# 3 -0.002340 0.002336 0.019587 0.000000 0.000000 0.000000
# 4 0.000000 0.000000 0.000000 0.027758 0.000000 0.000000
# 5 0.000000 0.000000 0.000000 0.000000 -0.024433 0.000000
# 6 0.000000 0.000000 0.000000 0.000000 0.000000 0.013839
#
#
# Mechanical properties :
#
#
# Convention : Reuss Voigt Hill
#
# Bulk Modulus (GPa) = 35.67260 60.79819 48.23539
# Shear Modulus (GPa) = 73.56656 34.59542 54.08099
#
# Velocity S-wave (km/s) = 5.99503 4.11112 5.14012
# Velocity P-wave (km/s) = 8.08382 7.22756 7.66765
#
# Compressibility (1/GPa) = 0.02803272
#
# Stress axis : x y z
#
# Youngs Moduli (GPa) = 150.57916 117.40430 51.05551
#
# Poissons Ratio (x) = 0.39350 0.11949
# Poissons Ratio (y) = 0.50469 -0.11925
# Poissons Ratio (z) = 0.35241 -0.27423
#
# Static dielectric constant tensor:
#      x y z
#    x 4.107400 0.000000 0.000000 
#    y 0.000000 3.809020 0.000000 
#    z 0.000000 0.000000 3.767320 
# 
# 
# High freq. dielectric constant tensor:
#      x y z
#    x 1.817750 0.000000 0.000000 
#    y 0.000000 1.817370 0.000000 
#    z 0.000000 0.000000 1.808840 
# 
# From -- ./inp_files/6127.got.cif
#   From: 2010.03.12/outbox.cif.g09.slc.cpg/sg63_4_cif.got.tgz:6127.got - 2010.04.10 19:34:48.
