data_PCOD8260128
_publ_section_title
;
Structure prediction by ZEFSAII (Michael W. Deem and Ramdas Pophale) SiO2 
 PCOD8260128
Probable space group: C M C M
;
_chemical_formula_sum "Si O2"
_cell_formula_units_Z 96
_cell_length_a 28.141002
_cell_length_b 19.993959
_cell_length_c 8.903185
_cell_angle_alpha 90.000000
_cell_angle_beta 90.000000
_cell_angle_gamma 90.000000
_cell_volume 5009.377398
_symmetry_space_group_name_H-M "C M C M"
_symmetry_group_IT_number 63
_symmetry_cell_setting 'orthorhombic'
loop_
_space_group_symop_operation_xyz
x,y,z
-x,-y,1/2+z
x,-y,-z
-x,y,1/2-z
-x,-y,-z
x,y,1/2-z
-x,y,z
x,-y,1/2+z
1/2+x,1/2+y,z
1/2-x,1/2-y,1/2+z
1/2+x,1/2-y,-z
1/2-x,1/2+y,1/2-z
1/2-x,1/2-y,-z
1/2+x,1/2+y,1/2-z
1/2-x,1/2+y,z
1/2+x,1/2-y,1/2+z
loop_
_atom_site_type_symbol
_atom_site_label
_atom_site_fract_x
_atom_site_fract_y
_atom_site_fract_z
Si Si1 0.589758 0.311137 0.575146
Si Si2 0.196885 0.191052 0.077129
Si Si3 0.875739 0.572606 0.929231
Si Si4 0.554736 0.562871 0.915170
Si Si5 0.787150 0.658851 0.926774
Si Si6 0.944375 0.323713 0.573340
O O1 0.579296 0.297412 0.750000
O O2 0.643870 0.335160 0.549293
O O3 0.557609 0.370591 0.514191
O O4 0.578753 0.244496 0.484248
O O5 0.211232 0.189223 0.250000
O O6 0.198385 0.267260 0.016803
O O7 0.234580 0.143312 0.991648
O O8 0.878378 0.568698 0.750000
O O9 0.826623 0.606832 0.985392
O O10 0.878355 0.500000 0.000000
O O11 0.920530 0.614390 0.988228
O O12 0.578441 0.572498 0.750000
O O13 0.500000 0.545875 0.891620
O O14 0.579361 0.500000 0.000000
O O15 0.784827 0.654632 0.750000
O O16 0.935116 0.330170 0.750000
O O17 0.000000 0.324254 0.535001
#
# Coordination Sequence:
#
# PCOD8260128 Si02
#       6
#    16  16  16  16  16  16
#     4  11  21  36  58  87 120 154 191 237 290 344
#     4   9  18  33  55  84 114 143 182 228 277 335
#     4  11  23  41  62  86 117 154 197 243 297 356
#     4  10  21  37  56  80 111 149 193 236 283 343
#     4   9  18  35  56  82 112 144 184 229 277 335
#     4  11  24  40  59  86 117 152 199 249 296 349
#
# _framework density 19.164059000000002
#
# number of rings (size 3 to 8) (size 9 to 14) (size 15 to 20)
#    0.000    1.833    1.667    2.500    0.000    7.333 
#    0.000    0.833    0.000    2.000    0.000    0.000 
#    0.000    0.000    0.000    0.000    0.000    0.000 
#
# Total GULP energy -595202.491515 kJ/mol
# GULP energy per Si atom -12400.051907 kJ/mol
# Density = 1.912044 g / cm^3
# Si number density = 19.164059 Si / 1000 Ang^3
#
#
#
# Elastic Constant Matrix: (Units=GPa)
#
#
# Indices 1 2 3 4 5 6 
#
# 1 86.4898 29.4219 43.4697 0.0000 0.0000 0.0000
# 2 29.4219 97.5412 35.3810 0.0000 0.0000 0.0000
# 3 43.4697 35.3810 74.5754 0.0000 0.0000 0.0000
# 4 0.0000 0.0000 0.0000 31.9239 0.0000 0.0000
# 5 0.0000 0.0000 0.0000 0.0000 32.4171 0.0000
# 6 0.0000 0.0000 0.0000 0.0000 0.0000 20.0466
#
#
#
# Elastic Compliance Matrix: (Units=1/GPa)
#
#
# Indices 1 2 3 4 5 6 
#
# 1 0.016613 -0.001810 -0.008825 0.000000 0.000000 0.000000
# 2 -0.001810 0.012580 -0.004913 0.000000 0.000000 0.000000
# 3 -0.008825 -0.004913 0.020884 0.000000 0.000000 0.000000
# 4 0.000000 0.000000 0.000000 0.031325 0.000000 0.000000
# 5 0.000000 0.000000 0.000000 0.000000 0.030848 0.000000
# 6 0.000000 0.000000 0.000000 0.000000 0.000000 0.049884
#
#
# Mechanical properties :
#
#
# Convention : Reuss Voigt Hill
#
# Bulk Modulus (GPa) = 52.68452 52.79463 52.73958
# Shear Modulus (GPa) = 25.05533 26.89977 25.97755
#
# Velocity S-wave (km/s) = 3.61974 3.75061 3.68575
# Velocity P-wave (km/s) = 6.70977 6.80916 6.75965
#
# Compressibility (1/GPa) = 0.01898091
#
# Stress axis : x y z
#
# Youngs Moduli (GPa) = 60.19291 79.48936 47.88257
#
# Poissons Ratio (x) = 0.14388 0.42257
# Poissons Ratio (y) = 0.10895 0.23527
# Poissons Ratio (z) = 0.53121 0.39057
#
# Static dielectric constant tensor:
#      x y z
#    x 3.630130 0.000000 0.000000 
#    y 0.000000 3.431200 0.000000 
#    z 0.000000 0.000000 3.667870 
# 
# 
# High freq. dielectric constant tensor:
#      x y z
#    x 1.744930 0.000000 0.000000 
#    y 0.000000 1.730720 0.000000 
#    z 0.000000 0.000000 1.755290 
# 
# From -- ./inp_files/12415.got.cif
#   From: 2010.03.12/outbox.cif.g09.slc.cpg/sg63_7_cif.got.tgz:12415.got - 2010.04.10 19:34:48.
