data_PCOD8260734
_publ_section_title
;
Structure prediction by ZEFSAII (Michael W. Deem and Ramdas Pophale) SiO2 
 PCOD8260734
Probable space group: C M C M
;
_chemical_formula_sum "Si O2"
_cell_formula_units_Z 64
_cell_length_a 11.921320
_cell_length_b 30.713972
_cell_length_c 8.399282
_cell_angle_alpha 90.000000
_cell_angle_beta 90.000000
_cell_angle_gamma 90.000000
_cell_volume 3075.406248
_symmetry_space_group_name_H-M "C M C M"
_symmetry_group_IT_number 63
_symmetry_cell_setting 'orthorhombic'
loop_
_space_group_symop_operation_xyz
x,y,z
-x,-y,1/2+z
x,-y,-z
-x,y,1/2-z
-x,-y,-z
x,y,1/2-z
-x,y,z
x,-y,1/2+z
1/2+x,1/2+y,z
1/2-x,1/2-y,1/2+z
1/2+x,1/2-y,-z
1/2-x,1/2+y,1/2-z
1/2-x,1/2-y,-z
1/2+x,1/2+y,1/2-z
1/2-x,1/2+y,z
1/2+x,1/2-y,1/2+z
loop_
_atom_site_type_symbol
_atom_site_label
_atom_site_fract_x
_atom_site_fract_y
_atom_site_fract_z
Si Si1 0.271639 0.455755 0.936138
Si Si2 0.500000 0.666566 0.066208
Si Si3 0.000000 0.926681 0.066741
Si Si4 0.869715 0.623225 0.935742
Si Si5 0.767215 0.798242 0.560406
O O1 0.294618 0.458434 0.750000
O O2 0.211732 0.500000 0.000000
O O3 0.389354 0.454049 0.028992
O O4 0.194844 0.414147 0.969248
O O5 0.500000 0.678409 0.250000
O O6 0.612361 0.686732 0.990509
O O7 0.500000 0.615208 0.045132
O O8 0.000000 0.912222 0.250000
O O9 0.847136 0.616559 0.750000
O O10 0.000000 0.619815 0.978552
O O11 0.827973 0.670695 0.988451
O O12 0.761591 0.800828 0.750000
O O13 0.750000 0.750000 0.500000
#
# Coordination Sequence:
#
# PCOD8260734 Si02
#       5
#    16   8   8  16  16
#     4  12  25  43  67  96 131 169 215 265 320 383
#     4  10  22  41  65  94 130 172 210 265 324 377
#     4  12  23  39  66  98 133 170 212 263 323 381
#     4  11  25  45  67  94 130 169 214 267 324 384
#     4  11  24  42  66  96 132 170 216 265 321 383
#
# _framework density 20.81026
#
# number of rings (size 3 to 8) (size 9 to 14) (size 15 to 20)
#    0.000    0.750    2.500    5.250    1.750    3.500 
#    0.000    0.000    0.000    0.000    0.000    0.000 
#    0.000    0.000    0.000    0.000    0.000    0.000 
#
# Total GULP energy -396970.122889 kJ/mol
# GULP energy per Si atom -12405.316340 kJ/mol
# Density = 2.076289 g / cm^3
# Si number density = 20.810260 Si / 1000 Ang^3
#
#
#
# Elastic Constant Matrix: (Units=GPa)
#
#
# Indices 1 2 3 4 5 6 
#
# 1 114.1224 41.3554 43.2459 0.0000 0.0000 0.0000
# 2 41.3554 144.4059 13.7880 0.0000 0.0000 0.0000
# 3 43.2459 13.7880 72.5343 0.0000 0.0000 0.0000
# 4 0.0000 0.0000 0.0000 40.7284 0.0000 0.0000
# 5 0.0000 0.0000 0.0000 0.0000 30.6027 0.0000
# 6 0.0000 0.0000 0.0000 0.0000 0.0000 18.2228
#
#
#
# Elastic Compliance Matrix: (Units=1/GPa)
#
#
# Indices 1 2 3 4 5 6 
#
# 1 0.012408 -0.002900 -0.006846 0.000000 0.000000 0.000000
# 2 -0.002900 0.007731 0.000259 0.000000 0.000000 0.000000
# 3 -0.006846 0.000259 0.017819 0.000000 0.000000 0.000000
# 4 0.000000 0.000000 0.000000 0.024553 0.000000 0.000000
# 5 0.000000 0.000000 0.000000 0.000000 0.032677 0.000000
# 6 0.000000 0.000000 0.000000 0.000000 0.000000 0.054876
#
#
# Mechanical properties :
#
#
# Convention : Reuss Voigt Hill
#
# Bulk Modulus (GPa) = 52.67610 58.64902 55.66256
# Shear Modulus (GPa) = 28.51196 33.42235 30.96715
#
# Velocity S-wave (km/s) = 3.70549 4.01191 3.86174
# Velocity P-wave (km/s) = 6.60871 7.05014 6.83299
#
# Compressibility (1/GPa) = 0.01898394
#
# Stress axis : x y z
#
# Youngs Moduli (GPa) = 80.59515 129.35648 56.11915
#
# Poissons Ratio (x) = 0.37509 0.38422
# Poissons Ratio (y) = 0.23370 -0.01455
# Poissons Ratio (z) = 0.55179 -0.03354
#
# Static dielectric constant tensor:
#      x y z
#    x 3.983740 0.000000 0.000000 
#    y 0.000000 3.816860 0.000000 
#    z 0.000000 0.000000 4.107610 
# 
# 
# High freq. dielectric constant tensor:
#      x y z
#    x 1.818220 0.000000 0.000000 
#    y 0.000000 1.830220 0.000000 
#    z 0.000000 0.000000 1.822740 
# 
# From -- ./inp_files/3125.got.cif
#   From: 2010.03.12/outbox.cif.g09.slc.cpg/sg63_2_cif.got.tgz:3125.got - 2010.04.10 19:34:48.
