data_PCOD8260291
_publ_section_title
;
Structure prediction by ZEFSAII (Michael W. Deem and Ramdas Pophale) SiO2 
 PCOD8260291
Probable space group: C M C M
;
_chemical_formula_sum "Si O2"
_cell_formula_units_Z 80
_cell_length_a 18.999155
_cell_length_b 9.923224
_cell_length_c 22.420762
_cell_angle_alpha 90.000000
_cell_angle_beta 90.000000
_cell_angle_gamma 90.000000
_cell_volume 4227.050627
_symmetry_space_group_name_H-M "C M C M"
_symmetry_group_IT_number 63
_symmetry_cell_setting 'orthorhombic'
loop_
_space_group_symop_operation_xyz
x,y,z
-x,-y,1/2+z
x,-y,-z
-x,y,1/2-z
-x,-y,-z
x,y,1/2-z
-x,y,z
x,-y,1/2+z
1/2+x,1/2+y,z
1/2-x,1/2-y,1/2+z
1/2+x,1/2-y,-z
1/2-x,1/2+y,1/2-z
1/2-x,1/2-y,-z
1/2+x,1/2+y,1/2-z
1/2-x,1/2+y,z
1/2+x,1/2-y,1/2+z
loop_
_atom_site_type_symbol
_atom_site_label
_atom_site_fract_x
_atom_site_fract_y
_atom_site_fract_z
Si Si1 0.791868 0.251415 0.939579
Si Si2 0.582459 0.274693 0.631561
Si Si3 0.922466 0.342959 0.493599
Si Si4 0.161402 0.316841 0.250000
Si Si5 0.240693 0.950122 0.750000
Si Si6 0.300833 0.529614 0.122644
O O1 0.758537 0.358596 0.893757
O O2 0.786995 0.101789 0.915083
O O3 0.750000 0.250000 0.000000
O O4 0.872491 0.281943 0.955612
O O5 0.500000 0.299597 0.641701
O O6 0.599920 0.180977 0.574983
O O7 0.615276 0.209723 0.691039
O O8 0.620160 0.415092 0.613988
O O9 0.922582 0.500000 0.500000
O O10 0.000000 0.281118 0.505173
O O11 0.182289 0.476449 0.250000
O O12 0.230146 0.214349 0.250000
O O13 0.203814 0.009772 0.691729
#
# Coordination Sequence:
#
# PCOD8260291 Si02
#       6
#    16  16  16   8   8  16
#     4  12  23  36  60  88 120 154 195 240 296 361
#     4  10  21  38  60  85 116 155 202 246 293 355
#     4  10  22  38  57  84 120 157 194 243 301 358
#     4  10  21  38  60  88 115 154 196 244 299 350
#     4  10  22  38  58  86 116 144 196 242 292 340
#     4  11  23  39  59  89 117 156 196 247 298 347
#
# _framework density 18.925726999999998
#
# number of rings (size 3 to 8) (size 9 to 14) (size 15 to 20)
#    0.000    1.400    2.000    4.500    2.800    0.800 
#    0.000    2.000    0.000    0.000    0.000    2.800 
#    0.000    0.000    0.000    0.000    0.000    0.000 
#
# Total GULP energy -495672.570175 kJ/mol
# GULP energy per Si atom -12391.814254 kJ/mol
# Density = 1.888265 g / cm^3
# Si number density = 18.925727 Si / 1000 Ang^3
#
#
#
# Elastic Constant Matrix: (Units=GPa)
#
#
# Indices 1 2 3 4 5 6 
#
# 1 120.5581 55.5338 53.7878 0.0000 0.0000 0.0000
# 2 55.5338 102.1302 55.9552 0.0000 0.0000 0.0000
# 3 53.7878 55.9552 124.1148 0.0000 0.0000 0.0000
# 4 0.0000 0.0000 0.0000 30.4573 0.0000 0.0000
# 5 0.0000 0.0000 0.0000 0.0000 40.1896 0.0000
# 6 0.0000 0.0000 0.0000 0.0000 0.0000 11.8054
#
#
#
# Elastic Compliance Matrix: (Units=1/GPa)
#
#
# Indices 1 2 3 4 5 6 
#
# 1 0.011831 -0.004813 -0.002958 0.000000 0.000000 0.000000
# 2 -0.004813 0.014961 -0.004659 0.000000 0.000000 0.000000
# 3 -0.002958 -0.004659 0.011439 0.000000 0.000000 0.000000
# 4 0.000000 0.000000 0.000000 0.032833 0.000000 0.000000
# 5 0.000000 0.000000 0.000000 0.000000 0.024882 0.000000
# 6 0.000000 0.000000 0.000000 0.000000 0.000000 0.084707
#
#
# Mechanical properties :
#
#
# Convention : Reuss Voigt Hill
#
# Bulk Modulus (GPa) = 74.78077 75.26183 75.02130
# Shear Modulus (GPa) = 23.81287 28.59221 26.20254
#
# Velocity S-wave (km/s) = 3.55100 3.89106 3.72491
# Velocity P-wave (km/s) = 7.51075 7.74858 7.63059
#
# Compressibility (1/GPa) = 0.01337242
#
# Stress axis : x y z
#
# Youngs Moduli (GPa) = 84.52146 66.83958 87.41802
#
# Poissons Ratio (x) = 0.32170 0.25854
# Poissons Ratio (y) = 0.40680 0.40730
# Poissons Ratio (z) = 0.24997 0.31142
#
# Static dielectric constant tensor:
#      x y z
#    x 4.040390 0.000000 0.000000 
#    y 0.000000 3.415180 0.000000 
#    z 0.000000 0.000000 3.837210 
# 
# 
# High freq. dielectric constant tensor:
#      x y z
#    x 1.731810 0.000000 0.000000 
#    y 0.000000 1.728470 0.000000 
#    z 0.000000 0.000000 1.755910 
# 
# From -- ./inp_files/55325.got.cif
#   From: 2010.03.12/outbox.cif.g09.slc.cpg/sg63_28_cif.got.tgz:55325.got - 2010.04.10 19:34:48.
