data_PCOD8260745
_publ_section_title
;
Structure prediction by ZEFSAII (Michael W. Deem and Ramdas Pophale) SiO2 
 PCOD8260745
Probable space group: C M C M
;
_chemical_formula_sum "Si O2"
_cell_formula_units_Z 68
_cell_length_a 19.537843
_cell_length_b 10.375088
_cell_length_c 15.406099
_cell_angle_alpha 90.000000
_cell_angle_beta 90.000000
_cell_angle_gamma 90.000000
_cell_volume 3122.921652
_symmetry_space_group_name_H-M "C M C M"
_symmetry_group_IT_number 63
_symmetry_cell_setting 'orthorhombic'
loop_
_space_group_symop_operation_xyz
x,y,z
-x,-y,1/2+z
x,-y,-z
-x,y,1/2-z
-x,-y,-z
x,y,1/2-z
-x,y,z
x,-y,1/2+z
1/2+x,1/2+y,z
1/2-x,1/2-y,1/2+z
1/2+x,1/2-y,-z
1/2-x,1/2+y,1/2-z
1/2-x,1/2-y,-z
1/2+x,1/2+y,1/2-z
1/2-x,1/2+y,z
1/2+x,1/2-y,1/2+z
loop_
_atom_site_type_symbol
_atom_site_label
_atom_site_fract_x
_atom_site_fract_y
_atom_site_fract_z
Si Si1 0.641262 0.759963 0.750000
Si Si2 0.424938 0.027072 0.750000
Si Si3 0.176165 0.500000 0.500000
Si Si4 0.759378 0.697589 0.401411
Si Si5 0.616500 0.784468 0.396254
Si Si6 0.000000 0.083323 0.415614
Si Si7 0.000000 0.098980 0.750000
O O1 0.684971 0.731981 0.838347
O O2 0.569697 0.683233 0.750000
O O3 0.629585 0.913330 0.750000
O O4 0.500000 0.963368 0.750000
O O5 0.418888 0.119250 0.831227
O O6 0.221835 0.454880 0.583903
O O7 0.130961 0.373525 0.480473
O O8 0.750000 0.750000 0.500000
O O9 0.685433 0.718828 0.357080
O O10 0.567038 0.669696 0.420637
O O11 0.000000 0.000000 0.500000
O O12 0.000000 0.993048 0.332347
#
# Coordination Sequence:
#
# PCOD8260745 Si02
#       7
#     8   8   8  16  16   8   4
#     4  12  25  49  77 111 144 199 249 315 378 450
#     4  12  22  44  73 105 139 181 248 309 359 433
#     4  10  22  41  74 105 136 180 250 304 362 439
#     4  10  24  43  72 113 144 184 246 302 376 441
#     4  11  24  45  70 101 146 188 241 303 363 435
#     4  12  30  46  72 106 156 208 242 302 386 444
#     4  12  32  50  72 110 152 198 252 300 384 464
#
# _framework density 21.774481000000002
#
# number of rings (size 3 to 8) (size 9 to 14) (size 15 to 20)
#    0.000    0.941    4.118    1.412    8.235    2.353 
#    4.235    0.000    0.000    0.000    0.000    0.000 
#    0.000    0.000    0.000    0.000    0.000    0.000 
#
# Total GULP energy -421196.147399 kJ/mol
# GULP energy per Si atom -12388.121982 kJ/mol
# Density = 2.172492 g / cm^3
# Si number density = 21.774481 Si / 1000 Ang^3
#
#
#
# Elastic Constant Matrix: (Units=GPa)
#
#
# Indices 1 2 3 4 5 6 
#
# 1 177.8727 73.2037 57.0241 0.0000 0.0000 0.0000
# 2 73.2037 131.1102 58.8208 0.0000 0.0000 0.0000
# 3 57.0241 58.8208 127.3829 0.0000 0.0000 0.0000
# 4 0.0000 0.0000 0.0000 -292.8210 0.0000 0.0000
# 5 0.0000 0.0000 0.0000 0.0000 31.2305 0.0000
# 6 0.0000 0.0000 0.0000 0.0000 0.0000 33.1287
#
#
#
# Elastic Compliance Matrix: (Units=1/GPa)
#
#
# Indices 1 2 3 4 5 6 
#
# 1 0.007621 -0.003437 -0.001825 0.000000 0.000000 0.000000
# 2 -0.003437 0.011170 -0.003619 0.000000 0.000000 0.000000
# 3 -0.001825 -0.003619 0.010339 0.000000 0.000000 0.000000
# 4 0.000000 0.000000 0.000000 -0.003415 0.000000 0.000000
# 5 0.000000 0.000000 0.000000 0.000000 0.032020 0.000000
# 6 0.000000 0.000000 0.000000 0.000000 0.000000 0.030185
#
#
# Mechanical properties :
#
#
# Convention : Reuss Voigt Hill
#
# Bulk Modulus (GPa) = 87.96620 90.49589 89.23105
# Shear Modulus (GPa) = 45.67425 -29.20456 8.23484
#
# Velocity S-wave (km/s) = 4.58493 -3.66625 1.94681
# Velocity P-wave (km/s) = 8.27739 4.87123 6.79132
#
# Compressibility (1/GPa) = 0.01136800
#
# Stress axis : x y z
#
# Youngs Moduli (GPa) = 131.21004 89.52772 96.72523
#
# Poissons Ratio (x) = 0.30767 0.17651
# Poissons Ratio (y) = 0.45091 0.35008
# Poissons Ratio (z) = 0.23944 0.32403
#
# Static dielectric constant tensor:
#      x y z
#    x 7.902710 0.000000 0.000000 
#    y 0.000000 4.236950 0.000000 
#    z 0.000000 0.000000 3.867550 
# 
# 
# High freq. dielectric constant tensor:
#      x y z
#    x 1.868300 0.000000 0.000000 
#    y 0.000000 1.860500 0.000000 
#    z 0.000000 0.000000 1.854560 
# 
# From -- ./inp_files/46698.got.cif
#   From: 2010.03.12/outbox.cif.g09.slc.cpg/sg63_24_cif.got.tgz:46698.got - 2010.04.10 19:34:48.
