data_PCOD8260209
_publ_section_title
;
Structure prediction by ZEFSAII (Michael W. Deem and Ramdas Pophale) SiO2 
 PCOD8260209
Probable space group: C M C M
;
_chemical_formula_sum "Si O2"
_cell_formula_units_Z 112
_cell_length_a 22.815595
_cell_length_b 14.416273
_cell_length_c 14.981745
_cell_angle_alpha 90.000000
_cell_angle_beta 90.000000
_cell_angle_gamma 90.000000
_cell_volume 4927.733334
_symmetry_space_group_name_H-M "C M C M"
_symmetry_group_IT_number 63
_symmetry_cell_setting 'orthorhombic'
loop_
_space_group_symop_operation_xyz
x,y,z
-x,-y,1/2+z
x,-y,-z
-x,y,1/2-z
-x,-y,-z
x,y,1/2-z
-x,y,z
x,-y,1/2+z
1/2+x,1/2+y,z
1/2-x,1/2-y,1/2+z
1/2+x,1/2-y,-z
1/2-x,1/2+y,1/2-z
1/2-x,1/2-y,-z
1/2+x,1/2+y,1/2-z
1/2-x,1/2+y,z
1/2+x,1/2-y,1/2+z
loop_
_atom_site_type_symbol
_atom_site_label
_atom_site_fract_x
_atom_site_fract_y
_atom_site_fract_z
Si Si1 0.841937 0.106234 0.148835
Si Si2 0.933762 0.645490 0.846845
Si Si3 0.377219 0.970327 0.904648
Si Si4 0.749687 0.760915 0.395124
Si Si5 0.381911 0.231760 0.350521
Si Si6 0.930935 0.808763 0.974682
Si Si7 0.741989 0.974098 0.352892
O O1 0.866228 0.095723 0.250000
O O2 0.800139 0.196375 0.146684
O O3 0.805545 0.014433 0.119749
O O4 0.895462 0.111320 0.078015
O O5 0.928731 0.696121 0.750000
O O6 0.895717 0.552471 0.838419
O O7 0.000000 0.615881 0.867093
O O8 0.911929 0.713911 0.924611
O O9 0.306408 0.967181 0.907589
O O10 0.403446 0.872332 0.873295
O O11 0.403531 0.000000 0.000000
O O12 0.750000 0.750000 0.500000
O O13 0.812043 0.735612 0.353506
O O14 0.735101 0.866269 0.371984
O O15 0.402593 0.258220 0.250000
O O16 0.411276 0.302026 0.421858
O O17 0.000000 0.829508 0.967573
O O18 0.731048 0.996327 0.250000
#
# Coordination Sequence:
#
# PCOD8260209 Si02
#       7
#    16  16  16  16  16  16  16
#     4  11  23  41  67 101 136 175 223 278 344 404
#     4  10  21  37  59  87 122 168 220 275 334 393
#     4  12  22  37  59  91 132 175 218 271 328 406
#     4  12  23  42  66  99 139 179 216 276 337 402
#     4  12  24  41  62  91 134 177 222 276 339 407
#     4  11  24  43  65  94 129 173 228 281 336 400
#     4  11  24  39  63  99 135 173 221 272 336 410
#
# _framework density 22.728503
#
# number of rings (size 3 to 8) (size 9 to 14) (size 15 to 20)
#    0.000    0.714    4.286    4.714    0.000    2.000 
#    0.000    0.000    0.000    1.714    0.000    2.000 
#    0.000    0.000    0.000    0.000    0.000    0.000 
#
# Total GULP energy -694475.417498 kJ/mol
# GULP energy per Si atom -12401.346741 kJ/mol
# Density = 2.267677 g / cm^3
# Si number density = 22.728503 Si / 1000 Ang^3
#
#
#
# Elastic Constant Matrix: (Units=GPa)
#
#
# Indices 1 2 3 4 5 6 
#
# 1 79.9845 -4.6869 21.4452 0.0000 0.0000 0.0000
# 2 -4.6869 41.8507 1.5562 0.0000 0.0000 0.0000
# 3 21.4452 1.5562 145.0942 0.0000 0.0000 0.0000
# 4 0.0000 0.0000 0.0000 28.9166 0.0000 0.0000
# 5 0.0000 0.0000 0.0000 0.0000 25.9096 0.0000
# 6 0.0000 0.0000 0.0000 0.0000 0.0000 30.2455
#
#
#
# Elastic Compliance Matrix: (Units=1/GPa)
#
#
# Indices 1 2 3 4 5 6 
#
# 1 0.013117 0.001542 -0.001955 0.000000 0.000000 0.000000
# 2 0.001542 0.024085 -0.000486 0.000000 0.000000 0.000000
# 3 -0.001955 -0.000486 0.007186 0.000000 0.000000 0.000000
# 4 0.000000 0.000000 0.000000 0.034582 0.000000 0.000000
# 5 0.000000 0.000000 0.000000 0.000000 0.038596 0.000000
# 6 0.000000 0.000000 0.000000 0.000000 0.000000 0.033063
#
#
# Mechanical properties :
#
#
# Convention : Reuss Voigt Hill
#
# Bulk Modulus (GPa) = 23.48025 33.72870 28.60447
# Shear Modulus (GPa) = 30.00750 33.58867 31.79808
#
# Velocity S-wave (km/s) = 3.63748 3.84841 3.74443
# Velocity P-wave (km/s) = 5.29102 5.88380 5.59526
#
# Compressibility (1/GPa) = 0.04258899
#
# Stress axis : x y z
#
# Youngs Moduli (GPa) = 76.23691 41.51930 139.15403
#
# Poissons Ratio (x) = -0.06401 0.27208
# Poissons Ratio (y) = -0.11753 0.06765
# Poissons Ratio (z) = 0.14906 0.02019
#
# Static dielectric constant tensor:
#      x y z
#    x 4.013750 0.000000 0.000000 
#    y 0.000000 4.020760 0.000000 
#    z 0.000000 0.000000 4.077490 
# 
# 
# High freq. dielectric constant tensor:
#      x y z
#    x 1.881400 0.000000 0.000000 
#    y 0.000000 1.875160 0.000000 
#    z 0.000000 0.000000 1.913050 
# 
# From -- ./inp_files/36943.got.cif
#   From: 2010.03.12/outbox.cif.g09.slc.cpg/sg63_19_cif.got.tgz:36943.got - 2010.04.10 19:34:48.
