data_PCOD8260260
_publ_section_title
;
Structure prediction by ZEFSAII (Michael W. Deem and Ramdas Pophale) SiO2 
 PCOD8260260
Probable space group: C M C M
;
_chemical_formula_sum "Si O2"
_cell_formula_units_Z 96
_cell_length_a 27.898240
_cell_length_b 18.184905
_cell_length_c 9.358774
_cell_angle_alpha 90.000000
_cell_angle_beta 90.000000
_cell_angle_gamma 90.000000
_cell_volume 4747.957278
_symmetry_space_group_name_H-M "C M C M"
_symmetry_group_IT_number 63
_symmetry_cell_setting 'orthorhombic'
loop_
_space_group_symop_operation_xyz
x,y,z
-x,-y,1/2+z
x,-y,-z
-x,y,1/2-z
-x,-y,-z
x,y,1/2-z
-x,y,z
x,-y,1/2+z
1/2+x,1/2+y,z
1/2-x,1/2-y,1/2+z
1/2+x,1/2-y,-z
1/2-x,1/2+y,1/2-z
1/2-x,1/2-y,-z
1/2+x,1/2+y,1/2-z
1/2-x,1/2+y,z
1/2+x,1/2-y,1/2+z
loop_
_atom_site_type_symbol
_atom_site_label
_atom_site_fract_x
_atom_site_fract_y
_atom_site_fract_z
Si Si1 0.234132 0.575795 0.584035
Si Si2 0.798962 0.184675 0.409029
Si Si3 0.626774 0.439527 0.594663
Si Si4 0.054354 0.866510 0.406462
Si Si5 0.353194 0.828802 0.085898
Si Si6 0.446031 0.801226 0.918533
O O1 0.243934 0.500000 0.500000
O O2 0.249438 0.565259 0.750000
O O3 0.262655 0.645426 0.517872
O O4 0.177926 0.596536 0.572622
O O5 0.775623 0.195319 0.250000
O O6 0.845057 0.134859 0.392605
O O7 0.819283 0.261706 0.471790
O O8 0.655654 0.500000 0.500000
O O9 0.615802 0.473030 0.750000
O O10 0.577286 0.423580 0.515174
O O11 0.078993 0.871574 0.250000
O O12 0.058833 0.783490 0.463461
O O13 0.000000 0.890319 0.393441
O O14 0.366606 0.811953 0.250000
O O15 0.402649 0.842561 0.999660
O O16 0.439174 0.812434 0.750000
O O17 0.500000 0.829272 0.961981
#
# Coordination Sequence:
#
# PCOD8260260 Si02
#       6
#    16  16  16  16  16  16
#     4  11  24  40  60  85 117 153 190 233 285 341
#     4  10  21  38  58  83 113 145 190 236 279 334
#     4  11  22  34  50  72 103 143 185 231 278 329
#     4   9  18  33  51  72 101 137 180 228 277 331
#     4  10  21  38  60  89 118 148 189 236 283 336
#     4   9  18  33  56  87 118 148 184 229 282 338
#
# _framework density 20.219221000000001
#
# number of rings (size 3 to 8) (size 9 to 14) (size 15 to 20)
#    0.000    2.000    1.667    3.000    0.000    5.667 
#    0.000    1.667    0.000    0.500    0.000    0.000 
#    0.000    0.000    0.000    0.000    0.000    0.000 
#
# Total GULP energy -594840.746744 kJ/mol
# GULP energy per Si atom -12392.515557 kJ/mol
# Density = 2.017320 g / cm^3
# Si number density = 20.219221 Si / 1000 Ang^3
#
#
#
# Elastic Constant Matrix: (Units=GPa)
#
#
# Indices 1 2 3 4 5 6 
#
# 1 94.9604 19.9361 50.6450 0.0000 0.0000 0.0000
# 2 19.9361 29.1266 17.3663 0.0000 0.0000 0.0000
# 3 50.6450 17.3663 114.9775 0.0000 0.0000 0.0000
# 4 0.0000 0.0000 0.0000 22.7437 0.0000 0.0000
# 5 0.0000 0.0000 0.0000 0.0000 31.1588 0.0000
# 6 0.0000 0.0000 0.0000 0.0000 0.0000 -6.2604
#
#
#
# Elastic Compliance Matrix: (Units=1/GPa)
#
#
# Indices 1 2 3 4 5 6 
#
# 1 0.014935 -0.006924 -0.005533 0.000000 0.000000 0.000000
# 2 -0.006924 0.040940 -0.003134 0.000000 0.000000 0.000000
# 3 -0.005533 -0.003134 0.011608 0.000000 0.000000 0.000000
# 4 0.000000 0.000000 0.000000 0.043968 0.000000 0.000000
# 5 0.000000 0.000000 0.000000 0.000000 0.032094 0.000000
# 6 0.000000 0.000000 0.000000 0.000000 0.000000 -0.159735
#
#
# Mechanical properties :
#
#
# Convention : Reuss Voigt Hill
#
# Bulk Modulus (GPa) = 27.54635 46.10657 36.82646
# Shear Modulus (GPa) = 184.55422 19.60290 102.07856
#
# Velocity S-wave (km/s) = 9.56424 3.11709 7.11305
# Velocity P-wave (km/s) = 11.64559 5.98396 9.25817
#
# Compressibility (1/GPa) = 0.03630245
#
# Stress axis : x y z
#
# Youngs Moduli (GPa) = 66.95653 24.42574 86.14916
#
# Poissons Ratio (x) = 0.16912 0.47665
# Poissons Ratio (y) = 0.46358 0.26999
# Poissons Ratio (z) = 0.37046 0.07655
#
# Static dielectric constant tensor:
#      x y z
#    x 3.593640 0.000000 0.000000 
#    y 0.000000 3.492840 0.000000 
#    z 0.000000 0.000000 3.928260 
# 
# 
# High freq. dielectric constant tensor:
#      x y z
#    x 1.784780 0.000000 0.000000 
#    y 0.000000 1.766920 0.000000 
#    z 0.000000 0.000000 1.790770 
# 
# From -- ./inp_files/12323.got.cif
#   From: 2010.03.12/outbox.cif.g09.slc.cpg/sg63_7_cif.got.tgz:12323.got - 2010.04.10 19:34:48.
