data_PCOD8260802
_publ_section_title
;
Structure prediction by ZEFSAII (Michael W. Deem and Ramdas Pophale) SiO2 
 PCOD8260802
Probable space group: C M C M
;
_chemical_formula_sum "Si O2"
_cell_formula_units_Z 52
_cell_length_a 8.030436
_cell_length_b 21.225212
_cell_length_c 17.008937
_cell_angle_alpha 90.000000
_cell_angle_beta 90.000000
_cell_angle_gamma 90.000000
_cell_volume 2899.134303
_symmetry_space_group_name_H-M "C M C M"
_symmetry_group_IT_number 63
_symmetry_cell_setting 'orthorhombic'
loop_
_space_group_symop_operation_xyz
x,y,z
-x,-y,1/2+z
x,-y,-z
-x,y,1/2-z
-x,-y,-z
x,y,1/2-z
-x,y,z
x,-y,1/2+z
1/2+x,1/2+y,z
1/2-x,1/2-y,1/2+z
1/2+x,1/2-y,-z
1/2-x,1/2+y,1/2-z
1/2-x,1/2-y,-z
1/2+x,1/2+y,1/2-z
1/2-x,1/2+y,z
1/2+x,1/2-y,1/2+z
loop_
_atom_site_type_symbol
_atom_site_label
_atom_site_fract_x
_atom_site_fract_y
_atom_site_fract_z
Si Si1 0.000000 0.778907 0.250000
Si Si2 0.684756 0.072352 0.439728
Si Si3 0.000000 0.341646 0.662967
Si Si4 0.810965 0.058252 0.606034
Si Si5 0.314940 0.130634 0.750000
O O1 0.000000 0.734336 0.328389
O O2 0.829931 0.817612 0.250000
O O3 0.500000 0.045157 0.456715
O O4 0.666364 0.134084 0.383473
O O5 0.769832 0.090699 0.522202
O O6 0.789016 0.017211 0.397787
O O7 0.000000 0.372809 0.750000
O O8 0.695565 0.087080 0.673164
O O9 0.000000 0.073973 0.628680
O O10 0.500000 0.161882 0.750000
#
# Coordination Sequence:
#
# PCOD8260802 Si02
#       5
#     4  16   8  16   8
#     4  10  22  48  54  90 110 162 212 250 284 344
#     4   9  18  33  58  90 116 158 186 239 303 353
#     4   8  20  37  65  75 121 156 199 251 283 357
#     4  11  20  34  56  94 129 150 193 246 301 369
#     4  12  24  39  63  81 121 162 200 247 304 354
#
# _framework density 17.936388999999998
#
# number of rings (size 3 to 8) (size 9 to 14) (size 15 to 20)
#    1.385    0.615    1.538    5.538    2.154    0.000 
#    0.000    4.615    0.000    0.000    0.000    0.000 
#    0.000    0.000    0.000    0.000    0.000    0.000 
#
# Total GULP energy -322107.029819 kJ/mol
# GULP energy per Si atom -12388.731916 kJ/mol
# Density = 1.789556 g / cm^3
# Si number density = 17.936389 Si / 1000 Ang^3
#
#
#
# Elastic Constant Matrix: (Units=GPa)
#
#
# Indices 1 2 3 4 5 6 
#
# 1 113.0939 28.6623 29.1414 0.0000 0.0000 0.0000
# 2 28.6623 79.3865 62.3873 0.0000 0.0000 0.0000
# 3 29.1414 62.3873 110.8982 0.0000 0.0000 0.0000
# 4 0.0000 0.0000 0.0000 12.9279 0.0000 0.0000
# 5 0.0000 0.0000 0.0000 0.0000 -132.4458 0.0000
# 6 0.0000 0.0000 0.0000 0.0000 0.0000 26.4787
#
#
#
# Elastic Compliance Matrix: (Units=1/GPa)
#
#
# Indices 1 2 3 4 5 6 
#
# 1 0.009800 -0.002715 -0.001048 0.000000 0.000000 0.000000
# 2 -0.002715 0.023331 -0.012412 0.000000 0.000000 0.000000
# 3 -0.001048 -0.012412 0.016275 0.000000 0.000000 0.000000
# 4 0.000000 0.000000 0.000000 0.077352 0.000000 0.000000
# 5 0.000000 0.000000 0.000000 0.000000 -0.007550 0.000000
# 6 0.000000 0.000000 0.000000 0.000000 0.000000 0.037766
#
#
# Mechanical properties :
#
#
# Convention : Reuss Voigt Hill
#
# Bulk Modulus (GPa) = 58.62654 60.41784 59.52219
# Shear Modulus (GPa) = 25.63992 -6.39532 9.62230
#
# Velocity S-wave (km/s) = 3.78496 -1.89032 2.31869
# Velocity P-wave (km/s) = 7.20125 5.38454 6.35812
#
# Compressibility (1/GPa) = 0.01705712
#
# Stress axis : x y z
#
# Youngs Moduli (GPa) = 102.03785 42.86211 61.44394
#
# Poissons Ratio (x) = 0.11636 0.06440
# Poissons Ratio (y) = 0.27701 0.76262
# Poissons Ratio (z) = 0.10694 0.53199
#
# Static dielectric constant tensor:
#      x y z
#    x 3.205010 0.000000 0.000000 
#    y 0.000000 2.935000 0.000000 
#    z 0.000000 0.000000 3.338980 
# 
# 
# High freq. dielectric constant tensor:
#      x y z
#    x 1.691730 0.000000 0.000000 
#    y 0.000000 1.659170 0.000000 
#    z 0.000000 0.000000 1.702810 
# 
# From -- ./inp_files/39775.got.cif
#   From: 2010.03.12/outbox.cif.g09.slc.cpg/sg63_20_cif.got.tgz:39775.got - 2010.04.10 19:34:48.
