data_PCOD8260171
_publ_section_title
;
Structure prediction by ZEFSAII (Michael W. Deem and Ramdas Pophale) SiO2 
 PCOD8260171
Probable space group: C M C M
;
_chemical_formula_sum "Si O2"
_cell_formula_units_Z 96
_cell_length_a 24.212163
_cell_length_b 9.754336
_cell_length_c 21.527242
_cell_angle_alpha 90.000000
_cell_angle_beta 90.000000
_cell_angle_gamma 90.000000
_cell_volume 5084.165664
_symmetry_space_group_name_H-M "C M C M"
_symmetry_group_IT_number 63
_symmetry_cell_setting 'orthorhombic'
loop_
_space_group_symop_operation_xyz
x,y,z
-x,-y,1/2+z
x,-y,-z
-x,y,1/2-z
-x,-y,-z
x,y,1/2-z
-x,y,z
x,-y,1/2+z
1/2+x,1/2+y,z
1/2-x,1/2-y,1/2+z
1/2+x,1/2-y,-z
1/2-x,1/2+y,1/2-z
1/2-x,1/2-y,-z
1/2+x,1/2+y,1/2-z
1/2-x,1/2+y,z
1/2+x,1/2-y,1/2+z
loop_
_atom_site_type_symbol
_atom_site_label
_atom_site_fract_x
_atom_site_fract_y
_atom_site_fract_z
Si Si1 0.705542 0.996061 0.117894
Si Si2 0.500000 0.922081 0.605815
Si Si3 0.177816 0.796411 0.250000
Si Si4 0.739915 0.028939 0.250000
Si Si5 0.000000 0.678416 0.964772
Si Si6 0.713149 0.705045 0.056449
Si Si7 0.901493 0.149699 0.501787
Si Si8 0.887097 0.300482 0.628032
O O1 0.703296 0.842929 0.094071
O O2 0.706806 0.975199 0.191195
O O3 0.758601 0.083501 0.095731
O O4 0.650635 0.078631 0.099070
O O5 0.500000 0.885918 0.533246
O O6 0.446952 0.865375 0.643325
O O7 0.500000 0.086402 0.598072
O O8 0.232748 0.696827 0.250000
O O9 0.140526 0.768789 0.188763
O O10 0.198903 0.956101 0.250000
O O11 0.943092 0.760665 0.961174
O O12 0.750000 0.750000 0.000000
O O13 0.656302 0.644254 0.033279
O O14 0.894136 0.190293 0.573723
O O15 0.927752 0.000000 0.500000
#
# Coordination Sequence:
#
# PCOD8260171 Si02
#       8
#    16   8   8   8   8  16  16  16
#     4  11  22  38  54  82 113 151 190 239 282 354
#     4   9  18  35  60  83 106 147 185 235 289 334
#     4  10  22  39  58  84 112 151 194 242 274 346
#     4  10  22  38  58  76 112 152 190 230 282 334
#     4   9  19  36  56  81 113 145 188 228 283 352
#     4  12  23  33  55  82 118 147 187 233 298 343
#     4  11  22  35  55  83 116 153 186 237 296 352
#     4  10  21  37  58  82 113 144 197 237 287 340
#
# _framework density 18.882152999999999
#
# number of rings (size 3 to 8) (size 9 to 14) (size 15 to 20)
#    0.000    1.500    1.667    4.750    2.333    1.667 
#    0.000    0.000    0.000    0.000    0.000    1.167 
#    0.000    0.000    0.000    0.000    0.000    0.000 
#
# Total GULP energy -594814.254913 kJ/mol
# GULP energy per Si atom -12391.963644 kJ/mol
# Density = 1.883918 g / cm^3
# Si number density = 18.882153 Si / 1000 Ang^3
#
#
#
# Elastic Constant Matrix: (Units=GPa)
#
#
# Indices 1 2 3 4 5 6 
#
# 1 127.5835 33.5543 24.8344 0.0000 0.0000 0.0000
# 2 33.5543 92.3033 33.5009 0.0000 0.0000 0.0000
# 3 24.8344 33.5009 83.7178 0.0000 0.0000 0.0000
# 4 0.0000 0.0000 0.0000 23.7050 0.0000 0.0000
# 5 0.0000 0.0000 0.0000 0.0000 22.6279 0.0000
# 6 0.0000 0.0000 0.0000 0.0000 0.0000 40.6207
#
#
#
# Elastic Compliance Matrix: (Units=1/GPa)
#
#
# Indices 1 2 3 4 5 6 
#
# 1 0.008838 -0.002645 -0.001563 0.000000 0.000000 0.000000
# 2 -0.002645 0.013467 -0.004604 0.000000 0.000000 0.000000
# 3 -0.001563 -0.004604 0.014251 0.000000 0.000000 0.000000
# 4 0.000000 0.000000 0.000000 0.042185 0.000000 0.000000
# 5 0.000000 0.000000 0.000000 0.000000 0.044193 0.000000
# 6 0.000000 0.000000 0.000000 0.000000 0.000000 0.024618
#
#
# Mechanical properties :
#
#
# Convention : Reuss Voigt Hill
#
# Bulk Modulus (GPa) = 52.82564 54.15373 53.48968
# Shear Modulus (GPa) = 29.15667 31.50506 30.33087
#
# Velocity S-wave (km/s) = 3.93382 4.08917 4.01225
# Velocity P-wave (km/s) = 6.97642 7.14403 7.06072
#
# Compressibility (1/GPa) = 0.01893020
#
# Stress axis : x y z
#
# Youngs Moduli (GPa) = 113.14744 74.25806 70.17068
#
# Poissons Ratio (x) = 0.19645 0.10968
# Poissons Ratio (y) = 0.29933 0.32307
# Poissons Ratio (z) = 0.17686 0.34189
#
# Static dielectric constant tensor:
#      x y z
#    x 3.692690 0.000000 0.000000 
#    y 0.000000 3.687590 0.000000 
#    z 0.000000 0.000000 3.387420 
# 
# 
# High freq. dielectric constant tensor:
#      x y z
#    x 1.733390 0.000000 0.000000 
#    y 0.000000 1.741250 0.000000 
#    z 0.000000 0.000000 1.722910 
# 
# From -- ./inp_files/65051.got.cif
#   From: 2010.03.12/outbox.cif.g09.slc.cpg/sg63_33_cif.got.tgz:65051.got - 2010.04.10 19:34:48.
