data_PCOD8260957
_publ_section_title
;
Structure prediction by ZEFSAII (Michael W. Deem and Ramdas Pophale) SiO2 
 PCOD8260957
Probable space group: C M C M
;
_chemical_formula_sum "Si O2"
_cell_formula_units_Z 96
_cell_length_a 15.396859
_cell_length_b 13.662024
_cell_length_c 21.275967
_cell_angle_alpha 90.000000
_cell_angle_beta 90.000000
_cell_angle_gamma 90.000000
_cell_volume 4475.447682
_symmetry_space_group_name_H-M "C M C M"
_symmetry_group_IT_number 63
_symmetry_cell_setting 'orthorhombic'
loop_
_space_group_symop_operation_xyz
x,y,z
-x,-y,1/2+z
x,-y,-z
-x,y,1/2-z
-x,-y,-z
x,y,1/2-z
-x,y,z
x,-y,1/2+z
1/2+x,1/2+y,z
1/2-x,1/2-y,1/2+z
1/2+x,1/2-y,-z
1/2-x,1/2+y,1/2-z
1/2-x,1/2-y,-z
1/2+x,1/2+y,1/2-z
1/2-x,1/2+y,z
1/2+x,1/2-y,1/2+z
loop_
_atom_site_type_symbol
_atom_site_label
_atom_site_fract_x
_atom_site_fract_y
_atom_site_fract_z
Si Si1 0.733360 0.678321 0.822967
Si Si2 0.674950 0.131260 0.104498
Si Si3 0.904742 0.314640 0.480231
Si Si4 0.902596 0.933370 0.095742
Si Si5 0.100155 0.434349 0.365137
Si Si6 0.345039 0.616537 0.043778
O O1 0.713188 0.686181 0.750000
O O2 0.716780 0.786194 0.851177
O O3 0.663606 0.601869 0.851042
O O4 0.832465 0.639325 0.831134
O O5 0.748089 0.081542 0.060430
O O6 0.628578 0.047093 0.146087
O O7 0.607446 0.176044 0.054870
O O8 0.894675 0.414749 0.440587
O O9 0.845403 0.233445 0.445475
O O10 0.000000 0.270337 0.472222
O O11 0.000000 0.894848 0.109966
O O12 0.906280 0.052367 0.090025
O O13 0.866989 0.897383 0.028967
O O14 0.000000 0.419026 0.340957
#
# Coordination Sequence:
#
# PCOD8260957 Si02
#       6
#    16  16  16  16  16  16
#     4  12  27  47  67  92 132 183 233 282 332 399
#     4  12  23  40  66 100 137 175 220 274 339 411
#     4  11  21  36  64 103 139 172 216 275 345 417
#     4  11  23  40  65 101 137 173 219 273 340 414
#     4  11  25  45  70 102 137 179 227 286 347 404
#     4  11  20  36  67  99 135 168 213 271 347 407
#
# _framework density 21.450368999999998
#
# number of rings (size 3 to 8) (size 9 to 14) (size 15 to 20)
#    0.000    0.667    5.000    4.500    2.333    3.333 
#    0.000    0.000    0.000    0.000    0.000    0.000 
#    0.000    0.000    0.000    0.000    0.000    0.000 
#
# Total GULP energy -594773.741753 kJ/mol
# GULP energy per Si atom -12391.119620 kJ/mol
# Density = 2.140155 g / cm^3
# Si number density = 21.450369 Si / 1000 Ang^3
#
#
#
# Elastic Constant Matrix: (Units=GPa)
#
#
# Indices 1 2 3 4 5 6 
#
# 1 132.2111 33.2698 39.1992 0.0000 0.0000 0.0000
# 2 33.2698 125.3892 32.3011 0.0000 0.0000 0.0000
# 3 39.1992 32.3011 97.6964 0.0000 0.0000 0.0000
# 4 0.0000 0.0000 0.0000 17.2991 0.0000 0.0000
# 5 0.0000 0.0000 0.0000 0.0000 13.3724 0.0000
# 6 0.0000 0.0000 0.0000 0.0000 0.0000 29.9657
#
#
#
# Elastic Compliance Matrix: (Units=1/GPa)
#
#
# Indices 1 2 3 4 5 6 
#
# 1 0.008858 -0.001568 -0.003036 0.000000 0.000000 0.000000
# 2 -0.001568 0.008995 -0.002345 0.000000 0.000000 0.000000
# 3 -0.003036 -0.002345 0.012229 0.000000 0.000000 0.000000
# 4 0.000000 0.000000 0.000000 0.057806 0.000000 0.000000
# 5 0.000000 0.000000 0.000000 0.000000 0.074781 0.000000
# 6 0.000000 0.000000 0.000000 0.000000 0.000000 0.033372
#
#
# Mechanical properties :
#
#
# Convention : Reuss Voigt Hill
#
# Bulk Modulus (GPa) = 61.78582 62.75967 62.27275
# Shear Modulus (GPa) = 23.21965 28.82920 26.02442
#
# Velocity S-wave (km/s) = 3.29368 3.67003 3.48694
# Velocity P-wave (km/s) = 6.58263 6.87608 6.73095
#
# Compressibility (1/GPa) = 0.01618494
#
# Stress axis : x y z
#
# Youngs Moduli (GPa) = 112.88720 111.16849 81.77212
#
# Poissons Ratio (x) = 0.17436 0.24824
# Poissons Ratio (y) = 0.17705 0.19174
# Poissons Ratio (z) = 0.34270 0.26067
#
# Static dielectric constant tensor:
#      x y z
#    x 4.103500 0.000000 0.000000 
#    y 0.000000 4.185800 0.000000 
#    z 0.000000 0.000000 3.412020 
# 
# 
# High freq. dielectric constant tensor:
#      x y z
#    x 1.857930 0.000000 0.000000 
#    y 0.000000 1.853650 0.000000 
#    z 0.000000 0.000000 1.794440 
# 
# From -- ./inp_files/54191.got.cif
#   From: 2010.03.12/outbox.cif.g09.slc.cpg/sg63_28_cif.got.tgz:54191.got - 2010.04.10 19:34:48.
