data_PCOD8260426
_publ_section_title
;
Structure prediction by ZEFSAII (Michael W. Deem and Ramdas Pophale) SiO2 
 PCOD8260426
Probable space group: C M C M
;
_chemical_formula_sum "Si O2"
_cell_formula_units_Z 112
_cell_length_a 15.327263
_cell_length_b 21.908326
_cell_length_c 14.463270
_cell_angle_alpha 90.000000
_cell_angle_beta 90.000000
_cell_angle_gamma 90.000000
_cell_volume 4856.689042
_symmetry_space_group_name_H-M "C M C M"
_symmetry_group_IT_number 63
_symmetry_cell_setting 'orthorhombic'
loop_
_space_group_symop_operation_xyz
x,y,z
-x,-y,1/2+z
x,-y,-z
-x,y,1/2-z
-x,-y,-z
x,y,1/2-z
-x,y,z
x,-y,1/2+z
1/2+x,1/2+y,z
1/2-x,1/2-y,1/2+z
1/2+x,1/2-y,-z
1/2-x,1/2+y,1/2-z
1/2-x,1/2-y,-z
1/2+x,1/2+y,1/2-z
1/2-x,1/2+y,z
1/2+x,1/2-y,1/2+z
loop_
_atom_site_type_symbol
_atom_site_label
_atom_site_fract_x
_atom_site_fract_y
_atom_site_fract_z
Si Si1 0.099782 0.868578 0.146706
Si Si2 0.404830 0.491831 0.640912
Si Si3 0.347759 0.262314 0.023313
Si Si4 0.099452 0.702699 0.650476
Si Si5 0.901184 0.650094 0.356867
Si Si6 0.401728 0.930529 0.359938
Si Si7 0.217015 0.540149 0.360666
O O1 0.140855 0.860322 0.250000
O O2 0.108317 0.937900 0.113350
O O3 0.147450 0.828268 0.069673
O O4 0.000000 0.847630 0.150465
O O5 0.410188 0.485612 0.750000
O O6 0.500000 0.468595 0.600683
O O7 0.318329 0.456877 0.603464
O O8 0.389475 0.213609 0.091875
O O9 0.250000 0.250000 0.000000
O O10 0.393611 0.257641 0.922969
O O11 0.143221 0.721063 0.750000
O O12 0.135437 0.637159 0.612444
O O13 0.000000 0.688699 0.670906
O O14 0.881703 0.662761 0.250000
O O15 0.834618 0.599562 0.396892
O O16 0.000000 0.626179 0.371318
O O17 0.404584 0.935691 0.250000
O O18 0.500000 0.942247 0.399320
O O19 0.333378 0.980368 0.399911
O O20 0.216006 0.538168 0.250000
#
# Coordination Sequence:
#
# PCOD8260426 Si02
#       7
#    16  16  16  16  16  16  16
#     4   9  18  35  60  87 115 153 201 252 305 356
#     4   8  15  28  51  86 121 153 195 244 294 352
#     4  12  25  36  54  83 119 160 199 248 303 358
#     4   9  19  36  56  77 107 149 197 247 296 350
#     4  10  21  39  63  91 124 161 200 246 304 366
#     4   8  14  26  47  76 108 145 187 231 284 341
#     4   9  16  28  54  87 121 154 187 235 295 358
#
# _framework density 23.060979
#
# number of rings (size 3 to 8) (size 9 to 14) (size 15 to 20)
#    0.000    2.714    0.000    3.857    2.000    4.000 
#    0.000    0.714    0.000    5.143    0.000    4.000 
#    0.000    0.000    0.000    0.000    0.000    0.000 
#
# Total GULP energy -693852.379041 kJ/mol
# GULP energy per Si atom -12390.221054 kJ/mol
# Density = 2.300849 g / cm^3
# Si number density = 23.060979 Si / 1000 Ang^3
#
#
#
# Elastic Constant Matrix: (Units=GPa)
#
#
# Indices 1 2 3 4 5 6 
#
# 1 134.6187 27.7487 19.0238 0.0000 0.0000 0.0000
# 2 27.7487 36.4362 15.0138 0.0000 0.0000 0.0000
# 3 19.0238 15.0138 51.0459 0.0000 0.0000 0.0000
# 4 0.0000 0.0000 0.0000 11.6291 0.0000 0.0000
# 5 0.0000 0.0000 0.0000 0.0000 19.3840 0.0000
# 6 0.0000 0.0000 0.0000 0.0000 0.0000 32.8270
#
#
#
# Elastic Compliance Matrix: (Units=1/GPa)
#
#
# Indices 1 2 3 4 5 6 
#
# 1 0.008912 -0.006166 -0.001508 0.000000 0.000000 0.000000
# 2 -0.006166 0.035496 -0.008142 0.000000 0.000000 0.000000
# 3 -0.001508 -0.008142 0.022547 0.000000 0.000000 0.000000
# 4 0.000000 0.000000 0.000000 0.085991 0.000000 0.000000
# 5 0.000000 0.000000 0.000000 0.000000 0.051589 0.000000
# 6 0.000000 0.000000 0.000000 0.000000 0.000000 0.030463
#
#
# Mechanical properties :
#
#
# Convention : Reuss Voigt Hill
#
# Bulk Modulus (GPa) = 28.31010 38.40819 33.35914
# Shear Modulus (GPa) = 17.95938 23.45563 20.70751
#
# Velocity S-wave (km/s) = 2.79369 3.19268 2.99983
# Velocity P-wave (km/s) = 4.76541 5.50292 5.14739
#
# Compressibility (1/GPa) = 0.03532308
#
# Stress axis : x y z
#
# Youngs Moduli (GPa) = 112.20203 28.17196 44.35176
#
# Poissons Ratio (x) = 0.17371 0.06688
# Poissons Ratio (y) = 0.69185 0.36113
# Poissons Ratio (z) = 0.16919 0.22938
#
# Static dielectric constant tensor:
#      x y z
#    x -2.521480 0.000000 0.000000 
#    y 0.000000 4.284860 0.000000 
#    z 0.000000 0.000000 3.889100 
# 
# 
# High freq. dielectric constant tensor:
#      x y z
#    x 1.914260 0.000000 0.000000 
#    y 0.000000 1.883910 0.000000 
#    z 0.000000 0.000000 1.896970 
# 
# From -- ./inp_files/32314.got.cif
#   From: 2010.03.12/outbox.cif.g09.slc.cpg/sg63_17_cif.got.tgz:32314.got - 2010.04.10 19:34:48.
