data_PCOD8260963
_publ_section_title
;
Structure prediction by ZEFSAII (Michael W. Deem and Ramdas Pophale) SiO2 
 PCOD8260963
Probable space group: C M C M
;
_chemical_formula_sum "Si O2"
_cell_formula_units_Z 80
_cell_length_a 11.361187
_cell_length_b 19.066427
_cell_length_c 18.718957
_cell_angle_alpha 90.000000
_cell_angle_beta 90.000000
_cell_angle_gamma 90.000000
_cell_volume 4054.848849
_symmetry_space_group_name_H-M "C M C M"
_symmetry_group_IT_number 63
_symmetry_cell_setting 'orthorhombic'
loop_
_space_group_symop_operation_xyz
x,y,z
-x,-y,1/2+z
x,-y,-z
-x,y,1/2-z
-x,-y,-z
x,y,1/2-z
-x,y,z
x,-y,1/2+z
1/2+x,1/2+y,z
1/2-x,1/2-y,1/2+z
1/2+x,1/2-y,-z
1/2-x,1/2+y,1/2-z
1/2-x,1/2-y,-z
1/2+x,1/2+y,1/2-z
1/2-x,1/2+y,z
1/2+x,1/2-y,1/2+z
loop_
_atom_site_type_symbol
_atom_site_label
_atom_site_fract_x
_atom_site_fract_y
_atom_site_fract_z
Si Si1 0.000000 0.452559 0.169956
Si Si2 0.290975 0.982400 0.582971
Si Si3 0.360907 0.833910 0.549425
Si Si4 0.635142 0.574727 0.831894
Si Si5 0.500000 0.213209 0.829072
Si Si6 0.763633 0.702394 0.899568
O O1 0.113570 0.475162 0.127181
O O2 0.000000 0.484763 0.250000
O O3 0.000000 0.369874 0.173894
O O4 0.311052 0.899638 0.594435
O O5 0.301852 0.000000 0.500000
O O6 0.167888 0.009094 0.616533
O O7 0.500000 0.841589 0.536560
O O8 0.333772 0.763124 0.592616
O O9 0.291796 0.834111 0.474771
O O10 0.657580 0.552712 0.750000
O O11 0.500000 0.593369 0.846470
O O12 0.712176 0.643827 0.847146
O O13 0.500000 0.246100 0.750000
O O14 0.382340 0.238548 0.869416
#
# Coordination Sequence:
#
# PCOD8260963 Si02
#       6
#     8  16  16  16   8  16
#     4  11  21  35  65  97 125 157 201 260 315 370
#     4  12  22  39  65  95 124 159 206 262 310 368
#     4  11  23  40  62  94 127 158 205 259 313 369
#     4  11  24  43  64  89 125 168 211 255 310 379
#     4  11  20  37  65  91 120 161 213 253 296 368
#     4  11  22  40  63  92 123 163 204 256 311 370
#
# _framework density 19.729465999999999
#
# number of rings (size 3 to 8) (size 9 to 14) (size 15 to 20)
#    0.000    0.800    6.000    2.100    0.000    0.400 
#    1.800    4.000    0.000    0.000    0.000    0.000 
#    0.000    0.000    0.000    0.000    0.000    0.000 
#
# Total GULP energy -496122.027413 kJ/mol
# GULP energy per Si atom -12403.050685 kJ/mol
# Density = 1.968456 g / cm^3
# Si number density = 19.729466 Si / 1000 Ang^3
#
#
#
# Elastic Constant Matrix: (Units=GPa)
#
#
# Indices 1 2 3 4 5 6 
#
# 1 99.9943 30.5866 32.1002 0.0000 0.0000 0.0000
# 2 30.5866 83.7480 24.2409 0.0000 0.0000 0.0000
# 3 32.1002 24.2409 107.2530 0.0000 0.0000 0.0000
# 4 0.0000 0.0000 0.0000 16.4972 0.0000 0.0000
# 5 0.0000 0.0000 0.0000 0.0000 23.3776 0.0000
# 6 0.0000 0.0000 0.0000 0.0000 0.0000 26.3020
#
#
#
# Elastic Compliance Matrix: (Units=1/GPa)
#
#
# Indices 1 2 3 4 5 6 
#
# 1 0.011986 -0.003573 -0.002780 0.000000 0.000000 0.000000
# 2 -0.003573 0.013841 -0.002059 0.000000 0.000000 0.000000
# 3 -0.002780 -0.002059 0.010621 0.000000 0.000000 0.000000
# 4 0.000000 0.000000 0.000000 0.060616 0.000000 0.000000
# 5 0.000000 0.000000 0.000000 0.000000 0.042776 0.000000
# 6 0.000000 0.000000 0.000000 0.000000 0.000000 0.038020
#
#
# Mechanical properties :
#
#
# Convention : Reuss Voigt Hill
#
# Bulk Modulus (GPa) = 50.95542 51.65008 51.30275
# Shear Modulus (GPa) = 24.84772 26.83987 25.84379
#
# Velocity S-wave (km/s) = 3.55268 3.69235 3.62319
# Velocity P-wave (km/s) = 6.53543 6.66438 6.60022
#
# Compressibility (1/GPa) = 0.01962500
#
# Stress axis : x y z
#
# Youngs Moduli (GPa) = 83.43203 72.24670 94.15229
#
# Poissons Ratio (x) = 0.25813 0.26172
# Poissons Ratio (y) = 0.29809 0.19386
# Poissons Ratio (z) = 0.23192 0.14876
#
# Static dielectric constant tensor:
#      x y z
#    x 3.836920 0.000000 0.000000 
#    y 0.000000 3.578420 0.000000 
#    z 0.000000 0.000000 3.740590 
# 
# 
# High freq. dielectric constant tensor:
#      x y z
#    x 1.778010 0.000000 0.000000 
#    y 0.000000 1.755170 0.000000 
#    z 0.000000 0.000000 1.772060 
# 
# From -- ./inp_files/42188.got.cif
#   From: 2010.03.12/outbox.cif.g09.slc.cpg/sg63_22_cif.got.tgz:42188.got - 2010.04.10 19:34:48.
