data_PCOD8260215
_publ_section_title
;
Structure prediction by ZEFSAII (Michael W. Deem and Ramdas Pophale) SiO2 
 PCOD8260215
Probable space group: C M C M
;
_chemical_formula_sum "Si O2"
_cell_formula_units_Z 64
_cell_length_a 26.613328
_cell_length_b 7.363408
_cell_length_c 16.869058
_cell_angle_alpha 90.000000
_cell_angle_beta 90.000000
_cell_angle_gamma 90.000000
_cell_volume 3305.741447
_symmetry_space_group_name_H-M "C M C M"
_symmetry_group_IT_number 63
_symmetry_cell_setting 'orthorhombic'
loop_
_space_group_symop_operation_xyz
x,y,z
-x,-y,1/2+z
x,-y,-z
-x,y,1/2-z
-x,-y,-z
x,y,1/2-z
-x,y,z
x,-y,1/2+z
1/2+x,1/2+y,z
1/2-x,1/2-y,1/2+z
1/2+x,1/2-y,-z
1/2-x,1/2+y,1/2-z
1/2-x,1/2-y,-z
1/2+x,1/2+y,1/2-z
1/2-x,1/2+y,z
1/2+x,1/2-y,1/2+z
loop_
_atom_site_type_symbol
_atom_site_label
_atom_site_fract_x
_atom_site_fract_y
_atom_site_fract_z
Si Si1 0.942349 0.556338 0.159170
Si Si2 0.603577 0.608629 0.925575
Si Si3 0.807668 0.707650 0.987119
Si Si4 0.369029 0.729302 0.160073
O O1 0.931519 0.614006 0.250000
O O2 0.930177 0.722422 0.100649
O O3 0.909761 0.381132 0.135880
O O4 0.000000 0.501035 0.147153
O O5 0.607179 0.470328 0.851787
O O6 0.578790 0.500000 0.000000
O O7 0.659055 0.675173 0.951966
O O8 0.820749 0.754451 0.896251
O O9 0.820284 0.500000 0.000000
O O10 0.750000 0.750000 0.000000
O O11 0.350909 0.752482 0.250000
#
# Coordination Sequence:
#
# PCOD8260215 Si02
#       4
#    16  16  16  16
#     4  10  21  38  60  87 123 164 204 252 306 355
#     4  10  21  37  60  87 121 158 197 250 303 357
#     4  11  21  40  62  86 119 157 196 246 303 354
#     4  10  21  39  61  88 120 157 200 247 296 358
#
# _framework density 19.360254000000001
#
# number of rings (size 3 to 8) (size 9 to 14) (size 15 to 20)
#    0.000    1.750    2.500    3.000    0.000    1.500 
#    0.000   17.500    0.000    0.000    0.000    0.000 
#    0.000    0.000    0.000    0.000    0.000    0.000 
#
# Total GULP energy -396785.046365 kJ/mol
# GULP energy per Si atom -12399.532699 kJ/mol
# Density = 1.931619 g / cm^3
# Si number density = 19.360254 Si / 1000 Ang^3
#
#
#
# Elastic Constant Matrix: (Units=GPa)
#
#
# Indices 1 2 3 4 5 6 
#
# 1 105.6423 37.3751 53.1424 0.0000 0.0000 0.0000
# 2 37.3751 133.8266 50.8566 0.0000 0.0000 0.0000
# 3 53.1424 50.8566 96.3925 0.0000 0.0000 0.0000
# 4 0.0000 0.0000 0.0000 37.6757 0.0000 0.0000
# 5 0.0000 0.0000 0.0000 0.0000 25.1403 0.0000
# 6 0.0000 0.0000 0.0000 0.0000 0.0000 27.3362
#
#
#
# Elastic Compliance Matrix: (Units=1/GPa)
#
#
# Indices 1 2 3 4 5 6 
#
# 1 0.013240 -0.001155 -0.006690 0.000000 0.000000 0.000000
# 2 -0.001155 0.009447 -0.004347 0.000000 0.000000 0.000000
# 3 -0.006690 -0.004347 0.016356 0.000000 0.000000 0.000000
# 4 0.000000 0.000000 0.000000 0.026542 0.000000 0.000000
# 5 0.000000 0.000000 0.000000 0.000000 0.039777 0.000000
# 6 0.000000 0.000000 0.000000 0.000000 0.000000 0.036582
#
#
# Mechanical properties :
#
#
# Convention : Reuss Voigt Hill
#
# Bulk Modulus (GPa) = 68.22148 68.73441 68.47794
# Shear Modulus (GPa) = 29.20315 30.99627 30.09971
#
# Velocity S-wave (km/s) = 3.88804 4.00562 3.94727
# Velocity P-wave (km/s) = 7.44783 7.54806 7.49811
#
# Compressibility (1/GPa) = 0.01465814
#
# Stress axis : x y z
#
# Youngs Moduli (GPa) = 75.52940 105.85276 61.13967
#
# Poissons Ratio (x) = 0.12230 0.40901
# Poissons Ratio (y) = 0.08727 0.26579
# Poissons Ratio (z) = 0.50527 0.46017
#
# Static dielectric constant tensor:
#      x y z
#    x 3.362140 0.000000 0.000000 
#    y 0.000000 3.908040 0.000000 
#    z 0.000000 0.000000 3.763640 
# 
# 
# High freq. dielectric constant tensor:
#      x y z
#    x 1.732310 0.000000 0.000000 
#    y 0.000000 1.779130 0.000000 
#    z 0.000000 0.000000 1.754190 
# 
# From -- ./inp_files/48661.got.cif
#   From: 2010.03.12/outbox.cif.g09.slc.cpg/sg63_25_cif.got.tgz:48661.got - 2010.04.10 19:34:48.
