data_PCOD8260126
_publ_section_title
;
Structure prediction by ZEFSAII (Michael W. Deem and Ramdas Pophale) SiO2 
 PCOD8260126
Probable space group: C M C M
;
_chemical_formula_sum "Si O2"
_cell_formula_units_Z 96
_cell_length_a 25.176369
_cell_length_b 23.401248
_cell_length_c 8.817612
_cell_angle_alpha 90.000000
_cell_angle_beta 90.000000
_cell_angle_gamma 90.000000
_cell_volume 5194.970660
_symmetry_space_group_name_H-M "C M C M"
_symmetry_group_IT_number 63
_symmetry_cell_setting 'orthorhombic'
loop_
_space_group_symop_operation_xyz
x,y,z
-x,-y,1/2+z
x,-y,-z
-x,y,1/2-z
-x,-y,-z
x,y,1/2-z
-x,y,z
x,-y,1/2+z
1/2+x,1/2+y,z
1/2-x,1/2-y,1/2+z
1/2+x,1/2-y,-z
1/2-x,1/2+y,1/2-z
1/2-x,1/2-y,-z
1/2+x,1/2+y,1/2-z
1/2-x,1/2+y,z
1/2+x,1/2-y,1/2+z
loop_
_atom_site_type_symbol
_atom_site_label
_atom_site_fract_x
_atom_site_fract_y
_atom_site_fract_z
Si Si1 0.059537 0.558756 0.427910
Si Si2 0.743387 0.438409 0.925406
Si Si3 0.059788 0.059171 0.928250
Si Si4 0.654491 0.136242 0.424105
Si Si5 0.692076 0.248552 0.571704
Si Si6 0.845662 0.860700 0.429525
O O1 0.079834 0.500000 0.500000
O O2 0.061606 0.549475 0.250000
O O3 0.098173 0.610171 0.475540
O O4 0.000000 0.573953 0.483901
O O5 0.726725 0.443012 0.750000
O O6 0.801838 0.412839 0.944645
O O7 0.741641 0.500000 0.000000
O O8 0.703288 0.397345 0.011675
O O9 0.061679 0.050495 0.750000
O O10 0.098979 0.109835 0.978777
O O11 0.000000 0.074149 0.983591
O O12 0.079901 0.000000 0.000000
O O13 0.653631 0.157822 0.250000
O O14 0.664532 0.188756 0.535220
O O15 0.697959 0.257062 0.750000
O O16 0.750000 0.250000 0.500000
O O17 0.655355 0.298505 0.504737
O O18 0.840930 0.854304 0.250000
#
# Coordination Sequence:
#
# PCOD8260126 Si02
#       6
#    16  16  16  16  16  16
#     4   9  18  34  57  84 114 149 188 229 276 328
#     4  11  22  34  52  79 113 146 181 228 279 335
#     4   9  19  36  58  84 113 147 185 226 275 328
#     4  10  21  37  56  80 111 148 188 230 276 329
#     4  12  24  39  59  81 109 147 188 230 280 335
#     4  11  22  37  58  82 111 146 187 231 277 332
#
# _framework density 18.479412
#
# number of rings (size 3 to 8) (size 9 to 14) (size 15 to 20)
#    0.000    1.667    1.667    3.500    0.000    4.000 
#    0.000    0.833    0.000    5.000    0.000    0.000 
#    0.000    0.000    0.000    0.000    0.000    0.000 
#
# Total GULP energy -595366.914651 kJ/mol
# GULP energy per Si atom -12403.477389 kJ/mol
# Density = 1.843735 g / cm^3
# Si number density = 18.479412 Si / 1000 Ang^3
#
#
#
# Elastic Constant Matrix: (Units=GPa)
#
#
# Indices 1 2 3 4 5 6 
#
# 1 92.9270 36.4911 32.6481 0.0000 0.0000 0.0000
# 2 36.4911 93.1955 34.2468 0.0000 0.0000 0.0000
# 3 32.6481 34.2468 78.2397 0.0000 0.0000 0.0000
# 4 0.0000 0.0000 0.0000 35.3004 0.0000 0.0000
# 5 0.0000 0.0000 0.0000 0.0000 23.2335 0.0000
# 6 0.0000 0.0000 0.0000 0.0000 0.0000 30.4685
#
#
#
# Elastic Compliance Matrix: (Units=1/GPa)
#
#
# Indices 1 2 3 4 5 6 
#
# 1 0.013698 -0.003889 -0.004014 0.000000 0.000000 0.000000
# 2 -0.003889 0.013891 -0.004458 0.000000 0.000000 0.000000
# 3 -0.004014 -0.004458 0.016407 0.000000 0.000000 0.000000
# 4 0.000000 0.000000 0.000000 0.028328 0.000000 0.000000
# 5 0.000000 0.000000 0.000000 0.000000 0.043041 0.000000
# 6 0.000000 0.000000 0.000000 0.000000 0.000000 0.032821
#
#
# Mechanical properties :
#
#
# Convention : Reuss Voigt Hill
#
# Bulk Modulus (GPa) = 51.87755 52.34823 52.11289
# Shear Modulus (GPa) = 27.88116 28.53224 28.20670
#
# Velocity S-wave (km/s) = 3.88850 3.93364 3.91114
# Velocity P-wave (km/s) = 6.94944 7.00148 6.97551
#
# Compressibility (1/GPa) = 0.01927616
#
# Stress axis : x y z
#
# Youngs Moduli (GPa) = 73.00135 71.99029 60.94827
#
# Poissons Ratio (x) = 0.27994 0.24465
# Poissons Ratio (y) = 0.28387 0.27168
# Poissons Ratio (z) = 0.29303 0.32090
#
# Static dielectric constant tensor:
#      x y z
#    x 3.695700 0.000000 0.000000 
#    y 0.000000 3.501590 0.000000 
#    z 0.000000 0.000000 3.440500 
# 
# 
# High freq. dielectric constant tensor:
#      x y z
#    x 1.719240 0.000000 0.000000 
#    y 0.000000 1.718180 0.000000 
#    z 0.000000 0.000000 1.721280 
# 
# From -- ./inp_files/12396.got.cif
#   From: 2010.03.12/outbox.cif.g09.slc.cpg/sg63_7_cif.got.tgz:12396.got - 2010.04.10 19:34:48.
