data_PCOD8260078
_publ_section_title
;
Structure prediction by ZEFSAII (Michael W. Deem and Ramdas Pophale) SiO2 
 PCOD8260078
Probable space group: C M C M
;
_chemical_formula_sum "Si O2"
_cell_formula_units_Z 72
_cell_length_a 10.189467
_cell_length_b 14.466573
_cell_length_c 25.125245
_cell_angle_alpha 90.000000
_cell_angle_beta 90.000000
_cell_angle_gamma 90.000000
_cell_volume 3703.628653
_symmetry_space_group_name_H-M "C M C M"
_symmetry_group_IT_number 63
_symmetry_cell_setting 'orthorhombic'
loop_
_space_group_symop_operation_xyz
x,y,z
-x,-y,1/2+z
x,-y,-z
-x,y,1/2-z
-x,-y,-z
x,y,1/2-z
-x,y,z
x,-y,1/2+z
1/2+x,1/2+y,z
1/2-x,1/2-y,1/2+z
1/2+x,1/2-y,-z
1/2-x,1/2+y,1/2-z
1/2-x,1/2-y,-z
1/2+x,1/2+y,1/2-z
1/2-x,1/2+y,z
1/2+x,1/2-y,1/2+z
loop_
_atom_site_type_symbol
_atom_site_label
_atom_site_fract_x
_atom_site_fract_y
_atom_site_fract_z
Si Si1 0.764476 0.000000 0.500000
Si Si2 0.348977 0.124310 0.189613
Si Si3 0.142148 0.192141 0.470515
Si Si4 0.348233 0.759948 0.355377
Si Si5 0.347675 0.037714 0.886237
O O1 0.857084 0.913670 0.511624
O O2 0.675909 0.980359 0.448455
O O3 0.343974 0.087691 0.250000
O O4 0.500000 0.151164 0.174375
O O5 0.252882 0.213246 0.185857
O O6 0.291720 0.043630 0.151321
O O7 0.250000 0.250000 0.500000
O O8 0.163328 0.197653 0.407876
O O9 0.000000 0.234293 0.485646
O O10 0.500000 0.760466 0.334405
O O11 0.292565 0.862620 0.367867
O O12 0.500000 0.042388 0.876246
#
# Coordination Sequence:
#
# PCOD8260078 Si02
#       5
#     8  16  16  16  16
#     4  12  20  36  58  88 125 160 189 242 293 356
#     4  10  22  41  62  85 113 149 196 248 300 351
#     4  11  23  37  56  87 122 157 194 236 286 348
#     4  10  21  39  59  86 117 151 197 240 289 350
#     4  10  21  36  59  90 119 155 196 239 290 354
#
# _framework density 19.440394000000001
#
# number of rings (size 3 to 8) (size 9 to 14) (size 15 to 20)
#    0.000    1.556    4.444    0.667    0.000    3.111 
#    0.000    3.333    0.000    0.000    0.000    0.000 
#    0.000    0.000    0.000    0.000    0.000    0.000 
#
# Total GULP energy -446268.682459 kJ/mol
# GULP energy per Si atom -12396.352291 kJ/mol
# Density = 1.939615 g / cm^3
# Si number density = 19.440394 Si / 1000 Ang^3
#
#
#
# Elastic Constant Matrix: (Units=GPa)
#
#
# Indices 1 2 3 4 5 6 
#
# 1 78.9452 42.6406 27.5363 0.0000 0.0000 0.0000
# 2 42.6406 121.8055 47.8028 0.0000 0.0000 0.0000
# 3 27.5363 47.8028 89.4454 0.0000 0.0000 0.0000
# 4 0.0000 0.0000 0.0000 27.6714 0.0000 0.0000
# 5 0.0000 0.0000 0.0000 0.0000 27.9463 0.0000
# 6 0.0000 0.0000 0.0000 0.0000 0.0000 30.1944
#
#
#
# Elastic Compliance Matrix: (Units=1/GPa)
#
#
# Indices 1 2 3 4 5 6 
#
# 1 0.016034 -0.004651 -0.002450 0.000000 0.000000 0.000000
# 2 -0.004651 0.011738 -0.004841 0.000000 0.000000 0.000000
# 3 -0.002450 -0.004841 0.014522 0.000000 0.000000 0.000000
# 4 0.000000 0.000000 0.000000 0.036138 0.000000 0.000000
# 5 0.000000 0.000000 0.000000 0.000000 0.035783 0.000000
# 6 0.000000 0.000000 0.000000 0.000000 0.000000 0.033119
#
#
# Mechanical properties :
#
#
# Convention : Reuss Voigt Hill
#
# Bulk Modulus (GPa) = 54.32469 58.46171 56.39320
# Shear Modulus (GPa) = 28.19189 28.64350 28.41770
#
# Velocity S-wave (km/s) = 3.81224 3.84266 3.82748
# Velocity P-wave (km/s) = 6.88349 7.05872 6.97166
#
# Compressibility (1/GPa) = 0.01840784
#
# Stress axis : x y z
#
# Youngs Moduli (GPa) = 62.36725 85.19254 68.86246
#
# Poissons Ratio (x) = 0.39627 0.16873
# Poissons Ratio (y) = 0.29010 0.33338
# Poissons Ratio (z) = 0.15282 0.41244
#
# Static dielectric constant tensor:
#      x y z
#    x 3.462380 0.000000 0.000000 
#    y 0.000000 3.767130 0.000000 
#    z 0.000000 0.000000 3.467650 
# 
# 
# High freq. dielectric constant tensor:
#      x y z
#    x 1.745800 0.000000 0.000000 
#    y 0.000000 1.764700 0.000000 
#    z 0.000000 0.000000 1.750650 
# 
# From -- ./inp_files/66314.got.cif
#   From: 2010.03.12/outbox.cif.g09.slc.cpg/sg63_34_cif.got.tgz:66314.got - 2010.04.10 19:34:48.
