data_PCOD8260038
_publ_section_title
;
Structure prediction by ZEFSAII (Michael W. Deem and Ramdas Pophale) SiO2 
 PCOD8260038
Probable space group: C M C M
;
_chemical_formula_sum "Si O2"
_cell_formula_units_Z 112
_cell_length_a 15.672478
_cell_length_b 23.483505
_cell_length_c 13.877624
_cell_angle_alpha 90.000000
_cell_angle_beta 90.000000
_cell_angle_gamma 90.000000
_cell_volume 5107.586177
_symmetry_space_group_name_H-M "C M C M"
_symmetry_group_IT_number 63
_symmetry_cell_setting 'orthorhombic'
loop_
_space_group_symop_operation_xyz
x,y,z
-x,-y,1/2+z
x,-y,-z
-x,y,1/2-z
-x,-y,-z
x,y,1/2-z
-x,y,z
x,-y,1/2+z
1/2+x,1/2+y,z
1/2-x,1/2-y,1/2+z
1/2+x,1/2-y,-z
1/2-x,1/2+y,1/2-z
1/2-x,1/2-y,-z
1/2+x,1/2+y,1/2-z
1/2-x,1/2+y,z
1/2+x,1/2-y,1/2+z
loop_
_atom_site_type_symbol
_atom_site_label
_atom_site_fract_x
_atom_site_fract_y
_atom_site_fract_z
Si Si1 0.631546 0.028897 0.145377
Si Si2 0.735360 0.712010 0.357903
Si Si3 0.315072 0.484231 0.897479
Si Si4 0.401438 0.600199 0.640256
Si Si5 0.906927 0.126993 0.140820
Si Si6 0.906294 0.586570 0.545192
Si Si7 0.257116 0.166029 0.560205
O O1 0.590222 0.042962 0.250000
O O2 0.612394 0.078560 0.068826
O O3 0.732695 0.023462 0.168558
O O4 0.591130 0.971697 0.103945
O O5 0.773185 0.697405 0.250000
O O6 0.639455 0.687851 0.364519
O O7 0.737501 0.779437 0.371084
O O8 0.781140 0.681873 0.448939
O O9 0.379346 0.532937 0.861147
O O10 0.362871 0.424551 0.916267
O O11 0.274110 0.500000 0.000000
O O12 0.391290 0.621767 0.750000
O O13 0.500000 0.608539 0.605984
O O14 0.336730 0.637137 0.573047
O O15 0.911092 0.104739 0.250000
O O16 0.000000 0.136949 0.096395
O O17 0.832323 0.624335 0.594013
O O18 0.000000 0.615243 0.555772
#
# Coordination Sequence:
#
# PCOD8260038 Si02
#       7
#    16  16  16  16  16  16  16
#     4  11  21  38  61  87 129 172 206 255 317 380
#     4  10  23  42  65  89 119 166 219 267 324 387
#     4  12  21  34  57  91 130 170 210 255 315 382
#     4  11  23  39  63  96 132 169 208 256 320 395
#     4  10  21  36  55  85 123 163 211 262 311 375
#     4  11  24  41  61  93 127 162 218 268 312 380
#     4  11  23  43  67  91 125 168 212 270 328 381
#
# _framework density 21.928166999999998
#
# number of rings (size 3 to 8) (size 9 to 14) (size 15 to 20)
#    0.000    1.143    2.857    4.714    0.000    8.000 
#    0.000    2.143    0.000    0.857    0.000    0.000 
#    0.000    0.000    0.000    0.000    0.000    0.000 
#
# Total GULP energy -693993.558189 kJ/mol
# GULP energy per Si atom -12392.742111 kJ/mol
# Density = 2.187826 g / cm^3
# Si number density = 21.928167 Si / 1000 Ang^3
#
#
#
# Elastic Constant Matrix: (Units=GPa)
#
#
# Indices 1 2 3 4 5 6 
#
# 1 147.4476 51.2634 4.4315 0.0000 0.0000 0.0000
# 2 51.2634 105.8229 5.0102 0.0000 0.0000 0.0000
# 3 4.4315 5.0102 84.0488 0.0000 0.0000 0.0000
# 4 0.0000 0.0000 0.0000 23.9364 0.0000 0.0000
# 5 0.0000 0.0000 0.0000 0.0000 14.9965 0.0000
# 6 0.0000 0.0000 0.0000 0.0000 0.0000 19.3089
#
#
#
# Elastic Compliance Matrix: (Units=1/GPa)
#
#
# Indices 1 2 3 4 5 6 
#
# 1 0.008159 -0.003943 -0.000195 0.000000 0.000000 0.000000
# 2 -0.003943 0.011382 -0.000471 0.000000 0.000000 0.000000
# 3 -0.000195 -0.000471 0.011936 0.000000 0.000000 0.000000
# 4 0.000000 0.000000 0.000000 0.041777 0.000000 0.000000
# 5 0.000000 0.000000 0.000000 0.000000 0.066682 0.000000
# 6 0.000000 0.000000 0.000000 0.000000 0.000000 0.051790
#
#
# Mechanical properties :
#
#
# Convention : Reuss Voigt Hill
#
# Bulk Modulus (GPa) = 44.92459 50.96996 47.94728
# Shear Modulus (GPa) = 23.99649 30.08932 27.04290
#
# Velocity S-wave (km/s) = 3.31164 3.70831 3.51558
# Velocity P-wave (km/s) = 5.92910 6.45213 6.19614
#
# Compressibility (1/GPa) = 0.02225952
#
# Stress axis : x y z
#
# Youngs Moduli (GPa) = 122.56630 87.85660 83.77886
#
# Poissons Ratio (x) = 0.34643 0.01635
# Poissons Ratio (y) = 0.48329 0.03943
# Poissons Ratio (z) = 0.02392 0.04135
#
# Static dielectric constant tensor:
#      x y z
#    x 3.907660 0.000000 0.000000 
#    y 0.000000 3.736080 0.000000 
#    z 0.000000 0.000000 4.159720 
# 
# 
# High freq. dielectric constant tensor:
#      x y z
#    x 1.851260 0.000000 0.000000 
#    y 0.000000 1.837680 0.000000 
#    z 0.000000 0.000000 1.881810 
# 
# From -- ./inp_files/32320.got.cif
#   From: 2010.03.12/outbox.cif.g09.slc.cpg/sg63_17_cif.got.tgz:32320.got - 2010.04.10 19:34:48.
