data_PCOD8260156
_publ_section_title
;
Structure prediction by ZEFSAII (Michael W. Deem and Ramdas Pophale) SiO2 
 PCOD8260156
Probable space group: C M C M
;
_chemical_formula_sum "Si O2"
_cell_formula_units_Z 96
_cell_length_a 23.546873
_cell_length_b 21.284955
_cell_length_c 8.881056
_cell_angle_alpha 90.000000
_cell_angle_beta 90.000000
_cell_angle_gamma 90.000000
_cell_volume 4451.133155
_symmetry_space_group_name_H-M "C M C M"
_symmetry_group_IT_number 63
_symmetry_cell_setting 'orthorhombic'
loop_
_space_group_symop_operation_xyz
x,y,z
-x,-y,1/2+z
x,-y,-z
-x,y,1/2-z
-x,-y,-z
x,y,1/2-z
-x,y,z
x,-y,1/2+z
1/2+x,1/2+y,z
1/2-x,1/2-y,1/2+z
1/2+x,1/2-y,-z
1/2-x,1/2+y,1/2-z
1/2-x,1/2-y,-z
1/2+x,1/2+y,1/2-z
1/2-x,1/2+y,z
1/2+x,1/2-y,1/2+z
loop_
_atom_site_type_symbol
_atom_site_label
_atom_site_fract_x
_atom_site_fract_y
_atom_site_fract_z
Si Si1 0.633646 0.162620 0.423219
Si Si2 0.752412 0.319300 0.427250
Si Si3 0.567022 0.060764 0.918028
Si Si4 0.937607 0.218047 0.582391
Si Si5 0.177153 0.062567 0.926782
Si Si6 0.936146 0.907816 0.576149
O O1 0.647575 0.147771 0.250000
O O2 0.688356 0.149614 0.524943
O O3 0.582746 0.120082 0.481669
O O4 0.613175 0.233782 0.444124
O O5 0.748408 0.309311 0.250000
O O6 0.750000 0.250000 0.500000
O O7 0.704842 0.370603 0.480493
O O8 0.592731 0.065927 0.750000
O O9 0.500000 0.055994 0.909445
O O10 0.593143 0.000000 0.000000
O O11 0.930124 0.187934 0.750000
O O12 0.932780 0.166356 0.453859
O O13 0.000000 0.250598 0.572342
O O14 0.184282 0.056041 0.750000
O O15 0.110718 0.059289 0.972260
O O16 0.206282 0.000000 0.000000
O O17 0.921726 0.920414 0.750000
O O18 0.000000 0.932093 0.535802
#
# Coordination Sequence:
#
# PCOD8260156 Si02
#       6
#    16  16  16  16  16  16
#     4  11  22  36  58  86 116 154 199 247 302 362
#     4  11  25  44  65  91 123 161 208 259 312 369
#     4  10  21  37  57  82 115 155 198 247 303 362
#     4   9  18  33  54  83 120 158 196 241 292 348
#     4  11  25  44  66  91 121 159 202 250 304 361
#     4  10  21  37  60  91 124 157 193 236 290 352
#
# _framework density 21.567540999999999
#
# number of rings (size 3 to 8) (size 9 to 14) (size 15 to 20)
#    0.000    1.667    0.000    4.000    0.000   11.667 
#    0.000    3.333    0.000    0.000    0.000    0.000 
#    0.000    0.000    0.000    0.000    0.000    0.000 
#
# Total GULP energy -595024.432841 kJ/mol
# GULP energy per Si atom -12396.342351 kJ/mol
# Density = 2.151845 g / cm^3
# Si number density = 21.567541 Si / 1000 Ang^3
#
#
#
# Elastic Constant Matrix: (Units=GPa)
#
#
# Indices 1 2 3 4 5 6 
#
# 1 75.9069 27.2315 33.9765 0.0000 0.0000 0.0000
# 2 27.2315 120.0338 52.3313 0.0000 0.0000 0.0000
# 3 33.9765 52.3313 78.6317 0.0000 0.0000 0.0000
# 4 0.0000 0.0000 0.0000 38.2806 0.0000 0.0000
# 5 0.0000 0.0000 0.0000 0.0000 32.2230 0.0000
# 6 0.0000 0.0000 0.0000 0.0000 0.0000 21.7801
#
#
#
# Elastic Compliance Matrix: (Units=1/GPa)
#
#
# Indices 1 2 3 4 5 6 
#
# 1 0.016400 -0.000889 -0.006495 0.000000 0.000000 0.000000
# 2 -0.000889 0.011784 -0.007459 0.000000 0.000000 0.000000
# 3 -0.006495 -0.007459 0.020488 0.000000 0.000000 0.000000
# 4 0.000000 0.000000 0.000000 0.026123 0.000000 0.000000
# 5 0.000000 0.000000 0.000000 0.000000 0.031034 0.000000
# 6 0.000000 0.000000 0.000000 0.000000 0.000000 0.045913
#
#
# Mechanical properties :
#
#
# Convention : Reuss Voigt Hill
#
# Bulk Modulus (GPa) = 52.66655 55.73899 54.20277
# Shear Modulus (GPa) = 26.63025 29.19229 27.91127
#
# Velocity S-wave (km/s) = 3.51770 3.68302 3.60131
# Velocity P-wave (km/s) = 6.40088 6.63221 6.51757
#
# Compressibility (1/GPa) = 0.01898739
#
# Stress axis : x y z
#
# Youngs Moduli (GPa) = 60.97533 84.85757 48.80963
#
# Poissons Ratio (x) = 0.07545 0.31700
# Poissons Ratio (y) = 0.05421 0.36405
# Poissons Ratio (z) = 0.39602 0.63292
#
# Static dielectric constant tensor:
#      x y z
#    x 3.985280 0.000000 0.000000 
#    y 0.000000 3.905080 0.000000 
#    z 0.000000 0.000000 3.972010 
# 
# 
# High freq. dielectric constant tensor:
#      x y z
#    x 1.844110 0.000000 0.000000 
#    y 0.000000 1.848380 0.000000 
#    z 0.000000 0.000000 1.849680 
# 
# From -- ./inp_files/12431.got.cif
#   From: 2010.03.12/outbox.cif.g09.slc.cpg/sg63_7_cif.got.tgz:12431.got - 2010.04.10 19:34:48.
