data_PCOD8260695
_publ_section_title
;
Structure prediction by ZEFSAII (Michael W. Deem and Ramdas Pophale) SiO2 
 PCOD8260695
Probable space group: C M C M
;
_chemical_formula_sum "Si O2"
_cell_formula_units_Z 64
_cell_length_a 15.472463
_cell_length_b 13.244165
_cell_length_c 14.288818
_cell_angle_alpha 90.000000
_cell_angle_beta 90.000000
_cell_angle_gamma 90.000000
_cell_volume 2928.062483
_symmetry_space_group_name_H-M "C M C M"
_symmetry_group_IT_number 63
_symmetry_cell_setting 'orthorhombic'
loop_
_space_group_symop_operation_xyz
x,y,z
-x,-y,1/2+z
x,-y,-z
-x,y,1/2-z
-x,-y,-z
x,y,1/2-z
-x,y,z
x,-y,1/2+z
1/2+x,1/2+y,z
1/2-x,1/2-y,1/2+z
1/2+x,1/2-y,-z
1/2-x,1/2+y,1/2-z
1/2-x,1/2-y,-z
1/2+x,1/2+y,1/2-z
1/2-x,1/2+y,z
1/2+x,1/2-y,1/2+z
loop_
_atom_site_type_symbol
_atom_site_label
_atom_site_fract_x
_atom_site_fract_y
_atom_site_fract_z
Si Si1 0.500000 0.257946 0.638080
Si Si2 0.500000 0.884883 0.974516
Si Si3 0.098827 0.054826 0.900869
Si Si4 0.149323 0.280542 0.637351
Si Si5 0.829252 0.860671 0.851832
O O1 0.500000 0.239963 0.750000
O O2 0.500000 0.156146 0.580360
O O3 0.583164 0.319743 0.599740
O O4 0.418273 0.852927 0.913063
O O5 0.500000 0.000000 0.000000
O O6 0.138897 0.166122 0.898855
O O7 0.000000 0.059457 0.863690
O O8 0.160116 0.981996 0.839008
O O9 0.105279 0.000000 0.000000
O O10 0.137809 0.286818 0.750000
O O11 0.241257 0.323374 0.599447
O O12 0.825091 0.810330 0.750000
#
# Coordination Sequence:
#
# PCOD8260695 Si02
#       5
#     8   8  16  16  16
#     4  10  22  42  65  94 131 170 221 284 342 402
#     4  12  27  44  65  92 131 184 227 276 341 410
#     4  11  22  38  67 101 132 174 227 283 345 407
#     4  11  25  44  68 101 139 182 231 283 342 413
#     4  10  22  40  66  98 132 172 224 282 340 402
#
# _framework density 21.857458000000001
#
# number of rings (size 3 to 8) (size 9 to 14) (size 15 to 20)
#    0.000    1.250    2.500    2.625    0.000    9.000 
#    0.000    5.000    0.000    0.000    0.000    0.000 
#    0.000    0.000    0.000    0.000    0.000    0.000 
#
# Total GULP energy -396464.264459 kJ/mol
# GULP energy per Si atom -12389.508264 kJ/mol
# Density = 2.180771 g / cm^3
# Si number density = 21.857458 Si / 1000 Ang^3
#
#
#
# Elastic Constant Matrix: (Units=GPa)
#
#
# Indices 1 2 3 4 5 6 
#
# 1 222.8720 105.7660 37.0039 0.0000 0.0000 0.0000
# 2 105.7660 209.5878 43.5185 0.0000 0.0000 0.0000
# 3 37.0039 43.5185 87.7892 0.0000 0.0000 0.0000
# 4 0.0000 0.0000 0.0000 31.5423 0.0000 0.0000
# 5 0.0000 0.0000 0.0000 0.0000 2.3513 0.0000
# 6 0.0000 0.0000 0.0000 0.0000 0.0000 43.1752
#
#
#
# Elastic Compliance Matrix: (Units=1/GPa)
#
#
# Indices 1 2 3 4 5 6 
#
# 1 0.006001 -0.002791 -0.001146 0.000000 0.000000 0.000000
# 2 -0.002791 0.006616 -0.002104 0.000000 0.000000 0.000000
# 3 -0.001146 -0.002104 0.012917 0.000000 0.000000 0.000000
# 4 0.000000 0.000000 0.000000 0.031703 0.000000 0.000000
# 5 0.000000 0.000000 0.000000 0.000000 0.425293 0.000000
# 6 0.000000 0.000000 0.000000 0.000000 0.000000 0.023161
#
#
# Mechanical properties :
#
#
# Convention : Reuss Voigt Hill
#
# Bulk Modulus (GPa) = 74.32883 99.20286 86.76584
# Shear Modulus (GPa) = 9.57380 37.67780 23.62580
#
# Velocity S-wave (km/s) = 2.09514 4.15637 3.29128
# Velocity P-wave (km/s) = 6.31924 8.27760 7.36381
#
# Compressibility (1/GPa) = 0.01345373
#
# Stress axis : x y z
#
# Youngs Moduli (GPa) = 166.62516 151.14262 77.41800
#
# Poissons Ratio (x) = 0.42177 0.08875
# Poissons Ratio (y) = 0.46498 0.16285
# Poissons Ratio (z) = 0.19101 0.31794
#
# Static dielectric constant tensor:
#      x y z
#    x 4.241750 0.000000 0.000000 
#    y 0.000000 4.042680 0.000000 
#    z 0.000000 0.000000 4.226250 
# 
# 
# High freq. dielectric constant tensor:
#      x y z
#    x 1.864980 0.000000 0.000000 
#    y 0.000000 1.854970 0.000000 
#    z 0.000000 0.000000 1.870690 
# 
# From -- ./inp_files/33425.got.cif
#   From: 2010.03.12/outbox.cif.g09.slc.cpg/sg63_17_cif.got.tgz:33425.got - 2010.04.10 19:34:48.
