data_PCOD8260361
_publ_section_title
;
Structure prediction by ZEFSAII (Michael W. Deem and Ramdas Pophale) SiO2 
 PCOD8260361
Probable space group: C M C M
;
_chemical_formula_sum "Si O2"
_cell_formula_units_Z 112
_cell_length_a 15.771317
_cell_length_b 11.738097
_cell_length_c 27.347686
_cell_angle_alpha 90.000000
_cell_angle_beta 90.000000
_cell_angle_gamma 90.000000
_cell_volume 5062.747174
_symmetry_space_group_name_H-M "C M C M"
_symmetry_group_IT_number 63
_symmetry_cell_setting 'orthorhombic'
loop_
_space_group_symop_operation_xyz
x,y,z
-x,-y,1/2+z
x,-y,-z
-x,y,1/2-z
-x,-y,-z
x,y,1/2-z
-x,y,z
x,-y,1/2+z
1/2+x,1/2+y,z
1/2-x,1/2-y,1/2+z
1/2+x,1/2-y,-z
1/2-x,1/2+y,1/2-z
1/2-x,1/2-y,-z
1/2+x,1/2+y,1/2-z
1/2-x,1/2+y,z
1/2+x,1/2-y,1/2+z
loop_
_atom_site_type_symbol
_atom_site_label
_atom_site_fract_x
_atom_site_fract_y
_atom_site_fract_z
Si Si1 0.907925 0.007127 0.195818
Si Si2 0.406641 0.256403 0.171643
Si Si3 0.097822 0.494620 0.943724
Si Si4 0.675973 0.781712 0.095135
Si Si5 0.095730 0.883401 0.522584
Si Si6 0.727012 0.315131 0.806831
Si Si7 0.856982 0.251242 0.931881
O O1 0.919571 0.054858 0.250000
O O2 0.824279 0.071683 0.175764
O O3 0.000000 0.029830 0.168646
O O4 0.888619 0.873428 0.199659
O O5 0.500000 0.205694 0.186153
O O6 0.329213 0.170171 0.185131
O O7 0.409135 0.292929 0.114709
O O8 0.116514 0.610796 0.915056
O O9 0.151069 0.387639 0.923830
O O10 0.000000 0.465138 0.935510
O O11 0.121807 0.500000 0.000000
O O12 0.638758 0.664025 0.072081
O O13 0.691470 0.776782 0.153885
O O14 0.764148 0.804157 0.067470
O O15 0.097151 0.783236 0.481974
O O16 0.000000 0.912207 0.537119
O O17 0.137573 0.000000 0.500000
O O18 0.709878 0.280655 0.750000
#
# Coordination Sequence:
#
# PCOD8260361 Si02
#       7
#    16  16  16  16  16  16  16
#     4   9  19  37  62  89 120 165 214 262 323 393
#     4  10  21  38  64  93 124 166 216 268 326 390
#     4  11  23  41  64  89 127 175 218 254 309 398
#     4  11  25  39  65  94 128 171 215 261 323 385
#     4  11  24  39  61  95 133 166 206 265 324 383
#     4  10  23  41  62  95 132 167 218 278 330 383
#     4  11  24  39  62  92 131 168 209 263 321 387
#
# _framework density 22.122377
#
# number of rings (size 3 to 8) (size 9 to 14) (size 15 to 20)
#    0.000    1.571    1.429    2.571    4.000    5.429 
#    0.000    0.000    0.000    1.714    0.000    2.000 
#    0.000    0.000    0.000    0.000    0.000    0.000 
#
# Total GULP energy -693739.593210 kJ/mol
# GULP energy per Si atom -12388.207022 kJ/mol
# Density = 2.207203 g / cm^3
# Si number density = 22.122377 Si / 1000 Ang^3
#
#
#
# Elastic Constant Matrix: (Units=GPa)
#
#
# Indices 1 2 3 4 5 6 
#
# 1 130.8278 40.3791 26.6731 0.0000 0.0000 0.0000
# 2 40.3791 87.8641 17.1636 0.0000 0.0000 0.0000
# 3 26.6731 17.1636 113.7784 0.0000 0.0000 0.0000
# 4 0.0000 0.0000 0.0000 26.9495 0.0000 0.0000
# 5 0.0000 0.0000 0.0000 0.0000 22.1022 0.0000
# 6 0.0000 0.0000 0.0000 0.0000 0.0000 31.6203
#
#
#
# Elastic Compliance Matrix: (Units=1/GPa)
#
#
# Indices 1 2 3 4 5 6 
#
# 1 0.009168 -0.003909 -0.001560 0.000000 0.000000 0.000000
# 2 -0.003909 0.013393 -0.001104 0.000000 0.000000 0.000000
# 3 -0.001560 -0.001104 0.009321 0.000000 0.000000 0.000000
# 4 0.000000 0.000000 0.000000 0.037106 0.000000 0.000000
# 5 0.000000 0.000000 0.000000 0.000000 0.045244 0.000000
# 6 0.000000 0.000000 0.000000 0.000000 0.000000 0.031625
#
#
# Mechanical properties :
#
#
# Convention : Reuss Voigt Hill
#
# Bulk Modulus (GPa) = 53.36839 55.65577 54.51208
# Shear Modulus (GPa) = 30.25738 32.68469 31.47103
#
# Velocity S-wave (km/s) = 3.70229 3.84793 3.77581
# Velocity P-wave (km/s) = 6.51556 6.70484 6.61087
#
# Compressibility (1/GPa) = 0.01873768
#
# Stress axis : x y z
#
# Youngs Moduli (GPa) = 109.07529 74.66506 107.28237
#
# Poissons Ratio (x) = 0.29184 0.16732
# Poissons Ratio (y) = 0.42633 0.11845
# Poissons Ratio (z) = 0.17012 0.08244
#
# Static dielectric constant tensor:
#      x y z
#    x 4.167570 0.000000 0.000000 
#    y 0.000000 3.773880 0.000000 
#    z 0.000000 0.000000 4.102020 
# 
# 
# High freq. dielectric constant tensor:
#      x y z
#    x 1.880680 0.000000 0.000000 
#    y 0.000000 1.843090 0.000000 
#    z 0.000000 0.000000 1.869240 
# 
# From -- ./inp_files/73394.got.cif
#   From: 2010.03.12/outbox.cif.g09.slc.cpg/sg63_37_cif.got.tgz:73394.got - 2010.04.10 19:34:48.
