data_PCOD8260573
_publ_section_title
;
Structure prediction by ZEFSAII (Michael W. Deem and Ramdas Pophale) SiO2 
 PCOD8260573
Probable space group: C M C M
;
_chemical_formula_sum "Si O2"
_cell_formula_units_Z 112
_cell_length_a 29.268943
_cell_length_b 11.068937
_cell_length_c 17.655319
_cell_angle_alpha 90.000000
_cell_angle_beta 90.000000
_cell_angle_gamma 90.000000
_cell_volume 5719.901149
_symmetry_space_group_name_H-M "C M C M"
_symmetry_group_IT_number 63
_symmetry_cell_setting 'orthorhombic'
loop_
_space_group_symop_operation_xyz
x,y,z
-x,-y,1/2+z
x,-y,-z
-x,y,1/2-z
-x,-y,-z
x,y,1/2-z
-x,y,z
x,-y,1/2+z
1/2+x,1/2+y,z
1/2-x,1/2-y,1/2+z
1/2+x,1/2-y,-z
1/2-x,1/2+y,1/2-z
1/2-x,1/2-y,-z
1/2+x,1/2+y,1/2-z
1/2-x,1/2+y,z
1/2+x,1/2-y,1/2+z
loop_
_atom_site_type_symbol
_atom_site_label
_atom_site_fract_x
_atom_site_fract_y
_atom_site_fract_z
Si Si1 0.948318 0.610418 0.450180
Si Si2 0.648931 0.354511 0.098046
Si Si3 0.185905 0.626958 0.665331
Si Si4 0.277751 0.505225 0.166856
Si Si5 0.050604 0.881041 0.051395
Si Si6 0.207539 0.807967 0.956631
Si Si7 0.871129 0.610413 0.337534
O O1 0.927935 0.500000 0.500000
O O2 0.944348 0.746290 0.488215
O O3 0.921829 0.606286 0.371094
O O4 0.000000 0.578404 0.430178
O O5 0.673275 0.442184 0.157272
O O6 0.595257 0.391298 0.104180
O O7 0.657332 0.216453 0.122095
O O8 0.671324 0.368846 0.014258
O O9 0.173306 0.676253 0.750000
O O10 0.239315 0.596626 0.662771
O O11 0.177380 0.721467 0.597899
O O12 0.155577 0.511717 0.646136
O O13 0.276366 0.569028 0.250000
O O14 0.268762 0.596239 0.098720
O O15 0.000000 0.881231 0.092113
O O16 0.052082 0.000000 0.000000
O O17 0.250000 0.750000 0.000000
O O18 0.875613 0.640196 0.250000
#
# Coordination Sequence:
#
# PCOD8260573 Si02
#       7
#    16  16  16  16  16  16  16
#     4   9  19  35  57  87 117 148 192 245 296 347
#     4  11  22  36  59  86 114 145 194 245 289 341
#     4  10  23  38  54  78 114 154 189 229 287 345
#     4  11  23  39  56  77 114 152 188 236 294 348
#     4   9  18  34  56  84 117 149 184 235 297 353
#     4  12  23  36  57  83 111 146 198 243 282 337
#     4  10  22  38  57  82 113 152 191 231 292 351
#
# _framework density 19.580756999999998
#
# number of rings (size 3 to 8) (size 9 to 14) (size 15 to 20)
#    0.000    1.714    1.429    3.000    4.000    1.429 
#    0.000    0.000    0.000    1.286    0.000    0.000 
#    0.000    8.000    0.000    0.000    0.000    0.000 
#
# Total GULP energy -693769.288662 kJ/mol
# GULP energy per Si atom -12388.737298 kJ/mol
# Density = 1.953619 g / cm^3
# Si number density = 19.580757 Si / 1000 Ang^3
#
#
#
# Elastic Constant Matrix: (Units=GPa)
#
#
# Indices 1 2 3 4 5 6 
#
# 1 97.3483 16.1619 22.2509 0.0000 0.0000 0.0000
# 2 16.1619 74.8800 23.4679 0.0000 0.0000 0.0000
# 3 22.2509 23.4679 95.8430 0.0000 0.0000 0.0000
# 4 0.0000 0.0000 0.0000 34.1607 0.0000 0.0000
# 5 0.0000 0.0000 0.0000 0.0000 17.1266 0.0000
# 6 0.0000 0.0000 0.0000 0.0000 0.0000 28.3013
#
#
#
# Elastic Compliance Matrix: (Units=1/GPa)
#
#
# Indices 1 2 3 4 5 6 
#
# 1 0.011047 -0.001712 -0.002145 0.000000 0.000000 0.000000
# 2 -0.001712 0.014730 -0.003209 0.000000 0.000000 0.000000
# 3 -0.002145 -0.003209 0.011718 0.000000 0.000000 0.000000
# 4 0.000000 0.000000 0.000000 0.029273 0.000000 0.000000
# 5 0.000000 0.000000 0.000000 0.000000 0.058389 0.000000
# 6 0.000000 0.000000 0.000000 0.000000 0.000000 0.035334
#
#
# Mechanical properties :
#
#
# Convention : Reuss Voigt Hill
#
# Bulk Modulus (GPa) = 42.80605 43.53697 43.17151
# Shear Modulus (GPa) = 27.41054 29.66375 28.53714
#
# Velocity S-wave (km/s) = 3.74554 3.89645 3.82174
# Velocity P-wave (km/s) = 6.37293 6.52119 6.44749
#
# Compressibility (1/GPa) = 0.02336118
#
# Stress axis : x y z
#
# Youngs Moduli (GPa) = 90.52228 67.88858 85.34127
#
# Poissons Ratio (x) = 0.11622 0.18310
# Poissons Ratio (y) = 0.15497 0.27389
# Poissons Ratio (z) = 0.19422 0.21788
#
# Static dielectric constant tensor:
#      x y z
#    x 3.682570 0.000000 0.000000 
#    y 0.000000 3.832960 0.000000 
#    z 0.000000 0.000000 3.547990 
# 
# 
# High freq. dielectric constant tensor:
#      x y z
#    x 1.765290 0.000000 0.000000 
#    y 0.000000 1.774640 0.000000 
#    z 0.000000 0.000000 1.740590 
# 
# From -- ./inp_files/38528.got.cif
#   From: 2010.03.12/outbox.cif.g09.slc.cpg/sg63_20_cif.got.tgz:38528.got - 2010.04.10 19:34:48.
