data_PCOD8260295
_publ_section_title
;
Structure prediction by ZEFSAII (Michael W. Deem and Ramdas Pophale) SiO2 
 PCOD8260295
Probable space group: C M C M
;
_chemical_formula_sum "Si O2"
_cell_formula_units_Z 96
_cell_length_a 23.563263
_cell_length_b 25.633583
_cell_length_c 8.681150
_cell_angle_alpha 90.000000
_cell_angle_beta 90.000000
_cell_angle_gamma 90.000000
_cell_volume 5243.508859
_symmetry_space_group_name_H-M "C M C M"
_symmetry_group_IT_number 63
_symmetry_cell_setting 'orthorhombic'
loop_
_space_group_symop_operation_xyz
x,y,z
-x,-y,1/2+z
x,-y,-z
-x,y,1/2-z
-x,-y,-z
x,y,1/2-z
-x,y,z
x,-y,1/2+z
1/2+x,1/2+y,z
1/2-x,1/2-y,1/2+z
1/2+x,1/2-y,-z
1/2-x,1/2+y,1/2-z
1/2-x,1/2-y,-z
1/2+x,1/2+y,1/2-z
1/2-x,1/2+y,z
1/2+x,1/2-y,1/2+z
loop_
_atom_site_type_symbol
_atom_site_label
_atom_site_fract_x
_atom_site_fract_y
_atom_site_fract_z
Si Si1 0.247553 0.192110 0.567758
Si Si2 0.935209 0.056142 0.931331
Si Si3 0.435315 0.945695 0.432211
Si Si4 0.936605 0.752646 0.933564
Si Si5 0.365317 0.350746 0.567241
Si Si6 0.130879 0.653873 0.567608
O O1 0.242291 0.197320 0.750000
O O2 0.250000 0.250000 0.500000
O O3 0.196889 0.157663 0.501122
O O4 0.303905 0.160494 0.518840
O O5 0.925396 0.054864 0.750000
O O6 0.000000 0.072121 0.972265
O O7 0.891471 0.095699 0.007897
O O8 0.920899 0.000000 0.000000
O O9 0.431554 0.948709 0.250000
O O10 0.500000 0.934854 0.485567
O O11 0.395089 0.899870 0.498527
O O12 0.412718 0.000000 0.500000
O O13 0.937115 0.751573 0.750000
O O14 0.904750 0.803938 0.993252
O O15 0.904766 0.702192 0.001036
O O16 0.000000 0.753432 0.000604
O O17 0.361205 0.351803 0.750000
O O18 0.124231 0.654290 0.750000
#
# Coordination Sequence:
#
# PCOD8260295 Si02
#       6
#    16  16  16  16  16  16
#     4  11  21  36  55  77 107 145 187 231 280 333
#     4  10  21  38  60  86 116 149 185 228 280 335
#     4   9  17  31  53  78 104 134 169 212 262 316
#     4   9  16  27  48  78 106 132 171 222 271 325
#     4  11  21  35  55  82 112 146 188 229 276 332
#     4   9  17  31  51  76 103 136 180 223 266 320
#
# _framework density 18.308350000000001
#
# number of rings (size 3 to 8) (size 9 to 14) (size 15 to 20)
#    0.000    2.167    1.667    2.500    0.000    3.667 
#    0.000    2.500    0.000    2.000    0.000    0.000 
#    0.000    0.000    0.000    0.000    0.000    0.000 
#
# Total GULP energy -595228.695438 kJ/mol
# GULP energy per Si atom -12400.597822 kJ/mol
# Density = 1.826668 g / cm^3
# Si number density = 18.308350 Si / 1000 Ang^3
#
#
#
# Elastic Constant Matrix: (Units=GPa)
#
#
# Indices 1 2 3 4 5 6 
#
# 1 165.7054 98.5946 40.5930 0.0000 0.0000 0.0000
# 2 98.5946 158.6709 36.7257 0.0000 0.0000 0.0000
# 3 40.5930 36.7257 47.8206 0.0000 0.0000 0.0000
# 4 0.0000 0.0000 0.0000 28.8891 0.0000 0.0000
# 5 0.0000 0.0000 0.0000 0.0000 24.8461 0.0000
# 6 0.0000 0.0000 0.0000 0.0000 0.0000 34.8928
#
#
#
# Elastic Compliance Matrix: (Units=1/GPa)
#
#
# Indices 1 2 3 4 5 6 
#
# 1 0.010373 -0.005360 -0.004688 0.000000 0.000000 0.000000
# 2 -0.005360 0.010435 -0.003464 0.000000 0.000000 0.000000
# 3 -0.004688 -0.003464 0.027551 0.000000 0.000000 0.000000
# 4 0.000000 0.000000 0.000000 0.034615 0.000000 0.000000
# 5 0.000000 0.000000 0.000000 0.000000 0.040248 0.000000
# 6 0.000000 0.000000 0.000000 0.000000 0.000000 0.028659
#
#
# Mechanical properties :
#
#
# Convention : Reuss Voigt Hill
#
# Bulk Modulus (GPa) = 46.87306 80.44706 63.66006
# Shear Modulus (GPa) = 26.87929 30.81116 28.84522
#
# Velocity S-wave (km/s) = 3.83579 4.10677 3.97359
# Velocity P-wave (km/s) = 6.72870 8.15616 7.47657
#
# Compressibility (1/GPa) = 0.02133421
#
# Stress axis : x y z
#
# Youngs Moduli (GPa) = 96.40787 95.83363 36.29581
#
# Poissons Ratio (x) = 0.51368 0.17017
# Poissons Ratio (y) = 0.51676 0.12572
# Poissons Ratio (z) = 0.45199 0.33195
#
# Static dielectric constant tensor:
#      x y z
#    x 3.566460 0.000000 0.000000 
#    y 0.000000 3.514890 0.000000 
#    z 0.000000 0.000000 3.129870 
# 
# 
# High freq. dielectric constant tensor:
#      x y z
#    x 1.714250 0.000000 0.000000 
#    y 0.000000 1.715410 0.000000 
#    z 0.000000 0.000000 1.685910 
# 
# From -- ./inp_files/8602.got.cif
#   From: 2010.03.12/outbox.cif.g09.slc.cpg/sg63_5_cif.got.tgz:8602.got - 2010.04.10 19:34:48.
