data_PCOD8260413
_publ_section_title
;
Structure prediction by ZEFSAII (Michael W. Deem and Ramdas Pophale) SiO2 
 PCOD8260413
Probable space group: C M C M
;
_chemical_formula_sum "Si O2"
_cell_formula_units_Z 80
_cell_length_a 8.689543
_cell_length_b 20.223410
_cell_length_c 23.014881
_cell_angle_alpha 90.000000
_cell_angle_beta 90.000000
_cell_angle_gamma 90.000000
_cell_volume 4044.455459
_symmetry_space_group_name_H-M "C M C M"
_symmetry_group_IT_number 63
_symmetry_cell_setting 'orthorhombic'
loop_
_space_group_symop_operation_xyz
x,y,z
-x,-y,1/2+z
x,-y,-z
-x,y,1/2-z
-x,-y,-z
x,y,1/2-z
-x,y,z
x,-y,1/2+z
1/2+x,1/2+y,z
1/2-x,1/2-y,1/2+z
1/2+x,1/2-y,-z
1/2-x,1/2+y,1/2-z
1/2-x,1/2-y,-z
1/2+x,1/2+y,1/2-z
1/2-x,1/2+y,z
1/2+x,1/2-y,1/2+z
loop_
_atom_site_type_symbol
_atom_site_label
_atom_site_fract_x
_atom_site_fract_y
_atom_site_fract_z
Si Si1 0.318092 0.134447 0.365864
Si Si2 0.181262 0.745946 0.935600
Si Si3 0.819159 0.076135 0.750000
Si Si4 0.681880 0.991795 0.936602
Si Si5 0.180730 0.615043 0.866124
Si Si6 0.682607 0.575545 0.250000
O O1 0.500000 0.139158 0.357122
O O2 0.254549 0.202364 0.391106
O O3 0.241808 0.116260 0.305047
O O4 0.270965 0.079132 0.412451
O O5 0.222491 0.675102 0.908529
O O6 0.000000 0.757605 0.939815
O O7 0.250000 0.750000 0.000000
O O8 0.763558 0.119520 0.804384
O O9 0.000000 0.072154 0.750000
O O10 0.752895 0.000321 0.750000
O O11 0.500000 0.000571 0.940516
O O12 0.747857 0.048826 0.895446
O O13 0.756656 0.000000 0.000000
O O14 0.000000 0.611360 0.854532
O O15 0.500000 0.575410 0.250000
#
# Coordination Sequence:
#
# PCOD8260413 Si02
#       6
#    16  16   8  16  16   8
#     4  11  22  38  64  91 121 162 207 255 307 362
#     4  11  24  42  64  91 127 166 204 253 308 367
#     4  11  23  38  61  92 127 157 195 260 317 358
#     4   9  17  32  57  87 114 148 201 252 295 355
#     4  10  21  39  63  87 118 163 208 248 298 363
#     4  11  23  40  61  90 129 161 199 254 315 370
#
# _framework density 19.780166999999999
#
# number of rings (size 3 to 8) (size 9 to 14) (size 15 to 20)
#    0.000    1.600    2.000    3.000    0.000    6.400 
#    0.000    1.000    0.000    3.000    0.000    0.000 
#    0.000    0.000    0.000    0.000    0.000    0.000 
#
# Total GULP energy -496064.900720 kJ/mol
# GULP energy per Si atom -12401.622518 kJ/mol
# Density = 1.973515 g / cm^3
# Si number density = 19.780167 Si / 1000 Ang^3
#
#
#
# Elastic Constant Matrix: (Units=GPa)
#
#
# Indices 1 2 3 4 5 6 
#
# 1 65.5737 40.5486 41.9130 0.0000 0.0000 0.0000
# 2 40.5486 62.8825 8.7962 0.0000 0.0000 0.0000
# 3 41.9130 8.7962 131.1224 0.0000 0.0000 0.0000
# 4 0.0000 0.0000 0.0000 42.7518 0.0000 0.0000
# 5 0.0000 0.0000 0.0000 0.0000 30.1346 0.0000
# 6 0.0000 0.0000 0.0000 0.0000 0.0000 29.3703
#
#
#
# Elastic Compliance Matrix: (Units=1/GPa)
#
#
# Indices 1 2 3 4 5 6 
#
# 1 0.034112 -0.020665 -0.009518 0.000000 0.000000 0.000000
# 2 -0.020665 0.028572 0.004689 0.000000 0.000000 0.000000
# 3 -0.009518 0.004689 0.010354 0.000000 0.000000 0.000000
# 4 0.000000 0.000000 0.000000 0.023391 0.000000 0.000000
# 5 0.000000 0.000000 0.000000 0.000000 0.033184 0.000000
# 6 0.000000 0.000000 0.000000 0.000000 0.000000 0.034048
#
#
# Mechanical properties :
#
#
# Convention : Reuss Voigt Hill
#
# Bulk Modulus (GPa) = 45.34981 49.12157 47.23569
# Shear Modulus (GPa) = 22.52254 31.67274 27.09764
#
# Velocity S-wave (km/s) = 3.37804 4.00589 3.70529
# Velocity P-wave (km/s) = 6.17993 6.80322 6.49905
#
# Compressibility (1/GPa) = 0.02205081
#
# Stress axis : x y z
#
# Youngs Moduli (GPa) = 29.31516 34.99888 96.57936
#
# Poissons Ratio (x) = 0.72326 0.91920
# Poissons Ratio (y) = 0.60580 -0.45285
# Poissons Ratio (z) = 0.27901 -0.16410
#
# Static dielectric constant tensor:
#      x y z
#    x 3.431480 0.000000 0.000000 
#    y 0.000000 3.750150 0.000000 
#    z 0.000000 0.000000 3.805390 
# 
# 
# High freq. dielectric constant tensor:
#      x y z
#    x 1.755740 0.000000 0.000000 
#    y 0.000000 1.777410 0.000000 
#    z 0.000000 0.000000 1.790860 
# 
# From -- ./inp_files/59483.got.cif
#   From: 2010.03.12/outbox.cif.g09.slc.cpg/sg63_30_cif.got.tgz:59483.got - 2010.04.10 19:34:48.
