data_PCOD8260756
_publ_section_title
;
Structure prediction by ZEFSAII (Michael W. Deem and Ramdas Pophale) SiO2 
 PCOD8260756
Probable space group: C M C M
;
_chemical_formula_sum "Si O2"
_cell_formula_units_Z 96
_cell_length_a 9.128906
_cell_length_b 26.622324
_cell_length_c 18.982870
_cell_angle_alpha 90.000000
_cell_angle_beta 90.000000
_cell_angle_gamma 90.000000
_cell_volume 4613.458023
_symmetry_space_group_name_H-M "C M C M"
_symmetry_group_IT_number 63
_symmetry_cell_setting 'orthorhombic'
loop_
_space_group_symop_operation_xyz
x,y,z
-x,-y,1/2+z
x,-y,-z
-x,y,1/2-z
-x,-y,-z
x,y,1/2-z
-x,y,z
x,-y,1/2+z
1/2+x,1/2+y,z
1/2-x,1/2-y,1/2+z
1/2+x,1/2-y,-z
1/2-x,1/2+y,1/2-z
1/2-x,1/2-y,-z
1/2+x,1/2+y,1/2-z
1/2-x,1/2+y,z
1/2+x,1/2-y,1/2+z
loop_
_atom_site_type_symbol
_atom_site_label
_atom_site_fract_x
_atom_site_fract_y
_atom_site_fract_z
Si Si1 0.170954 0.207040 0.955932
Si Si2 0.830118 0.967113 0.169790
Si Si3 0.664418 0.641427 0.167632
Si Si4 0.327551 0.056771 0.406617
Si Si5 0.833067 0.256307 0.169838
Si Si6 0.830998 0.092874 0.535583
O O1 0.225087 0.209565 0.875539
O O2 0.208436 0.150758 0.981716
O O3 0.000000 0.217683 0.959865
O O4 0.250000 0.250000 0.000000
O O5 0.783591 0.952916 0.250000
O O6 0.798180 0.920223 0.117593
O O7 0.000000 0.982472 0.167626
O O8 0.737999 0.014328 0.143417
O O9 0.692483 0.635667 0.250000
O O10 0.500000 0.622675 0.148471
O O11 0.785749 0.610299 0.126419
O O12 0.680653 0.698941 0.144106
O O13 0.500000 0.050108 0.410470
O O14 0.263855 0.055834 0.486142
O O15 0.782408 0.261786 0.250000
O O16 0.000000 0.274546 0.160132
O O17 0.000000 0.082484 0.518313
#
# Coordination Sequence:
#
# PCOD8260756 Si02
#       6
#    16  16  16  16  16  16
#     4  11  23  38  59  87 118 153 195 243 291 341
#     4  10  22  42  66  87 110 147 193 235 279 337
#     4   9  18  34  56  81 112 154 200 240 282 339
#     4  12  24  36  56  88 121 150 185 234 291 345
#     4   9  19  36  57  82 114 152 194 240 291 348
#     4  10  23  42  62  84 113 152 196 238 279 333
#
# _framework density 20.808686000000002
#
# number of rings (size 3 to 8) (size 9 to 14) (size 15 to 20)
#    0.000    1.833    0.000    5.000    0.000   12.333 
#    0.000    3.333    0.000    0.000    0.000    0.000 
#    0.000    0.000    0.000    0.000    0.000    0.000 
#
# Total GULP energy -595236.180906 kJ/mol
# GULP energy per Si atom -12400.753769 kJ/mol
# Density = 2.076132 g / cm^3
# Si number density = 20.808686 Si / 1000 Ang^3
#
#
#
# Elastic Constant Matrix: (Units=GPa)
#
#
# Indices 1 2 3 4 5 6 
#
# 1 96.2137 44.5633 48.3317 0.0000 0.0000 0.0000
# 2 44.5633 58.5980 30.3311 0.0000 0.0000 0.0000
# 3 48.3317 30.3311 103.6556 0.0000 0.0000 0.0000
# 4 0.0000 0.0000 0.0000 37.6705 0.0000 0.0000
# 5 0.0000 0.0000 0.0000 0.0000 33.5191 0.0000
# 6 0.0000 0.0000 0.0000 0.0000 0.0000 24.3050
#
#
#
# Elastic Compliance Matrix: (Units=1/GPa)
#
#
# Indices 1 2 3 4 5 6 
#
# 1 0.018160 -0.011110 -0.005216 0.000000 0.000000 0.000000
# 2 -0.011110 0.026909 -0.002693 0.000000 0.000000 0.000000
# 3 -0.005216 -0.002693 0.012868 0.000000 0.000000 0.000000
# 4 0.000000 0.000000 0.000000 0.026546 0.000000 0.000000
# 5 0.000000 0.000000 0.000000 0.000000 0.029834 0.000000
# 6 0.000000 0.000000 0.000000 0.000000 0.000000 0.041144
#
#
# Mechanical properties :
#
#
# Convention : Reuss Voigt Hill
#
# Bulk Modulus (GPa) = 50.26114 56.10217 53.18166
# Shear Modulus (GPa) = 24.98340 28.11500 26.54920
#
# Velocity S-wave (km/s) = 3.46876 3.67974 3.57581
# Velocity P-wave (km/s) = 6.34424 6.71368 6.53157
#
# Compressibility (1/GPa) = 0.01989609
#
# Stress axis : x y z
#
# Youngs Moduli (GPa) = 55.06626 37.16228 77.71366
#
# Poissons Ratio (x) = 0.41289 0.40539
# Poissons Ratio (y) = 0.61181 0.20932
# Poissons Ratio (z) = 0.28725 0.10010
#
# Static dielectric constant tensor:
#      x y z
#    x 3.595400 0.000000 0.000000 
#    y 0.000000 3.729180 0.000000 
#    z 0.000000 0.000000 4.014810 
# 
# 
# High freq. dielectric constant tensor:
#      x y z
#    x 1.797560 0.000000 0.000000 
#    y 0.000000 1.807140 0.000000 
#    z 0.000000 0.000000 1.833410 
# 
# From -- ./inp_files/51331.got.cif
#   From: 2010.03.12/outbox.cif.g09.slc.cpg/sg63_26_cif.got.tgz:51331.got - 2010.04.10 19:34:48.
