data_PCOD8260399
_publ_section_title
;
Structure prediction by ZEFSAII (Michael W. Deem and Ramdas Pophale) SiO2 
 PCOD8260399
Probable space group: C M C M
;
_chemical_formula_sum "Si O2"
_cell_formula_units_Z 80
_cell_length_a 8.701592
_cell_length_b 24.740107
_cell_length_c 18.596401
_cell_angle_alpha 90.000000
_cell_angle_beta 90.000000
_cell_angle_gamma 90.000000
_cell_volume 4003.401912
_symmetry_space_group_name_H-M "C M C M"
_symmetry_group_IT_number 63
_symmetry_cell_setting 'orthorhombic'
loop_
_space_group_symop_operation_xyz
x,y,z
-x,-y,1/2+z
x,-y,-z
-x,y,1/2-z
-x,-y,-z
x,y,1/2-z
-x,y,z
x,-y,1/2+z
1/2+x,1/2+y,z
1/2-x,1/2-y,1/2+z
1/2+x,1/2-y,-z
1/2-x,1/2+y,1/2-z
1/2-x,1/2-y,-z
1/2+x,1/2+y,1/2-z
1/2-x,1/2+y,z
1/2+x,1/2-y,1/2+z
loop_
_atom_site_type_symbol
_atom_site_label
_atom_site_fract_x
_atom_site_fract_y
_atom_site_fract_z
Si Si1 0.818485 0.471095 0.071233
Si Si2 0.180972 0.651349 0.557036
Si Si3 0.319190 0.443352 0.668810
Si Si4 0.181481 0.166114 0.094054
Si Si5 0.678061 0.267885 0.166083
O O1 0.761826 0.409386 0.072705
O O2 0.754966 0.501348 0.141017
O O3 0.000000 0.474549 0.072658
O O4 0.751873 0.500000 0.000000
O O5 0.268379 0.675047 0.487956
O O6 0.222401 0.687314 0.625328
O O7 0.000000 0.653527 0.542043
O O8 0.262883 0.433293 0.750000
O O9 0.500000 0.450121 0.665280
O O10 0.264914 0.393100 0.620043
O O11 0.266054 0.208555 0.144801
O O12 0.000000 0.174381 0.101778
O O13 0.707171 0.276587 0.250000
O O14 0.500000 0.274565 0.145802
#
# Coordination Sequence:
#
# PCOD8260399 Si02
#       5
#    16  16  16  16  16
#     4  10  21  39  61  87 120 157 200 246 293 351
#     4  11  23  40  64  90 121 159 203 250 299 358
#     4  10  22  38  59  90 124 158 198 246 301 357
#     4  11  22  39  64  91 122 158 201 250 301 359
#     4  11  25  43  62  87 121 160 202 249 303 360
#
# _framework density 19.983004999999999
#
# number of rings (size 3 to 8) (size 9 to 14) (size 15 to 20)
#    0.000    1.400    2.000    3.000    0.000    6.400 
#    0.000    4.000    0.000    0.000    0.000    0.000 
#    0.000    0.000    0.000    0.000    0.000    0.000 
#
# Total GULP energy -496273.803109 kJ/mol
# GULP energy per Si atom -12406.845078 kJ/mol
# Density = 1.993752 g / cm^3
# Si number density = 19.983005 Si / 1000 Ang^3
#
#
#
# Elastic Constant Matrix: (Units=GPa)
#
#
# Indices 1 2 3 4 5 6 
#
# 1 32.6559 20.2199 26.3748 0.0000 0.0000 0.0000
# 2 20.2199 81.7070 25.2491 0.0000 0.0000 0.0000
# 3 26.3748 25.2491 98.9060 0.0000 0.0000 0.0000
# 4 0.0000 0.0000 0.0000 39.1447 0.0000 0.0000
# 5 0.0000 0.0000 0.0000 0.0000 32.4352 0.0000
# 6 0.0000 0.0000 0.0000 0.0000 0.0000 32.9257
#
#
#
# Elastic Compliance Matrix: (Units=1/GPa)
#
#
# Indices 1 2 3 4 5 6 
#
# 1 0.043093 -0.007722 -0.009520 0.000000 0.000000 0.000000
# 2 -0.007722 0.014671 -0.001686 0.000000 0.000000 0.000000
# 3 -0.009520 -0.001686 0.013080 0.000000 0.000000 0.000000
# 4 0.000000 0.000000 0.000000 0.025546 0.000000 0.000000
# 5 0.000000 0.000000 0.000000 0.000000 0.030831 0.000000
# 6 0.000000 0.000000 0.000000 0.000000 0.000000 0.030371
#
#
# Mechanical properties :
#
#
# Convention : Reuss Voigt Hill
#
# Bulk Modulus (GPa) = 30.31512 39.66183 34.98847
# Shear Modulus (GPa) = 24.21973 30.32947 27.27460
#
# Velocity S-wave (km/s) = 3.48518 3.90007 3.69845
# Velocity P-wave (km/s) = 5.60345 6.33811 5.98207
#
# Compressibility (1/GPa) = 0.03298684
#
# Stress axis : x y z
#
# Youngs Moduli (GPa) = 23.20586 68.16238 76.45457
#
# Poissons Ratio (x) = 0.52636 0.72784
# Poissons Ratio (y) = 0.17920 0.12890
# Poissons Ratio (z) = 0.22092 0.11492
#
# Static dielectric constant tensor:
#      x y z
#    x 3.543040 0.000000 0.000000 
#    y 0.000000 3.768820 0.000000 
#    z 0.000000 0.000000 3.672410 
# 
# 
# High freq. dielectric constant tensor:
#      x y z
#    x 1.779070 0.000000 0.000000 
#    y 0.000000 1.791180 0.000000 
#    z 0.000000 0.000000 1.785980 
# 
# From -- ./inp_files/40484.got.cif
#   From: 2010.03.12/outbox.cif.g09.slc.cpg/sg63_21_cif.got.tgz:40484.got - 2010.04.10 19:34:48.
