data_PCOD8260546
_publ_section_title
;
Structure prediction by ZEFSAII (Michael W. Deem and Ramdas Pophale) SiO2 
 PCOD8260546
Probable space group: C M C M
;
_chemical_formula_sum "Si O2"
_cell_formula_units_Z 88
_cell_length_a 16.857630
_cell_length_b 30.055990
_cell_length_c 10.170516
_cell_angle_alpha 90.000000
_cell_angle_beta 90.000000
_cell_angle_gamma 90.000000
_cell_volume 5153.123399
_symmetry_space_group_name_H-M "C M C M"
_symmetry_group_IT_number 63
_symmetry_cell_setting 'orthorhombic'
loop_
_space_group_symop_operation_xyz
x,y,z
-x,-y,1/2+z
x,-y,-z
-x,y,1/2-z
-x,-y,-z
x,y,1/2-z
-x,y,z
x,-y,1/2+z
1/2+x,1/2+y,z
1/2-x,1/2-y,1/2+z
1/2+x,1/2-y,-z
1/2-x,1/2+y,1/2-z
1/2-x,1/2-y,-z
1/2+x,1/2+y,1/2-z
1/2-x,1/2+y,z
1/2+x,1/2-y,1/2+z
loop_
_atom_site_type_symbol
_atom_site_label
_atom_site_fract_x
_atom_site_fract_y
_atom_site_fract_z
Si Si1 0.911351 0.167493 0.250000
Si Si2 0.906808 0.737564 0.250000
Si Si3 0.187703 0.134159 0.007013
Si Si4 0.326290 0.457988 0.597701
Si Si5 0.811589 0.709924 0.001081
Si Si6 0.000000 0.963966 0.891752
Si Si7 0.094232 0.842650 0.250000
Si Si8 0.588527 0.772738 0.250000
O O1 0.866874 0.152361 0.378468
O O2 0.914505 0.220090 0.250000
O O3 0.000000 0.147008 0.250000
O O4 0.868365 0.714018 0.374538
O O5 0.888689 0.790064 0.250000
O O6 0.000000 0.728427 0.250000
O O7 0.266424 0.163333 0.998973
O O8 0.135500 0.134980 0.875224
O O9 0.220600 0.084333 0.039852
O O10 0.313989 0.500000 0.500000
O O11 0.302440 0.469804 0.750000
O O12 0.416968 0.437931 0.594534
O O13 0.866605 0.709384 0.875556
O O14 0.750000 0.750000 0.000000
O O15 0.000000 0.988389 0.750000
O O16 0.000000 0.000000 0.000000
O O17 0.000000 0.852703 0.250000
O O18 0.500000 0.792477 0.250000
#
# Coordination Sequence:
#
# PCOD8260546 Si02
#       8
#     8   8  16  16  16   8   8   8
#     4  11  21  33  54  78 107 147 194 229 268 319
#     4  11  22  38  56  78 115 151 186 229 272 322
#     4  12  23  35  54  78 108 149 184 235 277 322
#     4  10  22  37  53  75 103 139 186 229 275 324
#     4  12  21  36  56  81 114 146 185 229 277 325
#     4   8  16  32  50  66  92 130 172 220 258 296
#     4  11  23  35  48  78 113 149 190 227 270 319
#     4  11  22  38  56  80 111 153 192 227 266 324
#
# _framework density 17.077020999999998
#
# number of rings (size 3 to 8) (size 9 to 14) (size 15 to 20)
#    0.000    1.091    4.545    2.727    3.818    2.909 
#    0.000    0.000    0.000    0.000    0.000    0.000 
#    0.000    4.364    0.000    0.000    0.000    0.000 
#
# Total GULP energy -545375.306994 kJ/mol
# GULP energy per Si atom -12394.893341 kJ/mol
# Density = 1.703815 g / cm^3
# Si number density = 17.077021 Si / 1000 Ang^3
#
#
#
# Elastic Constant Matrix: (Units=GPa)
#
#
# Indices 1 2 3 4 5 6 
#
# 1 92.3104 44.8119 59.8707 0.0000 0.0000 0.0000
# 2 44.8119 101.5380 48.1599 0.0000 0.0000 0.0000
# 3 59.8707 48.1599 167.9514 0.0000 0.0000 0.0000
# 4 0.0000 0.0000 0.0000 33.1968 0.0000 0.0000
# 5 0.0000 0.0000 0.0000 0.0000 34.1046 0.0000
# 6 0.0000 0.0000 0.0000 0.0000 0.0000 20.2740
#
#
#
# Elastic Compliance Matrix: (Units=1/GPa)
#
#
# Indices 1 2 3 4 5 6 
#
# 1 0.016062 -0.005061 -0.004275 0.000000 0.000000 0.000000
# 2 -0.005061 0.012994 -0.001922 0.000000 0.000000 0.000000
# 3 -0.004275 -0.001922 0.008029 0.000000 0.000000 0.000000
# 4 0.000000 0.000000 0.000000 0.030123 0.000000 0.000000
# 5 0.000000 0.000000 0.000000 0.000000 0.029322 0.000000
# 6 0.000000 0.000000 0.000000 0.000000 0.000000 0.049324
#
#
# Mechanical properties :
#
#
# Convention : Reuss Voigt Hill
#
# Bulk Modulus (GPa) = 68.63484 74.16498 71.39991
# Shear Modulus (GPa) = 28.86399 31.44556 30.15477
#
# Velocity S-wave (km/s) = 4.11569 4.29580 4.20671
# Velocity P-wave (km/s) = 7.92867 8.25404 8.09299
#
# Compressibility (1/GPa) = 0.01456986
#
# Stress axis : x y z
#
# Youngs Moduli (GPa) = 62.25699 76.96002 124.55001
#
# Poissons Ratio (x) = 0.38953 0.53239
# Poissons Ratio (y) = 0.31511 0.23934
# Poissons Ratio (z) = 0.26612 0.14789
#
# Static dielectric constant tensor:
#      x y z
#    x -0.876230 0.000000 0.000000 
#    y 0.000000 3.235980 0.000000 
#    z 0.000000 0.000000 3.421030 
# 
# 
# High freq. dielectric constant tensor:
#      x y z
#    x 1.633490 0.000000 0.000000 
#    y 0.000000 1.640660 0.000000 
#    z 0.000000 0.000000 1.688140 
# 
# From -- ./inp_files/6966.got.cif
#   From: 2010.03.12/outbox.cif.g09.slc.cpg/sg63_4_cif.got.tgz:6966.got - 2010.04.10 19:34:48.
