data_PCOD8260656
_publ_section_title
;
Structure prediction by ZEFSAII (Michael W. Deem and Ramdas Pophale) SiO2 
 PCOD8260656
Probable space group: C M C M
;
_chemical_formula_sum "Si O2"
_cell_formula_units_Z 72
_cell_length_a 26.755929
_cell_length_b 14.574975
_cell_length_c 8.934669
_cell_angle_alpha 90.000000
_cell_angle_beta 90.000000
_cell_angle_gamma 90.000000
_cell_volume 3484.226033
_symmetry_space_group_name_H-M "C M C M"
_symmetry_group_IT_number 63
_symmetry_cell_setting 'orthorhombic'
loop_
_space_group_symop_operation_xyz
x,y,z
-x,-y,1/2+z
x,-y,-z
-x,y,1/2-z
-x,-y,-z
x,y,1/2-z
-x,y,z
x,-y,1/2+z
1/2+x,1/2+y,z
1/2-x,1/2-y,1/2+z
1/2+x,1/2-y,-z
1/2-x,1/2+y,1/2-z
1/2-x,1/2-y,-z
1/2+x,1/2+y,1/2-z
1/2-x,1/2+y,z
1/2+x,1/2-y,1/2+z
loop_
_atom_site_type_symbol
_atom_site_label
_atom_site_fract_x
_atom_site_fract_y
_atom_site_fract_z
Si Si1 0.000000 0.899551 0.426346
Si Si2 0.828729 0.916490 0.579021
Si Si3 0.373017 0.906057 0.426163
Si Si4 0.235844 0.345305 0.427227
Si Si5 0.916191 0.783292 0.579576
O O1 0.952016 0.839824 0.471461
O O2 0.000000 0.914727 0.250000
O O3 0.000000 0.000000 0.500000
O O4 0.816198 0.939536 0.750000
O O5 0.778006 0.914624 0.483034
O O6 0.860232 0.823339 0.568013
O O7 0.859594 0.000000 0.500000
O O8 0.371925 0.920306 0.250000
O O9 0.317655 0.881603 0.485514
O O10 0.411500 0.823512 0.468060
O O11 0.392547 0.000000 0.500000
O O12 0.235698 0.333773 0.250000
O O13 0.250000 0.250000 0.500000
O O14 0.936040 0.792531 0.750000
#
# Coordination Sequence:
#
# PCOD8260656 Si02
#       5
#     8  16  16  16  16
#     4  12  26  44  69 100 125 154 197 244 310 376
#     4  11  22  37  57  86 121 160 205 250 303 365
#     4  10  22  40  61  89 123 164 209 253 304 359
#     4  11  21  36  57  85 122 165 210 255 304 357
#     4  10  22  43  65  88 123 160 201 253 308 364
#
# _framework density 20.664560999999999
#
# number of rings (size 3 to 8) (size 9 to 14) (size 15 to 20)
#    0.000    1.333    2.222    3.667    0.000    8.000 
#    0.000    0.556    0.000    0.000    0.000    0.000 
#    0.000    0.000    0.000    0.000    0.000    0.000 
#
# Total GULP energy -446370.405727 kJ/mol
# GULP energy per Si atom -12399.177937 kJ/mol
# Density = 2.061753 g / cm^3
# Si number density = 20.664561 Si / 1000 Ang^3
#
#
#
# Elastic Constant Matrix: (Units=GPa)
#
#
# Indices 1 2 3 4 5 6 
#
# 1 78.5065 40.0622 40.8769 0.0000 0.0000 0.0000
# 2 40.0622 169.1194 59.6946 0.0000 0.0000 0.0000
# 3 40.8769 59.6946 106.0028 0.0000 0.0000 0.0000
# 4 0.0000 0.0000 0.0000 42.5810 0.0000 0.0000
# 5 0.0000 0.0000 0.0000 0.0000 30.3680 0.0000
# 6 0.0000 0.0000 0.0000 0.0000 0.0000 25.7699
#
#
#
# Elastic Compliance Matrix: (Units=1/GPa)
#
#
# Indices 1 2 3 4 5 6 
#
# 1 0.016502 -0.002075 -0.005195 0.000000 0.000000 0.000000
# 2 -0.002075 0.007641 -0.003503 0.000000 0.000000 0.000000
# 3 -0.005195 -0.003503 0.013409 0.000000 0.000000 0.000000
# 4 0.000000 0.000000 0.000000 0.023485 0.000000 0.000000
# 5 0.000000 0.000000 0.000000 0.000000 0.032929 0.000000
# 6 0.000000 0.000000 0.000000 0.000000 0.000000 0.038805
#
#
# Mechanical properties :
#
#
# Convention : Reuss Voigt Hill
#
# Bulk Modulus (GPa) = 62.47426 70.54401 66.50914
# Shear Modulus (GPa) = 31.31816 33.94345 32.63081
#
# Velocity S-wave (km/s) = 3.89723 4.05729 3.97806
# Velocity P-wave (km/s) = 7.10981 7.49404 7.30445
#
# Compressibility (1/GPa) = 0.01600659
#
# Stress axis : x y z
#
# Youngs Moduli (GPa) = 60.60005 130.87361 74.57503
#
# Poissons Ratio (x) = 0.27162 0.38739
# Poissons Ratio (y) = 0.12577 0.26121
# Poissons Ratio (z) = 0.31479 0.45840
#
# Static dielectric constant tensor:
#      x y z
#    x 3.945260 0.000000 0.000000 
#    y 0.000000 4.048120 0.000000 
#    z 0.000000 0.000000 3.754730 
# 
# 
# High freq. dielectric constant tensor:
#      x y z
#    x 1.787530 0.000000 0.000000 
#    y 0.000000 1.831310 0.000000 
#    z 0.000000 0.000000 1.803740 
# 
# From -- ./inp_files/11722.got.cif
#   From: 2010.03.12/outbox.cif.g09.slc.cpg/sg63_6_cif.got.tgz:11722.got - 2010.04.10 19:34:48.
