data_PCOD8260415
_publ_section_title
;
Structure prediction by ZEFSAII (Michael W. Deem and Ramdas Pophale) SiO2 
 PCOD8260415
Probable space group: C M C M
;
_chemical_formula_sum "Si O2"
_cell_formula_units_Z 80
_cell_length_a 8.959401
_cell_length_b 29.487901
_cell_length_c 14.658619
_cell_angle_alpha 90.000000
_cell_angle_beta 90.000000
_cell_angle_gamma 90.000000
_cell_volume 3872.718158
_symmetry_space_group_name_H-M "C M C M"
_symmetry_group_IT_number 63
_symmetry_cell_setting 'orthorhombic'
loop_
_space_group_symop_operation_xyz
x,y,z
-x,-y,1/2+z
x,-y,-z
-x,y,1/2-z
-x,-y,-z
x,y,1/2-z
-x,y,z
x,-y,1/2+z
1/2+x,1/2+y,z
1/2-x,1/2-y,1/2+z
1/2+x,1/2-y,-z
1/2-x,1/2+y,1/2-z
1/2-x,1/2-y,-z
1/2+x,1/2+y,1/2-z
1/2-x,1/2+y,z
1/2+x,1/2-y,1/2+z
loop_
_atom_site_type_symbol
_atom_site_label
_atom_site_fract_x
_atom_site_fract_y
_atom_site_fract_z
Si Si1 0.827628 0.637646 0.142800
Si Si2 0.325145 0.140188 0.644261
Si Si3 0.334884 0.039045 0.641639
Si Si4 0.323072 0.298809 0.502813
Si Si5 0.165944 0.952578 0.641519
O O1 0.803128 0.644155 0.250000
O O2 0.771285 0.588460 0.109381
O O3 0.000000 0.641983 0.114909
O O4 0.732871 0.676256 0.093679
O O5 0.290446 0.148967 0.750000
O O6 0.500000 0.147767 0.623858
O O7 0.277520 0.089174 0.614785
O O8 0.225263 0.174476 0.587389
O O9 0.342030 0.035801 0.750000
O O10 0.500000 0.030857 0.601784
O O11 0.227570 0.000083 0.601245
O O12 0.500000 0.294154 0.505897
O O13 0.250000 0.250000 0.500000
O O14 0.163627 0.954987 0.750000
O O15 0.000000 0.944616 0.602868
#
# Coordination Sequence:
#
# PCOD8260415 Si02
#       5
#    16  16  16  16  16
#     4  10  21  39  63  88 116 152 194 239 288 344
#     4   9  19  38  63  89 119 155 194 237 286 341
#     4   8  14  27  50  80 114 153 192 228 273 331
#     4  12  26  43  63  86 115 149 189 241 295 349
#     4   9  16  27  48  81 119 155 190 230 278 333
#
# _framework density 20.657326000000001
#
# number of rings (size 3 to 8) (size 9 to 14) (size 15 to 20)
#    0.000    2.400    0.000    4.200    0.000    5.600 
#    0.000    3.000    0.000    6.000    0.000    0.000 
#    0.000    0.000    0.000    0.000    0.000    0.000 
#
# Total GULP energy -495985.473478 kJ/mol
# GULP energy per Si atom -12399.636837 kJ/mol
# Density = 2.061031 g / cm^3
# Si number density = 20.657326 Si / 1000 Ang^3
#
#
#
# Elastic Constant Matrix: (Units=GPa)
#
#
# Indices 1 2 3 4 5 6 
#
# 1 164.6818 95.4370 47.4769 0.0000 0.0000 0.0000
# 2 95.4370 183.5245 48.3165 0.0000 0.0000 0.0000
# 3 47.4769 48.3165 63.5634 0.0000 0.0000 0.0000
# 4 0.0000 0.0000 0.0000 45.5348 0.0000 0.0000
# 5 0.0000 0.0000 0.0000 0.0000 28.3897 0.0000
# 6 0.0000 0.0000 0.0000 0.0000 0.0000 40.6435
#
#
#
# Elastic Compliance Matrix: (Units=1/GPa)
#
#
# Indices 1 2 3 4 5 6 
#
# 1 0.009503 -0.003842 -0.004178 0.000000 0.000000 0.000000
# 2 -0.003842 0.008365 -0.003489 0.000000 0.000000 0.000000
# 3 -0.004178 -0.003489 0.021505 0.000000 0.000000 0.000000
# 4 0.000000 0.000000 0.000000 0.021961 0.000000 0.000000
# 5 0.000000 0.000000 0.000000 0.000000 0.035224 0.000000
# 6 0.000000 0.000000 0.000000 0.000000 0.000000 0.024604
#
#
# Mechanical properties :
#
#
# Convention : Reuss Voigt Hill
#
# Bulk Modulus (GPa) = 61.14020 88.24782 74.69401
# Shear Modulus (GPa) = 33.41514 37.61623 35.51569
#
# Velocity S-wave (km/s) = 4.02629 4.27190 4.15092
# Velocity P-wave (km/s) = 7.16075 8.19419 7.69484
#
# Compressibility (1/GPa) = 0.01635585
#
# Stress axis : x y z
#
# Youngs Moduli (GPa) = 105.22650 119.54007 46.50096
#
# Poissons Ratio (x) = 0.45928 0.19427
# Poissons Ratio (y) = 0.40429 0.16225
# Poissons Ratio (z) = 0.43961 0.41708
#
# Static dielectric constant tensor:
#      x y z
#    x 3.856990 0.000000 0.000000 
#    y 0.000000 3.925500 0.000000 
#    z 0.000000 0.000000 3.500950 
# 
# 
# High freq. dielectric constant tensor:
#      x y z
#    x 1.808340 0.000000 0.000000 
#    y 0.000000 1.812620 0.000000 
#    z 0.000000 0.000000 1.795770 
# 
# From -- ./inp_files/40542.got.cif
#   From: 2010.03.12/outbox.cif.g09.slc.cpg/sg63_21_cif.got.tgz:40542.got - 2010.04.10 19:34:48.
