data_PCOD8260669
_publ_section_title
;
Structure prediction by ZEFSAII (Michael W. Deem and Ramdas Pophale) SiO2 
 PCOD8260669
Probable space group: C M C M
;
_chemical_formula_sum "Si O2"
_cell_formula_units_Z 112
_cell_length_a 13.610752
_cell_length_b 13.424475
_cell_length_c 30.557000
_cell_angle_alpha 90.000000
_cell_angle_beta 90.000000
_cell_angle_gamma 90.000000
_cell_volume 5583.289479
_symmetry_space_group_name_H-M "C M C M"
_symmetry_group_IT_number 63
_symmetry_cell_setting 'orthorhombic'
loop_
_space_group_symop_operation_xyz
x,y,z
-x,-y,1/2+z
x,-y,-z
-x,y,1/2-z
-x,-y,-z
x,y,1/2-z
-x,y,z
x,-y,1/2+z
1/2+x,1/2+y,z
1/2-x,1/2-y,1/2+z
1/2+x,1/2-y,-z
1/2-x,1/2+y,1/2-z
1/2-x,1/2-y,-z
1/2+x,1/2+y,1/2-z
1/2-x,1/2+y,z
1/2+x,1/2-y,1/2+z
loop_
_atom_site_type_symbol
_atom_site_label
_atom_site_fract_x
_atom_site_fract_y
_atom_site_fract_z
Si Si1 0.718670 0.691933 0.156403
Si Si2 0.612525 0.959339 0.636039
Si Si3 0.386017 0.752147 0.427532
Si Si4 0.289077 0.891316 0.200578
Si Si5 0.310173 0.044092 0.548710
Si Si6 0.394837 0.530397 0.451097
Si Si7 0.109188 0.023393 0.200550
O O1 0.822521 0.636920 0.148872
O O2 0.682146 0.752975 0.114863
O O3 0.722077 0.772876 0.194864
O O4 0.635676 0.611152 0.167258
O O5 0.500000 0.929318 0.644134
O O6 0.637824 0.054089 0.666769
O O7 0.623549 0.988467 0.584838
O O8 0.500000 0.772426 0.416117
O O9 0.342900 0.841591 0.456839
O O10 0.370782 0.647853 0.452017
O O11 0.326101 0.913185 0.250000
O O12 0.179439 0.930558 0.192745
O O13 0.197991 0.031325 0.567546
O O14 0.321014 0.000000 0.500000
O O15 0.411824 0.500000 0.500000
O O16 0.500000 0.510180 0.425942
O O17 0.119061 0.064459 0.250000
O O18 0.000000 0.986261 0.190098
#
# Coordination Sequence:
#
# PCOD8260669 Si02
#       7
#    16  16  16  16  16  16  16
#     4  11  21  38  60  87 121 157 199 253 303 362
#     4  11  24  42  61  91 129 165 210 260 316 375
#     4  11  22  38  61  88 118 160 202 249 307 366
#     4  10  22  40  63  88 121 161 201 248 308 373
#     4  11  23  40  66  90 126 165 212 261 315 372
#     4   9  20  40  63  88 119 157 203 252 306 369
#     4   9  19  36  59  87 115 147 192 243 296 359
#
# _framework density 20.059858999999999
#
# number of rings (size 3 to 8) (size 9 to 14) (size 15 to 20)
#    0.000    1.714    2.857    1.286    0.000    5.429 
#    0.000    0.714    0.000    0.000    0.000    0.000 
#    0.000    0.000    0.000    0.000    0.000    0.000 
#
# Total GULP energy -694113.553915 kJ/mol
# GULP energy per Si atom -12394.884891 kJ/mol
# Density = 2.001420 g / cm^3
# Si number density = 20.059859 Si / 1000 Ang^3
#
#
#
# Elastic Constant Matrix: (Units=GPa)
#
#
# Indices 1 2 3 4 5 6 
#
# 1 151.1663 48.9659 23.4127 0.0000 0.0000 0.0000
# 2 48.9659 97.4008 23.8307 0.0000 0.0000 0.0000
# 3 23.4127 23.8307 78.6150 0.0000 0.0000 0.0000
# 4 0.0000 0.0000 0.0000 33.8795 0.0000 0.0000
# 5 0.0000 0.0000 0.0000 0.0000 24.4966 0.0000
# 6 0.0000 0.0000 0.0000 0.0000 0.0000 24.6902
#
#
#
# Elastic Compliance Matrix: (Units=1/GPa)
#
#
# Indices 1 2 3 4 5 6 
#
# 1 0.008016 -0.003722 -0.001259 0.000000 0.000000 0.000000
# 2 -0.003722 0.012817 -0.002777 0.000000 0.000000 0.000000
# 3 -0.001259 -0.002777 0.013937 0.000000 0.000000 0.000000
# 4 0.000000 0.000000 0.000000 0.029516 0.000000 0.000000
# 5 0.000000 0.000000 0.000000 0.000000 0.040822 0.000000
# 6 0.000000 0.000000 0.000000 0.000000 0.000000 0.040502
#
#
# Mechanical properties :
#
#
# Convention : Reuss Voigt Hill
#
# Bulk Modulus (GPa) = 51.93558 57.73342 54.83450
# Shear Modulus (GPa) = 29.84294 32.01145 30.92719
#
# Velocity S-wave (km/s) = 3.86125 3.99908 3.93077
# Velocity P-wave (km/s) = 6.76945 7.08283 6.92792
#
# Compressibility (1/GPa) = 0.01925462
#
# Stress axis : x y z
#
# Youngs Moduli (GPa) = 124.75410 78.01974 71.75164
#
# Poissons Ratio (x) = 0.29037 0.09034
# Poissons Ratio (y) = 0.46430 0.19925
# Poissons Ratio (z) = 0.15707 0.21666
#
# Static dielectric constant tensor:
#      x y z
#    x 4.029820 0.000000 0.000000 
#    y 0.000000 4.080480 0.000000 
#    z 0.000000 0.000000 3.671950 
# 
# 
# High freq. dielectric constant tensor:
#      x y z
#    x 1.789440 0.000000 0.000000 
#    y 0.000000 1.778640 0.000000 
#    z 0.000000 0.000000 1.780770 
# 
# From -- ./inp_files/73426.got.cif
#   From: 2010.03.12/outbox.cif.g09.slc.cpg/sg63_37_cif.got.tgz:73426.got - 2010.04.10 19:34:48.
