data_PCOD8260051
_publ_section_title
;
Structure prediction by ZEFSAII (Michael W. Deem and Ramdas Pophale) SiO2 
 PCOD8260051
Probable space group: C M C M
;
_chemical_formula_sum "Si O2"
_cell_formula_units_Z 80
_cell_length_a 16.881582
_cell_length_b 16.754074
_cell_length_c 14.415386
_cell_angle_alpha 90.000000
_cell_angle_beta 90.000000
_cell_angle_gamma 90.000000
_cell_volume 4077.179650
_symmetry_space_group_name_H-M "C M C M"
_symmetry_group_IT_number 63
_symmetry_cell_setting 'orthorhombic'
loop_
_space_group_symop_operation_xyz
x,y,z
-x,-y,1/2+z
x,-y,-z
-x,y,1/2-z
-x,-y,-z
x,y,1/2-z
-x,y,z
x,-y,1/2+z
1/2+x,1/2+y,z
1/2-x,1/2-y,1/2+z
1/2+x,1/2-y,-z
1/2-x,1/2+y,1/2-z
1/2-x,1/2-y,-z
1/2+x,1/2+y,1/2-z
1/2-x,1/2+y,z
1/2+x,1/2-y,1/2+z
loop_
_atom_site_type_symbol
_atom_site_label
_atom_site_fract_x
_atom_site_fract_y
_atom_site_fract_z
Si Si1 0.822029 0.958369 0.853395
Si Si2 0.685016 0.088731 0.488620
Si Si3 0.300482 0.366391 0.141784
Si Si4 0.905731 0.260569 0.959168
Si Si5 0.590874 0.692796 0.150345
O O1 0.786089 0.957875 0.750000
O O2 0.757290 0.918309 0.918421
O O3 0.899320 0.902767 0.861788
O O4 0.845081 0.049175 0.879626
O O5 0.718193 0.127909 0.584299
O O6 0.618199 0.146856 0.445434
O O7 0.647286 0.000000 0.500000
O O8 0.279820 0.355408 0.250000
O O9 0.358810 0.294862 0.112974
O O10 0.000000 0.249418 0.945352
O O11 0.873778 0.238097 0.061981
O O12 0.630226 0.719218 0.250000
O O13 0.500000 0.714187 0.154990
#
# Coordination Sequence:
#
# PCOD8260051 Si02
#       5
#    16  16  16  16  16
#     4   9  18  34  57  82 110 145 185 228 275 328
#     4  10  21  39  58  80 109 144 193 234 274 321
#     4  10  21  36  56  84 114 146 184 227 279 333
#     4  11  23  37  55  83 115 147 184 226 279 333
#     4   9  18  32  52  80 112 145 181 223 274 331
#
# _framework density 19.621407000000001
#
# number of rings (size 3 to 8) (size 9 to 14) (size 15 to 20)
#    0.000    2.200    2.000    0.600    0.000    3.200 
#    0.000    4.000    0.000    0.000    0.000    8.400 
#    0.000    0.000    0.000    0.000    0.000    0.000 
#
# Total GULP energy -495551.868051 kJ/mol
# GULP energy per Si atom -12388.796701 kJ/mol
# Density = 1.957675 g / cm^3
# Si number density = 19.621407 Si / 1000 Ang^3
#
#
#
# Elastic Constant Matrix: (Units=GPa)
#
#
# Indices 1 2 3 4 5 6 
#
# 1 38.1074 41.8511 22.9516 0.0000 0.0000 0.0000
# 2 41.8511 125.5881 32.3551 0.0000 0.0000 0.0000
# 3 22.9516 32.3551 94.3450 0.0000 0.0000 0.0000
# 4 0.0000 0.0000 0.0000 19.6340 0.0000 0.0000
# 5 0.0000 0.0000 0.0000 0.0000 8.9878 0.0000
# 6 0.0000 0.0000 0.0000 0.0000 0.0000 27.9682
#
#
#
# Elastic Compliance Matrix: (Units=1/GPa)
#
#
# Indices 1 2 3 4 5 6 
#
# 1 0.044565 -0.013226 -0.006306 0.000000 0.000000 0.000000
# 2 -0.013226 0.012660 -0.001124 0.000000 0.000000 0.000000
# 3 -0.006306 -0.001124 0.012519 0.000000 0.000000 0.000000
# 4 0.000000 0.000000 0.000000 0.050932 0.000000 0.000000
# 5 0.000000 0.000000 0.000000 0.000000 0.111262 0.000000
# 6 0.000000 0.000000 0.000000 0.000000 0.000000 0.035755
#
#
# Mechanical properties :
#
#
# Convention : Reuss Voigt Hill
#
# Bulk Modulus (GPa) = 35.17191 50.26181 42.71686
# Shear Modulus (GPa) = 15.69947 22.04352 18.87149
#
# Velocity S-wave (km/s) = 2.83171 3.35542 3.10462
# Velocity P-wave (km/s) = 5.35309 6.37834 5.88807
#
# Compressibility (1/GPa) = 0.02843178
#
# Stress axis : x y z
#
# Youngs Moduli (GPa) = 22.43905 78.99098 79.87972
#
# Poissons Ratio (x) = 1.04477 0.50369
# Poissons Ratio (y) = 0.29679 0.08978
# Poissons Ratio (z) = 0.14149 0.08878
#
# Static dielectric constant tensor:
#      x y z
#    x 3.085570 0.000000 0.000000 
#    y 0.000000 3.725140 0.000000 
#    z 0.000000 0.000000 4.060310 
# 
# 
# High freq. dielectric constant tensor:
#      x y z
#    x 1.719360 0.000000 0.000000 
#    y 0.000000 1.772060 0.000000 
#    z 0.000000 0.000000 1.779360 
# 
# From -- ./inp_files/35123.got.cif
#   From: 2010.03.12/outbox.cif.g09.slc.cpg/sg63_18_cif.got.tgz:35123.got - 2010.04.10 19:34:48.
