data_PCOD8260508
_publ_section_title
;
Structure prediction by ZEFSAII (Michael W. Deem and Ramdas Pophale) SiO2 
 PCOD8260508
Probable space group: C M C M
;
_chemical_formula_sum "Si O2"
_cell_formula_units_Z 72
_cell_length_a 10.508579
_cell_length_b 14.468041
_cell_length_c 24.566274
_cell_angle_alpha 90.000000
_cell_angle_beta 90.000000
_cell_angle_gamma 90.000000
_cell_volume 3735.020723
_symmetry_space_group_name_H-M "C M C M"
_symmetry_group_IT_number 63
_symmetry_cell_setting 'orthorhombic'
loop_
_space_group_symop_operation_xyz
x,y,z
-x,-y,1/2+z
x,-y,-z
-x,y,1/2-z
-x,-y,-z
x,y,1/2-z
-x,y,z
x,-y,1/2+z
1/2+x,1/2+y,z
1/2-x,1/2-y,1/2+z
1/2+x,1/2-y,-z
1/2-x,1/2+y,1/2-z
1/2-x,1/2-y,-z
1/2+x,1/2+y,1/2-z
1/2-x,1/2+y,z
1/2+x,1/2-y,1/2+z
loop_
_atom_site_type_symbol
_atom_site_label
_atom_site_fract_x
_atom_site_fract_y
_atom_site_fract_z
Si Si1 0.245828 0.886436 0.361078
Si Si2 0.500000 0.178756 0.812191
Si Si3 0.249744 0.286683 0.561061
Si Si4 0.000000 0.853492 0.887413
Si Si5 0.857131 0.474786 0.559952
Si Si6 0.500000 0.534109 0.812898
O O1 0.373255 0.879150 0.325326
O O2 0.222973 0.795421 0.397085
O O3 0.124257 0.902500 0.322751
O O4 0.261276 0.975841 0.398959
O O5 0.500000 0.205443 0.750000
O O6 0.500000 0.274289 0.843068
O O7 0.250000 0.250000 0.500000
O O8 0.379991 0.341274 0.573092
O O9 0.140952 0.364115 0.568076
O O10 0.000000 0.949416 0.854942
O O11 0.808512 0.500000 0.500000
O O12 0.000000 0.513276 0.568879
O O13 0.500000 0.500551 0.750000
#
# Coordination Sequence:
#
# PCOD8260508 Si02
#       6
#    16   8  16   8  16   8
#     4  11  23  40  62  92 121 160 207 254 309 369
#     4  10  21  42  64  83 111 160 214 256 295 361
#     4  11  23  38  61  92 127 161 194 248 311 384
#     4  10  23  39  63  87 119 160 211 247 308 369
#     4  11  22  38  61  90 125 164 200 242 306 380
#     4  12  25  43  62  89 126 167 213 275 319 346
#
# _framework density 19.277002
#
# number of rings (size 3 to 8) (size 9 to 14) (size 15 to 20)
#    0.000    1.111    5.556    1.000    3.111    0.000 
#    0.000    2.222    0.000    1.333    0.000    0.000 
#    0.000    0.000    0.000    0.000    0.000    0.000 
#
# Total GULP energy -446436.277883 kJ/mol
# GULP energy per Si atom -12401.007719 kJ/mol
# Density = 1.923313 g / cm^3
# Si number density = 19.277002 Si / 1000 Ang^3
#
#
#
# Elastic Constant Matrix: (Units=GPa)
#
#
# Indices 1 2 3 4 5 6 
#
# 1 116.0644 27.2459 45.4197 0.0000 0.0000 0.0000
# 2 27.2459 98.9149 20.7545 0.0000 0.0000 0.0000
# 3 45.4197 20.7545 100.7015 0.0000 0.0000 0.0000
# 4 0.0000 0.0000 0.0000 14.5297 0.0000 0.0000
# 5 0.0000 0.0000 0.0000 0.0000 19.5397 0.0000
# 6 0.0000 0.0000 0.0000 0.0000 0.0000 25.9171
#
#
#
# Elastic Compliance Matrix: (Units=1/GPa)
#
#
# Indices 1 2 3 4 5 6 
#
# 1 0.010846 -0.002050 -0.004470 0.000000 0.000000 0.000000
# 2 -0.002050 0.010954 -0.001333 0.000000 0.000000 0.000000
# 3 -0.004470 -0.001333 0.012221 0.000000 0.000000 0.000000
# 4 0.000000 0.000000 0.000000 0.068825 0.000000 0.000000
# 5 0.000000 0.000000 0.000000 0.000000 0.051178 0.000000
# 6 0.000000 0.000000 0.000000 0.000000 0.000000 0.038585
#
#
# Mechanical properties :
#
#
# Convention : Reuss Voigt Hill
#
# Bulk Modulus (GPa) = 54.59589 55.83568 55.21579
# Shear Modulus (GPa) = 23.31889 26.81467 25.06678
#
# Velocity S-wave (km/s) = 3.48181 3.73368 3.60994
# Velocity P-wave (km/s) = 6.67437 6.90036 6.78831
#
# Compressibility (1/GPa) = 0.01831640
#
# Stress axis : x y z
#
# Youngs Moduli (GPa) = 92.19858 91.29074 81.82644
#
# Poissons Ratio (x) = 0.18712 0.36573
# Poissons Ratio (y) = 0.18898 0.10908
# Poissons Ratio (z) = 0.41208 0.12170
#
# Static dielectric constant tensor:
#      x y z
#    x 3.589550 0.000000 0.000000 
#    y 0.000000 3.585510 0.000000 
#    z 0.000000 0.000000 3.417210 
# 
# 
# High freq. dielectric constant tensor:
#      x y z
#    x 1.756010 0.000000 0.000000 
#    y 0.000000 1.757230 0.000000 
#    z 0.000000 0.000000 1.746320 
# 
# From -- ./inp_files/66378.got.cif
#   From: 2010.03.12/outbox.cif.g09.slc.cpg/sg63_34_cif.got.tgz:66378.got - 2010.04.10 19:34:48.
