data_PCOD8260551
_publ_section_title
;
Structure prediction by ZEFSAII (Michael W. Deem and Ramdas Pophale) SiO2 
 PCOD8260551
Probable space group: C M C M
;
_chemical_formula_sum "Si O2"
_cell_formula_units_Z 96
_cell_length_a 11.978635
_cell_length_b 29.447039
_cell_length_c 14.110062
_cell_angle_alpha 90.000000
_cell_angle_beta 90.000000
_cell_angle_gamma 90.000000
_cell_volume 4977.117404
_symmetry_space_group_name_H-M "C M C M"
_symmetry_group_IT_number 63
_symmetry_cell_setting 'orthorhombic'
loop_
_space_group_symop_operation_xyz
x,y,z
-x,-y,1/2+z
x,-y,-z
-x,y,1/2-z
-x,-y,-z
x,y,1/2-z
-x,y,z
x,-y,1/2+z
1/2+x,1/2+y,z
1/2-x,1/2-y,1/2+z
1/2+x,1/2-y,-z
1/2-x,1/2+y,1/2-z
1/2-x,1/2-y,-z
1/2+x,1/2+y,1/2-z
1/2-x,1/2+y,z
1/2+x,1/2-y,1/2+z
loop_
_atom_site_type_symbol
_atom_site_label
_atom_site_fract_x
_atom_site_fract_y
_atom_site_fract_z
Si Si1 0.789938 0.142034 0.026248
Si Si2 0.628814 0.201785 0.139880
Si Si3 0.000000 0.170269 0.137059
Si Si4 0.183490 0.552850 0.000269
Si Si5 0.500000 0.051865 0.147895
Si Si6 0.000000 0.554273 0.852452
Si Si7 0.745645 0.204260 0.639497
Si Si8 0.000000 0.728324 0.861425
O O1 0.678712 0.160959 0.077669
O O2 0.784953 0.088105 0.003309
O O3 0.891617 0.145760 0.097719
O O4 0.809150 0.167989 0.926334
O O5 0.636551 0.188628 0.250000
O O6 0.500000 0.210150 0.109509
O O7 0.702355 0.246427 0.119292
O O8 0.000000 0.167275 0.250000
O O9 0.000000 0.221219 0.096275
O O10 0.110976 0.564664 0.092316
O O11 0.222554 0.500000 0.000000
O O12 0.111800 0.566844 0.908382
O O13 0.500000 0.076950 0.250000
O O14 0.500000 0.998729 0.162570
O O15 0.000000 0.579410 0.750000
O O16 0.761123 0.191114 0.750000
O O17 0.614395 0.203201 0.608191
O O18 0.000000 0.734104 0.750000
#
# Coordination Sequence:
#
# PCOD8260551 Si02
#       8
#    16  16   8  16   8   8  16   8
#     4  12  24  36  61  84 110 157 196 234 290 343
#     4  10  22  37  56  87 121 147 186 244 293 338
#     4  11  24  42  60  83 111 145 198 243 285 346
#     4   9  20  36  52  83 120 147 189 239 281 333
#     4   8  15  30  54  80 109 150 184 219 285 347
#     4   8  15  32  57  79 112 157 186 217 276 344
#     4  10  22  38  57  85 119 155 193 234 279 338
#     4   9  18  36  57  80 117 154 182 227 275 323
#
# _framework density 19.288271999999999
#
# number of rings (size 3 to 8) (size 9 to 14) (size 15 to 20)
#    0.000    2.167    1.667    2.000    4.667    2.000 
#    0.000    1.250    0.000    0.000    0.000    0.000 
#    0.000    0.000    0.000    0.000    0.000    0.000 
#
# Total GULP energy -594982.465747 kJ/mol
# GULP energy per Si atom -12395.468036 kJ/mol
# Density = 1.924437 g / cm^3
# Si number density = 19.288272 Si / 1000 Ang^3
#
#
#
# Elastic Constant Matrix: (Units=GPa)
#
#
# Indices 1 2 3 4 5 6 
#
# 1 84.5747 23.0093 38.2418 0.0000 0.0000 0.0000
# 2 23.0093 96.5982 41.2440 0.0000 0.0000 0.0000
# 3 38.2418 41.2440 109.5052 0.0000 0.0000 0.0000
# 4 0.0000 0.0000 0.0000 14.5881 0.0000 0.0000
# 5 0.0000 0.0000 0.0000 0.0000 27.1883 0.0000
# 6 0.0000 0.0000 0.0000 0.0000 0.0000 -4.7308
#
#
#
# Elastic Compliance Matrix: (Units=1/GPa)
#
#
# Indices 1 2 3 4 5 6 
#
# 1 0.014224 -0.001510 -0.004398 0.000000 0.000000 0.000000
# 2 -0.001510 0.012496 -0.004179 0.000000 0.000000 0.000000
# 3 -0.004398 -0.004179 0.012242 0.000000 0.000000 0.000000
# 4 0.000000 0.000000 0.000000 0.068549 0.000000 0.000000
# 5 0.000000 0.000000 0.000000 0.000000 0.036780 0.000000
# 6 0.000000 0.000000 0.000000 0.000000 0.000000 -0.211379
#
#
# Mechanical properties :
#
#
# Convention : Reuss Voigt Hill
#
# Bulk Modulus (GPa) = 53.22990 55.07424 54.15207
# Shear Modulus (GPa) = -123.00176 19.95464 -51.52356
#
# Velocity S-wave (km/s) = -7.99429 3.21993 -5.17401
# Velocity P-wave (km/s) = 7.58648 6.51453 2.74914
#
# Compressibility (1/GPa) = 0.01878643
#
# Stress axis : x y z
#
# Youngs Moduli (GPa) = 70.30609 80.02415 81.68533
#
# Poissons Ratio (x) = 0.12084 0.35929
# Poissons Ratio (y) = 0.10616 0.34138
# Poissons Ratio (z) = 0.30924 0.33444
#
# Static dielectric constant tensor:
#      x y z
#    x 3.248650 0.000000 0.000000 
#    y 0.000000 3.264520 0.000000 
#    z 0.000000 0.000000 -5.515900 
# 
# 
# High freq. dielectric constant tensor:
#      x y z
#    x 1.726380 0.000000 0.000000 
#    y 0.000000 1.730000 0.000000 
#    z 0.000000 0.000000 1.768260 
# 
# From -- ./inp_files/30364.got.cif
#   From: 2010.03.12/outbox.cif.g09.slc.cpg/sg63_16_cif.got.tgz:30364.got - 2010.04.10 19:34:48.
