data_PCOD8260004
_publ_section_title
;
Structure prediction by ZEFSAII (Michael W. Deem and Ramdas Pophale) SiO2 
 PCOD8260004
Probable space group: C M C M
;
_chemical_formula_sum "Si O2"
_cell_formula_units_Z 80
_cell_length_a 9.062447
_cell_length_b 19.072775
_cell_length_c 25.122369
_cell_angle_alpha 90.000000
_cell_angle_beta 90.000000
_cell_angle_gamma 90.000000
_cell_volume 4342.301308
_symmetry_space_group_name_H-M "C M C M"
_symmetry_group_IT_number 63
_symmetry_cell_setting 'orthorhombic'
loop_
_space_group_symop_operation_xyz
x,y,z
-x,-y,1/2+z
x,-y,-z
-x,y,1/2-z
-x,-y,-z
x,y,1/2-z
-x,y,z
x,-y,1/2+z
1/2+x,1/2+y,z
1/2-x,1/2-y,1/2+z
1/2+x,1/2-y,-z
1/2-x,1/2+y,1/2-z
1/2-x,1/2-y,-z
1/2+x,1/2+y,1/2-z
1/2-x,1/2+y,z
1/2+x,1/2-y,1/2+z
loop_
_atom_site_type_symbol
_atom_site_label
_atom_site_fract_x
_atom_site_fract_y
_atom_site_fract_z
Si Si1 0.831823 0.554467 0.047196
Si Si2 0.331416 0.299890 0.661135
Si Si3 0.824968 0.945535 0.250000
Si Si4 0.825322 0.786532 0.250000
Si Si5 0.828368 0.802868 0.960902
Si Si6 0.326549 0.460859 0.652772
O O1 0.739448 0.621339 0.029172
O O2 0.761907 0.519523 0.099643
O O3 0.000000 0.576523 0.059120
O O4 0.822508 0.500000 0.000000
O O5 0.500000 0.286034 0.677734
O O6 0.228192 0.252026 0.697062
O O7 0.303388 0.278866 0.599934
O O8 0.291653 0.381300 0.670595
O O9 0.764197 0.866260 0.250000
O O10 0.000000 0.947255 0.250000
O O11 0.768017 0.986366 0.302116
O O12 0.000000 0.786607 0.250000
O O13 0.000000 0.806388 0.974831
O O14 0.750000 0.750000 0.000000
O O15 0.500000 0.469110 0.641107
#
# Coordination Sequence:
#
# PCOD8260004 Si02
#       6
#    16  16   8   8  16  16
#     4  10  21  36  54  80 113 143 176 221 268 317
#     4   9  19  36  56  76 101 138 178 215 261 316
#     4   9  19  35  53  77 106 133 170 220 268 313
#     4  11  22  33  51  81 110 137 172 218 268 317
#     4  10  21  37  58  82 108 142 183 224 270 322
#     4   9  18  36  59  76  97 137 184 221 258 312
#
# _framework density 18.423410000000001
#
# number of rings (size 3 to 8) (size 9 to 14) (size 15 to 20)
#    0.000    2.400    0.000    3.300    0.000    8.800 
#    0.000    6.500    0.000    0.000    0.000    0.000 
#    0.000    0.000    0.000    0.000    0.000    0.000 
#
# Total GULP energy -496082.329871 kJ/mol
# GULP energy per Si atom -12402.058247 kJ/mol
# Density = 1.838148 g / cm^3
# Si number density = 18.423410 Si / 1000 Ang^3
#
#
#
# Elastic Constant Matrix: (Units=GPa)
#
#
# Indices 1 2 3 4 5 6 
#
# 1 104.7523 57.8704 65.3984 0.0000 0.0000 0.0000
# 2 57.8704 106.7908 75.6435 0.0000 0.0000 0.0000
# 3 65.3984 75.6435 119.2126 0.0000 0.0000 0.0000
# 4 0.0000 0.0000 0.0000 32.8425 0.0000 0.0000
# 5 0.0000 0.0000 0.0000 0.0000 36.8787 0.0000
# 6 0.0000 0.0000 0.0000 0.0000 0.0000 29.3777
#
#
#
# Elastic Compliance Matrix: (Units=1/GPa)
#
#
# Indices 1 2 3 4 5 6 
#
# 1 0.015548 -0.004330 -0.005782 0.000000 0.000000 0.000000
# 2 -0.004330 0.018215 -0.009182 0.000000 0.000000 0.000000
# 3 -0.005782 -0.009182 0.017387 0.000000 0.000000 0.000000
# 4 0.000000 0.000000 0.000000 0.030448 0.000000 0.000000
# 5 0.000000 0.000000 0.000000 0.000000 0.027116 0.000000
# 6 0.000000 0.000000 0.000000 0.000000 0.000000 0.034039
#
#
# Mechanical properties :
#
#
# Convention : Reuss Voigt Hill
#
# Bulk Modulus (GPa) = 79.61199 80.95339 80.28269
# Shear Modulus (GPa) = 26.94993 28.60933 27.77963
#
# Velocity S-wave (km/s) = 3.82882 3.94493 3.88731
# Velocity P-wave (km/s) = 7.92797 8.04897 7.98870
#
# Compressibility (1/GPa) = 0.01256092
#
# Stress axis : x y z
#
# Youngs Moduli (GPa) = 64.31575 54.90062 57.51515
#
# Poissons Ratio (x) = 0.23772 0.33255
# Poissons Ratio (y) = 0.27849 0.52812
# Poissons Ratio (z) = 0.37188 0.50411
#
# Static dielectric constant tensor:
#      x y z
#    x 3.413320 0.000000 0.000000 
#    y 0.000000 3.217960 0.000000 
#    z 0.000000 0.000000 3.250530 
# 
# 
# High freq. dielectric constant tensor:
#      x y z
#    x 1.711980 0.000000 0.000000 
#    y 0.000000 1.710890 0.000000 
#    z 0.000000 0.000000 1.724270 
# 
# From -- ./inp_files/66679.got.cif
#   From: 2010.03.12/outbox.cif.g09.slc.cpg/sg63_34_cif.got.tgz:66679.got - 2010.04.10 19:34:48.
