data_PCOD8260254
_publ_section_title
;
Structure prediction by ZEFSAII (Michael W. Deem and Ramdas Pophale) SiO2 
 PCOD8260254
Probable space group: C M C M
;
_chemical_formula_sum "Si O2"
_cell_formula_units_Z 88
_cell_length_a 15.886977
_cell_length_b 9.532669
_cell_length_c 29.449415
_cell_angle_alpha 90.000000
_cell_angle_beta 90.000000
_cell_angle_gamma 90.000000
_cell_volume 4459.975288
_symmetry_space_group_name_H-M "C M C M"
_symmetry_group_IT_number 63
_symmetry_cell_setting 'orthorhombic'
loop_
_space_group_symop_operation_xyz
x,y,z
-x,-y,1/2+z
x,-y,-z
-x,y,1/2-z
-x,-y,-z
x,y,1/2-z
-x,y,z
x,-y,1/2+z
1/2+x,1/2+y,z
1/2-x,1/2-y,1/2+z
1/2+x,1/2-y,-z
1/2-x,1/2+y,1/2-z
1/2-x,1/2-y,-z
1/2+x,1/2+y,1/2-z
1/2-x,1/2+y,z
1/2+x,1/2-y,1/2+z
loop_
_atom_site_type_symbol
_atom_site_label
_atom_site_fract_x
_atom_site_fract_y
_atom_site_fract_z
Si Si1 0.403329 0.032109 0.750000
Si Si2 0.322635 0.464711 0.552865
Si Si3 0.826523 0.270931 0.580977
Si Si4 0.816613 0.810881 0.750000
Si Si5 0.830967 0.315751 0.814022
Si Si6 0.406112 0.601123 0.750000
Si Si7 0.500000 0.728389 0.535926
Si Si8 0.500000 0.602188 0.052063
O O1 0.500000 0.992928 0.750000
O O2 0.392165 0.199543 0.750000
O O3 0.361385 0.965816 0.794957
O O4 0.342155 0.500000 0.500000
O O5 0.243978 0.360421 0.555031
O O6 0.300987 0.607549 0.579466
O O7 0.406912 0.391881 0.575968
O O8 0.832180 0.322172 0.632292
O O9 0.917152 0.297749 0.557772
O O10 0.762310 0.784505 0.704618
O O11 0.845972 0.969251 0.750000
O O12 0.891683 0.193372 0.795214
O O13 0.500000 0.543392 0.750000
O O14 0.500000 0.560763 0.537313
O O15 0.500000 0.739385 0.481260
#
# Coordination Sequence:
#
# PCOD8260254 Si02
#       8
#     8  16  16   8  16   8   8   8
#     4  10  21  38  61  82 118 156 182 232 297 352
#     4  11  21  40  60  89 116 160 196 247 293 353
#     4  11  24  35  64  87 121 151 203 240 294 343
#     4  10  21  38  61  82 122 148 186 236 299 339
#     4  10  21  38  57  85 117 155 193 229 285 354
#     4  10  21  38  63  90 112 148 196 242 279 344
#     4   9  18  36  56  86 110 158 189 251 270 362
#     4   9  16  38  61  78 115 153 206 229 309 331
#
# _framework density 19.731051000000001
#
# number of rings (size 3 to 8) (size 9 to 14) (size 15 to 20)
#    0.000    2.000    3.636    4.091    7.636    0.000 
#    0.000    1.364    2.000    0.000    0.000    0.000 
#    0.000    0.000    0.000    0.000    0.000    0.000 
#
# Total GULP energy -545098.314491 kJ/mol
# GULP energy per Si atom -12388.598057 kJ/mol
# Density = 1.968614 g / cm^3
# Si number density = 19.731051 Si / 1000 Ang^3
#
#
#
# Elastic Constant Matrix: (Units=GPa)
#
#
# Indices 1 2 3 4 5 6 
#
# 1 157.0930 43.1281 20.5428 0.0000 0.0000 0.0000
# 2 43.1281 72.6899 12.0272 0.0000 0.0000 0.0000
# 3 20.5428 12.0272 53.2647 0.0000 0.0000 0.0000
# 4 0.0000 0.0000 0.0000 8.1315 0.0000 0.0000
# 5 0.0000 0.0000 0.0000 0.0000 7.1498 0.0000
# 6 0.0000 0.0000 0.0000 0.0000 0.0000 32.5052
#
#
#
# Elastic Compliance Matrix: (Units=1/GPa)
#
#
# Indices 1 2 3 4 5 6 
#
# 1 0.007813 -0.004297 -0.002043 0.000000 0.000000 0.000000
# 2 -0.004297 0.016655 -0.002103 0.000000 0.000000 0.000000
# 3 -0.002043 -0.002103 0.020037 0.000000 0.000000 0.000000
# 4 0.000000 0.000000 0.000000 0.122978 0.000000 0.000000
# 5 0.000000 0.000000 0.000000 0.000000 0.139864 0.000000
# 6 0.000000 0.000000 0.000000 0.000000 0.000000 0.030764
#
#
# Mechanical properties :
#
#
# Convention : Reuss Voigt Hill
#
# Bulk Modulus (GPa) = 36.20895 48.27153 42.24024
# Shear Modulus (GPa) = 13.72857 23.38060 18.55459
#
# Velocity S-wave (km/s) = 2.64064 3.44607 3.06988
# Velocity P-wave (km/s) = 5.26197 6.35230 5.83267
#
# Compressibility (1/GPa) = 0.02761748
#
# Stress axis : x y z
#
# Youngs Moduli (GPa) = 127.99899 60.04293 49.90783
#
# Poissons Ratio (x) = 0.25802 0.10195
# Poissons Ratio (y) = 0.55005 0.10497
# Poissons Ratio (z) = 0.26147 0.12629
#
# Static dielectric constant tensor:
#      x y z
#    x 3.999120 0.000000 0.000000 
#    y 0.000000 3.382740 0.000000 
#    z 0.000000 0.000000 4.940770 
# 
# 
# High freq. dielectric constant tensor:
#      x y z
#    x 1.789340 0.000000 0.000000 
#    y 0.000000 1.755180 0.000000 
#    z 0.000000 0.000000 1.735760 
# 
# From -- ./inp_files/73867.got.cif
#   From: 2010.03.12/outbox.cif.g09.slc.cpg/sg63_37_cif.got.tgz:73867.got - 2010.04.10 19:34:48.
