data_PCOD8260176
_publ_section_title
;
Structure prediction by ZEFSAII (Michael W. Deem and Ramdas Pophale) SiO2 
 PCOD8260176
Probable space group: C M C M
;
_chemical_formula_sum "Si O2"
_cell_formula_units_Z 80
_cell_length_a 13.631120
_cell_length_b 13.721508
_cell_length_c 23.272152
_cell_angle_alpha 90.000000
_cell_angle_beta 90.000000
_cell_angle_gamma 90.000000
_cell_volume 4352.812189
_symmetry_space_group_name_H-M "C M C M"
_symmetry_group_IT_number 63
_symmetry_cell_setting 'orthorhombic'
loop_
_space_group_symop_operation_xyz
x,y,z
-x,-y,1/2+z
x,-y,-z
-x,y,1/2-z
-x,-y,-z
x,y,1/2-z
-x,y,z
x,-y,1/2+z
1/2+x,1/2+y,z
1/2-x,1/2-y,1/2+z
1/2+x,1/2-y,-z
1/2-x,1/2+y,1/2-z
1/2-x,1/2-y,-z
1/2+x,1/2+y,1/2-z
1/2-x,1/2+y,z
1/2+x,1/2-y,1/2+z
loop_
_atom_site_type_symbol
_atom_site_label
_atom_site_fract_x
_atom_site_fract_y
_atom_site_fract_z
Si Si1 0.268598 0.098842 0.135079
Si Si2 0.108000 0.460742 0.436610
Si Si3 0.245258 0.791368 0.435244
Si Si4 0.891368 0.145435 0.750000
Si Si5 0.382928 0.566523 0.630326
Si Si6 0.385660 0.125906 0.250000
O O1 0.248886 0.207212 0.112282
O O2 0.316825 0.094188 0.197573
O O3 0.351796 0.051573 0.097346
O O4 0.166643 0.039817 0.126968
O O5 0.112420 0.500000 0.500000
O O6 0.161845 0.359562 0.426095
O O7 0.000000 0.438520 0.414767
O O8 0.250000 0.750000 0.500000
O O9 0.150500 0.860327 0.421378
O O10 0.841947 0.109125 0.690969
O O11 0.895997 0.259857 0.750000
O O12 0.000000 0.100311 0.750000
O O13 0.500000 0.556209 0.626342
O O14 0.500000 0.083893 0.250000
#
# Coordination Sequence:
#
# PCOD8260176 Si02
#       6
#    16  16  16   8  16   8
#     4  11  22  38  61  86 120 153 197 244 299 349
#     4  10  21  37  58  83 114 154 196 242 298 355
#     4  11  22  37  56  84 118 152 199 249 294 350
#     4   9  17  34  58  86 110 142 194 239 281 349
#     4  10  22  38  60  87 120 158 198 243 300 360
#     4  11  21  36  63  94 116 152 201 247 296 355
#
# _framework density 18.378923
#
# number of rings (size 3 to 8) (size 9 to 14) (size 15 to 20)
#    0.000    1.600    4.000    1.200    0.000    2.400 
#    0.000    1.000    0.000    0.000    0.000    0.000 
#    0.000    0.000    0.000    0.000    0.000    0.000 
#
# Total GULP energy -495587.312390 kJ/mol
# GULP energy per Si atom -12389.682810 kJ/mol
# Density = 1.833709 g / cm^3
# Si number density = 18.378923 Si / 1000 Ang^3
#
#
#
# Elastic Constant Matrix: (Units=GPa)
#
#
# Indices 1 2 3 4 5 6 
#
# 1 139.5516 59.1803 42.4158 0.0000 0.0000 0.0000
# 2 59.1803 121.0000 48.9884 0.0000 0.0000 0.0000
# 3 42.4158 48.9884 142.3058 0.0000 0.0000 0.0000
# 4 0.0000 0.0000 0.0000 22.6945 0.0000 0.0000
# 5 0.0000 0.0000 0.0000 0.0000 27.7768 0.0000
# 6 0.0000 0.0000 0.0000 0.0000 0.0000 16.4235
#
#
#
# Elastic Compliance Matrix: (Units=1/GPa)
#
#
# Indices 1 2 3 4 5 6 
#
# 1 0.009274 -0.003970 -0.001398 0.000000 0.000000 0.000000
# 2 -0.003970 0.011302 -0.002707 0.000000 0.000000 0.000000
# 3 -0.001398 -0.002707 0.008376 0.000000 0.000000 0.000000
# 4 0.000000 0.000000 0.000000 0.044064 0.000000 0.000000
# 5 0.000000 0.000000 0.000000 0.000000 0.036001 0.000000
# 6 0.000000 0.000000 0.000000 0.000000 0.000000 0.060888
#
#
# Mechanical properties :
#
#
# Convention : Reuss Voigt Hill
#
# Bulk Modulus (GPa) = 78.11301 78.22515 78.16908
# Shear Modulus (GPa) = 26.27111 30.19716 28.23413
#
# Velocity S-wave (km/s) = 3.78486 4.05783 3.92372
# Velocity P-wave (km/s) = 7.85455 8.03800 7.94680
#
# Compressibility (1/GPa) = 0.01280197
#
# Stress axis : x y z
#
# Youngs Moduli (GPa) = 107.82579 88.47693 119.39271
#
# Poissons Ratio (x) = 0.35126 0.16686
# Poissons Ratio (y) = 0.42808 0.32325
# Poissons Ratio (z) = 0.15069 0.23955
#
# Static dielectric constant tensor:
#      x y z
#    x 3.586570 0.000000 0.000000 
#    y 0.000000 3.416500 0.000000 
#    z 0.000000 0.000000 3.679370 
# 
# 
# High freq. dielectric constant tensor:
#      x y z
#    x 1.708410 0.000000 0.000000 
#    y 0.000000 1.718540 0.000000 
#    z 0.000000 0.000000 1.723710 
# 
# From -- ./inp_files/62587.got.cif
#   From: 2010.03.12/outbox.cif.g09.slc.cpg/sg63_32_cif.got.tgz:62587.got - 2010.04.10 19:34:48.
