data_PCOD8260700
_publ_section_title
;
Structure prediction by ZEFSAII (Michael W. Deem and Ramdas Pophale) SiO2 
 PCOD8260700
Probable space group: C M C M
;
_chemical_formula_sum "Si O2"
_cell_formula_units_Z 72
_cell_length_a 26.313517
_cell_length_b 8.477073
_cell_length_c 14.308292
_cell_angle_alpha 90.000000
_cell_angle_beta 90.000000
_cell_angle_gamma 90.000000
_cell_volume 3191.630571
_symmetry_space_group_name_H-M "C M C M"
_symmetry_group_IT_number 63
_symmetry_cell_setting 'orthorhombic'
loop_
_space_group_symop_operation_xyz
x,y,z
-x,-y,1/2+z
x,-y,-z
-x,y,1/2-z
-x,-y,-z
x,y,1/2-z
-x,y,z
x,-y,1/2+z
1/2+x,1/2+y,z
1/2-x,1/2-y,1/2+z
1/2+x,1/2-y,-z
1/2-x,1/2+y,1/2-z
1/2-x,1/2-y,-z
1/2+x,1/2+y,1/2-z
1/2-x,1/2+y,z
1/2+x,1/2-y,1/2+z
loop_
_atom_site_type_symbol
_atom_site_label
_atom_site_fract_x
_atom_site_fract_y
_atom_site_fract_z
Si Si1 0.203460 0.332046 0.546049
Si Si2 0.773100 0.567467 0.250000
Si Si3 0.347514 0.481108 0.750000
Si Si4 0.889803 0.861882 0.434480
Si Si5 0.444745 0.916502 0.852015
Si Si6 0.628939 0.122934 0.750000
O O1 0.194739 0.500000 0.500000
O O2 0.250000 0.250000 0.500000
O O3 0.212128 0.333454 0.657930
O O4 0.157091 0.222261 0.514876
O O5 0.714130 0.517799 0.250000
O O6 0.810971 0.416850 0.250000
O O7 0.368890 0.571290 0.661687
O O8 0.373421 0.309678 0.750000
O O9 0.931649 0.725031 0.422169
O O10 0.912186 0.000000 0.500000
O O11 0.449839 0.837252 0.750000
O O12 0.500000 0.988924 0.881840
O O13 0.400445 0.051831 0.842841
#
# Coordination Sequence:
#
# PCOD8260700 Si02
#       6
#    16   8   8  16  16   8
#     4  12  26  43  64  97 139 188 232 281 338 408
#     4  12  25  39  66  92 136 184 231 269 339 403
#     4  12  26  41  65 101 141 173 226 281 337 410
#     4  12  25  42  64 101 140 174 226 281 342 408
#     4   9  19  44  71  92 126 174 224 279 344 405
#     4  10  22  40  69  95 123 183 228 280 334 413
#
# _framework density 22.559003000000001
#
# number of rings (size 3 to 8) (size 9 to 14) (size 15 to 20)
#    0.667    0.222    3.333    4.000    9.333    0.444 
#    0.000    2.222    0.000    4.667    0.000    0.000 
#    0.000    0.000    0.000    0.000    0.000    0.000 
#
# Total GULP energy -446091.166721 kJ/mol
# GULP energy per Si atom -12391.421298 kJ/mol
# Density = 2.250766 g / cm^3
# Si number density = 22.559003 Si / 1000 Ang^3
#
#
#
# Elastic Constant Matrix: (Units=GPa)
#
#
# Indices 1 2 3 4 5 6 
#
# 1 123.4923 39.1374 11.2349 0.0000 0.0000 0.0000
# 2 39.1374 124.5824 16.9012 0.0000 0.0000 0.0000
# 3 11.2349 16.9012 78.3267 0.0000 0.0000 0.0000
# 4 0.0000 0.0000 0.0000 14.7790 0.0000 0.0000
# 5 0.0000 0.0000 0.0000 0.0000 4.3011 0.0000
# 6 0.0000 0.0000 0.0000 0.0000 0.0000 18.6462
#
#
#
# Elastic Compliance Matrix: (Units=1/GPa)
#
#
# Indices 1 2 3 4 5 6 
#
# 1 0.009031 -0.002741 -0.000704 0.000000 0.000000 0.000000
# 2 -0.002741 0.009101 -0.001571 0.000000 0.000000 0.000000
# 3 -0.000704 -0.001571 0.013207 0.000000 0.000000 0.000000
# 4 0.000000 0.000000 0.000000 0.067664 0.000000 0.000000
# 5 0.000000 0.000000 0.000000 0.000000 0.232501 0.000000
# 6 0.000000 0.000000 0.000000 0.000000 0.000000 0.053630
#
#
# Mechanical properties :
#
#
# Convention : Reuss Voigt Hill
#
# Bulk Modulus (GPa) = 46.93319 51.21651 49.07485
# Shear Modulus (GPa) = 12.42954 24.82044 18.62499
#
# Velocity S-wave (km/s) = 2.34984 3.32059 2.87646
# Velocity P-wave (km/s) = 5.31151 6.12000 5.73003
#
# Compressibility (1/GPa) = 0.02130688
#
# Stress axis : x y z
#
# Youngs Moduli (GPa) = 110.73554 109.87666 75.71812
#
# Poissons Ratio (x) = 0.30122 0.05329
# Poissons Ratio (y) = 0.30358 0.11892
# Poissons Ratio (z) = 0.07793 0.17257
#
# Static dielectric constant tensor:
#      x y z
#    x 4.163670 0.000000 0.000000 
#    y 0.000000 4.161290 0.000000 
#    z 0.000000 0.000000 4.022030 
# 
# 
# High freq. dielectric constant tensor:
#      x y z
#    x 1.887440 0.000000 0.000000 
#    y 0.000000 1.886910 0.000000 
#    z 0.000000 0.000000 1.885980 
# 
# From -- ./inp_files/38355.got.cif
#   From: 2010.03.12/outbox.cif.g09.slc.cpg/sg63_20_cif.got.tgz:38355.got - 2010.04.10 19:34:48.
