data_PCOD8260075
_publ_section_title
;
Structure prediction by ZEFSAII (Michael W. Deem and Ramdas Pophale) SiO2 
 PCOD8260075
Probable space group: C M C M
;
_chemical_formula_sum "Si O2"
_cell_formula_units_Z 96
_cell_length_a 27.840947
_cell_length_b 7.753067
_cell_length_c 22.073215
_cell_angle_alpha 90.000000
_cell_angle_beta 90.000000
_cell_angle_gamma 90.000000
_cell_volume 4764.563661
_symmetry_space_group_name_H-M "C M C M"
_symmetry_group_IT_number 63
_symmetry_cell_setting 'orthorhombic'
loop_
_space_group_symop_operation_xyz
x,y,z
-x,-y,1/2+z
x,-y,-z
-x,y,1/2-z
-x,-y,-z
x,y,1/2-z
-x,y,z
x,-y,1/2+z
1/2+x,1/2+y,z
1/2-x,1/2-y,1/2+z
1/2+x,1/2-y,-z
1/2-x,1/2+y,1/2-z
1/2-x,1/2-y,-z
1/2+x,1/2+y,1/2-z
1/2-x,1/2+y,z
1/2+x,1/2-y,1/2+z
loop_
_atom_site_type_symbol
_atom_site_label
_atom_site_fract_x
_atom_site_fract_y
_atom_site_fract_z
Si Si1 0.682821 0.287449 0.897599
Si Si2 0.443522 0.691276 0.604955
Si Si3 0.443497 0.980212 0.182284
Si Si4 0.131392 0.702160 0.485450
Si Si5 0.599765 0.620235 0.178600
Si Si6 0.217175 0.562674 0.068394
O O1 0.655811 0.372922 0.840375
O O2 0.733717 0.379252 0.902562
O O3 0.694748 0.085741 0.889130
O O4 0.647385 0.309453 0.955328
O O5 0.500000 0.687093 0.590755
O O6 0.414864 0.700137 0.541555
O O7 0.429841 0.527217 0.644851
O O8 0.427309 0.862508 0.640533
O O9 0.424360 0.016772 0.250000
O O10 0.500000 0.959306 0.182313
O O11 0.421747 0.803001 0.157080
O O12 0.120328 0.500000 0.500000
O O13 0.176384 0.711896 0.437606
O O14 0.594586 0.589001 0.250000
O O15 0.227648 0.500000 0.000000
#
# Coordination Sequence:
#
# PCOD8260075 Si02
#       6
#    16  16  16  16  16  16
#     4  10  21  36  59  86 115 157 199 245 304 360
#     4  11  23  38  63  93 123 160 201 251 308 367
#     4   9  18  36  60  82 111 157 208 251 293 351
#     4   9  19  37  60  92 126 158 199 249 309 374
#     4  11  24  40  59  87 122 161 207 257 300 358
#     4   9  18  34  60  89 114 153 201 245 294 366
#
# _framework density 20.148748999999999
#
# number of rings (size 3 to 8) (size 9 to 14) (size 15 to 20)
#    0.000    2.500    0.000    5.000    4.667    2.000 
#    0.000    3.333    0.000    0.000    0.000    0.000 
#    0.000    0.000    0.000    0.000    0.000    0.000 
#
# Total GULP energy -595011.247763 kJ/mol
# GULP energy per Si atom -12396.067662 kJ/mol
# Density = 2.010289 g / cm^3
# Si number density = 20.148749 Si / 1000 Ang^3
#
#
#
# Elastic Constant Matrix: (Units=GPa)
#
#
# Indices 1 2 3 4 5 6 
#
# 1 90.5560 47.6000 41.0112 0.0000 0.0000 0.0000
# 2 47.6000 78.7767 31.3348 0.0000 0.0000 0.0000
# 3 41.0112 31.3348 53.5403 0.0000 0.0000 0.0000
# 4 0.0000 0.0000 0.0000 26.4495 0.0000 0.0000
# 5 0.0000 0.0000 0.0000 0.0000 17.2489 0.0000
# 6 0.0000 0.0000 0.0000 0.0000 0.0000 31.7940
#
#
#
# Elastic Compliance Matrix: (Units=1/GPa)
#
#
# Indices 1 2 3 4 5 6 
#
# 1 0.020029 -0.007820 -0.010765 0.000000 0.000000 0.000000
# 2 -0.007820 0.019599 -0.005480 0.000000 0.000000 0.000000
# 3 -0.010765 -0.005480 0.030131 0.000000 0.000000 0.000000
# 4 0.000000 0.000000 0.000000 0.037808 0.000000 0.000000
# 5 0.000000 0.000000 0.000000 0.000000 0.057975 0.000000
# 6 0.000000 0.000000 0.000000 0.000000 0.000000 0.031452
#
#
# Mechanical properties :
#
#
# Convention : Reuss Voigt Hill
#
# Bulk Modulus (GPa) = 46.23705 51.41831 48.82768
# Shear Modulus (GPa) = 19.81495 21.96027 20.88761
#
# Velocity S-wave (km/s) = 3.13938 3.30496 3.22323
# Velocity P-wave (km/s) = 6.01154 6.33549 6.17564
#
# Compressibility (1/GPa) = 0.02162768
#
# Stress axis : x y z
#
# Youngs Moduli (GPa) = 49.92815 51.02210 33.18859
#
# Poissons Ratio (x) = 0.39900 0.35727
# Poissons Ratio (y) = 0.39045 0.18189
# Poissons Ratio (z) = 0.53747 0.27962
#
# Static dielectric constant tensor:
#      x y z
#    x 3.720750 0.000000 0.000000 
#    y 0.000000 3.730850 0.000000 
#    z 0.000000 0.000000 3.429020 
# 
# 
# High freq. dielectric constant tensor:
#      x y z
#    x 1.793910 0.000000 0.000000 
#    y 0.000000 1.791020 0.000000 
#    z 0.000000 0.000000 1.753490 
# 
# From -- ./inp_files/64982.got.cif
#   From: 2010.03.12/outbox.cif.g09.slc.cpg/sg63_33_cif.got.tgz:64982.got - 2010.04.10 19:34:48.
