data_PCOD8260154
_publ_section_title
;
Structure prediction by ZEFSAII (Michael W. Deem and Ramdas Pophale) SiO2 
 PCOD8260154
Probable space group: C M C M
;
_chemical_formula_sum "Si O2"
_cell_formula_units_Z 96
_cell_length_a 25.008531
_cell_length_b 23.442017
_cell_length_c 8.696543
_cell_angle_alpha 90.000000
_cell_angle_beta 90.000000
_cell_angle_gamma 90.000000
_cell_volume 5098.351889
_symmetry_space_group_name_H-M "C M C M"
_symmetry_group_IT_number 63
_symmetry_cell_setting 'orthorhombic'
loop_
_space_group_symop_operation_xyz
x,y,z
-x,-y,1/2+z
x,-y,-z
-x,y,1/2-z
-x,-y,-z
x,y,1/2-z
-x,y,z
x,-y,1/2+z
1/2+x,1/2+y,z
1/2-x,1/2-y,1/2+z
1/2+x,1/2-y,-z
1/2-x,1/2+y,1/2-z
1/2-x,1/2-y,-z
1/2+x,1/2+y,1/2-z
1/2-x,1/2+y,z
1/2+x,1/2-y,1/2+z
loop_
_atom_site_type_symbol
_atom_site_label
_atom_site_fract_x
_atom_site_fract_y
_atom_site_fract_z
Si Si1 0.937936 0.560528 0.928487
Si Si2 0.060262 0.059896 0.931224
Si Si3 0.653047 0.357810 0.070207
Si Si4 0.847249 0.628939 0.068573
Si Si5 0.248289 0.439511 0.069620
Si Si6 0.808543 0.254790 0.430855
O O1 0.922003 0.560114 0.750000
O O2 0.000000 0.574162 0.953032
O O3 0.922264 0.500000 0.000000
O O4 0.906118 0.609412 0.018344
O O5 0.063783 0.053505 0.750000
O O6 0.099959 0.109494 0.987522
O O7 0.000000 0.074923 0.985669
O O8 0.079486 0.000000 0.000000
O O9 0.649954 0.343153 0.250000
O O10 0.704578 0.395635 0.032504
O O11 0.655964 0.299702 0.974884
O O12 0.843005 0.634709 0.250000
O O13 0.805351 0.582196 0.010066
O O14 0.837758 0.689876 0.993541
O O15 0.238186 0.445622 0.250000
O O16 0.265010 0.500000 0.000000
O O17 0.802703 0.260108 0.250000
O O18 0.750000 0.250000 0.500000
#
# Coordination Sequence:
#
# PCOD8260154 Si02
#       6
#    16  16  16  16  16  16
#     4  10  21  39  63  90 121 156 195 240 291 347
#     4   9  18  34  57  85 117 153 193 236 284 337
#     4  10  21  37  57  82 114 153 194 239 289 345
#     4  12  24  39  60  85 116 153 196 240 289 347
#     4  11  22  35  54  81 116 150 189 238 291 350
#     4  12  24  40  61  84 113 152 195 240 293 351
#
# _framework density 18.829613999999999
#
# number of rings (size 3 to 8) (size 9 to 14) (size 15 to 20)
#    0.000    1.333    1.667    5.000    0.000    2.333 
#    0.000    0.833    0.000    3.000    0.000    0.000 
#    0.000    0.000    0.000    0.000    0.000    0.000 
#
# Total GULP energy -595480.437873 kJ/mol
# GULP energy per Si atom -12405.842456 kJ/mol
# Density = 1.878676 g / cm^3
# Si number density = 18.829614 Si / 1000 Ang^3
#
#
#
# Elastic Constant Matrix: (Units=GPa)
#
#
# Indices 1 2 3 4 5 6 
#
# 1 98.5748 57.3104 42.9553 0.0000 0.0000 0.0000
# 2 57.3104 134.1481 59.0230 0.0000 0.0000 0.0000
# 3 42.9553 59.0230 117.4756 0.0000 0.0000 0.0000
# 4 0.0000 0.0000 0.0000 37.4248 0.0000 0.0000
# 5 0.0000 0.0000 0.0000 0.0000 23.4092 0.0000
# 6 0.0000 0.0000 0.0000 0.0000 0.0000 0.8819
#
#
#
# Elastic Compliance Matrix: (Units=1/GPa)
#
#
# Indices 1 2 3 4 5 6 
#
# 1 0.014154 -0.004840 -0.002744 0.000000 0.000000 0.000000
# 2 -0.004840 0.011225 -0.003870 0.000000 0.000000 0.000000
# 3 -0.002744 -0.003870 0.011460 0.000000 0.000000 0.000000
# 4 0.000000 0.000000 0.000000 0.026720 0.000000 0.000000
# 5 0.000000 0.000000 0.000000 0.000000 0.042718 0.000000
# 6 0.000000 0.000000 0.000000 0.000000 0.000000 1.133900
#
#
# Mechanical properties :
#
#
# Convention : Reuss Voigt Hill
#
# Bulk Modulus (GPa) = 71.77794 74.30845 73.04319
# Shear Modulus (GPa) = 3.94406 25.07050 14.50728
#
# Velocity S-wave (km/s) = 1.44885 3.65285 2.77871
# Velocity P-wave (km/s) = 6.40323 7.57234 7.01219
#
# Compressibility (1/GPa) = 0.01393186
#
# Stress axis : x y z
#
# Youngs Moduli (GPa) = 70.65173 89.08908 87.25900
#
# Poissons Ratio (x) = 0.43115 0.23943
# Poissons Ratio (y) = 0.34192 0.33769
# Poissons Ratio (z) = 0.19386 0.34478
#
# Static dielectric constant tensor:
#      x y z
#    x 3.585740 0.000000 0.000000 
#    y 0.000000 3.565540 0.000000 
#    z 0.000000 0.000000 3.620180 
# 
# 
# High freq. dielectric constant tensor:
#      x y z
#    x 1.733550 0.000000 0.000000 
#    y 0.000000 1.735130 0.000000 
#    z 0.000000 0.000000 1.741200 
# 
# From -- ./inp_files/10506.got.cif
#   From: 2010.03.12/outbox.cif.g09.slc.cpg/sg63_6_cif.got.tgz:10506.got - 2010.04.10 19:34:48.
