data_PCOD8260103
_publ_section_title
;
Structure prediction by ZEFSAII (Michael W. Deem and Ramdas Pophale) SiO2 
 PCOD8260103
Probable space group: C M C M
;
_chemical_formula_sum "Si O2"
_cell_formula_units_Z 80
_cell_length_a 28.888183
_cell_length_b 14.744643
_cell_length_c 8.443273
_cell_angle_alpha 90.000000
_cell_angle_beta 90.000000
_cell_angle_gamma 90.000000
_cell_volume 3596.377899
_symmetry_space_group_name_H-M "C M C M"
_symmetry_group_IT_number 63
_symmetry_cell_setting 'orthorhombic'
loop_
_space_group_symop_operation_xyz
x,y,z
-x,-y,1/2+z
x,-y,-z
-x,y,1/2-z
-x,-y,-z
x,y,1/2-z
-x,y,z
x,-y,1/2+z
1/2+x,1/2+y,z
1/2-x,1/2-y,1/2+z
1/2+x,1/2-y,-z
1/2-x,1/2+y,1/2-z
1/2-x,1/2-y,-z
1/2+x,1/2+y,1/2-z
1/2-x,1/2+y,z
1/2+x,1/2-y,1/2+z
loop_
_atom_site_type_symbol
_atom_site_label
_atom_site_fract_x
_atom_site_fract_y
_atom_site_fract_z
Si Si1 0.052790 0.587711 0.423159
Si Si2 0.721012 0.404034 0.565508
Si Si3 0.179908 0.599626 0.935902
Si Si4 0.551160 0.276697 0.567369
Si Si5 0.144807 0.778533 0.068141
O O1 0.078521 0.500000 0.500000
O O2 0.074790 0.613150 0.250000
O O3 0.055600 0.669141 0.547213
O O4 0.000000 0.560784 0.392141
O O5 0.702693 0.500000 0.500000
O O6 0.732970 0.412959 0.750000
O O7 0.767146 0.373693 0.473825
O O8 0.681774 0.329377 0.540626
O O9 0.171207 0.604799 0.750000
O O10 0.168709 0.500000 0.000000
O O11 0.146070 0.671534 0.022953
O O12 0.557232 0.302570 0.750000
O O13 0.500000 0.309474 0.506770
O O14 0.593510 0.319929 0.467511
O O15 0.157395 0.794681 0.250000
#
# Coordination Sequence:
#
# PCOD8260103 Si02
#       5
#    16  16  16  16  16
#     4   9  16  27  44  66  93 129 174 223 274 329
#     4  11  22  40  64  92 123 156 195 241 296 355
#     4  11  22  39  61  90 126 162 199 241 292 350
#     4  10  21  37  55  77 107 145 191 243 296 348
#     4  12  24  39  60  88 120 158 202 246 295 352
#
# _framework density 22.244603000000001
#
# number of rings (size 3 to 8) (size 9 to 14) (size 15 to 20)
#    0.000    1.400    0.000    8.400    0.000    4.400 
#    0.000    4.000    0.000    0.600    0.000    0.000 
#    0.000    0.000    0.000    0.000    0.000    0.000 
#
# Total GULP energy -495966.220600 kJ/mol
# GULP energy per Si atom -12399.155515 kJ/mol
# Density = 2.219397 g / cm^3
# Si number density = 22.244603 Si / 1000 Ang^3
#
#
#
# Elastic Constant Matrix: (Units=GPa)
#
#
# Indices 1 2 3 4 5 6 
#
# 1 125.0521 16.6663 23.0336 0.0000 0.0000 0.0000
# 2 16.6663 36.5907 8.7606 0.0000 0.0000 0.0000
# 3 23.0336 8.7606 117.2231 0.0000 0.0000 0.0000
# 4 0.0000 0.0000 0.0000 29.4492 0.0000 0.0000
# 5 0.0000 0.0000 0.0000 0.0000 34.4454 0.0000
# 6 0.0000 0.0000 0.0000 0.0000 0.0000 0.9858
#
#
#
# Elastic Compliance Matrix: (Units=1/GPa)
#
#
# Indices 1 2 3 4 5 6 
#
# 1 0.008748 -0.003638 -0.001447 0.000000 0.000000 0.000000
# 2 -0.003638 0.029340 -0.001478 0.000000 0.000000 0.000000
# 3 -0.001447 -0.001478 0.008926 0.000000 0.000000 0.000000
# 4 0.000000 0.000000 0.000000 0.033957 0.000000 0.000000
# 5 0.000000 0.000000 0.000000 0.000000 0.029031 0.000000
# 6 0.000000 0.000000 0.000000 0.000000 0.000000 1.014367
#
#
# Mechanical properties :
#
#
# Convention : Reuss Voigt Hill
#
# Bulk Modulus (GPa) = 29.50912 41.75411 35.63161
# Shear Modulus (GPa) = 4.35240 28.33644 16.34442
#
# Velocity S-wave (km/s) = 1.40031 3.57299 2.71358
# Velocity P-wave (km/s) = 3.98861 5.98605 5.08635
#
# Compressibility (1/GPa) = 0.03388783
#
# Stress axis : x y z
#
# Youngs Moduli (GPa) = 114.31088 34.08282 112.03818
#
# Poissons Ratio (x) = 0.12400 0.16213
# Poissons Ratio (y) = 0.41588 0.16558
# Poissons Ratio (z) = 0.16541 0.05037
#
# Static dielectric constant tensor:
#      x y z
#    x 4.303370 0.000000 0.000000 
#    y 0.000000 3.619910 0.000000 
#    z 0.000000 0.000000 4.075040 
# 
# 
# High freq. dielectric constant tensor:
#      x y z
#    x 1.893570 0.000000 0.000000 
#    y 0.000000 1.829890 0.000000 
#    z 0.000000 0.000000 1.886970 
# 
# From -- ./inp_files/12041.got.cif
#   From: 2010.03.12/outbox.cif.g09.slc.cpg/sg63_7_cif.got.tgz:12041.got - 2010.04.10 19:34:48.
