data_PCOD8260226
_publ_section_title
;
Structure prediction by ZEFSAII (Michael W. Deem and Ramdas Pophale) SiO2 
 PCOD8260226
Probable space group: C M C M
;
_chemical_formula_sum "Si O2"
_cell_formula_units_Z 56
_cell_length_a 27.510998
_cell_length_b 5.260000
_cell_length_c 20.393519
_cell_angle_alpha 90.000000
_cell_angle_beta 90.000000
_cell_angle_gamma 90.000000
_cell_volume 2951.102278
_symmetry_space_group_name_H-M "C M C M"
_symmetry_group_IT_number 63
_symmetry_cell_setting 'orthorhombic'
loop_
_space_group_symop_operation_xyz
x,y,z
-x,-y,1/2+z
x,-y,-z
-x,y,1/2-z
-x,-y,-z
x,y,1/2-z
-x,y,z
x,-y,1/2+z
1/2+x,1/2+y,z
1/2-x,1/2-y,1/2+z
1/2+x,1/2-y,-z
1/2-x,1/2+y,1/2-z
1/2-x,1/2-y,-z
1/2+x,1/2+y,1/2-z
1/2-x,1/2+y,z
1/2+x,1/2-y,1/2+z
loop_
_atom_site_type_symbol
_atom_site_label
_atom_site_fract_x
_atom_site_fract_y
_atom_site_fract_z
Si Si1 0.882770 0.507630 0.925367
Si Si2 0.945146 0.274050 0.676211
Si Si3 0.144933 0.985875 0.366611
Si Si4 0.719073 0.526675 0.750000
O O1 0.929402 0.490444 0.876457
O O2 0.853618 0.766511 0.912375
O O3 0.846981 0.267597 0.910935
O O4 0.901201 0.500000 0.000000
O O5 0.940866 0.385356 0.750000
O O6 0.000000 0.182488 0.661564
O O7 0.908099 0.036060 0.668596
O O8 0.187218 0.011980 0.314281
O O9 0.760430 0.312385 0.750000
#
# Coordination Sequence:
#
# PCOD8260226 Si02
#       4
#    16  16  16   8
#     4  10  21  37  61  87 126 170 196 239 297 361
#     4   9  20  36  60  92 125 163 204 249 297 349
#     4  10  21  39  60  88 123 151 204 249 297 356
#     4  12  24  40  69  94 117 152 204 258 308 362
#
# _framework density 18.975960000000001
#
# number of rings (size 3 to 8) (size 9 to 14) (size 15 to 20)
#    1.714    0.286    1.429    2.571    2.000    1.714 
#    0.000    4.286    0.000   17.143    0.000    0.000 
#    0.000    0.000    0.000    0.000    0.000    0.000 
#
# Total GULP energy -346891.926149 kJ/mol
# GULP energy per Si atom -12388.997362 kJ/mol
# Density = 1.893277 g / cm^3
# Si number density = 18.975960 Si / 1000 Ang^3
#
#
#
# Elastic Constant Matrix: (Units=GPa)
#
#
# Indices 1 2 3 4 5 6 
#
# 1 70.4244 21.2239 35.3379 0.0000 0.0000 0.0000
# 2 21.2239 125.1590 43.2033 0.0000 0.0000 0.0000
# 3 35.3379 43.2033 148.3568 0.0000 0.0000 0.0000
# 4 0.0000 0.0000 0.0000 26.8689 0.0000 0.0000
# 5 0.0000 0.0000 0.0000 0.0000 -2.3016 0.0000
# 6 0.0000 0.0000 0.0000 0.0000 0.0000 15.6556
#
#
#
# Elastic Compliance Matrix: (Units=1/GPa)
#
#
# Indices 1 2 3 4 5 6 
#
# 1 0.016408 -0.001594 -0.003444 0.000000 0.000000 0.000000
# 2 -0.001594 0.009038 -0.002252 0.000000 0.000000 0.000000
# 3 -0.003444 -0.002252 0.008217 0.000000 0.000000 0.000000
# 4 0.000000 0.000000 0.000000 0.037218 0.000000 0.000000
# 5 0.000000 0.000000 0.000000 0.000000 -0.434489 0.000000
# 6 0.000000 0.000000 0.000000 0.000000 0.000000 0.063875
#
#
# Mechanical properties :
#
#
# Convention : Reuss Voigt Hill
#
# Bulk Modulus (GPa) = 52.40446 60.38561 56.39503
# Shear Modulus (GPa) = -17.93443 24.32293 3.19425
#
# Velocity S-wave (km/s) = -3.07760 3.58407 1.29883
# Velocity P-wave (km/s) = 3.87909 7.00134 5.65977
#
# Compressibility (1/GPa) = 0.01908235
#
# Stress axis : x y z
#
# Youngs Moduli (GPa) = 60.94528 110.64991 121.70175
#
# Poissons Ratio (x) = 0.17632 0.41918
# Poissons Ratio (y) = 0.09712 0.27410
# Poissons Ratio (z) = 0.20991 0.24921
#
# Static dielectric constant tensor:
#      x y z
#    x 3.204150 0.000000 0.000000 
#    y 0.000000 3.349020 0.000000 
#    z 0.000000 0.000000 3.376100 
# 
# 
# High freq. dielectric constant tensor:
#      x y z
#    x 1.709680 0.000000 0.000000 
#    y 0.000000 1.732770 0.000000 
#    z 0.000000 0.000000 1.739490 
# 
# From -- ./inp_files/49249.got.cif
#   From: 2010.03.12/outbox.cif.g09.slc.cpg/sg63_25_cif.got.tgz:49249.got - 2010.04.10 19:34:48.
