data_PCOD8260543
_publ_section_title
;
Structure prediction by ZEFSAII (Michael W. Deem and Ramdas Pophale) SiO2 
 PCOD8260543
Probable space group: C M C M
;
_chemical_formula_sum "Si O2"
_cell_formula_units_Z 88
_cell_length_a 18.668830
_cell_length_b 8.702818
_cell_length_c 28.965421
_cell_angle_alpha 90.000000
_cell_angle_beta 90.000000
_cell_angle_gamma 90.000000
_cell_volume 4706.053364
_symmetry_space_group_name_H-M "C M C M"
_symmetry_group_IT_number 63
_symmetry_cell_setting 'orthorhombic'
loop_
_space_group_symop_operation_xyz
x,y,z
-x,-y,1/2+z
x,-y,-z
-x,y,1/2-z
-x,-y,-z
x,y,1/2-z
-x,y,z
x,-y,1/2+z
1/2+x,1/2+y,z
1/2-x,1/2-y,1/2+z
1/2+x,1/2-y,-z
1/2-x,1/2+y,1/2-z
1/2-x,1/2-y,-z
1/2+x,1/2+y,1/2-z
1/2-x,1/2+y,z
1/2+x,1/2-y,1/2+z
loop_
_atom_site_type_symbol
_atom_site_label
_atom_site_fract_x
_atom_site_fract_y
_atom_site_fract_z
Si Si1 0.079954 0.783688 0.698153
Si Si2 0.698351 0.165536 0.141339
Si Si3 0.195770 0.968347 0.195304
Si Si4 0.191384 0.737644 0.937485
Si Si5 0.081791 0.440206 0.117249
Si Si6 0.227921 0.000000 0.500000
O O1 0.100448 0.734350 0.750000
O O2 0.132742 0.916134 0.680692
O O3 0.086037 0.630186 0.668367
O O4 0.000000 0.852791 0.695379
O O5 0.731815 0.028409 0.171732
O O6 0.675990 0.302313 0.175361
O O7 0.752613 0.225892 0.102851
O O8 0.627293 0.097973 0.116757
O O9 0.206204 0.955358 0.250000
O O10 0.114795 0.685507 0.917758
O O11 0.221400 0.597220 0.966899
O O12 0.178335 0.887500 0.969315
O O13 0.000000 0.475428 0.102564
#
# Coordination Sequence:
#
# PCOD8260543 Si02
#       6
#    16  16  16  16  16   8
#     4   9  19  36  56  81 119 164 200 236 289 346
#     4  12  21  37  59  85 119 155 201 244 284 355
#     4  11  21  33  56  88 119 156 206 253 286 332
#     4  11  20  40  62  92 111 151 193 243 295 363
#     4  11  23  39  61  89 124 158 191 243 300 351
#     4  10  22  36  70  88 112 144 200 242 300 362
#
# _framework density 18.69932
#
# number of rings (size 3 to 8) (size 9 to 14) (size 15 to 20)
#    0.000    1.273    5.455    0.545    0.000    3.636 
#    0.000    0.909    0.000    0.000    0.000    0.000 
#    0.000    0.000    0.000    0.000    0.000    0.000 
#
# Total GULP energy -545656.481750 kJ/mol
# GULP energy per Si atom -12401.283676 kJ/mol
# Density = 1.865676 g / cm^3
# Si number density = 18.699320 Si / 1000 Ang^3
#
#
#
# Elastic Constant Matrix: (Units=GPa)
#
#
# Indices 1 2 3 4 5 6 
#
# 1 110.0805 30.2866 31.4963 0.0000 0.0000 0.0000
# 2 30.2866 85.9877 30.5933 0.0000 0.0000 0.0000
# 3 31.4963 30.5933 82.2537 0.0000 0.0000 0.0000
# 4 0.0000 0.0000 0.0000 36.4738 0.0000 0.0000
# 5 0.0000 0.0000 0.0000 0.0000 19.8481 0.0000
# 6 0.0000 0.0000 0.0000 0.0000 0.0000 29.2378
#
#
#
# Elastic Compliance Matrix: (Units=1/GPa)
#
#
# Indices 1 2 3 4 5 6 
#
# 1 0.010707 -0.002665 -0.003109 0.000000 0.000000 0.000000
# 2 -0.002665 0.014067 -0.004211 0.000000 0.000000 0.000000
# 3 -0.003109 -0.004211 0.014914 0.000000 0.000000 0.000000
# 4 0.000000 0.000000 0.000000 0.027417 0.000000 0.000000
# 5 0.000000 0.000000 0.000000 0.000000 0.050383 0.000000
# 6 0.000000 0.000000 0.000000 0.000000 0.000000 0.034202
#
#
# Mechanical properties :
#
#
# Convention : Reuss Voigt Hill
#
# Bulk Modulus (GPa) = 50.71637 51.45270 51.08454
# Shear Modulus (GPa) = 28.05323 29.50833 28.78078
#
# Velocity S-wave (km/s) = 3.87748 3.97677 3.92744
# Velocity P-wave (km/s) = 6.87222 6.97580 6.92420
#
# Compressibility (1/GPa) = 0.01971750
#
# Stress axis : x y z
#
# Youngs Moduli (GPa) = 93.39709 71.09007 67.05014
#
# Poissons Ratio (x) = 0.18947 0.20843
# Poissons Ratio (y) = 0.24892 0.28237
# Poissons Ratio (z) = 0.29033 0.29939
#
# Static dielectric constant tensor:
#      x y z
#    x 3.401890 0.000000 0.000000 
#    y 0.000000 3.503560 0.000000 
#    z 0.000000 0.000000 3.667410 
# 
# 
# High freq. dielectric constant tensor:
#      x y z
#    x 1.708790 0.000000 0.000000 
#    y 0.000000 1.729600 0.000000 
#    z 0.000000 0.000000 1.735680 
# 
# From -- ./inp_files/73787.got.cif
#   From: 2010.03.12/outbox.cif.g09.slc.cpg/sg63_37_cif.got.tgz:73787.got - 2010.04.10 19:34:48.
