data_PCOD8260560
_publ_section_title
;
Structure prediction by ZEFSAII (Michael W. Deem and Ramdas Pophale) SiO2 
 PCOD8260560
Probable space group: C M C M
;
_chemical_formula_sum "Si O2"
_cell_formula_units_Z 80
_cell_length_a 8.898906
_cell_length_b 25.239754
_cell_length_c 18.295133
_cell_angle_alpha 90.000000
_cell_angle_beta 90.000000
_cell_angle_gamma 90.000000
_cell_volume 4109.200271
_symmetry_space_group_name_H-M "C M C M"
_symmetry_group_IT_number 63
_symmetry_cell_setting 'orthorhombic'
loop_
_space_group_symop_operation_xyz
x,y,z
-x,-y,1/2+z
x,-y,-z
-x,y,1/2-z
-x,-y,-z
x,y,1/2-z
-x,y,z
x,-y,1/2+z
1/2+x,1/2+y,z
1/2-x,1/2-y,1/2+z
1/2+x,1/2-y,-z
1/2-x,1/2+y,1/2-z
1/2-x,1/2-y,-z
1/2+x,1/2+y,1/2-z
1/2-x,1/2+y,z
1/2+x,1/2-y,1/2+z
loop_
_atom_site_type_symbol
_atom_site_label
_atom_site_fract_x
_atom_site_fract_y
_atom_site_fract_z
Si Si1 0.822411 0.846421 0.168383
Si Si2 0.678264 0.245618 0.078864
Si Si3 0.673382 0.062889 0.579890
Si Si4 0.673929 0.941326 0.911901
Si Si5 0.325144 0.651530 0.165082
O O1 0.754469 0.845194 0.250000
O O2 0.761173 0.795253 0.125584
O O3 0.774849 0.900015 0.129134
O O4 0.000000 0.844659 0.171223
O O5 0.500000 0.245573 0.071088
O O6 0.728050 0.192057 0.118026
O O7 0.750000 0.250000 0.000000
O O8 0.500000 0.075666 0.595001
O O9 0.711795 0.073519 0.495386
O O10 0.710660 0.002749 0.601850
O O11 0.500000 0.929529 0.895017
O O12 0.778131 0.907618 0.858038
O O13 0.288457 0.659874 0.250000
O O14 0.500000 0.660067 0.148424
#
# Coordination Sequence:
#
# PCOD8260560 Si02
#       5
#    16  16  16  16  16
#     4  10  22  38  55  79 112 147 181 220 272 332
#     4  11  23  40  62  85 111 146 188 232 281 338
#     4   9  19  36  58  84 111 143 186 232 276 327
#     4   9  19  37  59  82 111 147 187 230 278 333
#     4  11  24  39  56  83 117 150 188 234 281 331
#
# _framework density 19.468509000000001
#
# number of rings (size 3 to 8) (size 9 to 14) (size 15 to 20)
#    0.000    2.000    0.000    4.200    0.000   10.000 
#    0.000    6.000    0.000    0.000    0.000    0.000 
#    0.000    0.000    0.000    0.000    0.000    0.000 
#
# Total GULP energy -496165.246250 kJ/mol
# GULP energy per Si atom -12404.131156 kJ/mol
# Density = 1.942420 g / cm^3
# Si number density = 19.468509 Si / 1000 Ang^3
#
#
#
# Elastic Constant Matrix: (Units=GPa)
#
#
# Indices 1 2 3 4 5 6 
#
# 1 50.3951 31.6944 41.1950 0.0000 0.0000 0.0000
# 2 31.6944 105.9259 54.2572 0.0000 0.0000 0.0000
# 3 41.1950 54.2572 109.1085 0.0000 0.0000 0.0000
# 4 0.0000 0.0000 0.0000 23.2205 0.0000 0.0000
# 5 0.0000 0.0000 0.0000 0.0000 34.0499 0.0000
# 6 0.0000 0.0000 0.0000 0.0000 0.0000 35.0212
#
#
#
# Elastic Compliance Matrix: (Units=1/GPa)
#
#
# Indices 1 2 3 4 5 6 
#
# 1 0.030075 -0.004270 -0.009232 0.000000 0.000000 0.000000
# 2 -0.004270 0.013273 -0.004988 0.000000 0.000000 0.000000
# 3 -0.009232 -0.004988 0.015131 0.000000 0.000000 0.000000
# 4 0.000000 0.000000 0.000000 0.043065 0.000000 0.000000
# 5 0.000000 0.000000 0.000000 0.000000 0.029369 0.000000
# 6 0.000000 0.000000 0.000000 0.000000 0.000000 0.028554
#
#
# Mechanical properties :
#
#
# Convention : Reuss Voigt Hill
#
# Bulk Modulus (GPa) = 46.51292 57.74698 52.12995
# Shear Modulus (GPa) = 24.55615 27.67717 26.11666
#
# Velocity S-wave (km/s) = 3.55537 3.77455 3.66660
# Velocity P-wave (km/s) = 6.38729 6.98015 6.69029
#
# Compressibility (1/GPa) = 0.02149940
#
# Stress axis : x y z
#
# Youngs Moduli (GPa) = 33.24994 75.33888 66.08837
#
# Poissons Ratio (x) = 0.32172 0.61011
# Poissons Ratio (y) = 0.14199 0.32967
# Poissons Ratio (z) = 0.30695 0.37581
#
# Static dielectric constant tensor:
#      x y z
#    x 3.412710 0.000000 0.000000 
#    y 0.000000 3.615280 0.000000 
#    z 0.000000 0.000000 3.579940 
# 
# 
# High freq. dielectric constant tensor:
#      x y z
#    x 1.752030 0.000000 0.000000 
#    y 0.000000 1.771520 0.000000 
#    z 0.000000 0.000000 1.765380 
# 
# From -- ./inp_files/40450.got.cif
#   From: 2010.03.12/outbox.cif.g09.slc.cpg/sg63_21_cif.got.tgz:40450.got - 2010.04.10 19:34:48.
