data_PCOD8260892
_publ_section_title
;
Structure prediction by ZEFSAII (Michael W. Deem and Ramdas Pophale) SiO2 
 PCOD8260892
Probable space group: C M C M
;
_chemical_formula_sum "Si O2"
_cell_formula_units_Z 112
_cell_length_a 24.680432
_cell_length_b 12.821412
_cell_length_c 21.867285
_cell_angle_alpha 90.000000
_cell_angle_beta 90.000000
_cell_angle_gamma 90.000000
_cell_volume 6919.639647
_symmetry_space_group_name_H-M "C M C M"
_symmetry_group_IT_number 63
_symmetry_cell_setting 'orthorhombic'
loop_
_space_group_symop_operation_xyz
x,y,z
-x,-y,1/2+z
x,-y,-z
-x,y,1/2-z
-x,-y,-z
x,y,1/2-z
-x,y,z
x,-y,1/2+z
1/2+x,1/2+y,z
1/2-x,1/2-y,1/2+z
1/2+x,1/2-y,-z
1/2-x,1/2+y,1/2-z
1/2-x,1/2-y,-z
1/2+x,1/2+y,1/2-z
1/2-x,1/2+y,z
1/2+x,1/2-y,1/2+z
loop_
_atom_site_type_symbol
_atom_site_label
_atom_site_fract_x
_atom_site_fract_y
_atom_site_fract_z
Si Si1 0.188350 0.726833 0.487198
Si Si2 0.829280 0.944883 0.437785
Si Si3 0.230322 0.817244 0.816914
Si Si4 0.341110 0.833325 0.384861
Si Si5 0.939598 0.234623 0.179092
Si Si6 0.373344 0.538402 0.317679
Si Si7 0.787279 0.458315 0.907528
O O1 0.250000 0.750000 0.500000
O O2 0.166347 0.820109 0.444874
O O3 0.154918 0.724743 0.550020
O O4 0.184570 0.610736 0.459890
O O5 0.852215 0.000000 0.500000
O O6 0.865390 0.964120 0.376654
O O7 0.768031 0.986485 0.429479
O O8 0.253086 0.788886 0.750000
O O9 0.211851 0.710958 0.849653
O O10 0.178189 0.888638 0.812316
O O11 0.277291 0.877619 0.852480
O O12 0.398305 0.814003 0.352890
O O13 0.331583 0.956742 0.388478
O O14 0.937265 0.262632 0.250000
O O15 0.924421 0.113152 0.168908
O O16 0.000000 0.252125 0.152699
O O17 0.380221 0.482232 0.250000
#
# Coordination Sequence:
#
# PCOD8260892 Si02
#       7
#    16  16  16  16  16  16  16
#     4  12  19  30  45  68  98 135 176 205 233 300
#     4  11  17  27  47  69  98 133 170 204 244 297
#     4   9  17  28  41  63  94 124 155 194 242 296
#     4  11  19  30  49  68  98 130 165 208 251 295
#     4   9  18  34  55  77  97 122 166 217 259 301
#     4   8  16  29  46  68  94 124 157 201 260 306
#     4  11  19  29  43  67  96 133 168 198 237 296
#
# _framework density 16.185814000000001
#
# number of rings (size 3 to 8) (size 9 to 14) (size 15 to 20)
#    0.000    1.857    4.286    3.429    0.000    1.143 
#    0.000    3.571    0.000    5.571    0.000    0.000 
#    0.000    2.286    0.000    0.000    0.000    0.000 
#
# Total GULP energy -693998.108066 kJ/mol
# GULP energy per Si atom -12392.823358 kJ/mol
# Density = 1.614897 g / cm^3
# Si number density = 16.185814 Si / 1000 Ang^3
#
#
#
# Elastic Constant Matrix: (Units=GPa)
#
#
# Indices 1 2 3 4 5 6 
#
# 1 67.8910 31.3252 35.0450 0.0000 0.0000 0.0000
# 2 31.3252 84.7719 34.9498 0.0000 0.0000 0.0000
# 3 35.0450 34.9498 106.3289 0.0000 0.0000 0.0000
# 4 0.0000 0.0000 0.0000 20.5689 0.0000 0.0000
# 5 0.0000 0.0000 0.0000 0.0000 14.7146 0.0000
# 6 0.0000 0.0000 0.0000 0.0000 0.0000 12.0302
#
#
#
# Elastic Compliance Matrix: (Units=1/GPa)
#
#
# Indices 1 2 3 4 5 6 
#
# 1 0.019613 -0.005301 -0.004722 0.000000 0.000000 0.000000
# 2 -0.005301 0.015078 -0.003209 0.000000 0.000000 0.000000
# 3 -0.004722 -0.003209 0.012016 0.000000 0.000000 0.000000
# 4 0.000000 0.000000 0.000000 0.048617 0.000000 0.000000
# 5 0.000000 0.000000 0.000000 0.000000 0.067960 0.000000
# 6 0.000000 0.000000 0.000000 0.000000 0.000000 0.083124
#
#
# Mechanical properties :
#
#
# Convention : Reuss Voigt Hill
#
# Bulk Modulus (GPa) = 49.39850 51.29244 50.34547
# Shear Modulus (GPa) = 17.88150 19.97419 18.92784
#
# Velocity S-wave (km/s) = 3.32740 3.51672 3.42337
# Velocity P-wave (km/s) = 6.73410 6.94610 6.84092
#
# Compressibility (1/GPa) = 0.02024353
#
# Stress axis : x y z
#
# Youngs Moduli (GPa) = 50.98757 66.32137 83.22332
#
# Poissons Ratio (x) = 0.35154 0.39297
# Poissons Ratio (y) = 0.27026 0.26707
# Poissons Ratio (z) = 0.24076 0.21283
#
# Static dielectric constant tensor:
#      x y z
#    x 2.738050 0.000000 0.000000 
#    y 0.000000 2.910360 0.000000 
#    z 0.000000 0.000000 3.048410 
# 
# 
# High freq. dielectric constant tensor:
#      x y z
#    x 1.561210 0.000000 0.000000 
#    y 0.000000 1.612990 0.000000 
#    z 0.000000 0.000000 1.641210 
# 
# From -- ./inp_files/65117.got.cif
#   From: 2010.03.12/outbox.cif.g09.slc.cpg/sg63_33_cif.got.tgz:65117.got - 2010.04.10 19:34:48.
