data_PCOD8260662
_publ_section_title
;
Structure prediction by ZEFSAII (Michael W. Deem and Ramdas Pophale) SiO2 
 PCOD8260662
Probable space group: C M C M
;
_chemical_formula_sum "Si O2"
_cell_formula_units_Z 64
_cell_length_a 14.826401
_cell_length_b 12.183877
_cell_length_c 14.422607
_cell_angle_alpha 90.000000
_cell_angle_beta 90.000000
_cell_angle_gamma 90.000000
_cell_volume 2605.343662
_symmetry_space_group_name_H-M "C M C M"
_symmetry_group_IT_number 63
_symmetry_cell_setting 'orthorhombic'
loop_
_space_group_symop_operation_xyz
x,y,z
-x,-y,1/2+z
x,-y,-z
-x,y,1/2-z
-x,-y,-z
x,y,1/2-z
-x,y,z
x,-y,1/2+z
1/2+x,1/2+y,z
1/2-x,1/2-y,1/2+z
1/2+x,1/2-y,-z
1/2-x,1/2+y,1/2-z
1/2-x,1/2-y,-z
1/2+x,1/2+y,1/2-z
1/2-x,1/2+y,z
1/2+x,1/2-y,1/2+z
loop_
_atom_site_type_symbol
_atom_site_label
_atom_site_fract_x
_atom_site_fract_y
_atom_site_fract_z
Si Si1 0.351710 0.250077 0.528757
Si Si2 0.398234 0.465090 0.641819
Si Si3 0.786343 0.559474 0.643876
Si Si4 0.097597 0.351818 0.851461
O O1 0.250000 0.250000 0.500000
O O2 0.388747 0.353467 0.584143
O O3 0.354475 0.141368 0.592588
O O4 0.407124 0.237890 0.433093
O O5 0.383174 0.437120 0.750000
O O6 0.500000 0.512105 0.624822
O O7 0.319858 0.552297 0.609918
O O8 0.789037 0.595292 0.750000
O O9 0.823764 0.437639 0.627172
O O10 0.116465 0.295978 0.750000
O O11 0.000000 0.411003 0.847770
#
# Coordination Sequence:
#
# PCOD8260662 Si02
#       4
#    16  16  16  16
#     4  12  23  37  65  94 127 167 212 263 319 379
#     4  10  22  42  67  96 131 172 217 263 314 383
#     4  10  22  41  64  92 128 166 208 263 323 382
#     4  10  22  40  62  89 125 166 208 261 321 378
#
# _framework density 24.564896999999998
#
# number of rings (size 3 to 8) (size 9 to 14) (size 15 to 20)
#    0.000    1.500    2.500    2.250    0.000    4.000 
#    0.000    6.250    0.000    3.000    0.000    0.000 
#    0.000    0.000    0.000    0.000    0.000    0.000 
#
# Total GULP energy -396444.399614 kJ/mol
# GULP energy per Si atom -12388.887488 kJ/mol
# Density = 2.450899 g / cm^3
# Si number density = 24.564897 Si / 1000 Ang^3
#
#
#
# Elastic Constant Matrix: (Units=GPa)
#
#
# Indices 1 2 3 4 5 6 
#
# 1 104.7073 -18.9446 -2.3233 0.0000 0.0000 0.0000
# 2 -18.9446 18.9129 12.5950 0.0000 0.0000 0.0000
# 3 -2.3233 12.5950 96.2757 0.0000 0.0000 0.0000
# 4 0.0000 0.0000 0.0000 5.9585 0.0000 0.0000
# 5 0.0000 0.0000 0.0000 0.0000 17.7007 0.0000
# 6 0.0000 0.0000 0.0000 0.0000 0.0000 26.1478
#
#
#
# Elastic Compliance Matrix: (Units=1/GPa)
#
#
# Indices 1 2 3 4 5 6 
#
# 1 0.011831 0.012773 -0.001386 0.000000 0.000000 0.000000
# 2 0.012773 0.071711 -0.009073 0.000000 0.000000 0.000000
# 3 -0.001386 -0.009073 0.011540 0.000000 0.000000 0.000000
# 4 0.000000 0.000000 0.000000 0.167828 0.000000 0.000000
# 5 0.000000 0.000000 0.000000 0.000000 0.056495 0.000000
# 6 0.000000 0.000000 0.000000 0.000000 0.000000 0.038244
#
#
# Mechanical properties :
#
#
# Convention : Reuss Voigt Hill
#
# Bulk Modulus (GPa) = 10.02901 22.50560 16.26730
# Shear Modulus (GPa) = 12.94477 25.19932 19.07205
#
# Velocity S-wave (km/s) = 2.29806 3.20633 2.78941
# Velocity P-wave (km/s) = 3.33661 4.78424 4.12443
#
# Compressibility (1/GPa) = 0.09971079
#
# Stress axis : x y z
#
# Youngs Moduli (GPa) = 84.52570 13.94494 86.65235
#
# Poissons Ratio (x) = -0.17812 0.12006
# Poissons Ratio (y) = -1.07966 0.78621
# Poissons Ratio (z) = 0.11711 0.12652
#
# Static dielectric constant tensor:
#      x y z
#    x 5.221940 0.000000 0.000000 
#    y 0.000000 3.938850 0.000000 
#    z 0.000000 0.000000 4.015920 
# 
# 
# High freq. dielectric constant tensor:
#      x y z
#    x 1.989470 0.000000 0.000000 
#    y 0.000000 1.943660 0.000000 
#    z 0.000000 0.000000 2.002500 
# 
# From -- ./inp_files/31097.got.cif
#   From: 2010.03.12/outbox.cif.g09.slc.cpg/sg63_16_cif.got.tgz:31097.got - 2010.04.10 19:34:48.
