data_PCOD8260976
_publ_section_title
;
Structure prediction by ZEFSAII (Michael W. Deem and Ramdas Pophale) SiO2 
 PCOD8260976
Probable space group: C M C M
;
_chemical_formula_sum "Si O2"
_cell_formula_units_Z 96
_cell_length_a 23.104322
_cell_length_b 13.457981
_cell_length_c 19.430319
_cell_angle_alpha 90.000000
_cell_angle_beta 90.000000
_cell_angle_gamma 90.000000
_cell_volume 6041.615329
_symmetry_space_group_name_H-M "C M C M"
_symmetry_group_IT_number 63
_symmetry_cell_setting 'orthorhombic'
loop_
_space_group_symop_operation_xyz
x,y,z
-x,-y,1/2+z
x,-y,-z
-x,y,1/2-z
-x,-y,-z
x,y,1/2-z
-x,y,z
x,-y,1/2+z
1/2+x,1/2+y,z
1/2-x,1/2-y,1/2+z
1/2+x,1/2-y,-z
1/2-x,1/2+y,1/2-z
1/2-x,1/2-y,-z
1/2+x,1/2+y,1/2-z
1/2-x,1/2+y,z
1/2+x,1/2-y,1/2+z
loop_
_atom_site_type_symbol
_atom_site_label
_atom_site_fract_x
_atom_site_fract_y
_atom_site_fract_z
Si Si1 0.676565 0.625806 0.327938
Si Si2 0.229719 0.475776 0.577988
Si Si3 0.286537 0.808488 0.401768
Si Si4 0.565173 0.349594 0.454244
Si Si5 0.828135 0.721645 0.448415
Si Si6 0.565417 0.437974 0.896959
O O1 0.693400 0.598921 0.250000
O O2 0.714609 0.561214 0.380542
O O3 0.688211 0.743284 0.339426
O O4 0.609158 0.602090 0.339450
O O5 0.250283 0.500000 0.500000
O O6 0.203168 0.574686 0.612897
O O7 0.179739 0.391817 0.577687
O O8 0.217745 0.792256 0.410060
O O9 0.318911 0.771606 0.470077
O O10 0.500000 0.308236 0.447626
O O11 0.607987 0.261297 0.430778
O O12 0.578477 0.382453 0.531803
O O13 0.573833 0.443984 0.404941
O O14 0.500000 0.415013 0.872615
#
# Coordination Sequence:
#
# PCOD8260976 Si02
#       6
#    16  16  16  16  16  16
#     4  11  21  30  46  70  97 128 161 197 237 286
#     4   9  19  31  50  71  93 129 159 196 239 287
#     4   9  17  29  44  64  92 122 153 190 234 289
#     4   9  16  27  48  73  95 120 157 202 241 279
#     4   9  15  27  48  69  87 118 157 191 234 285
#     4   9  18  29  44  67  96 129 159 193 239 285
#
# _framework density 15.889791000000001
#
# number of rings (size 3 to 8) (size 9 to 14) (size 15 to 20)
#    0.000    2.667    1.667    3.000    2.333    1.000 
#    0.000    0.000    0.000    5.500    0.000    0.000 
#    0.000    0.000    0.000    0.000    0.000    0.000 
#
# Total GULP energy -595084.813092 kJ/mol
# GULP energy per Si atom -12397.600273 kJ/mol
# Density = 1.585363 g / cm^3
# Si number density = 15.889791 Si / 1000 Ang^3
#
#
#
# Elastic Constant Matrix: (Units=GPa)
#
#
# Indices 1 2 3 4 5 6 
#
# 1 110.4430 59.2738 28.4683 0.0000 0.0000 0.0000
# 2 59.2738 109.1390 31.3194 0.0000 0.0000 0.0000
# 3 28.4683 31.3194 53.5283 0.0000 0.0000 0.0000
# 4 0.0000 0.0000 0.0000 13.6607 0.0000 0.0000
# 5 0.0000 0.0000 0.0000 0.0000 12.4744 0.0000
# 6 0.0000 0.0000 0.0000 0.0000 0.0000 27.2865
#
#
#
# Elastic Compliance Matrix: (Units=1/GPa)
#
#
# Indices 1 2 3 4 5 6 
#
# 1 0.013280 -0.006232 -0.003416 0.000000 0.000000 0.000000
# 2 -0.006232 0.013936 -0.004840 0.000000 0.000000 0.000000
# 3 -0.003416 -0.004840 0.023330 0.000000 0.000000 0.000000
# 4 0.000000 0.000000 0.000000 0.073203 0.000000 0.000000
# 5 0.000000 0.000000 0.000000 0.000000 0.080164 0.000000
# 6 0.000000 0.000000 0.000000 0.000000 0.000000 0.036648
#
#
# Mechanical properties :
#
#
# Convention : Reuss Voigt Hill
#
# Bulk Modulus (GPa) = 46.36000 56.80370 51.58185
# Shear Modulus (GPa) = 18.06836 20.95423 19.51130
#
# Velocity S-wave (km/s) = 3.37576 3.63536 3.50796
# Velocity P-wave (km/s) = 6.66586 7.31077 6.99575
#
# Compressibility (1/GPa) = 0.02157032
#
# Stress axis : x y z
#
# Youngs Moduli (GPa) = 75.30327 71.75669 42.86267
#
# Poissons Ratio (x) = 0.44718 0.14643
# Poissons Ratio (y) = 0.46928 0.20744
# Poissons Ratio (z) = 0.25726 0.34727
#
# Static dielectric constant tensor:
#      x y z
#    x 2.897320 0.000000 0.000000 
#    y 0.000000 3.096460 0.000000 
#    z 0.000000 0.000000 2.670420 
# 
# 
# High freq. dielectric constant tensor:
#      x y z
#    x 1.598210 0.000000 0.000000 
#    y 0.000000 1.610490 0.000000 
#    z 0.000000 0.000000 1.573050 
# 
# From -- ./inp_files/56696.got.cif
#   From: 2010.03.12/outbox.cif.g09.slc.cpg/sg63_29_cif.got.tgz:56696.got - 2010.04.10 19:34:48.
