data_PCOD8260626
_publ_section_title
;
Structure prediction by ZEFSAII (Michael W. Deem and Ramdas Pophale) SiO2 
 PCOD8260626
Probable space group: C M C M
;
_chemical_formula_sum "Si O2"
_cell_formula_units_Z 96
_cell_length_a 14.745531
_cell_length_b 17.670721
_cell_length_c 14.677651
_cell_angle_alpha 90.000000
_cell_angle_beta 90.000000
_cell_angle_gamma 90.000000
_cell_volume 3824.469867
_symmetry_space_group_name_H-M "C M C M"
_symmetry_group_IT_number 63
_symmetry_cell_setting 'orthorhombic'
loop_
_space_group_symop_operation_xyz
x,y,z
-x,-y,1/2+z
x,-y,-z
-x,y,1/2-z
-x,-y,-z
x,y,1/2-z
-x,y,z
x,-y,1/2+z
1/2+x,1/2+y,z
1/2-x,1/2-y,1/2+z
1/2+x,1/2-y,-z
1/2-x,1/2+y,1/2-z
1/2-x,1/2-y,-z
1/2+x,1/2+y,1/2-z
1/2-x,1/2+y,z
1/2+x,1/2-y,1/2+z
loop_
_atom_site_type_symbol
_atom_site_label
_atom_site_fract_x
_atom_site_fract_y
_atom_site_fract_z
Si Si1 0.900233 0.337818 0.112015
Si Si2 0.097240 0.569992 0.351606
Si Si3 0.244081 0.457743 0.148153
Si Si4 0.842172 0.183201 0.148062
Si Si5 0.102366 0.883786 0.032054
Si Si6 0.349566 0.782884 0.580816
O O1 0.824310 0.387598 0.160623
O O2 0.909579 0.254106 0.156387
O O3 0.000000 0.375524 0.121909
O O4 0.872392 0.332599 0.007176
O O5 0.092945 0.537189 0.250000
O O6 0.185750 0.528081 0.395641
O O7 0.110336 0.661135 0.342625
O O8 0.000000 0.551552 0.399988
O O9 0.281972 0.475930 0.250000
O O10 0.328867 0.440852 0.081636
O O11 0.825054 0.148581 0.250000
O O12 0.757107 0.223892 0.098717
O O13 0.877888 0.119478 0.077490
O O14 0.107739 0.800340 0.077585
O O15 0.000000 0.914059 0.045869
#
# Coordination Sequence:
#
# PCOD8260626 Si02
#       6
#    16  16  16  16  16  16
#     4  11  21  36  61  93 130 169 214 266 325 393
#     4  10  22  39  62  96 136 176 218 267 331 405
#     4  11  23  41  61  92 133 176 224 271 326 392
#     4  11  21  37  63  94 134 177 215 270 337 394
#     4  11  23  42  67  99 132 169 226 281 330 395
#     4  11  20  39  63  97 133 167 209 269 334 398
#
# _framework density 25.101519
#
# number of rings (size 3 to 8) (size 9 to 14) (size 15 to 20)
#    0.000    1.167    3.333    5.500    0.000    4.667 
#    0.000    1.667    0.000    3.000    0.000    4.667 
#    0.000    0.000    0.000    0.000    0.000    0.000 
#
# Total GULP energy -594725.672969 kJ/mol
# GULP energy per Si atom -12390.118187 kJ/mol
# Density = 2.504439 g / cm^3
# Si number density = 25.101519 Si / 1000 Ang^3
#
#
#
# Elastic Constant Matrix: (Units=GPa)
#
#
# Indices 1 2 3 4 5 6 
#
# 1 178.5055 19.2006 41.7856 0.0000 0.0000 0.0000
# 2 19.2006 79.6788 12.7194 0.0000 0.0000 0.0000
# 3 41.7856 12.7194 98.7958 0.0000 0.0000 0.0000
# 4 0.0000 0.0000 0.0000 18.3237 0.0000 0.0000
# 5 0.0000 0.0000 0.0000 0.0000 11.5158 0.0000
# 6 0.0000 0.0000 0.0000 0.0000 0.0000 9.9101
#
#
#
# Elastic Compliance Matrix: (Units=1/GPa)
#
#
# Indices 1 2 3 4 5 6 
#
# 1 0.006314 -0.001118 -0.002526 0.000000 0.000000 0.000000
# 2 -0.001118 0.013012 -0.001202 0.000000 0.000000 0.000000
# 3 -0.002526 -0.001202 0.011345 0.000000 0.000000 0.000000
# 4 0.000000 0.000000 0.000000 0.054574 0.000000 0.000000
# 5 0.000000 0.000000 0.000000 0.000000 0.086837 0.000000
# 6 0.000000 0.000000 0.000000 0.000000 0.000000 0.100908
#
#
# Mechanical properties :
#
#
# Convention : Reuss Voigt Hill
#
# Bulk Modulus (GPa) = 47.67123 56.04348 51.85735
# Shear Modulus (GPa) = 17.26068 26.83488 22.04778
#
# Velocity S-wave (km/s) = 2.62512 3.27319 2.96690
# Velocity P-wave (km/s) = 5.31234 6.05477 5.69566
#
# Compressibility (1/GPa) = 0.02097701
#
# Stress axis : x y z
#
# Youngs Moduli (GPa) = 158.38468 76.85360 88.14282
#
# Poissons Ratio (x) = 0.08593 0.22269
# Poissons Ratio (y) = 0.17710 0.10597
# Poissons Ratio (z) = 0.40015 0.09240
#
# Static dielectric constant tensor:
#      x y z
#    x 4.657040 0.000000 0.000000 
#    y 0.000000 4.257070 0.000000 
#    z 0.000000 0.000000 4.456670 
# 
# 
# High freq. dielectric constant tensor:
#      x y z
#    x 2.003870 0.000000 0.000000 
#    y 0.000000 1.984340 0.000000 
#    z 0.000000 0.000000 1.991460 
# 
# From -- ./inp_files/31929.got.cif
#   From: 2010.03.12/outbox.cif.g09.slc.cpg/sg63_16_cif.got.tgz:31929.got - 2010.04.10 19:34:48.
