data_PCOD8260714
_publ_section_title
;
Structure prediction by ZEFSAII (Michael W. Deem and Ramdas Pophale) SiO2 
 PCOD8260714
Probable space group: C M C M
;
_chemical_formula_sum "Si O2"
_cell_formula_units_Z 88
_cell_length_a 22.049102
_cell_length_b 22.896817
_cell_length_c 8.848808
_cell_angle_alpha 90.000000
_cell_angle_beta 90.000000
_cell_angle_gamma 90.000000
_cell_volume 4467.358357
_symmetry_space_group_name_H-M "C M C M"
_symmetry_group_IT_number 63
_symmetry_cell_setting 'orthorhombic'
loop_
_space_group_symop_operation_xyz
x,y,z
-x,-y,1/2+z
x,-y,-z
-x,y,1/2-z
-x,-y,-z
x,y,1/2-z
-x,y,z
x,-y,1/2+z
1/2+x,1/2+y,z
1/2-x,1/2-y,1/2+z
1/2+x,1/2-y,-z
1/2-x,1/2+y,1/2-z
1/2-x,1/2-y,-z
1/2+x,1/2+y,1/2-z
1/2-x,1/2+y,z
1/2+x,1/2-y,1/2+z
loop_
_atom_site_type_symbol
_atom_site_label
_atom_site_fract_x
_atom_site_fract_y
_atom_site_fract_z
Si Si1 0.000000 0.064423 0.570636
Si Si2 0.624183 0.374530 0.422843
Si Si3 0.335345 0.148362 0.073479
Si Si4 0.066845 0.555668 0.075944
Si Si5 0.184328 0.762672 0.571524
Si Si6 0.755731 0.938588 0.423692
O O1 0.940432 0.100858 0.517324
O O2 0.000000 0.056477 0.750000
O O3 0.000000 0.000000 0.500000
O O4 0.617991 0.353475 0.250000
O O5 0.648435 0.319949 0.518629
O O6 0.672374 0.427305 0.435941
O O7 0.323062 0.160709 0.250000
O O8 0.395173 0.112276 0.042081
O O9 0.353050 0.206653 0.983195
O O10 0.276771 0.115077 0.008271
O O11 0.063009 0.541428 0.250000
O O12 0.000000 0.565366 0.006070
O O13 0.099214 0.500000 0.000000
O O14 0.191509 0.765674 0.750000
O O15 0.250000 0.750000 0.500000
O O16 0.734173 0.940499 0.250000
O O17 0.739277 0.000000 0.500000
#
# Coordination Sequence:
#
# PCOD8260714 Si02
#       6
#     8  16  16  16  16  16
#     4  10  22  42  68  96 128 168 213 260 313 374
#     4  10  22  41  63  89 122 163 207 252 306 365
#     4  11  22  37  59  85 117 154 198 245 299 360
#     4   9  19  36  57  82 113 151 192 235 286 343
#     4  12  24  40  63  88 119 156 198 247 304 365
#     4  11  22  35  56  86 121 155 196 245 301 360
#
# _framework density 19.698443000000001
#
# number of rings (size 3 to 8) (size 9 to 14) (size 15 to 20)
#    0.000    1.455    1.818    3.818    0.000    4.364 
#    1.636    0.000    0.000    0.000    0.000    0.000 
#    0.000    0.000    0.000    0.000    0.000    0.000 
#
# Total GULP energy -545511.577615 kJ/mol
# GULP energy per Si atom -12397.990400 kJ/mol
# Density = 1.965361 g / cm^3
# Si number density = 19.698443 Si / 1000 Ang^3
#
#
#
# Elastic Constant Matrix: (Units=GPa)
#
#
# Indices 1 2 3 4 5 6 
#
# 1 101.0072 51.4244 53.9506 0.0000 0.0000 0.0000
# 2 51.4244 140.6313 66.2957 0.0000 0.0000 0.0000
# 3 53.9506 66.2957 99.4842 0.0000 0.0000 0.0000
# 4 0.0000 0.0000 0.0000 39.8617 0.0000 0.0000
# 5 0.0000 0.0000 0.0000 0.0000 24.9913 0.0000
# 6 0.0000 0.0000 0.0000 0.0000 0.0000 35.0462
#
#
#
# Elastic Compliance Matrix: (Units=1/GPa)
#
#
# Indices 1 2 3 4 5 6 
#
# 1 0.014437 -0.002316 -0.006286 0.000000 0.000000 0.000000
# 2 -0.002316 0.010739 -0.005901 0.000000 0.000000 0.000000
# 3 -0.006286 -0.005901 0.017393 0.000000 0.000000 0.000000
# 4 0.000000 0.000000 0.000000 0.025087 0.000000 0.000000
# 5 0.000000 0.000000 0.000000 0.000000 0.040014 0.000000
# 6 0.000000 0.000000 0.000000 0.000000 0.000000 0.028534
#
#
# Mechanical properties :
#
#
# Convention : Reuss Voigt Hill
#
# Bulk Modulus (GPa) = 73.72377 76.05159 74.88768
# Shear Modulus (GPa) = 29.45863 31.27664 30.36763
#
# Velocity S-wave (km/s) = 3.87134 3.98901 3.93061
# Velocity P-wave (km/s) = 7.58225 7.74002 7.66154
#
# Compressibility (1/GPa) = 0.01356415
#
# Stress axis : x y z
#
# Youngs Moduli (GPa) = 69.26772 93.11585 57.49469
#
# Poissons Ratio (x) = 0.21564 0.36140
# Poissons Ratio (y) = 0.16041 0.33926
# Poissons Ratio (z) = 0.43541 0.54945
#
# Static dielectric constant tensor:
#      x y z
#    x 5.607250 0.000000 0.000000 
#    y 0.000000 3.920290 0.000000 
#    z 0.000000 0.000000 3.660540 
# 
# 
# High freq. dielectric constant tensor:
#      x y z
#    x 1.768310 0.000000 0.000000 
#    y 0.000000 1.776390 0.000000 
#    z 0.000000 0.000000 1.770010 
# 
# From -- ./inp_files/8196.got.cif
#   From: 2010.03.12/outbox.cif.g09.slc.cpg/sg63_5_cif.got.tgz:8196.got - 2010.04.10 19:34:48.
