data_PCOD8260195
_publ_section_title
;
Structure prediction by ZEFSAII (Michael W. Deem and Ramdas Pophale) SiO2 
 PCOD8260195
Probable space group: C M C M
;
_chemical_formula_sum "Si O2"
_cell_formula_units_Z 96
_cell_length_a 19.081296
_cell_length_b 9.364142
_cell_length_c 27.602050
_cell_angle_alpha 90.000000
_cell_angle_beta 90.000000
_cell_angle_gamma 90.000000
_cell_volume 4931.933336
_symmetry_space_group_name_H-M "C M C M"
_symmetry_group_IT_number 63
_symmetry_cell_setting 'orthorhombic'
loop_
_space_group_symop_operation_xyz
x,y,z
-x,-y,1/2+z
x,-y,-z
-x,y,1/2-z
-x,-y,-z
x,y,1/2-z
-x,y,z
x,-y,1/2+z
1/2+x,1/2+y,z
1/2-x,1/2-y,1/2+z
1/2+x,1/2-y,-z
1/2-x,1/2+y,1/2-z
1/2-x,1/2-y,-z
1/2+x,1/2+y,1/2-z
1/2-x,1/2+y,z
1/2+x,1/2-y,1/2+z
loop_
_atom_site_type_symbol
_atom_site_label
_atom_site_fract_x
_atom_site_fract_y
_atom_site_fract_z
Si Si1 0.195089 0.670667 0.192762
Si Si2 0.799870 0.372686 0.362151
Si Si3 0.722298 0.367850 0.464163
Si Si4 0.078646 0.106972 0.805680
Si Si5 0.919776 0.842375 0.866187
Si Si6 0.074967 0.944149 0.447592
O O1 0.206679 0.641005 0.250000
O O2 0.194514 0.526049 0.162444
O O3 0.255212 0.771898 0.172526
O O4 0.121949 0.750788 0.182778
O O5 0.770464 0.387860 0.416814
O O6 0.876898 0.303943 0.363733
O O7 0.721227 0.500000 0.500000
O O8 0.750000 0.250000 0.500000
O O9 0.642371 0.338334 0.444631
O O10 0.080328 0.069289 0.750000
O O11 0.000000 0.134874 0.824825
O O12 0.110683 0.966146 0.830800
O O13 0.000000 0.804462 0.853123
O O14 0.910182 0.909954 0.918839
O O15 0.000000 0.873006 0.429887
O O16 0.062364 0.000000 0.500000
#
# Coordination Sequence:
#
# PCOD8260195 Si02
#       6
#    16  16  16  16  16  16
#     4  11  23  37  57  84 116 154 192 234 284 343
#     4  12  23  38  58  83 117 152 192 239 288 341
#     4  11  22  37  58  85 114 147 188 236 288 341
#     4   9  19  37  59  83 112 146 186 233 286 343
#     4  10  21  37  59  84 110 145 191 240 288 340
#     4   9  17  32  55  80 106 139 180 226 277 333
#
# _framework density 19.464983
#
# number of rings (size 3 to 8) (size 9 to 14) (size 15 to 20)
#    0.000    1.667    0.000    6.500    0.000    3.333 
#    0.000    0.000    0.000    4.000    0.000    0.000 
#    0.000    0.000    0.000    0.000    0.000    0.000 
#
# Total GULP energy -594736.288563 kJ/mol
# GULP energy per Si atom -12390.339345 kJ/mol
# Density = 1.942068 g / cm^3
# Si number density = 19.464983 Si / 1000 Ang^3
#
#
#
# Elastic Constant Matrix: (Units=GPa)
#
#
# Indices 1 2 3 4 5 6 
#
# 1 117.8631 64.5932 45.8126 0.0000 0.0000 0.0000
# 2 64.5932 106.4710 48.7627 0.0000 0.0000 0.0000
# 3 45.8126 48.7627 125.1227 0.0000 0.0000 0.0000
# 4 0.0000 0.0000 0.0000 39.5463 0.0000 0.0000
# 5 0.0000 0.0000 0.0000 0.0000 25.5535 0.0000
# 6 0.0000 0.0000 0.0000 0.0000 0.0000 40.8384
#
#
#
# Elastic Compliance Matrix: (Units=1/GPa)
#
#
# Indices 1 2 3 4 5 6 
#
# 1 0.013138 -0.007021 -0.002074 0.000000 0.000000 0.000000
# 2 -0.007021 0.015184 -0.003347 0.000000 0.000000 0.000000
# 3 -0.002074 -0.003347 0.010056 0.000000 0.000000 0.000000
# 4 0.000000 0.000000 0.000000 0.025287 0.000000 0.000000
# 5 0.000000 0.000000 0.000000 0.000000 0.039134 0.000000
# 6 0.000000 0.000000 0.000000 0.000000 0.000000 0.024487
#
#
# Mechanical properties :
#
#
# Convention : Reuss Voigt Hill
#
# Bulk Modulus (GPa) = 74.10402 74.19932 74.15167
# Shear Modulus (GPa) = 31.91456 33.87353 32.89405
#
# Velocity S-wave (km/s) = 4.05358 4.17613 4.11531
# Velocity P-wave (km/s) = 7.74995 7.83936 7.79478
#
# Compressibility (1/GPa) = 0.01349454
#
# Stress axis : x y z
#
# Youngs Moduli (GPa) = 76.11351 65.85712 99.44196
#
# Poissons Ratio (x) = 0.46236 0.20628
# Poissons Ratio (y) = 0.53436 0.33284
# Poissons Ratio (z) = 0.15789 0.22043
#
# Static dielectric constant tensor:
#      x y z
#    x 4.335460 0.000000 0.000000 
#    y 0.000000 3.182360 0.000000 
#    z 0.000000 0.000000 3.831250 
# 
# 
# High freq. dielectric constant tensor:
#      x y z
#    x 1.773010 0.000000 0.000000 
#    y 0.000000 1.730880 0.000000 
#    z 0.000000 0.000000 1.784300 
# 
# From -- ./inp_files/70320.got.cif
#   From: 2010.03.12/outbox.cif.g09.slc.cpg/sg63_36_cif.got.tgz:70320.got - 2010.04.10 19:34:48.
