data_PCOD8260574
_publ_section_title
;
Structure prediction by ZEFSAII (Michael W. Deem and Ramdas Pophale) SiO2 
 PCOD8260574
Probable space group: C M C M
;
_chemical_formula_sum "Si O2"
_cell_formula_units_Z 72
_cell_length_a 17.364436
_cell_length_b 15.792220
_cell_length_c 13.772713
_cell_angle_alpha 90.000000
_cell_angle_beta 90.000000
_cell_angle_gamma 90.000000
_cell_volume 3776.794587
_symmetry_space_group_name_H-M "C M C M"
_symmetry_group_IT_number 63
_symmetry_cell_setting 'orthorhombic'
loop_
_space_group_symop_operation_xyz
x,y,z
-x,-y,1/2+z
x,-y,-z
-x,y,1/2-z
-x,-y,-z
x,y,1/2-z
-x,y,z
x,-y,1/2+z
1/2+x,1/2+y,z
1/2-x,1/2-y,1/2+z
1/2+x,1/2-y,-z
1/2-x,1/2+y,1/2-z
1/2-x,1/2-y,-z
1/2+x,1/2+y,1/2-z
1/2-x,1/2+y,z
1/2+x,1/2-y,1/2+z
loop_
_atom_site_type_symbol
_atom_site_label
_atom_site_fract_x
_atom_site_fract_y
_atom_site_fract_z
Si Si1 0.500000 0.935885 0.865312
Si Si2 0.849448 0.821665 0.036079
Si Si3 0.345353 0.978901 0.138838
Si Si4 0.714607 0.500000 0.000000
Si Si5 0.806799 0.286309 0.362387
Si Si6 0.000000 0.758015 0.134838
O O1 0.500000 0.942508 0.750000
O O2 0.500000 0.839136 0.900759
O O3 0.424072 0.983250 0.906088
O O4 0.781349 0.784481 0.102568
O O5 0.926791 0.806535 0.094120
O O6 0.840382 0.921718 0.022083
O O7 0.854056 0.778225 0.930005
O O8 0.338056 0.004425 0.250000
O O9 0.344492 0.878259 0.122936
O O10 0.271670 0.022707 0.088996
O O11 0.811529 0.257736 0.250000
O O12 0.000000 0.763870 0.250000
#
# Coordination Sequence:
#
# PCOD8260574 Si02
#       6
#     8  16  16   8  16   8
#     4   9  20  34  55  85 115 148 180 223 286 349
#     4  10  22  38  58  85 111 153 201 236 287 340
#     4   9  19  35  54  84 118 149 187 231 288 344
#     4  10  22  38  58  82 110 152 196 242 280 332
#     4   9  19  37  59  84 118 153 188 237 288 345
#     4  11  24  40  59  84 116 152 191 240 290 346
#
# _framework density 19.063783999999998
#
# number of rings (size 3 to 8) (size 9 to 14) (size 15 to 20)
#    0.000    2.444    0.000    0.667    9.333    3.556 
#    0.000    1.667    0.000    0.000    0.000    0.000 
#    0.000    0.000    0.000    0.000    0.000    0.000 
#
# Total GULP energy -446448.551764 kJ/mol
# GULP energy per Si atom -12401.348660 kJ/mol
# Density = 1.902039 g / cm^3
# Si number density = 19.063784 Si / 1000 Ang^3
#
#
#
# Elastic Constant Matrix: (Units=GPa)
#
#
# Indices 1 2 3 4 5 6 
#
# 1 131.3424 74.6216 49.0535 0.0000 0.0000 0.0000
# 2 74.6216 88.2693 49.2392 0.0000 0.0000 0.0000
# 3 49.0535 49.2392 117.3164 0.0000 0.0000 0.0000
# 4 0.0000 0.0000 0.0000 31.4811 0.0000 0.0000
# 5 0.0000 0.0000 0.0000 0.0000 47.1634 0.0000
# 6 0.0000 0.0000 0.0000 0.0000 0.0000 33.8524
#
#
#
# Elastic Compliance Matrix: (Units=1/GPa)
#
#
# Indices 1 2 3 4 5 6 
#
# 1 0.014783 -0.011816 -0.001222 0.000000 0.000000 0.000000
# 2 -0.011816 0.024236 -0.005232 0.000000 0.000000 0.000000
# 3 -0.001222 -0.005232 0.011231 0.000000 0.000000 0.000000
# 4 0.000000 0.000000 0.000000 0.031765 0.000000 0.000000
# 5 0.000000 0.000000 0.000000 0.000000 0.021203 0.000000
# 6 0.000000 0.000000 0.000000 0.000000 0.000000 0.029540
#
#
# Mechanical properties :
#
#
# Convention : Reuss Voigt Hill
#
# Bulk Modulus (GPa) = 72.93382 75.86184 74.39783
# Shear Modulus (GPa) = 28.75749 33.43364 31.09557
#
# Velocity S-wave (km/s) = 3.88814 4.19236 4.04311
# Velocity P-wave (km/s) = 7.64838 7.95704 7.80424
#
# Compressibility (1/GPa) = 0.01371106
#
# Stress axis : x y z
#
# Youngs Moduli (GPa) = 67.64442 41.26045 89.04113
#
# Poissons Ratio (x) = 0.48752 0.10881
# Poissons Ratio (y) = 0.79927 0.46584
# Poissons Ratio (z) = 0.08267 0.21586
#
# Static dielectric constant tensor:
#      x y z
#    x 3.418370 0.000000 0.000000 
#    y 0.000000 3.401400 0.000000 
#    z 0.000000 0.000000 3.649550 
# 
# 
# High freq. dielectric constant tensor:
#      x y z
#    x 1.729500 0.000000 0.000000 
#    y 0.000000 1.734890 0.000000 
#    z 0.000000 0.000000 1.753330 
# 
# From -- ./inp_files/33688.got.cif
#   From: 2010.03.12/outbox.cif.g09.slc.cpg/sg63_17_cif.got.tgz:33688.got - 2010.04.10 19:34:48.
