data_PCOD8260522
_publ_section_title
;
Structure prediction by ZEFSAII (Michael W. Deem and Ramdas Pophale) SiO2 
 PCOD8260522
Probable space group: C M C M
;
_chemical_formula_sum "Si O2"
_cell_formula_units_Z 72
_cell_length_a 17.451676
_cell_length_b 26.835089
_cell_length_c 7.680317
_cell_angle_alpha 90.000000
_cell_angle_beta 90.000000
_cell_angle_gamma 90.000000
_cell_volume 3596.825157
_symmetry_space_group_name_H-M "C M C M"
_symmetry_group_IT_number 63
_symmetry_cell_setting 'orthorhombic'
loop_
_space_group_symop_operation_xyz
x,y,z
-x,-y,1/2+z
x,-y,-z
-x,y,1/2-z
-x,-y,-z
x,y,1/2-z
-x,y,z
x,-y,1/2+z
1/2+x,1/2+y,z
1/2-x,1/2-y,1/2+z
1/2+x,1/2-y,-z
1/2-x,1/2+y,1/2-z
1/2-x,1/2-y,-z
1/2+x,1/2+y,1/2-z
1/2-x,1/2+y,z
1/2+x,1/2-y,1/2+z
loop_
_atom_site_type_symbol
_atom_site_label
_atom_site_fract_x
_atom_site_fract_y
_atom_site_fract_z
Si Si1 0.907291 0.308373 0.750000
Si Si2 0.137580 0.378018 0.448347
Si Si3 0.409857 0.695616 0.750000
Si Si4 0.087732 0.876686 0.551487
Si Si5 0.000000 0.443266 0.047358
Si Si6 0.726405 0.442904 0.551666
O O1 0.868378 0.330966 0.576413
O O2 0.878103 0.251468 0.750000
O O3 0.000000 0.313954 0.750000
O O4 0.119917 0.360494 0.250000
O O5 0.219091 0.405789 0.444832
O O6 0.075811 0.417062 0.525926
O O7 0.500000 0.698739 0.750000
O O8 0.382478 0.666923 0.575907
O O9 0.096594 0.857438 0.750000
O O10 0.138746 0.925983 0.519140
O O11 0.000000 0.891654 0.510119
O O12 0.000000 0.436644 0.250000
O O13 0.000000 0.500000 0.000000
O O14 0.736360 0.500000 0.500000
O O15 0.750962 0.436778 0.750000
#
# Coordination Sequence:
#
# PCOD8260522 Si02
#       6
#     8  16   8  16   8  16
#     4  11  22  40  65  88 119 155 204 259 298 350
#     4  11  23  39  57  85 123 160 200 248 295 353
#     4   9  20  38  65  92 112 156 201 246 310 352
#     4   9  20  40  63  89 123 154 197 247 296 365
#     4  10  22  34  54  82 110 156 200 235 291 345
#     4  11  23  38  61  90 123 163 198 242 304 357
#
# _framework density 20.017655000000001
#
# number of rings (size 3 to 8) (size 9 to 14) (size 15 to 20)
#    0.000    1.778    2.222    1.333    4.667    3.111 
#    0.000    3.333    0.000    0.000    0.000    0.000 
#    0.000    0.000    0.000    0.000    0.000    0.000 
#
# Total GULP energy -446338.834428 kJ/mol
# GULP energy per Si atom -12398.300956 kJ/mol
# Density = 1.997209 g / cm^3
# Si number density = 20.017655 Si / 1000 Ang^3
#
#
#
# Elastic Constant Matrix: (Units=GPa)
#
#
# Indices 1 2 3 4 5 6 
#
# 1 89.0779 32.0482 27.3455 0.0000 0.0000 0.0000
# 2 32.0482 98.9682 42.5511 0.0000 0.0000 0.0000
# 3 27.3455 42.5511 108.9208 0.0000 0.0000 0.0000
# 4 0.0000 0.0000 0.0000 32.0390 0.0000 0.0000
# 5 0.0000 0.0000 0.0000 0.0000 23.8139 0.0000
# 6 0.0000 0.0000 0.0000 0.0000 0.0000 -10.3527
#
#
#
# Elastic Compliance Matrix: (Units=1/GPa)
#
#
# Indices 1 2 3 4 5 6 
#
# 1 0.013043 -0.003384 -0.001953 0.000000 0.000000 0.000000
# 2 -0.003384 0.013022 -0.004238 0.000000 0.000000 0.000000
# 3 -0.001953 -0.004238 0.011327 0.000000 0.000000 0.000000
# 4 0.000000 0.000000 0.000000 0.031212 0.000000 0.000000
# 5 0.000000 0.000000 0.000000 0.000000 0.041992 0.000000
# 6 0.000000 0.000000 0.000000 0.000000 0.000000 -0.096593
#
#
# Mechanical properties :
#
#
# Convention : Reuss Voigt Hill
#
# Bulk Modulus (GPa) = 54.81485 55.65073 55.23279
# Shear Modulus (GPa) = 127.44434 22.10150 74.77292
#
# Velocity S-wave (km/s) = 7.98775 3.32641 6.11838
# Velocity P-wave (km/s) = 10.60731 6.52798 8.80708
#
# Compressibility (1/GPa) = 0.01824323
#
# Stress axis : x y z
#
# Youngs Moduli (GPa) = 76.66906 76.79278 88.28747
#
# Poissons Ratio (x) = 0.25988 0.17238
# Poissons Ratio (y) = 0.25946 0.37413
# Poissons Ratio (z) = 0.14970 0.32542
#
# Static dielectric constant tensor:
#      x y z
#    x 4.364600 0.000000 0.000000 
#    y 0.000000 3.571590 0.000000 
#    z 0.000000 0.000000 4.040860 
# 
# 
# High freq. dielectric constant tensor:
#      x y z
#    x 1.777460 0.000000 0.000000 
#    y 0.000000 1.763710 0.000000 
#    z 0.000000 0.000000 1.795430 
# 
# From -- ./inp_files/6195.got.cif
#   From: 2010.03.12/outbox.cif.g09.slc.cpg/sg63_4_cif.got.tgz:6195.got - 2010.04.10 19:34:48.
