data_PCOD8260874
_publ_section_title
;
Structure prediction by ZEFSAII (Michael W. Deem and Ramdas Pophale) SiO2 
 PCOD8260874
Probable space group: C M C M
;
_chemical_formula_sum "Si O2"
_cell_formula_units_Z 72
_cell_length_a 26.902368
_cell_length_b 14.620536
_cell_length_c 8.663721
_cell_angle_alpha 90.000000
_cell_angle_beta 90.000000
_cell_angle_gamma 90.000000
_cell_volume 3407.675735
_symmetry_space_group_name_H-M "C M C M"
_symmetry_group_IT_number 63
_symmetry_cell_setting 'orthorhombic'
loop_
_space_group_symop_operation_xyz
x,y,z
-x,-y,1/2+z
x,-y,-z
-x,y,1/2-z
-x,-y,-z
x,y,1/2-z
-x,y,z
x,-y,1/2+z
1/2+x,1/2+y,z
1/2-x,1/2-y,1/2+z
1/2+x,1/2-y,-z
1/2-x,1/2+y,1/2-z
1/2-x,1/2-y,-z
1/2+x,1/2+y,1/2-z
1/2-x,1/2+y,z
1/2+x,1/2-y,1/2+z
loop_
_atom_site_type_symbol
_atom_site_label
_atom_site_fract_x
_atom_site_fract_y
_atom_site_fract_z
Si Si1 0.874596 0.597438 0.932387
Si Si2 0.500000 0.601687 0.932541
Si Si3 0.092675 0.777038 0.432869
Si Si4 0.236027 0.347516 0.433294
Si Si5 0.168131 0.909823 0.567727
O O1 0.879911 0.595572 0.750000
O O2 0.818516 0.620482 0.985656
O O3 0.890988 0.500000 0.000000
O O4 0.911828 0.674439 0.000419
O O5 0.500000 0.592539 0.750000
O O6 0.452500 0.659313 0.990630
O O7 0.500000 0.500000 0.000000
O O8 0.094903 0.772397 0.250000
O O9 0.143351 0.818955 0.499950
O O10 0.241106 0.346658 0.250000
O O11 0.250000 0.250000 0.500000
O O12 0.275232 0.416880 0.509138
O O13 0.164585 0.907528 0.750000
O O14 0.140452 0.000000 0.500000
#
# Coordination Sequence:
#
# PCOD8260874 Si02
#       5
#    16   8  16  16  16
#     4  11  24  41  63  92 125 167 214 258 310 368
#     4  10  24  44  69 100 127 160 199 250 316 382
#     4  11  23  42  66  92 125 160 204 258 315 376
#     4  11  22  37  59  88 125 166 211 257 307 363
#     4  12  24  38  58  88 124 164 211 255 308 369
#
# _framework density 21.128772000000001
#
# number of rings (size 3 to 8) (size 9 to 14) (size 15 to 20)
#    0.000    0.889    2.222    5.333    0.000    8.000 
#    0.000    0.556    0.000    0.000    0.000    0.000 
#    0.000    0.000    0.000    0.000    0.000    0.000 
#
# Total GULP energy -446519.318323 kJ/mol
# GULP energy per Si atom -12403.314398 kJ/mol
# Density = 2.108068 g / cm^3
# Si number density = 21.128772 Si / 1000 Ang^3
#
#
#
# Elastic Constant Matrix: (Units=GPa)
#
#
# Indices 1 2 3 4 5 6 
#
# 1 85.9501 52.0456 35.3902 0.0000 0.0000 0.0000
# 2 52.0456 187.0447 57.2073 0.0000 0.0000 0.0000
# 3 35.3902 57.2073 102.5889 0.0000 0.0000 0.0000
# 4 0.0000 0.0000 0.0000 43.1515 0.0000 0.0000
# 5 0.0000 0.0000 0.0000 0.0000 20.6435 0.0000
# 6 0.0000 0.0000 0.0000 0.0000 0.0000 36.0824
#
#
#
# Elastic Compliance Matrix: (Units=1/GPa)
#
#
# Indices 1 2 3 4 5 6 
#
# 1 0.014923 -0.003108 -0.003415 0.000000 0.000000 0.000000
# 2 -0.003108 0.007093 -0.002883 0.000000 0.000000 0.000000
# 3 -0.003415 -0.002883 0.012533 0.000000 0.000000 0.000000
# 4 0.000000 0.000000 0.000000 0.023174 0.000000 0.000000
# 5 0.000000 0.000000 0.000000 0.000000 0.048441 0.000000
# 6 0.000000 0.000000 0.000000 0.000000 0.000000 0.027714
#
#
# Mechanical properties :
#
#
# Convention : Reuss Voigt Hill
#
# Bulk Modulus (GPa) = 63.54331 73.87445 68.70888
# Shear Modulus (GPa) = 31.65837 35.37152 33.51494
#
# Velocity S-wave (km/s) = 3.87506 4.09601 3.98706
# Velocity P-wave (km/s) = 7.08244 7.57691 7.33384
#
# Compressibility (1/GPa) = 0.01573730
#
# Stress axis : x y z
#
# Youngs Moduli (GPa) = 67.01231 140.98651 79.78685
#
# Poissons Ratio (x) = 0.43816 0.27246
# Poissons Ratio (y) = 0.20826 0.23004
# Poissons Ratio (z) = 0.22884 0.40648
#
# Static dielectric constant tensor:
#      x y z
#    x 3.889440 0.000000 0.000000 
#    y 0.000000 4.031830 0.000000 
#    z 0.000000 0.000000 3.725160 
# 
# 
# High freq. dielectric constant tensor:
#      x y z
#    x 1.806920 0.000000 0.000000 
#    y 0.000000 1.851310 0.000000 
#    z 0.000000 0.000000 1.834010 
# 
# From -- ./inp_files/11758.got.cif
#   From: 2010.03.12/outbox.cif.g09.slc.cpg/sg63_6_cif.got.tgz:11758.got - 2010.04.10 19:34:48.
