data_PCOD8260473
_publ_section_title
;
Structure prediction by ZEFSAII (Michael W. Deem and Ramdas Pophale) SiO2 
 PCOD8260473
Probable space group: C M C M
;
_chemical_formula_sum "Si O2"
_cell_formula_units_Z 80
_cell_length_a 20.352046
_cell_length_b 23.155865
_cell_length_c 8.746409
_cell_angle_alpha 90.000000
_cell_angle_beta 90.000000
_cell_angle_gamma 90.000000
_cell_volume 4121.913432
_symmetry_space_group_name_H-M "C M C M"
_symmetry_group_IT_number 63
_symmetry_cell_setting 'orthorhombic'
loop_
_space_group_symop_operation_xyz
x,y,z
-x,-y,1/2+z
x,-y,-z
-x,y,1/2-z
-x,-y,-z
x,y,1/2-z
-x,y,z
x,-y,1/2+z
1/2+x,1/2+y,z
1/2-x,1/2-y,1/2+z
1/2+x,1/2-y,-z
1/2-x,1/2+y,1/2-z
1/2-x,1/2-y,-z
1/2+x,1/2+y,1/2-z
1/2-x,1/2+y,z
1/2+x,1/2-y,1/2+z
loop_
_atom_site_type_symbol
_atom_site_label
_atom_site_fract_x
_atom_site_fract_y
_atom_site_fract_z
Si Si1 0.000000 0.061720 0.572549
Si Si2 0.122719 0.626865 0.931475
Si Si3 0.753647 0.436290 0.570221
Si Si4 0.500000 0.062520 0.068904
Si Si5 0.073977 0.250746 0.070186
Si Si6 0.381648 0.372943 0.927620
O O1 0.935206 0.095084 0.526403
O O2 0.000000 0.052447 0.750000
O O3 0.000000 0.000000 0.500000
O O4 0.118475 0.619206 0.750000
O O5 0.115776 0.693687 0.983402
O O6 0.190075 0.600824 0.991530
O O7 0.064119 0.593771 0.010372
O O8 0.748840 0.500000 0.500000
O O9 0.767156 0.442018 0.750000
O O10 0.688155 0.400595 0.534094
O O11 0.500000 0.059719 0.250000
O O12 0.500000 0.000000 0.000000
O O13 0.065060 0.253302 0.250000
O O14 0.115862 0.194336 0.022723
O O15 0.000000 0.249908 0.997590
O O16 0.399618 0.380108 0.750000
#
# Coordination Sequence:
#
# PCOD8260473 Si02
#       6
#     8  16  16   8  16  16
#     4  12  24  37  58  89 121 156 204 254 305 356
#     4  11  22  39  63  90 121 161 202 244 299 362
#     4  11  24  41  61  88 122 162 204 252 304 357
#     4  12  24  39  60  87 119 154 202 256 303 356
#     4   9  17  35  64  92 121 157 199 243 298 362
#     4  10  21  40  65  89 120 161 203 246 300 360
#
# _framework density 19.408462
#
# number of rings (size 3 to 8) (size 9 to 14) (size 15 to 20)
#    0.000    1.400    2.000    4.200    0.000    4.000 
#    0.000    3.000    0.000    0.000    0.000    0.000 
#    0.000    0.000    0.000    0.000    0.000    0.000 
#
# Total GULP energy -496016.608302 kJ/mol
# GULP energy per Si atom -12400.415208 kJ/mol
# Density = 1.936429 g / cm^3
# Si number density = 19.408462 Si / 1000 Ang^3
#
#
#
# Elastic Constant Matrix: (Units=GPa)
#
#
# Indices 1 2 3 4 5 6 
#
# 1 137.0257 92.1909 69.3402 0.0000 0.0000 0.0000
# 2 92.1909 213.0200 70.9919 0.0000 0.0000 0.0000
# 3 69.3402 70.9919 116.3175 0.0000 0.0000 0.0000
# 4 0.0000 0.0000 0.0000 17.3849 0.0000 0.0000
# 5 0.0000 0.0000 0.0000 0.0000 34.0361 0.0000
# 6 0.0000 0.0000 0.0000 0.0000 0.0000 46.5134
#
#
#
# Elastic Compliance Matrix: (Units=1/GPa)
#
#
# Indices 1 2 3 4 5 6 
#
# 1 0.012341 -0.003627 -0.005143 0.000000 0.000000 0.000000
# 2 -0.003627 0.006959 -0.002085 0.000000 0.000000 0.000000
# 3 -0.005143 -0.002085 0.012936 0.000000 0.000000 0.000000
# 4 0.000000 0.000000 0.000000 0.057521 0.000000 0.000000
# 5 0.000000 0.000000 0.000000 0.000000 0.029381 0.000000
# 6 0.000000 0.000000 0.000000 0.000000 0.000000 0.021499
#
#
# Mechanical properties :
#
#
# Convention : Reuss Voigt Hill
#
# Bulk Modulus (GPa) = 95.01025 103.48992 99.25008
# Shear Modulus (GPa) = 30.14687 35.17622 32.66154
#
# Velocity S-wave (km/s) = 3.94545 4.26187 4.10671
# Velocity P-wave (km/s) = 8.35552 8.81225 8.58692
#
# Compressibility (1/GPa) = 0.01052518
#
# Stress axis : x y z
#
# Youngs Moduli (GPa) = 81.03361 143.70066 77.30516
#
# Poissons Ratio (x) = 0.52117 0.39758
# Poissons Ratio (y) = 0.29389 0.16120
# Poissons Ratio (z) = 0.41676 0.29965
#
# Static dielectric constant tensor:
#      x y z
#    x 3.694070 0.000000 0.000000 
#    y 0.000000 3.924590 0.000000 
#    z 0.000000 0.000000 3.506410 
# 
# 
# High freq. dielectric constant tensor:
#      x y z
#    x 1.762710 0.000000 0.000000 
#    y 0.000000 1.779440 0.000000 
#    z 0.000000 0.000000 1.745820 
# 
# From -- ./inp_files/8112.got.cif
#   From: 2010.03.12/outbox.cif.g09.slc.cpg/sg63_5_cif.got.tgz:8112.got - 2010.04.10 19:34:48.
