data_PCOD8260925
_publ_section_title
;
Structure prediction by ZEFSAII (Michael W. Deem and Ramdas Pophale) SiO2 
 PCOD8260925
Probable space group: C M C M
;
_chemical_formula_sum "Si O2"
_cell_formula_units_Z 80
_cell_length_a 21.184153
_cell_length_b 12.553258
_cell_length_c 16.621650
_cell_angle_alpha 90.000000
_cell_angle_beta 90.000000
_cell_angle_gamma 90.000000
_cell_volume 4420.197680
_symmetry_space_group_name_H-M "C M C M"
_symmetry_group_IT_number 63
_symmetry_cell_setting 'orthorhombic'
loop_
_space_group_symop_operation_xyz
x,y,z
-x,-y,1/2+z
x,-y,-z
-x,y,1/2-z
-x,-y,-z
x,y,1/2-z
-x,y,z
x,-y,1/2+z
1/2+x,1/2+y,z
1/2-x,1/2-y,1/2+z
1/2+x,1/2-y,-z
1/2-x,1/2+y,1/2-z
1/2-x,1/2-y,-z
1/2+x,1/2+y,1/2-z
1/2-x,1/2+y,z
1/2+x,1/2-y,1/2+z
loop_
_atom_site_type_symbol
_atom_site_label
_atom_site_fract_x
_atom_site_fract_y
_atom_site_fract_z
Si Si1 0.696606 0.534486 0.842150
Si Si2 0.928767 0.373638 0.153837
Si Si3 0.656199 0.688288 0.157673
Si Si4 0.781506 0.752265 0.413045
Si Si5 0.834956 0.446321 0.841976
O O1 0.676603 0.556508 0.750000
O O2 0.658336 0.432158 0.878579
O O3 0.681668 0.637029 0.897224
O O4 0.770978 0.513115 0.847537
O O5 0.926093 0.368250 0.250000
O O6 0.895807 0.266360 0.117388
O O7 0.891354 0.478766 0.125323
O O8 0.000000 0.379444 0.121194
O O9 0.639279 0.675477 0.250000
O O10 0.725610 0.740158 0.151918
O O11 0.750000 0.750000 0.500000
O O12 0.831626 0.656733 0.400166
O O13 0.847377 0.409809 0.750000
#
# Coordination Sequence:
#
# PCOD8260925 Si02
#       5
#    16  16  16  16  16
#     4   9  16  29  48  67  94 126 154 194 247 295
#     4   9  16  29  51  75  97 123 163 209 244 285
#     4   9  17  30  47  69  94 124 159 195 243 291
#     4  11  20  28  44  69 100 129 158 198 241 291
#     4   9  17  29  47  69  94 124 159 197 245 291
#
# _framework density 18.098738999999998
#
# number of rings (size 3 to 8) (size 9 to 14) (size 15 to 20)
#    0.000    2.600    2.000    3.000    0.000    3.200 
#    0.000    0.000    0.000    3.600    0.000    7.000 
#    0.000    0.000    0.000    0.000    0.000    0.000 
#
# Total GULP energy -495688.786381 kJ/mol
# GULP energy per Si atom -12392.219660 kJ/mol
# Density = 1.805755 g / cm^3
# Si number density = 18.098739 Si / 1000 Ang^3
#
#
#
# Elastic Constant Matrix: (Units=GPa)
#
#
# Indices 1 2 3 4 5 6 
#
# 1 93.4203 68.8965 10.8105 0.0000 0.0000 0.0000
# 2 68.8965 194.3103 47.2687 0.0000 0.0000 0.0000
# 3 10.8105 47.2687 39.2712 0.0000 0.0000 0.0000
# 4 0.0000 0.0000 0.0000 9.2060 0.0000 0.0000
# 5 0.0000 0.0000 0.0000 0.0000 9.2007 0.0000
# 6 0.0000 0.0000 0.0000 0.0000 0.0000 27.3970
#
#
#
# Elastic Compliance Matrix: (Units=1/GPa)
#
#
# Indices 1 2 3 4 5 6 
#
# 1 0.014767 -0.006006 0.003164 0.000000 0.000000 0.000000
# 2 -0.006006 0.009720 -0.010046 0.000000 0.000000 0.000000
# 3 0.003164 -0.010046 0.036685 0.000000 0.000000 0.000000
# 4 0.000000 0.000000 0.000000 0.108625 0.000000 0.000000
# 5 0.000000 0.000000 0.000000 0.000000 0.108688 0.000000
# 6 0.000000 0.000000 0.000000 0.000000 0.000000 0.036500
#
#
# Mechanical properties :
#
#
# Convention : Reuss Voigt Hill
#
# Bulk Modulus (GPa) = 28.25189 64.55034 46.40112
# Shear Modulus (GPa) = 14.18202 22.49580 18.33891
#
# Velocity S-wave (km/s) = 2.80231 3.52937 3.18664
# Velocity P-wave (km/s) = 5.11022 7.23545 6.26363
#
# Compressibility (1/GPa) = 0.03539586
#
# Stress axis : x y z
#
# Youngs Moduli (GPa) = 67.71717 102.88518 27.25941
#
# Poissons Ratio (x) = 0.61789 -0.08624
# Poissons Ratio (y) = 0.40668 0.27384
# Poissons Ratio (z) = -0.21423 1.03356
#
# Static dielectric constant tensor:
#      x y z
#    x 3.147800 0.000000 0.000000 
#    y 0.000000 3.757300 0.000000 
#    z 0.000000 0.000000 2.969040 
# 
# 
# High freq. dielectric constant tensor:
#      x y z
#    x 1.645630 0.000000 0.000000 
#    y 0.000000 1.720510 0.000000 
#    z 0.000000 0.000000 1.664700 
# 
# From -- ./inp_files/36464.got.cif
#   From: 2010.03.12/outbox.cif.g09.slc.cpg/sg63_19_cif.got.tgz:36464.got - 2010.04.10 19:34:48.
