data_PCOD8260680
_publ_section_title
;
Structure prediction by ZEFSAII (Michael W. Deem and Ramdas Pophale) SiO2 
 PCOD8260680
Probable space group: C M C M
;
_chemical_formula_sum "Si O2"
_cell_formula_units_Z 112
_cell_length_a 14.029162
_cell_length_b 15.154655
_cell_length_c 23.397215
_cell_angle_alpha 90.000000
_cell_angle_beta 90.000000
_cell_angle_gamma 90.000000
_cell_volume 4974.414264
_symmetry_space_group_name_H-M "C M C M"
_symmetry_group_IT_number 63
_symmetry_cell_setting 'orthorhombic'
loop_
_space_group_symop_operation_xyz
x,y,z
-x,-y,1/2+z
x,-y,-z
-x,y,1/2-z
-x,-y,-z
x,y,1/2-z
-x,y,z
x,-y,1/2+z
1/2+x,1/2+y,z
1/2-x,1/2-y,1/2+z
1/2+x,1/2-y,-z
1/2-x,1/2+y,1/2-z
1/2-x,1/2-y,-z
1/2+x,1/2+y,1/2-z
1/2-x,1/2+y,z
1/2+x,1/2-y,1/2+z
loop_
_atom_site_type_symbol
_atom_site_label
_atom_site_fract_x
_atom_site_fract_y
_atom_site_fract_z
Si Si1 0.610506 0.496687 0.312025
Si Si2 0.713684 0.904111 0.979310
Si Si3 0.695595 0.812217 0.408238
Si Si4 0.888950 0.563453 0.813833
Si Si5 0.393289 0.310448 0.137179
Si Si6 0.892844 0.381716 0.862405
Si Si7 0.112762 0.874773 0.588115
O O1 0.656634 0.520158 0.250000
O O2 0.500000 0.518532 0.309240
O O3 0.627785 0.392221 0.321086
O O4 0.651363 0.557656 0.362854
O O5 0.669837 0.878579 0.919062
O O6 0.828680 0.897015 0.969912
O O7 0.670558 0.838690 0.027014
O O8 0.684026 0.000000 0.000000
O O9 0.810747 0.806544 0.410433
O O10 0.639499 0.723723 0.391342
O O11 0.669378 0.884389 0.361120
O O12 0.859245 0.593322 0.750000
O O13 0.861227 0.459939 0.819856
O O14 0.000000 0.580588 0.823894
O O15 0.500000 0.321588 0.109967
O O16 0.387085 0.214426 0.168979
O O17 0.000000 0.401240 0.882863
O O18 0.000000 0.883990 0.576235
#
# Coordination Sequence:
#
# PCOD8260680 Si02
#       7
#    16  16  16  16  16  16  16
#     4   9  20  41  66  92 128 174 222 272 325 386
#     4  12  24  43  67  93 132 172 221 280 327 399
#     4  12  24  42  66  97 133 174 220 270 331 397
#     4  10  23  44  69  99 133 169 214 268 327 394
#     4  10  22  40  64  94 130 170 221 273 327 388
#     4  10  22  42  67  95 131 172 215 271 334 387
#     4  11  25  43  64  95 134 177 223 277 334 395
#
# _framework density 22.515214
#
# number of rings (size 3 to 8) (size 9 to 14) (size 15 to 20)
#    0.000    1.429    2.857    1.714    0.000    4.000 
#    0.000    4.286    0.000    0.000    0.000    0.000 
#    0.000    0.000    0.000    0.000    0.000    0.000 
#
# Total GULP energy -693887.144538 kJ/mol
# GULP energy per Si atom -12390.841867 kJ/mol
# Density = 2.246397 g / cm^3
# Si number density = 22.515214 Si / 1000 Ang^3
#
#
#
# Elastic Constant Matrix: (Units=GPa)
#
#
# Indices 1 2 3 4 5 6 
#
# 1 73.4766 15.0446 23.3343 0.0000 0.0000 0.0000
# 2 15.0446 162.4744 48.9376 0.0000 0.0000 0.0000
# 3 23.3343 48.9376 104.9286 0.0000 0.0000 0.0000
# 4 0.0000 0.0000 0.0000 20.2751 0.0000 0.0000
# 5 0.0000 0.0000 0.0000 0.0000 26.5022 0.0000
# 6 0.0000 0.0000 0.0000 0.0000 0.0000 29.7596
#
#
#
# Elastic Compliance Matrix: (Units=1/GPa)
#
#
# Indices 1 2 3 4 5 6 
#
# 1 0.014671 -0.000437 -0.003059 0.000000 0.000000 0.000000
# 2 -0.000437 0.007174 -0.003249 0.000000 0.000000 0.000000
# 3 -0.003059 -0.003249 0.011726 0.000000 0.000000 0.000000
# 4 0.000000 0.000000 0.000000 0.049321 0.000000 0.000000
# 5 0.000000 0.000000 0.000000 0.000000 0.037733 0.000000
# 6 0.000000 0.000000 0.000000 0.000000 0.000000 0.033603
#
#
# Mechanical properties :
#
#
# Convention : Reuss Voigt Hill
#
# Bulk Modulus (GPa) = 49.79760 57.27916 53.53838
# Shear Modulus (GPa) = 28.66824 32.21161 30.43992
#
# Velocity S-wave (km/s) = 3.57218 3.78651 3.68091
# Velocity P-wave (km/s) = 6.25934 6.67924 6.47270
#
# Compressibility (1/GPa) = 0.02008129
#
# Stress axis : x y z
#
# Youngs Moduli (GPa) = 68.16348 139.39673 85.28383
#
# Poissons Ratio (x) = 0.06094 0.26085
# Poissons Ratio (y) = 0.02980 0.27705
# Poissons Ratio (z) = 0.20848 0.45284
#
# Static dielectric constant tensor:
#      x y z
#    x 4.245230 0.000000 0.000000 
#    y 0.000000 4.361870 0.000000 
#    z 0.000000 0.000000 3.924890 
# 
# 
# High freq. dielectric constant tensor:
#      x y z
#    x 1.897360 0.000000 0.000000 
#    y 0.000000 1.903720 0.000000 
#    z 0.000000 0.000000 1.859190 
# 
# From -- ./inp_files/62959.got.cif
#   From: 2010.03.12/outbox.cif.g09.slc.cpg/sg63_32_cif.got.tgz:62959.got - 2010.04.10 19:34:48.
