data_PCOD8260528
_publ_section_title
;
Structure prediction by ZEFSAII (Michael W. Deem and Ramdas Pophale) SiO2 
 PCOD8260528
Probable space group: C M C M
;
_chemical_formula_sum "Si O2"
_cell_formula_units_Z 88
_cell_length_a 17.574522
_cell_length_b 28.582718
_cell_length_c 9.125778
_cell_angle_alpha 90.000000
_cell_angle_beta 90.000000
_cell_angle_gamma 90.000000
_cell_volume 4584.130218
_symmetry_space_group_name_H-M "C M C M"
_symmetry_group_IT_number 63
_symmetry_cell_setting 'orthorhombic'
loop_
_space_group_symop_operation_xyz
x,y,z
-x,-y,1/2+z
x,-y,-z
-x,y,1/2-z
-x,-y,-z
x,y,1/2-z
-x,y,z
x,-y,1/2+z
1/2+x,1/2+y,z
1/2-x,1/2-y,1/2+z
1/2+x,1/2-y,-z
1/2-x,1/2+y,1/2-z
1/2-x,1/2-y,-z
1/2+x,1/2+y,1/2-z
1/2-x,1/2+y,z
1/2+x,1/2-y,1/2+z
loop_
_atom_site_type_symbol
_atom_site_label
_atom_site_fract_x
_atom_site_fract_y
_atom_site_fract_z
Si Si1 0.085045 0.887965 0.079664
Si Si2 0.500000 0.950977 0.920674
Si Si3 0.409543 0.298428 0.911846
Si Si4 0.088382 0.694757 0.577758
Si Si5 0.276714 0.450696 0.422836
Si Si6 0.648138 0.107278 0.423390
O O1 0.081672 0.878243 0.250000
O O2 0.138323 0.932098 0.043558
O O3 0.000000 0.898793 0.018250
O O4 0.120605 0.840476 0.012583
O O5 0.500000 0.961439 0.750000
O O6 0.426077 0.922123 0.967923
O O7 0.500000 0.000000 0.000000
O O8 0.376859 0.307737 0.750000
O O9 0.500000 0.298362 0.908491
O O10 0.383556 0.247049 0.966295
O O11 0.101767 0.685612 0.750000
O O12 0.138177 0.660055 0.479542
O O13 0.000000 0.687895 0.538187
O O14 0.265531 0.500000 0.500000
O O15 0.261436 0.455952 0.250000
O O16 0.218893 0.414081 0.491545
O O17 0.662812 0.107000 0.250000
#
# Coordination Sequence:
#
# PCOD8260528 Si02
#       6
#    16   8  16  16  16  16
#     4   9  19  37  60  85 112 142 179 225 277 334
#     4  10  22  36  52  76 104 138 184 232 271 318
#     4   8  15  29  52  83 115 145 181 223 270 326
#     4   9  17  31  53  82 115 151 187 226 273 322
#     4  11  24  41  59  81 110 144 183 228 282 336
#     4  11  22  37  55  80 112 147 190 232 275 325
#
# _framework density 19.196662
#
# number of rings (size 3 to 8) (size 9 to 14) (size 15 to 20)
#    0.000    2.364    0.909    2.727    0.000    5.455 
#    0.000    2.727    0.000    0.000    0.000    0.000 
#    0.000    0.000    0.000    0.000    0.000    0.000 
#
# Total GULP energy -545539.244728 kJ/mol
# GULP energy per Si atom -12398.619198 kJ/mol
# Density = 1.915297 g / cm^3
# Si number density = 19.196662 Si / 1000 Ang^3
#
#
#
# Elastic Constant Matrix: (Units=GPa)
#
#
# Indices 1 2 3 4 5 6 
#
# 1 66.5475 17.5075 33.6918 0.0000 0.0000 0.0000
# 2 17.5075 64.2372 28.5600 0.0000 0.0000 0.0000
# 3 33.6918 28.5600 62.3183 0.0000 0.0000 0.0000
# 4 0.0000 0.0000 0.0000 39.3747 0.0000 0.0000
# 5 0.0000 0.0000 0.0000 0.0000 23.8497 0.0000
# 6 0.0000 0.0000 0.0000 0.0000 0.0000 22.7456
#
#
#
# Elastic Compliance Matrix: (Units=1/GPa)
#
#
# Indices 1 2 3 4 5 6 
#
# 1 0.020726 -0.000837 -0.010821 0.000000 0.000000 0.000000
# 2 -0.000837 0.019585 -0.008523 0.000000 0.000000 0.000000
# 3 -0.010821 -0.008523 0.025803 0.000000 0.000000 0.000000
# 4 0.000000 0.000000 0.000000 0.025397 0.000000 0.000000
# 5 0.000000 0.000000 0.000000 0.000000 0.041929 0.000000
# 6 0.000000 0.000000 0.000000 0.000000 0.000000 0.043965
#
#
# Mechanical properties :
#
#
# Convention : Reuss Voigt Hill
#
# Bulk Modulus (GPa) = 38.83443 39.18018 39.00731
# Shear Modulus (GPa) = 22.08954 24.75025 23.41990
#
# Velocity S-wave (km/s) = 3.39587 3.59458 3.49664
# Velocity P-wave (km/s) = 5.97073 6.13858 6.05524
#
# Compressibility (1/GPa) = 0.02575035
#
# Stress axis : x y z
#
# Youngs Moduli (GPa) = 48.24881 51.06003 38.75508
#
# Poissons Ratio (x) = 0.04276 0.41939
# Poissons Ratio (y) = 0.04041 0.33030
# Poissons Ratio (z) = 0.52212 0.43517
#
# Static dielectric constant tensor:
#      x y z
#    x 3.538530 0.000000 0.000000 
#    y 0.000000 3.667360 0.000000 
#    z 0.000000 0.000000 3.587060 
# 
# 
# High freq. dielectric constant tensor:
#      x y z
#    x 1.727650 0.000000 0.000000 
#    y 0.000000 1.757220 0.000000 
#    z 0.000000 0.000000 1.744910 
# 
# From -- ./inp_files/6850.got.cif
#   From: 2010.03.12/outbox.cif.g09.slc.cpg/sg63_4_cif.got.tgz:6850.got - 2010.04.10 19:34:48.
