data_PCOD8260510
_publ_section_title
;
Structure prediction by ZEFSAII (Michael W. Deem and Ramdas Pophale) SiO2 
 PCOD8260510
Probable space group: C M C M
;
_chemical_formula_sum "Si O2"
_cell_formula_units_Z 56
_cell_length_a 16.765832
_cell_length_b 7.575540
_cell_length_c 20.324314
_cell_angle_alpha 90.000000
_cell_angle_beta 90.000000
_cell_angle_gamma 90.000000
_cell_volume 2581.395815
_symmetry_space_group_name_H-M "C M C M"
_symmetry_group_IT_number 63
_symmetry_cell_setting 'orthorhombic'
loop_
_space_group_symop_operation_xyz
x,y,z
-x,-y,1/2+z
x,-y,-z
-x,y,1/2-z
-x,-y,-z
x,y,1/2-z
-x,y,z
x,-y,1/2+z
1/2+x,1/2+y,z
1/2-x,1/2-y,1/2+z
1/2+x,1/2-y,-z
1/2-x,1/2+y,1/2-z
1/2-x,1/2-y,-z
1/2+x,1/2+y,1/2-z
1/2-x,1/2+y,z
1/2+x,1/2-y,1/2+z
loop_
_atom_site_type_symbol
_atom_site_label
_atom_site_fract_x
_atom_site_fract_y
_atom_site_fract_z
Si Si1 0.655262 0.345674 0.823795
Si Si2 0.790353 0.000000 0.500000
Si Si3 0.909311 0.154434 0.591567
Si Si4 0.688470 0.965620 0.872848
O O1 0.621945 0.318963 0.750000
O O2 0.599086 0.481174 0.862978
O O3 0.745243 0.422188 0.817769
O O4 0.654431 0.161270 0.863500
O O5 0.850787 0.850960 0.471733
O O6 0.734772 0.931362 0.558378
O O7 0.884681 0.328852 0.632672
O O8 0.000000 0.172469 0.567621
#
# Coordination Sequence:
#
# PCOD8260510 Si02
#       4
#    16   8  16  16
#     4  11  23  40  65  94 122 165 218 260 306 376
#     4  10  21  42  65  94 126 164 214 264 303 382
#     4  11  25  41  62  95 131 166 203 261 325 373
#     4  11  22  39  69  92 125 164 216 260 312 370
#
# _framework density 21.693688999999999
#
# number of rings (size 3 to 8) (size 9 to 14) (size 15 to 20)
#    0.000    1.143    5.714    2.143    4.000    2.857 
#    0.000    0.714    0.000    0.000    0.000    0.000 
#    0.000    0.000    0.000    0.000    0.000    0.000 
#
# Total GULP energy -347060.422700 kJ/mol
# GULP energy per Si atom -12395.015096 kJ/mol
# Density = 2.164431 g / cm^3
# Si number density = 21.693689 Si / 1000 Ang^3
#
#
#
# Elastic Constant Matrix: (Units=GPa)
#
#
# Indices 1 2 3 4 5 6 
#
# 1 91.7822 45.8655 22.7053 0.0000 0.0000 0.0000
# 2 45.8655 145.9422 24.9728 0.0000 0.0000 0.0000
# 3 22.7053 24.9728 113.9707 0.0000 0.0000 0.0000
# 4 0.0000 0.0000 0.0000 13.4931 0.0000 0.0000
# 5 0.0000 0.0000 0.0000 0.0000 13.8561 0.0000
# 6 0.0000 0.0000 0.0000 0.0000 0.0000 24.6175
#
#
#
# Elastic Compliance Matrix: (Units=1/GPa)
#
#
# Indices 1 2 3 4 5 6 
#
# 1 0.013270 -0.003863 -0.001797 0.000000 0.000000 0.000000
# 2 -0.003863 0.008243 -0.001037 0.000000 0.000000 0.000000
# 3 -0.001797 -0.001037 0.009359 0.000000 0.000000 0.000000
# 4 0.000000 0.000000 0.000000 0.074112 0.000000 0.000000
# 5 0.000000 0.000000 0.000000 0.000000 0.072171 0.000000
# 6 0.000000 0.000000 0.000000 0.000000 0.000000 0.040621
#
#
# Mechanical properties :
#
#
# Convention : Reuss Voigt Hill
#
# Bulk Modulus (GPa) = 57.21043 59.86468 58.53756
# Shear Modulus (GPa) = 21.09725 27.60344 24.35035
#
# Velocity S-wave (km/s) = 3.12189 3.57097 3.35395
# Velocity P-wave (km/s) = 6.27886 6.68265 6.48390
#
# Compressibility (1/GPa) = 0.01747933
#
# Stress axis : x y z
#
# Youngs Moduli (GPa) = 75.35584 121.30858 106.84452
#
# Poissons Ratio (x) = 0.46861 0.19203
# Poissons Ratio (y) = 0.29110 0.11076
# Poissons Ratio (z) = 0.13544 0.12576
#
# Static dielectric constant tensor:
#      x y z
#    x 3.570770 0.000000 0.000000 
#    y 0.000000 3.886630 0.000000 
#    z 0.000000 0.000000 3.872000 
# 
# 
# High freq. dielectric constant tensor:
#      x y z
#    x 1.824290 0.000000 0.000000 
#    y 0.000000 1.862500 0.000000 
#    z 0.000000 0.000000 1.843420 
# 
# From -- ./inp_files/45012.got.cif
#   From: 2010.03.12/outbox.cif.g09.slc.cpg/sg63_23_cif.got.tgz:45012.got - 2010.04.10 19:34:48.
