data_PCOD8260698
_publ_section_title
;
Structure prediction by ZEFSAII (Michael W. Deem and Ramdas Pophale) SiO2 
 PCOD8260698
Probable space group: C M C M
;
_chemical_formula_sum "Si O2"
_cell_formula_units_Z 40
_cell_length_a 16.595050
_cell_length_b 10.845658
_cell_length_c 10.027630
_cell_angle_alpha 90.000000
_cell_angle_beta 90.000000
_cell_angle_gamma 90.000000
_cell_volume 1804.815332
_symmetry_space_group_name_H-M "C M C M"
_symmetry_group_IT_number 63
_symmetry_cell_setting 'orthorhombic'
loop_
_space_group_symop_operation_xyz
x,y,z
-x,-y,1/2+z
x,-y,-z
-x,y,1/2-z
-x,-y,-z
x,y,1/2-z
-x,y,z
x,-y,1/2+z
1/2+x,1/2+y,z
1/2-x,1/2-y,1/2+z
1/2+x,1/2-y,-z
1/2-x,1/2+y,1/2-z
1/2-x,1/2-y,-z
1/2+x,1/2+y,1/2-z
1/2-x,1/2+y,z
1/2+x,1/2-y,1/2+z
loop_
_atom_site_type_symbol
_atom_site_label
_atom_site_fract_x
_atom_site_fract_y
_atom_site_fract_z
Si Si1 0.185054 0.588206 0.750000
Si Si2 0.195686 0.318121 0.750000
Si Si3 0.500000 0.608017 0.397127
Si Si4 0.910787 0.674534 0.509018
O O1 0.233613 0.457494 0.750000
O O2 0.239007 0.710030 0.750000
O O3 0.130381 0.583054 0.883786
O O4 0.141900 0.301708 0.620143
O O5 0.500000 0.500000 0.500000
O O6 0.500000 0.550435 0.250000
O O7 0.420484 0.692348 0.418596
O O8 0.000000 0.622960 0.470551
#
# Coordination Sequence:
#
# PCOD8260698 Si02
#       4
#     8   8   8  16
#     4  12  25  47  66 100 142 191 228 295 353 423
#     4  12  27  41  72 100 142 187 236 285 359 423
#     4  10  22  40  69 103 142 178 224 286 352 410
#     4  10  23  45  68 102 135 174 241 294 347 408
#
# _framework density 22.162932999999999
#
# number of rings (size 3 to 8) (size 9 to 14) (size 15 to 20)
#    1.200    0.000    2.000    3.600    2.800    8.000 
#    0.000    0.000    0.000    0.000    0.000    0.000 
#    0.000    0.000    0.000    0.000    0.000    0.000 
#
# Total GULP energy -247854.774654 kJ/mol
# GULP energy per Si atom -12392.738733 kJ/mol
# Density = 2.211249 g / cm^3
# Si number density = 22.162933 Si / 1000 Ang^3
#
#
#
# Elastic Constant Matrix: (Units=GPa)
#
#
# Indices 1 2 3 4 5 6 
#
# 1 94.8260 32.6240 24.9565 0.0000 0.0000 0.0000
# 2 32.6240 143.9751 14.0589 0.0000 0.0000 0.0000
# 3 24.9565 14.0589 153.2462 0.0000 0.0000 0.0000
# 4 0.0000 0.0000 0.0000 33.1244 0.0000 0.0000
# 5 0.0000 0.0000 0.0000 0.0000 44.2073 0.0000
# 6 0.0000 0.0000 0.0000 0.0000 0.0000 23.3889
#
#
#
# Elastic Compliance Matrix: (Units=1/GPa)
#
#
# Indices 1 2 3 4 5 6 
#
# 1 0.011861 -0.002522 -0.001700 0.000000 0.000000 0.000000
# 2 -0.002522 0.007544 -0.000282 0.000000 0.000000 0.000000
# 3 -0.001700 -0.000282 0.006828 0.000000 0.000000 0.000000
# 4 0.000000 0.000000 0.000000 0.030189 0.000000 0.000000
# 5 0.000000 0.000000 0.000000 0.000000 0.022621 0.000000
# 6 0.000000 0.000000 0.000000 0.000000 0.000000 0.042755
#
#
# Mechanical properties :
#
#
# Convention : Reuss Voigt Hill
#
# Bulk Modulus (GPa) = 58.04907 59.48066 58.76487
# Shear Modulus (GPa) = 36.61735 41.50463 39.06099
#
# Velocity S-wave (km/s) = 4.06912 4.33217 4.20271
# Velocity P-wave (km/s) = 6.95168 7.20554 7.07975
#
# Compressibility (1/GPa) = 0.01722680
#
# Stress axis : x y z
#
# Youngs Moduli (GPa) = 84.31275 132.54692 146.45248
#
# Poissons Ratio (x) = 0.33422 0.24900
# Poissons Ratio (y) = 0.21260 0.04123
# Poissons Ratio (z) = 0.14335 0.03731
#
# Static dielectric constant tensor:
#      x y z
#    x 3.738060 0.000000 0.000000 
#    y 0.000000 4.112880 0.000000 
#    z 0.000000 0.000000 4.065500 
# 
# 
# High freq. dielectric constant tensor:
#      x y z
#    x 1.845400 0.000000 0.000000 
#    y 0.000000 1.885400 0.000000 
#    z 0.000000 0.000000 1.893000 
# 
# From -- ./inp_files/5161.got.cif
#   From: 2010.03.12/outbox.cif.g09.slc.cpg/sg63_3_cif.got.tgz:5161.got - 2010.04.10 19:34:48.
