data_PCOD8260113
_publ_section_title
;
Structure prediction by ZEFSAII (Michael W. Deem and Ramdas Pophale) SiO2 
 PCOD8260113
Probable space group: C M C M
;
_chemical_formula_sum "Si O2"
_cell_formula_units_Z 96
_cell_length_a 20.200272
_cell_length_b 29.149626
_cell_length_c 8.884790
_cell_angle_alpha 90.000000
_cell_angle_beta 90.000000
_cell_angle_gamma 90.000000
_cell_volume 5231.634218
_symmetry_space_group_name_H-M "C M C M"
_symmetry_group_IT_number 63
_symmetry_cell_setting 'orthorhombic'
loop_
_space_group_symop_operation_xyz
x,y,z
-x,-y,1/2+z
x,-y,-z
-x,y,1/2-z
-x,-y,-z
x,y,1/2-z
-x,y,z
x,-y,1/2+z
1/2+x,1/2+y,z
1/2-x,1/2-y,1/2+z
1/2+x,1/2-y,-z
1/2-x,1/2+y,1/2-z
1/2-x,1/2-y,-z
1/2+x,1/2+y,1/2-z
1/2-x,1/2+y,z
1/2+x,1/2-y,1/2+z
loop_
_atom_site_type_symbol
_atom_site_label
_atom_site_fract_x
_atom_site_fract_y
_atom_site_fract_z
Si Si1 0.157885 0.209947 0.424668
Si Si2 0.574571 0.626257 0.070827
Si Si3 0.308174 0.907011 0.421384
Si Si4 0.206420 0.696812 0.920461
Si Si5 0.072412 0.547888 0.079386
Si Si6 0.320142 0.550181 0.071283
O O1 0.149372 0.201619 0.250000
O O2 0.105274 0.174090 0.497824
O O3 0.150823 0.264397 0.466511
O O4 0.231953 0.197107 0.468726
O O5 0.572609 0.627901 0.250000
O O6 0.500000 0.620584 0.006473
O O7 0.619137 0.582884 0.018981
O O8 0.295175 0.922500 0.250000
O O9 0.322834 0.853271 0.433618
O O10 0.377010 0.924222 0.481268
O O11 0.247604 0.925965 0.519051
O O12 0.230466 0.707590 0.750000
O O13 0.098510 0.542312 0.250000
O O14 0.000000 0.571945 0.078306
O O15 0.065549 0.500000 0.000000
O O16 0.317860 0.544820 0.250000
O O17 0.329504 0.500000 0.000000
#
# Coordination Sequence:
#
# PCOD8260113 Si02
#       6
#    16  16  16  16  16  16
#     4   9  16  31  53  77 102 134 173 212 258 311
#     4   9  18  33  54  78 105 139 181 225 269 321
#     4  11  21  34  53  80 112 142 175 218 265 315
#     4   9  18  30  50  79 108 133 167 213 260 306
#     4  10  21  37  56  77 103 138 178 217 262 317
#     4  11  22  36  54  77 105 139 182 229 278 322
#
# _framework density 18.349907000000002
#
# number of rings (size 3 to 8) (size 9 to 14) (size 15 to 20)
#    0.000    2.167    1.667    2.000    0.000    2.000 
#    0.000    0.833    0.000    7.000    0.000    0.000 
#    0.000    0.000    0.000    0.000    0.000    0.000 
#
# Total GULP energy -594663.359949 kJ/mol
# GULP energy per Si atom -12388.819999 kJ/mol
# Density = 1.830814 g / cm^3
# Si number density = 18.349907 Si / 1000 Ang^3
#
#
#
# Elastic Constant Matrix: (Units=GPa)
#
#
# Indices 1 2 3 4 5 6 
#
# 1 116.8118 80.4930 25.1967 0.0000 0.0000 0.0000
# 2 80.4930 143.6797 39.9300 0.0000 0.0000 0.0000
# 3 25.1967 39.9300 32.1712 0.0000 0.0000 0.0000
# 4 0.0000 0.0000 0.0000 17.1182 0.0000 0.0000
# 5 0.0000 0.0000 0.0000 0.0000 14.4296 0.0000
# 6 0.0000 0.0000 0.0000 0.0000 0.0000 28.8098
#
#
#
# Elastic Compliance Matrix: (Units=1/GPa)
#
#
# Indices 1 2 3 4 5 6 
#
# 1 0.014018 -0.007331 -0.001880 0.000000 0.000000 0.000000
# 2 -0.007331 0.014458 -0.012204 0.000000 0.000000 0.000000
# 3 -0.001880 -0.012204 0.047703 0.000000 0.000000 0.000000
# 4 0.000000 0.000000 0.000000 0.058417 0.000000 0.000000
# 5 0.000000 0.000000 0.000000 0.000000 0.069302 0.000000
# 6 0.000000 0.000000 0.000000 0.000000 0.000000 0.034710
#
#
# Mechanical properties :
#
#
# Convention : Reuss Voigt Hill
#
# Bulk Modulus (GPa) = 29.98500 64.87801 47.43151
# Shear Modulus (GPa) = 17.09078 21.87437 19.48257
#
# Velocity S-wave (km/s) = 3.05517 3.45638 3.26195
# Velocity P-wave (km/s) = 5.36857 7.16670 6.33179
#
# Compressibility (1/GPa) = 0.03335000
#
# Stress axis : x y z
#
# Youngs Moduli (GPa) = 71.33836 69.16476 20.96285
#
# Poissons Ratio (x) = 0.50701 0.03942
# Poissons Ratio (y) = 0.52295 0.25583
# Poissons Ratio (z) = 0.13414 0.84408
#
# Static dielectric constant tensor:
#      x y z
#    x 3.740640 0.000000 0.000000 
#    y 0.000000 3.754810 0.000000 
#    z 0.000000 0.000000 3.367120 
# 
# 
# High freq. dielectric constant tensor:
#      x y z
#    x 1.695640 0.000000 0.000000 
#    y 0.000000 1.725430 0.000000 
#    z 0.000000 0.000000 1.701340 
# 
# From -- ./inp_files/8583.got.cif
#   From: 2010.03.12/outbox.cif.g09.slc.cpg/sg63_5_cif.got.tgz:8583.got - 2010.04.10 19:34:48.
