data_PCOD8260536
_publ_section_title
;
Structure prediction by ZEFSAII (Michael W. Deem and Ramdas Pophale) SiO2 
 PCOD8260536
Probable space group: C M C M
;
_chemical_formula_sum "Si O2"
_cell_formula_units_Z 88
_cell_length_a 20.698827
_cell_length_b 15.607656
_cell_length_c 13.903707
_cell_angle_alpha 90.000000
_cell_angle_beta 90.000000
_cell_angle_gamma 90.000000
_cell_volume 4491.733967
_symmetry_space_group_name_H-M "C M C M"
_symmetry_group_IT_number 63
_symmetry_cell_setting 'orthorhombic'
loop_
_space_group_symop_operation_xyz
x,y,z
-x,-y,1/2+z
x,-y,-z
-x,y,1/2-z
-x,-y,-z
x,y,1/2-z
-x,y,z
x,-y,1/2+z
1/2+x,1/2+y,z
1/2-x,1/2-y,1/2+z
1/2+x,1/2-y,-z
1/2-x,1/2+y,1/2-z
1/2-x,1/2-y,-z
1/2+x,1/2+y,1/2-z
1/2-x,1/2+y,z
1/2+x,1/2-y,1/2+z
loop_
_atom_site_type_symbol
_atom_site_label
_atom_site_fract_x
_atom_site_fract_y
_atom_site_fract_z
Si Si1 0.573607 0.616515 0.856964
Si Si2 0.371430 0.111677 0.542211
Si Si3 0.925933 0.457139 0.857312
Si Si4 0.743652 0.000000 0.000000
Si Si5 0.150004 0.054510 0.138862
Si Si6 0.924247 0.791606 0.952128
O O1 0.590327 0.651725 0.750000
O O2 0.500000 0.585009 0.861846
O O3 0.616061 0.535099 0.884102
O O4 0.586460 0.690518 0.934497
O O5 0.420385 0.054875 0.605534
O O6 0.299597 0.071837 0.555657
O O7 0.380496 0.209361 0.575643
O O8 0.387931 0.105948 0.428644
O O9 0.896811 0.448910 0.750000
O O10 0.000000 0.429281 0.857363
O O11 0.784930 0.054362 0.076528
O O12 0.168546 0.064047 0.250000
O O13 0.101291 0.130282 0.111302
O O14 0.000000 0.775806 0.929444
#
# Coordination Sequence:
#
# PCOD8260536 Si02
#       6
#    16  16  16   8  16  16
#     4   9  18  34  58  86 117 153 192 236 290 349
#     4  10  22  36  57  84 119 153 193 237 284 347
#     4   9  17  33  56  80 112 155 198 237 283 339
#     4  10  22  42  60  76 114 164 204 238 268 336
#     4  11  22  39  60  84 114 154 201 239 286 342
#     4  11  21  36  61  92 123 145 181 244 307 346
#
# _framework density 19.591543000000001
#
# number of rings (size 3 to 8) (size 9 to 14) (size 15 to 20)
#    0.000    2.182    1.818    2.727    0.000    7.636 
#    0.000    1.818    0.000    0.000    0.000    0.000 
#    0.000    0.000    0.000    0.000    0.000    0.000 
#
# Total GULP energy -545493.731167 kJ/mol
# GULP energy per Si atom -12397.584799 kJ/mol
# Density = 1.954695 g / cm^3
# Si number density = 19.591543 Si / 1000 Ang^3
#
#
#
# Elastic Constant Matrix: (Units=GPa)
#
#
# Indices 1 2 3 4 5 6 
#
# 1 80.1289 27.0228 16.5396 0.0000 0.0000 0.0000
# 2 27.0228 72.8292 1.7749 0.0000 0.0000 0.0000
# 3 16.5396 1.7749 75.3160 0.0000 0.0000 0.0000
# 4 0.0000 0.0000 0.0000 13.7668 0.0000 0.0000
# 5 0.0000 0.0000 0.0000 0.0000 19.9644 0.0000
# 6 0.0000 0.0000 0.0000 0.0000 0.0000 19.5792
#
#
#
# Elastic Compliance Matrix: (Units=1/GPa)
#
#
# Indices 1 2 3 4 5 6 
#
# 1 0.014981 -0.005482 -0.003161 0.000000 0.000000 0.000000
# 2 -0.005482 0.015744 0.000833 0.000000 0.000000 0.000000
# 3 -0.003161 0.000833 0.013952 0.000000 0.000000 0.000000
# 4 0.000000 0.000000 0.000000 0.072638 0.000000 0.000000
# 5 0.000000 0.000000 0.000000 0.000000 0.050089 0.000000
# 6 0.000000 0.000000 0.000000 0.000000 0.000000 0.051075
#
#
# Mechanical properties :
#
#
# Convention : Reuss Voigt Hill
#
# Bulk Modulus (GPa) = 34.41375 35.43875 34.92625
# Shear Modulus (GPa) = 20.50993 22.85786 21.68390
#
# Velocity S-wave (km/s) = 3.23906 3.41944 3.33047
# Velocity P-wave (km/s) = 5.62071 5.80673 5.71448
#
# Compressibility (1/GPa) = 0.02905815
#
# Stress axis : x y z
#
# Youngs Moduli (GPa) = 66.75167 63.51483 71.67504
#
# Poissons Ratio (x) = 0.34816 0.22654
# Poissons Ratio (y) = 0.36590 -0.05969
# Poissons Ratio (z) = 0.21098 -0.05289
#
# Static dielectric constant tensor:
#      x y z
#    x 3.483710 0.000000 0.000000 
#    y 0.000000 3.352790 0.000000 
#    z 0.000000 0.000000 3.731520 
# 
# 
# High freq. dielectric constant tensor:
#      x y z
#    x 1.753830 0.000000 0.000000 
#    y 0.000000 1.746310 0.000000 
#    z 0.000000 0.000000 1.767520 
# 
# From -- ./inp_files/35185.got.cif
#   From: 2010.03.12/outbox.cif.g09.slc.cpg/sg63_18_cif.got.tgz:35185.got - 2010.04.10 19:34:48.
