data_PCOD8260373
_publ_section_title
;
Structure prediction by ZEFSAII (Michael W. Deem and Ramdas Pophale) SiO2 
 PCOD8260373
Probable space group: C M C M
;
_chemical_formula_sum "Si O2"
_cell_formula_units_Z 88
_cell_length_a 13.611160
_cell_length_b 27.891564
_cell_length_c 12.662709
_cell_angle_alpha 90.000000
_cell_angle_beta 90.000000
_cell_angle_gamma 90.000000
_cell_volume 4807.227035
_symmetry_space_group_name_H-M "C M C M"
_symmetry_group_IT_number 63
_symmetry_cell_setting 'orthorhombic'
loop_
_space_group_symop_operation_xyz
x,y,z
-x,-y,1/2+z
x,-y,-z
-x,y,1/2-z
-x,-y,-z
x,y,1/2-z
-x,y,z
x,-y,1/2+z
1/2+x,1/2+y,z
1/2-x,1/2-y,1/2+z
1/2+x,1/2-y,-z
1/2-x,1/2+y,1/2-z
1/2-x,1/2-y,-z
1/2+x,1/2+y,1/2-z
1/2-x,1/2+y,z
1/2+x,1/2-y,1/2+z
loop_
_atom_site_type_symbol
_atom_site_label
_atom_site_fract_x
_atom_site_fract_y
_atom_site_fract_z
Si Si1 0.286933 0.418819 0.750000
Si Si2 0.887244 0.293760 0.628865
Si Si3 0.383992 0.684359 0.632078
Si Si4 0.265318 0.960364 0.082360
Si Si5 0.886148 0.489439 0.750000
Si Si6 0.884792 0.979821 0.250000
Si Si7 0.243139 0.131954 0.036441
O O1 0.175763 0.439964 0.750000
O O2 0.363131 0.463072 0.750000
O O3 0.304348 0.386220 0.646488
O O4 0.872400 0.309695 0.750000
O O5 0.852057 0.239298 0.612911
O O6 0.823823 0.327457 0.553800
O O7 0.000000 0.299581 0.594998
O O8 0.347801 0.668538 0.750000
O O9 0.500000 0.679891 0.627007
O O10 0.341169 0.651821 0.539614
O O11 0.166100 0.953991 0.150549
O O12 0.359210 0.978465 0.148510
O O13 0.296065 0.911726 0.023982
O O14 0.233920 0.000000 0.000000
O O15 0.000000 0.475663 0.750000
O O16 0.000000 0.969281 0.250000
#
# Coordination Sequence:
#
# PCOD8260373 Si02
#       7
#     8  16  16  16   8   8  16
#     4  10  22  38  54  88 116 140 194 236 272 344
#     4   9  19  37  60  86 113 145 188 231 278 340
#     4   9  21  39  59  85 113 147 191 232 277 335
#     4  10  21  39  54  82 114 144 191 234 270 342
#     4  10  22  40  56  75 114 156 186 233 288 325
#     4  10  22  40  56  73 110 156 190 233 282 321
#     4  12  20  36  61  85 116 148 185 235 287 325
#
# _framework density 18.305772000000001
#
# number of rings (size 3 to 8) (size 9 to 14) (size 15 to 20)
#    0.000    2.182    4.545    1.636    2.545    3.636 
#    0.000    0.000    0.000    0.000    0.000    0.000 
#    0.000    0.000    0.000    0.000    0.000    0.000 
#
# Total GULP energy -545490.453519 kJ/mol
# GULP energy per Si atom -12397.510307 kJ/mol
# Density = 1.826411 g / cm^3
# Si number density = 18.305772 Si / 1000 Ang^3
#
#
#
# Elastic Constant Matrix: (Units=GPa)
#
#
# Indices 1 2 3 4 5 6 
#
# 1 72.4533 21.5297 32.3002 0.0000 0.0000 0.0000
# 2 21.5297 91.3703 58.9906 0.0000 0.0000 0.0000
# 3 32.3002 58.9906 130.2821 0.0000 0.0000 0.0000
# 4 0.0000 0.0000 0.0000 36.5435 0.0000 0.0000
# 5 0.0000 0.0000 0.0000 0.0000 28.5350 0.0000
# 6 0.0000 0.0000 0.0000 0.0000 0.0000 20.5506
#
#
#
# Elastic Compliance Matrix: (Units=1/GPa)
#
#
# Indices 1 2 3 4 5 6 
#
# 1 0.015697 -0.001676 -0.003133 0.000000 0.000000 0.000000
# 2 -0.001676 0.015645 -0.006668 0.000000 0.000000 0.000000
# 3 -0.003133 -0.006668 0.011472 0.000000 0.000000 0.000000
# 4 0.000000 0.000000 0.000000 0.027365 0.000000 0.000000
# 5 0.000000 0.000000 0.000000 0.000000 0.035045 0.000000
# 6 0.000000 0.000000 0.000000 0.000000 0.000000 0.048660
#
#
# Mechanical properties :
#
#
# Convention : Reuss Voigt Hill
#
# Bulk Modulus (GPa) = 50.35527 57.74964 54.05245
# Shear Modulus (GPa) = 27.25450 29.21150 28.23300
#
# Velocity S-wave (km/s) = 3.86274 3.99902 3.93147
# Velocity P-wave (km/s) = 6.88927 7.27589 7.08522
#
# Compressibility (1/GPa) = 0.01985889
#
# Stress axis : x y z
#
# Youngs Moduli (GPa) = 63.70801 63.92009 87.17177
#
# Poissons Ratio (x) = 0.10714 0.27308
# Poissons Ratio (y) = 0.10678 0.58128
# Poissons Ratio (z) = 0.19958 0.42623
#
# Static dielectric constant tensor:
#      x y z
#    x 2.987830 0.000000 0.000000 
#    y 0.000000 3.544430 0.000000 
#    z 0.000000 0.000000 3.412360 
# 
# 
# High freq. dielectric constant tensor:
#      x y z
#    x 1.679770 0.000000 0.000000 
#    y 0.000000 1.719070 0.000000 
#    z 0.000000 0.000000 1.720780 
# 
# From -- ./inp_files/19810.got.cif
#   From: 2010.03.12/outbox.cif.g09.slc.cpg/sg63_10_cif.got.tgz:19810.got - 2010.04.10 19:34:48.
