data_PCOD8260405
_publ_section_title
;
Structure prediction by ZEFSAII (Michael W. Deem and Ramdas Pophale) SiO2 
 PCOD8260405
Probable space group: C M C M
;
_chemical_formula_sum "Si O2"
_cell_formula_units_Z 112
_cell_length_a 22.681130
_cell_length_b 17.451880
_cell_length_c 14.525489
_cell_angle_alpha 90.000000
_cell_angle_beta 90.000000
_cell_angle_gamma 90.000000
_cell_volume 5749.600475
_symmetry_space_group_name_H-M "C M C M"
_symmetry_group_IT_number 63
_symmetry_cell_setting 'orthorhombic'
loop_
_space_group_symop_operation_xyz
x,y,z
-x,-y,1/2+z
x,-y,-z
-x,y,1/2-z
-x,-y,-z
x,y,1/2-z
-x,y,z
x,-y,1/2+z
1/2+x,1/2+y,z
1/2-x,1/2-y,1/2+z
1/2+x,1/2-y,-z
1/2-x,1/2+y,1/2-z
1/2-x,1/2-y,-z
1/2+x,1/2+y,1/2-z
1/2-x,1/2+y,z
1/2+x,1/2-y,1/2+z
loop_
_atom_site_type_symbol
_atom_site_label
_atom_site_fract_x
_atom_site_fract_y
_atom_site_fract_z
Si Si1 0.235686 0.304754 0.646246
Si Si2 0.066875 0.241639 0.037172
Si Si3 0.119526 0.790356 0.145453
Si Si4 0.933059 0.905119 0.649848
Si Si5 0.264320 0.078903 0.976494
Si Si6 0.366315 0.460345 0.411187
Si Si7 0.164265 0.313634 0.146331
O O1 0.226260 0.338698 0.750000
O O2 0.185976 0.239845 0.625945
O O3 0.236693 0.369726 0.568732
O O4 0.298734 0.264564 0.640103
O O5 0.085628 0.156685 0.071951
O O6 0.104868 0.305617 0.088370
O O7 0.000000 0.258963 0.062443
O O8 0.076777 0.250778 0.927503
O O9 0.100409 0.771032 0.250000
O O10 0.110426 0.880379 0.127738
O O11 0.931765 0.863482 0.750000
O O12 0.000000 0.935575 0.630715
O O13 0.884434 0.973333 0.660760
O O14 0.201671 0.052792 0.935094
O O15 0.298130 0.117425 0.893585
O O16 0.298191 0.000000 0.000000
O O17 0.398948 0.500000 0.500000
O O18 0.147870 0.334908 0.250000
#
# Coordination Sequence:
#
# PCOD8260405 Si02
#       7
#    16  16  16  16  16  16  16
#     4  10  21  39  62  86 118 159 200 249 306 362
#     4  11  23  40  62  87 119 161 209 254 299 353
#     4  11  21  37  62  87 116 158 208 254 301 361
#     4  10  22  38  55  79 118 167 211 246 286 345
#     4  11  23  37  60  90 124 152 194 249 309 375
#     4  11  21  34  55  82 120 165 197 239 293 349
#     4  11  22  38  62  90 122 159 202 254 303 357
#
# _framework density 19.479614999999999
#
# number of rings (size 3 to 8) (size 9 to 14) (size 15 to 20)
#    0.000    1.286    4.286    2.143    2.000    3.143 
#    0.000    2.143    0.000    0.429    0.000    0.000 
#    0.000    0.000    0.000    0.000    0.000    0.000 
#
# Total GULP energy -693863.311041 kJ/mol
# GULP energy per Si atom -12390.416269 kJ/mol
# Density = 1.943528 g / cm^3
# Si number density = 19.479615 Si / 1000 Ang^3
#
#
#
# Elastic Constant Matrix: (Units=GPa)
#
#
# Indices 1 2 3 4 5 6 
#
# 1 65.0852 24.2377 44.2074 0.0000 0.0000 0.0000
# 2 24.2377 62.6191 43.1336 0.0000 0.0000 0.0000
# 3 44.2074 43.1336 147.0447 0.0000 0.0000 0.0000
# 4 0.0000 0.0000 0.0000 15.9928 0.0000 0.0000
# 5 0.0000 0.0000 0.0000 0.0000 23.8337 0.0000
# 6 0.0000 0.0000 0.0000 0.0000 0.0000 27.5572
#
#
#
# Elastic Compliance Matrix: (Units=1/GPa)
#
#
# Indices 1 2 3 4 5 6 
#
# 1 0.020303 -0.004579 -0.004761 0.000000 0.000000 0.000000
# 2 -0.004579 0.021046 -0.004797 0.000000 0.000000 0.000000
# 3 -0.004761 -0.004797 0.009639 0.000000 0.000000 0.000000
# 4 0.000000 0.000000 0.000000 0.062528 0.000000 0.000000
# 5 0.000000 0.000000 0.000000 0.000000 0.041957 0.000000
# 6 0.000000 0.000000 0.000000 0.000000 0.000000 0.036288
#
#
# Mechanical properties :
#
#
# Convention : Reuss Voigt Hill
#
# Bulk Modulus (GPa) = 44.02441 55.32294 49.67367
# Shear Modulus (GPa) = 21.96757 24.35476 23.16116
#
# Velocity S-wave (km/s) = 3.36180 3.53975 3.45192
# Velocity P-wave (km/s) = 6.14152 6.72075 6.43765
#
# Compressibility (1/GPa) = 0.02271467
#
# Stress axis : x y z
#
# Youngs Moduli (GPa) = 49.25279 47.51415 103.74516
#
# Poissons Ratio (x) = 0.21759 0.49390
# Poissons Ratio (y) = 0.22555 0.49766
# Poissons Ratio (z) = 0.23448 0.22792
#
# Static dielectric constant tensor:
#      x y z
#    x 3.382790 0.000000 0.000000 
#    y 0.000000 3.582210 0.000000 
#    z 0.000000 0.000000 3.920090 
# 
# 
# High freq. dielectric constant tensor:
#      x y z
#    x 1.737310 0.000000 0.000000 
#    y 0.000000 1.728820 0.000000 
#    z 0.000000 0.000000 1.783670 
# 
# From -- ./inp_files/36866.got.cif
#   From: 2010.03.12/outbox.cif.g09.slc.cpg/sg63_19_cif.got.tgz:36866.got - 2010.04.10 19:34:48.
