data_PCOD8260729
_publ_section_title
;
Structure prediction by ZEFSAII (Michael W. Deem and Ramdas Pophale) SiO2 
 PCOD8260729
Probable space group: C M C M
;
_chemical_formula_sum "Si O2"
_cell_formula_units_Z 96
_cell_length_a 20.802880
_cell_length_b 13.780638
_cell_length_c 16.040067
_cell_angle_alpha 90.000000
_cell_angle_beta 90.000000
_cell_angle_gamma 90.000000
_cell_volume 4598.317624
_symmetry_space_group_name_H-M "C M C M"
_symmetry_group_IT_number 63
_symmetry_cell_setting 'orthorhombic'
loop_
_space_group_symop_operation_xyz
x,y,z
-x,-y,1/2+z
x,-y,-z
-x,y,1/2-z
-x,-y,-z
x,y,1/2-z
-x,y,z
x,-y,1/2+z
1/2+x,1/2+y,z
1/2-x,1/2-y,1/2+z
1/2+x,1/2-y,-z
1/2-x,1/2+y,1/2-z
1/2-x,1/2-y,-z
1/2+x,1/2+y,1/2-z
1/2-x,1/2+y,z
1/2+x,1/2-y,1/2+z
loop_
_atom_site_type_symbol
_atom_site_label
_atom_site_fract_x
_atom_site_fract_y
_atom_site_fract_z
Si Si1 0.383332 0.250075 0.848651
Si Si2 0.183661 0.915507 0.157167
Si Si3 0.302312 0.024265 0.406867
Si Si4 0.069954 0.548590 0.591486
Si Si5 0.240725 0.736845 0.097069
Si Si6 0.926303 0.960981 0.593001
O O1 0.402831 0.248814 0.750000
O O2 0.417945 0.165716 0.902777
O O3 0.306414 0.238679 0.854627
O O4 0.403297 0.350892 0.893302
O O5 0.208062 0.926925 0.250000
O O6 0.239914 0.959256 0.101965
O O7 0.181755 0.803413 0.129367
O O8 0.115107 0.966876 0.149694
O O9 0.368768 0.997009 0.357607
O O10 0.324126 0.000000 0.500000
O O11 0.282766 0.130651 0.380983
O O12 0.065530 0.500000 0.500000
O O13 0.000000 0.529227 0.634266
O O14 0.250000 0.750000 0.000000
O O15 0.000000 0.970587 0.620406
O O16 0.915082 0.000000 0.500000
#
# Coordination Sequence:
#
# PCOD8260729 Si02
#       6
#    16  16  16  16  16  16
#     4  12  24  41  69 102 133 168 221 289 338 377
#     4  12  24  39  62  94 131 168 211 269 330 386
#     4  11  21  39  64  92 123 170 216 267 321 392
#     4  10  22  41  64  94 132 174 217 266 332 402
#     4  12  22  38  65  96 131 171 221 268 325 396
#     4  11  25  44  67  96 132 178 224 266 324 397
#
# _framework density 20.877199999999998
#
# number of rings (size 3 to 8) (size 9 to 14) (size 15 to 20)
#    0.000    0.667    5.000    4.000    0.000    3.000 
#    0.000    2.500    0.000    0.000    0.000    0.000 
#    0.000    0.000    0.000    0.000    0.000    0.000 
#
# Total GULP energy -594640.404993 kJ/mol
# GULP energy per Si atom -12388.341771 kJ/mol
# Density = 2.082968 g / cm^3
# Si number density = 20.877200 Si / 1000 Ang^3
#
#
#
# Elastic Constant Matrix: (Units=GPa)
#
#
# Indices 1 2 3 4 5 6 
#
# 1 135.7122 42.7571 21.7630 0.0000 0.0000 0.0000
# 2 42.7571 94.5541 39.7705 0.0000 0.0000 0.0000
# 3 21.7630 39.7705 69.9687 0.0000 0.0000 0.0000
# 4 0.0000 0.0000 0.0000 20.8670 0.0000 0.0000
# 5 0.0000 0.0000 0.0000 0.0000 2.3422 0.0000
# 6 0.0000 0.0000 0.0000 0.0000 0.0000 20.9038
#
#
#
# Elastic Compliance Matrix: (Units=1/GPa)
#
#
# Indices 1 2 3 4 5 6 
#
# 1 0.008613 -0.003637 -0.000611 0.000000 0.000000 0.000000
# 2 -0.003637 0.015435 -0.007642 0.000000 0.000000 0.000000
# 3 -0.000611 -0.007642 0.018826 0.000000 0.000000 0.000000
# 4 0.000000 0.000000 0.000000 0.047923 0.000000 0.000000
# 5 0.000000 0.000000 0.000000 0.000000 0.426954 0.000000
# 6 0.000000 0.000000 0.000000 0.000000 0.000000 0.047838
#
#
# Mechanical properties :
#
#
# Convention : Reuss Voigt Hill
#
# Bulk Modulus (GPa) = 52.37750 56.53514 54.45632
# Shear Modulus (GPa) = 8.39300 21.88554 15.13927
#
# Velocity S-wave (km/s) = 2.00721 3.24126 2.69580
# Velocity P-wave (km/s) = 5.52401 6.41454 5.98586
#
# Compressibility (1/GPa) = 0.01909217
#
# Stress axis : x y z
#
# Youngs Moduli (GPa) = 116.10933 64.78736 53.11806
#
# Poissons Ratio (x) = 0.23566 0.03247
# Poissons Ratio (y) = 0.42234 0.40593
# Poissons Ratio (z) = 0.07098 0.49510
#
# Static dielectric constant tensor:
#      x y z
#    x 4.108290 0.000000 0.000000 
#    y 0.000000 3.914680 0.000000 
#    z 0.000000 0.000000 3.583190 
# 
# 
# High freq. dielectric constant tensor:
#      x y z
#    x 1.833730 0.000000 0.000000 
#    y 0.000000 1.829910 0.000000 
#    z 0.000000 0.000000 1.796460 
# 
# From -- ./inp_files/35388.got.cif
#   From: 2010.03.12/outbox.cif.g09.slc.cpg/sg63_18_cif.got.tgz:35388.got - 2010.04.10 19:34:48.
