data_PCOD8260887
_publ_section_title
;
Structure prediction by ZEFSAII (Michael W. Deem and Ramdas Pophale) SiO2 
 PCOD8260887
Probable space group: C M C M
;
_chemical_formula_sum "Si O2"
_cell_formula_units_Z 68
_cell_length_a 15.197784
_cell_length_b 20.117087
_cell_length_c 10.999267
_cell_angle_alpha 90.000000
_cell_angle_beta 90.000000
_cell_angle_gamma 90.000000
_cell_volume 3362.862468
_symmetry_space_group_name_H-M "C M C M"
_symmetry_group_IT_number 63
_symmetry_cell_setting 'orthorhombic'
loop_
_space_group_symop_operation_xyz
x,y,z
-x,-y,1/2+z
x,-y,-z
-x,y,1/2-z
-x,-y,-z
x,y,1/2-z
-x,y,z
x,-y,1/2+z
1/2+x,1/2+y,z
1/2-x,1/2-y,1/2+z
1/2+x,1/2-y,-z
1/2-x,1/2+y,1/2-z
1/2-x,1/2-y,-z
1/2+x,1/2+y,1/2-z
1/2-x,1/2+y,z
1/2+x,1/2-y,1/2+z
loop_
_atom_site_type_symbol
_atom_site_label
_atom_site_fract_x
_atom_site_fract_y
_atom_site_fract_z
Si Si1 0.664002 0.489600 0.750000
Si Si2 0.000000 0.783795 0.119040
Si Si3 0.000000 0.912549 0.250000
Si Si4 0.398420 0.104242 0.886864
Si Si5 0.398712 0.656655 0.250000
Si Si6 0.775945 0.500000 0.000000
Si Si7 0.153651 0.251673 0.450551
O O1 0.590063 0.546325 0.750000
O O2 0.611133 0.421626 0.750000
O O3 0.719676 0.493434 0.875493
O O4 0.000000 0.749737 0.250000
O O5 0.000000 0.864880 0.130049
O O6 0.087237 0.756613 0.059797
O O7 0.387086 0.075433 0.750000
O O8 0.500000 0.099508 0.928510
O O9 0.367215 0.180377 0.880913
O O10 0.338799 0.064025 0.982913
O O11 0.500000 0.677667 0.250000
O O12 0.353322 0.687333 0.133030
O O13 0.250000 0.250000 0.500000
#
# Coordination Sequence:
#
# PCOD8260887 Si02
#       7
#     8   8   4  16   8   8  16
#     4  12  28  45  72 102 144 188 241 292 353 426
#     4  10  26  44  67 104 141 186 230 288 356 421
#     4  10  28  46  72  98 148 194 224 292 368 420
#     4  11  23  46  73 102 140 187 231 291 361 418
#     4  12  24  44  69 104 134 181 240 293 344 428
#     4  12  27  47  70 106 142 186 246 289 349 430
#     4  12  25  43  71 102 142 182 235 294 353 419
#
# _framework density 20.220869
#
# number of rings (size 3 to 8) (size 9 to 14) (size 15 to 20)
#    0.353    0.235    5.294    1.765    8.235    0.471 
#    2.118    0.000    0.000    0.000    0.000    0.000 
#    0.000    0.000    0.000    0.000    0.000    0.000 
#
# Total GULP energy -421526.198586 kJ/mol
# GULP energy per Si atom -12397.829370 kJ/mol
# Density = 2.017485 g / cm^3
# Si number density = 20.220869 Si / 1000 Ang^3
#
#
#
# Elastic Constant Matrix: (Units=GPa)
#
#
# Indices 1 2 3 4 5 6 
#
# 1 174.5683 35.5899 68.9604 0.0000 0.0000 0.0000
# 2 35.5899 92.3461 19.3191 0.0000 0.0000 0.0000
# 3 68.9604 19.3191 127.4361 0.0000 0.0000 0.0000
# 4 0.0000 0.0000 0.0000 38.0824 0.0000 0.0000
# 5 0.0000 0.0000 0.0000 0.0000 15.9572 0.0000
# 6 0.0000 0.0000 0.0000 0.0000 0.0000 38.9706
#
#
#
# Elastic Compliance Matrix: (Units=1/GPa)
#
#
# Indices 1 2 3 4 5 6 
#
# 1 0.007681 -0.002159 -0.003829 0.000000 0.000000 0.000000
# 2 -0.002159 0.011790 -0.000619 0.000000 0.000000 0.000000
# 3 -0.003829 -0.000619 0.010013 0.000000 0.000000 0.000000
# 4 0.000000 0.000000 0.000000 0.026259 0.000000 0.000000
# 5 0.000000 0.000000 0.000000 0.000000 0.062668 0.000000
# 6 0.000000 0.000000 0.000000 0.000000 0.000000 0.025660
#
#
# Mechanical properties :
#
#
# Convention : Reuss Voigt Hill
#
# Bulk Modulus (GPa) = 61.46343 71.34327 66.40335
# Shear Modulus (GPa) = 30.72948 36.63410 33.68179
#
# Velocity S-wave (km/s) = 3.90255 4.26102 4.08572
# Velocity P-wave (km/s) = 7.12521 7.71797 7.42750
#
# Compressibility (1/GPa) = 0.01626984
#
# Stress axis : x y z
#
# Youngs Moduli (GPa) = 130.18557 84.81409 99.86931
#
# Poissons Ratio (x) = 0.18314 0.38243
# Poissons Ratio (y) = 0.28111 0.06182
# Poissons Ratio (z) = 0.49852 0.05250
#
# Static dielectric constant tensor:
#      x y z
#    x 3.771000 0.000000 0.000000 
#    y 0.000000 3.791450 0.000000 
#    z 0.000000 0.000000 3.674770 
# 
# 
# High freq. dielectric constant tensor:
#      x y z
#    x 1.807690 0.000000 0.000000 
#    y 0.000000 1.794870 0.000000 
#    z 0.000000 0.000000 1.795190 
# 
# From -- ./inp_files/19222.got.cif
#   From: 2010.03.12/outbox.cif.g09.slc.cpg/sg63_10_cif.got.tgz:19222.got - 2010.04.10 19:34:48.
