data_PCOD8260239
_publ_section_title
;
Structure prediction by ZEFSAII (Michael W. Deem and Ramdas Pophale) SiO2 
 PCOD8260239
Probable space group: C M C M
;
_chemical_formula_sum "Si O2"
_cell_formula_units_Z 112
_cell_length_a 23.103026
_cell_length_b 14.733751
_cell_length_c 14.659939
_cell_angle_alpha 90.000000
_cell_angle_beta 90.000000
_cell_angle_gamma 90.000000
_cell_volume 4990.158683
_symmetry_space_group_name_H-M "C M C M"
_symmetry_group_IT_number 63
_symmetry_cell_setting 'orthorhombic'
loop_
_space_group_symop_operation_xyz
x,y,z
-x,-y,1/2+z
x,-y,-z
-x,y,1/2-z
-x,-y,-z
x,y,1/2-z
-x,y,z
x,-y,1/2+z
1/2+x,1/2+y,z
1/2-x,1/2-y,1/2+z
1/2+x,1/2-y,-z
1/2-x,1/2+y,1/2-z
1/2-x,1/2-y,-z
1/2+x,1/2+y,1/2-z
1/2-x,1/2+y,z
1/2+x,1/2-y,1/2+z
loop_
_atom_site_type_symbol
_atom_site_label
_atom_site_fract_x
_atom_site_fract_y
_atom_site_fract_z
Si Si1 0.374618 0.460736 0.858151
Si Si2 0.249423 0.262745 0.106244
Si Si3 0.161995 0.392885 0.853324
Si Si4 0.882445 0.238478 0.352963
Si Si5 0.568294 0.810577 0.530226
Si Si6 0.255693 0.527412 0.856130
Si Si7 0.067668 0.860264 0.351849
O O1 0.371787 0.467336 0.750000
O O2 0.401057 0.363114 0.884457
O O3 0.310351 0.474309 0.899650
O O4 0.414019 0.543082 0.894883
O O5 0.297644 0.196991 0.148598
O O6 0.186837 0.242421 0.148130
O O7 0.263796 0.366863 0.126237
O O8 0.250000 0.250000 0.000000
O O9 0.140233 0.409938 0.750000
O O10 0.105556 0.387105 0.918195
O O11 0.197578 0.479378 0.894456
O O12 0.904198 0.260883 0.250000
O O13 0.912800 0.306966 0.423896
O O14 0.500000 0.831631 0.538300
O O15 0.587942 0.717805 0.579575
O O16 0.253743 0.507263 0.750000
O O17 0.094602 0.844146 0.250000
O O18 0.000000 0.858810 0.342533
#
# Coordination Sequence:
#
# PCOD8260239 Si02
#       7
#    16  16  16  16  16  16  16
#     4   9  18  34  57  87 125 167 210 258 317 394
#     4  12  23  40  64  98 134 171 211 270 326 386
#     4  11  22  41  67  98 134 172 213 269 341 400
#     4  11  23  41  60  85 129 175 219 270 327 394
#     4  11  24  41  61  93 127 168 227 277 328 392
#     4  10  21  37  63  95 131 173 213 260 329 403
#     4   9  18  34  57  86 123 165 210 267 332 392
#
# _framework density 22.444175999999999
#
# number of rings (size 3 to 8) (size 9 to 14) (size 15 to 20)
#    0.000    1.571    2.857    2.571    0.000    4.000 
#    0.000    2.857    0.000    1.714    0.000    2.000 
#    0.000    0.000    0.000    0.000    0.000    0.000 
#
# Total GULP energy -694187.038489 kJ/mol
# GULP energy per Si atom -12396.197116 kJ/mol
# Density = 2.239309 g / cm^3
# Si number density = 22.444176 Si / 1000 Ang^3
#
#
#
# Elastic Constant Matrix: (Units=GPa)
#
#
# Indices 1 2 3 4 5 6 
#
# 1 44.7082 -0.5182 8.0856 0.0000 0.0000 0.0000
# 2 -0.5182 49.4310 0.9510 0.0000 0.0000 0.0000
# 3 8.0856 0.9510 85.0293 0.0000 0.0000 0.0000
# 4 0.0000 0.0000 0.0000 25.5872 0.0000 0.0000
# 5 0.0000 0.0000 0.0000 0.0000 22.8645 0.0000
# 6 0.0000 0.0000 0.0000 0.0000 0.0000 37.4964
#
#
#
# Elastic Compliance Matrix: (Units=1/GPa)
#
#
# Indices 1 2 3 4 5 6 
#
# 1 0.022763 0.000280 -0.002168 0.000000 0.000000 0.000000
# 2 0.000280 0.020238 -0.000253 0.000000 0.000000 0.000000
# 3 -0.002168 -0.000253 0.011970 0.000000 0.000000 0.000000
# 4 0.000000 0.000000 0.000000 0.039082 0.000000 0.000000
# 5 0.000000 0.000000 0.000000 0.000000 0.043736 0.000000
# 6 0.000000 0.000000 0.000000 0.000000 0.000000 0.026669
#
#
# Mechanical properties :
#
#
# Convention : Reuss Voigt Hill
#
# Bulk Modulus (GPa) = 19.72798 21.80061 20.76430
# Shear Modulus (GPa) = 26.93465 28.56630 27.75048
#
# Velocity S-wave (km/s) = 3.46797 3.57146 3.52009
# Velocity P-wave (km/s) = 4.98444 5.17122 5.07868
#
# Compressibility (1/GPa) = 0.05068942
#
# Stress axis : x y z
#
# Youngs Moduli (GPa) = 43.93185 49.41193 83.54489
#
# Poissons Ratio (x) = -0.01385 0.18110
# Poissons Ratio (y) = -0.01231 0.02114
# Poissons Ratio (z) = 0.09523 0.01250
#
# Static dielectric constant tensor:
#      x y z
#    x 3.995310 0.000000 0.000000 
#    y 0.000000 4.218990 0.000000 
#    z 0.000000 0.000000 3.686830 
# 
# 
# High freq. dielectric constant tensor:
#      x y z
#    x 1.868960 0.000000 0.000000 
#    y 0.000000 1.870360 0.000000 
#    z 0.000000 0.000000 1.887510 
# 
# From -- ./inp_files/36878.got.cif
#   From: 2010.03.12/outbox.cif.g09.slc.cpg/sg63_19_cif.got.tgz:36878.got - 2010.04.10 19:34:48.
