data_PCOD8260660
_publ_section_title
;
Structure prediction by ZEFSAII (Michael W. Deem and Ramdas Pophale) SiO2 
 PCOD8260660
Probable space group: C M C M
;
_chemical_formula_sum "Si O2"
_cell_formula_units_Z 112
_cell_length_a 23.676022
_cell_length_b 15.862506
_cell_length_c 14.658182
_cell_angle_alpha 90.000000
_cell_angle_beta 90.000000
_cell_angle_gamma 90.000000
_cell_volume 5505.042092
_symmetry_space_group_name_H-M "C M C M"
_symmetry_group_IT_number 63
_symmetry_cell_setting 'orthorhombic'
loop_
_space_group_symop_operation_xyz
x,y,z
-x,-y,1/2+z
x,-y,-z
-x,y,1/2-z
-x,-y,-z
x,y,1/2-z
-x,y,z
x,-y,1/2+z
1/2+x,1/2+y,z
1/2-x,1/2-y,1/2+z
1/2+x,1/2-y,-z
1/2-x,1/2+y,1/2-z
1/2-x,1/2-y,-z
1/2+x,1/2+y,1/2-z
1/2-x,1/2+y,z
1/2+x,1/2-y,1/2+z
loop_
_atom_site_type_symbol
_atom_site_label
_atom_site_fract_x
_atom_site_fract_y
_atom_site_fract_z
Si Si1 0.340254 0.096760 0.019499
Si Si2 0.063665 0.148691 0.610544
Si Si3 0.838900 0.280546 0.147107
Si Si4 0.936006 0.831015 0.896728
Si Si5 0.766729 0.116540 0.146665
Si Si6 0.369580 0.509334 0.107354
Si Si7 0.564709 0.834672 0.850418
O O1 0.285834 0.109684 0.080972
O O2 0.395389 0.128456 0.072073
O O3 0.329702 0.144030 0.923832
O O4 0.350668 0.000000 0.000000
O O5 0.071767 0.168522 0.504641
O O6 0.075470 0.235129 0.662680
O O7 0.000000 0.115133 0.628559
O O8 0.108486 0.079555 0.648198
O O9 0.824780 0.312082 0.250000
O O10 0.903572 0.249491 0.144024
O O11 0.800392 0.200767 0.118587
O O12 0.910749 0.917415 0.855854
O O13 0.000000 0.822410 0.864821
O O14 0.744733 0.122484 0.250000
O O15 0.805921 0.032959 0.136769
O O16 0.373710 0.500000 0.000000
O O17 0.576136 0.875179 0.750000
O O18 0.500000 0.851135 0.881220
#
# Coordination Sequence:
#
# PCOD8260660 Si02
#       7
#    16  16  16  16  16  16  16
#     4  12  25  43  67  88 116 155 203 258 312 358
#     4   9  16  30  56  89 127 166 202 238 286 355
#     4  10  22  40  62  89 121 158 201 251 303 361
#     4   9  16  30  54  86 125 164 199 240 294 358
#     4  10  22  41  62  87 123 162 202 247 298 361
#     4   9  17  30  53  88 128 166 200 239 289 351
#     4  10  22  41  64  91 123 159 203 254 305 360
#
# _framework density 20.344985000000001
#
# number of rings (size 3 to 8) (size 9 to 14) (size 15 to 20)
#    0.000    2.143    1.429    1.714    0.000    4.000 
#    2.571    0.000    0.000    2.571    0.000    0.000 
#    0.000    0.000    0.000    0.000    0.000    0.000 
#
# Total GULP energy -694258.643208 kJ/mol
# GULP energy per Si atom -12397.475772 kJ/mol
# Density = 2.029868 g / cm^3
# Si number density = 20.344985 Si / 1000 Ang^3
#
#
#
# Elastic Constant Matrix: (Units=GPa)
#
#
# Indices 1 2 3 4 5 6 
#
# 1 130.7095 54.3388 52.0897 0.0000 0.0000 0.0000
# 2 54.3388 108.9794 50.1866 0.0000 0.0000 0.0000
# 3 52.0897 50.1866 97.3742 0.0000 0.0000 0.0000
# 4 0.0000 0.0000 0.0000 -13.1686 0.0000 0.0000
# 5 0.0000 0.0000 0.0000 0.0000 -26.3398 0.0000
# 6 0.0000 0.0000 0.0000 0.0000 0.0000 26.2687
#
#
#
# Elastic Compliance Matrix: (Units=1/GPa)
#
#
# Indices 1 2 3 4 5 6 
#
# 1 0.010667 -0.003528 -0.003888 0.000000 0.000000 0.000000
# 2 -0.003528 0.013199 -0.004915 0.000000 0.000000 0.000000
# 3 -0.003888 -0.004915 0.014883 0.000000 0.000000 0.000000
# 4 0.000000 0.000000 0.000000 -0.075938 0.000000 0.000000
# 5 0.000000 0.000000 0.000000 0.000000 -0.037965 0.000000
# 6 0.000000 0.000000 0.000000 0.000000 0.000000 0.038068
#
#
# Mechanical properties :
#
#
# Convention : Reuss Voigt Hill
#
# Bulk Modulus (GPa) = 70.99303 72.25481 71.62392
# Shear Modulus (GPa) = -646.82687 9.38191 -318.72248
#
# Velocity S-wave (km/s) = -17.84992 2.14975 -12.52993
# Velocity P-wave (km/s) = 19.74477 6.46172 13.19284
#
# Compressibility (1/GPa) = 0.01408589
#
# Stress axis : x y z
#
# Youngs Moduli (GPa) = 93.75083 75.76425 67.19251
#
# Poissons Ratio (x) = 0.26731 0.26121
# Poissons Ratio (y) = 0.33078 0.33027
# Poissons Ratio (z) = 0.36446 0.37240
#
# Static dielectric constant tensor:
#      x y z
#    x 3.675260 0.000000 0.000000 
#    y 0.000000 3.630110 0.000000 
#    z 0.000000 0.000000 3.702680 
# 
# 
# High freq. dielectric constant tensor:
#      x y z
#    x 1.790930 0.000000 0.000000 
#    y 0.000000 1.775220 0.000000 
#    z 0.000000 0.000000 1.801720 
# 
# From -- ./inp_files/36949.got.cif
#   From: 2010.03.12/outbox.cif.g09.slc.cpg/sg63_19_cif.got.tgz:36949.got - 2010.04.10 19:34:48.
