data_PCOD8260999
_publ_section_title
;
Structure prediction by ZEFSAII (Michael W. Deem and Ramdas Pophale) SiO2 
 PCOD8260999
Probable space group: C M C M
;
_chemical_formula_sum "Si O2"
_cell_formula_units_Z 104
_cell_length_a 28.296287
_cell_length_b 24.362198
_cell_length_c 8.716115
_cell_angle_alpha 90.000000
_cell_angle_beta 90.000000
_cell_angle_gamma 90.000000
_cell_volume 6008.538827
_symmetry_space_group_name_H-M "C M C M"
_symmetry_group_IT_number 63
_symmetry_cell_setting 'orthorhombic'
loop_
_space_group_symop_operation_xyz
x,y,z
-x,-y,1/2+z
x,-y,-z
-x,y,1/2-z
-x,-y,-z
x,y,1/2-z
-x,y,z
x,-y,1/2+z
1/2+x,1/2+y,z
1/2-x,1/2-y,1/2+z
1/2+x,1/2-y,-z
1/2-x,1/2+y,1/2-z
1/2-x,1/2-y,-z
1/2+x,1/2+y,1/2-z
1/2-x,1/2+y,z
1/2+x,1/2-y,1/2+z
loop_
_atom_site_type_symbol
_atom_site_label
_atom_site_fract_x
_atom_site_fract_y
_atom_site_fract_z
Si Si1 0.946730 0.850299 0.931328
Si Si2 0.588916 0.120984 0.430609
Si Si3 0.053748 0.738216 0.072655
Si Si4 0.771273 0.059449 0.429347
Si Si5 0.177179 0.438930 0.431916
Si Si6 0.124724 0.059646 0.070803
Si Si7 0.500000 0.939999 0.431595
O O1 0.945969 0.853198 0.750000
O O2 0.913210 0.897907 0.000199
O O3 0.000000 0.858897 0.995141
O O4 0.927096 0.790810 0.980551
O O5 0.585684 0.109030 0.250000
O O6 0.586007 0.185823 0.466143
O O7 0.637734 0.100173 0.498729
O O8 0.546379 0.090719 0.513088
O O9 0.056437 0.753445 0.250000
O O10 0.000000 0.724087 0.024157
O O11 0.758815 0.056470 0.250000
O O12 0.727555 0.088316 0.517672
O O13 0.822924 0.086001 0.458999
O O14 0.775734 0.000000 0.500000
O O15 0.171873 0.500000 0.500000
O O16 0.172611 0.441493 0.250000
O O17 0.116601 0.051927 0.250000
O O18 0.117169 0.000000 0.000000
O O19 0.500000 0.943520 0.250000
O O20 0.500000 0.000000 0.500000
#
# Coordination Sequence:
#
# PCOD8260999 Si02
#       7
#    16  16  16  16  16  16   8
#     4   9  18  32  50  74 104 135 165 203 246 292
#     4  11  21  36  53  71  98 131 166 209 253 298
#     4   9  18  34  53  72  94 126 168 208 245 291
#     4   9  16  29  48  69  95 129 165 203 244 292
#     4  11  21  33  49  73 100 128 164 206 251 302
#     4   9  18  31  49  75 105 135 167 200 243 295
#     4  12  24  36  50  72 102 134 167 204 253 302
#
# _framework density 17.308700999999999
#
# number of rings (size 3 to 8) (size 9 to 14) (size 15 to 20)
#    0.000    2.154    0.769    4.385    0.000    2.769 
#    0.000    0.000    0.000    0.923    0.000    0.000 
#    0.000    0.000    0.000    0.000    0.000    0.000 
#
# Total GULP energy -644564.308017 kJ/mol
# GULP energy per Si atom -12395.467462 kJ/mol
# Density = 1.726931 g / cm^3
# Si number density = 17.308701 Si / 1000 Ang^3
#
#
#
# Elastic Constant Matrix: (Units=GPa)
#
#
# Indices 1 2 3 4 5 6 
#
# 1 128.0296 74.7151 45.2431 0.0000 0.0000 0.0000
# 2 74.7151 104.4472 42.9241 0.0000 0.0000 0.0000
# 3 45.2431 42.9241 83.7906 0.0000 0.0000 0.0000
# 4 0.0000 0.0000 0.0000 26.3575 0.0000 0.0000
# 5 0.0000 0.0000 0.0000 0.0000 19.8537 0.0000
# 6 0.0000 0.0000 0.0000 0.0000 0.0000 -24.1199
#
#
#
# Elastic Compliance Matrix: (Units=1/GPa)
#
#
# Indices 1 2 3 4 5 6 
#
# 1 0.014008 -0.008755 -0.003079 0.000000 0.000000 0.000000
# 2 -0.008755 0.017600 -0.004288 0.000000 0.000000 0.000000
# 3 -0.003079 -0.004288 0.015794 0.000000 0.000000 0.000000
# 4 0.000000 0.000000 0.000000 0.037940 0.000000 0.000000
# 5 0.000000 0.000000 0.000000 0.000000 0.050368 0.000000
# 6 0.000000 0.000000 0.000000 0.000000 0.000000 -0.041459
#
#
# Mechanical properties :
#
#
# Convention : Reuss Voigt Hill
#
# Bulk Modulus (GPa) = 65.97729 71.33690 68.65709
# Shear Modulus (GPa) = 38.00935 14.64394 26.32664
#
# Velocity S-wave (km/s) = 4.69120 2.91184 3.90424
# Velocity P-wave (km/s) = 8.21851 7.25321 7.75090
#
# Compressibility (1/GPa) = 0.01515673
#
# Stress axis : x y z
#
# Youngs Moduli (GPa) = 71.38807 56.81958 63.31652
#
# Poissons Ratio (x) = 0.49747 0.19492
# Poissons Ratio (y) = 0.62502 0.27153
# Poissons Ratio (z) = 0.21977 0.24367
#
# Static dielectric constant tensor:
#      x y z
#    x 3.494140 0.000000 0.000000 
#    y 0.000000 3.136870 0.000000 
#    z 0.000000 0.000000 3.247650 
# 
# 
# High freq. dielectric constant tensor:
#      x y z
#    x 1.673010 0.000000 0.000000 
#    y 0.000000 1.643870 0.000000 
#    z 0.000000 0.000000 1.675890 
# 
# From -- ./inp_files/14678.got.cif
#   From: 2010.03.12/outbox.cif.g09.slc.cpg/sg63_8_cif.got.tgz:14678.got - 2010.04.10 19:34:48.
