data_PCOD8260507
_publ_section_title
;
Structure prediction by ZEFSAII (Michael W. Deem and Ramdas Pophale) SiO2 
 PCOD8260507
Probable space group: C M C M
;
_chemical_formula_sum "Si O2"
_cell_formula_units_Z 96
_cell_length_a 18.895732
_cell_length_b 16.768643
_cell_length_c 13.865790
_cell_angle_alpha 90.000000
_cell_angle_beta 90.000000
_cell_angle_gamma 90.000000
_cell_volume 4393.455763
_symmetry_space_group_name_H-M "C M C M"
_symmetry_group_IT_number 63
_symmetry_cell_setting 'orthorhombic'
loop_
_space_group_symop_operation_xyz
x,y,z
-x,-y,1/2+z
x,-y,-z
-x,y,1/2-z
-x,-y,-z
x,y,1/2-z
-x,y,z
x,-y,1/2+z
1/2+x,1/2+y,z
1/2-x,1/2-y,1/2+z
1/2+x,1/2-y,-z
1/2-x,1/2+y,1/2-z
1/2-x,1/2-y,-z
1/2+x,1/2+y,1/2-z
1/2-x,1/2+y,z
1/2+x,1/2-y,1/2+z
loop_
_atom_site_type_symbol
_atom_site_label
_atom_site_fract_x
_atom_site_fract_y
_atom_site_fract_z
Si Si1 0.917037 0.740809 0.016794
Si Si2 0.806869 0.621291 0.056242
Si Si3 0.873139 0.116991 0.851755
Si Si4 0.219125 0.549504 0.640105
Si Si5 0.577983 0.536114 0.399747
Si Si6 0.831480 0.814566 0.640273
O O1 0.878584 0.671240 0.078883
O O2 0.902119 0.826626 0.064678
O O3 0.000000 0.721918 0.010951
O O4 0.882278 0.749029 0.910359
O O5 0.797043 0.544173 0.123652
O O6 0.740989 0.680052 0.078451
O O7 0.819446 0.599546 0.943376
O O8 0.867767 0.164760 0.750000
O O9 0.799975 0.073066 0.877934
O O10 0.926363 0.042940 0.834029
O O11 0.195007 0.570728 0.750000
O O12 0.607361 0.500000 0.500000
O O13 0.500000 0.575494 0.409157
O O14 0.631215 0.599773 0.355659
O O15 0.815581 0.786678 0.750000
#
# Coordination Sequence:
#
# PCOD8260507 Si02
#       6
#    16  16  16  16  16  16
#     4  12  27  45  64  96 140 180 218 268 337 410
#     4  11  23  44  68  97 133 173 222 277 339 394
#     4  11  22  38  62  92 129 170 214 268 328 394
#     4  10  21  41  71 100 125 165 227 287 329 384
#     4  11  20  34  57  87 130 173 210 256 314 389
#     4  12  24  40  64  96 131 175 226 274 329 394
#
# _framework density 21.850681000000002
#
# number of rings (size 3 to 8) (size 9 to 14) (size 15 to 20)
#    0.000    0.833    5.000    2.500    0.000    5.333 
#    0.000    1.667    0.000    1.000    0.000    0.000 
#    0.000    0.000    0.000    0.000    0.000    0.000 
#
# Total GULP energy -594722.632928 kJ/mol
# GULP energy per Si atom -12390.054853 kJ/mol
# Density = 2.180095 g / cm^3
# Si number density = 21.850681 Si / 1000 Ang^3
#
#
#
# Elastic Constant Matrix: (Units=GPa)
#
#
# Indices 1 2 3 4 5 6 
#
# 1 120.8404 54.3887 20.9596 0.0000 0.0000 0.0000
# 2 54.3887 57.7060 19.5772 0.0000 0.0000 0.0000
# 3 20.9596 19.5772 113.0197 0.0000 0.0000 0.0000
# 4 0.0000 0.0000 0.0000 15.0292 0.0000 0.0000
# 5 0.0000 0.0000 0.0000 0.0000 12.0021 0.0000
# 6 0.0000 0.0000 0.0000 0.0000 0.0000 31.2794
#
#
#
# Elastic Compliance Matrix: (Units=1/GPa)
#
#
# Indices 1 2 3 4 5 6 
#
# 1 0.014385 -0.013443 -0.000339 0.000000 0.000000 0.000000
# 2 -0.013443 0.030973 -0.002872 0.000000 0.000000 0.000000
# 3 -0.000339 -0.002872 0.009408 0.000000 0.000000 0.000000
# 4 0.000000 0.000000 0.000000 0.066537 0.000000 0.000000
# 5 0.000000 0.000000 0.000000 0.000000 0.083319 0.000000
# 6 0.000000 0.000000 0.000000 0.000000 0.000000 0.031970
#
#
# Mechanical properties :
#
#
# Convention : Reuss Voigt Hill
#
# Bulk Modulus (GPa) = 46.60152 53.49080 50.04616
# Shear Modulus (GPa) = 18.04710 24.77153 21.40931
#
# Velocity S-wave (km/s) = 2.87701 3.37066 3.13357
# Velocity P-wave (km/s) = 5.69296 6.29935 6.00382
#
# Compressibility (1/GPa) = 0.02145853
#
# Stress axis : x y z
#
# Youngs Moduli (GPa) = 69.51919 32.28572 106.28759
#
# Poissons Ratio (x) = 0.43400 0.03604
# Poissons Ratio (y) = 0.93452 0.30529
# Poissons Ratio (z) = 0.02357 0.09273
#
# Static dielectric constant tensor:
#      x y z
#    x 3.676700 0.000000 0.000000 
#    y 0.000000 3.859710 0.000000 
#    z 0.000000 0.000000 4.225720 
# 
# 
# High freq. dielectric constant tensor:
#      x y z
#    x 1.829450 0.000000 0.000000 
#    y 0.000000 1.846780 0.000000 
#    z 0.000000 0.000000 1.870290 
# 
# From -- ./inp_files/31960.got.cif
#   From: 2010.03.12/outbox.cif.g09.slc.cpg/sg63_16_cif.got.tgz:31960.got - 2010.04.10 19:34:48.
