data_PCOD8260739
_publ_section_title
;
Structure prediction by ZEFSAII (Michael W. Deem and Ramdas Pophale) SiO2 
 PCOD8260739
Probable space group: C M C M
;
_chemical_formula_sum "Si O2"
_cell_formula_units_Z 64
_cell_length_a 14.662772
_cell_length_b 27.355692
_cell_length_c 7.564051
_cell_angle_alpha 90.000000
_cell_angle_beta 90.000000
_cell_angle_gamma 90.000000
_cell_volume 3034.018574
_symmetry_space_group_name_H-M "C M C M"
_symmetry_group_IT_number 63
_symmetry_cell_setting 'orthorhombic'
loop_
_space_group_symop_operation_xyz
x,y,z
-x,-y,1/2+z
x,-y,-z
-x,y,1/2-z
-x,-y,-z
x,y,1/2-z
-x,y,z
x,-y,1/2+z
1/2+x,1/2+y,z
1/2-x,1/2-y,1/2+z
1/2+x,1/2-y,-z
1/2-x,1/2+y,1/2-z
1/2-x,1/2-y,-z
1/2+x,1/2+y,1/2-z
1/2-x,1/2+y,z
1/2+x,1/2-y,1/2+z
loop_
_atom_site_type_symbol
_atom_site_label
_atom_site_fract_x
_atom_site_fract_y
_atom_site_fract_z
Si Si1 0.610139 0.589752 0.750000
Si Si2 0.095289 0.805502 0.250000
Si Si3 0.103193 0.374426 0.457966
Si Si4 0.237968 0.053429 0.448926
Si Si5 0.648316 0.235816 0.955737
O O1 0.500000 0.582058 0.750000
O O2 0.656178 0.645465 0.750000
O O3 0.652792 0.566135 0.574452
O O4 0.092793 0.773201 0.425747
O O5 0.000000 0.833718 0.250000
O O6 0.110554 0.380166 0.250000
O O7 0.175539 0.410514 0.544740
O O8 0.127044 0.319118 0.514876
O O9 0.000000 0.386400 0.522509
O O10 0.199398 0.054241 0.250000
O O11 0.275442 0.000000 0.500000
O O12 0.624879 0.243872 0.750000
O O13 0.750000 0.250000 0.000000
#
# Coordination Sequence:
#
# PCOD8260739 Si02
#       5
#     8   8  16  16  16
#     4  11  26  48  70  99 135 169 219 284 342 405
#     4  11  24  40  61  91 131 167 210 266 319 385
#     4  10  22  41  66  98 141 184 229 277 327 394
#     4  12  25  46  72  99 132 172 220 279 345 408
#     4  11  22  38  62  94 132 181 224 269 316 376
#
# _framework density 21.094135000000001
#
# number of rings (size 3 to 8) (size 9 to 14) (size 15 to 20)
#    0.000    1.000    3.750    2.250    1.750    6.500 
#    0.000    2.500    0.000    0.000    0.000    0.000 
#    0.000    0.000    0.000    0.000    0.000    0.000 
#
# Total GULP energy -396500.577245 kJ/mol
# GULP energy per Si atom -12390.643039 kJ/mol
# Density = 2.104612 g / cm^3
# Si number density = 21.094135 Si / 1000 Ang^3
#
#
#
# Elastic Constant Matrix: (Units=GPa)
#
#
# Indices 1 2 3 4 5 6 
#
# 1 128.0588 36.7157 42.6191 0.0000 0.0000 0.0000
# 2 36.7157 135.3968 58.8844 0.0000 0.0000 0.0000
# 3 42.6191 58.8844 146.5617 0.0000 0.0000 0.0000
# 4 0.0000 0.0000 0.0000 32.7975 0.0000 0.0000
# 5 0.0000 0.0000 0.0000 0.0000 -3.9649 0.0000
# 6 0.0000 0.0000 0.0000 0.0000 0.0000 15.6371
#
#
#
# Elastic Compliance Matrix: (Units=1/GPa)
#
#
# Indices 1 2 3 4 5 6 
#
# 1 0.008910 -0.001562 -0.001963 0.000000 0.000000 0.000000
# 2 -0.001562 0.009223 -0.003251 0.000000 0.000000 0.000000
# 3 -0.001963 -0.003251 0.008700 0.000000 0.000000 0.000000
# 4 0.000000 0.000000 0.000000 0.030490 0.000000 0.000000
# 5 0.000000 0.000000 0.000000 0.000000 -0.252211 0.000000
# 6 0.000000 0.000000 0.000000 0.000000 0.000000 0.063950
#
#
# Mechanical properties :
#
#
# Convention : Reuss Voigt Hill
#
# Bulk Modulus (GPa) = 75.30216 76.27288 75.78752
# Shear Modulus (GPa) = -44.26517 27.01382 -8.62568
#
# Velocity S-wave (km/s) = -4.58586 3.58247 -2.02435
# Velocity P-wave (km/s) = 2.78127 7.30404 5.52650
#
# Compressibility (1/GPa) = 0.01327983
#
# Stress axis : x y z
#
# Youngs Moduli (GPa) = 112.23006 108.41989 114.93854
#
# Poissons Ratio (x) = 0.16939 0.22566
# Poissons Ratio (y) = 0.17534 0.37371
# Poissons Ratio (z) = 0.22035 0.35251
#
# Static dielectric constant tensor:
#      x y z
#    x 3.796380 0.000000 0.000000 
#    y 0.000000 4.109370 0.000000 
#    z 0.000000 0.000000 3.585330 
# 
# 
# High freq. dielectric constant tensor:
#      x y z
#    x 1.832150 0.000000 0.000000 
#    y 0.000000 1.838550 0.000000 
#    z 0.000000 0.000000 1.833480 
# 
# From -- ./inp_files/4322.got.cif
#   From: 2010.03.12/outbox.cif.g09.slc.cpg/sg63_3_cif.got.tgz:4322.got - 2010.04.10 19:34:48.
