data_PCOD8260036
_publ_section_title
;
Structure prediction by ZEFSAII (Michael W. Deem and Ramdas Pophale) SiO2 
 PCOD8260036
Probable space group: C M C M
;
_chemical_formula_sum "Si O2"
_cell_formula_units_Z 72
_cell_length_a 13.135292
_cell_length_b 31.780965
_cell_length_c 8.725550
_cell_angle_alpha 90.000000
_cell_angle_beta 90.000000
_cell_angle_gamma 90.000000
_cell_volume 3642.500526
_symmetry_space_group_name_H-M "C M C M"
_symmetry_group_IT_number 63
_symmetry_cell_setting 'orthorhombic'
loop_
_space_group_symop_operation_xyz
x,y,z
-x,-y,1/2+z
x,-y,-z
-x,y,1/2-z
-x,-y,-z
x,y,1/2-z
-x,y,z
x,-y,1/2+z
1/2+x,1/2+y,z
1/2-x,1/2-y,1/2+z
1/2+x,1/2-y,-z
1/2-x,1/2+y,1/2-z
1/2-x,1/2-y,-z
1/2+x,1/2+y,1/2-z
1/2-x,1/2+y,z
1/2+x,1/2-y,1/2+z
loop_
_atom_site_type_symbol
_atom_site_label
_atom_site_fract_x
_atom_site_fract_y
_atom_site_fract_z
Si Si1 0.202394 0.683563 0.572180
Si Si2 0.500000 0.046041 0.931088
Si Si3 0.189018 0.405499 0.929901
Si Si4 0.886194 0.955224 0.930604
Si Si5 0.612783 0.739126 0.575964
O O1 0.193349 0.671287 0.750000
O O2 0.179496 0.643334 0.469705
O O3 0.313482 0.701274 0.526490
O O4 0.122344 0.720198 0.532316
O O5 0.500000 0.042887 0.750000
O O6 0.601268 0.069793 0.982938
O O7 0.500000 0.000000 0.000000
O O8 0.172890 0.412056 0.750000
O O9 0.300583 0.421854 0.983755
O O10 0.884798 0.960254 0.750000
O O11 0.000000 0.941058 0.985763
O O12 0.856425 0.000000 0.000000
O O13 0.637851 0.753079 0.750000
O O14 0.500000 0.720776 0.559524
#
# Coordination Sequence:
#
# PCOD8260036 Si02
#       5
#    16   8  16  16  16
#     4  10  21  36  55  84 115 146 191 241 291 344
#     4  12  26  44  64  88 120 158 202 250 300 354
#     4  11  23  39  60  86 119 157 196 241 292 350
#     4   9  19  36  58  84 113 147 187 231 283 343
#     4   9  19  37  59  80 110 152 193 238 291 350
#
# _framework density 19.766641
#
# number of rings (size 3 to 8) (size 9 to 14) (size 15 to 20)
#    0.000    2.000    0.000    3.000    1.556    5.778 
#    0.000    0.000    0.000    0.000    0.000    0.000 
#    0.000    0.000    0.000    0.000    0.000    0.000 
#
# Total GULP energy -446433.929037 kJ/mol
# GULP energy per Si atom -12400.942473 kJ/mol
# Density = 1.972165 g / cm^3
# Si number density = 19.766641 Si / 1000 Ang^3
#
#
#
# Elastic Constant Matrix: (Units=GPa)
#
#
# Indices 1 2 3 4 5 6 
#
# 1 124.2784 51.4230 41.6710 0.0000 0.0000 0.0000
# 2 51.4230 113.0614 38.3398 0.0000 0.0000 0.0000
# 3 41.6710 38.3398 73.7584 0.0000 0.0000 0.0000
# 4 0.0000 0.0000 0.0000 34.0571 0.0000 0.0000
# 5 0.0000 0.0000 0.0000 0.0000 22.1432 0.0000
# 6 0.0000 0.0000 0.0000 0.0000 0.0000 13.9152
#
#
#
# Elastic Compliance Matrix: (Units=1/GPa)
#
#
# Indices 1 2 3 4 5 6 
#
# 1 0.010962 -0.003503 -0.004372 0.000000 0.000000 0.000000
# 2 -0.003503 0.011857 -0.004184 0.000000 0.000000 0.000000
# 3 -0.004372 -0.004184 0.018203 0.000000 0.000000 0.000000
# 4 0.000000 0.000000 0.000000 0.029362 0.000000 0.000000
# 5 0.000000 0.000000 0.000000 0.000000 0.045160 0.000000
# 6 0.000000 0.000000 0.000000 0.000000 0.000000 0.071864
#
#
# Mechanical properties :
#
#
# Convention : Reuss Voigt Hill
#
# Bulk Modulus (GPa) = 59.16166 63.77397 61.46781
# Shear Modulus (GPa) = 23.02435 26.00074 24.51255
#
# Velocity S-wave (km/s) = 3.41663 3.63076 3.52532
# Velocity P-wave (km/s) = 6.74978 7.06470 6.90904
#
# Compressibility (1/GPa) = 0.01690284
#
# Stress axis : x y z
#
# Youngs Moduli (GPa) = 91.22455 84.33903 54.93650
#
# Poissons Ratio (x) = 0.29545 0.24019
# Poissons Ratio (y) = 0.31957 0.22986
# Poissons Ratio (z) = 0.39885 0.35288
#
# Static dielectric constant tensor:
#      x y z
#    x 3.922860 0.000000 0.000000 
#    y 0.000000 3.471600 0.000000 
#    z 0.000000 0.000000 3.658170 
# 
# 
# High freq. dielectric constant tensor:
#      x y z
#    x 1.784880 0.000000 0.000000 
#    y 0.000000 1.762700 0.000000 
#    z 0.000000 0.000000 1.772250 
# 
# From -- ./inp_files/4636.got.cif
#   From: 2010.03.12/outbox.cif.g09.slc.cpg/sg63_3_cif.got.tgz:4636.got - 2010.04.10 19:34:48.
