data_PCOD8260834
_publ_section_title
;
Structure prediction by ZEFSAII (Michael W. Deem and Ramdas Pophale) SiO2 
 PCOD8260834
Probable space group: C M C M
;
_chemical_formula_sum "Si O2"
_cell_formula_units_Z 112
_cell_length_a 22.907152
_cell_length_b 15.215757
_cell_length_c 14.534112
_cell_angle_alpha 90.000000
_cell_angle_beta 90.000000
_cell_angle_gamma 90.000000
_cell_volume 5065.859773
_symmetry_space_group_name_H-M "C M C M"
_symmetry_group_IT_number 63
_symmetry_cell_setting 'orthorhombic'
loop_
_space_group_symop_operation_xyz
x,y,z
-x,-y,1/2+z
x,-y,-z
-x,y,1/2-z
-x,-y,-z
x,y,1/2-z
-x,y,z
x,-y,1/2+z
1/2+x,1/2+y,z
1/2-x,1/2-y,1/2+z
1/2+x,1/2-y,-z
1/2-x,1/2+y,1/2-z
1/2-x,1/2-y,-z
1/2+x,1/2+y,1/2-z
1/2-x,1/2+y,z
1/2+x,1/2-y,1/2+z
loop_
_atom_site_type_symbol
_atom_site_label
_atom_site_fract_x
_atom_site_fract_y
_atom_site_fract_z
Si Si1 0.565100 0.989976 0.641179
Si Si2 0.435190 0.483658 0.393009
Si Si3 0.663995 0.656209 0.852139
Si Si4 0.266343 0.598835 0.019962
Si Si5 0.869842 0.146433 0.148259
Si Si6 0.660459 0.852800 0.644110
Si Si7 0.065166 0.314777 0.140595
O O1 0.561750 0.985541 0.750000
O O2 0.500000 0.971367 0.601292
O O3 0.586598 0.087666 0.610411
O O4 0.610392 0.917458 0.604598
O O5 0.431334 0.500000 0.500000
O O6 0.500000 0.452934 0.363152
O O7 0.389172 0.409641 0.366116
O O8 0.422032 0.576061 0.342786
O O9 0.690662 0.641735 0.750000
O O10 0.636790 0.753661 0.859914
O O11 0.717950 0.644648 0.922891
O O12 0.322873 0.600792 0.083806
O O13 0.214873 0.645762 0.074873
O O14 0.247442 0.500000 0.000000
O O15 0.843865 0.164584 0.250000
O O16 0.892027 0.238380 0.102621
O O17 0.677770 0.878368 0.750000
O O18 0.063896 0.307013 0.250000
O O19 0.000000 0.298920 0.101963
#
# Coordination Sequence:
#
# PCOD8260834 Si02
#       7
#    16  16  16  16  16  16  16
#     4   8  15  34  63  95 130 163 202 254 308 373
#     4  11  22  39  62  94 135 175 214 261 321 384
#     4  11  23  43  66  90 123 170 221 270 322 380
#     4  12  24  44  63  91 127 171 211 273 322 377
#     4  11  20  35  61  93 130 170 210 255 316 375
#     4  10  23  42  67  97 129 166 212 263 324 390
#     4   8  15  29  54  90 127 164 207 251 302 365
#
# _framework density 22.108782999999999
#
# number of rings (size 3 to 8) (size 9 to 14) (size 15 to 20)
#    0.000    1.857    2.857    2.571    0.000    2.857 
#    5.143    1.429    0.000    0.429    0.000    0.000 
#    0.000    0.571    0.000    0.000    0.000    0.000 
#
# Total GULP energy -694179.182814 kJ/mol
# GULP energy per Si atom -12396.056836 kJ/mol
# Density = 2.205846 g / cm^3
# Si number density = 22.108783 Si / 1000 Ang^3
#
#
#
# Elastic Constant Matrix: (Units=GPa)
#
#
# Indices 1 2 3 4 5 6 
#
# 1 100.5889 58.0037 37.1408 0.0000 0.0000 0.0000
# 2 58.0037 154.8623 27.7183 0.0000 0.0000 0.0000
# 3 37.1408 27.7183 96.6291 0.0000 0.0000 0.0000
# 4 0.0000 0.0000 0.0000 17.2685 0.0000 0.0000
# 5 0.0000 0.0000 0.0000 0.0000 15.2642 0.0000
# 6 0.0000 0.0000 0.0000 0.0000 0.0000 27.7897
#
#
#
# Elastic Compliance Matrix: (Units=1/GPa)
#
#
# Indices 1 2 3 4 5 6 
#
# 1 0.014074 -0.004536 -0.004108 0.000000 0.000000 0.000000
# 2 -0.004536 0.008269 -0.000628 0.000000 0.000000 0.000000
# 3 -0.004108 -0.000628 0.012108 0.000000 0.000000 0.000000
# 4 0.000000 0.000000 0.000000 0.057909 0.000000 0.000000
# 5 0.000000 0.000000 0.000000 0.000000 0.065513 0.000000
# 6 0.000000 0.000000 0.000000 0.000000 0.000000 0.035985
#
#
# Mechanical properties :
#
#
# Convention : Reuss Voigt Hill
#
# Bulk Modulus (GPa) = 62.87199 66.42287 64.64743
# Shear Modulus (GPa) = 22.96688 27.34566 25.15627
#
# Velocity S-wave (km/s) = 3.22656 3.52073 3.37685
# Velocity P-wave (km/s) = 6.51001 6.82907 6.67145
#
# Compressibility (1/GPa) = 0.01590534
#
# Stress axis : x y z
#
# Youngs Moduli (GPa) = 71.05233 120.93604 82.58838
#
# Poissons Ratio (x) = 0.54858 0.33931
# Poissons Ratio (y) = 0.32230 0.05190
# Poissons Ratio (z) = 0.29191 0.07600
#
# Static dielectric constant tensor:
#      x y z
#    x 4.008250 0.000000 0.000000 
#    y 0.000000 4.204260 0.000000 
#    z 0.000000 0.000000 3.998600 
# 
# 
# High freq. dielectric constant tensor:
#      x y z
#    x 1.848730 0.000000 0.000000 
#    y 0.000000 1.881300 0.000000 
#    z 0.000000 0.000000 1.867980 
# 
# From -- ./inp_files/36933.got.cif
#   From: 2010.03.12/outbox.cif.g09.slc.cpg/sg63_19_cif.got.tgz:36933.got - 2010.04.10 19:34:48.
