data_PCOD8260097
_publ_section_title
;
Structure prediction by ZEFSAII (Michael W. Deem and Ramdas Pophale) SiO2 
 PCOD8260097
Probable space group: C M C M
;
_chemical_formula_sum "Si O2"
_cell_formula_units_Z 96
_cell_length_a 18.652427
_cell_length_b 32.042421
_cell_length_c 9.050221
_cell_angle_alpha 90.000000
_cell_angle_beta 90.000000
_cell_angle_gamma 90.000000
_cell_volume 5409.035798
_symmetry_space_group_name_H-M "C M C M"
_symmetry_group_IT_number 63
_symmetry_cell_setting 'orthorhombic'
loop_
_space_group_symop_operation_xyz
x,y,z
-x,-y,1/2+z
x,-y,-z
-x,y,1/2-z
-x,-y,-z
x,y,1/2-z
-x,y,z
x,-y,1/2+z
1/2+x,1/2+y,z
1/2-x,1/2-y,1/2+z
1/2+x,1/2-y,-z
1/2-x,1/2+y,1/2-z
1/2-x,1/2-y,-z
1/2+x,1/2+y,1/2-z
1/2-x,1/2+y,z
1/2+x,1/2-y,1/2+z
loop_
_atom_site_type_symbol
_atom_site_label
_atom_site_fract_x
_atom_site_fract_y
_atom_site_fract_z
Si Si1 0.082610 0.739506 0.079921
Si Si2 0.343053 0.833144 0.075024
Si Si3 0.785374 0.457969 0.920425
Si Si4 0.919013 0.593488 0.078260
Si Si5 0.582006 0.335882 0.079536
Si Si6 0.288701 0.373264 0.576764
O O1 0.099136 0.728479 0.250000
O O2 0.099384 0.787684 0.047682
O O3 0.000000 0.729517 0.043969
O O4 0.133568 0.713013 0.973391
O O5 0.338408 0.835766 0.250000
O O6 0.402415 0.865445 0.015953
O O7 0.265198 0.842576 0.008154
O O8 0.783351 0.468667 0.750000
O O9 0.865595 0.443788 0.968549
O O10 0.730042 0.421206 0.961199
O O11 0.761748 0.500000 0.000000
O O12 0.906603 0.605054 0.250000
O O13 0.000000 0.578722 0.047193
O O14 0.597124 0.346422 0.250000
O O15 0.500000 0.345930 0.038964
O O16 0.630888 0.364836 0.976743
O O17 0.280997 0.364680 0.750000
#
# Coordination Sequence:
#
# PCOD8260097 Si02
#       6
#    16  16  16  16  16  16
#     4   9  18  33  51  71 101 140 174 206 249 297
#     4  11  21  31  47  73 103 136 177 219 251 283
#     4   9  19  34  52  75 100 129 165 204 249 300
#     4   9  18  33  50  69 100 140 175 208 251 299
#     4   9  19  36  57  80 103 128 162 204 251 301
#     4  10  21  37  55  75 101 133 167 202 248 305
#
# _framework density 17.748079000000001
#
# number of rings (size 3 to 8) (size 9 to 14) (size 15 to 20)
#    0.000    2.500    0.000    4.500    0.000    8.000 
#    0.000    1.667    0.000    0.500    0.000    0.000 
#    0.000    0.000    0.000    0.000    0.000    0.000 
#
# Total GULP energy -595268.364758 kJ/mol
# GULP energy per Si atom -12401.424266 kJ/mol
# Density = 1.770768 g / cm^3
# Si number density = 17.748079 Si / 1000 Ang^3
#
#
#
# Elastic Constant Matrix: (Units=GPa)
#
#
# Indices 1 2 3 4 5 6 
#
# 1 99.4587 63.7003 55.5979 0.0000 0.0000 0.0000
# 2 63.7003 96.8932 55.2997 0.0000 0.0000 0.0000
# 3 55.5979 55.2997 95.2604 0.0000 0.0000 0.0000
# 4 0.0000 0.0000 0.0000 29.4155 0.0000 0.0000
# 5 0.0000 0.0000 0.0000 0.0000 30.0922 0.0000
# 6 0.0000 0.0000 0.0000 0.0000 0.0000 17.1895
#
#
#
# Elastic Compliance Matrix: (Units=1/GPa)
#
#
# Indices 1 2 3 4 5 6 
#
# 1 0.019317 -0.009369 -0.005835 0.000000 0.000000 0.000000
# 2 -0.009369 0.019978 -0.006129 0.000000 0.000000 0.000000
# 3 -0.005835 -0.006129 0.017462 0.000000 0.000000 0.000000
# 4 0.000000 0.000000 0.000000 0.033996 0.000000 0.000000
# 5 0.000000 0.000000 0.000000 0.000000 0.033231 0.000000
# 6 0.000000 0.000000 0.000000 0.000000 0.000000 0.058175
#
#
# Mechanical properties :
#
#
# Convention : Reuss Voigt Hill
#
# Bulk Modulus (GPa) = 70.97700 71.20089 71.08895
# Shear Modulus (GPa) = 21.78428 23.14041 22.46235
#
# Velocity S-wave (km/s) = 3.50725 3.61477 3.56142
# Velocity P-wave (km/s) = 7.51527 7.59123 7.55334
#
# Compressibility (1/GPa) = 0.01408907
#
# Stress axis : x y z
#
# Youngs Moduli (GPa) = 51.76763 50.05390 57.26885
#
# Poissons Ratio (x) = 0.46897 0.33418
# Poissons Ratio (y) = 0.48502 0.35103
# Poissons Ratio (z) = 0.30208 0.30680
#
# Static dielectric constant tensor:
#      x y z
#    x 3.246290 0.000000 0.000000 
#    y 0.000000 3.126740 0.000000 
#    z 0.000000 0.000000 3.198990 
# 
# 
# High freq. dielectric constant tensor:
#      x y z
#    x 1.680660 0.000000 0.000000 
#    y 0.000000 1.672460 0.000000 
#    z 0.000000 0.000000 1.684500 
# 
# From -- ./inp_files/8530.got.cif
#   From: 2010.03.12/outbox.cif.g09.slc.cpg/sg63_5_cif.got.tgz:8530.got - 2010.04.10 19:34:48.
