data_PCOD8260904
_publ_section_title
;
Structure prediction by ZEFSAII (Michael W. Deem and Ramdas Pophale) SiO2 
 PCOD8260904
Probable space group: C M C M
;
_chemical_formula_sum "Si O2"
_cell_formula_units_Z 80
_cell_length_a 11.475475
_cell_length_b 19.920338
_cell_length_c 17.669884
_cell_angle_alpha 90.000000
_cell_angle_beta 90.000000
_cell_angle_gamma 90.000000
_cell_volume 4039.253153
_symmetry_space_group_name_H-M "C M C M"
_symmetry_group_IT_number 63
_symmetry_cell_setting 'orthorhombic'
loop_
_space_group_symop_operation_xyz
x,y,z
-x,-y,1/2+z
x,-y,-z
-x,y,1/2-z
-x,-y,-z
x,y,1/2-z
-x,y,z
x,-y,1/2+z
1/2+x,1/2+y,z
1/2-x,1/2-y,1/2+z
1/2+x,1/2-y,-z
1/2-x,1/2+y,1/2-z
1/2-x,1/2-y,-z
1/2+x,1/2+y,1/2-z
1/2-x,1/2+y,z
1/2+x,1/2-y,1/2+z
loop_
_atom_site_type_symbol
_atom_site_label
_atom_site_fract_x
_atom_site_fract_y
_atom_site_fract_z
Si Si1 0.000000 0.878560 0.831904
Si Si2 0.131165 0.654761 0.161384
Si Si3 0.000000 0.267083 0.342400
Si Si4 0.294975 0.553320 0.099770
Si Si5 0.758373 0.275732 0.413728
Si Si6 0.635274 0.588219 0.565524
O O1 0.000000 0.808868 0.877704
O O2 0.885974 0.923920 0.837397
O O3 0.000000 0.846355 0.750000
O O4 0.139335 0.641430 0.250000
O O5 0.170414 0.586727 0.117931
O O6 0.212632 0.717149 0.140735
O O7 0.000000 0.670488 0.135234
O O8 0.114499 0.298368 0.383064
O O9 0.000000 0.278519 0.250000
O O10 0.287140 0.472614 0.100120
O O11 0.349117 0.584632 0.023966
O O12 0.750000 0.250000 0.500000
O O13 0.678060 0.341066 0.402522
O O14 0.500000 0.577701 0.586492
#
# Coordination Sequence:
#
# PCOD8260904 Si02
#       6
#     8  16   8  16  16  16
#     4  11  18  33  63  89 114 155 211 253 298 374
#     4  11  24  42  63  89 127 170 210 257 314 376
#     4  11  24  42  63  90 129 174 215 266 318 377
#     4  11  20  39  63  91 121 158 205 258 319 376
#     4  12  24  38  67  96 127 163 216 263 316 377
#     4  11  22  39  63  94 127 156 199 267 324 369
#
# _framework density 19.805641999999999
#
# number of rings (size 3 to 8) (size 9 to 14) (size 15 to 20)
#    0.000    0.800    6.000    2.400    2.800    0.000 
#    1.800    5.000    0.000    0.000    0.000    0.000 
#    0.000    0.000    0.000    0.000    0.000    0.000 
#
# Total GULP energy -495806.462376 kJ/mol
# GULP energy per Si atom -12395.161559 kJ/mol
# Density = 1.976056 g / cm^3
# Si number density = 19.805642 Si / 1000 Ang^3
#
#
#
# Elastic Constant Matrix: (Units=GPa)
#
#
# Indices 1 2 3 4 5 6 
#
# 1 115.7913 35.2904 28.8445 0.0000 0.0000 0.0000
# 2 35.2904 123.6324 26.4731 0.0000 0.0000 0.0000
# 3 28.8445 26.4731 59.1315 0.0000 0.0000 0.0000
# 4 0.0000 0.0000 0.0000 20.4245 0.0000 0.0000
# 5 0.0000 0.0000 0.0000 0.0000 22.4856 0.0000
# 6 0.0000 0.0000 0.0000 0.0000 0.0000 37.0205
#
#
#
# Elastic Compliance Matrix: (Units=1/GPa)
#
#
# Indices 1 2 3 4 5 6 
#
# 1 0.010284 -0.002059 -0.004095 0.000000 0.000000 0.000000
# 2 -0.002059 0.009358 -0.003185 0.000000 0.000000 0.000000
# 3 -0.004095 -0.003185 0.020335 0.000000 0.000000 0.000000
# 4 0.000000 0.000000 0.000000 0.048961 0.000000 0.000000
# 5 0.000000 0.000000 0.000000 0.000000 0.044473 0.000000
# 6 0.000000 0.000000 0.000000 0.000000 0.000000 0.027012
#
#
# Mechanical properties :
#
#
# Convention : Reuss Voigt Hill
#
# Bulk Modulus (GPa) = 46.95007 53.30791 50.12899
# Shear Modulus (GPa) = 26.85284 29.84928 28.35106
#
# Velocity S-wave (km/s) = 3.68614 3.88636 3.78757
# Velocity P-wave (km/s) = 6.47099 6.86385 6.67031
#
# Compressibility (1/GPa) = 0.02129922
#
# Stress axis : x y z
#
# Youngs Moduli (GPa) = 97.24138 106.85800 49.17619
#
# Poissons Ratio (x) = 0.21998 0.20137
# Poissons Ratio (y) = 0.20018 0.15665
# Poissons Ratio (z) = 0.39818 0.34039
#
# Static dielectric constant tensor:
#      x y z
#    x 3.777660 0.000000 0.000000 
#    y 0.000000 3.608380 0.000000 
#    z 0.000000 0.000000 3.539990 
# 
# 
# High freq. dielectric constant tensor:
#      x y z
#    x 1.772940 0.000000 0.000000 
#    y 0.000000 1.770010 0.000000 
#    z 0.000000 0.000000 1.764960 
# 
# From -- ./inp_files/42159.got.cif
#   From: 2010.03.12/outbox.cif.g09.slc.cpg/sg63_22_cif.got.tgz:42159.got - 2010.04.10 19:34:48.
