data_PCOD8260047
_publ_section_title
;
Structure prediction by ZEFSAII (Michael W. Deem and Ramdas Pophale) SiO2 
 PCOD8260047
Probable space group: C M C M
;
_chemical_formula_sum "Si O2"
_cell_formula_units_Z 88
_cell_length_a 30.594592
_cell_length_b 17.616085
_cell_length_c 8.743646
_cell_angle_alpha 90.000000
_cell_angle_beta 90.000000
_cell_angle_gamma 90.000000
_cell_volume 4712.448633
_symmetry_space_group_name_H-M "C M C M"
_symmetry_group_IT_number 63
_symmetry_cell_setting 'orthorhombic'
loop_
_space_group_symop_operation_xyz
x,y,z
-x,-y,1/2+z
x,-y,-z
-x,y,1/2-z
-x,-y,-z
x,y,1/2-z
-x,y,z
x,-y,1/2+z
1/2+x,1/2+y,z
1/2-x,1/2-y,1/2+z
1/2+x,1/2-y,-z
1/2-x,1/2+y,1/2-z
1/2-x,1/2-y,-z
1/2+x,1/2+y,1/2-z
1/2-x,1/2+y,z
1/2+x,1/2-y,1/2+z
loop_
_atom_site_type_symbol
_atom_site_label
_atom_site_fract_x
_atom_site_fract_y
_atom_site_fract_z
Si Si1 0.049536 0.919036 0.070035
Si Si2 0.500000 0.082377 0.429399
Si Si3 0.084745 0.634287 0.922618
Si Si4 0.203683 0.270151 0.067713
Si Si5 0.383383 0.304728 0.579267
Si Si6 0.331380 0.077420 0.431433
O O1 0.050795 0.927348 0.250000
O O2 0.000000 0.895118 0.017040
O O3 0.086548 0.858341 0.024315
O O4 0.062243 0.000000 0.000000
O O5 0.500000 0.075167 0.250000
O O6 0.459619 0.130847 0.485905
O O7 0.500000 0.000000 0.500000
O O8 0.080750 0.602003 0.750000
O O9 0.096893 0.721577 0.918479
O O10 0.118604 0.582659 0.015053
O O11 0.204533 0.275615 0.250000
O O12 0.166776 0.207178 0.018780
O O13 0.250000 0.250000 0.000000
O O14 0.194485 0.352519 0.000878
O O15 0.383136 0.339527 0.750000
O O16 0.327531 0.077639 0.250000
O O17 0.311032 0.000000 0.500000
#
# Coordination Sequence:
#
# PCOD8260047 Si02
#       6
#    16   8  16  16  16  16
#     4  10  21  36  56  83 114 150 191 237 286 341
#     4  12  24  36  50  72 105 144 185 228 272 320
#     4  10  21  37  54  77 108 145 185 227 275 327
#     4  10  21  39  61  87 116 149 188 234 289 347
#     4   9  20  37  58  82 111 146 183 226 279 338
#     4  11  21  36  58  83 111 146 185 230 278 332
#
# _framework density 18.673942
#
# number of rings (size 3 to 8) (size 9 to 14) (size 15 to 20)
#    0.000    1.818    0.000    5.727    1.273    5.455 
#    0.000    0.909    0.000    4.364    0.000    0.000 
#    0.000    0.000    0.000    0.000    0.000    0.000 
#
# Total GULP energy -545456.535045 kJ/mol
# GULP energy per Si atom -12396.739433 kJ/mol
# Density = 1.863144 g / cm^3
# Si number density = 18.673942 Si / 1000 Ang^3
#
#
#
# Elastic Constant Matrix: (Units=GPa)
#
#
# Indices 1 2 3 4 5 6 
#
# 1 143.7047 50.2970 59.1783 0.0000 0.0000 0.0000
# 2 50.2970 83.9961 46.9573 0.0000 0.0000 0.0000
# 3 59.1783 46.9573 127.7358 0.0000 0.0000 0.0000
# 4 0.0000 0.0000 0.0000 35.9840 0.0000 0.0000
# 5 0.0000 0.0000 0.0000 0.0000 33.5986 0.0000
# 6 0.0000 0.0000 0.0000 0.0000 0.0000 17.6487
#
#
#
# Elastic Compliance Matrix: (Units=1/GPa)
#
#
# Indices 1 2 3 4 5 6 
#
# 1 0.009608 -0.004109 -0.002941 0.000000 0.000000 0.000000
# 2 -0.004109 0.016742 -0.004251 0.000000 0.000000 0.000000
# 3 -0.002941 -0.004251 0.010754 0.000000 0.000000 0.000000
# 4 0.000000 0.000000 0.000000 0.027790 0.000000 0.000000
# 5 0.000000 0.000000 0.000000 0.000000 0.029763 0.000000
# 6 0.000000 0.000000 0.000000 0.000000 0.000000 0.056661
#
#
# Mechanical properties :
#
#
# Convention : Reuss Voigt Hill
#
# Bulk Modulus (GPa) = 68.95430 74.25573 71.60502
# Shear Modulus (GPa) = 27.97133 30.71321 29.34227
#
# Velocity S-wave (km/s) = 3.87444 4.05990 3.96826
# Velocity P-wave (km/s) = 7.55120 7.86306 7.70871
#
# Compressibility (1/GPa) = 0.01450236
#
# Stress axis : x y z
#
# Youngs Moduli (GPa) = 104.08057 59.72853 92.99140
#
# Poissons Ratio (x) = 0.24544 0.27345
# Poissons Ratio (y) = 0.42770 0.39530
# Poissons Ratio (z) = 0.30606 0.25390
#
# Static dielectric constant tensor:
#      x y z
#    x 3.564470 0.000000 0.000000 
#    y 0.000000 3.610690 0.000000 
#    z 0.000000 0.000000 3.271770 
# 
# 
# High freq. dielectric constant tensor:
#      x y z
#    x 1.724050 0.000000 0.000000 
#    y 0.000000 1.720960 0.000000 
#    z 0.000000 0.000000 1.738880 
# 
# From -- ./inp_files/14188.got.cif
#   From: 2010.03.12/outbox.cif.g09.slc.cpg/sg63_8_cif.got.tgz:14188.got - 2010.04.10 19:34:48.
