data_PCOD8260859
_publ_section_title
;
Structure prediction by ZEFSAII (Michael W. Deem and Ramdas Pophale) SiO2 
 PCOD8260859
Probable space group: C M C M
;
_chemical_formula_sum "Si O2"
_cell_formula_units_Z 92
_cell_length_a 10.384179
_cell_length_b 19.938428
_cell_length_c 22.635411
_cell_angle_alpha 90.000000
_cell_angle_beta 90.000000
_cell_angle_gamma 90.000000
_cell_volume 4686.530683
_symmetry_space_group_name_H-M "C M C M"
_symmetry_group_IT_number 63
_symmetry_cell_setting 'orthorhombic'
loop_
_space_group_symop_operation_xyz
x,y,z
-x,-y,1/2+z
x,-y,-z
-x,y,1/2-z
-x,-y,-z
x,y,1/2-z
-x,y,z
x,-y,1/2+z
1/2+x,1/2+y,z
1/2-x,1/2-y,1/2+z
1/2+x,1/2-y,-z
1/2-x,1/2+y,1/2-z
1/2-x,1/2-y,-z
1/2+x,1/2+y,1/2-z
1/2-x,1/2+y,z
1/2+x,1/2-y,1/2+z
loop_
_atom_site_type_symbol
_atom_site_label
_atom_site_fract_x
_atom_site_fract_y
_atom_site_fract_z
Si Si1 0.000000 0.663664 0.250000
Si Si2 0.000000 0.760592 0.358964
Si Si3 0.500000 0.591984 0.681595
Si Si4 0.727251 0.510165 0.632072
Si Si5 0.761022 0.252150 0.430044
Si Si6 0.854280 0.609445 0.950653
Si Si7 0.141088 0.536283 0.250000
Si Si8 0.645856 0.612836 0.054573
O O1 0.000000 0.703785 0.310207
O O2 0.872276 0.617133 0.250000
O O3 0.000000 0.828485 0.322120
O O4 0.878120 0.753266 0.400932
O O5 0.500000 0.569073 0.750000
O O6 0.622496 0.565864 0.646482
O O7 0.835221 0.545749 0.591962
O O8 0.785405 0.485531 0.692464
O O9 0.663038 0.447001 0.600392
O O10 0.750000 0.250000 0.500000
O O11 0.837556 0.320603 0.414149
O O12 0.834914 0.183926 0.411135
O O13 0.000000 0.605913 0.976148
O O14 0.749455 0.604503 0.002565
O O15 0.000000 0.501828 0.250000
O O16 0.500000 0.609915 0.028741
#
# Coordination Sequence:
#
# PCOD8260859 Si02
#       8
#     4   8   8  16  16  16   8  16
#     4  10  24  42  72  96 130 170 234 278 338 398
#     4  12  22  44  69 101 127 178 231 282 330 412
#     4  12  24  42  70  98 123 171 225 280 334 394
#     4  12  23  42  66  93 131 169 221 278 331 401
#     4  10  24  38  65  92 138 172 221 275 340 396
#     4  11  25  41  64  95 134 178 224 270 332 402
#     4  10  24  42  64  94 128 166 210 272 346 383
#     4  11  25  40  65  95 134 178 224 271 335 398
#
# _framework density 19.630725999999999
#
# number of rings (size 3 to 8) (size 9 to 14) (size 15 to 20)
#    0.261    0.696    3.913    2.609   10.957    2.783 
#    0.000    0.000    0.000    0.000    0.000    0.000 
#    0.000    0.000    0.000    0.000    0.000    0.000 
#
# Total GULP energy -570301.672878 kJ/mol
# GULP energy per Si atom -12397.862454 kJ/mol
# Density = 1.958605 g / cm^3
# Si number density = 19.630726 Si / 1000 Ang^3
#
#
#
# Elastic Constant Matrix: (Units=GPa)
#
#
# Indices 1 2 3 4 5 6 
#
# 1 162.0257 41.3909 56.1367 0.0000 0.0000 0.0000
# 2 41.3909 128.5245 37.4668 0.0000 0.0000 0.0000
# 3 56.1367 37.4668 93.7577 0.0000 0.0000 0.0000
# 4 0.0000 0.0000 0.0000 4.8571 0.0000 0.0000
# 5 0.0000 0.0000 0.0000 0.0000 41.0167 0.0000
# 6 0.0000 0.0000 0.0000 0.0000 0.0000 33.2065
#
#
#
# Elastic Compliance Matrix: (Units=1/GPa)
#
#
# Indices 1 2 3 4 5 6 
#
# 1 0.007984 -0.001333 -0.004248 0.000000 0.000000 0.000000
# 2 -0.001333 0.009029 -0.002810 0.000000 0.000000 0.000000
# 3 -0.004248 -0.002810 0.014332 0.000000 0.000000 0.000000
# 4 0.000000 0.000000 0.000000 0.205885 0.000000 0.000000
# 5 0.000000 0.000000 0.000000 0.000000 0.024380 0.000000
# 6 0.000000 0.000000 0.000000 0.000000 0.000000 0.030115
#
#
# Mechanical properties :
#
#
# Convention : Reuss Voigt Hill
#
# Bulk Modulus (GPa) = 68.66392 72.69965 70.68178
# Shear Modulus (GPa) = 15.95605 32.43696 24.19650
#
# Velocity S-wave (km/s) = 2.85407 4.06933 3.51463
# Velocity P-wave (km/s) = 6.77604 7.69371 7.24941
#
# Compressibility (1/GPa) = 0.01456369
#
# Stress axis : x y z
#
# Youngs Moduli (GPa) = 125.24922 110.75349 69.77385
#
# Poissons Ratio (x) = 0.14763 0.29638
# Poissons Ratio (y) = 0.16695 0.19607
# Poissons Ratio (z) = 0.53203 0.31122
#
# Static dielectric constant tensor:
#      x y z
#    x 3.399290 0.000000 0.000000 
#    y 0.000000 4.279650 0.000000 
#    z 0.000000 0.000000 3.411970 
# 
# 
# High freq. dielectric constant tensor:
#      x y z
#    x 1.769010 0.000000 0.000000 
#    y 0.000000 1.789970 0.000000 
#    z 0.000000 0.000000 1.748920 
# 
# From -- ./inp_files/59734.got.cif
#   From: 2010.03.12/outbox.cif.g09.slc.cpg/sg63_30_cif.got.tgz:59734.got - 2010.04.10 19:34:48.
