data_PCOD8260642
_publ_section_title
;
Structure prediction by ZEFSAII (Michael W. Deem and Ramdas Pophale) SiO2 
 PCOD8260642
Probable space group: C M C M
;
_chemical_formula_sum "Si O2"
_cell_formula_units_Z 64
_cell_length_a 8.982207
_cell_length_b 9.904087
_cell_length_c 34.869635
_cell_angle_alpha 90.000000
_cell_angle_beta 90.000000
_cell_angle_gamma 90.000000
_cell_volume 3102.022242
_symmetry_space_group_name_H-M "C M C M"
_symmetry_group_IT_number 63
_symmetry_cell_setting 'orthorhombic'
loop_
_space_group_symop_operation_xyz
x,y,z
-x,-y,1/2+z
x,-y,-z
-x,y,1/2-z
-x,-y,-z
x,y,1/2-z
-x,y,z
x,-y,1/2+z
1/2+x,1/2+y,z
1/2-x,1/2-y,1/2+z
1/2+x,1/2-y,-z
1/2-x,1/2+y,1/2-z
1/2-x,1/2-y,-z
1/2+x,1/2+y,1/2-z
1/2-x,1/2+y,z
1/2+x,1/2-y,1/2+z
loop_
_atom_site_type_symbol
_atom_site_label
_atom_site_fract_x
_atom_site_fract_y
_atom_site_fract_z
Si Si1 0.672005 0.527191 0.083070
Si Si2 0.828900 0.278679 0.293795
Si Si3 0.672256 0.795582 0.038581
Si Si4 0.671164 0.047425 0.162239
O O1 0.500000 0.485197 0.083319
O O2 0.693660 0.682584 0.071222
O O3 0.755602 0.434185 0.052537
O O4 0.737607 0.504618 0.125006
O O5 0.776626 0.263839 0.250000
O O6 0.727632 0.187651 0.320769
O O7 0.806976 0.433640 0.305613
O O8 0.000000 0.233942 0.298942
O O9 0.500000 0.821715 0.029870
O O10 0.750000 0.750000 0.000000
O O11 0.500000 0.063908 0.150197
#
# Coordination Sequence:
#
# PCOD8260642 Si02
#       4
#    16  16  16  16
#     4  11  24  41  61  88 121 156 196 242 293 350
#     4  10  22  40  60  85 119 155 193 241 293 345
#     4  11  24  41  62  89 120 155 197 244 294 350
#     4  11  23  39  61  89 119 154 198 244 291 348
#
# _framework density 20.631703000000002
#
# number of rings (size 3 to 8) (size 9 to 14) (size 15 to 20)
#    0.000    1.250    0.000    5.250    0.000   16.500 
#    0.000    0.000    0.000    0.000    0.000    0.000 
#    0.000    0.000    0.000    0.000    0.000    0.000 
#
# Total GULP energy -397067.257125 kJ/mol
# GULP energy per Si atom -12408.351785 kJ/mol
# Density = 2.058474 g / cm^3
# Si number density = 20.631703 Si / 1000 Ang^3
#
#
#
# Elastic Constant Matrix: (Units=GPa)
#
#
# Indices 1 2 3 4 5 6 
#
# 1 132.1821 40.2876 40.7437 0.0000 0.0000 0.0000
# 2 40.2876 64.7919 -1.0552 0.0000 0.0000 0.0000
# 3 40.7437 -1.0552 93.6963 0.0000 0.0000 0.0000
# 4 0.0000 0.0000 0.0000 39.4880 0.0000 0.0000
# 5 0.0000 0.0000 0.0000 0.0000 39.6932 0.0000
# 6 0.0000 0.0000 0.0000 0.0000 0.0000 38.0171
#
#
#
# Elastic Compliance Matrix: (Units=1/GPa)
#
#
# Indices 1 2 3 4 5 6 
#
# 1 0.011257 -0.007080 -0.004975 0.000000 0.000000 0.000000
# 2 -0.007080 0.019890 0.003303 0.000000 0.000000 0.000000
# 3 -0.004975 0.003303 0.012873 0.000000 0.000000 0.000000
# 4 0.000000 0.000000 0.000000 0.025324 0.000000 0.000000
# 5 0.000000 0.000000 0.000000 0.000000 0.025193 0.000000
# 6 0.000000 0.000000 0.000000 0.000000 0.000000 0.026304
#
#
# Mechanical properties :
#
#
# Convention : Reuss Voigt Hill
#
# Bulk Modulus (GPa) = 37.71321 50.06919 43.89120
# Shear Modulus (GPa) = 33.97086 37.48594 35.72840
#
# Velocity S-wave (km/s) = 4.06216 4.26715 4.16591
# Velocity P-wave (km/s) = 6.34984 6.97129 6.66780
#
# Compressibility (1/GPa) = 0.02651591
#
# Stress axis : x y z
#
# Youngs Moduli (GPa) = 88.83537 50.27539 77.68053
#
# Poissons Ratio (x) = 0.35597 0.38644
# Poissons Ratio (y) = 0.62900 -0.25657
# Poissons Ratio (z) = 0.44193 -0.16606
#
# Static dielectric constant tensor:
#      x y z
#    x 3.876480 0.000000 0.000000 
#    y 0.000000 3.897620 0.000000 
#    z 0.000000 0.000000 4.376400 
# 
# 
# High freq. dielectric constant tensor:
#      x y z
#    x 1.817710 0.000000 0.000000 
#    y 0.000000 1.815650 0.000000 
#    z 0.000000 0.000000 1.819380 
# 
# From -- ./inp_files/71335.got.cif
#   From: 2010.03.12/outbox.cif.g09.slc.cpg/sg63_36_cif.got.tgz:71335.got - 2010.04.10 19:34:48.
