data_PCOD8260886
_publ_section_title
;
Structure prediction by ZEFSAII (Michael W. Deem and Ramdas Pophale) SiO2 
 PCOD8260886
Probable space group: C M C M
;
_chemical_formula_sum "Si O2"
_cell_formula_units_Z 52
_cell_length_a 16.755674
_cell_length_b 9.646559
_cell_length_c 15.293426
_cell_angle_alpha 90.000000
_cell_angle_beta 90.000000
_cell_angle_gamma 90.000000
_cell_volume 2471.946761
_symmetry_space_group_name_H-M "C M C M"
_symmetry_group_IT_number 63
_symmetry_cell_setting 'orthorhombic'
loop_
_space_group_symop_operation_xyz
x,y,z
-x,-y,1/2+z
x,-y,-z
-x,y,1/2-z
-x,-y,-z
x,y,1/2-z
-x,y,z
x,-y,1/2+z
1/2+x,1/2+y,z
1/2-x,1/2-y,1/2+z
1/2+x,1/2-y,-z
1/2-x,1/2+y,1/2-z
1/2-x,1/2-y,-z
1/2+x,1/2+y,1/2-z
1/2-x,1/2+y,z
1/2+x,1/2-y,1/2+z
loop_
_atom_site_type_symbol
_atom_site_label
_atom_site_fract_x
_atom_site_fract_y
_atom_site_fract_z
Si Si1 0.697042 0.029702 0.402682
Si Si2 0.000000 0.938297 0.095645
Si Si3 0.000000 0.154490 0.250000
Si Si4 0.334058 0.333038 0.353777
Si Si5 0.911822 0.420081 0.250000
O O1 0.706914 0.193192 0.387959
O O2 0.665738 0.000000 0.500000
O O3 0.783776 0.962881 0.388652
O O4 0.633640 0.965588 0.336412
O O5 0.923172 0.841734 0.108886
O O6 0.000000 0.063370 0.163811
O O7 0.000000 0.000000 0.000000
O O8 0.079042 0.252399 0.250000
O O9 0.336188 0.334184 0.250000
O O10 0.000000 0.490349 0.250000
#
# Coordination Sequence:
#
# PCOD8260886 Si02
#       5
#    16   8   4  16   8
#     4  12  27  45  74 104 143 183 237 287 351 413
#     4  12  28  45  72 106 144 182 236 290 352 411
#     4  10  26  44  68  98 148 186 224 284 356 408
#     4  12  25  46  72 102 144 187 231 289 349 416
#     4  10  26  42  72 102 144 184 230 284 352 410
#
# _framework density 21.036052999999999
#
# number of rings (size 3 to 8) (size 9 to 14) (size 15 to 20)
#    0.462    0.000    4.615    1.846   10.769    0.615 
#    0.000    0.000    0.000    0.000    0.000    0.000 
#    0.000    0.000    0.000    0.000    0.000    0.000 
#
# Total GULP energy -322544.561053 kJ/mol
# GULP energy per Si atom -12405.560040 kJ/mol
# Density = 2.098817 g / cm^3
# Si number density = 21.036053 Si / 1000 Ang^3
#
#
#
# Elastic Constant Matrix: (Units=GPa)
#
#
# Indices 1 2 3 4 5 6 
#
# 1 145.0372 62.7617 40.3400 0.0000 0.0000 0.0000
# 2 62.7617 151.2077 46.5291 0.0000 0.0000 0.0000
# 3 40.3400 46.5291 187.3156 0.0000 0.0000 0.0000
# 4 0.0000 0.0000 0.0000 39.0681 0.0000 0.0000
# 5 0.0000 0.0000 0.0000 0.0000 2.7374 0.0000
# 6 0.0000 0.0000 0.0000 0.0000 0.0000 37.0596
#
#
#
# Elastic Compliance Matrix: (Units=1/GPa)
#
#
# Indices 1 2 3 4 5 6 
#
# 1 0.008589 -0.003244 -0.001044 0.000000 0.000000 0.000000
# 2 -0.003244 0.008386 -0.001384 0.000000 0.000000 0.000000
# 3 -0.001044 -0.001384 0.005907 0.000000 0.000000 0.000000
# 4 0.000000 0.000000 0.000000 0.025596 0.000000 0.000000
# 5 0.000000 0.000000 0.000000 0.000000 0.365311 0.000000
# 6 0.000000 0.000000 0.000000 0.000000 0.000000 0.026984
#
#
# Mechanical properties :
#
#
# Convention : Reuss Voigt Hill
#
# Bulk Modulus (GPa) = 86.67256 86.98023 86.82640
# Shear Modulus (GPa) = 10.96581 38.03501 24.50041
#
# Velocity S-wave (km/s) = 2.28565 4.25677 3.41645
# Velocity P-wave (km/s) = 6.94672 8.09927 7.54503
#
# Compressibility (1/GPa) = 0.01153768
#
# Stress axis : x y z
#
# Youngs Moduli (GPa) = 116.43093 119.24912 169.28188
#
# Poissons Ratio (x) = 0.38681 0.17672
# Poissons Ratio (y) = 0.37767 0.23437
# Poissons Ratio (z) = 0.12155 0.16510
#
# Static dielectric constant tensor:
#      x y z
#    x 4.714150 0.000000 0.000000 
#    y 0.000000 3.783360 0.000000 
#    z 0.000000 0.000000 3.992190 
# 
# 
# High freq. dielectric constant tensor:
#      x y z
#    x 1.828830 0.000000 0.000000 
#    y 0.000000 1.832720 0.000000 
#    z 0.000000 0.000000 1.842750 
# 
# From -- ./inp_files/44918.got.cif
#   From: 2010.03.12/outbox.cif.g09.slc.cpg/sg63_23_cif.got.tgz:44918.got - 2010.04.10 19:34:48.
