data_PCOD8260674
_publ_section_title
;
Structure prediction by ZEFSAII (Michael W. Deem and Ramdas Pophale) SiO2 
 PCOD8260674
Probable space group: C M C M
;
_chemical_formula_sum "Si O2"
_cell_formula_units_Z 72
_cell_length_a 17.180693
_cell_length_b 16.166042
_cell_length_c 13.100289
_cell_angle_alpha 90.000000
_cell_angle_beta 90.000000
_cell_angle_gamma 90.000000
_cell_volume 3638.524109
_symmetry_space_group_name_H-M "C M C M"
_symmetry_group_IT_number 63
_symmetry_cell_setting 'orthorhombic'
loop_
_space_group_symop_operation_xyz
x,y,z
-x,-y,1/2+z
x,-y,-z
-x,y,1/2-z
-x,-y,-z
x,y,1/2-z
-x,y,z
x,-y,1/2+z
1/2+x,1/2+y,z
1/2-x,1/2-y,1/2+z
1/2+x,1/2-y,-z
1/2-x,1/2+y,1/2-z
1/2-x,1/2-y,-z
1/2+x,1/2+y,1/2-z
1/2-x,1/2+y,z
1/2+x,1/2-y,1/2+z
loop_
_atom_site_type_symbol
_atom_site_label
_atom_site_fract_x
_atom_site_fract_y
_atom_site_fract_z
Si Si1 0.171004 0.500000 0.500000
Si Si2 0.589369 0.401511 0.869650
Si Si3 0.091107 0.632341 0.364501
Si Si4 0.164286 0.783434 0.024081
Si Si5 0.695709 0.557043 0.867596
O O1 0.119076 0.550600 0.421538
O O2 0.225283 0.440789 0.432577
O O3 0.594698 0.385812 0.750000
O O4 0.500000 0.414530 0.904175
O O5 0.638465 0.482632 0.901987
O O6 0.626511 0.320305 0.921160
O O7 0.128202 0.637074 0.250000
O O8 0.112550 0.710231 0.432844
O O9 0.000000 0.627147 0.353981
O O10 0.157725 0.854280 0.110635
O O11 0.250000 0.750000 0.000000
O O12 0.716864 0.547750 0.750000
#
# Coordination Sequence:
#
# PCOD8260674 Si02
#       5
#     8  16  16  16  16
#     4  12  21  44  63  88 120 162 206 260 303 364
#     4  10  22  40  63  94 131 167 205 252 307 368
#     4  11  25  43  64  91 123 160 205 257 310 366
#     4  12  22  40  62  92 128 164 204 253 306 367
#     4  11  22  38  63  93 123 163 208 251 304 365
#
# _framework density 19.788242
#
# number of rings (size 3 to 8) (size 9 to 14) (size 15 to 20)
#    0.000    0.889    4.444    2.333    0.000    6.222 
#    0.000    2.222    0.000    4.000    0.000    0.000 
#    0.000    0.000    0.000    0.000    0.000    0.000 
#
# Total GULP energy -446446.097528 kJ/mol
# GULP energy per Si atom -12401.280487 kJ/mol
# Density = 1.974320 g / cm^3
# Si number density = 19.788242 Si / 1000 Ang^3
#
#
#
# Elastic Constant Matrix: (Units=GPa)
#
#
# Indices 1 2 3 4 5 6 
#
# 1 102.4930 36.9162 44.4870 0.0000 0.0000 0.0000
# 2 36.9162 102.3241 37.9259 0.0000 0.0000 0.0000
# 3 44.4870 37.9259 100.9893 0.0000 0.0000 0.0000
# 4 0.0000 0.0000 0.0000 32.6768 0.0000 0.0000
# 5 0.0000 0.0000 0.0000 0.0000 31.0061 0.0000
# 6 0.0000 0.0000 0.0000 0.0000 0.0000 34.6327
#
#
#
# Elastic Compliance Matrix: (Units=1/GPa)
#
#
# Indices 1 2 3 4 5 6 
#
# 1 0.012778 -0.002932 -0.004528 0.000000 0.000000 0.000000
# 2 -0.002932 0.012026 -0.003225 0.000000 0.000000 0.000000
# 3 -0.004528 -0.003225 0.013108 0.000000 0.000000 0.000000
# 4 0.000000 0.000000 0.000000 0.030603 0.000000 0.000000
# 5 0.000000 0.000000 0.000000 0.000000 0.032252 0.000000
# 6 0.000000 0.000000 0.000000 0.000000 0.000000 0.028874
#
#
# Mechanical properties :
#
#
# Convention : Reuss Voigt Hill
#
# Bulk Modulus (GPa) = 60.44949 60.49605 60.47277
# Shear Modulus (GPa) = 31.94408 32.09494 32.01951
#
# Velocity S-wave (km/s) = 4.02219 4.03168 4.02694
# Velocity P-wave (km/s) = 7.22393 7.23261 7.22827
#
# Compressibility (1/GPa) = 0.01654274
#
# Stress axis : x y z
#
# Youngs Moduli (GPa) = 78.25906 83.15438 76.29130
#
# Poissons Ratio (x) = 0.24379 0.34544
# Poissons Ratio (y) = 0.22944 0.24602
# Poissons Ratio (z) = 0.35435 0.26815
#
# Static dielectric constant tensor:
#      x y z
#    x 3.692020 0.000000 0.000000 
#    y 0.000000 3.946140 0.000000 
#    z 0.000000 0.000000 3.777750 
# 
# 
# High freq. dielectric constant tensor:
#      x y z
#    x 1.772400 0.000000 0.000000 
#    y 0.000000 1.774240 0.000000 
#    z 0.000000 0.000000 1.790340 
# 
# From -- ./inp_files/33684.got.cif
#   From: 2010.03.12/outbox.cif.g09.slc.cpg/sg63_17_cif.got.tgz:33684.got - 2010.04.10 19:34:48.
