data_PCOD8260300
_publ_section_title
;
Structure prediction by ZEFSAII (Michael W. Deem and Ramdas Pophale) SiO2 
 PCOD8260300
Probable space group: C M C M
;
_chemical_formula_sum "Si O2"
_cell_formula_units_Z 80
_cell_length_a 11.430171
_cell_length_b 19.381628
_cell_length_c 18.853997
_cell_angle_alpha 90.000000
_cell_angle_beta 90.000000
_cell_angle_gamma 90.000000
_cell_volume 4176.826302
_symmetry_space_group_name_H-M "C M C M"
_symmetry_group_IT_number 63
_symmetry_cell_setting 'orthorhombic'
loop_
_space_group_symop_operation_xyz
x,y,z
-x,-y,1/2+z
x,-y,-z
-x,y,1/2-z
-x,-y,-z
x,y,1/2-z
-x,y,z
x,-y,1/2+z
1/2+x,1/2+y,z
1/2-x,1/2-y,1/2+z
1/2+x,1/2-y,-z
1/2-x,1/2+y,1/2-z
1/2-x,1/2-y,-z
1/2+x,1/2+y,1/2-z
1/2-x,1/2+y,z
1/2+x,1/2-y,1/2+z
loop_
_atom_site_type_symbol
_atom_site_label
_atom_site_fract_x
_atom_site_fract_y
_atom_site_fract_z
Si Si1 0.000000 0.864763 0.833045
Si Si2 0.133878 0.667608 0.168715
Si Si3 0.000000 0.287189 0.333860
Si Si4 0.291497 0.572709 0.087977
Si Si5 0.745243 0.313986 0.332310
Si Si6 0.637150 0.577332 0.567042
O O1 0.000000 0.788867 0.868540
O O2 0.886409 0.906338 0.854568
O O3 0.000000 0.857167 0.750000
O O4 0.150286 0.643410 0.250000
O O5 0.170017 0.605626 0.115570
O O6 0.213012 0.734525 0.153209
O O7 0.000000 0.686959 0.153046
O O8 0.119375 0.326562 0.356300
O O9 0.000000 0.278642 0.250000
O O10 0.285719 0.489708 0.086576
O O11 0.325170 0.602849 0.010898
O O12 0.725742 0.332306 0.250000
O O13 0.660993 0.362629 0.377194
O O14 0.500000 0.557891 0.567234
#
# Coordination Sequence:
#
# PCOD8260300 Si02
#       6
#     8  16   8  16  16  16
#     4  11  18  33  65  89 107 143 197 245 286 338
#     4  10  21  39  61  87 118 149 190 242 287 341
#     4   9  18  36  59  86 116 144 187 246 287 330
#     4  11  21  40  59  85 116 153 193 240 290 339
#     4  10  21  38  60  86 117 152 191 239 294 344
#     4  11  23  40  58  83 122 153 189 245 290 338
#
# _framework density 19.153297999999999
#
# number of rings (size 3 to 8) (size 9 to 14) (size 15 to 20)
#    0.000    1.600    4.000    1.800    0.000    3.600 
#    3.600    1.000    0.000    0.000    0.000    0.000 
#    0.000    0.000    0.000    0.000    0.000    0.000 
#
# Total GULP energy -496003.988605 kJ/mol
# GULP energy per Si atom -12400.099715 kJ/mol
# Density = 1.910970 g / cm^3
# Si number density = 19.153298 Si / 1000 Ang^3
#
#
#
# Elastic Constant Matrix: (Units=GPa)
#
#
# Indices 1 2 3 4 5 6 
#
# 1 98.1876 25.4330 36.4852 0.0000 0.0000 0.0000
# 2 25.4330 72.6446 48.8279 0.0000 0.0000 0.0000
# 3 36.4852 48.8279 85.1841 0.0000 0.0000 0.0000
# 4 0.0000 0.0000 0.0000 31.6952 0.0000 0.0000
# 5 0.0000 0.0000 0.0000 0.0000 31.6705 0.0000
# 6 0.0000 0.0000 0.0000 0.0000 0.0000 33.6738
#
#
#
# Elastic Compliance Matrix: (Units=1/GPa)
#
#
# Indices 1 2 3 4 5 6 
#
# 1 0.012180 -0.001233 -0.004510 0.000000 0.000000 0.000000
# 2 -0.001233 0.022518 -0.012379 0.000000 0.000000 0.000000
# 3 -0.004510 -0.012379 0.020767 0.000000 0.000000 0.000000
# 4 0.000000 0.000000 0.000000 0.031551 0.000000 0.000000
# 5 0.000000 0.000000 0.000000 0.000000 0.031575 0.000000
# 6 0.000000 0.000000 0.000000 0.000000 0.000000 0.029697
#
#
# Mechanical properties :
#
#
# Convention : Reuss Voigt Hill
#
# Bulk Modulus (GPa) = 52.02854 53.05650 52.54252
# Shear Modulus (GPa) = 26.18643 29.09257 27.63950
#
# Velocity S-wave (km/s) = 3.70158 3.90158 3.80289
# Velocity P-wave (km/s) = 6.74479 6.93235 6.83921
#
# Compressibility (1/GPa) = 0.01922022
#
# Stress axis : x y z
#
# Youngs Moduli (GPa) = 82.10318 44.40882 48.15327
#
# Poissons Ratio (x) = 0.05474 0.21718
# Poissons Ratio (y) = 0.10121 0.59611
# Poissons Ratio (z) = 0.37030 0.54976
#
# Static dielectric constant tensor:
#      x y z
#    x 3.867120 0.000000 0.000000 
#    y 0.000000 3.329340 0.000000 
#    z 0.000000 0.000000 3.455110 
# 
# 
# High freq. dielectric constant tensor:
#      x y z
#    x 1.748440 0.000000 0.000000 
#    y 0.000000 1.731070 0.000000 
#    z 0.000000 0.000000 1.737950 
# 
# From -- ./inp_files/42160.got.cif
#   From: 2010.03.12/outbox.cif.g09.slc.cpg/sg63_22_cif.got.tgz:42160.got - 2010.04.10 19:34:48.
