data_PCOD8260063
_publ_section_title
;
Structure prediction by ZEFSAII (Michael W. Deem and Ramdas Pophale) SiO2 
 PCOD8260063
Probable space group: C M C M
;
_chemical_formula_sum "Si O2"
_cell_formula_units_Z 80
_cell_length_a 25.292025
_cell_length_b 9.383342
_cell_length_c 17.172024
_cell_angle_alpha 90.000000
_cell_angle_beta 90.000000
_cell_angle_gamma 90.000000
_cell_volume 4075.328623
_symmetry_space_group_name_H-M "C M C M"
_symmetry_group_IT_number 63
_symmetry_cell_setting 'orthorhombic'
loop_
_space_group_symop_operation_xyz
x,y,z
-x,-y,1/2+z
x,-y,-z
-x,y,1/2-z
-x,-y,-z
x,y,1/2-z
-x,y,z
x,-y,1/2+z
1/2+x,1/2+y,z
1/2-x,1/2-y,1/2+z
1/2+x,1/2-y,-z
1/2-x,1/2+y,1/2-z
1/2-x,1/2-y,-z
1/2+x,1/2+y,1/2-z
1/2-x,1/2+y,z
1/2+x,1/2-y,1/2+z
loop_
_atom_site_type_symbol
_atom_site_label
_atom_site_fract_x
_atom_site_fract_y
_atom_site_fract_z
Si Si1 0.290748 0.768231 0.338897
Si Si2 0.902367 0.938694 0.158244
Si Si3 0.911716 0.266062 0.160747
Si Si4 0.500000 0.741503 0.658912
Si Si5 0.500000 0.953131 0.411393
Si Si6 0.706603 0.465139 0.090039
O O1 0.273414 0.794570 0.250000
O O2 0.351365 0.814785 0.351962
O O3 0.283562 0.602525 0.357047
O O4 0.254395 0.856978 0.396770
O O5 0.892779 0.921155 0.250000
O O6 0.918578 0.100650 0.138148
O O7 0.848755 0.893080 0.114590
O O8 0.947670 0.834449 0.124887
O O9 0.929295 0.290094 0.250000
O O10 0.948015 0.360443 0.105078
O O11 0.500000 0.713467 0.750000
O O12 0.500000 0.907998 0.642269
O O13 0.500000 0.000000 0.500000
O O14 0.704364 0.500000 0.000000
#
# Coordination Sequence:
#
# PCOD8260063 Si02
#       6
#    16  16  16   8   8  16
#     4  10  21  38  59  82 109 149 195 232 271 331
#     4   9  19  38  62  84 106 142 190 232 273 331
#     4   9  19  38  60  77 103 146 189 224 269 332
#     4  10  21  36  57  84 109 138 187 240 274 312
#     4  12  25  36  52  82 118 148 177 222 282 336
#     4  11  22  36  57  87 119 148 181 231 287 334
#
# _framework density 19.630317000000002
#
# number of rings (size 3 to 8) (size 9 to 14) (size 15 to 20)
#    0.000    2.000    0.000    5.100    0.000    7.200 
#    0.000    3.500    0.000    0.000    0.000    0.000 
#    0.000    0.000    0.000    0.000    0.000    0.000 
#
# Total GULP energy -496159.297370 kJ/mol
# GULP energy per Si atom -12403.982434 kJ/mol
# Density = 1.958564 g / cm^3
# Si number density = 19.630317 Si / 1000 Ang^3
#
#
#
# Elastic Constant Matrix: (Units=GPa)
#
#
# Indices 1 2 3 4 5 6 
#
# 1 114.9879 46.4013 20.5297 0.0000 0.0000 0.0000
# 2 46.4013 64.1533 1.2305 0.0000 0.0000 0.0000
# 3 20.5297 1.2305 48.6511 0.0000 0.0000 0.0000
# 4 0.0000 0.0000 0.0000 18.4769 0.0000 0.0000
# 5 0.0000 0.0000 0.0000 0.0000 24.3269 0.0000
# 6 0.0000 0.0000 0.0000 0.0000 0.0000 29.4232
#
#
#
# Elastic Compliance Matrix: (Units=1/GPa)
#
#
# Indices 1 2 3 4 5 6 
#
# 1 0.013607 -0.009736 -0.005495 0.000000 0.000000 0.000000
# 2 -0.009736 0.022562 0.003538 0.000000 0.000000 0.000000
# 3 -0.005495 0.003538 0.022784 0.000000 0.000000 0.000000
# 4 0.000000 0.000000 0.000000 0.054122 0.000000 0.000000
# 5 0.000000 0.000000 0.000000 0.000000 0.041107 0.000000
# 6 0.000000 0.000000 0.000000 0.000000 0.000000 0.033987
#
#
# Mechanical properties :
#
#
# Convention : Reuss Voigt Hill
#
# Bulk Modulus (GPa) = 28.11761 40.45726 34.28744
# Shear Modulus (GPa) = 22.38040 25.08745 23.73393
#
# Velocity S-wave (km/s) = 3.38019 3.57878 3.48090
# Velocity P-wave (km/s) = 5.43957 6.14258 5.80173
#
# Compressibility (1/GPa) = 0.03556490
#
# Stress axis : x y z
#
# Youngs Moduli (GPa) = 73.49428 44.32280 43.89050
#
# Poissons Ratio (x) = 0.43153 0.24120
# Poissons Ratio (y) = 0.71554 -0.15527
# Poissons Ratio (z) = 0.40388 -0.15680
#
# Static dielectric constant tensor:
#      x y z
#    x 3.765750 0.000000 0.000000 
#    y 0.000000 3.565970 0.000000 
#    z 0.000000 0.000000 3.409670 
# 
# 
# High freq. dielectric constant tensor:
#      x y z
#    x 1.777520 0.000000 0.000000 
#    y 0.000000 1.758860 0.000000 
#    z 0.000000 0.000000 1.756500 
# 
# From -- ./inp_files/48869.got.cif
#   From: 2010.03.12/outbox.cif.g09.slc.cpg/sg63_25_cif.got.tgz:48869.got - 2010.04.10 19:34:48.
