data_PCOD8260439
_publ_section_title
;
Structure prediction by ZEFSAII (Michael W. Deem and Ramdas Pophale) SiO2 
 PCOD8260439
Probable space group: C M C M
;
_chemical_formula_sum "Si O2"
_cell_formula_units_Z 96
_cell_length_a 8.554446
_cell_length_b 19.201886
_cell_length_c 27.784836
_cell_angle_alpha 90.000000
_cell_angle_beta 90.000000
_cell_angle_gamma 90.000000
_cell_volume 4563.978752
_symmetry_space_group_name_H-M "C M C M"
_symmetry_group_IT_number 63
_symmetry_cell_setting 'orthorhombic'
loop_
_space_group_symop_operation_xyz
x,y,z
-x,-y,1/2+z
x,-y,-z
-x,y,1/2-z
-x,-y,-z
x,y,1/2-z
-x,y,z
x,-y,1/2+z
1/2+x,1/2+y,z
1/2-x,1/2-y,1/2+z
1/2+x,1/2-y,-z
1/2-x,1/2+y,1/2-z
1/2-x,1/2-y,-z
1/2+x,1/2+y,1/2-z
1/2-x,1/2+y,z
1/2+x,1/2-y,1/2+z
loop_
_atom_site_type_symbol
_atom_site_label
_atom_site_fract_x
_atom_site_fract_y
_atom_site_fract_z
Si Si1 0.319372 0.262213 0.356248
Si Si2 0.322722 0.984713 0.635850
Si Si3 0.682385 0.550818 0.957100
Si Si4 0.684743 0.205169 0.956561
Si Si5 0.317139 0.363909 0.804673
Si Si6 0.322084 0.883497 0.195433
O O1 0.500000 0.241207 0.354678
O O2 0.257651 0.257445 0.410254
O O3 0.220714 0.214741 0.319783
O O4 0.294940 0.340915 0.338326
O O5 0.500000 0.979131 0.616892
O O6 0.269060 0.910735 0.655891
O O7 0.216051 0.010619 0.592281
O O8 0.308352 0.036357 0.680850
O O9 0.500000 0.568161 0.960604
O O10 0.772925 0.623773 0.960629
O O11 0.736705 0.500000 0.000000
O O12 0.500000 0.211672 0.953971
O O13 0.750000 0.250000 0.000000
O O14 0.257151 0.376525 0.750000
O O15 0.500000 0.378281 0.807521
O O16 0.266573 0.876177 0.250000
O O17 0.500000 0.856951 0.188253
#
# Coordination Sequence:
#
# PCOD8260439 Si02
#       6
#    16  16  16  16  16  16
#     4  12  25  42  66  96 131 171 219 271 326 390
#     4  11  23  41  67  97 132 173 219 272 326 390
#     4  11  25  45  69  99 135 173 217 269 326 391
#     4  12  26  46  71  99 133 171 218 270 328 393
#     4  11  25  44  66  94 133 179 225 274 328 387
#     4  10  21  39  64  94 129 169 211 262 325 387
#
# _framework density 21.034279000000002
#
# number of rings (size 3 to 8) (size 9 to 14) (size 15 to 20)
#    0.000    0.833    1.667    5.500    2.333    6.333 
#    0.000    0.000    0.000    0.000    0.000    0.000 
#    0.000    0.000    0.000    0.000    0.000    0.000 
#
# Total GULP energy -595473.470898 kJ/mol
# GULP energy per Si atom -12405.697310 kJ/mol
# Density = 2.098640 g / cm^3
# Si number density = 21.034279 Si / 1000 Ang^3
#
#
#
# Elastic Constant Matrix: (Units=GPa)
#
#
# Indices 1 2 3 4 5 6 
#
# 1 66.6526 16.9085 33.3601 0.0000 0.0000 0.0000
# 2 16.9085 77.2787 25.4357 0.0000 0.0000 0.0000
# 3 33.3601 25.4357 130.9334 0.0000 0.0000 0.0000
# 4 0.0000 0.0000 0.0000 43.7322 0.0000 0.0000
# 5 0.0000 0.0000 0.0000 0.0000 33.1224 0.0000
# 6 0.0000 0.0000 0.0000 0.0000 0.0000 37.1409
#
#
#
# Elastic Compliance Matrix: (Units=1/GPa)
#
#
# Indices 1 2 3 4 5 6 
#
# 1 0.017652 -0.002545 -0.004003 0.000000 0.000000 0.000000
# 2 -0.002545 0.014191 -0.002108 0.000000 0.000000 0.000000
# 3 -0.004003 -0.002108 0.009067 0.000000 0.000000 0.000000
# 4 0.000000 0.000000 0.000000 0.022866 0.000000 0.000000
# 5 0.000000 0.000000 0.000000 0.000000 0.030191 0.000000
# 6 0.000000 0.000000 0.000000 0.000000 0.000000 0.026924
#
#
# Mechanical properties :
#
#
# Convention : Reuss Voigt Hill
#
# Bulk Modulus (GPa) = 42.37722 47.36372 44.87047
# Shear Modulus (GPa) = 34.22995 36.07646 35.15320
#
# Velocity S-wave (km/s) = 4.03841 4.14590 4.09251
# Velocity P-wave (km/s) = 6.47576 6.74420 6.61134
#
# Compressibility (1/GPa) = 0.02359759
#
# Stress axis : x y z
#
# Youngs Moduli (GPa) = 56.64965 70.46757 110.28954
#
# Poissons Ratio (x) = 0.17932 0.44152
# Poissons Ratio (y) = 0.14415 0.23254
# Poissons Ratio (z) = 0.22678 0.14858
#
# Static dielectric constant tensor:
#      x y z
#    x 3.801930 0.000000 0.000000 
#    y 0.000000 3.786800 0.000000 
#    z 0.000000 0.000000 3.937910 
# 
# 
# High freq. dielectric constant tensor:
#      x y z
#    x 1.829950 0.000000 0.000000 
#    y 0.000000 1.831750 0.000000 
#    z 0.000000 0.000000 1.837860 
# 
# From -- ./inp_files/66966.got.cif
#   From: 2010.03.12/outbox.cif.g09.slc.cpg/sg63_34_cif.got.tgz:66966.got - 2010.04.10 19:34:48.
