data_PCOD8260817
_publ_section_title
;
Structure prediction by ZEFSAII (Michael W. Deem and Ramdas Pophale) SiO2 
 PCOD8260817
Probable space group: C M C M
;
_chemical_formula_sum "Si O2"
_cell_formula_units_Z 64
_cell_length_a 23.063362
_cell_length_b 7.729802
_cell_length_c 16.502067
_cell_angle_alpha 90.000000
_cell_angle_beta 90.000000
_cell_angle_gamma 90.000000
_cell_volume 2941.909653
_symmetry_space_group_name_H-M "C M C M"
_symmetry_group_IT_number 63
_symmetry_cell_setting 'orthorhombic'
loop_
_space_group_symop_operation_xyz
x,y,z
-x,-y,1/2+z
x,-y,-z
-x,y,1/2-z
-x,-y,-z
x,y,1/2-z
-x,y,z
x,-y,1/2+z
1/2+x,1/2+y,z
1/2-x,1/2-y,1/2+z
1/2+x,1/2-y,-z
1/2-x,1/2+y,1/2-z
1/2-x,1/2-y,-z
1/2+x,1/2+y,1/2-z
1/2-x,1/2+y,z
1/2+x,1/2-y,1/2+z
loop_
_atom_site_type_symbol
_atom_site_label
_atom_site_fract_x
_atom_site_fract_y
_atom_site_fract_z
Si Si1 0.434053 0.094598 0.843408
Si Si2 0.863094 0.834092 0.947555
Si Si3 0.167340 0.625720 0.401236
Si Si4 0.275351 0.467418 0.343257
O O1 0.425931 0.145318 0.750000
O O2 0.500000 0.042665 0.862881
O O3 0.417293 0.262309 0.896715
O O4 0.394802 0.928970 0.865510
O O5 0.812159 0.883022 0.886379
O O6 0.839856 0.678731 0.004898
O O7 0.883362 0.000000 0.000000
O O8 0.212528 0.467122 0.388075
O O9 0.192786 0.785025 0.350047
O O10 0.267701 0.518988 0.250000
#
# Coordination Sequence:
#
# PCOD8260817 Si02
#       4
#    16  16  16  16
#     4  11  24  43  65  88 118 159 205 249 297 357
#     4  10  23  40  62  92 125 157 197 248 304 363
#     4  11  23  39  61  92 125 161 202 249 303 357
#     4  11  21  37  62  92 127 161 200 250 304 359
#
# _framework density 21.754576
#
# number of rings (size 3 to 8) (size 9 to 14) (size 15 to 20)
#    0.000    1.250    0.000    6.000    0.000    6.500 
#    0.000    3.750    0.000   13.500    0.000    0.000 
#    0.000    0.000    0.000    0.000    0.000    0.000 
#
# Total GULP energy -396920.780802 kJ/mol
# GULP energy per Si atom -12403.774400 kJ/mol
# Density = 2.170506 g / cm^3
# Si number density = 21.754576 Si / 1000 Ang^3
#
#
#
# Elastic Constant Matrix: (Units=GPa)
#
#
# Indices 1 2 3 4 5 6 
#
# 1 177.6027 65.3035 79.9255 0.0000 0.0000 0.0000
# 2 65.3035 97.3837 46.2406 0.0000 0.0000 0.0000
# 3 79.9255 46.2406 155.1280 0.0000 0.0000 0.0000
# 4 0.0000 0.0000 0.0000 32.4317 0.0000 0.0000
# 5 0.0000 0.0000 0.0000 0.0000 29.2177 0.0000
# 6 0.0000 0.0000 0.0000 0.0000 0.0000 33.0576
#
#
#
# Elastic Compliance Matrix: (Units=1/GPa)
#
#
# Indices 1 2 3 4 5 6 
#
# 1 0.008632 -0.004283 -0.003171 0.000000 0.000000 0.000000
# 2 -0.004283 0.014087 -0.001992 0.000000 0.000000 0.000000
# 3 -0.003171 -0.001992 0.008674 0.000000 0.000000 0.000000
# 4 0.000000 0.000000 0.000000 0.030834 0.000000 0.000000
# 5 0.000000 0.000000 0.000000 0.000000 0.034226 0.000000
# 6 0.000000 0.000000 0.000000 0.000000 0.000000 0.030250
#
#
# Mechanical properties :
#
#
# Convention : Reuss Voigt Hill
#
# Bulk Modulus (GPa) = 79.99631 90.33927 85.16779
# Shear Modulus (GPa) = 33.38621 34.85106 34.11863
#
# Velocity S-wave (km/s) = 3.92174 4.00685 3.96453
# Velocity P-wave (km/s) = 7.57356 7.93872 7.75829
#
# Compressibility (1/GPa) = 0.01250058
#
# Stress axis : x y z
#
# Youngs Moduli (GPa) = 115.84282 70.98857 115.28886
#
# Poissons Ratio (x) = 0.30405 0.36557
# Poissons Ratio (y) = 0.49616 0.22968
# Poissons Ratio (z) = 0.36733 0.14143
#
# Static dielectric constant tensor:
#      x y z
#    x 3.828210 0.000000 0.000000 
#    y 0.000000 4.017480 0.000000 
#    z 0.000000 0.000000 4.065790 
# 
# 
# High freq. dielectric constant tensor:
#      x y z
#    x 1.839020 0.000000 0.000000 
#    y 0.000000 1.866270 0.000000 
#    z 0.000000 0.000000 1.877090 
# 
# From -- ./inp_files/36177.got.cif
#   From: 2010.03.12/outbox.cif.g09.slc.cpg/sg63_19_cif.got.tgz:36177.got - 2010.04.10 19:34:48.
