data_PCOD8260258
_publ_section_title
;
Structure prediction by ZEFSAII (Michael W. Deem and Ramdas Pophale) SiO2 
 PCOD8260258
Probable space group: C M C M
;
_chemical_formula_sum "Si O2"
_cell_formula_units_Z 88
_cell_length_a 19.662018
_cell_length_b 13.631137
_cell_length_c 16.088289
_cell_angle_alpha 90.000000
_cell_angle_beta 90.000000
_cell_angle_gamma 90.000000
_cell_volume 4311.913412
_symmetry_space_group_name_H-M "C M C M"
_symmetry_group_IT_number 63
_symmetry_cell_setting 'orthorhombic'
loop_
_space_group_symop_operation_xyz
x,y,z
-x,-y,1/2+z
x,-y,-z
-x,y,1/2-z
-x,-y,-z
x,y,1/2-z
-x,y,z
x,-y,1/2+z
1/2+x,1/2+y,z
1/2-x,1/2-y,1/2+z
1/2+x,1/2-y,-z
1/2-x,1/2+y,1/2-z
1/2-x,1/2-y,-z
1/2+x,1/2+y,1/2-z
1/2-x,1/2+y,z
1/2+x,1/2-y,1/2+z
loop_
_atom_site_type_symbol
_atom_site_label
_atom_site_fract_x
_atom_site_fract_y
_atom_site_fract_z
Si Si1 0.423020 0.225505 0.117769
Si Si2 0.131583 0.000000 0.500000
Si Si3 0.925524 0.198338 0.440545
Si Si4 0.924546 0.491001 0.846459
Si Si5 0.684196 0.611657 0.655392
Si Si6 0.834136 0.334246 0.153134
O O1 0.500000 0.240189 0.152491
O O2 0.394700 0.118161 0.141040
O O3 0.375246 0.307959 0.157804
O O4 0.422142 0.230233 0.018956
O O5 0.083877 0.087634 0.470635
O O6 0.174153 0.030966 0.582539
O O7 0.866215 0.232460 0.378994
O O8 0.000000 0.206273 0.397772
O O9 0.930679 0.513223 0.750000
O O10 0.873673 0.571602 0.886433
O O11 0.000000 0.500195 0.887415
O O12 0.688161 0.565955 0.750000
O O13 0.754770 0.663873 0.630629
O O14 0.844796 0.334763 0.250000
#
# Coordination Sequence:
#
# PCOD8260258 Si02
#       6
#    16   8  16  16  16  16
#     4   9  19  35  57  83 108 142 190 240 293 351
#     4  10  23  40  60  84 115 156 204 246 289 346
#     4  10  21  38  58  81 113 149 190 243 292 342
#     4   9  17  31  52  78 108 141 179 226 281 345
#     4  10  22  39  58  84 118 154 196 246 295 349
#     4  10  22  37  55  83 116 150 188 232 290 355
#
# _framework density 20.408573000000001
#
# number of rings (size 3 to 8) (size 9 to 14) (size 15 to 20)
#    0.000    2.364    0.000    1.364    0.000   10.182 
#    0.000    6.364    0.000    0.000    0.000    0.000 
#    0.000    0.000    0.000    0.000    0.000    0.000 
#
# Total GULP energy -545342.321798 kJ/mol
# GULP energy per Si atom -12394.143677 kJ/mol
# Density = 2.036212 g / cm^3
# Si number density = 20.408573 Si / 1000 Ang^3
#
#
#
# Elastic Constant Matrix: (Units=GPa)
#
#
# Indices 1 2 3 4 5 6 
#
# 1 125.6789 45.3541 40.4654 0.0000 0.0000 0.0000
# 2 45.3541 97.9761 27.5945 0.0000 0.0000 0.0000
# 3 40.4654 27.5945 57.2167 0.0000 0.0000 0.0000
# 4 0.0000 0.0000 0.0000 34.3662 0.0000 0.0000
# 5 0.0000 0.0000 0.0000 0.0000 25.2459 0.0000
# 6 0.0000 0.0000 0.0000 0.0000 0.0000 15.9253
#
#
#
# Elastic Compliance Matrix: (Units=1/GPa)
#
#
# Indices 1 2 3 4 5 6 
#
# 1 0.011214 -0.003422 -0.006280 0.000000 0.000000 0.000000
# 2 -0.003422 0.012855 -0.003780 0.000000 0.000000 0.000000
# 3 -0.006280 -0.003780 0.023742 0.000000 0.000000 0.000000
# 4 0.000000 0.000000 0.000000 0.029098 0.000000 0.000000
# 5 0.000000 0.000000 0.000000 0.000000 0.039610 0.000000
# 6 0.000000 0.000000 0.000000 0.000000 0.000000 0.062793
#
#
# Mechanical properties :
#
#
# Convention : Reuss Voigt Hill
#
# Bulk Modulus (GPa) = 47.96895 56.41108 52.19002
# Shear Modulus (GPa) = 23.44930 26.27132 24.86031
#
# Velocity S-wave (km/s) = 3.39336 3.59175 3.49396
# Velocity P-wave (km/s) = 6.23767 6.70088 6.47342
#
# Compressibility (1/GPa) = 0.02084682
#
# Stress axis : x y z
#
# Youngs Moduli (GPa) = 89.17527 77.78934 42.11964
#
# Poissons Ratio (x) = 0.26621 0.26453
# Poissons Ratio (y) = 0.30517 0.15919
# Poissons Ratio (z) = 0.56005 0.29401
#
# Static dielectric constant tensor:
#      x y z
#    x 3.889430 0.000000 0.000000 
#    y 0.000000 3.607940 0.000000 
#    z 0.000000 0.000000 3.657960 
# 
# 
# High freq. dielectric constant tensor:
#      x y z
#    x 1.799220 0.000000 0.000000 
#    y 0.000000 1.790310 0.000000 
#    z 0.000000 0.000000 1.789740 
# 
# From -- ./inp_files/46930.got.cif
#   From: 2010.03.12/outbox.cif.g09.slc.cpg/sg63_24_cif.got.tgz:46930.got - 2010.04.10 19:34:48.
