data_PCOD8260010
_publ_section_title
;
Structure prediction by ZEFSAII (Michael W. Deem and Ramdas Pophale) SiO2 
 PCOD8260010
Probable space group: C M C M
;
_chemical_formula_sum "Si O2"
_cell_formula_units_Z 104
_cell_length_a 22.097448
_cell_length_b 30.073318
_cell_length_c 8.936383
_cell_angle_alpha 90.000000
_cell_angle_beta 90.000000
_cell_angle_gamma 90.000000
_cell_volume 5938.615957
_symmetry_space_group_name_H-M "C M C M"
_symmetry_group_IT_number 63
_symmetry_cell_setting 'orthorhombic'
loop_
_space_group_symop_operation_xyz
x,y,z
-x,-y,1/2+z
x,-y,-z
-x,y,1/2-z
-x,-y,-z
x,y,1/2-z
-x,y,z
x,-y,1/2+z
1/2+x,1/2+y,z
1/2-x,1/2-y,1/2+z
1/2+x,1/2-y,-z
1/2-x,1/2+y,1/2-z
1/2-x,1/2-y,-z
1/2+x,1/2+y,1/2-z
1/2-x,1/2+y,z
1/2+x,1/2-y,1/2+z
loop_
_atom_site_type_symbol
_atom_site_label
_atom_site_fract_x
_atom_site_fract_y
_atom_site_fract_z
Si Si1 0.071995 0.218542 0.584216
Si Si2 0.932095 0.304495 0.075649
Si Si3 0.148354 0.045515 0.076448
Si Si4 0.211027 0.453982 0.574564
Si Si5 0.930555 0.120503 0.572858
Si Si6 0.389075 0.899967 0.072616
Si Si7 0.000000 0.548467 0.070621
O O1 0.098566 0.223711 0.750000
O O2 0.098624 0.259811 0.490179
O O3 0.090119 0.170013 0.519858
O O4 0.000000 0.220720 0.586379
O O5 0.935154 0.297111 0.250000
O O6 0.893134 0.347711 0.034152
O O7 0.000000 0.311600 0.011740
O O8 0.134270 0.040730 0.250000
O O9 0.218616 0.054779 0.044915
O O10 0.111311 0.086098 0.011201
O O11 0.126928 0.000000 0.000000
O O12 0.190002 0.500000 0.500000
O O13 0.195214 0.455174 0.750000
O O14 0.175654 0.414882 0.490205
O O15 0.922266 0.115871 0.750000
O O16 0.000000 0.111450 0.527942
O O17 0.395281 0.908631 0.250000
O O18 0.440882 0.926209 0.985757
O O19 0.000000 0.545637 0.250000
O O20 0.000000 0.500000 0.000000
#
# Coordination Sequence:
#
# PCOD8260010 Si02
#       7
#    16  16  16  16  16  16   8
#     4   8  15  28  47  72 101 133 166 201 244 298
#     4   9  17  30  47  70 101 132 164 206 253 301
#     4  10  21  36  55  77 103 134 171 211 249 299
#     4  10  21  37  54  74  97 129 173 214 254 303
#     4   9  18  33  53  79 110 138 166 203 249 301
#     4  11  21  35  52  73 102 133 169 214 260 308
#     4  12  24  36  50  70 100 136 170 212 265 312
#
# _framework density 17.512498000000001
#
# number of rings (size 3 to 8) (size 9 to 14) (size 15 to 20)
#    0.000    2.308    0.769    3.462    0.000    4.308 
#    0.000    1.538    0.000    0.923    0.000    0.000 
#    0.000    0.000    0.000    0.000    0.000    0.000 
#
# Total GULP energy -644697.512220 kJ/mol
# GULP energy per Si atom -12398.029081 kJ/mol
# Density = 1.747264 g / cm^3
# Si number density = 17.512498 Si / 1000 Ang^3
#
#
#
# Elastic Constant Matrix: (Units=GPa)
#
#
# Indices 1 2 3 4 5 6 
#
# 1 57.5523 64.1530 41.7477 0.0000 0.0000 0.0000
# 2 64.1530 181.6300 78.9672 0.0000 0.0000 0.0000
# 3 41.7477 78.9672 92.5128 0.0000 0.0000 0.0000
# 4 0.0000 0.0000 0.0000 36.8192 0.0000 0.0000
# 5 0.0000 0.0000 0.0000 0.0000 27.2493 0.0000
# 6 0.0000 0.0000 0.0000 0.0000 0.0000 12.1858
#
#
#
# Elastic Compliance Matrix: (Units=1/GPa)
#
#
# Indices 1 2 3 4 5 6 
#
# 1 0.031652 -0.007902 -0.007538 0.000000 0.000000 0.000000
# 2 -0.007902 0.010728 -0.005591 0.000000 0.000000 0.000000
# 3 -0.007538 -0.005591 0.018983 0.000000 0.000000 0.000000
# 4 0.000000 0.000000 0.000000 0.027160 0.000000 0.000000
# 5 0.000000 0.000000 0.000000 0.000000 0.036698 0.000000
# 6 0.000000 0.000000 0.000000 0.000000 0.000000 0.082063
#
#
# Mechanical properties :
#
#
# Convention : Reuss Voigt Hill
#
# Bulk Modulus (GPa) = 51.81255 77.93679 64.87467
# Shear Modulus (GPa) = 19.54800 25.03933 22.29366
#
# Velocity S-wave (km/s) = 3.34463 3.78537 3.57180
# Velocity P-wave (km/s) = 6.67575 7.98157 7.35769
#
# Compressibility (1/GPa) = 0.01930034
#
# Stress axis : x y z
#
# Youngs Moduli (GPa) = 31.59313 93.21737 52.67813
#
# Poissons Ratio (x) = 0.73665 0.39710
# Poissons Ratio (y) = 0.24966 0.29451
# Poissons Ratio (z) = 0.23816 0.52116
#
# Static dielectric constant tensor:
#      x y z
#    x 2.977370 0.000000 0.000000 
#    y 0.000000 3.338440 0.000000 
#    z 0.000000 0.000000 2.535900 
# 
# 
# High freq. dielectric constant tensor:
#      x y z
#    x 1.643540 0.000000 0.000000 
#    y 0.000000 1.689930 0.000000 
#    z 0.000000 0.000000 1.683190 
# 
# From -- ./inp_files/9142.got.cif
#   From: 2010.03.12/outbox.cif.g09.slc.cpg/sg63_5_cif.got.tgz:9142.got - 2010.04.10 19:34:48.
