data_PCOD8260849
_publ_section_title
;
Structure prediction by ZEFSAII (Michael W. Deem and Ramdas Pophale) SiO2 
 PCOD8260849
Probable space group: C M C M
;
_chemical_formula_sum "Si O2"
_cell_formula_units_Z 72
_cell_length_a 7.468701
_cell_length_b 18.807064
_cell_length_c 27.312817
_cell_angle_alpha 90.000000
_cell_angle_beta 90.000000
_cell_angle_gamma 90.000000
_cell_volume 3836.476751
_symmetry_space_group_name_H-M "C M C M"
_symmetry_group_IT_number 63
_symmetry_cell_setting 'orthorhombic'
loop_
_space_group_symop_operation_xyz
x,y,z
-x,-y,1/2+z
x,-y,-z
-x,y,1/2-z
-x,-y,-z
x,y,1/2-z
-x,y,z
x,-y,1/2+z
1/2+x,1/2+y,z
1/2-x,1/2-y,1/2+z
1/2+x,1/2-y,-z
1/2-x,1/2+y,1/2-z
1/2-x,1/2-y,-z
1/2+x,1/2+y,1/2-z
1/2-x,1/2+y,z
1/2+x,1/2-y,1/2+z
loop_
_atom_site_type_symbol
_atom_site_label
_atom_site_fract_x
_atom_site_fract_y
_atom_site_fract_z
Si Si1 0.711254 0.084055 0.056130
Si Si2 0.801556 0.379298 0.153308
Si Si3 0.000000 0.883696 0.630335
Si Si4 0.209241 0.578367 0.550431
Si Si5 0.000000 0.744478 0.692454
Si Si6 0.000000 0.975246 0.194329
O O1 0.500000 0.096921 0.065174
O O2 0.822866 0.125915 0.097131
O O3 0.770017 0.001934 0.060952
O O4 0.779534 0.108618 0.001729
O O5 0.728593 0.374401 0.097029
O O6 0.674328 0.426682 0.186553
O O7 0.000000 0.416107 0.152403
O O8 0.822393 0.299725 0.175378
O O9 0.000000 0.821835 0.669824
O O10 0.000000 0.958155 0.658531
O O11 0.000000 0.577716 0.542757
O O12 0.000000 0.753334 0.750000
O O13 0.000000 0.002546 0.250000
#
# Coordination Sequence:
#
# PCOD8260849 Si02
#       6
#    16  16   8  16   8   8
#     4   9  18  32  55  87 123 149 178 230 287 342
#     4   9  20  39  63  81 110 150 193 235 282 340
#     4  12  23  36  56  89 119 151 186 237 290 342
#     4   8  14  31  58  87 114 148 186 229 280 335
#     4  10  23  44  60  74 119 163 186 232 304 343
#     4  12  23  35  61  89 105 137 208 258 270 318
#
# _framework density 18.767218
#
# number of rings (size 3 to 8) (size 9 to 14) (size 15 to 20)
#    0.667    1.778    2.222    2.333    0.000    2.667 
#    2.000    1.111    0.000    1.333    0.000    0.000 
#    0.000    0.000    0.000    0.000    0.000    0.000 
#
# Total GULP energy -445982.784660 kJ/mol
# GULP energy per Si atom -12388.410685 kJ/mol
# Density = 1.872450 g / cm^3
# Si number density = 18.767218 Si / 1000 Ang^3
#
#
#
# Elastic Constant Matrix: (Units=GPa)
#
#
# Indices 1 2 3 4 5 6 
#
# 1 78.9430 23.2730 43.7145 0.0000 0.0000 0.0000
# 2 23.2730 74.3049 50.9950 0.0000 0.0000 0.0000
# 3 43.7145 50.9950 160.6991 0.0000 0.0000 0.0000
# 4 0.0000 0.0000 0.0000 34.9006 0.0000 0.0000
# 5 0.0000 0.0000 0.0000 0.0000 16.5545 0.0000
# 6 0.0000 0.0000 0.0000 0.0000 0.0000 17.4213
#
#
#
# Elastic Compliance Matrix: (Units=1/GPa)
#
#
# Indices 1 2 3 4 5 6 
#
# 1 0.015260 -0.002468 -0.003368 0.000000 0.000000 0.000000
# 2 -0.002468 0.017604 -0.004915 0.000000 0.000000 0.000000
# 3 -0.003368 -0.004915 0.008699 0.000000 0.000000 0.000000
# 4 0.000000 0.000000 0.000000 0.028653 0.000000 0.000000
# 5 0.000000 0.000000 0.000000 0.000000 0.060407 0.000000
# 6 0.000000 0.000000 0.000000 0.000000 0.000000 0.057401
#
#
# Mechanical properties :
#
#
# Convention : Reuss Voigt Hill
#
# Bulk Modulus (GPa) = 49.84865 61.10134 55.47499
# Shear Modulus (GPa) = 23.12540 26.83956 24.98248
#
# Velocity S-wave (km/s) = 3.51411 3.78581 3.65249
# Velocity P-wave (km/s) = 6.56388 7.19291 6.88558
#
# Compressibility (1/GPa) = 0.02006072
#
# Stress axis : x y z
#
# Youngs Moduli (GPa) = 65.53088 56.80445 114.96040
#
# Poissons Ratio (x) = 0.14021 0.38717
# Poissons Ratio (y) = 0.16174 0.56503
# Poissons Ratio (z) = 0.22070 0.27919
#
# Static dielectric constant tensor:
#      x y z
#    x 3.269170 0.000000 0.000000 
#    y 0.000000 3.015660 0.000000 
#    z 0.000000 0.000000 3.759700 
# 
# 
# High freq. dielectric constant tensor:
#      x y z
#    x 1.716450 0.000000 0.000000 
#    y 0.000000 1.676820 0.000000 
#    z 0.000000 0.000000 1.750060 
# 
# From -- ./inp_files/59357.got.cif
#   From: 2010.03.12/outbox.cif.g09.slc.cpg/sg63_30_cif.got.tgz:59357.got - 2010.04.10 19:34:48.
