data_PCOD8260900
_publ_section_title
;
Structure prediction by ZEFSAII (Michael W. Deem and Ramdas Pophale) SiO2 
 PCOD8260900
Probable space group: C M C M
;
_chemical_formula_sum "Si O2"
_cell_formula_units_Z 96
_cell_length_a 16.160100
_cell_length_b 18.360400
_cell_length_c 18.986788
_cell_angle_alpha 90.000000
_cell_angle_beta 90.000000
_cell_angle_gamma 90.000000
_cell_volume 5633.492022
_symmetry_space_group_name_H-M "C M C M"
_symmetry_group_IT_number 63
_symmetry_cell_setting 'orthorhombic'
loop_
_space_group_symop_operation_xyz
x,y,z
-x,-y,1/2+z
x,-y,-z
-x,y,1/2-z
-x,-y,-z
x,y,1/2-z
-x,y,z
x,-y,1/2+z
1/2+x,1/2+y,z
1/2-x,1/2-y,1/2+z
1/2+x,1/2-y,-z
1/2-x,1/2+y,1/2-z
1/2-x,1/2-y,-z
1/2+x,1/2+y,1/2-z
1/2-x,1/2+y,z
1/2+x,1/2-y,1/2+z
loop_
_atom_site_type_symbol
_atom_site_label
_atom_site_fract_x
_atom_site_fract_y
_atom_site_fract_z
Si Si1 0.800920 0.865640 0.422485
Si Si2 0.000000 0.921295 0.666729
Si Si3 0.500000 0.263245 0.671718
Si Si4 0.670974 0.508079 0.165502
Si Si5 0.249403 0.369880 0.918905
Si Si6 0.150869 0.271584 0.098965
Si Si7 0.595846 0.225164 0.057176
O O1 0.784654 0.889611 0.503363
O O2 0.713704 0.837296 0.393803
O O3 0.869779 0.802343 0.414084
O O4 0.825505 0.930123 0.371089
O O5 0.081993 0.962271 0.641367
O O6 0.000000 0.918802 0.750000
O O7 0.000000 0.841003 0.630274
O O8 0.500000 0.289300 0.750000
O O9 0.418516 0.216087 0.657643
O O10 0.682338 0.502309 0.250000
O O11 0.741617 0.560875 0.132760
O O12 0.302923 0.304203 0.887713
O O13 0.153363 0.343023 0.918240
O O14 0.101754 0.271084 0.026202
O O15 0.500000 0.213699 0.080860
#
# Coordination Sequence:
#
# PCOD8260900 Si02
#       7
#    16   8   8  16  16  16  16
#     4   9  20  33  52  79 106 131 166 213 258 307
#     4   9  20  32  46  72 102 136 168 202 250 307
#     4  11  18  28  51  77 104 135 174 212 248 309
#     4  11  21  35  52  72 106 140 168 206 257 310
#     4   9  18  34  53  76 102 135 175 208 246 309
#     4   9  17  32  50  75 106 132 164 211 258 300
#     4   9  17  32  56  78 100 130 169 215 258 295
#
# _framework density 17.040939999999999
#
# number of rings (size 3 to 8) (size 9 to 14) (size 15 to 20)
#    0.000    2.500    2.500    2.500    1.167    0.667 
#    0.000    3.333    1.833    3.500    0.000    0.000 
#    0.000    0.000    0.000    0.000    0.000    0.000 
#
# Total GULP energy -594778.360096 kJ/mol
# GULP energy per Si atom -12391.215835 kJ/mol
# Density = 1.700215 g / cm^3
# Si number density = 17.040940 Si / 1000 Ang^3
#
#
#
# Elastic Constant Matrix: (Units=GPa)
#
#
# Indices 1 2 3 4 5 6 
#
# 1 130.6555 38.5941 36.0599 0.0000 0.0000 0.0000
# 2 38.5941 72.5400 35.6595 0.0000 0.0000 0.0000
# 3 36.0599 35.6595 58.5410 0.0000 0.0000 0.0000
# 4 0.0000 0.0000 0.0000 25.7724 0.0000 0.0000
# 5 0.0000 0.0000 0.0000 0.0000 21.8145 0.0000
# 6 0.0000 0.0000 0.0000 0.0000 0.0000 17.9766
#
#
#
# Elastic Compliance Matrix: (Units=1/GPa)
#
#
# Indices 1 2 3 4 5 6 
#
# 1 0.009709 -0.003177 -0.004045 0.000000 0.000000 0.000000
# 2 -0.003177 0.020717 -0.010663 0.000000 0.000000 0.000000
# 3 -0.004045 -0.010663 0.026069 0.000000 0.000000 0.000000
# 4 0.000000 0.000000 0.000000 0.038801 0.000000 0.000000
# 5 0.000000 0.000000 0.000000 0.000000 0.045841 0.000000
# 6 0.000000 0.000000 0.000000 0.000000 0.000000 0.055628
#
#
# Mechanical properties :
#
#
# Convention : Reuss Voigt Hill
#
# Bulk Modulus (GPa) = 48.25042 53.59592 50.92317
# Shear Modulus (GPa) = 20.88180 23.20757 22.04468
#
# Velocity S-wave (km/s) = 3.50435 3.69436 3.60061
# Velocity P-wave (km/s) = 6.68954 7.05105 6.87267
#
# Compressibility (1/GPa) = 0.02072521
#
# Stress axis : x y z
#
# Youngs Moduli (GPa) = 103.00229 48.26867 38.35986
#
# Poissons Ratio (x) = 0.15334 0.15517
# Poissons Ratio (y) = 0.32722 0.40903
# Poissons Ratio (z) = 0.41666 0.51468
#
# Static dielectric constant tensor:
#      x y z
#    x 3.344560 0.000000 0.000000 
#    y 0.000000 3.032620 0.000000 
#    z 0.000000 0.000000 2.981140 
# 
# 
# High freq. dielectric constant tensor:
#      x y z
#    x 1.660140 0.000000 0.000000 
#    y 0.000000 1.644360 0.000000 
#    z 0.000000 0.000000 1.637820 
# 
# From -- ./inp_files/45801.got.cif
#   From: 2010.03.12/outbox.cif.g09.slc.cpg/sg63_23_cif.got.tgz:45801.got - 2010.04.10 19:34:48.
