data_PCOD8260125
_publ_section_title
;
Structure prediction by ZEFSAII (Michael W. Deem and Ramdas Pophale) SiO2 
 PCOD8260125
Probable space group: C M C M
;
_chemical_formula_sum "Si O2"
_cell_formula_units_Z 64
_cell_length_a 10.498974
_cell_length_b 14.380080
_cell_length_c 22.266099
_cell_angle_alpha 90.000000
_cell_angle_beta 90.000000
_cell_angle_gamma 90.000000
_cell_volume 3361.648478
_symmetry_space_group_name_H-M "C M C M"
_symmetry_group_IT_number 63
_symmetry_cell_setting 'orthorhombic'
loop_
_space_group_symop_operation_xyz
x,y,z
-x,-y,1/2+z
x,-y,-z
-x,y,1/2-z
-x,-y,-z
x,y,1/2-z
-x,y,z
x,-y,1/2+z
1/2+x,1/2+y,z
1/2-x,1/2-y,1/2+z
1/2+x,1/2-y,-z
1/2-x,1/2+y,1/2-z
1/2-x,1/2-y,-z
1/2+x,1/2+y,1/2-z
1/2-x,1/2+y,z
1/2+x,1/2-y,1/2+z
loop_
_atom_site_type_symbol
_atom_site_label
_atom_site_fract_x
_atom_site_fract_y
_atom_site_fract_z
Si Si1 0.648744 0.585428 0.682291
Si Si2 0.140197 0.635630 0.483589
Si Si3 0.767131 0.272570 0.095603
Si Si4 0.643334 0.577501 0.093015
O O1 0.699347 0.572888 0.750000
O O2 0.500000 0.606349 0.681388
O O3 0.717633 0.674254 0.653749
O O4 0.680993 0.491299 0.646668
O O5 0.152783 0.656059 0.554416
O O6 0.151855 0.733195 0.446468
O O7 0.251569 0.565116 0.460401
O O8 0.000000 0.592490 0.471719
O O9 0.851592 0.184132 0.117319
O O10 0.500000 0.556143 0.069208
#
# Coordination Sequence:
#
# PCOD8260125 Si02
#       4
#    16  16  16  16
#     4  10  21  37  56  80 109 149 196 230 265 327
#     4   9  18  34  57  84 115 145 178 223 283 340
#     4   9  19  32  58  81 113 139 182 226 277 323
#     4   9  19  35  57  83 112 143 182 229 275 324
#
# _framework density 19.038278999999999
#
# number of rings (size 3 to 8) (size 9 to 14) (size 15 to 20)
#    1.500    1.250    0.000    1.500    0.000    3.000 
#    0.000    6.250    0.000    6.000    0.000    0.000 
#    0.000    0.000    0.000    0.000    0.000    0.000 
#
# Total GULP energy -396426.873903 kJ/mol
# GULP energy per Si atom -12388.339809 kJ/mol
# Density = 1.899495 g / cm^3
# Si number density = 19.038279 Si / 1000 Ang^3
#
#
#
# Elastic Constant Matrix: (Units=GPa)
#
#
# Indices 1 2 3 4 5 6 
#
# 1 94.4291 11.4236 23.8576 0.0000 0.0000 0.0000
# 2 11.4236 63.4611 34.7132 0.0000 0.0000 0.0000
# 3 23.8576 34.7132 82.1748 0.0000 0.0000 0.0000
# 4 0.0000 0.0000 0.0000 34.0191 0.0000 0.0000
# 5 0.0000 0.0000 0.0000 0.0000 23.5961 0.0000
# 6 0.0000 0.0000 0.0000 0.0000 0.0000 18.0338
#
#
#
# Elastic Compliance Matrix: (Units=1/GPa)
#
#
# Indices 1 2 3 4 5 6 
#
# 1 0.011433 -0.000315 -0.003186 0.000000 0.000000 0.000000
# 2 -0.000315 0.020502 -0.008569 0.000000 0.000000 0.000000
# 3 -0.003186 -0.008569 0.016714 0.000000 0.000000 0.000000
# 4 0.000000 0.000000 0.000000 0.029395 0.000000 0.000000
# 5 0.000000 0.000000 0.000000 0.000000 0.042380 0.000000
# 6 0.000000 0.000000 0.000000 0.000000 0.000000 0.055451
#
#
# Mechanical properties :
#
#
# Convention : Reuss Voigt Hill
#
# Bulk Modulus (GPa) = 40.80311 42.22820 41.51565
# Shear Modulus (GPa) = 24.01704 26.46784 25.24244
#
# Velocity S-wave (km/s) = 3.55563 3.73264 3.64521
# Velocity P-wave (km/s) = 6.19156 6.38793 6.29051
#
# Compressibility (1/GPa) = 0.02450794
#
# Stress axis : x y z
#
# Youngs Moduli (GPa) = 87.46554 48.77656 59.83001
#
# Poissons Ratio (x) = 0.01538 0.19063
# Poissons Ratio (y) = 0.02757 0.51268
# Poissons Ratio (z) = 0.27868 0.41797
#
# Static dielectric constant tensor:
#      x y z
#    x 3.276690 0.000000 0.000000 
#    y 0.000000 3.300080 0.000000 
#    z 0.000000 0.000000 3.259380 
# 
# 
# High freq. dielectric constant tensor:
#      x y z
#    x 1.726360 0.000000 0.000000 
#    y 0.000000 1.739300 0.000000 
#    z 0.000000 0.000000 1.712930 
# 
# From -- ./inp_files/59223.got.cif
#   From: 2010.03.12/outbox.cif.g09.slc.cpg/sg63_30_cif.got.tgz:59223.got - 2010.04.10 19:34:48.
