data_PCOD8260052
_publ_section_title
;
Structure prediction by ZEFSAII (Michael W. Deem and Ramdas Pophale) SiO2 
 PCOD8260052
Probable space group: C M C M
;
_chemical_formula_sum "Si O2"
_cell_formula_units_Z 64
_cell_length_a 13.813187
_cell_length_b 13.060217
_cell_length_c 15.422943
_cell_angle_alpha 90.000000
_cell_angle_beta 90.000000
_cell_angle_gamma 90.000000
_cell_volume 2782.348574
_symmetry_space_group_name_H-M "C M C M"
_symmetry_group_IT_number 63
_symmetry_cell_setting 'orthorhombic'
loop_
_space_group_symop_operation_xyz
x,y,z
-x,-y,1/2+z
x,-y,-z
-x,y,1/2-z
-x,-y,-z
x,y,1/2-z
-x,y,z
x,-y,1/2+z
1/2+x,1/2+y,z
1/2-x,1/2-y,1/2+z
1/2+x,1/2-y,-z
1/2-x,1/2+y,1/2-z
1/2-x,1/2-y,-z
1/2+x,1/2+y,1/2-z
1/2-x,1/2+y,z
1/2+x,1/2-y,1/2+z
loop_
_atom_site_type_symbol
_atom_site_label
_atom_site_fract_x
_atom_site_fract_y
_atom_site_fract_z
Si Si1 0.805227 0.969243 0.100133
Si Si2 0.395668 0.667903 0.151344
Si Si3 0.693400 0.755968 0.646328
Si Si4 0.895228 0.538742 0.097165
O O1 0.842903 0.854698 0.115045
O O2 0.878625 0.045533 0.147516
O O3 0.696500 0.981631 0.141831
O O4 0.801589 0.000000 0.000000
O O5 0.403686 0.701998 0.250000
O O6 0.500000 0.694042 0.105996
O O7 0.303580 0.726718 0.109928
O O8 0.688726 0.767325 0.750000
O O9 0.623737 0.839111 0.601991
O O10 0.000000 0.515785 0.142479
O O11 0.902632 0.500000 0.000000
#
# Coordination Sequence:
#
# PCOD8260052 Si02
#       4
#    16  16  16  16
#     4  10  21  36  56  84 117 151 188 233 284 337
#     4   9  19  36  56  79 109 146 189 236 285 337
#     4  10  21  38  59  83 113 150 191 234 282 338
#     4   9  20  38  59  85 117 151 189 235 286 339
#
# _framework density 23.002151999999999
#
# number of rings (size 3 to 8) (size 9 to 14) (size 15 to 20)
#    0.000    2.500    0.000    0.750    0.000   13.000 
#    0.000    5.000    0.000    0.000    0.000    0.000 
#    0.000    0.000    0.000    0.000    0.000    0.000 
#
# Total GULP energy -396432.629632 kJ/mol
# GULP energy per Si atom -12388.519676 kJ/mol
# Density = 2.294980 g / cm^3
# Si number density = 23.002152 Si / 1000 Ang^3
#
#
#
# Elastic Constant Matrix: (Units=GPa)
#
#
# Indices 1 2 3 4 5 6 
#
# 1 94.0524 -25.0876 15.3813 0.0000 0.0000 0.0000
# 2 -25.0876 111.2016 21.9154 0.0000 0.0000 0.0000
# 3 15.3813 21.9154 44.2214 0.0000 0.0000 0.0000
# 4 0.0000 0.0000 0.0000 31.7852 0.0000 0.0000
# 5 0.0000 0.0000 0.0000 0.0000 -131.6731 0.0000
# 6 0.0000 0.0000 0.0000 0.0000 0.0000 3.7390
#
#
#
# Elastic Compliance Matrix: (Units=1/GPa)
#
#
# Indices 1 2 3 4 5 6 
#
# 1 0.012814 0.004177 -0.006527 0.000000 0.000000 0.000000
# 2 0.004177 0.011328 -0.007067 0.000000 0.000000 0.000000
# 3 -0.006527 -0.007067 0.028386 0.000000 0.000000 0.000000
# 4 0.000000 0.000000 0.000000 0.031461 0.000000 0.000000
# 5 0.000000 0.000000 0.000000 0.000000 -0.007595 0.000000
# 6 0.000000 0.000000 0.000000 0.000000 0.000000 0.267453
#
#
# Mechanical properties :
#
#
# Convention : Reuss Voigt Hill
#
# Bulk Modulus (GPa) = 29.67855 30.43260 30.05557
# Shear Modulus (GPa) = 13.37213 -3.41202 4.98005
#
# Velocity S-wave (km/s) = 2.41372 -1.21925 1.47300
# Velocity P-wave (km/s) = 4.54957 3.35812 3.99847
#
# Compressibility (1/GPa) = 0.03369437
#
# Stress axis : x y z
#
# Youngs Moduli (GPa) = 78.03909 88.27830 35.22858
#
# Poissons Ratio (x) = -0.36876 0.22995
# Poissons Ratio (y) = -0.32599 0.24895
# Poissons Ratio (z) = 0.50938 0.62385
#
# Static dielectric constant tensor:
#      x y z
#    x 4.922710 0.000000 0.000000 
#    y 0.000000 4.052730 0.000000 
#    z 0.000000 0.000000 3.710720 
# 
# 
# High freq. dielectric constant tensor:
#      x y z
#    x 1.916810 0.000000 0.000000 
#    y 0.000000 1.901670 0.000000 
#    z 0.000000 0.000000 1.874860 
# 
# From -- ./inp_files/31110.got.cif
#   From: 2010.03.12/outbox.cif.g09.slc.cpg/sg63_16_cif.got.tgz:31110.got - 2010.04.10 19:34:48.
