data_PCOD8260356
_publ_section_title
;
Structure prediction by ZEFSAII (Michael W. Deem and Ramdas Pophale) SiO2 
 PCOD8260356
Probable space group: C M C M
;
_chemical_formula_sum "Si O2"
_cell_formula_units_Z 64
_cell_length_a 8.705181
_cell_length_b 15.381267
_cell_length_c 23.542290
_cell_angle_alpha 90.000000
_cell_angle_beta 90.000000
_cell_angle_gamma 90.000000
_cell_volume 3152.235253
_symmetry_space_group_name_H-M "C M C M"
_symmetry_group_IT_number 63
_symmetry_cell_setting 'orthorhombic'
loop_
_space_group_symop_operation_xyz
x,y,z
-x,-y,1/2+z
x,-y,-z
-x,y,1/2-z
-x,-y,-z
x,y,1/2-z
-x,y,z
x,-y,1/2+z
1/2+x,1/2+y,z
1/2-x,1/2-y,1/2+z
1/2+x,1/2-y,-z
1/2-x,1/2+y,1/2-z
1/2-x,1/2-y,-z
1/2+x,1/2+y,1/2-z
1/2-x,1/2+y,z
1/2+x,1/2-y,1/2+z
loop_
_atom_site_type_symbol
_atom_site_label
_atom_site_fract_x
_atom_site_fract_y
_atom_site_fract_z
Si Si1 0.818707 0.841850 0.366467
Si Si2 0.178888 0.839125 0.628589
Si Si3 0.179749 0.597554 0.750000
Si Si4 0.175291 0.913703 0.750000
Si Si5 0.176360 0.498034 0.067056
O O1 0.761721 0.749392 0.389875
O O2 0.749917 0.857605 0.304772
O O3 0.766022 0.914833 0.410290
O O4 0.000000 0.843372 0.362177
O O5 0.208131 0.855141 0.695260
O O6 0.000000 0.831756 0.614465
O O7 0.249769 0.915673 0.591928
O O8 0.211419 0.495083 0.750000
O O9 0.000000 0.614919 0.750000
O O10 0.000000 0.948849 0.750000
O O11 0.000000 0.492121 0.086804
O O12 0.192564 0.500000 0.000000
#
# Coordination Sequence:
#
# PCOD8260356 Si02
#       5
#    16  16   8   8  16
#     4  12  25  42  66  96 132 170 213 261 317 382
#     4  11  23  41  67  97 132 168 211 262 319 381
#     4  12  23  38  65  96 132 170 209 258 317 380
#     4  10  21  38  63  96 130 166 205 256 319 382
#     4  11  25  45  67  93 127 168 217 269 321 378
#
# _framework density 20.303053999999999
#
# number of rings (size 3 to 8) (size 9 to 14) (size 15 to 20)
#    0.000    0.750    2.500    5.625    0.000    5.000 
#    0.000    0.000    0.000    0.000    0.000    0.000 
#    0.000    0.000    0.000    0.000    0.000    0.000 
#
# Total GULP energy -397048.413111 kJ/mol
# GULP energy per Si atom -12407.762910 kJ/mol
# Density = 2.025684 g / cm^3
# Si number density = 20.303054 Si / 1000 Ang^3
#
#
#
# Elastic Constant Matrix: (Units=GPa)
#
#
# Indices 1 2 3 4 5 6 
#
# 1 192.1309 81.3401 57.6125 0.0000 0.0000 0.0000
# 2 81.3401 178.5092 47.5812 0.0000 0.0000 0.0000
# 3 57.6125 47.5812 85.9190 0.0000 0.0000 0.0000
# 4 0.0000 0.0000 0.0000 -44.6255 0.0000 0.0000
# 5 0.0000 0.0000 0.0000 0.0000 72.3866 0.0000
# 6 0.0000 0.0000 0.0000 0.0000 0.0000 37.7815
#
#
#
# Elastic Compliance Matrix: (Units=1/GPa)
#
#
# Indices 1 2 3 4 5 6 
#
# 1 0.007276 -0.002364 -0.003570 0.000000 0.000000 0.000000
# 2 -0.002364 0.007340 -0.002480 0.000000 0.000000 0.000000
# 3 -0.003570 -0.002480 0.015406 0.000000 0.000000 0.000000
# 4 0.000000 0.000000 0.000000 -0.022409 0.000000 0.000000
# 5 0.000000 0.000000 0.000000 0.000000 0.013815 0.000000
# 6 0.000000 0.000000 0.000000 0.000000 0.000000 0.026468
#
#
# Mechanical properties :
#
#
# Convention : Reuss Voigt Hill
#
# Bulk Modulus (GPa) = 75.78613 92.18074 83.98343
# Shear Modulus (GPa) = 72.33682 31.11020 51.72351
#
# Velocity S-wave (km/s) = 5.97544 3.91870 5.05282
# Velocity P-wave (km/s) = 9.22043 8.12255 8.68885
#
# Compressibility (1/GPa) = 0.01319503
#
# Stress axis : x y z
#
# Youngs Moduli (GPa) = 137.43832 136.23854 64.91046
#
# Poissons Ratio (x) = 0.32205 0.23172
# Poissons Ratio (y) = 0.32489 0.16096
# Poissons Ratio (z) = 0.49062 0.33784
#
# Static dielectric constant tensor:
#      x y z
#    x 3.946950 0.000000 0.000000 
#    y 0.000000 3.825990 0.000000 
#    z 0.000000 0.000000 3.666940 
# 
# 
# High freq. dielectric constant tensor:
#      x y z
#    x 1.810730 0.000000 0.000000 
#    y 0.000000 1.809920 0.000000 
#    z 0.000000 0.000000 1.793450 
# 
# From -- ./inp_files/59069.got.cif
#   From: 2010.03.12/outbox.cif.g09.slc.cpg/sg63_30_cif.got.tgz:59069.got - 2010.04.10 19:34:48.
