data_PCOD8260610
_publ_section_title
;
Structure prediction by ZEFSAII (Michael W. Deem and Ramdas Pophale) SiO2 
 PCOD8260610
Probable space group: C M C M
;
_chemical_formula_sum "Si O2"
_cell_formula_units_Z 72
_cell_length_a 14.302661
_cell_length_b 30.164848
_cell_length_c 8.791484
_cell_angle_alpha 90.000000
_cell_angle_beta 90.000000
_cell_angle_gamma 90.000000
_cell_volume 3792.976714
_symmetry_space_group_name_H-M "C M C M"
_symmetry_group_IT_number 63
_symmetry_cell_setting 'orthorhombic'
loop_
_space_group_symop_operation_xyz
x,y,z
-x,-y,1/2+z
x,-y,-z
-x,y,1/2-z
-x,-y,-z
x,y,1/2-z
-x,y,z
x,-y,1/2+z
1/2+x,1/2+y,z
1/2-x,1/2-y,1/2+z
1/2+x,1/2-y,-z
1/2-x,1/2+y,1/2-z
1/2-x,1/2-y,-z
1/2+x,1/2+y,1/2-z
1/2-x,1/2+y,z
1/2+x,1/2-y,1/2+z
loop_
_atom_site_type_symbol
_atom_site_label
_atom_site_fract_x
_atom_site_fract_y
_atom_site_fract_z
Si Si1 0.810736 0.711794 0.425844
Si Si2 0.678464 0.370270 0.574148
Si Si3 0.000000 0.168993 0.572367
Si Si4 0.202110 0.548009 0.429630
Si Si5 0.500000 0.234523 0.930180
Si Si6 0.500000 0.047355 0.071720
O O1 0.825978 0.723557 0.250000
O O2 0.750000 0.750000 0.500000
O O3 0.760065 0.665318 0.448533
O O4 0.910358 0.708721 0.507311
O O5 0.646534 0.371498 0.750000
O O6 0.590699 0.359493 0.469081
O O7 0.718680 0.417473 0.517879
O O8 0.000000 0.214446 0.479807
O O9 0.000000 0.179991 0.750000
O O10 0.222547 0.500000 0.500000
O O11 0.205580 0.542271 0.250000
O O12 0.099685 0.568838 0.478394
O O13 0.500000 0.233234 0.750000
O O14 0.500000 0.042074 0.250000
O O15 0.500000 0.000000 0.000000
#
# Coordination Sequence:
#
# PCOD8260610 Si02
#       6
#    16  16   8  16   8   8
#     4  11  22  37  59  86 116 152 194 239 289 345
#     4  10  22  39  60  84 115 152 192 238 294 349
#     4  12  24  38  60  84 110 148 197 243 292 353
#     4   9  18  34  57  85 116 152 189 232 283 341
#     4  12  24  39  59  84 120 157 194 241 292 348
#     4   8  14  27  50  78 108 141 179 216 266 329
#
# _framework density 18.982451000000001
#
# number of rings (size 3 to 8) (size 9 to 14) (size 15 to 20)
#    0.000    1.778    2.222    2.667    0.000    2.667 
#    0.000    3.889    0.000    5.333    0.000    0.000 
#    0.000    0.000    0.000    0.000    0.000    0.000 
#
# Total GULP energy -446240.575163 kJ/mol
# GULP energy per Si atom -12395.571532 kJ/mol
# Density = 1.893925 g / cm^3
# Si number density = 18.982451 Si / 1000 Ang^3
#
#
#
# Elastic Constant Matrix: (Units=GPa)
#
#
# Indices 1 2 3 4 5 6 
#
# 1 135.2461 40.8270 56.6629 0.0000 0.0000 0.0000
# 2 40.8270 87.3546 34.6152 0.0000 0.0000 0.0000
# 3 56.6629 34.6152 96.7089 0.0000 0.0000 0.0000
# 4 0.0000 0.0000 0.0000 25.9018 0.0000 0.0000
# 5 0.0000 0.0000 0.0000 0.0000 33.7711 0.0000
# 6 0.0000 0.0000 0.0000 0.0000 0.0000 12.5606
#
#
#
# Elastic Compliance Matrix: (Units=1/GPa)
#
#
# Indices 1 2 3 4 5 6 
#
# 1 0.010372 -0.002843 -0.005059 0.000000 0.000000 0.000000
# 2 -0.002843 0.014119 -0.003388 0.000000 0.000000 0.000000
# 3 -0.005059 -0.003388 0.014517 0.000000 0.000000 0.000000
# 4 0.000000 0.000000 0.000000 0.038607 0.000000 0.000000
# 5 0.000000 0.000000 0.000000 0.000000 0.029611 0.000000
# 6 0.000000 0.000000 0.000000 0.000000 0.000000 0.079614
#
#
# Mechanical properties :
#
#
# Convention : Reuss Voigt Hill
#
# Bulk Modulus (GPa) = 60.87295 64.83552 62.85424
# Shear Modulus (GPa) = 23.26706 26.92701 25.09703
#
# Velocity S-wave (km/s) = 3.50482 3.77041 3.64004
# Velocity P-wave (km/s) = 6.96534 7.29276 7.13093
#
# Compressibility (1/GPa) = 0.01642766
#
# Stress axis : x y z
#
# Youngs Moduli (GPa) = 96.41574 70.82821 68.88292
#
# Poissons Ratio (x) = 0.20134 0.34851
# Poissons Ratio (y) = 0.27407 0.23338
# Poissons Ratio (z) = 0.48781 0.23997
#
# Static dielectric constant tensor:
#      x y z
#    x 4.082470 0.000000 0.000000 
#    y 0.000000 3.444030 0.000000 
#    z 0.000000 0.000000 3.509190 
# 
# 
# High freq. dielectric constant tensor:
#      x y z
#    x 1.752900 0.000000 0.000000 
#    y 0.000000 1.722230 0.000000 
#    z 0.000000 0.000000 1.737770 
# 
# From -- ./inp_files/4964.got.cif
#   From: 2010.03.12/outbox.cif.g09.slc.cpg/sg63_3_cif.got.tgz:4964.got - 2010.04.10 19:34:48.
