data_PCOD8260227
_publ_section_title
;
Structure prediction by ZEFSAII (Michael W. Deem and Ramdas Pophale) SiO2 
 PCOD8260227
Probable space group: C M C M
;
_chemical_formula_sum "Si O2"
_cell_formula_units_Z 80
_cell_length_a 14.148323
_cell_length_b 12.765447
_cell_length_c 22.466730
_cell_angle_alpha 90.000000
_cell_angle_beta 90.000000
_cell_angle_gamma 90.000000
_cell_volume 4057.708633
_symmetry_space_group_name_H-M "C M C M"
_symmetry_group_IT_number 63
_symmetry_cell_setting 'orthorhombic'
loop_
_space_group_symop_operation_xyz
x,y,z
-x,-y,1/2+z
x,-y,-z
-x,y,1/2-z
-x,-y,-z
x,y,1/2-z
-x,y,z
x,-y,1/2+z
1/2+x,1/2+y,z
1/2-x,1/2-y,1/2+z
1/2+x,1/2-y,-z
1/2-x,1/2+y,1/2-z
1/2-x,1/2-y,-z
1/2+x,1/2+y,1/2-z
1/2-x,1/2+y,z
1/2+x,1/2-y,1/2+z
loop_
_atom_site_type_symbol
_atom_site_label
_atom_site_fract_x
_atom_site_fract_y
_atom_site_fract_z
Si Si1 0.604934 0.341532 0.105507
Si Si2 0.257258 0.220796 0.317144
Si Si3 0.391651 0.150270 0.619089
Si Si4 0.337410 0.311706 0.523505
Si Si5 0.236869 0.976995 0.614568
O O1 0.500000 0.333814 0.130782
O O2 0.664115 0.245721 0.132856
O O3 0.652218 0.445564 0.131121
O O4 0.601165 0.344095 0.033644
O O5 0.292674 0.239351 0.250000
O O6 0.162586 0.290142 0.327170
O O7 0.241937 0.097415 0.327734
O O8 0.500000 0.121496 0.636722
O O9 0.396793 0.233094 0.564935
O O10 0.333870 0.043473 0.602748
O O11 0.250000 0.250000 0.500000
O O12 0.296107 0.413625 0.556354
#
# Coordination Sequence:
#
# PCOD8260227 Si02
#       5
#    16  16  16  16  16
#     4  11  23  38  62  90 119 153 196 243 293 349
#     4  10  23  43  62  80 116 158 198 248 298 343
#     4  10  22  39  62  90 119 154 198 240 290 351
#     4  11  19  38  60  88 124 158 186 230 291 355
#     4  10  21  37  61  88 122 152 195 238 294 346
#
# _framework density 19.715561000000001
#
# number of rings (size 3 to 8) (size 9 to 14) (size 15 to 20)
#    0.000    1.600    6.000    1.200    0.000    9.600 
#    0.000    1.000    0.000    0.000    0.000    0.000 
#    0.000    0.000    0.000    0.000    0.000    0.000 
#
# Total GULP energy -495703.060588 kJ/mol
# GULP energy per Si atom -12392.576515 kJ/mol
# Density = 1.967069 g / cm^3
# Si number density = 19.715561 Si / 1000 Ang^3
#
#
#
# Elastic Constant Matrix: (Units=GPa)
#
#
# Indices 1 2 3 4 5 6 
#
# 1 130.6962 23.7357 25.5881 0.0000 0.0000 0.0000
# 2 23.7357 86.6676 35.4838 0.0000 0.0000 0.0000
# 3 25.5881 35.4838 106.0344 0.0000 0.0000 0.0000
# 4 0.0000 0.0000 0.0000 19.7443 0.0000 0.0000
# 5 0.0000 0.0000 0.0000 0.0000 13.6178 0.0000
# 6 0.0000 0.0000 0.0000 0.0000 0.0000 12.5439
#
#
#
# Elastic Compliance Matrix: (Units=1/GPa)
#
#
# Indices 1 2 3 4 5 6 
#
# 1 0.008234 -0.001670 -0.001428 0.000000 0.000000 0.000000
# 2 -0.001670 0.013709 -0.004185 0.000000 0.000000 0.000000
# 3 -0.001428 -0.004185 0.011176 0.000000 0.000000 0.000000
# 4 0.000000 0.000000 0.000000 0.050647 0.000000 0.000000
# 5 0.000000 0.000000 0.000000 0.000000 0.073433 0.000000
# 6 0.000000 0.000000 0.000000 0.000000 0.000000 0.079720
#
#
# Mechanical properties :
#
#
# Convention : Reuss Voigt Hill
#
# Bulk Modulus (GPa) = 53.89943 54.77927 54.33935
# Shear Modulus (GPa) = 19.40464 25.08725 22.24595
#
# Velocity S-wave (km/s) = 3.14065 3.57102 3.36273
# Velocity P-wave (km/s) = 6.36784 6.69687 6.53443
#
# Compressibility (1/GPa) = 0.01855307
#
# Stress axis : x y z
#
# Youngs Moduli (GPa) = 121.44330 72.94432 89.47854
#
# Poissons Ratio (x) = 0.12185 0.12778
# Poissons Ratio (y) = 0.20286 0.37443
# Poissons Ratio (z) = 0.17343 0.30524
#
# Static dielectric constant tensor:
#      x y z
#    x 3.349170 0.000000 0.000000 
#    y 0.000000 3.775010 0.000000 
#    z 0.000000 0.000000 6.983840 
# 
# 
# High freq. dielectric constant tensor:
#      x y z
#    x 1.758680 0.000000 0.000000 
#    y 0.000000 1.779560 0.000000 
#    z 0.000000 0.000000 1.751300 
# 
# From -- ./inp_files/53972.got.cif
#   From: 2010.03.12/outbox.cif.g09.slc.cpg/sg63_27_cif.got.tgz:53972.got - 2010.04.10 19:34:48.
