data_PCOD8260382
_publ_section_title
;
Structure prediction by ZEFSAII (Michael W. Deem and Ramdas Pophale) SiO2 
 PCOD8260382
Probable space group: C M C M
;
_chemical_formula_sum "Si O2"
_cell_formula_units_Z 72
_cell_length_a 26.424490
_cell_length_b 13.230181
_cell_length_c 10.173117
_cell_angle_alpha 90.000000
_cell_angle_beta 90.000000
_cell_angle_gamma 90.000000
_cell_volume 3556.529695
_symmetry_space_group_name_H-M "C M C M"
_symmetry_group_IT_number 63
_symmetry_cell_setting 'orthorhombic'
loop_
_space_group_symop_operation_xyz
x,y,z
-x,-y,1/2+z
x,-y,-z
-x,y,1/2-z
-x,-y,-z
x,y,1/2-z
-x,y,z
x,-y,1/2+z
1/2+x,1/2+y,z
1/2-x,1/2-y,1/2+z
1/2+x,1/2-y,-z
1/2-x,1/2+y,1/2-z
1/2-x,1/2-y,-z
1/2+x,1/2+y,1/2-z
1/2-x,1/2+y,z
1/2+x,1/2-y,1/2+z
loop_
_atom_site_type_symbol
_atom_site_label
_atom_site_fract_x
_atom_site_fract_y
_atom_site_fract_z
Si Si1 0.000000 0.599269 0.091517
Si Si2 0.167128 0.612993 0.250000
Si Si3 0.395841 0.806084 0.513217
Si Si4 0.769150 0.882507 0.250000
Si Si5 0.661947 0.382654 0.494327
Si Si6 0.155704 0.623318 0.750000
Si Si7 0.722143 0.620492 0.250000
O O1 0.047200 0.667424 0.050371
O O2 0.000000 0.574563 0.250000
O O3 0.000000 0.500000 0.000000
O O4 0.140046 0.643805 0.118424
O O5 0.168790 0.493325 0.250000
O O6 0.221905 0.669880 0.250000
O O7 0.389115 0.684113 0.517708
O O8 0.378960 0.848899 0.373216
O O9 0.800439 0.852143 0.378181
O O10 0.713116 0.827728 0.250000
O O11 0.764747 0.002662 0.250000
O O12 0.646166 0.500000 0.500000
O O13 0.689828 0.346891 0.625278
#
# Coordination Sequence:
#
# PCOD8260382 Si02
#       7
#     8   8  16   8  16   8   8
#     4  12  28  50  71  94 122 156 201 264 323 373
#     4  11  21  38  59  91 127 167 206 256 302 368
#     4  12  25  39  65  91 120 163 212 254 313 371
#     4   9  19  35  59  87 131 174 204 245 298 357
#     4  10  21  39  59  90 128 168 206 250 297 359
#     4  11  23  38  59  95 131 163 206 254 306 370
#     4   9  19  35  57  87 131 168 204 245 302 359
#
# _framework density 20.244454000000001
#
# number of rings (size 3 to 8) (size 9 to 14) (size 15 to 20)
#    0.000    1.333    1.111    4.667    1.556    8.889 
#    0.000    0.556    0.000    0.000    0.000    0.000 
#    0.000    0.000    0.000    0.000    0.000    0.000 
#
# Total GULP energy -446320.374792 kJ/mol
# GULP energy per Si atom -12397.788189 kJ/mol
# Density = 2.019838 g / cm^3
# Si number density = 20.244454 Si / 1000 Ang^3
#
#
#
# Elastic Constant Matrix: (Units=GPa)
#
#
# Indices 1 2 3 4 5 6 
#
# 1 158.8119 66.7714 66.8611 0.0000 0.0000 0.0000
# 2 66.7714 88.9668 38.7996 0.0000 0.0000 0.0000
# 3 66.8611 38.7996 185.4633 0.0000 0.0000 0.0000
# 4 0.0000 0.0000 0.0000 51.1925 0.0000 0.0000
# 5 0.0000 0.0000 0.0000 0.0000 20.0678 0.0000
# 6 0.0000 0.0000 0.0000 0.0000 0.0000 34.8269
#
#
#
# Elastic Compliance Matrix: (Units=1/GPa)
#
#
# Indices 1 2 3 4 5 6 
#
# 1 0.009975 -0.006513 -0.002234 0.000000 0.000000 0.000000
# 2 -0.006513 0.016620 -0.001129 0.000000 0.000000 0.000000
# 3 -0.002234 -0.001129 0.006433 0.000000 0.000000 0.000000
# 4 0.000000 0.000000 0.000000 0.019534 0.000000 0.000000
# 5 0.000000 0.000000 0.000000 0.000000 0.049831 0.000000
# 6 0.000000 0.000000 0.000000 0.000000 0.000000 0.028713
#
#
# Mechanical properties :
#
#
# Convention : Reuss Voigt Hill
#
# Bulk Modulus (GPa) = 75.31166 86.45627 80.88396
# Shear Modulus (GPa) = 32.19888 38.60476 35.40182
#
# Velocity S-wave (km/s) = 3.99244 4.37158 4.18630
# Velocity P-wave (km/s) = 7.65079 8.26316 7.96287
#
# Compressibility (1/GPa) = 0.01327816
#
# Stress axis : x y z
#
# Youngs Moduli (GPa) = 100.24728 60.16700 155.43813
#
# Poissons Ratio (x) = 0.39184 0.34721
# Poissons Ratio (y) = 0.65286 0.17553
# Poissons Ratio (z) = 0.22393 0.06794
#
# Static dielectric constant tensor:
#      x y z
#    x 3.889430 0.000000 0.000000 
#    y 0.000000 3.965110 0.000000 
#    z 0.000000 0.000000 4.002250 
# 
# 
# High freq. dielectric constant tensor:
#      x y z
#    x 1.769360 0.000000 0.000000 
#    y 0.000000 1.811630 0.000000 
#    z 0.000000 0.000000 1.813750 
# 
# From -- ./inp_files/11826.got.cif
#   From: 2010.03.12/outbox.cif.g09.slc.cpg/sg63_6_cif.got.tgz:11826.got - 2010.04.10 19:34:48.
