data_PCOD8260346
_publ_section_title
;
Structure prediction by ZEFSAII (Michael W. Deem and Ramdas Pophale) SiO2 
 PCOD8260346
Probable space group: C M C M
;
_chemical_formula_sum "Si O2"
_cell_formula_units_Z 64
_cell_length_a 17.549592
_cell_length_b 9.362227
_cell_length_c 19.159109
_cell_angle_alpha 90.000000
_cell_angle_beta 90.000000
_cell_angle_gamma 90.000000
_cell_volume 3147.904145
_symmetry_space_group_name_H-M "C M C M"
_symmetry_group_IT_number 63
_symmetry_cell_setting 'orthorhombic'
loop_
_space_group_symop_operation_xyz
x,y,z
-x,-y,1/2+z
x,-y,-z
-x,y,1/2-z
-x,-y,-z
x,y,1/2-z
-x,y,z
x,-y,1/2+z
1/2+x,1/2+y,z
1/2-x,1/2-y,1/2+z
1/2+x,1/2-y,-z
1/2-x,1/2+y,1/2-z
1/2-x,1/2-y,-z
1/2+x,1/2+y,1/2-z
1/2-x,1/2+y,z
1/2+x,1/2-y,1/2+z
loop_
_atom_site_type_symbol
_atom_site_label
_atom_site_fract_x
_atom_site_fract_y
_atom_site_fract_z
Si Si1 0.500000 0.364205 0.549985
Si Si2 0.415510 0.903237 0.437962
Si Si3 0.500000 0.429690 0.167431
Si Si4 0.339512 0.683423 0.832251
Si Si5 0.298950 0.995839 0.667328
O O1 0.500000 0.500000 0.500000
O O2 0.424983 0.263755 0.538634
O O3 0.500000 0.416859 0.630208
O O4 0.500000 0.964022 0.418478
O O5 0.362855 0.908674 0.369947
O O6 0.380034 0.000000 0.500000
O O7 0.500000 0.457065 0.250000
O O8 0.425524 0.342915 0.141017
O O9 0.341799 0.691943 0.750000
O O10 0.283958 0.554672 0.855547
O O11 0.307017 0.833734 0.860284
O O12 0.311672 0.010748 0.750000
#
# Coordination Sequence:
#
# PCOD8260346 Si02
#       5
#     8  16   8  16  16
#     4  10  23  38  63  86 120 166 199 254 307 356
#     4   9  22  40  59  87 123 163 202 253 305 365
#     4  10  22  38  63  95 120 157 211 251 298 363
#     4   9  21  37  60  90 127 162 197 255 309 359
#     4  10  21  38  62  90 124 161 202 254 313 359
#
# _framework density 20.330987
#
# number of rings (size 3 to 8) (size 9 to 14) (size 15 to 20)
#    0.750    1.750    0.000    0.000    8.750    1.500 
#    0.000    2.500    0.000    0.000    0.000    0.000 
#    0.000    0.000    0.000    0.000    0.000    0.000 
#
# Total GULP energy -396568.062618 kJ/mol
# GULP energy per Si atom -12392.751957 kJ/mol
# Density = 2.028471 g / cm^3
# Si number density = 20.330987 Si / 1000 Ang^3
#
#
#
# Elastic Constant Matrix: (Units=GPa)
#
#
# Indices 1 2 3 4 5 6 
#
# 1 144.1412 71.0086 38.1906 0.0000 0.0000 0.0000
# 2 71.0086 174.0995 45.1223 0.0000 0.0000 0.0000
# 3 38.1906 45.1223 61.5145 0.0000 0.0000 0.0000
# 4 0.0000 0.0000 0.0000 34.9566 0.0000 0.0000
# 5 0.0000 0.0000 0.0000 0.0000 19.7488 0.0000
# 6 0.0000 0.0000 0.0000 0.0000 0.0000 25.2057
#
#
#
# Elastic Compliance Matrix: (Units=1/GPa)
#
#
# Indices 1 2 3 4 5 6 
#
# 1 0.009318 -0.002841 -0.003701 0.000000 0.000000 0.000000
# 2 -0.002841 0.007959 -0.004074 0.000000 0.000000 0.000000
# 3 -0.003701 -0.004074 0.021542 0.000000 0.000000 0.000000
# 4 0.000000 0.000000 0.000000 0.028607 0.000000 0.000000
# 5 0.000000 0.000000 0.000000 0.000000 0.050636 0.000000
# 6 0.000000 0.000000 0.000000 0.000000 0.000000 0.039674
#
#
# Mechanical properties :
#
#
# Convention : Reuss Voigt Hill
#
# Bulk Modulus (GPa) = 56.86056 76.48869 66.67463
# Shear Modulus (GPa) = 27.05206 31.01114 29.03160
#
# Velocity S-wave (km/s) = 3.65167 3.90976 3.78292
# Velocity P-wave (km/s) = 6.76814 7.62136 7.20739
#
# Compressibility (1/GPa) = 0.01758688
#
# Stress axis : x y z
#
# Youngs Moduli (GPa) = 107.32076 125.65168 46.42066
#
# Poissons Ratio (x) = 0.35701 0.17179
# Poissons Ratio (y) = 0.30493 0.18911
# Poissons Ratio (z) = 0.39717 0.51188
#
# Static dielectric constant tensor:
#      x y z
#    x 3.784000 0.000000 0.000000 
#    y 0.000000 3.831220 0.000000 
#    z 0.000000 0.000000 3.373730 
# 
# 
# High freq. dielectric constant tensor:
#      x y z
#    x 1.784240 0.000000 0.000000 
#    y 0.000000 1.797060 0.000000 
#    z 0.000000 0.000000 1.771210 
# 
# From -- ./inp_files/55068.got.cif
#   From: 2010.03.12/outbox.cif.g09.slc.cpg/sg63_28_cif.got.tgz:55068.got - 2010.04.10 19:34:48.
