data_PCOD8260898
_publ_section_title
;
Structure prediction by ZEFSAII (Michael W. Deem and Ramdas Pophale) SiO2 
 PCOD8260898
Probable space group: C M C M
;
_chemical_formula_sum "Si O2"
_cell_formula_units_Z 112
_cell_length_a 15.876698
_cell_length_b 22.330693
_cell_length_c 20.013093
_cell_angle_alpha 90.000000
_cell_angle_beta 90.000000
_cell_angle_gamma 90.000000
_cell_volume 7095.395340
_symmetry_space_group_name_H-M "C M C M"
_symmetry_group_IT_number 63
_symmetry_cell_setting 'orthorhombic'
loop_
_space_group_symop_operation_xyz
x,y,z
-x,-y,1/2+z
x,-y,-z
-x,y,1/2-z
-x,-y,-z
x,y,1/2-z
-x,y,z
x,-y,1/2+z
1/2+x,1/2+y,z
1/2-x,1/2-y,1/2+z
1/2+x,1/2-y,-z
1/2-x,1/2+y,1/2-z
1/2-x,1/2-y,-z
1/2+x,1/2+y,1/2-z
1/2-x,1/2+y,z
1/2+x,1/2-y,1/2+z
loop_
_atom_site_type_symbol
_atom_site_label
_atom_site_fract_x
_atom_site_fract_y
_atom_site_fract_z
Si Si1 0.000000 0.649698 0.171343
Si Si2 0.500000 0.283530 0.328106
Si Si3 0.755696 0.332725 0.596466
Si Si4 0.098800 0.525638 0.573528
Si Si5 0.903909 0.227128 0.449460
Si Si6 0.157695 0.209698 0.902936
Si Si7 0.342372 0.927796 0.828989
Si Si8 0.681957 0.150357 0.551687
O O1 0.000000 0.716129 0.140476
O O2 0.080288 0.613260 0.146638
O O3 0.000000 0.655540 0.250000
O O4 0.500000 0.284704 0.250000
O O5 0.413783 0.314821 0.352451
O O6 0.656704 0.317403 0.591759
O O7 0.805144 0.273535 0.621459
O O8 0.762137 0.387645 0.649220
O O9 0.794269 0.353884 0.526042
O O10 0.115007 0.500000 0.500000
O O11 0.150363 0.488989 0.629661
O O12 0.135981 0.591712 0.577617
O O13 0.000000 0.526005 0.591296
O O14 0.887970 0.216389 0.526820
O O15 0.882182 0.295771 0.433498
O O16 0.000000 0.213252 0.429786
O O17 0.232318 0.161101 0.906369
O O18 0.340956 0.941809 0.750000
#
# Coordination Sequence:
#
# PCOD8260898 Si02
#       8
#     8   8  16  16  16  16  16  16
#     4   9  18  28  43  67 101 130 154 199 247 294
#     4  11  18  26  46  73  98 128 161 195 246 300
#     4   9  17  29  46  71  99 126 160 200 245 293
#     4  11  21  31  48  73 101 134 168 199 233 286
#     4   9  16  28  49  72  97 127 158 197 245 292
#     4   9  17  28  44  69 100 129 157 196 245 292
#     4  11  20  32  48  71 100 130 165 203 245 291
#     4   9  18  31  45  69 103 131 160 198 238 286
#
# _framework density 15.784884999999999
#
# number of rings (size 3 to 8) (size 9 to 14) (size 15 to 20)
#    0.000    2.286    4.286    2.143    0.000    0.000 
#    0.000    0.714    0.000    1.286    1.857    2.500 
#    0.000    0.000    0.000    0.000    0.000    0.000 
#
# Total GULP energy -694171.978672 kJ/mol
# GULP energy per Si atom -12395.928191 kJ/mol
# Density = 1.574896 g / cm^3
# Si number density = 15.784885 Si / 1000 Ang^3
#
#
#
# Elastic Constant Matrix: (Units=GPa)
#
#
# Indices 1 2 3 4 5 6 
#
# 1 111.7861 39.0368 37.3396 0.0000 0.0000 0.0000
# 2 39.0368 84.3527 37.9290 0.0000 0.0000 0.0000
# 3 37.3396 37.9290 68.2686 0.0000 0.0000 0.0000
# 4 0.0000 0.0000 0.0000 21.0518 0.0000 0.0000
# 5 0.0000 0.0000 0.0000 0.0000 19.9022 0.0000
# 6 0.0000 0.0000 0.0000 0.0000 0.0000 22.6313
#
#
#
# Elastic Compliance Matrix: (Units=1/GPa)
#
#
# Indices 1 2 3 4 5 6 
#
# 1 0.011618 -0.003358 -0.004489 0.000000 0.000000 0.000000
# 2 -0.003358 0.016773 -0.007482 0.000000 0.000000 0.000000
# 3 -0.004489 -0.007482 0.021260 0.000000 0.000000 0.000000
# 4 0.000000 0.000000 0.000000 0.047502 0.000000 0.000000
# 5 0.000000 0.000000 0.000000 0.000000 0.050246 0.000000
# 6 0.000000 0.000000 0.000000 0.000000 0.000000 0.044187
#
#
# Mechanical properties :
#
#
# Convention : Reuss Voigt Hill
#
# Bulk Modulus (GPa) = 52.65054 54.77979 53.71517
# Shear Modulus (GPa) = 21.87470 22.72387 22.29929
#
# Velocity S-wave (km/s) = 3.72667 3.79832 3.76267
# Velocity P-wave (km/s) = 7.20728 7.34953 7.27875
#
# Compressibility (1/GPa) = 0.01899316
#
# Stress axis : x y z
#
# Youngs Moduli (GPa) = 86.07588 59.61786 47.03642
#
# Poissons Ratio (x) = 0.20021 0.21113
# Poissons Ratio (y) = 0.28906 0.35194
# Poissons Ratio (z) = 0.38636 0.44608
#
# Static dielectric constant tensor:
#      x y z
#    x 4.179260 0.000000 0.000000 
#    y 0.000000 2.866910 0.000000 
#    z 0.000000 0.000000 2.752320 
# 
# 
# High freq. dielectric constant tensor:
#      x y z
#    x 1.603100 0.000000 0.000000 
#    y 0.000000 1.584170 0.000000 
#    z 0.000000 0.000000 1.584750 
# 
# From -- ./inp_files/56015.got.cif
#   From: 2010.03.12/outbox.cif.g09.slc.cpg/sg63_29_cif.got.tgz:56015.got - 2010.04.10 19:34:48.
