data_PCOD8260035
_publ_section_title
;
Structure prediction by ZEFSAII (Michael W. Deem and Ramdas Pophale) SiO2 
 PCOD8260035
Probable space group: C M C M
;
_chemical_formula_sum "Si O2"
_cell_formula_units_Z 96
_cell_length_a 10.949008
_cell_length_b 25.099433
_cell_length_c 19.217547
_cell_angle_alpha 90.000000
_cell_angle_beta 90.000000
_cell_angle_gamma 90.000000
_cell_volume 5281.248899
_symmetry_space_group_name_H-M "C M C M"
_symmetry_group_IT_number 63
_symmetry_cell_setting 'orthorhombic'
loop_
_space_group_symop_operation_xyz
x,y,z
-x,-y,1/2+z
x,-y,-z
-x,y,1/2-z
-x,-y,-z
x,y,1/2-z
-x,y,z
x,-y,1/2+z
1/2+x,1/2+y,z
1/2-x,1/2-y,1/2+z
1/2+x,1/2-y,-z
1/2-x,1/2+y,1/2-z
1/2-x,1/2-y,-z
1/2+x,1/2+y,1/2-z
1/2-x,1/2+y,z
1/2+x,1/2-y,1/2+z
loop_
_atom_site_type_symbol
_atom_site_label
_atom_site_fract_x
_atom_site_fract_y
_atom_site_fract_z
Si Si1 0.642186 0.255242 0.944109
Si Si2 0.230111 0.865981 0.576375
Si Si3 0.141655 0.558004 0.328221
Si Si4 0.637188 0.138657 0.568936
Si Si5 0.000000 0.049883 0.899816
Si Si6 0.000000 0.070265 0.052708
Si Si7 0.253296 0.053555 0.668072
O O1 0.500000 0.263311 0.972198
O O2 0.683945 0.307058 0.900143
O O3 0.646410 0.199587 0.901572
O O4 0.750000 0.250000 0.000000
O O5 0.333966 0.888649 0.627243
O O6 0.274285 0.868642 0.496792
O O7 0.118185 0.905235 0.587937
O O8 0.187159 0.569281 0.250000
O O9 0.207996 0.505222 0.358236
O O10 0.000000 0.545019 0.330358
O O11 0.500000 0.127361 0.542794
O O12 0.666761 0.098382 0.630593
O O13 0.886270 0.063598 0.851407
O O14 0.000000 0.990784 0.928329
O O15 0.000000 0.084778 0.970283
O O16 0.275033 0.059458 0.750000
#
# Coordination Sequence:
#
# PCOD8260035 Si02
#       7
#    16  16  16  16   8   8  16
#     4   9  19  34  57  84 114 147 187 234 283 337
#     4  11  19  36  59  84 110 144 182 228 282 332
#     4  10  22  38  56  81 112 147 182 222 279 342
#     4  10  21  36  55  84 111 143 188 231 276 327
#     4  11  21  36  52  86 115 146 185 229 277 334
#     4  11  20  32  58  84 116 139 176 231 282 325
#     4  11  22  37  56  78 111 150 188 228 276 334
#
# _framework density 18.177517999999999
#
# number of rings (size 3 to 8) (size 9 to 14) (size 15 to 20)
#    0.000    1.667    4.167    1.250    0.000    2.333 
#    0.000    2.917    0.000    1.000    0.000    0.000 
#    0.000    0.000    0.000    0.000    0.000    0.000 
#
# Total GULP energy -594795.115317 kJ/mol
# GULP energy per Si atom -12391.564902 kJ/mol
# Density = 1.813615 g / cm^3
# Si number density = 18.177518 Si / 1000 Ang^3
#
#
#
# Elastic Constant Matrix: (Units=GPa)
#
#
# Indices 1 2 3 4 5 6 
#
# 1 81.0472 28.0714 7.4308 0.0000 0.0000 0.0000
# 2 28.0714 109.0907 37.8544 0.0000 0.0000 0.0000
# 3 7.4308 37.8544 57.0878 0.0000 0.0000 0.0000
# 4 0.0000 0.0000 0.0000 20.0585 0.0000 0.0000
# 5 0.0000 0.0000 0.0000 0.0000 -8.2850 0.0000
# 6 0.0000 0.0000 0.0000 0.0000 0.0000 39.9967
#
#
#
# Elastic Compliance Matrix: (Units=1/GPa)
#
#
# Indices 1 2 3 4 5 6 
#
# 1 0.013568 -0.003739 0.000713 0.000000 0.000000 0.000000
# 2 -0.003739 0.012936 -0.008091 0.000000 0.000000 0.000000
# 3 0.000713 -0.008091 0.022789 0.000000 0.000000 0.000000
# 4 0.000000 0.000000 0.000000 0.049854 0.000000 0.000000
# 5 0.000000 0.000000 0.000000 0.000000 -0.120700 0.000000
# 6 0.000000 0.000000 0.000000 0.000000 0.000000 0.025002
#
#
# Mechanical properties :
#
#
# Convention : Reuss Voigt Hill
#
# Bulk Modulus (GPa) = 36.95533 43.77099 40.36316
# Shear Modulus (GPa) = 144.07421 21.94531 83.00976
#
# Velocity S-wave (km/s) = 8.91244 3.47836 6.76501
# Velocity P-wave (km/s) = 11.23758 6.34539 9.12544
#
# Compressibility (1/GPa) = 0.02705969
#
# Stress axis : x y z
#
# Youngs Moduli (GPa) = 73.70249 77.30090 43.88008
#
# Poissons Ratio (x) = 0.28901 -0.03129
# Poissons Ratio (y) = 0.27556 0.35505
# Poissons Ratio (z) = -0.05255 0.62547
#
# Static dielectric constant tensor:
#      x y z
#    x 3.538590 0.000000 0.000000 
#    y 0.000000 3.689860 0.000000 
#    z 0.000000 0.000000 3.024290 
# 
# 
# High freq. dielectric constant tensor:
#      x y z
#    x 1.726350 0.000000 0.000000 
#    y 0.000000 1.714560 0.000000 
#    z 0.000000 0.000000 1.663340 
# 
# From -- ./inp_files/42580.got.cif
#   From: 2010.03.12/outbox.cif.g09.slc.cpg/sg63_22_cif.got.tgz:42580.got - 2010.04.10 19:34:48.
