data_PCOD8260163
_publ_section_title
;
Structure prediction by ZEFSAII (Michael W. Deem and Ramdas Pophale) SiO2 
 PCOD8260163
Probable space group: C M C M
;
_chemical_formula_sum "Si O2"
_cell_formula_units_Z 40
_cell_length_a 27.623859
_cell_length_b 4.929892
_cell_length_c 13.480331
_cell_angle_alpha 90.000000
_cell_angle_beta 90.000000
_cell_angle_gamma 90.000000
_cell_volume 1835.787084
_symmetry_space_group_name_H-M "C M C M"
_symmetry_group_IT_number 63
_symmetry_cell_setting 'orthorhombic'
loop_
_space_group_symop_operation_xyz
x,y,z
-x,-y,1/2+z
x,-y,-z
-x,y,1/2-z
-x,-y,-z
x,y,1/2-z
-x,y,z
x,-y,1/2+z
1/2+x,1/2+y,z
1/2-x,1/2-y,1/2+z
1/2+x,1/2-y,-z
1/2-x,1/2+y,1/2-z
1/2-x,1/2-y,-z
1/2+x,1/2+y,1/2-z
1/2-x,1/2+y,z
1/2+x,1/2-y,1/2+z
loop_
_atom_site_type_symbol
_atom_site_label
_atom_site_fract_x
_atom_site_fract_y
_atom_site_fract_z
Si Si1 0.720889 0.469098 0.884374
Si Si2 0.639369 0.733305 0.250000
Si Si3 0.075040 0.252537 0.750000
Si Si4 0.500000 0.244227 0.074576
O O1 0.736494 0.766063 0.846615
O O2 0.670206 0.353509 0.846088
O O3 0.715486 0.500000 0.000000
O O4 0.590863 0.558936 0.250000
O O5 0.621691 0.045620 0.250000
O O6 0.045908 0.283166 0.647492
O O7 0.500000 0.500000 0.000000
O O8 0.500000 0.000000 0.000000
#
# Coordination Sequence:
#
# PCOD8260163 Si02
#       4
#    16   8   8   8
#     4  10  21  37  57  84 122 169 211 247 300 362
#     4  12  22  38  62  91 128 157 204 270 308 352
#     4  11  26  41  64 101 122 155 216 257 310 395
#     4  11  24  47  70  88 126 167 196 253 328 386
#
# _framework density 21.789020000000001
#
# number of rings (size 3 to 8) (size 9 to 14) (size 15 to 20)
#    0.000    1.200    0.000    6.000    0.000    8.000 
#    0.000    0.000    0.000    0.000    0.000    0.000 
#    0.000    0.000    0.000    0.000    0.000    0.000 
#
# Total GULP energy -247761.369552 kJ/mol
# GULP energy per Si atom -12388.068478 kJ/mol
# Density = 2.173943 g / cm^3
# Si number density = 21.789020 Si / 1000 Ang^3
#
#
#
# Elastic Constant Matrix: (Units=GPa)
#
#
# Indices 1 2 3 4 5 6 
#
# 1 93.8495 20.9288 42.3695 0.0000 0.0000 0.0000
# 2 20.9288 118.1901 48.1553 0.0000 0.0000 0.0000
# 3 42.3695 48.1553 158.4709 0.0000 0.0000 0.0000
# 4 0.0000 0.0000 0.0000 27.3088 0.0000 0.0000
# 5 0.0000 0.0000 0.0000 0.0000 23.6938 0.0000
# 6 0.0000 0.0000 0.0000 0.0000 0.0000 49.9757
#
#
#
# Elastic Compliance Matrix: (Units=1/GPa)
#
#
# Indices 1 2 3 4 5 6 
#
# 1 0.012211 -0.000950 -0.002976 0.000000 0.000000 0.000000
# 2 -0.000950 0.009730 -0.002703 0.000000 0.000000 0.000000
# 3 -0.002976 -0.002703 0.007927 0.000000 0.000000 0.000000
# 4 0.000000 0.000000 0.000000 0.036618 0.000000 0.000000
# 5 0.000000 0.000000 0.000000 0.000000 0.042205 0.000000
# 6 0.000000 0.000000 0.000000 0.000000 0.000000 0.020010
#
#
# Mechanical properties :
#
#
# Convention : Reuss Voigt Hill
#
# Bulk Modulus (GPa) = 60.20076 65.93529 63.06803
# Shear Modulus (GPa) = 33.89920 37.46611 35.68265
#
# Velocity S-wave (km/s) = 3.94863 4.15118 4.05117
# Velocity P-wave (km/s) = 6.96260 7.30088 7.13375
#
# Compressibility (1/GPa) = 0.01661109
#
# Stress axis : x y z
#
# Youngs Moduli (GPa) = 81.89503 102.77090 126.14518
#
# Poissons Ratio (x) = 0.09760 0.37543
# Poissons Ratio (y) = 0.07777 0.34096
# Poissons Ratio (z) = 0.24373 0.27778
#
# Static dielectric constant tensor:
#      x y z
#    x 3.807510 0.000000 0.000000 
#    y 0.000000 4.275600 0.000000 
#    z 0.000000 0.000000 4.147830 
# 
# 
# High freq. dielectric constant tensor:
#      x y z
#    x 1.846580 0.000000 0.000000 
#    y 0.000000 1.877940 0.000000 
#    z 0.000000 0.000000 1.878700 
# 
# From -- ./inp_files/37282.got.cif
#   From: 2010.03.12/outbox.cif.g09.slc.cpg/sg63_19_cif.got.tgz:37282.got - 2010.04.10 19:34:48.
