data_PCOD8260997
_publ_section_title
;
Structure prediction by ZEFSAII (Michael W. Deem and Ramdas Pophale) SiO2 
 PCOD8260997
Probable space group: C M C M
;
_chemical_formula_sum "Si O2"
_cell_formula_units_Z 80
_cell_length_a 8.991871
_cell_length_b 27.309186
_cell_length_c 18.813037
_cell_angle_alpha 90.000000
_cell_angle_beta 90.000000
_cell_angle_gamma 90.000000
_cell_volume 4619.742114
_symmetry_space_group_name_H-M "C M C M"
_symmetry_group_IT_number 63
_symmetry_cell_setting 'orthorhombic'
loop_
_space_group_symop_operation_xyz
x,y,z
-x,-y,1/2+z
x,-y,-z
-x,y,1/2-z
-x,-y,-z
x,y,1/2-z
-x,y,z
x,-y,1/2+z
1/2+x,1/2+y,z
1/2-x,1/2-y,1/2+z
1/2+x,1/2-y,-z
1/2-x,1/2+y,1/2-z
1/2-x,1/2-y,-z
1/2+x,1/2+y,1/2-z
1/2-x,1/2+y,z
1/2+x,1/2-y,1/2+z
loop_
_atom_site_type_symbol
_atom_site_label
_atom_site_fract_x
_atom_site_fract_y
_atom_site_fract_z
Si Si1 0.165237 0.390553 0.526011
Si Si2 0.836966 0.564140 0.872432
Si Si3 0.666069 0.477481 0.578487
Si Si4 0.825997 0.332146 0.170894
Si Si5 0.822804 0.797813 0.032324
O O1 0.151127 0.420127 0.453744
O O2 0.239694 0.427241 0.582995
O O3 0.268294 0.343229 0.515233
O O4 0.000000 0.374964 0.552307
O O5 0.730537 0.517142 0.865571
O O6 0.775714 0.610748 0.828463
O O7 0.000000 0.548926 0.844154
O O8 0.667327 0.500000 0.500000
O O9 0.500000 0.464805 0.602700
O O10 0.799473 0.310561 0.250000
O O11 0.729424 0.302076 0.114327
O O12 0.000000 0.329035 0.148749
O O13 0.000000 0.794706 0.029516
O O14 0.750000 0.750000 0.000000
#
# Coordination Sequence:
#
# PCOD8260997 Si02
#       5
#    16  16  16  16  16
#     4   9  16  27  42  61  87 118 152 190 234 281
#     4   8  14  24  39  60  87 119 150 181 221 272
#     4   9  15  22  35  58  87 117 147 179 216 261
#     4   9  18  33  51  71  97 128 161 198 244 297
#     4  11  21  33  49  70  97 127 163 207 254 301
#
# _framework density 17.316983
#
# number of rings (size 3 to 8) (size 9 to 14) (size 15 to 20)
#    0.000    2.800    0.000    4.200    0.000    7.600 
#    0.000    0.000    0.000    0.000    0.000    1.400 
#    0.000    8.000    0.000    0.000    0.000    0.000 
#
# Total GULP energy -495740.933193 kJ/mol
# GULP energy per Si atom -12393.523330 kJ/mol
# Density = 1.727757 g / cm^3
# Si number density = 17.316983 Si / 1000 Ang^3
#
#
#
# Elastic Constant Matrix: (Units=GPa)
#
#
# Indices 1 2 3 4 5 6 
#
# 1 146.4030 65.7239 38.2492 0.0000 0.0000 0.0000
# 2 65.7239 103.0550 40.3514 0.0000 0.0000 0.0000
# 3 38.2492 40.3514 46.6500 0.0000 0.0000 0.0000
# 4 0.0000 0.0000 0.0000 12.8992 0.0000 0.0000
# 5 0.0000 0.0000 0.0000 0.0000 13.8199 0.0000
# 6 0.0000 0.0000 0.0000 0.0000 0.0000 32.2982
#
#
#
# Elastic Compliance Matrix: (Units=1/GPa)
#
#
# Indices 1 2 3 4 5 6 
#
# 1 0.010059 -0.004818 -0.004081 0.000000 0.000000 0.000000
# 2 -0.004818 0.016980 -0.010738 0.000000 0.000000 0.000000
# 3 -0.004081 -0.010738 0.034070 0.000000 0.000000 0.000000
# 4 0.000000 0.000000 0.000000 0.077524 0.000000 0.000000
# 5 0.000000 0.000000 0.000000 0.000000 0.072360 0.000000
# 6 0.000000 0.000000 0.000000 0.000000 0.000000 0.030961
#
#
# Mechanical properties :
#
#
# Convention : Reuss Voigt Hill
#
# Bulk Modulus (GPa) = 45.79232 64.97300 55.38266
# Shear Modulus (GPa) = 17.33066 21.92236 19.62651
#
# Velocity S-wave (km/s) = 3.16696 3.56187 3.37021
# Velocity P-wave (km/s) = 6.31457 7.38358 6.86990
#
# Compressibility (1/GPa) = 0.02183772
#
# Stress axis : x y z
#
# Youngs Moduli (GPa) = 99.41036 58.89150 29.35134
#
# Poissons Ratio (x) = 0.28371 0.11977
# Poissons Ratio (y) = 0.47892 0.31517
# Poissons Ratio (z) = 0.40566 0.63236
#
# Static dielectric constant tensor:
#      x y z
#    x 3.446270 0.000000 0.000000 
#    y 0.000000 3.240260 0.000000 
#    z 0.000000 0.000000 2.937080 
# 
# 
# High freq. dielectric constant tensor:
#      x y z
#    x 1.678170 0.000000 0.000000 
#    y 0.000000 1.656930 0.000000 
#    z 0.000000 0.000000 1.612050 
# 
# From -- ./inp_files/51563.got.cif
#   From: 2010.03.12/outbox.cif.g09.slc.cpg/sg63_26_cif.got.tgz:51563.got - 2010.04.10 19:34:48.
