data_PCOD8260307
_publ_section_title
;
Structure prediction by ZEFSAII (Michael W. Deem and Ramdas Pophale) SiO2 
 PCOD8260307
Probable space group: C M C M
;
_chemical_formula_sum "Si O2"
_cell_formula_units_Z 56
_cell_length_a 17.700754
_cell_length_b 9.407876
_cell_length_c 13.417065
_cell_angle_alpha 90.000000
_cell_angle_beta 90.000000
_cell_angle_gamma 90.000000
_cell_volume 2234.296858
_symmetry_space_group_name_H-M "C M C M"
_symmetry_group_IT_number 63
_symmetry_cell_setting 'orthorhombic'
loop_
_space_group_symop_operation_xyz
x,y,z
-x,-y,1/2+z
x,-y,-z
-x,y,1/2-z
-x,-y,-z
x,y,1/2-z
-x,y,z
x,-y,1/2+z
1/2+x,1/2+y,z
1/2-x,1/2-y,1/2+z
1/2+x,1/2-y,-z
1/2-x,1/2+y,1/2-z
1/2-x,1/2-y,-z
1/2+x,1/2+y,1/2-z
1/2-x,1/2+y,z
1/2+x,1/2-y,1/2+z
loop_
_atom_site_type_symbol
_atom_site_label
_atom_site_fract_x
_atom_site_fract_y
_atom_site_fract_z
Si Si1 0.860369 0.000000 0.000000
Si Si2 0.415337 0.049577 0.633835
Si Si3 0.620564 0.738372 0.634963
Si Si4 0.795757 0.225639 0.363811
O O1 0.805801 0.081215 0.076346
O O2 0.911926 0.889394 0.065267
O O3 0.397645 0.033467 0.750000
O O4 0.500000 0.106380 0.613026
O O5 0.406974 0.889923 0.589539
O O6 0.353270 0.157422 0.589790
O O7 0.593673 0.720430 0.750000
O O8 0.710652 0.721578 0.625335
O O9 0.816507 0.192016 0.250000
#
# Coordination Sequence:
#
# PCOD8260307 Si02
#       4
#     8  16  16  16
#     4  12  22  34  57  88 119 152 192 242 298 350
#     4   9  19  39  64  85 113 158 203 241 286 344
#     4  10  21  38  60  87 119 155 197 243 290 345
#     4  10  21  38  60  87 119 155 197 243 290 345
#
# _framework density 25.063814000000001
#
# number of rings (size 3 to 8) (size 9 to 14) (size 15 to 20)
#    0.000    2.000    0.000    3.429    0.000    5.714 
#    0.000    5.714    0.000    6.857    0.000    0.000 
#    0.000    0.000    0.000    0.000    0.000    0.000 
#
# Total GULP energy -347139.392193 kJ/mol
# GULP energy per Si atom -12397.835435 kJ/mol
# Density = 2.500677 g / cm^3
# Si number density = 25.063814 Si / 1000 Ang^3
#
#
#
# Elastic Constant Matrix: (Units=GPa)
#
#
# Indices 1 2 3 4 5 6 
#
# 1 98.0307 32.1421 6.5010 0.0000 0.0000 0.0000
# 2 32.1421 165.0985 36.9741 0.0000 0.0000 0.0000
# 3 6.5010 36.9741 36.3945 0.0000 0.0000 0.0000
# 4 0.0000 0.0000 0.0000 33.5624 0.0000 0.0000
# 5 0.0000 0.0000 0.0000 0.0000 4.7237 0.0000
# 6 0.0000 0.0000 0.0000 0.0000 0.0000 31.5144
#
#
#
# Elastic Compliance Matrix: (Units=1/GPa)
#
#
# Indices 1 2 3 4 5 6 
#
# 1 0.010898 -0.002182 0.000270 0.000000 0.000000 0.000000
# 2 -0.002182 0.008278 -0.008020 0.000000 0.000000 0.000000
# 3 0.000270 -0.008020 0.035576 0.000000 0.000000 0.000000
# 4 0.000000 0.000000 0.000000 0.029795 0.000000 0.000000
# 5 0.000000 0.000000 0.000000 0.000000 0.211697 0.000000
# 6 0.000000 0.000000 0.000000 0.000000 0.000000 0.031732
#
#
# Mechanical properties :
#
#
# Convention : Reuss Voigt Hill
#
# Bulk Modulus (GPa) = 28.66265 50.08423 39.37344
# Shear Modulus (GPa) = 13.90937 28.88719 21.39828
#
# Velocity S-wave (km/s) = 2.35831 3.39860 2.92507
# Velocity P-wave (km/s) = 4.34468 5.95203 5.21071
#
# Compressibility (1/GPa) = 0.03488860
#
# Stress axis : x y z
#
# Youngs Moduli (GPa) = 91.75583 120.80316 28.10876
#
# Poissons Ratio (x) = 0.26363 -0.00760
# Poissons Ratio (y) = 0.20024 0.22543
# Poissons Ratio (z) = -0.02480 0.96884
#
# Static dielectric constant tensor:
#      x y z
#    x 3.985710 0.000000 0.000000 
#    y 0.000000 4.651880 0.000000 
#    z 0.000000 0.000000 4.869680 
# 
# 
# High freq. dielectric constant tensor:
#      x y z
#    x 1.960540 0.000000 0.000000 
#    y 0.000000 2.001990 0.000000 
#    z 0.000000 0.000000 2.025250 
# 
# From -- ./inp_files/34733.got.cif
#   From: 2010.03.12/outbox.cif.g09.slc.cpg/sg63_18_cif.got.tgz:34733.got - 2010.04.10 19:34:48.
