data_PCOD8260225
_publ_section_title
;
Structure prediction by ZEFSAII (Michael W. Deem and Ramdas Pophale) SiO2 
 PCOD8260225
Probable space group: C M C M
;
_chemical_formula_sum "Si O2"
_cell_formula_units_Z 80
_cell_length_a 8.794622
_cell_length_b 22.902059
_cell_length_c 20.395853
_cell_angle_alpha 90.000000
_cell_angle_beta 90.000000
_cell_angle_gamma 90.000000
_cell_volume 4108.029751
_symmetry_space_group_name_H-M "C M C M"
_symmetry_group_IT_number 63
_symmetry_cell_setting 'orthorhombic'
loop_
_space_group_symop_operation_xyz
x,y,z
-x,-y,1/2+z
x,-y,-z
-x,y,1/2-z
-x,-y,-z
x,y,1/2-z
-x,y,z
x,-y,1/2+z
1/2+x,1/2+y,z
1/2-x,1/2-y,1/2+z
1/2+x,1/2-y,-z
1/2-x,1/2+y,1/2-z
1/2-x,1/2-y,-z
1/2+x,1/2+y,1/2-z
1/2-x,1/2+y,z
1/2+x,1/2-y,1/2+z
loop_
_atom_site_type_symbol
_atom_site_label
_atom_site_fract_x
_atom_site_fract_y
_atom_site_fract_z
Si Si1 0.324184 0.874474 0.883464
Si Si2 0.681067 0.065257 0.750000
Si Si3 0.325103 0.567718 0.504526
Si Si4 0.679662 0.933288 0.750000
Si Si5 0.821263 0.367263 0.122009
Si Si6 0.174906 0.753785 0.428812
O O1 0.500000 0.891946 0.896322
O O2 0.214838 0.903949 0.935655
O O3 0.265573 0.897385 0.813378
O O4 0.303248 0.805064 0.887410
O O5 0.500000 0.062757 0.750000
O O6 0.741487 0.099670 0.686279
O O7 0.747640 0.999181 0.750000
O O8 0.290480 0.500000 0.500000
O O9 0.500000 0.580895 0.522025
O O10 0.216364 0.593912 0.559336
O O11 0.500000 0.937526 0.750000
O O12 0.745755 0.304057 0.116072
O O13 0.000000 0.357974 0.126134
O O14 0.250000 0.750000 0.500000
O O15 0.000000 0.768249 0.441482
#
# Coordination Sequence:
#
# PCOD8260225 Si02
#       6
#    16   8  16   8  16  16
#     4  10  21  37  61  87 113 153 198 241 294 352
#     4   9  20  37  59  87 119 153 194 247 299 348
#     4  11  23  37  56  85 118 152 195 247 299 352
#     4   9  18  37  61  87 117 149 196 251 293 348
#     4  11  22  38  61  87 116 157 202 244 295 353
#     4  11  22  37  59  89 122 156 197 248 299 350
#
# _framework density 19.474056000000001
#
# number of rings (size 3 to 8) (size 9 to 14) (size 15 to 20)
#    0.000    1.600    2.000    3.000    0.000    4.800 
#    0.000    3.500    0.000    4.800    0.000    0.000 
#    0.000    0.000    0.000    0.000    0.000    0.000 
#
# Total GULP energy -496139.716703 kJ/mol
# GULP energy per Si atom -12403.492918 kJ/mol
# Density = 1.942973 g / cm^3
# Si number density = 19.474056 Si / 1000 Ang^3
#
#
#
# Elastic Constant Matrix: (Units=GPa)
#
#
# Indices 1 2 3 4 5 6 
#
# 1 61.1975 46.1274 24.6422 0.0000 0.0000 0.0000
# 2 46.1274 158.6016 75.1497 0.0000 0.0000 0.0000
# 3 24.6422 75.1497 151.4942 0.0000 0.0000 0.0000
# 4 0.0000 0.0000 0.0000 47.5870 0.0000 0.0000
# 5 0.0000 0.0000 0.0000 0.0000 31.3705 0.0000
# 6 0.0000 0.0000 0.0000 0.0000 0.0000 44.3551
#
#
#
# Elastic Compliance Matrix: (Units=1/GPa)
#
#
# Indices 1 2 3 4 5 6 
#
# 1 0.020958 -0.005857 -0.000504 0.000000 0.000000 0.000000
# 2 -0.005857 0.009879 -0.003948 0.000000 0.000000 0.000000
# 3 -0.000504 -0.003948 0.008641 0.000000 0.000000 0.000000
# 4 0.000000 0.000000 0.000000 0.021014 0.000000 0.000000
# 5 0.000000 0.000000 0.000000 0.000000 0.031877 0.000000
# 6 0.000000 0.000000 0.000000 0.000000 0.000000 0.022545
#
#
# Mechanical properties :
#
#
# Convention : Reuss Voigt Hill
#
# Bulk Modulus (GPa) = 53.01829 73.68134 63.34982
# Shear Modulus (GPa) = 35.25631 39.68744 37.47188
#
# Velocity S-wave (km/s) = 4.25952 4.51928 4.39132
# Velocity P-wave (km/s) = 7.17465 8.07153 7.63627
#
# Compressibility (1/GPa) = 0.01886142
#
# Stress axis : x y z
#
# Youngs Moduli (GPa) = 47.71492 101.22403 115.72381
#
# Poissons Ratio (x) = 0.59283 0.05830
# Poissons Ratio (y) = 0.27945 0.45687
# Poissons Ratio (z) = 0.02404 0.39963
#
# Static dielectric constant tensor:
#      x y z
#    x 3.413820 0.000000 0.000000 
#    y 0.000000 3.777470 0.000000 
#    z 0.000000 0.000000 3.666430 
# 
# 
# High freq. dielectric constant tensor:
#      x y z
#    x 1.744490 0.000000 0.000000 
#    y 0.000000 1.777980 0.000000 
#    z 0.000000 0.000000 1.761000 
# 
# From -- ./inp_files/50908.got.cif
#   From: 2010.03.12/outbox.cif.g09.slc.cpg/sg63_26_cif.got.tgz:50908.got - 2010.04.10 19:34:48.
