data_PCOD8260979
_publ_section_title
;
Structure prediction by ZEFSAII (Michael W. Deem and Ramdas Pophale) SiO2 
 PCOD8260979
Probable space group: C M C M
;
_chemical_formula_sum "Si O2"
_cell_formula_units_Z 80
_cell_length_a 27.743359
_cell_length_b 18.140546
_cell_length_c 9.067437
_cell_angle_alpha 90.000000
_cell_angle_beta 90.000000
_cell_angle_gamma 90.000000
_cell_volume 4563.456793
_symmetry_space_group_name_H-M "C M C M"
_symmetry_group_IT_number 63
_symmetry_cell_setting 'orthorhombic'
loop_
_space_group_symop_operation_xyz
x,y,z
-x,-y,1/2+z
x,-y,-z
-x,y,1/2-z
-x,-y,-z
x,y,1/2-z
-x,y,z
x,-y,1/2+z
1/2+x,1/2+y,z
1/2-x,1/2-y,1/2+z
1/2+x,1/2-y,-z
1/2-x,1/2+y,1/2-z
1/2-x,1/2-y,-z
1/2+x,1/2+y,1/2-z
1/2-x,1/2+y,z
1/2+x,1/2-y,1/2+z
loop_
_atom_site_type_symbol
_atom_site_label
_atom_site_fract_x
_atom_site_fract_y
_atom_site_fract_z
Si Si1 0.552816 0.773320 0.425968
Si Si2 0.194564 0.635573 0.919355
Si Si3 0.909267 0.427006 0.082077
Si Si4 0.150667 0.787768 0.575077
Si Si5 0.787064 0.076228 0.425295
O O1 0.554684 0.774646 0.250000
O O2 0.500000 0.746717 0.482095
O O3 0.562966 0.856052 0.484139
O O4 0.595423 0.719290 0.484770
O O5 0.212917 0.636695 0.750000
O O6 0.147849 0.584491 0.933865
O O7 0.182596 0.718037 0.977319
O O8 0.234339 0.600884 0.024925
O O9 0.924261 0.437812 0.250000
O O10 0.926410 0.500000 0.000000
O O11 0.149662 0.785203 0.750000
O O12 0.174164 0.863360 0.518626
O O13 0.787304 0.067146 0.250000
O O14 0.802416 0.000000 0.500000
#
# Coordination Sequence:
#
# PCOD8260979 Si02
#       5
#    16  16  16  16  16
#     4   8  14  27  47  67  85 110 147 187 224 261
#     4   9  17  31  48  66  91 121 153 185 217 256
#     4   9  17  27  41  64  93 121 147 178 214 254
#     4   8  16  30  47  67  90 116 148 187 224 262
#     4  11  21  31  45  67  94 121 150 183 222 266
#
# _framework density 17.530570000000001
#
# number of rings (size 3 to 8) (size 9 to 14) (size 15 to 20)
#    0.000    3.000    0.000    4.200    0.000    2.800 
#    0.000    1.000    0.000    3.000    0.000    0.000 
#    0.000    0.000    0.000    0.000    0.000    0.200 
#
# Total GULP energy -495757.490701 kJ/mol
# GULP energy per Si atom -12393.937268 kJ/mol
# Density = 1.749067 g / cm^3
# Si number density = 17.530570 Si / 1000 Ang^3
#
#
#
# Elastic Constant Matrix: (Units=GPa)
#
#
# Indices 1 2 3 4 5 6 
#
# 1 74.6708 25.1184 9.5618 0.0000 0.0000 0.0000
# 2 25.1184 86.2310 15.3494 0.0000 0.0000 0.0000
# 3 9.5618 15.3494 33.4499 0.0000 0.0000 0.0000
# 4 0.0000 0.0000 0.0000 21.8450 0.0000 0.0000
# 5 0.0000 0.0000 0.0000 0.0000 12.5982 0.0000
# 6 0.0000 0.0000 0.0000 0.0000 0.0000 12.4205
#
#
#
# Elastic Compliance Matrix: (Units=1/GPa)
#
#
# Indices 1 2 3 4 5 6 
#
# 1 0.015035 -0.003936 -0.002492 0.000000 0.000000 0.000000
# 2 -0.003936 0.013659 -0.005142 0.000000 0.000000 0.000000
# 3 -0.002492 -0.005142 0.032967 0.000000 0.000000 0.000000
# 4 0.000000 0.000000 0.000000 0.045777 0.000000 0.000000
# 5 0.000000 0.000000 0.000000 0.000000 0.079376 0.000000
# 6 0.000000 0.000000 0.000000 0.000000 0.000000 0.080512
#
#
# Mechanical properties :
#
#
# Convention : Reuss Voigt Hill
#
# Bulk Modulus (GPa) = 25.96001 32.71232 29.33617
# Shear Modulus (GPa) = 16.48492 18.99424 17.73958
#
# Velocity S-wave (km/s) = 3.06984 3.29522 3.18452
# Velocity P-wave (km/s) = 5.23506 5.76009 5.50384
#
# Compressibility (1/GPa) = 0.03852078
#
# Stress axis : x y z
#
# Youngs Moduli (GPa) = 66.51043 73.21344 30.33293
#
# Poissons Ratio (x) = 0.28818 0.07558
# Poissons Ratio (y) = 0.26179 0.15599
# Poissons Ratio (z) = 0.16572 0.37650
#
# Static dielectric constant tensor:
#      x y z
#    x 3.503220 0.000000 0.000000 
#    y 0.000000 3.421460 0.000000 
#    z 0.000000 0.000000 2.871920 
# 
# 
# High freq. dielectric constant tensor:
#      x y z
#    x 1.675360 0.000000 0.000000 
#    y 0.000000 1.669060 0.000000 
#    z 0.000000 0.000000 1.637280 
# 
# From -- ./inp_files/11990.got.cif
#   From: 2010.03.12/outbox.cif.g09.slc.cpg/sg63_6_cif.got.tgz:11990.got - 2010.04.10 19:34:48.
