data_PCOD8260992
_publ_section_title
;
Structure prediction by ZEFSAII (Michael W. Deem and Ramdas Pophale) SiO2 
 PCOD8260992
Probable space group: C M C M
;
_chemical_formula_sum "Si O2"
_cell_formula_units_Z 80
_cell_length_a 27.682794
_cell_length_b 17.884310
_cell_length_c 8.946653
_cell_angle_alpha 90.000000
_cell_angle_beta 90.000000
_cell_angle_gamma 90.000000
_cell_volume 4429.377584
_symmetry_space_group_name_H-M "C M C M"
_symmetry_group_IT_number 63
_symmetry_cell_setting 'orthorhombic'
loop_
_space_group_symop_operation_xyz
x,y,z
-x,-y,1/2+z
x,-y,-z
-x,y,1/2-z
-x,-y,-z
x,y,1/2-z
-x,y,z
x,-y,1/2+z
1/2+x,1/2+y,z
1/2-x,1/2-y,1/2+z
1/2+x,1/2-y,-z
1/2-x,1/2+y,1/2-z
1/2-x,1/2-y,-z
1/2+x,1/2+y,1/2-z
1/2-x,1/2+y,z
1/2+x,1/2-y,1/2+z
loop_
_atom_site_type_symbol
_atom_site_label
_atom_site_fract_x
_atom_site_fract_y
_atom_site_fract_z
Si Si1 0.402498 0.924321 0.573610
Si Si2 0.945889 0.714182 0.578352
Si Si3 0.148260 0.797591 0.921499
Si Si4 0.810615 0.637985 0.923968
Si Si5 0.793231 0.079418 0.925539
O O1 0.403290 0.932313 0.750000
O O2 0.437702 0.857571 0.524848
O O3 0.347865 0.910491 0.519589
O O4 0.422519 0.000000 0.500000
O O5 0.937439 0.689225 0.750000
O O6 0.907556 0.779008 0.538663
O O7 0.000000 0.745199 0.552462
O O8 0.153883 0.822356 0.750000
O O9 0.181556 0.725625 0.955903
O O10 0.163938 0.865576 0.025733
O O11 0.819302 0.619867 0.750000
O O12 0.757406 0.615224 0.977747
O O13 0.795106 0.068689 0.750000
O O14 0.801441 0.000000 0.000000
#
# Coordination Sequence:
#
# PCOD8260992 Si02
#       5
#    16  16  16  16  16
#     4  11  21  32  49  74 106 141 175 212 252 295
#     4   9  19  37  58  77  99 130 168 211 260 310
#     4   9  18  34  55  78 104 132 165 207 254 306
#     4   9  19  35  53  75 104 139 176 209 247 297
#     4  11  22  34  51  76 106 139 173 210 252 299
#
# _framework density 18.061228
#
# number of rings (size 3 to 8) (size 9 to 14) (size 15 to 20)
#    0.000    2.200    0.000    4.800    0.000    7.200 
#    0.000    0.000    0.000    0.600    0.000    0.000 
#    0.000    0.000    0.000    0.000    0.000    0.000 
#
# Total GULP energy -496113.160049 kJ/mol
# GULP energy per Si atom -12402.829001 kJ/mol
# Density = 1.802012 g / cm^3
# Si number density = 18.061228 Si / 1000 Ang^3
#
#
#
# Elastic Constant Matrix: (Units=GPa)
#
#
# Indices 1 2 3 4 5 6 
#
# 1 117.3468 54.2060 35.3677 0.0000 0.0000 0.0000
# 2 54.2060 96.2752 41.2178 0.0000 0.0000 0.0000
# 3 35.3677 41.2178 82.8983 0.0000 0.0000 0.0000
# 4 0.0000 0.0000 0.0000 30.5841 0.0000 0.0000
# 5 0.0000 0.0000 0.0000 0.0000 23.7914 0.0000
# 6 0.0000 0.0000 0.0000 0.0000 0.0000 11.1632
#
#
#
# Elastic Compliance Matrix: (Units=1/GPa)
#
#
# Indices 1 2 3 4 5 6 
#
# 1 0.011826 -0.005715 -0.002204 0.000000 0.000000 0.000000
# 2 -0.005715 0.015957 -0.005496 0.000000 0.000000 0.000000
# 3 -0.002204 -0.005496 0.015736 0.000000 0.000000 0.000000
# 4 0.000000 0.000000 0.000000 0.032697 0.000000 0.000000
# 5 0.000000 0.000000 0.000000 0.000000 0.042032 0.000000
# 6 0.000000 0.000000 0.000000 0.000000 0.000000 0.089580
#
#
# Mechanical properties :
#
#
# Convention : Reuss Voigt Hill
#
# Bulk Modulus (GPa) = 59.91701 62.01146 60.96424
# Shear Modulus (GPa) = 20.81419 24.15631 22.48525
#
# Velocity S-wave (km/s) = 3.39842 3.66111 3.53221
# Velocity P-wave (km/s) = 6.97463 7.23050 7.10372
#
# Compressibility (1/GPa) = 0.01668975
#
# Stress axis : x y z
#
# Youngs Moduli (GPa) = 84.56066 62.66652 63.54873
#
# Poissons Ratio (x) = 0.35812 0.14006
# Poissons Ratio (y) = 0.48324 0.34927
# Poissons Ratio (z) = 0.18637 0.34442
#
# Static dielectric constant tensor:
#      x y z
#    x 3.368780 0.000000 0.000000 
#    y 0.000000 3.182450 0.000000 
#    z 0.000000 0.000000 3.266050 
# 
# 
# High freq. dielectric constant tensor:
#      x y z
#    x 1.693660 0.000000 0.000000 
#    y 0.000000 1.684360 0.000000 
#    z 0.000000 0.000000 1.700010 
# 
# From -- ./inp_files/11967.got.cif
#   From: 2010.03.12/outbox.cif.g09.slc.cpg/sg63_6_cif.got.tgz:11967.got - 2010.04.10 19:34:48.
