data_PCOD8260376
_publ_section_title
;
Structure prediction by ZEFSAII (Michael W. Deem and Ramdas Pophale) SiO2 
 PCOD8260376
Probable space group: C M C M
;
_chemical_formula_sum "Si O2"
_cell_formula_units_Z 88
_cell_length_a 16.866104
_cell_length_b 20.598662
_cell_length_c 13.087620
_cell_angle_alpha 90.000000
_cell_angle_beta 90.000000
_cell_angle_gamma 90.000000
_cell_volume 4546.890150
_symmetry_space_group_name_H-M "C M C M"
_symmetry_group_IT_number 63
_symmetry_cell_setting 'orthorhombic'
loop_
_space_group_symop_operation_xyz
x,y,z
-x,-y,1/2+z
x,-y,-z
-x,y,1/2-z
-x,-y,-z
x,y,1/2-z
-x,y,z
x,-y,1/2+z
1/2+x,1/2+y,z
1/2-x,1/2-y,1/2+z
1/2+x,1/2-y,-z
1/2-x,1/2+y,1/2-z
1/2-x,1/2-y,-z
1/2+x,1/2+y,1/2-z
1/2-x,1/2+y,z
1/2+x,1/2-y,1/2+z
loop_
_atom_site_type_symbol
_atom_site_label
_atom_site_fract_x
_atom_site_fract_y
_atom_site_fract_z
Si Si1 0.175545 0.207070 0.974842
Si Si2 0.408149 0.385043 0.630709
Si Si3 0.907799 0.682098 0.138196
Si Si4 0.909235 0.575980 0.520091
Si Si5 0.157007 0.000000 0.000000
Si Si6 0.244417 0.406829 0.133544
O O1 0.109591 0.253083 0.925734
O O2 0.204685 0.156730 0.890295
O O3 0.250000 0.250000 0.000000
O O4 0.142646 0.171968 0.076892
O O5 0.382043 0.392311 0.750000
O O6 0.500000 0.365740 0.624538
O O7 0.396985 0.451871 0.567678
O O8 0.865553 0.682854 0.250000
O O9 0.882026 0.616204 0.080185
O O10 0.000000 0.680312 0.155728
O O11 0.900739 0.500000 0.500000
O O12 0.849226 0.599331 0.607999
O O13 0.000000 0.593151 0.551878
O O14 0.217124 0.034166 0.924841
O O15 0.252747 0.423505 0.250000
#
# Coordination Sequence:
#
# PCOD8260376 Si02
#       6
#    16  16  16  16   8  16
#     4  11  22  39  58  86 121 155 193 244 290 348
#     4  10  22  40  64  92 122 160 201 244 300 357
#     4  10  21  39  62  84 112 153 195 237 290 351
#     4  10  21  39  58  84 117 152 197 244 292 350
#     4  10  21  40  61  90 122 158 192 250 295 358
#     4  11  22  37  58  87 118 153 197 242 295 351
#
# _framework density 19.353888000000001
#
# number of rings (size 3 to 8) (size 9 to 14) (size 15 to 20)
#    0.000    1.636    2.727    1.909    0.000    2.545 
#    0.000    1.818    0.000    8.727    0.000    0.000 
#    0.000    0.000    0.000    0.000    0.000    0.000 
#
# Total GULP energy -545460.869962 kJ/mol
# GULP energy per Si atom -12396.837954 kJ/mol
# Density = 1.930984 g / cm^3
# Si number density = 19.353888 Si / 1000 Ang^3
#
#
#
# Elastic Constant Matrix: (Units=GPa)
#
#
# Indices 1 2 3 4 5 6 
#
# 1 71.3280 32.2947 43.7243 0.0000 0.0000 0.0000
# 2 32.2947 129.4982 71.9275 0.0000 0.0000 0.0000
# 3 43.7243 71.9275 161.1911 0.0000 0.0000 0.0000
# 4 0.0000 0.0000 0.0000 17.7395 0.0000 0.0000
# 5 0.0000 0.0000 0.0000 0.0000 28.4263 0.0000
# 6 0.0000 0.0000 0.0000 0.0000 0.0000 30.8072
#
#
#
# Elastic Compliance Matrix: (Units=1/GPa)
#
#
# Indices 1 2 3 4 5 6 
#
# 1 0.017304 -0.002271 -0.003680 0.000000 0.000000 0.000000
# 2 -0.002271 0.010565 -0.004098 0.000000 0.000000 0.000000
# 3 -0.003680 -0.004098 0.009031 0.000000 0.000000 0.000000
# 4 0.000000 0.000000 0.000000 0.056371 0.000000 0.000000
# 5 0.000000 0.000000 0.000000 0.000000 0.035179 0.000000
# 6 0.000000 0.000000 0.000000 0.000000 0.000000 0.032460
#
#
# Mechanical properties :
#
#
# Convention : Reuss Voigt Hill
#
# Bulk Modulus (GPa) = 59.52292 73.10115 66.31204
# Shear Modulus (GPa) = 26.79392 29.66598 28.22995
#
# Velocity S-wave (km/s) = 3.72482 3.91937 3.82333
# Velocity P-wave (km/s) = 7.02288 7.63772 7.33674
#
# Compressibility (1/GPa) = 0.01680025
#
# Stress axis : x y z
#
# Youngs Moduli (GPa) = 57.78960 94.65416 110.73113
#
# Poissons Ratio (x) = 0.21497 0.40754
# Poissons Ratio (y) = 0.13125 0.45380
# Poissons Ratio (z) = 0.21269 0.38791
#
# Static dielectric constant tensor:
#      x y z
#    x 3.578580 0.000000 0.000000 
#    y 0.000000 3.174170 0.000000 
#    z 0.000000 0.000000 3.708660 
# 
# 
# High freq. dielectric constant tensor:
#      x y z
#    x 1.759820 0.000000 0.000000 
#    y 0.000000 1.762700 0.000000 
#    z 0.000000 0.000000 1.752440 
# 
# From -- ./inp_files/21139.got.cif
#   From: 2010.03.12/outbox.cif.g09.slc.cpg/sg63_11_cif.got.tgz:21139.got - 2010.04.10 19:34:48.
