data_PCOD8260350
_publ_section_title
;
Structure prediction by ZEFSAII (Michael W. Deem and Ramdas Pophale) SiO2 
 PCOD8260350
Probable space group: C M C M
;
_chemical_formula_sum "Si O2"
_cell_formula_units_Z 40
_cell_length_a 9.679470
_cell_length_b 11.477004
_cell_length_c 16.697232
_cell_angle_alpha 90.000000
_cell_angle_beta 90.000000
_cell_angle_gamma 90.000000
_cell_volume 1854.917475
_symmetry_space_group_name_H-M "C M C M"
_symmetry_group_IT_number 63
_symmetry_cell_setting 'orthorhombic'
loop_
_space_group_symop_operation_xyz
x,y,z
-x,-y,1/2+z
x,-y,-z
-x,y,1/2-z
-x,-y,-z
x,y,1/2-z
-x,y,z
x,-y,1/2+z
1/2+x,1/2+y,z
1/2-x,1/2-y,1/2+z
1/2+x,1/2-y,-z
1/2-x,1/2+y,1/2-z
1/2-x,1/2-y,-z
1/2+x,1/2+y,1/2-z
1/2-x,1/2+y,z
1/2+x,1/2-y,1/2+z
loop_
_atom_site_type_symbol
_atom_site_label
_atom_site_fract_x
_atom_site_fract_y
_atom_site_fract_z
Si Si1 0.000000 0.017167 0.593925
Si Si2 0.000000 0.400857 0.433370
Si Si3 0.500000 0.216103 0.414067
Si Si4 0.708423 0.038052 0.344164
O O1 0.000000 0.152907 0.617010
O O2 0.000000 0.000000 0.500000
O O3 0.131915 0.955882 0.632937
O O4 0.000000 0.500000 0.500000
O O5 0.000000 0.282824 0.486848
O O6 0.862633 0.419711 0.379464
O O7 0.636241 0.152517 0.380496
O O8 0.687829 0.037409 0.250000
#
# Coordination Sequence:
#
# PCOD8260350 Si02
#       4
#     8   8   8  16
#     4  12  25  40  62  92 124 160 205 249 293 358
#     4   8  16  35  61  86 115 157 202 241 293 361
#     4  10  22  43  64  84 122 167 198 244 307 355
#     4  10  21  38  62  92 122 155 201 253 304 358
#
# _framework density 21.564301
#
# number of rings (size 3 to 8) (size 9 to 14) (size 15 to 20)
#    0.000    2.400    0.000    6.600    0.000    9.600 
#    0.000    2.000    0.000   12.000    0.000    0.000 
#    0.000    0.000    0.000    0.000    0.000    0.000 
#
# Total GULP energy -247923.664794 kJ/mol
# GULP energy per Si atom -12396.183240 kJ/mol
# Density = 2.151522 g / cm^3
# Si number density = 21.564301 Si / 1000 Ang^3
#
#
#
# Elastic Constant Matrix: (Units=GPa)
#
#
# Indices 1 2 3 4 5 6 
#
# 1 192.8423 40.9733 52.5453 0.0000 0.0000 0.0000
# 2 40.9733 80.6001 21.1981 0.0000 0.0000 0.0000
# 3 52.5453 21.1981 155.9054 0.0000 0.0000 0.0000
# 4 0.0000 0.0000 0.0000 14.5826 0.0000 0.0000
# 5 0.0000 0.0000 0.0000 0.0000 29.3414 0.0000
# 6 0.0000 0.0000 0.0000 0.0000 0.0000 14.6592
#
#
#
# Elastic Compliance Matrix: (Units=1/GPa)
#
#
# Indices 1 2 3 4 5 6 
#
# 1 0.006234 -0.002714 -0.001732 0.000000 0.000000 0.000000
# 2 -0.002714 0.014048 -0.000996 0.000000 0.000000 0.000000
# 3 -0.001732 -0.000996 0.007133 0.000000 0.000000 0.000000
# 4 0.000000 0.000000 0.000000 0.068575 0.000000 0.000000
# 5 0.000000 0.000000 0.000000 0.000000 0.034082 0.000000
# 6 0.000000 0.000000 0.000000 0.000000 0.000000 0.068217
#
#
# Mechanical properties :
#
#
# Convention : Reuss Voigt Hill
#
# Bulk Modulus (GPa) = 60.48466 73.19791 66.84128
# Shear Modulus (GPa) = 23.29023 32.69204 27.99114
#
# Velocity S-wave (km/s) = 3.28996 3.89784 3.60673
# Velocity P-wave (km/s) = 6.52236 7.36718 6.95760
#
# Compressibility (1/GPa) = 0.01653312
#
# Stress axis : x y z
#
# Youngs Moduli (GPa) = 160.40787 71.18339 140.18766
#
# Poissons Ratio (x) = 0.19316 0.24282
# Poissons Ratio (y) = 0.43528 0.13956
# Poissons Ratio (z) = 0.27785 0.07087
#
# Static dielectric constant tensor:
#      x y z
#    x 3.821290 0.000000 0.000000 
#    y 0.000000 3.912830 0.000000 
#    z 0.000000 0.000000 4.458080 
# 
# 
# High freq. dielectric constant tensor:
#      x y z
#    x 1.856920 0.000000 0.000000 
#    y 0.000000 1.812260 0.000000 
#    z 0.000000 0.000000 1.860330 
# 
# From -- ./inp_files/26726.got.cif
#   From: 2010.03.12/outbox.cif.g09.slc.cpg/sg63_14_cif.got.tgz:26726.got - 2010.04.10 19:34:48.
