data_PCOD8260482
_publ_section_title
;
Structure prediction by ZEFSAII (Michael W. Deem and Ramdas Pophale) SiO2 
 PCOD8260482
Probable space group: C M C M
;
_chemical_formula_sum "Si O2"
_cell_formula_units_Z 96
_cell_length_a 23.027351
_cell_length_b 11.710841
_cell_length_c 17.052451
_cell_angle_alpha 90.000000
_cell_angle_beta 90.000000
_cell_angle_gamma 90.000000
_cell_volume 4598.528428
_symmetry_space_group_name_H-M "C M C M"
_symmetry_group_IT_number 63
_symmetry_cell_setting 'orthorhombic'
loop_
_space_group_symop_operation_xyz
x,y,z
-x,-y,1/2+z
x,-y,-z
-x,y,1/2-z
-x,-y,-z
x,y,1/2-z
-x,y,z
x,-y,1/2+z
1/2+x,1/2+y,z
1/2-x,1/2-y,1/2+z
1/2+x,1/2-y,-z
1/2-x,1/2+y,1/2-z
1/2-x,1/2-y,-z
1/2+x,1/2+y,1/2-z
1/2-x,1/2+y,z
1/2+x,1/2-y,1/2+z
loop_
_atom_site_type_symbol
_atom_site_label
_atom_site_fract_x
_atom_site_fract_y
_atom_site_fract_z
Si Si1 0.863205 0.977422 0.409272
Si Si2 0.349017 0.863270 0.088054
Si Si3 0.648062 0.876871 0.903053
Si Si4 0.567490 0.285336 0.337150
Si Si5 0.229974 0.182334 0.658444
Si Si6 0.933022 0.810966 0.842778
O O1 0.910366 0.877922 0.399233
O O2 0.802783 0.932594 0.371793
O O3 0.851352 0.000000 0.500000
O O4 0.889552 0.088708 0.368502
O O5 0.291676 0.798932 0.117029
O O6 0.407544 0.805897 0.121423
O O7 0.343939 0.992118 0.119802
O O8 0.350332 0.857170 0.995158
O O9 0.585561 0.839006 0.868763
O O10 0.695254 0.797490 0.860780
O O11 0.594209 0.309079 0.250000
O O12 0.500000 0.293216 0.331732
O O13 0.240438 0.169848 0.750000
O O14 0.932130 0.802864 0.750000
O O15 0.000000 0.829289 0.871707
#
# Coordination Sequence:
#
# PCOD8260482 Si02
#       6
#    16  16  16  16  16  16
#     4  11  23  38  64  95 126 165 207 264 318 375
#     4  11  25  41  64  91 123 168 207 258 318 377
#     4  10  23  42  63  89 124 160 210 262 310 371
#     4  10  21  40  66  93 125 168 217 264 310 368
#     4  11  24  41  65  91 123 164 214 265 313 376
#     4  11  24  41  61  91 131 167 205 255 317 383
#
# _framework density 20.876242999999999
#
# number of rings (size 3 to 8) (size 9 to 14) (size 15 to 20)
#    0.000    1.333    0.000    6.500    4.667    8.000 
#    0.000    3.333    0.000    0.000    0.000    0.000 
#    0.000    0.000    0.000    0.000    0.000    0.000 
#
# Total GULP energy -595190.828766 kJ/mol
# GULP energy per Si atom -12399.808933 kJ/mol
# Density = 2.082873 g / cm^3
# Si number density = 20.876243 Si / 1000 Ang^3
#
#
#
# Elastic Constant Matrix: (Units=GPa)
#
#
# Indices 1 2 3 4 5 6 
#
# 1 75.4977 16.5402 7.4281 0.0000 0.0000 0.0000
# 2 16.5402 82.9913 5.9054 0.0000 0.0000 0.0000
# 3 7.4281 5.9054 54.4654 0.0000 0.0000 0.0000
# 4 0.0000 0.0000 0.0000 24.2026 0.0000 0.0000
# 5 0.0000 0.0000 0.0000 0.0000 9.0204 0.0000
# 6 0.0000 0.0000 0.0000 0.0000 0.0000 24.1856
#
#
#
# Elastic Compliance Matrix: (Units=1/GPa)
#
#
# Indices 1 2 3 4 5 6 
#
# 1 0.013990 -0.002673 -0.001618 0.000000 0.000000 0.000000
# 2 -0.002673 0.012654 -0.001007 0.000000 0.000000 0.000000
# 3 -0.001618 -0.001007 0.018690 0.000000 0.000000 0.000000
# 4 0.000000 0.000000 0.000000 0.041318 0.000000 0.000000
# 5 0.000000 0.000000 0.000000 0.000000 0.110859 0.000000
# 6 0.000000 0.000000 0.000000 0.000000 0.000000 0.041347
#
#
# Mechanical properties :
#
#
# Convention : Reuss Voigt Hill
#
# Bulk Modulus (GPa) = 28.78783 30.30020 29.54401
# Shear Modulus (GPa) = 19.15453 23.68711 21.42082
#
# Velocity S-wave (km/s) = 3.03236 3.37210 3.20673
# Velocity P-wave (km/s) = 5.10685 5.45043 5.28143
#
# Compressibility (1/GPa) = 0.03473690
#
# Stress axis : x y z
#
# Youngs Moduli (GPa) = 71.47817 79.02704 53.50395
#
# Poissons Ratio (x) = 0.21125 0.08658
# Poissons Ratio (y) = 0.19107 0.05390
# Poissons Ratio (z) = 0.11567 0.07961
#
# Static dielectric constant tensor:
#      x y z
#    x 3.919510 0.000000 0.000000 
#    y 0.000000 3.962090 0.000000 
#    z 0.000000 0.000000 3.993010 
# 
# 
# High freq. dielectric constant tensor:
#      x y z
#    x 1.821960 0.000000 0.000000 
#    y 0.000000 1.819480 0.000000 
#    z 0.000000 0.000000 1.831740 
# 
# From -- ./inp_files/48023.got.cif
#   From: 2010.03.12/outbox.cif.g09.slc.cpg/sg63_25_cif.got.tgz:48023.got - 2010.04.10 19:34:48.
