data_PCOD8260257
_publ_section_title
;
Structure prediction by ZEFSAII (Michael W. Deem and Ramdas Pophale) SiO2 
 PCOD8260257
Probable space group: C M C M
;
_chemical_formula_sum "Si O2"
_cell_formula_units_Z 112
_cell_length_a 15.828137
_cell_length_b 25.796044
_cell_length_c 13.173127
_cell_angle_alpha 90.000000
_cell_angle_beta 90.000000
_cell_angle_gamma 90.000000
_cell_volume 5378.631469
_symmetry_space_group_name_H-M "C M C M"
_symmetry_group_IT_number 63
_symmetry_cell_setting 'orthorhombic'
loop_
_space_group_symop_operation_xyz
x,y,z
-x,-y,1/2+z
x,-y,-z
-x,y,1/2-z
-x,-y,-z
x,y,1/2-z
-x,y,z
x,-y,1/2+z
1/2+x,1/2+y,z
1/2-x,1/2-y,1/2+z
1/2+x,1/2-y,-z
1/2-x,1/2+y,1/2-z
1/2-x,1/2-y,-z
1/2+x,1/2+y,1/2-z
1/2-x,1/2+y,z
1/2+x,1/2-y,1/2+z
loop_
_atom_site_type_symbol
_atom_site_label
_atom_site_fract_x
_atom_site_fract_y
_atom_site_fract_z
Si Si1 0.247799 0.596155 0.634312
Si Si2 0.308440 0.821616 0.510371
Si Si3 0.405566 0.022880 0.870353
Si Si4 0.904349 0.942075 0.037296
Si Si5 0.401818 0.092393 0.363198
Si Si6 0.596028 0.627297 0.359245
Si Si7 0.668813 0.733755 0.367326
O O1 0.234708 0.613027 0.750000
O O2 0.254125 0.647552 0.565628
O O3 0.167579 0.562450 0.596074
O O4 0.336738 0.564565 0.627600
O O5 0.368058 0.862078 0.566074
O O6 0.360267 0.781841 0.437866
O O7 0.258477 0.788984 0.594937
O O8 0.406010 0.016177 0.750000
O O9 0.500000 0.041815 0.905549
O O10 0.385849 0.964817 0.914469
O O11 0.000000 0.924368 0.069335
O O12 0.863127 0.907466 0.946780
O O13 0.907813 0.000000 0.000000
O O14 0.360495 0.095435 0.250000
O O15 0.500000 0.101856 0.351883
O O16 0.640706 0.615860 0.250000
O O17 0.500000 0.609563 0.352485
O O18 0.600218 0.688420 0.382152
O O19 0.675966 0.751349 0.250000
#
# Coordination Sequence:
#
# PCOD8260257 Si02
#       7
#    16  16  16  16  16  16  16
#     4  11  23  37  57  87 123 162 202 244 296 357
#     4  11  22  35  56  86 114 153 193 246 295 356
#     4   8  17  35  57  84 122 164 199 235 283 346
#     4  10  22  39  59  86 118 150 193 246 295 352
#     4   9  19  37  60  87 119 155 199 245 289 348
#     4   9  18  36  61  84 107 141 188 240 291 348
#     4  10  21  38  58  81 111 148 192 244 299 352
#
# _framework density 20.823142000000001
#
# number of rings (size 3 to 8) (size 9 to 14) (size 15 to 20)
#    0.000    2.286    1.429    1.714    2.000    2.000 
#    0.000    2.857    0.000    4.286    0.000    0.000 
#    0.000    0.000    0.000    0.000    0.000    0.000 
#
# Total GULP energy -694003.580173 kJ/mol
# GULP energy per Si atom -12392.921075 kJ/mol
# Density = 2.077575 g / cm^3
# Si number density = 20.823142 Si / 1000 Ang^3
#
#
#
# Elastic Constant Matrix: (Units=GPa)
#
#
# Indices 1 2 3 4 5 6 
#
# 1 70.4961 24.5582 25.0318 0.0000 0.0000 0.0000
# 2 24.5582 100.5549 40.5102 0.0000 0.0000 0.0000
# 3 25.0318 40.5102 76.9112 0.0000 0.0000 0.0000
# 4 0.0000 0.0000 0.0000 29.7765 0.0000 0.0000
# 5 0.0000 0.0000 0.0000 0.0000 22.2555 0.0000
# 6 0.0000 0.0000 0.0000 0.0000 0.0000 31.5571
#
#
#
# Elastic Compliance Matrix: (Units=1/GPa)
#
#
# Indices 1 2 3 4 5 6 
#
# 1 0.016470 -0.002365 -0.004115 0.000000 0.000000 0.000000
# 2 -0.002365 0.012963 -0.006058 0.000000 0.000000 0.000000
# 3 -0.004115 -0.006058 0.017532 0.000000 0.000000 0.000000
# 4 0.000000 0.000000 0.000000 0.033584 0.000000 0.000000
# 5 0.000000 0.000000 0.000000 0.000000 0.044933 0.000000
# 6 0.000000 0.000000 0.000000 0.000000 0.000000 0.031689
#
#
# Mechanical properties :
#
#
# Convention : Reuss Voigt Hill
#
# Bulk Modulus (GPa) = 45.68350 47.57362 46.62856
# Shear Modulus (GPa) = 26.37937 27.24195 26.81066
#
# Velocity S-wave (km/s) = 3.56312 3.62090 3.59213
# Velocity P-wave (km/s) = 6.23812 6.35432 6.29649
#
# Compressibility (1/GPa) = 0.02188974
#
# Stress axis : x y z
#
# Youngs Moduli (GPa) = 60.71620 77.14292 57.03800
#
# Poissons Ratio (x) = 0.18242 0.23471
# Poissons Ratio (y) = 0.14357 0.34554
# Poissons Ratio (z) = 0.24984 0.46734
#
# Static dielectric constant tensor:
#      x y z
#    x 3.577840 0.000000 0.000000 
#    y 0.000000 3.806130 0.000000 
#    z 0.000000 0.000000 4.145490 
# 
# 
# High freq. dielectric constant tensor:
#      x y z
#    x 1.793820 0.000000 0.000000 
#    y 0.000000 1.811230 0.000000 
#    z 0.000000 0.000000 1.830820 
# 
# From -- ./inp_files/32275.got.cif
#   From: 2010.03.12/outbox.cif.g09.slc.cpg/sg63_17_cif.got.tgz:32275.got - 2010.04.10 19:34:48.
