data_PCOD8260266
_publ_section_title
;
Structure prediction by ZEFSAII (Michael W. Deem and Ramdas Pophale) SiO2 
 PCOD8260266
Probable space group: C M C M
;
_chemical_formula_sum "Si O2"
_cell_formula_units_Z 88
_cell_length_a 23.316334
_cell_length_b 21.782165
_cell_length_c 9.119034
_cell_angle_alpha 90.000000
_cell_angle_beta 90.000000
_cell_angle_gamma 90.000000
_cell_volume 4631.377125
_symmetry_space_group_name_H-M "C M C M"
_symmetry_group_IT_number 63
_symmetry_cell_setting 'orthorhombic'
loop_
_space_group_symop_operation_xyz
x,y,z
-x,-y,1/2+z
x,-y,-z
-x,y,1/2-z
-x,-y,-z
x,y,1/2-z
-x,y,z
x,-y,1/2+z
1/2+x,1/2+y,z
1/2-x,1/2-y,1/2+z
1/2+x,1/2-y,-z
1/2-x,1/2+y,1/2-z
1/2-x,1/2-y,-z
1/2+x,1/2+y,1/2-z
1/2-x,1/2+y,z
1/2+x,1/2-y,1/2+z
loop_
_atom_site_type_symbol
_atom_site_label
_atom_site_fract_x
_atom_site_fract_y
_atom_site_fract_z
Si Si1 0.212673 0.438156 0.918856
Si Si2 0.899963 0.637681 0.420476
Si Si3 0.120800 0.226234 0.586304
Si Si4 0.062822 0.893590 0.085380
Si Si5 0.000000 0.566077 0.925380
Si Si6 0.329420 0.622077 0.076890
O O1 0.220159 0.454885 0.750000
O O2 0.163093 0.389004 0.944374
O O3 0.271944 0.410403 0.981094
O O4 0.195547 0.500000 0.000000
O O5 0.919275 0.632810 0.250000
O O6 0.898066 0.707980 0.476480
O O7 0.943816 0.602131 0.523587
O O8 0.146349 0.235635 0.750000
O O9 0.065513 0.181095 0.589967
O O10 0.168975 0.191952 0.486607
O O11 0.071072 0.919820 0.250000
O O12 0.000000 0.913012 0.023719
O O13 0.115242 0.917136 0.982692
O O14 0.000000 0.558967 0.750000
O O15 0.000000 0.500000 0.000000
O O16 0.331739 0.625392 0.250000
#
# Coordination Sequence:
#
# PCOD8260266 Si02
#       6
#    16  16  16  16   8  16
#     4  10  22  38  56  77 103 139 183 226 270 321
#     4  10  21  38  59  81 108 144 182 224 270 321
#     4   8  17  32  52  79 109 144 177 211 264 326
#     4   8  15  29  49  75 106 141 176 206 250 317
#     4  12  26  42  58  82 112 146 189 232 273 314
#     4   9  18  32  50  78 111 139 172 222 272 314
#
# _framework density 19.000827999999998
#
# number of rings (size 3 to 8) (size 9 to 14) (size 15 to 20)
#    1.091    1.636    0.000    1.364    1.273    5.455 
#    0.000    0.000    0.000    0.545    0.000    0.000 
#    0.000    0.000    0.000    0.000    0.000    0.000 
#
# Total GULP energy -545156.478876 kJ/mol
# GULP energy per Si atom -12389.919974 kJ/mol
# Density = 1.895758 g / cm^3
# Si number density = 19.000828 Si / 1000 Ang^3
#
#
#
# Elastic Constant Matrix: (Units=GPa)
#
#
# Indices 1 2 3 4 5 6 
#
# 1 98.8746 -3.3515 30.3341 0.0000 0.0000 0.0000
# 2 -3.3515 22.9103 11.2096 0.0000 0.0000 0.0000
# 3 30.3341 11.2096 68.4886 0.0000 0.0000 0.0000
# 4 0.0000 0.0000 0.0000 26.2845 0.0000 0.0000
# 5 0.0000 0.0000 0.0000 0.0000 26.4629 0.0000
# 6 0.0000 0.0000 0.0000 0.0000 0.0000 15.2516
#
#
#
# Elastic Compliance Matrix: (Units=1/GPa)
#
#
# Indices 1 2 3 4 5 6 
#
# 1 0.012172 0.004803 -0.006177 0.000000 0.000000 0.000000
# 2 0.004803 0.049343 -0.010203 0.000000 0.000000 0.000000
# 3 -0.006177 -0.010203 0.019007 0.000000 0.000000 0.000000
# 4 0.000000 0.000000 0.000000 0.038045 0.000000 0.000000
# 5 0.000000 0.000000 0.000000 0.000000 0.037789 0.000000
# 6 0.000000 0.000000 0.000000 0.000000 0.000000 0.065567
#
#
# Mechanical properties :
#
#
# Convention : Reuss Voigt Hill
#
# Bulk Modulus (GPa) = 17.43162 29.62865 23.53013
# Shear Modulus (GPa) = 18.92506 23.73856 21.33181
#
# Velocity S-wave (km/s) = 3.15939 3.53844 3.35427
# Velocity P-wave (km/s) = 4.74374 5.68518 5.23566
#
# Compressibility (1/GPa) = 0.05736702
#
# Stress axis : x y z
#
# Youngs Moduli (GPa) = 82.15777 20.26613 52.61276
#
# Poissons Ratio (x) = -0.09734 0.32499
# Poissons Ratio (y) = -0.39460 0.53682
# Poissons Ratio (z) = 0.50749 0.20678
#
# Static dielectric constant tensor:
#      x y z
#    x 3.462280 0.000000 0.000000 
#    y 0.000000 3.359260 0.000000 
#    z 0.000000 0.000000 3.351400 
# 
# 
# High freq. dielectric constant tensor:
#      x y z
#    x 1.735920 0.000000 0.000000 
#    y 0.000000 1.726350 0.000000 
#    z 0.000000 0.000000 1.728090 
# 
# From -- ./inp_files/10220.got.cif
#   From: 2010.03.12/outbox.cif.g09.slc.cpg/sg63_6_cif.got.tgz:10220.got - 2010.04.10 19:34:48.
