data_PCOD8260315
_publ_section_title
;
Structure prediction by ZEFSAII (Michael W. Deem and Ramdas Pophale) SiO2 
 PCOD8260315
Probable space group: C M C M
;
_chemical_formula_sum "Si O2"
_cell_formula_units_Z 96
_cell_length_a 13.934083
_cell_length_b 23.579819
_cell_length_c 14.083030
_cell_angle_alpha 90.000000
_cell_angle_beta 90.000000
_cell_angle_gamma 90.000000
_cell_volume 4627.164770
_symmetry_space_group_name_H-M "C M C M"
_symmetry_group_IT_number 63
_symmetry_cell_setting 'orthorhombic'
loop_
_space_group_symop_operation_xyz
x,y,z
-x,-y,1/2+z
x,-y,-z
-x,y,1/2-z
-x,-y,-z
x,y,1/2-z
-x,y,z
x,-y,1/2+z
1/2+x,1/2+y,z
1/2-x,1/2-y,1/2+z
1/2+x,1/2-y,-z
1/2-x,1/2+y,1/2-z
1/2-x,1/2-y,-z
1/2+x,1/2+y,1/2-z
1/2-x,1/2+y,z
1/2+x,1/2-y,1/2+z
loop_
_atom_site_type_symbol
_atom_site_label
_atom_site_fract_x
_atom_site_fract_y
_atom_site_fract_z
Si Si1 0.283355 0.366799 0.857725
Si Si2 0.710178 0.840920 0.048303
Si Si3 0.607235 0.743409 0.357655
Si Si4 0.390450 0.604064 0.862943
Si Si5 0.393013 0.056057 0.862282
Si Si6 0.709165 0.507363 0.361140
O O1 0.240042 0.369252 0.750000
O O2 0.372366 0.323852 0.861990
O O3 0.318626 0.429134 0.893144
O O4 0.204022 0.346041 0.933575
O O5 0.681457 0.777160 0.076369
O O6 0.818996 0.852372 0.084678
O O7 0.633560 0.883393 0.093738
O O8 0.618727 0.765330 0.250000
O O9 0.500000 0.753426 0.395037
O O10 0.374746 0.609580 0.750000
O O11 0.500000 0.618076 0.890991
O O12 0.365177 0.539996 0.899112
O O13 0.387719 0.063836 0.750000
O O14 0.500000 0.038051 0.894703
O O15 0.317102 0.008298 0.896878
O O16 0.705991 0.504511 0.250000
#
# Coordination Sequence:
#
# PCOD8260315 Si02
#       6
#    16  16  16  16  16  16
#     4  10  22  38  54  75 108 149 185 219 264 319
#     4  11  20  34  56  82 110 141 178 226 275 320
#     4  10  21  38  61  85 105 131 175 229 279 325
#     4   9  18  32  53  83 115 146 180 221 272 324
#     4   9  17  31  55  85 112 141 181 228 273 314
#     4   8  16  33  53  75 110 149 182 220 266 315
#
# _framework density 20.747046999999998
#
# number of rings (size 3 to 8) (size 9 to 14) (size 15 to 20)
#    0.000    2.500    0.000    3.500    0.000    5.333 
#    0.000    6.667    0.000    5.000    0.000    7.000 
#    0.000    0.000    0.000    0.000    0.000    0.000 
#
# Total GULP energy -594909.008372 kJ/mol
# GULP energy per Si atom -12393.937674 kJ/mol
# Density = 2.069983 g / cm^3
# Si number density = 20.747047 Si / 1000 Ang^3
#
#
#
# Elastic Constant Matrix: (Units=GPa)
#
#
# Indices 1 2 3 4 5 6 
#
# 1 128.1042 49.8242 36.6566 0.0000 0.0000 0.0000
# 2 49.8242 92.0218 23.1472 0.0000 0.0000 0.0000
# 3 36.6566 23.1472 79.1730 0.0000 0.0000 0.0000
# 4 0.0000 0.0000 0.0000 8.7109 0.0000 0.0000
# 5 0.0000 0.0000 0.0000 0.0000 13.4255 0.0000
# 6 0.0000 0.0000 0.0000 0.0000 0.0000 14.3719
#
#
#
# Elastic Compliance Matrix: (Units=1/GPa)
#
#
# Indices 1 2 3 4 5 6 
#
# 1 0.010730 -0.004922 -0.003529 0.000000 0.000000 0.000000
# 2 -0.004922 0.013987 -0.001810 0.000000 0.000000 0.000000
# 3 -0.003529 -0.001810 0.014794 0.000000 0.000000 0.000000
# 4 0.000000 0.000000 0.000000 0.114799 0.000000 0.000000
# 5 0.000000 0.000000 0.000000 0.000000 0.074485 0.000000
# 6 0.000000 0.000000 0.000000 0.000000 0.000000 0.069580
#
#
# Mechanical properties :
#
#
# Convention : Reuss Voigt Hill
#
# Bulk Modulus (GPa) = 52.66401 57.61718 55.14059
# Shear Modulus (GPa) = 15.37382 19.94640 17.66011
#
# Velocity S-wave (km/s) = 2.72511 3.10402 2.92072
# Velocity P-wave (km/s) = 5.94479 6.37794 6.16517
#
# Compressibility (1/GPa) = 0.01898830
#
# Stress axis : x y z
#
# Youngs Moduli (GPa) = 93.19351 71.49271 67.59582
#
# Poissons Ratio (x) = 0.35190 0.23855
# Poissons Ratio (y) = 0.45871 0.12238
# Poissons Ratio (z) = 0.32888 0.12944
#
# Static dielectric constant tensor:
#      x y z
#    x 3.665610 0.000000 0.000000 
#    y 0.000000 3.944270 0.000000 
#    z 0.000000 0.000000 3.823010 
# 
# 
# High freq. dielectric constant tensor:
#      x y z
#    x 1.786410 0.000000 0.000000 
#    y 0.000000 1.809750 0.000000 
#    z 0.000000 0.000000 1.814480 
# 
# From -- ./inp_files/31949.got.cif
#   From: 2010.03.12/outbox.cif.g09.slc.cpg/sg63_16_cif.got.tgz:31949.got - 2010.04.10 19:34:48.
