data_PCOD8260357
_publ_section_title
;
Structure prediction by ZEFSAII (Michael W. Deem and Ramdas Pophale) SiO2 
 PCOD8260357
Probable space group: C M C M
;
_chemical_formula_sum "Si O2"
_cell_formula_units_Z 36
_cell_length_a 7.349486
_cell_length_b 20.791751
_cell_length_c 12.290893
_cell_angle_alpha 90.000000
_cell_angle_beta 90.000000
_cell_angle_gamma 90.000000
_cell_volume 1878.155171
_symmetry_space_group_name_H-M "C M C M"
_symmetry_group_IT_number 63
_symmetry_cell_setting 'orthorhombic'
loop_
_space_group_symop_operation_xyz
x,y,z
-x,-y,1/2+z
x,-y,-z
-x,y,1/2-z
-x,-y,-z
x,y,1/2-z
-x,y,z
x,-y,1/2+z
1/2+x,1/2+y,z
1/2-x,1/2-y,1/2+z
1/2+x,1/2-y,-z
1/2-x,1/2+y,1/2-z
1/2-x,1/2-y,-z
1/2+x,1/2+y,1/2-z
1/2-x,1/2+y,z
1/2+x,1/2-y,1/2+z
loop_
_atom_site_type_symbol
_atom_site_label
_atom_site_fract_x
_atom_site_fract_y
_atom_site_fract_z
Si Si1 0.199791 0.883193 0.750000
Si Si2 0.000000 0.759374 0.750000
Si Si3 0.712725 0.425641 0.521067
Si Si4 0.500000 0.863691 0.129386
O O1 0.179475 0.805147 0.750000
O O2 0.296751 0.907264 0.639625
O O3 0.000000 0.916392 0.750000
O O4 0.000000 0.714249 0.642254
O O5 0.750186 0.500000 0.500000
O O6 0.500000 0.407578 0.512831
O O7 0.817289 0.384424 0.431558
O O8 0.500000 0.895598 0.250000
#
# Coordination Sequence:
#
# PCOD8260357 Si02
#       4
#     8   4  16   8
#     4   8  18  38  56  86 116 146 196 241 285 333
#     4   8  20  40  54  86 126 144 202 254 248 368
#     4  10  21  38  64  87 116 153 189 248 296 345
#     4  10  23  38  57  88 119 153 197 237 283 350
#
# _framework density 19.167745
#
# number of rings (size 3 to 8) (size 9 to 14) (size 15 to 20)
#    1.333    1.333    0.000    0.667    3.111    3.556 
#    0.000    0.000    4.889    0.000    0.000    0.000 
#    0.000    0.000    0.000    0.000    0.000    0.000 
#
# Total GULP energy -223021.182583 kJ/mol
# GULP energy per Si atom -12390.065699 kJ/mol
# Density = 1.912412 g / cm^3
# Si number density = 19.167745 Si / 1000 Ang^3
#
#
#
# Elastic Constant Matrix: (Units=GPa)
#
#
# Indices 1 2 3 4 5 6 
#
# 1 70.5566 35.6484 51.0768 0.0000 0.0000 0.0000
# 2 35.6484 144.9068 82.1466 0.0000 0.0000 0.0000
# 3 51.0768 82.1466 197.5159 0.0000 0.0000 0.0000
# 4 0.0000 0.0000 0.0000 46.3269 0.0000 0.0000
# 5 0.0000 0.0000 0.0000 0.0000 29.2793 0.0000
# 6 0.0000 0.0000 0.0000 0.0000 0.0000 -6.6041
#
#
#
# Elastic Compliance Matrix: (Units=1/GPa)
#
#
# Indices 1 2 3 4 5 6 
#
# 1 0.018026 -0.002345 -0.003686 0.000000 0.000000 0.000000
# 2 -0.002345 0.009335 -0.003276 0.000000 0.000000 0.000000
# 3 -0.003686 -0.003276 0.007379 0.000000 0.000000 0.000000
# 4 0.000000 0.000000 0.000000 0.021586 0.000000 0.000000
# 5 0.000000 0.000000 0.000000 0.000000 0.034154 0.000000
# 6 0.000000 0.000000 0.000000 0.000000 0.000000 -0.151420
#
#
# Mechanical properties :
#
#
# Convention : Reuss Voigt Hill
#
# Bulk Modulus (GPa) = 62.01353 83.41366 72.71359
# Shear Modulus (GPa) = -135.31547 30.07423 -52.62062
#
# Velocity S-wave (km/s) = -8.41122 3.96536 -5.24522
# Velocity P-wave (km/s) = 7.86818 8.03602 1.15529
#
# Compressibility (1/GPa) = 0.01612551
#
# Stress axis : x y z
#
# Youngs Moduli (GPa) = 55.47440 107.12344 135.52624
#
# Poissons Ratio (x) = 0.25120 0.49959
# Poissons Ratio (y) = 0.13008 0.44399
# Poissons Ratio (z) = 0.20449 0.35094
#
# Static dielectric constant tensor:
#      x y z
#    x 3.173710 0.000000 0.000000 
#    y 0.000000 3.322720 0.000000 
#    z 0.000000 0.000000 3.716380 
# 
# 
# High freq. dielectric constant tensor:
#      x y z
#    x 1.723760 0.000000 0.000000 
#    y 0.000000 1.736510 0.000000 
#    z 0.000000 0.000000 1.757060 
# 
# From -- ./inp_files/15553.got.cif
#   From: 2010.03.12/outbox.cif.g09.slc.cpg/sg63_8_cif.got.tgz:15553.got - 2010.04.10 19:34:48.
