data_PCOD8260809
_publ_section_title
;
Structure prediction by ZEFSAII (Michael W. Deem and Ramdas Pophale) SiO2 
 PCOD8260809
Probable space group: C M C M
;
_chemical_formula_sum "Si O2"
_cell_formula_units_Z 80
_cell_length_a 11.935645
_cell_length_b 13.705748
_cell_length_c 27.864163
_cell_angle_alpha 90.000000
_cell_angle_beta 90.000000
_cell_angle_gamma 90.000000
_cell_volume 4558.213233
_symmetry_space_group_name_H-M "C M C M"
_symmetry_group_IT_number 63
_symmetry_cell_setting 'orthorhombic'
loop_
_space_group_symop_operation_xyz
x,y,z
-x,-y,1/2+z
x,-y,-z
-x,y,1/2-z
-x,-y,-z
x,y,1/2-z
-x,y,z
x,-y,1/2+z
1/2+x,1/2+y,z
1/2-x,1/2-y,1/2+z
1/2+x,1/2-y,-z
1/2-x,1/2+y,1/2-z
1/2-x,1/2-y,-z
1/2+x,1/2+y,1/2-z
1/2-x,1/2+y,z
1/2+x,1/2-y,1/2+z
loop_
_atom_site_type_symbol
_atom_site_label
_atom_site_fract_x
_atom_site_fract_y
_atom_site_fract_z
Si Si1 0.774205 0.229092 0.054770
Si Si2 0.227650 0.099416 0.621965
Si Si3 0.000000 0.069829 0.568765
Si Si4 0.000000 0.139235 0.469344
Si Si5 0.130662 0.595727 0.120760
Si Si6 0.629241 0.737544 0.804911
O O1 0.784472 0.329679 0.083463
O O2 0.680678 0.155724 0.075859
O O3 0.894727 0.181380 0.058483
O O4 0.750000 0.250000 0.000000
O O5 0.106274 0.072326 0.602687
O O6 0.209690 0.154796 0.672537
O O7 0.305704 0.005855 0.629093
O O8 0.000000 0.156623 0.527880
O O9 0.000000 0.974512 0.537735
O O10 0.147331 0.659333 0.168651
O O11 0.000000 0.575262 0.110248
O O12 0.665012 0.751817 0.750000
O O13 0.500000 0.704723 0.809889
#
# Coordination Sequence:
#
# PCOD8260809 Si02
#       6
#    16  16   8   8  16  16
#     4  11  23  35  55  80 113 151 188 230 277 321
#     4  11  21  37  58  84 111 147 184 231 279 329
#     4  11  20  36  57  79 111 149 193 230 275 324
#     4  11  22  36  54  78 114 152 193 230 273 327
#     4  10  23  39  54  82 117 148 185 229 278 333
#     4   9  19  37  62  85 106 139 182 229 281 337
#
# _framework density 17.550736000000001
#
# number of rings (size 3 to 8) (size 9 to 14) (size 15 to 20)
#    0.000    1.600    5.000    0.000    4.200    1.600 
#    0.000    1.000    0.000    0.000    0.000    0.000 
#    0.000    0.000    0.000    0.000    0.000    0.000 
#
# Total GULP energy -495920.904298 kJ/mol
# GULP energy per Si atom -12398.022607 kJ/mol
# Density = 1.751079 g / cm^3
# Si number density = 17.550736 Si / 1000 Ang^3
#
#
#
# Elastic Constant Matrix: (Units=GPa)
#
#
# Indices 1 2 3 4 5 6 
#
# 1 125.8813 61.8806 56.5989 0.0000 0.0000 0.0000
# 2 61.8806 125.4882 62.8826 0.0000 0.0000 0.0000
# 3 56.5989 62.8826 141.3287 0.0000 0.0000 0.0000
# 4 0.0000 0.0000 0.0000 18.1330 0.0000 0.0000
# 5 0.0000 0.0000 0.0000 0.0000 22.7742 0.0000
# 6 0.0000 0.0000 0.0000 0.0000 0.0000 21.7278
#
#
#
# Elastic Compliance Matrix: (Units=1/GPa)
#
#
# Indices 1 2 3 4 5 6 
#
# 1 0.011185 -0.004210 -0.002606 0.000000 0.000000 0.000000
# 2 -0.004210 0.011840 -0.003582 0.000000 0.000000 0.000000
# 3 -0.002606 -0.003582 0.009713 0.000000 0.000000 0.000000
# 4 0.000000 0.000000 0.000000 0.055148 0.000000 0.000000
# 5 0.000000 0.000000 0.000000 0.000000 0.043909 0.000000
# 6 0.000000 0.000000 0.000000 0.000000 0.000000 0.046024
#
#
# Mechanical properties :
#
#
# Convention : Reuss Voigt Hill
#
# Bulk Modulus (GPa) = 83.73758 83.93583 83.83671
# Shear Modulus (GPa) = 24.67962 26.61609 25.64786
#
# Velocity S-wave (km/s) = 3.75398 3.89848 3.82691
# Velocity P-wave (km/s) = 8.16120 8.25789 8.20969
#
# Compressibility (1/GPa) = 0.01194207
#
# Stress axis : x y z
#
# Youngs Moduli (GPa) = 89.40357 84.46160 102.95118
#
# Poissons Ratio (x) = 0.35555 0.26834
# Poissons Ratio (y) = 0.37635 0.36878
# Poissons Ratio (z) = 0.23302 0.30255
#
# Static dielectric constant tensor:
#      x y z
#    x 3.363450 0.000000 0.000000 
#    y 0.000000 3.344150 0.000000 
#    z 0.000000 0.000000 3.178830 
# 
# 
# High freq. dielectric constant tensor:
#      x y z
#    x 1.678850 0.000000 0.000000 
#    y 0.000000 1.681190 0.000000 
#    z 0.000000 0.000000 1.677150 
# 
# From -- ./inp_files/68123.got.cif
#   From: 2010.03.12/outbox.cif.g09.slc.cpg/sg63_35_cif.got.tgz:68123.got - 2010.04.10 19:34:48.
