data_PCOD8260434
_publ_section_title
;
Structure prediction by ZEFSAII (Michael W. Deem and Ramdas Pophale) SiO2 
 PCOD8260434
Probable space group: C M C M
;
_chemical_formula_sum "Si O2"
_cell_formula_units_Z 96
_cell_length_a 17.395999
_cell_length_b 14.763337
_cell_length_c 18.678229
_cell_angle_alpha 90.000000
_cell_angle_beta 90.000000
_cell_angle_gamma 90.000000
_cell_volume 4796.998726
_symmetry_space_group_name_H-M "C M C M"
_symmetry_group_IT_number 63
_symmetry_cell_setting 'orthorhombic'
loop_
_space_group_symop_operation_xyz
x,y,z
-x,-y,1/2+z
x,-y,-z
-x,y,1/2-z
-x,-y,-z
x,y,1/2-z
-x,y,z
x,-y,1/2+z
1/2+x,1/2+y,z
1/2-x,1/2-y,1/2+z
1/2+x,1/2-y,-z
1/2-x,1/2+y,1/2-z
1/2-x,1/2-y,-z
1/2+x,1/2+y,1/2-z
1/2-x,1/2+y,z
1/2+x,1/2-y,1/2+z
loop_
_atom_site_type_symbol
_atom_site_label
_atom_site_fract_x
_atom_site_fract_y
_atom_site_fract_z
Si Si1 0.588057 0.727950 0.831253
Si Si2 0.659724 0.126919 0.072656
Si Si3 0.912226 0.310434 0.430525
Si Si4 0.911141 0.947463 0.090976
Si Si5 0.088650 0.473797 0.331892
Si Si6 0.338564 0.621647 0.054413
O O1 0.608165 0.752327 0.750000
O O2 0.500000 0.755215 0.849347
O O3 0.645598 0.782266 0.881984
O O4 0.599464 0.620287 0.842345
O O5 0.747471 0.118946 0.049837
O O6 0.637945 0.040748 0.119715
O O7 0.611168 0.131203 0.999906
O O8 0.900271 0.371952 0.360447
O O9 0.862585 0.220466 0.418618
O O10 0.000000 0.280391 0.439802
O O11 0.000000 0.967300 0.074980
O O12 0.868936 0.042752 0.108003
O O13 0.874113 0.897894 0.022890
O O14 0.117593 0.477677 0.250000
O O15 0.000000 0.503842 0.337025
#
# Coordination Sequence:
#
# PCOD8260434 Si02
#       6
#    16  16  16  16  16  16
#     4  10  21  39  64  91 122 163 210 255 301 360
#     4  12  23  36  61  92 126 155 199 256 311 355
#     4  11  22  39  63  89 116 158 206 249 296 363
#     4  10  21  40  64  88 118 162 204 249 303 363
#     4  10  23  42  62  85 120 166 208 248 300 365
#     4  11  23  36  61  89 124 151 195 253 308 359
#
# _framework density 20.012512999999998
#
# number of rings (size 3 to 8) (size 9 to 14) (size 15 to 20)
#    0.000    1.333    1.667    5.000    4.667    2.667 
#    0.000    5.833    0.000    4.000    0.000    0.000 
#    0.000    0.000    0.000    0.000    0.000    0.000 
#
# Total GULP energy -595309.019223 kJ/mol
# GULP energy per Si atom -12402.271234 kJ/mol
# Density = 1.996696 g / cm^3
# Si number density = 20.012513 Si / 1000 Ang^3
#
#
#
# Elastic Constant Matrix: (Units=GPa)
#
#
# Indices 1 2 3 4 5 6 
#
# 1 62.6843 22.2610 4.5168 0.0000 0.0000 0.0000
# 2 22.2610 104.7522 18.7591 0.0000 0.0000 0.0000
# 3 4.5168 18.7591 50.2436 0.0000 0.0000 0.0000
# 4 0.0000 0.0000 0.0000 21.9394 0.0000 0.0000
# 5 0.0000 0.0000 0.0000 0.0000 -2.9775 0.0000
# 6 0.0000 0.0000 0.0000 0.0000 0.0000 16.2797
#
#
#
# Elastic Compliance Matrix: (Units=1/GPa)
#
#
# Indices 1 2 3 4 5 6 
#
# 1 0.017257 -0.003632 -0.000195 0.000000 0.000000 0.000000
# 2 -0.003632 0.010995 -0.003779 0.000000 0.000000 0.000000
# 3 -0.000195 -0.003779 0.021331 0.000000 0.000000 0.000000
# 4 0.000000 0.000000 0.000000 0.045580 0.000000 0.000000
# 5 0.000000 0.000000 0.000000 0.000000 -0.335849 0.000000
# 6 0.000000 0.000000 0.000000 0.000000 0.000000 0.061426
#
#
# Mechanical properties :
#
#
# Convention : Reuss Voigt Hill
#
# Bulk Modulus (GPa) = 29.09424 34.30598 31.70011
# Shear Modulus (GPa) = -32.76749 18.52452 -7.12148
#
# Velocity S-wave (km/s) = -4.05081 3.04575 -1.88845
# Velocity P-wave (km/s) = 2.70354 5.43583 3.33460
#
# Compressibility (1/GPa) = 0.03437107
#
# Stress axis : x y z
#
# Youngs Moduli (GPa) = 57.94763 90.95117 46.87933
#
# Poissons Ratio (x) = 0.33036 0.00915
# Poissons Ratio (y) = 0.21048 0.17714
# Poissons Ratio (z) = 0.01131 0.34366
#
# Static dielectric constant tensor:
#      x y z
#    x 3.619400 0.000000 0.000000 
#    y 0.000000 3.899130 0.000000 
#    z 0.000000 0.000000 3.516290 
# 
# 
# High freq. dielectric constant tensor:
#      x y z
#    x 1.779610 0.000000 0.000000 
#    y 0.000000 1.796930 0.000000 
#    z 0.000000 0.000000 1.764040 
# 
# From -- ./inp_files/54190.got.cif
#   From: 2010.03.12/outbox.cif.g09.slc.cpg/sg63_28_cif.got.tgz:54190.got - 2010.04.10 19:34:48.
