data_PCOD8260095
_publ_section_title
;
Structure prediction by ZEFSAII (Michael W. Deem and Ramdas Pophale) SiO2 
 PCOD8260095
Probable space group: C M C M
;
_chemical_formula_sum "Si O2"
_cell_formula_units_Z 96
_cell_length_a 8.781923
_cell_length_b 22.905420
_cell_length_c 23.765973
_cell_angle_alpha 90.000000
_cell_angle_beta 90.000000
_cell_angle_gamma 90.000000
_cell_volume 4780.611852
_symmetry_space_group_name_H-M "C M C M"
_symmetry_group_IT_number 63
_symmetry_cell_setting 'orthorhombic'
loop_
_space_group_symop_operation_xyz
x,y,z
-x,-y,1/2+z
x,-y,-z
-x,y,1/2-z
-x,-y,-z
x,y,1/2-z
-x,y,z
x,-y,1/2+z
1/2+x,1/2+y,z
1/2-x,1/2-y,1/2+z
1/2+x,1/2-y,-z
1/2-x,1/2+y,1/2-z
1/2-x,1/2-y,-z
1/2+x,1/2+y,1/2-z
1/2-x,1/2+y,z
1/2+x,1/2-y,1/2+z
loop_
_atom_site_type_symbol
_atom_site_label
_atom_site_fract_x
_atom_site_fract_y
_atom_site_fract_z
Si Si1 0.318525 0.658009 0.311095
Si Si2 0.319377 0.386580 0.519112
Si Si3 0.681198 0.427993 0.184858
Si Si4 0.819694 0.225994 0.084884
Si Si5 0.819517 0.045166 0.126824
Si Si6 0.319627 0.143810 0.590823
O O1 0.248948 0.671337 0.250000
O O2 0.500000 0.655930 0.309282
O O3 0.262222 0.708528 0.352849
O O4 0.257735 0.595432 0.331985
O O5 0.500000 0.387048 0.510956
O O6 0.260216 0.323033 0.541213
O O7 0.270130 0.437979 0.562758
O O8 0.240759 0.398694 0.458858
O O9 0.737022 0.428384 0.250000
O O10 0.500000 0.425281 0.182987
O O11 0.745720 0.484340 0.150693
O O12 0.750359 0.372960 0.151509
O O13 0.759824 0.291258 0.073884
O O14 0.000000 0.224478 0.082829
O O15 0.000000 0.042818 0.129069
O O16 0.500000 0.140794 0.595303
#
# Coordination Sequence:
#
# PCOD8260095 Si02
#       6
#    16  16  16  16  16  16
#     4   8  12  21  42  71  97 120 154 206 260 298
#     4   9  17  33  56  78  99 125 164 212 257 295
#     4  10  21  37  55  74  98 131 169 205 244 293
#     4   8  16  29  46  71 101 133 167 204 247 294
#     4   8  15  29  51  76  97 120 158 210 258 294
#     4  11  22  34  49  73 106 139 168 198 240 297
#
# _framework density 20.081111
#
# number of rings (size 3 to 8) (size 9 to 14) (size 15 to 20)
#    0.000    3.000    0.000    3.500    0.000    3.667 
#    0.000    6.667    0.000    0.000    0.000    0.000 
#    0.000    5.333    0.000    0.000    0.000    0.000 
#
# Total GULP energy -594739.434740 kJ/mol
# GULP energy per Si atom -12390.404890 kJ/mol
# Density = 2.003541 g / cm^3
# Si number density = 20.081111 Si / 1000 Ang^3
#
#
#
# Elastic Constant Matrix: (Units=GPa)
#
#
# Indices 1 2 3 4 5 6 
#
# 1 22.6671 15.6852 25.5485 0.0000 0.0000 0.0000
# 2 15.6852 65.8069 34.8832 0.0000 0.0000 0.0000
# 3 25.5485 34.8832 146.8838 0.0000 0.0000 0.0000
# 4 0.0000 0.0000 0.0000 23.6031 0.0000 0.0000
# 5 0.0000 0.0000 0.0000 0.0000 20.6752 0.0000
# 6 0.0000 0.0000 0.0000 0.0000 0.0000 17.1970
#
#
#
# Elastic Compliance Matrix: (Units=1/GPa)
#
#
# Indices 1 2 3 4 5 6 
#
# 1 0.060186 -0.010063 -0.008079 0.000000 0.000000 0.000000
# 2 -0.010063 0.019067 -0.002778 0.000000 0.000000 0.000000
# 3 -0.008079 -0.002778 0.008873 0.000000 0.000000 0.000000
# 4 0.000000 0.000000 0.000000 0.042367 0.000000 0.000000
# 5 0.000000 0.000000 0.000000 0.000000 0.048367 0.000000
# 6 0.000000 0.000000 0.000000 0.000000 0.000000 0.058150
#
#
# Mechanical properties :
#
#
# Convention : Reuss Voigt Hill
#
# Bulk Modulus (GPa) = 21.60442 43.06572 32.33507
# Shear Modulus (GPa) = 16.99071 22.91112 19.95092
#
# Velocity S-wave (km/s) = 2.91194 3.38143 3.15543
# Velocity P-wave (km/s) = 4.69977 6.06118 5.42336
#
# Compressibility (1/GPa) = 0.04628681
#
# Stress axis : x y z
#
# Youngs Moduli (GPa) = 16.61514 52.44657 112.70138
#
# Poissons Ratio (x) = 0.52777 0.91049
# Poissons Ratio (y) = 0.16720 0.31307
# Poissons Ratio (z) = 0.13423 0.14569
#
# Static dielectric constant tensor:
#      x y z
#    x 2.941630 0.000000 0.000000 
#    y 0.000000 3.902210 0.000000 
#    z 0.000000 0.000000 3.953350 
# 
# 
# High freq. dielectric constant tensor:
#      x y z
#    x 1.717950 0.000000 0.000000 
#    y 0.000000 1.779510 0.000000 
#    z 0.000000 0.000000 1.799970 
# 
# From -- ./inp_files/59869.got.cif
#   From: 2010.03.12/outbox.cif.g09.slc.cpg/sg63_30_cif.got.tgz:59869.got - 2010.04.10 19:34:48.
