data_PCOD8260196
_publ_section_title
;
Structure prediction by ZEFSAII (Michael W. Deem and Ramdas Pophale) SiO2 
 PCOD8260196
Probable space group: C M C M
;
_chemical_formula_sum "Si O2"
_cell_formula_units_Z 88
_cell_length_a 22.298314
_cell_length_b 24.407303
_cell_length_c 8.770892
_cell_angle_alpha 90.000000
_cell_angle_beta 90.000000
_cell_angle_gamma 90.000000
_cell_volume 4773.485227
_symmetry_space_group_name_H-M "C M C M"
_symmetry_group_IT_number 63
_symmetry_cell_setting 'orthorhombic'
loop_
_space_group_symop_operation_xyz
x,y,z
-x,-y,1/2+z
x,-y,-z
-x,y,1/2-z
-x,-y,-z
x,y,1/2-z
-x,y,z
x,-y,1/2+z
1/2+x,1/2+y,z
1/2-x,1/2-y,1/2+z
1/2+x,1/2-y,-z
1/2-x,1/2+y,1/2-z
1/2-x,1/2-y,-z
1/2+x,1/2+y,1/2-z
1/2-x,1/2+y,z
1/2+x,1/2-y,1/2+z
loop_
_atom_site_type_symbol
_atom_site_label
_atom_site_fract_x
_atom_site_fract_y
_atom_site_fract_z
Si Si1 0.110284 0.375505 0.928886
Si Si2 0.431345 0.354041 0.572026
Si Si3 0.500000 0.939951 0.069015
Si Si4 0.288299 0.942728 0.430589
Si Si5 0.150958 0.943863 0.072301
Si Si6 0.070294 0.270339 0.423738
O O1 0.104530 0.386169 0.750000
O O2 0.174546 0.394498 0.990658
O O3 0.105494 0.310862 0.963893
O O4 0.058796 0.408172 0.016226
O O5 0.421819 0.364824 0.750000
O O6 0.500000 0.365668 0.526194
O O7 0.388860 0.393100 0.477191
O O8 0.413915 0.291773 0.530190
O O9 0.500000 0.943843 0.250000
O O10 0.500000 0.000000 0.000000
O O11 0.298448 0.942929 0.250000
O O12 0.219374 0.932668 0.476972
O O13 0.311234 0.000000 0.500000
O O14 0.145622 0.951709 0.250000
O O15 0.126506 0.000000 0.000000
O O16 0.089948 0.281898 0.250000
O O17 0.000000 0.280974 0.441705
#
# Coordination Sequence:
#
# PCOD8260196 Si02
#       6
#    16  16   8  16  16  16
#     4  12  23  35  54  82 110 142 186 230 276 326
#     4   9  19  36  59  86 114 145 181 222 274 330
#     4  12  24  38  54  76 110 146 183 232 281 324
#     4  10  21  38  57  78 107 145 186 227 277 332
#     4  10  21  37  59  84 111 145 183 225 274 329
#     4   9  18  35  57  79 108 148 185 223 276 328
#
# _framework density 18.435167
#
# number of rings (size 3 to 8) (size 9 to 14) (size 15 to 20)
#    0.000    1.818    0.909    5.182    0.000    3.636 
#    0.000    2.727    0.000    0.000    0.000    0.000 
#    0.000    0.000    0.000    0.000    0.000    0.000 
#
# Total GULP energy -545760.855895 kJ/mol
# GULP energy per Si atom -12403.655816 kJ/mol
# Density = 1.839321 g / cm^3
# Si number density = 18.435167 Si / 1000 Ang^3
#
#
#
# Elastic Constant Matrix: (Units=GPa)
#
#
# Indices 1 2 3 4 5 6 
#
# 1 74.4393 57.5255 39.1169 0.0000 0.0000 0.0000
# 2 57.5255 123.9060 48.0968 0.0000 0.0000 0.0000
# 3 39.1169 48.0968 99.2145 0.0000 0.0000 0.0000
# 4 0.0000 0.0000 0.0000 38.4361 0.0000 0.0000
# 5 0.0000 0.0000 0.0000 0.0000 28.6104 0.0000
# 6 0.0000 0.0000 0.0000 0.0000 0.0000 31.6085
#
#
#
# Elastic Compliance Matrix: (Units=1/GPa)
#
#
# Indices 1 2 3 4 5 6 
#
# 1 0.022607 -0.008667 -0.004712 0.000000 0.000000 0.000000
# 2 -0.008667 0.013264 -0.003013 0.000000 0.000000 0.000000
# 3 -0.004712 -0.003013 0.013398 0.000000 0.000000 0.000000
# 4 0.000000 0.000000 0.000000 0.026017 0.000000 0.000000
# 5 0.000000 0.000000 0.000000 0.000000 0.034952 0.000000
# 6 0.000000 0.000000 0.000000 0.000000 0.000000 0.031637
#
#
# Mechanical properties :
#
#
# Convention : Reuss Voigt Hill
#
# Bulk Modulus (GPa) = 60.65954 65.22646 62.94300
# Shear Modulus (GPa) = 27.75405 29.91904 28.83655
#
# Velocity S-wave (km/s) = 3.88428 4.03293 3.95931
# Velocity P-wave (km/s) = 7.28646 7.55939 7.42418
#
# Compressibility (1/GPa) = 0.01648545
#
# Stress axis : x y z
#
# Youngs Moduli (GPa) = 44.23336 75.39244 74.64076
#
# Poissons Ratio (x) = 0.65342 0.35169
# Poissons Ratio (y) = 0.38336 0.22489
# Poissons Ratio (z) = 0.20842 0.22716
#
# Static dielectric constant tensor:
#      x y z
#    x 3.364300 0.000000 0.000000 
#    y 0.000000 3.519480 0.000000 
#    z 0.000000 0.000000 3.461170 
# 
# 
# High freq. dielectric constant tensor:
#      x y z
#    x 1.703810 0.000000 0.000000 
#    y 0.000000 1.721690 0.000000 
#    z 0.000000 0.000000 1.722250 
# 
# From -- ./inp_files/8163.got.cif
#   From: 2010.03.12/outbox.cif.g09.slc.cpg/sg63_5_cif.got.tgz:8163.got - 2010.04.10 19:34:48.
