data_PCOD8260912
_publ_section_title
;
Structure prediction by ZEFSAII (Michael W. Deem and Ramdas Pophale) SiO2 
 PCOD8260912
Probable space group: C M C M
;
_chemical_formula_sum "Si O2"
_cell_formula_units_Z 96
_cell_length_a 15.965370
_cell_length_b 18.768463
_cell_length_c 18.497084
_cell_angle_alpha 90.000000
_cell_angle_beta 90.000000
_cell_angle_gamma 90.000000
_cell_volume 5542.567172
_symmetry_space_group_name_H-M "C M C M"
_symmetry_group_IT_number 63
_symmetry_cell_setting 'orthorhombic'
loop_
_space_group_symop_operation_xyz
x,y,z
-x,-y,1/2+z
x,-y,-z
-x,y,1/2-z
-x,-y,-z
x,y,1/2-z
-x,y,z
x,-y,1/2+z
1/2+x,1/2+y,z
1/2-x,1/2-y,1/2+z
1/2+x,1/2-y,-z
1/2-x,1/2+y,1/2-z
1/2-x,1/2-y,-z
1/2+x,1/2+y,1/2-z
1/2-x,1/2+y,z
1/2+x,1/2-y,1/2+z
loop_
_atom_site_type_symbol
_atom_site_label
_atom_site_fract_x
_atom_site_fract_y
_atom_site_fract_z
Si Si1 0.905952 0.499309 0.586220
Si Si2 0.648021 0.486318 0.923280
Si Si3 0.500000 0.312738 0.335627
Si Si4 0.182508 0.235584 0.835993
Si Si5 0.279685 0.887493 0.413866
Si Si6 0.500000 0.528611 0.834554
Si Si7 0.284860 0.875202 0.922822
O O1 0.904092 0.500000 0.500000
O O2 0.864201 0.573210 0.615522
O O3 0.855294 0.428584 0.609585
O O4 0.000000 0.494622 0.617288
O O5 0.715011 0.548615 0.919181
O O6 0.582165 0.486964 0.858903
O O7 0.693388 0.410453 0.917035
O O8 0.601484 0.500000 0.000000
O O9 0.500000 0.316397 0.250000
O O10 0.414203 0.275052 0.362053
O O11 0.500000 0.392182 0.368262
O O12 0.187788 0.242619 0.750000
O O13 0.243673 0.171254 0.859419
O O14 0.216443 0.305910 0.873507
O O15 0.299219 0.854131 0.493005
O O16 0.500000 0.532049 0.750000
#
# Coordination Sequence:
#
# PCOD8260912 Si02
#       7
#    16  16   8  16  16   8  16
#     4   8  15  30  53  79 102 125 161 209 255 296
#     4   9  18  33  52  76 102 132 167 212 253 294
#     4   9  20  33  47  73 100 131 167 203 251 296
#     4  11  21  34  51  72 105 137 166 207 252 302
#     4   9  17  33  54  74 101 133 170 206 242 301
#     4  11  19  31  53  75 101 131 169 211 245 304
#     4   9  19  32  53  78 101 130 164 210 259 298
#
# _framework density 17.320492999999999
#
# number of rings (size 3 to 8) (size 9 to 14) (size 15 to 20)
#    0.000    2.667    1.667    2.750    1.167    0.667 
#    0.000    2.500    1.833    1.500    0.000    0.000 
#    0.000    0.000    0.000    0.000    0.000    0.000 
#
# Total GULP energy -594883.263038 kJ/mol
# GULP energy per Si atom -12393.401313 kJ/mol
# Density = 1.728107 g / cm^3
# Si number density = 17.320493 Si / 1000 Ang^3
#
#
#
# Elastic Constant Matrix: (Units=GPa)
#
#
# Indices 1 2 3 4 5 6 
#
# 1 75.9839 14.8441 21.1535 0.0000 0.0000 0.0000
# 2 14.8441 62.5933 17.2393 0.0000 0.0000 0.0000
# 3 21.1535 17.2393 51.0792 0.0000 0.0000 0.0000
# 4 0.0000 0.0000 0.0000 20.5153 0.0000 0.0000
# 5 0.0000 0.0000 0.0000 0.0000 1.1851 0.0000
# 6 0.0000 0.0000 0.0000 0.0000 0.0000 18.3361
#
#
#
# Elastic Compliance Matrix: (Units=1/GPa)
#
#
# Indices 1 2 3 4 5 6 
#
# 1 0.015111 -0.002051 -0.005566 0.000000 0.000000 0.000000
# 2 -0.002051 0.017892 -0.005189 0.000000 0.000000 0.000000
# 3 -0.005566 -0.005189 0.023634 0.000000 0.000000 0.000000
# 4 0.000000 0.000000 0.000000 0.048744 0.000000 0.000000
# 5 0.000000 0.000000 0.000000 0.000000 0.843841 0.000000
# 6 0.000000 0.000000 0.000000 0.000000 0.000000 0.054537
#
#
# Mechanical properties :
#
#
# Convention : Reuss Voigt Hill
#
# Bulk Modulus (GPa) = 32.23211 32.90336 32.56774
# Shear Modulus (GPa) = 4.80903 17.10193 10.95548
#
# Velocity S-wave (km/s) = 1.66809 3.14567 2.51771
# Velocity P-wave (km/s) = 4.72860 5.67730 5.22453
#
# Compressibility (1/GPa) = 0.03102496
#
# Stress axis : x y z
#
# Youngs Moduli (GPa) = 66.17799 55.89196 42.31235
#
# Poissons Ratio (x) = 0.11461 0.23550
# Poissons Ratio (y) = 0.13571 0.21957
# Poissons Ratio (z) = 0.36833 0.29004
#
# Static dielectric constant tensor:
#      x y z
#    x 3.747640 0.000000 0.000000 
#    y 0.000000 3.241260 0.000000 
#    z 0.000000 0.000000 3.045690 
# 
# 
# High freq. dielectric constant tensor:
#      x y z
#    x 1.669510 0.000000 0.000000 
#    y 0.000000 1.661710 0.000000 
#    z 0.000000 0.000000 1.641910 
# 
# From -- ./inp_files/45818.got.cif
#   From: 2010.03.12/outbox.cif.g09.slc.cpg/sg63_23_cif.got.tgz:45818.got - 2010.04.10 19:34:48.
