data_PCOD8260234
_publ_section_title
;
Structure prediction by ZEFSAII (Michael W. Deem and Ramdas Pophale) SiO2 
 PCOD8260234
Probable space group: C M C M
;
_chemical_formula_sum "Si O2"
_cell_formula_units_Z 88
_cell_length_a 19.850075
_cell_length_b 12.196299
_cell_length_c 18.726390
_cell_angle_alpha 90.000000
_cell_angle_beta 90.000000
_cell_angle_gamma 90.000000
_cell_volume 4533.611264
_symmetry_space_group_name_H-M "C M C M"
_symmetry_group_IT_number 63
_symmetry_cell_setting 'orthorhombic'
loop_
_space_group_symop_operation_xyz
x,y,z
-x,-y,1/2+z
x,-y,-z
-x,y,1/2-z
-x,-y,-z
x,y,1/2-z
-x,y,z
x,-y,1/2+z
1/2+x,1/2+y,z
1/2-x,1/2-y,1/2+z
1/2+x,1/2-y,-z
1/2-x,1/2+y,1/2-z
1/2-x,1/2-y,-z
1/2+x,1/2+y,1/2-z
1/2-x,1/2+y,z
1/2+x,1/2-y,1/2+z
loop_
_atom_site_type_symbol
_atom_site_label
_atom_site_fract_x
_atom_site_fract_y
_atom_site_fract_z
Si Si1 0.254427 0.685630 0.573659
Si Si2 0.000000 0.670221 0.165275
Si Si3 0.375666 0.217668 0.668447
Si Si4 0.079341 0.057678 0.115270
Si Si5 0.000000 0.425054 0.334751
Si Si6 0.324469 0.500000 0.000000
Si Si7 0.878366 0.817858 0.166441
O O1 0.250000 0.750000 0.500000
O O2 0.185842 0.692927 0.616593
O O3 0.274894 0.561778 0.554163
O O4 0.313090 0.727965 0.625682
O O5 0.000000 0.547719 0.132855
O O6 0.935520 0.736298 0.138148
O O7 0.000000 0.665364 0.250000
O O8 0.355545 0.189522 0.750000
O O9 0.401934 0.342885 0.667790
O O10 0.434077 0.138720 0.638700
O O11 0.000000 0.058386 0.097122
O O12 0.100275 0.942590 0.150383
O O13 0.124530 0.078574 0.044317
O O14 0.000000 0.427775 0.250000
O O15 0.864719 0.806281 0.250000
#
# Coordination Sequence:
#
# PCOD8260234 Si02
#       7
#    16   8  16  16   8   8  16
#     4  11  23  41  59  84 120 162 202 244 297 357
#     4   9  18  37  60  87 120 153 192 239 297 360
#     4  11  22  38  63  91 122 156 199 253 308 362
#     4  11  20  36  64  96 123 156 200 255 311 366
#     4   9  20  37  58  87 118 155 196 244 302 360
#     4  10  23  40  60  87 124 168 204 248 298 365
#     4  10  21  37  62  92 121 154 197 252 303 356
#
# _framework density 19.410574
#
# number of rings (size 3 to 8) (size 9 to 14) (size 15 to 20)
#    0.000    1.636    3.636    1.364    0.000    2.182 
#    0.000    0.909    0.000    1.636    0.000    0.000 
#    0.000    0.000    0.000    0.000    0.000    0.000 
#
# Total GULP energy -545440.431126 kJ/mol
# GULP energy per Si atom -12396.373435 kJ/mol
# Density = 1.936639 g / cm^3
# Si number density = 19.410574 Si / 1000 Ang^3
#
#
#
# Elastic Constant Matrix: (Units=GPa)
#
#
# Indices 1 2 3 4 5 6 
#
# 1 186.6573 77.0281 71.9919 0.0000 0.0000 0.0000
# 2 77.0281 119.8609 37.5675 0.0000 0.0000 0.0000
# 3 71.9919 37.5675 93.8404 0.0000 0.0000 0.0000
# 4 0.0000 0.0000 0.0000 27.4311 0.0000 0.0000
# 5 0.0000 0.0000 0.0000 0.0000 23.2514 0.0000
# 6 0.0000 0.0000 0.0000 0.0000 0.0000 26.7307
#
#
#
# Elastic Compliance Matrix: (Units=1/GPa)
#
#
# Indices 1 2 3 4 5 6 
#
# 1 0.009153 -0.004209 -0.005337 0.000000 0.000000 0.000000
# 2 -0.004209 0.011476 -0.001365 0.000000 0.000000 0.000000
# 3 -0.005337 -0.001365 0.015297 0.000000 0.000000 0.000000
# 4 0.000000 0.000000 0.000000 0.036455 0.000000 0.000000
# 5 0.000000 0.000000 0.000000 0.000000 0.043008 0.000000
# 6 0.000000 0.000000 0.000000 0.000000 0.000000 0.037410
#
#
# Mechanical properties :
#
#
# Convention : Reuss Voigt Hill
#
# Bulk Modulus (GPa) = 70.90249 85.94818 78.42533
# Shear Modulus (GPa) = 27.88282 29.73406 28.80844
#
# Velocity S-wave (km/s) = 3.79420 3.91813 3.85666
# Velocity P-wave (km/s) = 7.47005 8.05259 7.76678
#
# Compressibility (1/GPa) = 0.01410388
#
# Stress axis : x y z
#
# Youngs Moduli (GPa) = 109.25651 87.13896 65.37269
#
# Poissons Ratio (x) = 0.36680 0.34887
# Poissons Ratio (y) = 0.45990 0.08923
# Poissons Ratio (z) = 0.58306 0.11893
#
# Static dielectric constant tensor:
#      x y z
#    x 3.785490 0.000000 0.000000 
#    y 0.000000 3.643070 0.000000 
#    z 0.000000 0.000000 3.492210 
# 
# 
# High freq. dielectric constant tensor:
#      x y z
#    x 1.769340 0.000000 0.000000 
#    y 0.000000 1.752510 0.000000 
#    z 0.000000 0.000000 1.748020 
# 
# From -- ./inp_files/55459.got.cif
#   From: 2010.03.12/outbox.cif.g09.slc.cpg/sg63_28_cif.got.tgz:55459.got - 2010.04.10 19:34:48.
