data_PCOD8260322
_publ_section_title
;
Structure prediction by ZEFSAII (Michael W. Deem and Ramdas Pophale) SiO2 
 PCOD8260322
Probable space group: C M C M
;
_chemical_formula_sum "Si O2"
_cell_formula_units_Z 96
_cell_length_a 22.954806
_cell_length_b 25.375310
_cell_length_c 8.791206
_cell_angle_alpha 90.000000
_cell_angle_beta 90.000000
_cell_angle_gamma 90.000000
_cell_volume 5120.748425
_symmetry_space_group_name_H-M "C M C M"
_symmetry_group_IT_number 63
_symmetry_cell_setting 'orthorhombic'
loop_
_space_group_symop_operation_xyz
x,y,z
-x,-y,1/2+z
x,-y,-z
-x,y,1/2-z
-x,-y,-z
x,y,1/2-z
-x,y,z
x,-y,1/2+z
1/2+x,1/2+y,z
1/2-x,1/2-y,1/2+z
1/2+x,1/2-y,-z
1/2-x,1/2+y,1/2-z
1/2-x,1/2-y,-z
1/2+x,1/2+y,1/2-z
1/2-x,1/2+y,z
1/2+x,1/2-y,1/2+z
loop_
_atom_site_type_symbol
_atom_site_label
_atom_site_fract_x
_atom_site_fract_y
_atom_site_fract_z
Si Si1 0.859632 0.346654 0.429623
Si Si2 0.881745 0.156367 0.072821
Si Si3 0.252522 0.692891 0.073222
Si Si4 0.432822 0.755802 0.574665
Si Si5 0.066279 0.445614 0.429847
Si Si6 0.567751 0.444558 0.426680
O O1 0.853106 0.348078 0.250000
O O2 0.795816 0.345812 0.502759
O O3 0.894362 0.294248 0.472984
O O4 0.893851 0.397958 0.490797
O O5 0.896849 0.161879 0.250000
O O6 0.814357 0.167029 0.039392
O O7 0.922033 0.196368 0.979043
O O8 0.894536 0.098095 0.015436
O O9 0.240012 0.699597 0.250000
O O10 0.250000 0.750000 0.000000
O O11 0.414395 0.761497 0.750000
O O12 0.500000 0.770342 0.550769
O O13 0.090011 0.500000 0.500000
O O14 0.069634 0.449943 0.250000
O O15 0.000000 0.435037 0.484093
O O16 0.584471 0.500000 0.500000
O O17 0.584691 0.444983 0.250000
O O18 0.500000 0.431718 0.450449
#
# Coordination Sequence:
#
# PCOD8260322 Si02
#       6
#    16  16  16  16  16  16
#     4  11  22  37  58  84 114 151 192 236 288 344
#     4  11  23  38  58  84 114 151 193 237 289 345
#     4  11  23  39  59  83 113 153 196 238 286 342
#     4  11  23  36  54  83 116 149 187 235 289 345
#     4   9  19  36  58  84 114 148 187 232 284 341
#     4  10  21  38  61  88 118 152 190 235 288 345
#
# _framework density 18.747260000000001
#
# number of rings (size 3 to 8) (size 9 to 14) (size 15 to 20)
#    0.000    1.500    1.667    3.500    0.000    8.333 
#    0.000    2.500    0.000    2.000    0.000    0.000 
#    0.000    0.000    0.000    0.000    0.000    0.000 
#
# Total GULP energy -595490.279953 kJ/mol
# GULP energy per Si atom -12406.047499 kJ/mol
# Density = 1.870459 g / cm^3
# Si number density = 18.747260 Si / 1000 Ang^3
#
#
#
# Elastic Constant Matrix: (Units=GPa)
#
#
# Indices 1 2 3 4 5 6 
#
# 1 82.8416 47.4166 45.1870 0.0000 0.0000 0.0000
# 2 47.4166 119.4704 31.3763 0.0000 0.0000 0.0000
# 3 45.1870 31.3763 73.3917 0.0000 0.0000 0.0000
# 4 0.0000 0.0000 0.0000 36.6827 0.0000 0.0000
# 5 0.0000 0.0000 0.0000 0.0000 29.6067 0.0000
# 6 0.0000 0.0000 0.0000 0.0000 0.0000 42.6423
#
#
#
# Elastic Compliance Matrix: (Units=1/GPa)
#
#
# Indices 1 2 3 4 5 6 
#
# 1 0.021019 -0.005569 -0.010561 0.000000 0.000000 0.000000
# 2 -0.005569 0.010904 -0.001233 0.000000 0.000000 0.000000
# 3 -0.010561 -0.001233 0.020655 0.000000 0.000000 0.000000
# 4 0.000000 0.000000 0.000000 0.027261 0.000000 0.000000
# 5 0.000000 0.000000 0.000000 0.000000 0.033776 0.000000
# 6 0.000000 0.000000 0.000000 0.000000 0.000000 0.023451
#
#
# Mechanical properties :
#
#
# Convention : Reuss Voigt Hill
#
# Bulk Modulus (GPa) = 56.01229 58.18481 57.09855
# Shear Modulus (GPa) = 28.13065 31.90128 30.01596
#
# Velocity S-wave (km/s) = 3.87786 4.12958 4.00570
# Velocity P-wave (km/s) = 7.07056 7.33769 7.20536
#
# Compressibility (1/GPa) = 0.01785322
#
# Stress axis : x y z
#
# Youngs Moduli (GPa) = 47.57584 91.70689 48.41480
#
# Poissons Ratio (x) = 0.51069 0.51129
# Poissons Ratio (y) = 0.26494 0.05970
# Poissons Ratio (z) = 0.50243 0.11309
#
# Static dielectric constant tensor:
#      x y z
#    x 3.813100 0.000000 0.000000 
#    y 0.000000 3.483160 0.000000 
#    z 0.000000 0.000000 3.536370 
# 
# 
# High freq. dielectric constant tensor:
#      x y z
#    x 1.727540 0.000000 0.000000 
#    y 0.000000 1.730090 0.000000 
#    z 0.000000 0.000000 1.740800 
# 
# From -- ./inp_files/10438.got.cif
#   From: 2010.03.12/outbox.cif.g09.slc.cpg/sg63_6_cif.got.tgz:10438.got - 2010.04.10 19:34:48.
