data_PCOD8260444
_publ_section_title
;
Structure prediction by ZEFSAII (Michael W. Deem and Ramdas Pophale) SiO2 
 PCOD8260444
Probable space group: C M C M
;
_chemical_formula_sum "Si O2"
_cell_formula_units_Z 48
_cell_length_a 10.070116
_cell_length_b 17.507757
_cell_length_c 13.245431
_cell_angle_alpha 90.000000
_cell_angle_beta 90.000000
_cell_angle_gamma 90.000000
_cell_volume 2335.237618
_symmetry_space_group_name_H-M "C M C M"
_symmetry_group_IT_number 63
_symmetry_cell_setting 'orthorhombic'
loop_
_space_group_symop_operation_xyz
x,y,z
-x,-y,1/2+z
x,-y,-z
-x,y,1/2-z
-x,-y,-z
x,y,1/2-z
-x,y,z
x,-y,1/2+z
1/2+x,1/2+y,z
1/2-x,1/2-y,1/2+z
1/2+x,1/2-y,-z
1/2-x,1/2+y,1/2-z
1/2-x,1/2-y,-z
1/2+x,1/2+y,1/2-z
1/2-x,1/2+y,z
1/2+x,1/2-y,1/2+z
loop_
_atom_site_type_symbol
_atom_site_label
_atom_site_fract_x
_atom_site_fract_y
_atom_site_fract_z
Si Si1 0.218320 0.127043 0.136765
Si Si2 0.284526 0.000000 0.000000
Si Si3 0.000000 0.299882 0.861127
Si Si4 0.500000 0.916943 0.369284
Si Si5 0.000000 0.759071 0.570043
O O1 0.183282 0.101189 0.250000
O O2 0.373668 0.145645 0.125872
O O3 0.132279 0.200904 0.109952
O O4 0.188115 0.058042 0.060119
O O5 0.370239 0.045395 0.917527
O O6 0.000000 0.260442 0.750000
O O7 0.000000 0.236013 0.947893
O O8 0.500000 0.932664 0.250000
O O9 0.500000 0.826994 0.390947
#
# Coordination Sequence:
#
# PCOD8260444 Si02
#       5
#    16   8   8   8   8
#     4  11  23  41  65  93 128 167 204 258 318 366
#     4  11  22  39  60  90 128 166 206 254 314 376
#     4  10  21  39  65  92 123 161 205 255 311 364
#     4  11  22  38  63  92 120 162 218 261 299 371
#     4  12  23  43  64  95 125 162 213 259 310 363
#
# _framework density 20.554653999999999
#
# number of rings (size 3 to 8) (size 9 to 14) (size 15 to 20)
#    0.000    1.000    3.333    4.500    0.000    2.000 
#    0.000    1.667    0.000    0.000    0.000    0.000 
#    0.000    0.000    0.000    0.000    0.000    0.000 
#
# Total GULP energy -297665.767398 kJ/mol
# GULP energy per Si atom -12402.740308 kJ/mol
# Density = 2.050787 g / cm^3
# Si number density = 20.554654 Si / 1000 Ang^3
#
#
#
# Elastic Constant Matrix: (Units=GPa)
#
#
# Indices 1 2 3 4 5 6 
#
# 1 65.5146 37.3471 27.1589 0.0000 0.0000 0.0000
# 2 37.3471 126.1293 62.6867 0.0000 0.0000 0.0000
# 3 27.1589 62.6867 195.2952 0.0000 0.0000 0.0000
# 4 0.0000 0.0000 0.0000 35.1731 0.0000 0.0000
# 5 0.0000 0.0000 0.0000 0.0000 20.0326 0.0000
# 6 0.0000 0.0000 0.0000 0.0000 0.0000 16.8854
#
#
#
# Elastic Compliance Matrix: (Units=1/GPa)
#
#
# Indices 1 2 3 4 5 6 
#
# 1 0.018517 -0.005001 -0.000970 0.000000 0.000000 0.000000
# 2 -0.005001 0.010784 -0.002766 0.000000 0.000000 0.000000
# 3 -0.000970 -0.002766 0.006143 0.000000 0.000000 0.000000
# 4 0.000000 0.000000 0.000000 0.028431 0.000000 0.000000
# 5 0.000000 0.000000 0.000000 0.000000 0.049919 0.000000
# 6 0.000000 0.000000 0.000000 0.000000 0.000000 0.059223
#
#
# Mechanical properties :
#
#
# Convention : Reuss Voigt Hill
#
# Bulk Modulus (GPa) = 55.64737 71.25827 63.45282
# Shear Modulus (GPa) = 25.44800 31.73465 28.59132
#
# Velocity S-wave (km/s) = 3.52243 3.93353 3.73364
# Velocity P-wave (km/s) = 6.60871 7.44132 7.03734
#
# Compressibility (1/GPa) = 0.01797030
#
# Stress axis : x y z
#
# Youngs Moduli (GPa) = 54.00574 92.73154 162.78243
#
# Poissons Ratio (x) = 0.46373 0.15787
# Poissons Ratio (y) = 0.27007 0.45026
# Poissons Ratio (z) = 0.05238 0.25650
#
# Static dielectric constant tensor:
#      x y z
#    x 3.538810 0.000000 0.000000 
#    y 0.000000 3.626750 0.000000 
#    z 0.000000 0.000000 4.250130 
# 
# 
# High freq. dielectric constant tensor:
#      x y z
#    x 1.788710 0.000000 0.000000 
#    y 0.000000 1.793620 0.000000 
#    z 0.000000 0.000000 1.831940 
# 
# From -- ./inp_files/28669.got.cif
#   From: 2010.03.12/outbox.cif.g09.slc.cpg/sg63_15_cif.got.tgz:28669.got - 2010.04.10 19:34:48.
