data_PCOD8260419
_publ_section_title
;
Structure prediction by ZEFSAII (Michael W. Deem and Ramdas Pophale) SiO2 
 PCOD8260419
Probable space group: C M C M
;
_chemical_formula_sum "Si O2"
_cell_formula_units_Z 72
_cell_length_a 29.033231
_cell_length_b 13.941764
_cell_length_c 8.795726
_cell_angle_alpha 90.000000
_cell_angle_beta 90.000000
_cell_angle_gamma 90.000000
_cell_volume 3560.285196
_symmetry_space_group_name_H-M "C M C M"
_symmetry_group_IT_number 63
_symmetry_cell_setting 'orthorhombic'
loop_
_space_group_symop_operation_xyz
x,y,z
-x,-y,1/2+z
x,-y,-z
-x,y,1/2-z
-x,-y,-z
x,y,1/2-z
-x,y,z
x,-y,1/2+z
1/2+x,1/2+y,z
1/2-x,1/2-y,1/2+z
1/2+x,1/2-y,-z
1/2-x,1/2+y,1/2-z
1/2-x,1/2-y,-z
1/2+x,1/2+y,1/2-z
1/2-x,1/2+y,z
1/2+x,1/2-y,1/2+z
loop_
_atom_site_type_symbol
_atom_site_label
_atom_site_fract_x
_atom_site_fract_y
_atom_site_fract_z
Si Si1 0.230941 0.601019 0.429357
Si Si2 0.448545 0.906134 0.073830
Si Si3 0.500000 0.603524 0.930047
Si Si4 0.587402 0.704426 0.428292
Si Si5 0.683440 0.297586 0.428994
O O1 0.213618 0.500000 0.500000
O O2 0.237147 0.588972 0.250000
O O3 0.279401 0.629836 0.502740
O O4 0.194905 0.686339 0.467951
O O5 0.452463 0.925348 0.250000
O O6 0.500000 0.887671 0.006779
O O7 0.415780 0.817409 0.037801
O O8 0.425675 0.000000 0.000000
O O9 0.500000 0.598720 0.750000
O O10 0.500000 0.500000 0.000000
O O11 0.454248 0.655157 0.985799
O O12 0.583927 0.680688 0.250000
O O13 0.635731 0.670031 0.495068
O O14 0.680838 0.313994 0.250000
#
# Coordination Sequence:
#
# PCOD8260419 Si02
#       5
#    16  16   8  16  16
#     4  10  21  39  63  89 121 158 196 244 300 358
#     4   9  18  33  53  79 112 150 191 235 284 339
#     4  12  26  44  65  88 117 156 203 252 300 350
#     4  11  22  40  62  87 122 159 200 248 299 350
#     4  10  22  39  60  90 122 155 200 246 297 356
#
# _framework density 20.223099999999999
#
# number of rings (size 3 to 8) (size 9 to 14) (size 15 to 20)
#    0.000    1.778    1.111    3.000    0.000    6.222 
#    0.000    8.889    0.000    0.000    0.000    0.000 
#    0.000    0.000    0.000    0.000    0.000    0.000 
#
# Total GULP energy -446433.994388 kJ/mol
# GULP energy per Si atom -12400.944289 kJ/mol
# Density = 2.017707 g / cm^3
# Si number density = 20.223100 Si / 1000 Ang^3
#
#
#
# Elastic Constant Matrix: (Units=GPa)
#
#
# Indices 1 2 3 4 5 6 
#
# 1 113.2872 18.9699 50.7903 0.0000 0.0000 0.0000
# 2 18.9699 80.7930 48.1205 0.0000 0.0000 0.0000
# 3 50.7903 48.1205 116.2726 0.0000 0.0000 0.0000
# 4 0.0000 0.0000 0.0000 39.1700 0.0000 0.0000
# 5 0.0000 0.0000 0.0000 0.0000 32.6452 0.0000
# 6 0.0000 0.0000 0.0000 0.0000 0.0000 15.7071
#
#
#
# Elastic Compliance Matrix: (Units=1/GPa)
#
#
# Indices 1 2 3 4 5 6 
#
# 1 0.010985 0.000370 -0.004952 0.000000 0.000000 0.000000
# 2 0.000370 0.016439 -0.006965 0.000000 0.000000 0.000000
# 3 -0.004952 -0.006965 0.013646 0.000000 0.000000 0.000000
# 4 0.000000 0.000000 0.000000 0.025530 0.000000 0.000000
# 5 0.000000 0.000000 0.000000 0.000000 0.030632 0.000000
# 6 0.000000 0.000000 0.000000 0.000000 0.000000 0.063666
#
#
# Mechanical properties :
#
#
# Convention : Reuss Voigt Hill
#
# Bulk Modulus (GPa) = 55.62785 60.67934 58.15360
# Shear Modulus (GPa) = 26.31813 30.33593 28.32703
#
# Velocity S-wave (km/s) = 3.61139 3.87727 3.74669
# Velocity P-wave (km/s) = 6.70495 7.07915 6.89459
#
# Compressibility (1/GPa) = 0.01797661
#
# Stress axis : x y z
#
# Youngs Moduli (GPa) = 91.03197 60.83174 73.28173
#
# Poissons Ratio (x) = -0.02250 0.36286
# Poissons Ratio (y) = -0.03368 0.51040
# Poissons Ratio (z) = 0.45076 0.42369
#
# Static dielectric constant tensor:
#      x y z
#    x 3.575670 0.000000 0.000000 
#    y 0.000000 3.767160 0.000000 
#    z 0.000000 0.000000 3.701400 
# 
# 
# High freq. dielectric constant tensor:
#      x y z
#    x 1.784870 0.000000 0.000000 
#    y 0.000000 1.793060 0.000000 
#    z 0.000000 0.000000 1.799180 
# 
# From -- ./inp_files/13926.got.cif
#   From: 2010.03.12/outbox.cif.g09.slc.cpg/sg63_7_cif.got.tgz:13926.got - 2010.04.10 19:34:48.
