data_PCOD8260754
_publ_section_title
;
Structure prediction by ZEFSAII (Michael W. Deem and Ramdas Pophale) SiO2 
 PCOD8260754
Probable space group: C M C M
;
_chemical_formula_sum "Si O2"
_cell_formula_units_Z 72
_cell_length_a 28.576425
_cell_length_b 13.330196
_cell_length_c 9.601558
_cell_angle_alpha 90.000000
_cell_angle_beta 90.000000
_cell_angle_gamma 90.000000
_cell_volume 3657.515212
_symmetry_space_group_name_H-M "C M C M"
_symmetry_group_IT_number 63
_symmetry_cell_setting 'orthorhombic'
loop_
_space_group_symop_operation_xyz
x,y,z
-x,-y,1/2+z
x,-y,-z
-x,y,1/2-z
-x,-y,-z
x,y,1/2-z
-x,y,z
x,-y,1/2+z
1/2+x,1/2+y,z
1/2-x,1/2-y,1/2+z
1/2+x,1/2-y,-z
1/2-x,1/2+y,1/2-z
1/2-x,1/2-y,-z
1/2+x,1/2+y,1/2-z
1/2-x,1/2+y,z
1/2+x,1/2-y,1/2+z
loop_
_atom_site_type_symbol
_atom_site_label
_atom_site_fract_x
_atom_site_fract_y
_atom_site_fract_z
Si Si1 0.237077 0.099035 0.411730
Si Si2 0.421259 0.255045 0.992511
Si Si3 0.943377 0.104144 0.250000
Si Si4 0.000000 0.399028 0.412602
Si Si5 0.051654 0.116529 0.750000
Si Si6 0.820518 0.249072 0.589592
O O1 0.223208 0.077925 0.250000
O O2 0.196322 0.159614 0.489711
O O3 0.285586 0.158348 0.417428
O O4 0.245800 0.000000 0.500000
O O5 0.420005 0.340970 0.878669
O O6 0.453347 0.162140 0.948974
O O7 0.441537 0.312148 0.122173
O O8 0.369866 0.213011 0.028594
O O9 0.000000 0.116986 0.250000
O O10 0.921749 0.990717 0.250000
O O11 0.000000 0.500000 0.500000
O O12 0.000000 0.426070 0.250000
O O13 0.000000 0.073256 0.750000
O O14 0.825786 0.210732 0.750000
#
# Coordination Sequence:
#
# PCOD8260754 Si02
#       6
#    16  16   8   8   8  16
#     4  10  22  42  65  91 124 162 208 265 321 382
#     4  12  22  43  63  93 134 167 214 270 310 379
#     4  11  22  40  60  93 134 172 220 256 321 382
#     4  12  28  46  67  93 128 176 225 267 317 368
#     4  11  22  36  66  93 124 176 208 258 325 384
#     4  10  23  41  64  93 126 167 211 260 317 376
#
# _framework density 19.685496000000001
#
# number of rings (size 3 to 8) (size 9 to 14) (size 15 to 20)
#    0.000    1.111    4.444    1.333    3.111    5.333 
#    0.000    2.222    0.000    0.000    0.000    0.000 
#    0.000    0.000    0.000    0.000    0.000    0.000 
#
# Total GULP energy -446252.116349 kJ/mol
# GULP energy per Si atom -12395.892121 kJ/mol
# Density = 1.964069 g / cm^3
# Si number density = 19.685496 Si / 1000 Ang^3
#
#
#
# Elastic Constant Matrix: (Units=GPa)
#
#
# Indices 1 2 3 4 5 6 
#
# 1 111.5790 23.9851 41.6264 0.0000 0.0000 0.0000
# 2 23.9851 111.2940 63.5855 0.0000 0.0000 0.0000
# 3 41.6264 63.5855 183.8552 0.0000 0.0000 0.0000
# 4 0.0000 0.0000 0.0000 46.8848 0.0000 0.0000
# 5 0.0000 0.0000 0.0000 0.0000 31.5738 0.0000
# 6 0.0000 0.0000 0.0000 0.0000 0.0000 9.9183
#
#
#
# Elastic Compliance Matrix: (Units=1/GPa)
#
#
# Indices 1 2 3 4 5 6 
#
# 1 0.009889 -0.001062 -0.001872 0.000000 0.000000 0.000000
# 2 -0.001062 0.011312 -0.003672 0.000000 0.000000 0.000000
# 3 -0.001872 -0.003672 0.007133 0.000000 0.000000 0.000000
# 4 0.000000 0.000000 0.000000 0.021329 0.000000 0.000000
# 5 0.000000 0.000000 0.000000 0.000000 0.031672 0.000000
# 6 0.000000 0.000000 0.000000 0.000000 0.000000 0.100824
#
#
# Mechanical properties :
#
#
# Convention : Reuss Voigt Hill
#
# Bulk Modulus (GPa) = 66.12521 73.90247 70.01384
# Shear Modulus (GPa) = 24.94891 36.17746 30.56318
#
# Velocity S-wave (km/s) = 3.56388 4.29158 3.94455
# Velocity P-wave (km/s) = 7.11328 7.88542 7.50928
#
# Compressibility (1/GPa) = 0.01512283
#
# Stress axis : x y z
#
# Youngs Moduli (GPa) = 101.12480 88.40327 140.19974
#
# Poissons Ratio (x) = 0.09387 0.26241
# Poissons Ratio (y) = 0.10737 0.51478
# Poissons Ratio (z) = 0.18927 0.32459
#
# Static dielectric constant tensor:
#      x y z
#    x 3.632780 0.000000 0.000000 
#    y 0.000000 3.497350 0.000000 
#    z 0.000000 0.000000 3.838400 
# 
# 
# High freq. dielectric constant tensor:
#      x y z
#    x 1.767610 0.000000 0.000000 
#    y 0.000000 1.763560 0.000000 
#    z 0.000000 0.000000 1.792400 
# 
# From -- ./inp_files/11767.got.cif
#   From: 2010.03.12/outbox.cif.g09.slc.cpg/sg63_6_cif.got.tgz:11767.got - 2010.04.10 19:34:48.
