data_PCOD8260939
_publ_section_title
;
Structure prediction by ZEFSAII (Michael W. Deem and Ramdas Pophale) SiO2 
 PCOD8260939
Probable space group: C M C M
;
_chemical_formula_sum "Si O2"
_cell_formula_units_Z 56
_cell_length_a 13.257781
_cell_length_b 24.786133
_cell_length_c 8.781133
_cell_angle_alpha 90.000000
_cell_angle_beta 90.000000
_cell_angle_gamma 90.000000
_cell_volume 2885.560415
_symmetry_space_group_name_H-M "C M C M"
_symmetry_group_IT_number 63
_symmetry_cell_setting 'orthorhombic'
loop_
_space_group_symop_operation_xyz
x,y,z
-x,-y,1/2+z
x,-y,-z
-x,y,1/2-z
-x,-y,-z
x,y,1/2-z
-x,y,z
x,-y,1/2+z
1/2+x,1/2+y,z
1/2-x,1/2-y,1/2+z
1/2+x,1/2-y,-z
1/2-x,1/2+y,1/2-z
1/2-x,1/2-y,-z
1/2+x,1/2+y,1/2-z
1/2-x,1/2+y,z
1/2+x,1/2-y,1/2+z
loop_
_atom_site_type_symbol
_atom_site_label
_atom_site_fract_x
_atom_site_fract_y
_atom_site_fract_z
Si Si1 0.884139 0.771012 0.079847
Si Si2 0.609214 0.150693 0.430095
Si Si3 0.177935 0.875353 0.573156
Si Si4 0.000000 0.941524 0.428749
O O1 0.836762 0.775919 0.250000
O O2 0.871766 0.711340 0.007704
O O3 0.000000 0.787726 0.090523
O O4 0.832637 0.812102 0.962583
O O5 0.601778 0.157198 0.250000
O O6 0.500000 0.128402 0.491430
O O7 0.704038 0.111531 0.470403
O O8 0.155716 0.886338 0.750000
O O9 0.102107 0.911147 0.475699
O O10 0.000000 0.947388 0.250000
O O11 0.000000 0.000000 0.500000
#
# Coordination Sequence:
#
# PCOD8260939 Si02
#       4
#    16  16  16   8
#     4   9  16  28  47  73 110 153 187 218 260 309
#     4   8  16  30  49  77 114 152 185 216 256 311
#     4  11  20  32  54  81 109 141 181 225 270 322
#     4  12  26  44  62  80 104 134 176 232 287 334
#
# _framework density 19.406976
#
# number of rings (size 3 to 8) (size 9 to 14) (size 15 to 20)
#    0.000    2.286    1.429    4.714    0.000    0.000 
#    0.000    1.429    0.000    6.000    0.000    0.000 
#    0.000    0.000    0.000    0.000    0.000    0.000 
#
# Total GULP energy -346879.325240 kJ/mol
# GULP energy per Si atom -12388.547330 kJ/mol
# Density = 1.936280 g / cm^3
# Si number density = 19.406976 Si / 1000 Ang^3
#
#
#
# Elastic Constant Matrix: (Units=GPa)
#
#
# Indices 1 2 3 4 5 6 
#
# 1 166.6053 66.6388 46.7177 0.0000 0.0000 0.0000
# 2 66.6388 46.7270 24.2517 0.0000 0.0000 0.0000
# 3 46.7177 24.2517 80.7254 0.0000 0.0000 0.0000
# 4 0.0000 0.0000 0.0000 25.6039 0.0000 0.0000
# 5 0.0000 0.0000 0.0000 0.0000 16.7444 0.0000
# 6 0.0000 0.0000 0.0000 0.0000 0.0000 13.2280
#
#
#
# Elastic Compliance Matrix: (Units=1/GPa)
#
#
# Indices 1 2 3 4 5 6 
#
# 1 0.014407 -0.019215 -0.002565 0.000000 0.000000 0.000000
# 2 -0.019215 0.050982 -0.004196 0.000000 0.000000 0.000000
# 3 -0.002565 -0.004196 0.015133 0.000000 0.000000 0.000000
# 4 0.000000 0.000000 0.000000 0.039057 0.000000 0.000000
# 5 0.000000 0.000000 0.000000 0.000000 0.059721 0.000000
# 6 0.000000 0.000000 0.000000 0.000000 0.000000 0.075597
#
#
# Mechanical properties :
#
#
# Convention : Reuss Voigt Hill
#
# Bulk Modulus (GPa) = 35.00223 63.25264 49.12744
# Shear Modulus (GPa) = 15.80413 21.54521 18.67467
#
# Velocity S-wave (km/s) = 2.85678 3.33555 3.10541
# Velocity P-wave (km/s) = 5.38114 6.89188 6.18283
#
# Compressibility (1/GPa) = 0.02856961
#
# Stress axis : x y z
#
# Youngs Moduli (GPa) = 69.40967 19.61474 66.08216
#
# Poissons Ratio (x) = 0.37690 0.16951
# Poissons Ratio (y) = 1.33373 0.27727
# Poissons Ratio (z) = 0.17804 0.08230
#
# Static dielectric constant tensor:
#      x y z
#    x 4.281980 0.000000 0.000000 
#    y 0.000000 3.200940 0.000000 
#    z 0.000000 0.000000 3.318120 
# 
# 
# High freq. dielectric constant tensor:
#      x y z
#    x 1.783040 0.000000 0.000000 
#    y 0.000000 1.700020 0.000000 
#    z 0.000000 0.000000 1.731560 
# 
# From -- ./inp_files/4162.got.cif
#   From: 2010.03.12/outbox.cif.g09.slc.cpg/sg63_3_cif.got.tgz:4162.got - 2010.04.10 19:34:48.
