data_PCOD8260924
_publ_section_title
;
Structure prediction by ZEFSAII (Michael W. Deem and Ramdas Pophale) SiO2 
 PCOD8260924
Probable space group: C M C M
;
_chemical_formula_sum "Si O2"
_cell_formula_units_Z 112
_cell_length_a 15.259161
_cell_length_b 28.283065
_cell_length_c 14.518559
_cell_angle_alpha 90.000000
_cell_angle_beta 90.000000
_cell_angle_gamma 90.000000
_cell_volume 6265.859331
_symmetry_space_group_name_H-M "C M C M"
_symmetry_group_IT_number 63
_symmetry_cell_setting 'orthorhombic'
loop_
_space_group_symop_operation_xyz
x,y,z
-x,-y,1/2+z
x,-y,-z
-x,y,1/2-z
-x,-y,-z
x,y,1/2-z
-x,y,z
x,-y,1/2+z
1/2+x,1/2+y,z
1/2-x,1/2-y,1/2+z
1/2+x,1/2-y,-z
1/2-x,1/2+y,1/2-z
1/2-x,1/2-y,-z
1/2+x,1/2+y,1/2-z
1/2-x,1/2+y,z
1/2+x,1/2-y,1/2+z
loop_
_atom_site_type_symbol
_atom_site_label
_atom_site_fract_x
_atom_site_fract_y
_atom_site_fract_z
Si Si1 0.778210 0.928834 0.641618
Si Si2 0.845494 0.291277 0.647874
Si Si3 0.395755 0.614711 0.852465
Si Si4 0.401754 0.296568 0.039378
Si Si5 0.652198 0.327910 0.850700
Si Si6 0.403789 0.107827 0.359557
Si Si7 0.598782 0.489239 0.359853
O O1 0.769181 0.936635 0.750000
O O2 0.836121 0.882599 0.621091
O O3 0.678358 0.923057 0.600649
O O4 0.831648 0.973094 0.598282
O O5 0.880822 0.276327 0.750000
O O6 0.851406 0.249488 0.573943
O O7 0.744879 0.303368 0.656984
O O8 0.896438 0.337326 0.609418
O O9 0.357724 0.622977 0.750000
O O10 0.500000 0.615877 0.849883
O O11 0.357706 0.656115 0.917544
O O12 0.367904 0.562967 0.890482
O O13 0.500000 0.291303 0.075950
O O14 0.403002 0.300961 0.928695
O O15 0.605395 0.324184 0.750000
O O16 0.396568 0.107157 0.250000
O O17 0.500000 0.088520 0.392070
O O18 0.596191 0.491569 0.250000
O O19 0.500000 0.499920 0.397019
#
# Coordination Sequence:
#
# PCOD8260924 Si02
#       7
#    16  16  16  16  16  16  16
#     4   8  14  25  41  58  78 112 152 182 215 260
#     4   9  17  30  47  64  85 114 146 181 222 267
#     4   8  15  27  41  61  89 115 142 179 217 252
#     4  11  20  28  43  66  90 117 147 179 218 263
#     4   9  19  33  44  58  85 118 150 183 214 254
#     4   8  13  22  38  62  89 110 132 173 227 273
#     4   8  13  23  40  59  82 115 148 176 209 251
#
# _framework density 17.874642999999999
#
# number of rings (size 3 to 8) (size 9 to 14) (size 15 to 20)
#    0.000    3.286    0.000    3.857    0.000    2.286 
#    0.000    2.143    0.000    2.571    0.000    0.000 
#    0.000   13.714    0.000   19.714    0.000    7.000 
#
# Total GULP energy -693747.407767 kJ/mol
# GULP energy per Si atom -12388.346567 kJ/mol
# Density = 1.783396 g / cm^3
# Si number density = 17.874643 Si / 1000 Ang^3
#
#
#
# Elastic Constant Matrix: (Units=GPa)
#
#
# Indices 1 2 3 4 5 6 
#
# 1 57.7243 36.3139 0.9357 0.0000 0.0000 0.0000
# 2 36.3139 98.2305 17.4094 0.0000 0.0000 0.0000
# 3 0.9357 17.4094 41.3535 0.0000 0.0000 0.0000
# 4 0.0000 0.0000 0.0000 10.6761 0.0000 0.0000
# 5 0.0000 0.0000 0.0000 0.0000 10.6658 0.0000
# 6 0.0000 0.0000 0.0000 0.0000 0.0000 15.8566
#
#
#
# Elastic Compliance Matrix: (Units=1/GPa)
#
#
# Indices 1 2 3 4 5 6 
#
# 1 0.022984 -0.009082 0.003303 0.000000 0.000000 0.000000
# 2 -0.009082 0.014590 -0.005937 0.000000 0.000000 0.000000
# 3 0.003303 -0.005937 0.026606 0.000000 0.000000 0.000000
# 4 0.000000 0.000000 0.000000 0.093667 0.000000 0.000000
# 5 0.000000 0.000000 0.000000 0.000000 0.093758 0.000000
# 6 0.000000 0.000000 0.000000 0.000000 0.000000 0.063065
#
#
# Mechanical properties :
#
#
# Convention : Reuss Voigt Hill
#
# Bulk Modulus (GPa) = 24.54040 34.06960 29.30500
# Shear Modulus (GPa) = 14.21732 16.94964 15.58348
#
# Velocity S-wave (km/s) = 2.82333 3.08271 2.95586
# Velocity P-wave (km/s) = 4.93834 5.63671 5.29904
#
# Compressibility (1/GPa) = 0.04074912
#
# Stress axis : x y z
#
# Youngs Moduli (GPa) = 43.50915 68.54118 37.58506
#
# Poissons Ratio (x) = 0.62250 -0.12416
# Poissons Ratio (y) = 0.39515 0.22313
# Poissons Ratio (z) = -0.14373 0.40691
#
# Static dielectric constant tensor:
#      x y z
#    x 3.310070 0.000000 0.000000 
#    y 0.000000 3.493370 0.000000 
#    z 0.000000 0.000000 3.177590 
# 
# 
# High freq. dielectric constant tensor:
#      x y z
#    x 1.665790 0.000000 0.000000 
#    y 0.000000 1.685210 0.000000 
#    z 0.000000 0.000000 1.661980 
# 
# From -- ./inp_files/32766.got.cif
#   From: 2010.03.12/outbox.cif.g09.slc.cpg/sg63_17_cif.got.tgz:32766.got - 2010.04.10 19:34:48.
