data_PCOD8260857
_publ_section_title
;
Structure prediction by ZEFSAII (Michael W. Deem and Ramdas Pophale) SiO2 
 PCOD8260857
Probable space group: C M C M
;
_chemical_formula_sum "Si O2"
_cell_formula_units_Z 88
_cell_length_a 15.198453
_cell_length_b 11.894921
_cell_length_c 22.756201
_cell_angle_alpha 90.000000
_cell_angle_beta 90.000000
_cell_angle_gamma 90.000000
_cell_volume 4113.966093
_symmetry_space_group_name_H-M "C M C M"
_symmetry_group_IT_number 63
_symmetry_cell_setting 'orthorhombic'
loop_
_space_group_symop_operation_xyz
x,y,z
-x,-y,1/2+z
x,-y,-z
-x,y,1/2-z
-x,-y,-z
x,y,1/2-z
-x,y,z
x,-y,1/2+z
1/2+x,1/2+y,z
1/2-x,1/2-y,1/2+z
1/2+x,1/2-y,-z
1/2-x,1/2+y,1/2-z
1/2-x,1/2-y,-z
1/2+x,1/2+y,1/2-z
1/2-x,1/2+y,z
1/2+x,1/2-y,1/2+z
loop_
_atom_site_type_symbol
_atom_site_label
_atom_site_fract_x
_atom_site_fract_y
_atom_site_fract_z
Si Si1 0.645042 0.633209 0.626139
Si Si2 0.000000 0.303378 0.853399
Si Si3 0.652232 0.293316 0.996585
Si Si4 0.500000 0.130864 0.013174
Si Si5 0.830830 0.674721 0.681299
Si Si6 0.600879 0.613991 0.377189
Si Si7 0.000000 0.546784 0.815490
O O1 0.586930 0.728581 0.658514
O O2 0.628017 0.641788 0.556289
O O3 0.746370 0.644798 0.642690
O O4 0.611794 0.511807 0.646848
O O5 0.000000 0.356483 0.917432
O O6 0.000000 0.411622 0.811497
O O7 0.586820 0.188380 0.985963
O O8 0.750000 0.250000 0.000000
O O9 0.644916 0.377026 0.941522
O O10 0.500000 0.000000 0.000000
O O11 0.811234 0.654477 0.750000
O O12 0.853075 0.804781 0.670004
O O13 0.910193 0.596047 0.656010
O O14 0.500000 0.648217 0.381897
O O15 0.000000 0.596582 0.750000
#
# Coordination Sequence:
#
# PCOD8260857 Si02
#       7
#    16   8  16   8  16  16   8
#     4  11  25  44  66 101 138 176 218 277 341 403
#     4  10  24  42  63  95 131 169 218 263 333 399
#     4  11  23  41  64 103 136 173 224 269 333 409
#     4  10  24  37  62  93 135 173 210 265 322 394
#     4  11  26  46  69  98 130 177 233 280 332 394
#     4  12  24  44  74  98 138 180 225 279 336 400
#     4  10  24  45  69  94 129 175 229 283 329 394
#
# _framework density 21.390550999999999
#
# number of rings (size 3 to 8) (size 9 to 14) (size 15 to 20)
#    0.000    1.091    4.545    0.545    5.091    3.636 
#    0.000    0.000    0.000    0.000    0.000    0.000 
#    0.000    0.000    0.000    0.000    0.000    0.000 
#
# Total GULP energy -545748.123990 kJ/mol
# GULP energy per Si atom -12403.366454 kJ/mol
# Density = 2.134187 g / cm^3
# Si number density = 21.390551 Si / 1000 Ang^3
#
#
#
# Elastic Constant Matrix: (Units=GPa)
#
#
# Indices 1 2 3 4 5 6 
#
# 1 159.6566 48.0555 20.1752 0.0000 0.0000 0.0000
# 2 48.0555 144.2145 23.1209 0.0000 0.0000 0.0000
# 3 20.1752 23.1209 53.8357 0.0000 0.0000 0.0000
# 4 0.0000 0.0000 0.0000 27.0952 0.0000 0.0000
# 5 0.0000 0.0000 0.0000 0.0000 20.7627 0.0000
# 6 0.0000 0.0000 0.0000 0.0000 0.0000 28.6828
#
#
#
# Elastic Compliance Matrix: (Units=1/GPa)
#
#
# Indices 1 2 3 4 5 6 
#
# 1 0.007115 -0.002087 -0.001770 0.000000 0.000000 0.000000
# 2 -0.002087 0.008059 -0.002679 0.000000 0.000000 0.000000
# 3 -0.001770 -0.002679 0.020389 0.000000 0.000000 0.000000
# 4 0.000000 0.000000 0.000000 0.036907 0.000000 0.000000
# 5 0.000000 0.000000 0.000000 0.000000 0.048163 0.000000
# 6 0.000000 0.000000 0.000000 0.000000 0.000000 0.034864
#
#
# Mechanical properties :
#
#
# Convention : Reuss Voigt Hill
#
# Bulk Modulus (GPa) = 44.46260 60.04556 52.25408
# Shear Modulus (GPa) = 28.39824 33.06515 30.73170
#
# Velocity S-wave (km/s) = 3.64759 3.93591 3.79449
# Velocity P-wave (km/s) = 6.21056 6.98478 6.60902
#
# Compressibility (1/GPa) = 0.02249081
#
# Stress axis : x y z
#
# Youngs Moduli (GPa) = 140.54098 124.08300 49.04622
#
# Poissons Ratio (x) = 0.25899 0.08682
# Poissons Ratio (y) = 0.29334 0.13139
# Poissons Ratio (z) = 0.24877 0.33241
#
# Static dielectric constant tensor:
#      x y z
#    x 3.969720 0.000000 0.000000 
#    y 0.000000 3.777160 0.000000 
#    z 0.000000 0.000000 3.770030 
# 
# 
# High freq. dielectric constant tensor:
#      x y z
#    x 1.853260 0.000000 0.000000 
#    y 0.000000 1.841950 0.000000 
#    z 0.000000 0.000000 1.827340 
# 
# From -- ./inp_files/62708.got.cif
#   From: 2010.03.12/outbox.cif.g09.slc.cpg/sg63_32_cif.got.tgz:62708.got - 2010.04.10 19:34:48.
