data_PCOD8260792
_publ_section_title
;
Structure prediction by ZEFSAII (Michael W. Deem and Ramdas Pophale) SiO2 
 PCOD8260792
Probable space group: C M C M
;
_chemical_formula_sum "Si O2"
_cell_formula_units_Z 48
_cell_length_a 15.259508
_cell_length_b 10.110398
_cell_length_c 13.879808
_cell_angle_alpha 90.000000
_cell_angle_beta 90.000000
_cell_angle_gamma 90.000000
_cell_volume 2141.372603
_symmetry_space_group_name_H-M "C M C M"
_symmetry_group_IT_number 63
_symmetry_cell_setting 'orthorhombic'
loop_
_space_group_symop_operation_xyz
x,y,z
-x,-y,1/2+z
x,-y,-z
-x,y,1/2-z
-x,-y,-z
x,y,1/2-z
-x,y,z
x,-y,1/2+z
1/2+x,1/2+y,z
1/2-x,1/2-y,1/2+z
1/2+x,1/2-y,-z
1/2-x,1/2+y,1/2-z
1/2-x,1/2-y,-z
1/2+x,1/2+y,1/2-z
1/2-x,1/2+y,z
1/2+x,1/2-y,1/2+z
loop_
_atom_site_type_symbol
_atom_site_label
_atom_site_fract_x
_atom_site_fract_y
_atom_site_fract_z
Si Si1 0.182123 0.019681 0.637359
Si Si2 0.500000 0.152098 0.523755
Si Si3 0.674209 0.777376 0.364889
Si Si4 0.500000 0.639522 0.636024
O O1 0.187819 0.035189 0.750000
O O2 0.252658 0.121935 0.593572
O O3 0.084280 0.055166 0.603247
O O4 0.204236 0.870668 0.604882
O O5 0.582988 0.189924 0.586851
O O6 0.500000 0.222753 0.420142
O O7 0.500000 0.000000 0.500000
O O8 0.662349 0.787202 0.250000
O O9 0.500000 0.671457 0.750000
#
# Coordination Sequence:
#
# PCOD8260792 Si02
#       4
#    16   8  16   8
#     4   9  20  40  70  99 127 172 213 261 326 385
#     4  12  28  42  61 100 129 177 219 266 328 374
#     4  10  22  43  69  98 133 168 213 265 323 389
#     4  10  23  44  65  90 129 171 221 267 321 388
#
# _framework density 22.415531000000001
#
# number of rings (size 3 to 8) (size 9 to 14) (size 15 to 20)
#    0.000    2.000    0.000    1.500    4.667    8.000 
#    0.000    0.000    0.000    0.000    0.000    0.000 
#    0.000    0.000    0.000    0.000    0.000    0.000 
#
# Total GULP energy -297613.018649 kJ/mol
# GULP energy per Si atom -12400.542444 kJ/mol
# Density = 2.236451 g / cm^3
# Si number density = 22.415531 Si / 1000 Ang^3
#
#
#
# Elastic Constant Matrix: (Units=GPa)
#
#
# Indices 1 2 3 4 5 6 
#
# 1 186.7418 75.9282 37.3546 0.0000 0.0000 0.0000
# 2 75.9282 180.1917 44.9386 0.0000 0.0000 0.0000
# 3 37.3546 44.9386 80.0703 0.0000 0.0000 0.0000
# 4 0.0000 0.0000 0.0000 25.3450 0.0000 0.0000
# 5 0.0000 0.0000 0.0000 0.0000 -4.1623 0.0000
# 6 0.0000 0.0000 0.0000 0.0000 0.0000 37.3610
#
#
#
# Elastic Compliance Matrix: (Units=1/GPa)
#
#
# Indices 1 2 3 4 5 6 
#
# 1 0.006675 -0.002367 -0.001785 0.000000 0.000000 0.000000
# 2 -0.002367 0.007292 -0.002988 0.000000 0.000000 0.000000
# 3 -0.001785 -0.002988 0.014999 0.000000 0.000000 0.000000
# 4 0.000000 0.000000 0.000000 0.039455 0.000000 0.000000
# 5 0.000000 0.000000 0.000000 0.000000 -0.240252 0.000000
# 6 0.000000 0.000000 0.000000 0.000000 0.000000 0.026766
#
#
# Mechanical properties :
#
#
# Convention : Reuss Voigt Hill
#
# Bulk Modulus (GPa) = 68.10007 84.82741 76.46374
# Shear Modulus (GPa) = -39.71790 30.96091 -4.37850
#
# Velocity S-wave (km/s) = -4.21395 3.72052 -1.39913
# Velocity P-wave (km/s) = 2.60196 7.50877 5.61924
#
# Compressibility (1/GPa) = 0.01468427
#
# Stress axis : x y z
#
# Youngs Moduli (GPa) = 149.82118 137.12807 66.67060
#
# Poissons Ratio (x) = 0.32462 0.11902
# Poissons Ratio (y) = 0.35467 0.19924
# Poissons Ratio (z) = 0.26747 0.40980
#
# Static dielectric constant tensor:
#      x y z
#    x 4.272610 0.000000 0.000000 
#    y 0.000000 4.644500 0.000000 
#    z 0.000000 0.000000 4.004310 
# 
# 
# High freq. dielectric constant tensor:
#      x y z
#    x 1.891880 0.000000 0.000000 
#    y 0.000000 1.892620 0.000000 
#    z 0.000000 0.000000 1.892660 
# 
# From -- ./inp_files/30763.got.cif
#   From: 2010.03.12/outbox.cif.g09.slc.cpg/sg63_16_cif.got.tgz:30763.got - 2010.04.10 19:34:48.
