data_PCOD8260109
_publ_section_title
;
Structure prediction by ZEFSAII (Michael W. Deem and Ramdas Pophale) SiO2 
 PCOD8260109
Probable space group: C M C M
;
_chemical_formula_sum "Si O2"
_cell_formula_units_Z 80
_cell_length_a 7.648150
_cell_length_b 17.924951
_cell_length_c 29.671120
_cell_angle_alpha 90.000000
_cell_angle_beta 90.000000
_cell_angle_gamma 90.000000
_cell_volume 4067.694368
_symmetry_space_group_name_H-M "C M C M"
_symmetry_group_IT_number 63
_symmetry_cell_setting 'orthorhombic'
loop_
_space_group_symop_operation_xyz
x,y,z
-x,-y,1/2+z
x,-y,-z
-x,y,1/2-z
-x,-y,-z
x,y,1/2-z
-x,y,z
x,-y,1/2+z
1/2+x,1/2+y,z
1/2-x,1/2-y,1/2+z
1/2+x,1/2-y,-z
1/2-x,1/2+y,1/2-z
1/2-x,1/2-y,-z
1/2+x,1/2+y,1/2-z
1/2-x,1/2+y,z
1/2+x,1/2-y,1/2+z
loop_
_atom_site_type_symbol
_atom_site_label
_atom_site_fract_x
_atom_site_fract_y
_atom_site_fract_z
Si Si1 0.201503 0.963032 0.633734
Si Si2 0.000000 0.462685 0.700089
Si Si3 0.000000 0.714081 0.300314
Si Si4 0.197329 0.036223 0.956059
Si Si5 0.300464 0.712105 0.366667
Si Si6 0.202616 0.702486 0.956684
O O1 0.323263 0.989199 0.675069
O O2 0.221172 0.875455 0.624505
O O3 0.000000 0.984486 0.644782
O O4 0.280530 0.005896 0.590240
O O5 0.000000 0.374206 0.703341
O O6 0.000000 0.498177 0.750000
O O7 0.825645 0.740504 0.326657
O O8 0.000000 0.749241 0.250000
O O9 0.195140 0.125146 0.958313
O O10 0.000000 0.005679 0.955418
O O11 0.292248 0.000000 0.000000
O O12 0.500000 0.731758 0.353290
O O13 0.241233 0.752434 0.412382
O O14 0.000000 0.683269 0.955956
O O15 0.250000 0.750000 0.000000
#
# Coordination Sequence:
#
# PCOD8260109 Si02
#       6
#    16   8   8  16  16  16
#     4   9  18  34  55  78 109 146 179 223 275 323
#     4   9  18  32  53  83 111 134 178 232 272 325
#     4   9  18  32  56  85 108 140 181 228 284 327
#     4  10  21  37  55  79 111 146 181 225 270 328
#     4   9  19  35  54  80 112 145 181 228 275 327
#     4  11  23  36  54  81 110 148 185 224 273 328
#
# _framework density 19.667162000000001
#
# number of rings (size 3 to 8) (size 9 to 14) (size 15 to 20)
#    0.000    2.400    0.000    1.800    4.200    4.400 
#    3.600    4.000    0.000    1.200    0.000    0.000 
#    0.000    0.000    0.000    0.000    0.000    0.000 
#
# Total GULP energy -495949.147308 kJ/mol
# GULP energy per Si atom -12398.728683 kJ/mol
# Density = 1.962240 g / cm^3
# Si number density = 19.667162 Si / 1000 Ang^3
#
#
#
# Elastic Constant Matrix: (Units=GPa)
#
#
# Indices 1 2 3 4 5 6 
#
# 1 95.8484 21.9801 76.0852 0.0000 0.0000 0.0000
# 2 21.9801 67.2236 52.8596 0.0000 0.0000 0.0000
# 3 76.0852 52.8596 207.0363 0.0000 0.0000 0.0000
# 4 0.0000 0.0000 0.0000 25.4873 0.0000 0.0000
# 5 0.0000 0.0000 0.0000 0.0000 29.7528 0.0000
# 6 0.0000 0.0000 0.0000 0.0000 0.0000 18.8626
#
#
#
# Elastic Compliance Matrix: (Units=1/GPa)
#
#
# Indices 1 2 3 4 5 6 
#
# 1 0.014757 -0.000702 -0.005244 0.000000 0.000000 0.000000
# 2 -0.000702 0.018646 -0.004503 0.000000 0.000000 0.000000
# 3 -0.005244 -0.004503 0.007907 0.000000 0.000000 0.000000
# 4 0.000000 0.000000 0.000000 0.039235 0.000000 0.000000
# 5 0.000000 0.000000 0.000000 0.000000 0.033610 0.000000
# 6 0.000000 0.000000 0.000000 0.000000 0.000000 0.053015
#
#
# Mechanical properties :
#
#
# Convention : Reuss Voigt Hill
#
# Bulk Modulus (GPa) = 48.98884 74.66203 61.82543
# Shear Modulus (GPa) = 25.65807 29.43276 27.54541
#
# Velocity S-wave (km/s) = 3.61586 3.87271 3.74649
# Velocity P-wave (km/s) = 6.51119 7.61856 7.08654
#
# Compressibility (1/GPa) = 0.02041281
#
# Stress axis : x y z
#
# Youngs Moduli (GPa) = 67.76581 53.63162 126.47320
#
# Poissons Ratio (x) = 0.03763 0.66322
# Poissons Ratio (y) = 0.04754 0.56947
# Poissons Ratio (z) = 0.35536 0.24149
#
# Static dielectric constant tensor:
#      x y z
#    x 3.664900 0.000000 0.000000 
#    y 0.000000 3.215610 0.000000 
#    z 0.000000 0.000000 3.888330 
# 
# 
# High freq. dielectric constant tensor:
#      x y z
#    x 1.770980 0.000000 0.000000 
#    y 0.000000 1.737080 0.000000 
#    z 0.000000 0.000000 1.769810 
# 
# From -- ./inp_files/71621.got.cif
#   From: 2010.03.12/outbox.cif.g09.slc.cpg/sg63_36_cif.got.tgz:71621.got - 2010.04.10 19:34:48.
