data_PCOD8260088
_publ_section_title
;
Structure prediction by ZEFSAII (Michael W. Deem and Ramdas Pophale) SiO2 
 PCOD8260088
Probable space group: C M C M
;
_chemical_formula_sum "Si O2"
_cell_formula_units_Z 80
_cell_length_a 14.505284
_cell_length_b 17.073071
_cell_length_c 17.391812
_cell_angle_alpha 90.000000
_cell_angle_beta 90.000000
_cell_angle_gamma 90.000000
_cell_volume 4307.077783
_symmetry_space_group_name_H-M "C M C M"
_symmetry_group_IT_number 63
_symmetry_cell_setting 'orthorhombic'
loop_
_space_group_symop_operation_xyz
x,y,z
-x,-y,1/2+z
x,-y,-z
-x,y,1/2-z
-x,-y,-z
x,y,1/2-z
-x,y,z
x,-y,1/2+z
1/2+x,1/2+y,z
1/2-x,1/2-y,1/2+z
1/2+x,1/2-y,-z
1/2-x,1/2+y,1/2-z
1/2-x,1/2-y,-z
1/2+x,1/2+y,1/2-z
1/2-x,1/2+y,z
1/2+x,1/2-y,1/2+z
loop_
_atom_site_type_symbol
_atom_site_label
_atom_site_fract_x
_atom_site_fract_y
_atom_site_fract_z
Si Si1 0.101433 0.424055 0.552617
Si Si2 0.107880 0.179103 0.163763
Si Si3 0.895993 0.984578 0.910223
Si Si4 0.283804 0.981154 0.338219
Si Si5 0.390782 0.839825 0.405623
O O1 0.094507 0.500000 0.500000
O O2 0.175194 0.441365 0.619312
O O3 0.134010 0.353411 0.496069
O O4 0.000000 0.405815 0.588088
O O5 0.150284 0.169130 0.250000
O O6 0.129235 0.104879 0.110294
O O7 0.148375 0.255805 0.121150
O O8 0.000000 0.191169 0.172182
O O9 0.820433 0.037519 0.866997
O O10 0.000000 0.005576 0.882387
O O11 0.885936 0.000000 0.000000
O O12 0.281495 0.003531 0.250000
O O13 0.345030 0.904883 0.351461
O O14 0.500000 0.847978 0.394237
#
# Coordination Sequence:
#
# PCOD8260088 Si02
#       5
#    16  16  16  16  16
#     4   8  15  28  45  69 104 138 165 198 246 306
#     4   9  17  31  53  80 105 128 164 218 267 298
#     4  10  21  37  54  71  96 132 173 213 254 304
#     4  11  20  30  48  74 105 138 173 212 252 300
#     4   9  17  31  53  80 107 132 162 208 262 308
#
# _framework density 18.574079000000001
#
# number of rings (size 3 to 8) (size 9 to 14) (size 15 to 20)
#    0.000    2.600    0.000    4.800    0.000    3.600 
#    0.000    4.000    0.000    0.000    0.000    2.800 
#    0.000   25.600    0.000    0.000    0.000    0.000 
#
# Total GULP energy -495723.409342 kJ/mol
# GULP energy per Si atom -12393.085234 kJ/mol
# Density = 1.853180 g / cm^3
# Si number density = 18.574079 Si / 1000 Ang^3
#
#
#
# Elastic Constant Matrix: (Units=GPa)
#
#
# Indices 1 2 3 4 5 6 
#
# 1 82.0074 16.2925 49.9231 0.0000 0.0000 0.0000
# 2 16.2925 84.1561 44.8954 0.0000 0.0000 0.0000
# 3 49.9231 44.8954 128.7481 0.0000 0.0000 0.0000
# 4 0.0000 0.0000 0.0000 30.0834 0.0000 0.0000
# 5 0.0000 0.0000 0.0000 0.0000 15.9711 0.0000
# 6 0.0000 0.0000 0.0000 0.0000 0.0000 10.3300
#
#
#
# Elastic Compliance Matrix: (Units=1/GPa)
#
#
# Indices 1 2 3 4 5 6 
#
# 1 0.015966 0.000260 -0.006282 0.000000 0.000000 0.000000
# 2 0.000260 0.014603 -0.005193 0.000000 0.000000 0.000000
# 3 -0.006282 -0.005193 0.012014 0.000000 0.000000 0.000000
# 4 0.000000 0.000000 0.000000 0.033241 0.000000 0.000000
# 5 0.000000 0.000000 0.000000 0.000000 0.062613 0.000000
# 6 0.000000 0.000000 0.000000 0.000000 0.000000 0.096805
#
#
# Mechanical properties :
#
#
# Convention : Reuss Voigt Hill
#
# Bulk Modulus (GPa) = 49.61889 57.45930 53.53909
# Shear Modulus (GPa) = 18.91153 23.53028 21.22091
#
# Velocity S-wave (km/s) = 3.19434 3.56312 3.38376
# Velocity P-wave (km/s) = 6.35430 6.92316 6.64482
#
# Compressibility (1/GPa) = 0.02015362
#
# Stress axis : x y z
#
# Youngs Moduli (GPa) = 62.63117 68.48088 83.23797
#
# Poissons Ratio (x) = -0.01781 0.52289
# Poissons Ratio (y) = -0.01629 0.43225
# Poissons Ratio (z) = 0.39344 0.35562
#
# Static dielectric constant tensor:
#      x y z
#    x 3.506610 0.000000 0.000000 
#    y 0.000000 3.415520 0.000000 
#    z 0.000000 0.000000 3.587410 
# 
# 
# High freq. dielectric constant tensor:
#      x y z
#    x 1.714620 0.000000 0.000000 
#    y 0.000000 1.693010 0.000000 
#    z 0.000000 0.000000 1.716940 
# 
# From -- ./inp_files/43994.got.cif
#   From: 2010.03.12/outbox.cif.g09.slc.cpg/sg63_22_cif.got.tgz:43994.got - 2010.04.10 19:34:48.
