data_PCOD8260299
_publ_section_title
;
Structure prediction by ZEFSAII (Michael W. Deem and Ramdas Pophale) SiO2 
 PCOD8260299
Probable space group: C M C M
;
_chemical_formula_sum "Si O2"
_cell_formula_units_Z 96
_cell_length_a 19.824406
_cell_length_b 27.649600
_cell_length_c 8.792454
_cell_angle_alpha 90.000000
_cell_angle_beta 90.000000
_cell_angle_gamma 90.000000
_cell_volume 4819.468445
_symmetry_space_group_name_H-M "C M C M"
_symmetry_group_IT_number 63
_symmetry_cell_setting 'orthorhombic'
loop_
_space_group_symop_operation_xyz
x,y,z
-x,-y,1/2+z
x,-y,-z
-x,y,1/2-z
-x,-y,-z
x,y,1/2-z
-x,y,z
x,-y,1/2+z
1/2+x,1/2+y,z
1/2-x,1/2-y,1/2+z
1/2+x,1/2-y,-z
1/2-x,1/2+y,1/2-z
1/2-x,1/2-y,-z
1/2+x,1/2+y,1/2-z
1/2-x,1/2+y,z
1/2+x,1/2-y,1/2+z
loop_
_atom_site_type_symbol
_atom_site_label
_atom_site_fract_x
_atom_site_fract_y
_atom_site_fract_z
Si Si1 0.921716 0.050772 0.427054
Si Si2 0.696483 0.713578 0.429877
Si Si3 0.077484 0.367896 0.426517
Si Si4 0.577740 0.233164 0.072743
Si Si5 0.320031 0.948435 0.427514
Si Si6 0.190357 0.111420 0.571204
O O1 0.903798 0.048805 0.250000
O O2 0.881146 0.093755 0.506894
O O3 0.000000 0.061696 0.456022
O O4 0.900269 0.000000 0.500000
O O5 0.702626 0.714515 0.250000
O O6 0.750000 0.750000 0.500000
O O7 0.621187 0.728109 0.479988
O O8 0.712956 0.660429 0.490333
O O9 0.092638 0.356617 0.250000
O O10 0.097212 0.320713 0.521788
O O11 0.123364 0.411418 0.488796
O O12 0.000000 0.382622 0.452541
O O13 0.593803 0.238533 0.250000
O O14 0.500000 0.244206 0.035191
O O15 0.329128 0.954787 0.250000
O O16 0.246038 0.928844 0.468834
O O17 0.332358 0.000000 0.500000
O O18 0.184465 0.120859 0.750000
#
# Coordination Sequence:
#
# PCOD8260299 Si02
#       6
#    16  16  16  16  16  16
#     4  10  21  38  60  86 116 151 192 238 290 348
#     4  12  25  41  62  87 117 153 194 240 292 348
#     4   9  18  35  58  83 114 152 191 232 281 335
#     4  10  21  38  61  89 119 152 192 237 286 342
#     4  10  22  37  55  81 112 147 187 232 281 334
#     4  11  23  39  59  84 115 150 191 239 290 345
#
# _framework density 19.919208000000001
#
# number of rings (size 3 to 8) (size 9 to 14) (size 15 to 20)
#    0.000    1.667    0.000    4.500    0.000    7.667 
#    0.000    0.000    0.000    0.000    0.000    0.000 
#    0.000    0.000    0.000    0.000    0.000    0.000 
#
# Total GULP energy -595499.801818 kJ/mol
# GULP energy per Si atom -12406.245871 kJ/mol
# Density = 1.987387 g / cm^3
# Si number density = 19.919208 Si / 1000 Ang^3
#
#
#
# Elastic Constant Matrix: (Units=GPa)
#
#
# Indices 1 2 3 4 5 6 
#
# 1 65.8289 16.1615 34.8625 0.0000 0.0000 0.0000
# 2 16.1615 69.5099 35.7594 0.0000 0.0000 0.0000
# 3 34.8625 35.7594 104.2094 0.0000 0.0000 0.0000
# 4 0.0000 0.0000 0.0000 41.6981 0.0000 0.0000
# 5 0.0000 0.0000 0.0000 0.0000 30.6102 0.0000
# 6 0.0000 0.0000 0.0000 0.0000 0.0000 -18.4480
#
#
#
# Elastic Compliance Matrix: (Units=1/GPa)
#
#
# Indices 1 2 3 4 5 6 
#
# 1 0.018567 -0.001362 -0.005744 0.000000 0.000000 0.000000
# 2 -0.001362 0.017570 -0.005574 0.000000 0.000000 0.000000
# 3 -0.005744 -0.005574 0.013430 0.000000 0.000000 0.000000
# 4 0.000000 0.000000 0.000000 0.023982 0.000000 0.000000
# 5 0.000000 0.000000 0.000000 0.000000 0.032669 0.000000
# 6 0.000000 0.000000 0.000000 0.000000 0.000000 -0.054206
#
#
# Mechanical properties :
#
#
# Convention : Reuss Voigt Hill
#
# Bulk Modulus (GPa) = 41.30771 45.90165 43.60468
# Shear Modulus (GPa) = 58.51947 20.95639 39.73793
#
# Velocity S-wave (km/s) = 5.42607 3.24708 4.47134
# Velocity P-wave (km/s) = 7.74848 6.09524 6.97104
#
# Compressibility (1/GPa) = 0.02420855
#
# Stress axis : x y z
#
# Youngs Moduli (GPa) = 53.85795 56.91370 74.45819
#
# Poissons Ratio (x) = 0.07751 0.42771
# Poissons Ratio (y) = 0.07335 0.41501
# Poissons Ratio (z) = 0.30937 0.31722
#
# Static dielectric constant tensor:
#      x y z
#    x 3.816320 0.000000 0.000000 
#    y 0.000000 3.653190 0.000000 
#    z 0.000000 0.000000 3.643680 
# 
# 
# High freq. dielectric constant tensor:
#      x y z
#    x 1.788770 0.000000 0.000000 
#    y 0.000000 1.778390 0.000000 
#    z 0.000000 0.000000 1.782420 
# 
# From -- ./inp_files/8625.got.cif
#   From: 2010.03.12/outbox.cif.g09.slc.cpg/sg63_5_cif.got.tgz:8625.got - 2010.04.10 19:34:48.
