data_PCOD8260432
_publ_section_title
;
Structure prediction by ZEFSAII (Michael W. Deem and Ramdas Pophale) SiO2 
 PCOD8260432
Probable space group: C M C M
;
_chemical_formula_sum "Si O2"
_cell_formula_units_Z 56
_cell_length_a 17.007130
_cell_length_b 17.008917
_cell_length_c 9.328625
_cell_angle_alpha 90.000000
_cell_angle_beta 90.000000
_cell_angle_gamma 90.000000
_cell_volume 2698.518058
_symmetry_space_group_name_H-M "C M C M"
_symmetry_group_IT_number 63
_symmetry_cell_setting 'orthorhombic'
loop_
_space_group_symop_operation_xyz
x,y,z
-x,-y,1/2+z
x,-y,-z
-x,y,1/2-z
-x,-y,-z
x,y,1/2-z
-x,y,z
x,-y,1/2+z
1/2+x,1/2+y,z
1/2-x,1/2-y,1/2+z
1/2+x,1/2-y,-z
1/2-x,1/2+y,1/2-z
1/2-x,1/2-y,-z
1/2+x,1/2+y,1/2-z
1/2-x,1/2+y,z
1/2+x,1/2-y,1/2+z
loop_
_atom_site_type_symbol
_atom_site_label
_atom_site_fract_x
_atom_site_fract_y
_atom_site_fract_z
Si Si1 0.348976 0.570710 0.910127
Si Si2 0.588886 0.865457 0.909332
Si Si3 0.407737 0.284736 0.583998
Si Si4 0.301558 0.000000 0.500000
O O1 0.384963 0.576668 0.750000
O O2 0.391250 0.500000 0.000000
O O3 0.359678 0.651120 0.995716
O O4 0.255609 0.551394 0.896827
O O5 0.593348 0.828488 0.750000
O O6 0.500000 0.892087 0.945435
O O7 0.616675 0.800387 0.023581
O O8 0.643754 0.941589 0.910776
O O9 0.383232 0.289300 0.750000
O O10 0.500000 0.299851 0.561928
#
# Coordination Sequence:
#
# PCOD8260432 Si02
#       4
#    16  16  16   8
#     4  10  22  39  61  88 119 157 198 240 294 351
#     4  10  21  39  64  90 118 155 198 244 294 349
#     4  10  22  40  62  89 120 154 197 246 295 348
#     4  10  23  38  61  86 124 154 196 240 295 350
#
# _framework density 20.752130999999999
#
# number of rings (size 3 to 8) (size 9 to 14) (size 15 to 20)
#    0.857    1.143    0.000    3.000    0.000    5.714 
#    0.000    2.857    0.000    0.000    0.000    0.000 
#    0.000    0.000    0.000    0.000    0.000    0.000 
#
# Total GULP energy -347060.226402 kJ/mol
# GULP energy per Si atom -12395.008086 kJ/mol
# Density = 2.070490 g / cm^3
# Si number density = 20.752131 Si / 1000 Ang^3
#
#
#
# Elastic Constant Matrix: (Units=GPa)
#
#
# Indices 1 2 3 4 5 6 
#
# 1 62.0434 59.0674 34.7089 0.0000 0.0000 0.0000
# 2 59.0674 129.3764 71.0013 0.0000 0.0000 0.0000
# 3 34.7089 71.0013 168.9036 0.0000 0.0000 0.0000
# 4 0.0000 0.0000 0.0000 34.1833 0.0000 0.0000
# 5 0.0000 0.0000 0.0000 0.0000 16.8832 0.0000
# 6 0.0000 0.0000 0.0000 0.0000 0.0000 28.6298
#
#
#
# Elastic Compliance Matrix: (Units=1/GPa)
#
#
# Indices 1 2 3 4 5 6 
#
# 1 0.028543 -0.012755 -0.000504 0.000000 0.000000 0.000000
# 2 -0.012755 0.015747 -0.003998 0.000000 0.000000 0.000000
# 3 -0.000504 -0.003998 0.007705 0.000000 0.000000 0.000000
# 4 0.000000 0.000000 0.000000 0.029254 0.000000 0.000000
# 5 0.000000 0.000000 0.000000 0.000000 0.059231 0.000000
# 6 0.000000 0.000000 0.000000 0.000000 0.000000 0.034929
#
#
# Mechanical properties :
#
#
# Convention : Reuss Voigt Hill
#
# Bulk Modulus (GPa) = 57.20652 76.65316 66.92984
# Shear Modulus (GPa) = 23.17517 28.97565 26.07541
#
# Velocity S-wave (km/s) = 3.34542 3.74073 3.54858
# Velocity P-wave (km/s) = 6.52295 7.46157 7.00799
#
# Compressibility (1/GPa) = 0.01748053
#
# Stress axis : x y z
#
# Youngs Moduli (GPa) = 35.03544 63.50427 129.78843
#
# Poissons Ratio (x) = 0.80998 0.06537
# Poissons Ratio (y) = 0.44687 0.51895
# Poissons Ratio (z) = 0.01765 0.25392
#
# Static dielectric constant tensor:
#      x y z
#    x 3.543170 0.000000 0.000000 
#    y 0.000000 3.597320 0.000000 
#    z 0.000000 0.000000 3.722890 
# 
# 
# High freq. dielectric constant tensor:
#      x y z
#    x 1.794680 0.000000 0.000000 
#    y 0.000000 1.810770 0.000000 
#    z 0.000000 0.000000 1.817130 
# 
# From -- ./inp_files/5531.got.cif
#   From: 2010.03.12/outbox.cif.g09.slc.cpg/sg63_3_cif.got.tgz:5531.got - 2010.04.10 19:34:48.
