data_PCOD8260365
_publ_section_title
;
Structure prediction by ZEFSAII (Michael W. Deem and Ramdas Pophale) SiO2 
 PCOD8260365
Probable space group: C M C M
;
_chemical_formula_sum "Si O2"
_cell_formula_units_Z 96
_cell_length_a 14.731413
_cell_length_b 15.348935
_cell_length_c 19.452025
_cell_angle_alpha 90.000000
_cell_angle_beta 90.000000
_cell_angle_gamma 90.000000
_cell_volume 4398.326562
_symmetry_space_group_name_H-M "C M C M"
_symmetry_group_IT_number 63
_symmetry_cell_setting 'orthorhombic'
loop_
_space_group_symop_operation_xyz
x,y,z
-x,-y,1/2+z
x,-y,-z
-x,y,1/2-z
-x,-y,-z
x,y,1/2-z
-x,y,z
x,-y,1/2+z
1/2+x,1/2+y,z
1/2-x,1/2-y,1/2+z
1/2+x,1/2-y,-z
1/2-x,1/2+y,1/2-z
1/2-x,1/2-y,-z
1/2+x,1/2+y,1/2-z
1/2-x,1/2+y,z
1/2+x,1/2-y,1/2+z
loop_
_atom_site_type_symbol
_atom_site_label
_atom_site_fract_x
_atom_site_fract_y
_atom_site_fract_z
Si Si1 0.644073 0.925722 0.449815
Si Si2 0.396681 0.040847 0.329095
Si Si3 0.262051 0.193657 0.329472
Si Si4 0.899222 0.151375 0.674610
Si Si5 0.644388 0.416033 0.462896
Si Si6 0.099942 0.769697 0.933640
O O1 0.748652 0.918982 0.466435
O O2 0.603752 0.829810 0.460021
O O3 0.600253 0.000000 0.500000
O O4 0.622957 0.953342 0.371597
O O5 0.381129 0.016465 0.250000
O O6 0.500000 0.074450 0.340617
O O7 0.323399 0.112378 0.353692
O O8 0.232415 0.183876 0.250000
O O9 0.323917 0.277200 0.340728
O O10 0.173558 0.203143 0.376564
O O11 0.882461 0.108899 0.750000
O O12 0.889933 0.078582 0.615881
O O13 0.000000 0.193460 0.672739
O O14 0.601636 0.500000 0.500000
O O15 0.610968 0.327648 0.498320
O O16 0.000000 0.785728 0.901825
#
# Coordination Sequence:
#
# PCOD8260365 Si02
#       6
#    16  16  16  16  16  16
#     4  11  24  42  66  96 131 170 218 272 335 402
#     4  10  22  41  68 101 134 169 216 275 336 396
#     4  10  21  41  66  95 132 174 219 271 331 394
#     4  10  21  38  65  97 127 167 220 274 328 390
#     4  11  24  44  68  95 135 176 221 275 335 398
#     4  12  26  43  66  97 133 178 225 275 337 401
#
# _framework density 21.826483
#
# number of rings (size 3 to 8) (size 9 to 14) (size 15 to 20)
#    0.000    1.333    1.667    4.000    2.333    6.333 
#    0.000    0.833    0.000    0.000    0.000    0.000 
#    0.000    0.000    0.000    0.000    0.000    0.000 
#
# Total GULP energy -595124.047839 kJ/mol
# GULP energy per Si atom -12398.417663 kJ/mol
# Density = 2.177681 g / cm^3
# Si number density = 21.826483 Si / 1000 Ang^3
#
#
#
# Elastic Constant Matrix: (Units=GPa)
#
#
# Indices 1 2 3 4 5 6 
#
# 1 138.8443 43.9910 48.2378 0.0000 0.0000 0.0000
# 2 43.9910 141.3901 84.2454 0.0000 0.0000 0.0000
# 3 48.2378 84.2454 139.0748 0.0000 0.0000 0.0000
# 4 0.0000 0.0000 0.0000 33.0744 0.0000 0.0000
# 5 0.0000 0.0000 0.0000 0.0000 32.5105 0.0000
# 6 0.0000 0.0000 0.0000 0.0000 0.0000 20.6661
#
#
#
# Elastic Compliance Matrix: (Units=1/GPa)
#
#
# Indices 1 2 3 4 5 6 
#
# 1 0.008354 -0.001366 -0.002070 0.000000 0.000000 0.000000
# 2 -0.001366 0.011290 -0.006366 0.000000 0.000000 0.000000
# 3 -0.002070 -0.006366 0.011764 0.000000 0.000000 0.000000
# 4 0.000000 0.000000 0.000000 0.030235 0.000000 0.000000
# 5 0.000000 0.000000 0.000000 0.000000 0.030759 0.000000
# 6 0.000000 0.000000 0.000000 0.000000 0.000000 0.048388
#
#
# Mechanical properties :
#
#
# Convention : Reuss Voigt Hill
#
# Bulk Modulus (GPa) = 84.70337 85.80642 85.25489
# Shear Modulus (GPa) = 30.42658 33.43922 31.93290
#
# Velocity S-wave (km/s) = 3.73771 3.91838 3.82911
# Velocity P-wave (km/s) = 7.58414 7.73757 7.66124
#
# Compressibility (1/GPa) = 0.01180591
#
# Stress axis : x y z
#
# Youngs Moduli (GPa) = 119.69860 88.57131 85.00194
#
# Poissons Ratio (x) = 0.12096 0.17599
# Poissons Ratio (y) = 0.16347 0.54108
# Poissons Ratio (z) = 0.24783 0.56380
#
# Static dielectric constant tensor:
#      x y z
#    x 4.046750 0.000000 0.000000 
#    y 0.000000 4.025600 0.000000 
#    z 0.000000 0.000000 4.139110 
# 
# 
# High freq. dielectric constant tensor:
#      x y z
#    x 1.869550 0.000000 0.000000 
#    y 0.000000 1.844070 0.000000 
#    z 0.000000 0.000000 1.867190 
# 
# From -- ./inp_files/54209.got.cif
#   From: 2010.03.12/outbox.cif.g09.slc.cpg/sg63_28_cif.got.tgz:54209.got - 2010.04.10 19:34:48.
