data_PCOD8260377
_publ_section_title
;
Structure prediction by ZEFSAII (Michael W. Deem and Ramdas Pophale) SiO2 
 PCOD8260377
Probable space group: C M C M
;
_chemical_formula_sum "Si O2"
_cell_formula_units_Z 60
_cell_length_a 11.684627
_cell_length_b 18.353334
_cell_length_c 15.435850
_cell_angle_alpha 90.000000
_cell_angle_beta 90.000000
_cell_angle_gamma 90.000000
_cell_volume 3310.246774
_symmetry_space_group_name_H-M "C M C M"
_symmetry_group_IT_number 63
_symmetry_cell_setting 'orthorhombic'
loop_
_space_group_symop_operation_xyz
x,y,z
-x,-y,1/2+z
x,-y,-z
-x,y,1/2-z
-x,-y,-z
x,y,1/2-z
-x,y,z
x,-y,1/2+z
1/2+x,1/2+y,z
1/2-x,1/2-y,1/2+z
1/2+x,1/2-y,-z
1/2-x,1/2+y,1/2-z
1/2-x,1/2-y,-z
1/2+x,1/2+y,1/2-z
1/2-x,1/2+y,z
1/2+x,1/2-y,1/2+z
loop_
_atom_site_type_symbol
_atom_site_label
_atom_site_fract_x
_atom_site_fract_y
_atom_site_fract_z
Si Si1 0.635448 0.186460 0.250000
Si Si2 0.500000 0.785386 0.156326
Si Si3 0.365250 0.547811 0.415207
Si Si4 0.783100 0.211674 0.412923
Si Si5 0.722227 0.023565 0.250000
Si Si6 0.500000 0.924883 0.250000
O O1 0.500000 0.199943 0.250000
O O2 0.688385 0.221534 0.337269
O O3 0.666169 0.102332 0.250000
O O4 0.500000 0.746362 0.250000
O O5 0.609700 0.760044 0.107707
O O6 0.500000 0.873528 0.164593
O O7 0.340199 0.500000 0.500000
O O8 0.500000 0.552266 0.394758
O O9 0.314925 0.627993 0.429639
O O10 0.301366 0.510556 0.334080
O O11 0.750000 0.250000 0.500000
O O12 0.616143 0.969631 0.250000
#
# Coordination Sequence:
#
# PCOD8260377 Si02
#       6
#     8   8  16  16   8   4
#     4  10  21  39  58  89 119 155 192 244 307 349
#     4  10  22  40  62  84 116 163 206 236 294 353
#     4  10  22  39  62  88 117 156 203 247 300 354
#     4  11  23  39  63  88 121 160 203 248 295 363
#     4  10  21  39  60  84 121 154 192 246 299 351
#     4  10  22  38  62  88 120 150 208 238 294 366
#
# _framework density 18.125537000000001
#
# number of rings (size 3 to 8) (size 9 to 14) (size 15 to 20)
#    0.400    1.333    3.333    0.400    5.600    0.000 
#    0.000    0.667    0.000    0.000    0.000    0.000 
#    0.000    0.000    0.000    0.000    0.000    0.000 
#
# Total GULP energy -371818.200112 kJ/mol
# GULP energy per Si atom -12393.940004 kJ/mol
# Density = 1.808428 g / cm^3
# Si number density = 18.125537 Si / 1000 Ang^3
#
#
#
# Elastic Constant Matrix: (Units=GPa)
#
#
# Indices 1 2 3 4 5 6 
#
# 1 169.3458 53.1210 100.6762 0.0000 0.0000 0.0000
# 2 53.1210 78.4813 68.1128 0.0000 0.0000 0.0000
# 3 100.6762 68.1128 175.9004 0.0000 0.0000 0.0000
# 4 0.0000 0.0000 0.0000 33.5251 0.0000 0.0000
# 5 0.0000 0.0000 0.0000 0.0000 38.5335 0.0000
# 6 0.0000 0.0000 0.0000 0.0000 0.0000 43.9225
#
#
#
# Elastic Compliance Matrix: (Units=1/GPa)
#
#
# Indices 1 2 3 4 5 6 
#
# 1 0.009269 -0.002515 -0.004331 0.000000 0.000000 0.000000
# 2 -0.002515 0.019874 -0.006256 0.000000 0.000000 0.000000
# 3 -0.004331 -0.006256 0.010587 0.000000 0.000000 0.000000
# 4 0.000000 0.000000 0.000000 0.029828 0.000000 0.000000
# 5 0.000000 0.000000 0.000000 0.000000 0.025951 0.000000
# 6 0.000000 0.000000 0.000000 0.000000 0.000000 0.022767
#
#
# Mechanical properties :
#
#
# Convention : Reuss Voigt Hill
#
# Bulk Modulus (GPa) = 73.93881 96.39415 85.16648
# Shear Modulus (GPa) = 33.55951 36.65074 35.10512
#
# Velocity S-wave (km/s) = 4.30758 4.50160 4.40566
# Velocity P-wave (km/s) = 8.10071 8.96192 8.54218
#
# Compressibility (1/GPa) = 0.01352470
#
# Stress axis : x y z
#
# Youngs Moduli (GPa) = 107.88865 50.31760 94.45895
#
# Poissons Ratio (x) = 0.12653 0.40912
# Poissons Ratio (y) = 0.27131 0.59097
# Poissons Ratio (z) = 0.46729 0.31480
#
# Static dielectric constant tensor:
#      x y z
#    x 3.364340 0.000000 0.000000 
#    y 0.000000 3.321350 0.000000 
#    z 0.000000 0.000000 3.403930 
# 
# 
# High freq. dielectric constant tensor:
#      x y z
#    x 1.716740 0.000000 0.000000 
#    y 0.000000 1.698670 0.000000 
#    z 0.000000 0.000000 1.711570 
# 
# From -- ./inp_files/17181.got.cif
#   From: 2010.03.12/outbox.cif.g09.slc.cpg/sg63_9_cif.got.tgz:17181.got - 2010.04.10 19:34:48.
