data_PCOD8260498
_publ_section_title
;
Structure prediction by ZEFSAII (Michael W. Deem and Ramdas Pophale) SiO2 
 PCOD8260498
Probable space group: C M C M
;
_chemical_formula_sum "Si O2"
_cell_formula_units_Z 112
_cell_length_a 31.760076
_cell_length_b 11.450178
_cell_length_c 13.341470
_cell_angle_alpha 90.000000
_cell_angle_beta 90.000000
_cell_angle_gamma 90.000000
_cell_volume 4851.739281
_symmetry_space_group_name_H-M "C M C M"
_symmetry_group_IT_number 63
_symmetry_cell_setting 'orthorhombic'
loop_
_space_group_symop_operation_xyz
x,y,z
-x,-y,1/2+z
x,-y,-z
-x,y,1/2-z
-x,-y,-z
x,y,1/2-z
-x,y,z
x,-y,1/2+z
1/2+x,1/2+y,z
1/2-x,1/2-y,1/2+z
1/2+x,1/2-y,-z
1/2-x,1/2+y,1/2-z
1/2-x,1/2-y,-z
1/2+x,1/2+y,1/2-z
1/2-x,1/2+y,z
1/2+x,1/2-y,1/2+z
loop_
_atom_site_type_symbol
_atom_site_label
_atom_site_fract_x
_atom_site_fract_y
_atom_site_fract_z
Si Si1 0.452864 0.164544 0.633473
Si Si2 0.791923 0.075507 0.863261
Si Si3 0.697434 0.902426 0.086028
Si Si4 0.830614 0.158818 0.130032
Si Si5 0.916977 0.127425 0.023638
Si Si6 0.635960 0.740810 0.869181
Si Si7 0.883423 0.490699 0.641927
O O1 0.442108 0.190338 0.750000
O O2 0.500000 0.113676 0.621998
O O3 0.451206 0.284999 0.570625
O O4 0.419160 0.070543 0.588085
O O5 0.807817 0.061911 0.750000
O O6 0.742858 0.103761 0.863196
O O7 0.820147 0.182020 0.907401
O O8 0.801555 0.948261 0.911269
O O9 0.685368 0.767946 0.062334
O O10 0.659906 0.939641 0.160050
O O11 0.698900 0.000000 0.000000
O O12 0.826090 0.182093 0.250000
O O13 0.878378 0.126062 0.102583
O O14 0.902535 0.167797 0.913223
O O15 0.936458 0.000000 0.000000
O O16 0.633566 0.747580 0.750000
O O17 0.629852 0.871752 0.916613
O O18 0.902500 0.457301 0.750000
#
# Coordination Sequence:
#
# PCOD8260498 Si02
#       7
#    16  16  16  16  16  16  16
#     4  10  23  45  74 105 133 167 218 280 346 420
#     4  10  23  40  59  90 133 182 231 282 335 393
#     4  12  25  37  61  92 132 172 232 287 342 392
#     4  11  23  42  65  91 130 185 234 281 338 405
#     4  12  23  39  69  96 134 173 228 275 339 408
#     4  10  23  41  62  92 135 179 226 281 339 397
#     4  10  21  41  65  90 127 173 219 277 344 408
#
# _framework density 23.084505
#
# number of rings (size 3 to 8) (size 9 to 14) (size 15 to 20)
#    0.000    1.286    2.857    2.571    4.000    1.429 
#    0.000    1.429    0.000    1.286    0.000    0.000 
#    0.000    0.000    0.000    0.000    0.000    0.000 
#
# Total GULP energy -693752.494755 kJ/mol
# GULP energy per Si atom -12388.437406 kJ/mol
# Density = 2.303196 g / cm^3
# Si number density = 23.084505 Si / 1000 Ang^3
#
#
#
# Elastic Constant Matrix: (Units=GPa)
#
#
# Indices 1 2 3 4 5 6 
#
# 1 119.6410 68.8972 14.7185 0.0000 0.0000 0.0000
# 2 68.8972 205.5434 36.7234 0.0000 0.0000 0.0000
# 3 14.7185 36.7234 50.2400 0.0000 0.0000 0.0000
# 4 0.0000 0.0000 0.0000 30.4820 0.0000 0.0000
# 5 0.0000 0.0000 0.0000 0.0000 17.8134 0.0000
# 6 0.0000 0.0000 0.0000 0.0000 0.0000 28.0812
#
#
#
# Elastic Compliance Matrix: (Units=1/GPa)
#
#
# Indices 1 2 3 4 5 6 
#
# 1 0.010372 -0.003374 -0.000572 0.000000 0.000000 0.000000
# 2 -0.003374 0.006694 -0.003904 0.000000 0.000000 0.000000
# 3 -0.000572 -0.003904 0.022926 0.000000 0.000000 0.000000
# 4 0.000000 0.000000 0.000000 0.032806 0.000000 0.000000
# 5 0.000000 0.000000 0.000000 0.000000 0.056137 0.000000
# 6 0.000000 0.000000 0.000000 0.000000 0.000000 0.035611
#
#
# Mechanical properties :
#
#
# Convention : Reuss Voigt Hill
#
# Bulk Modulus (GPa) = 41.16900 68.45586 54.81243
# Shear Modulus (GPa) = 26.54708 32.28102 29.41405
#
# Velocity S-wave (km/s) = 3.39484 3.74356 3.57345
# Velocity P-wave (km/s) = 5.76536 6.95733 6.38920
#
# Compressibility (1/GPa) = 0.02429012
#
# Stress axis : x y z
#
# Youngs Moduli (GPa) = 96.41407 149.39183 43.61873
#
# Poissons Ratio (x) = 0.50411 0.02495
# Poissons Ratio (y) = 0.32534 0.17030
# Poissons Ratio (z) = 0.05515 0.58327
#
# Static dielectric constant tensor:
#      x y z
#    x 3.873910 0.000000 0.000000 
#    y 0.000000 4.599500 0.000000 
#    z 0.000000 0.000000 4.081780 
# 
# 
# High freq. dielectric constant tensor:
#      x y z
#    x 1.879420 0.000000 0.000000 
#    y 0.000000 1.929760 0.000000 
#    z 0.000000 0.000000 1.921480 
# 
# From -- ./inp_files/38585.got.cif
#   From: 2010.03.12/outbox.cif.g09.slc.cpg/sg63_20_cif.got.tgz:38585.got - 2010.04.10 19:34:48.
