data_PCOD8260279
_publ_section_title
;
Structure prediction by ZEFSAII (Michael W. Deem and Ramdas Pophale) SiO2 
 PCOD8260279
Probable space group: C M C M
;
_chemical_formula_sum "Si O2"
_cell_formula_units_Z 96
_cell_length_a 8.717482
_cell_length_b 29.485211
_cell_length_c 18.848743
_cell_angle_alpha 90.000000
_cell_angle_beta 90.000000
_cell_angle_gamma 90.000000
_cell_volume 4844.820512
_symmetry_space_group_name_H-M "C M C M"
_symmetry_group_IT_number 63
_symmetry_cell_setting 'orthorhombic'
loop_
_space_group_symop_operation_xyz
x,y,z
-x,-y,1/2+z
x,-y,-z
-x,y,1/2-z
-x,-y,-z
x,y,1/2-z
-x,y,z
x,-y,1/2+z
1/2+x,1/2+y,z
1/2-x,1/2-y,1/2+z
1/2+x,1/2-y,-z
1/2-x,1/2+y,1/2-z
1/2-x,1/2-y,-z
1/2+x,1/2+y,1/2-z
1/2-x,1/2+y,z
1/2+x,1/2-y,1/2+z
loop_
_atom_site_type_symbol
_atom_site_label
_atom_site_fract_x
_atom_site_fract_y
_atom_site_fract_z
Si Si1 0.176678 0.181453 0.586975
Si Si2 0.824653 0.154885 0.069208
Si Si3 0.675098 0.101777 0.829497
Si Si4 0.178440 0.763523 0.832040
Si Si5 0.179379 0.561523 0.454100
Si Si6 0.320643 0.524762 0.595826
O O1 0.207264 0.183415 0.502667
O O2 0.277079 0.140835 0.617101
O O3 0.223110 0.228316 0.622978
O O4 0.000000 0.171463 0.604301
O O5 0.788451 0.186816 0.136192
O O6 0.716920 0.111075 0.076138
O O7 0.000000 0.138083 0.070545
O O8 0.697377 0.120309 0.750000
O O9 0.500000 0.088887 0.845512
O O10 0.776129 0.056354 0.838019
O O11 0.229806 0.763079 0.750000
O O12 0.000000 0.750670 0.839787
O O13 0.273016 0.552828 0.525984
O O14 0.230975 0.522970 0.398058
O O15 0.000000 0.557352 0.469664
O O16 0.500000 0.514686 0.594708
#
# Coordination Sequence:
#
# PCOD8260279 Si02
#       6
#    16  16  16  16  16  16
#     4  11  22  36  58  86 116 151 194 245 295 350
#     4  10  21  38  59  86 116 151 196 246 295 345
#     4  11  23  38  57  84 120 158 197 243 294 351
#     4  10  22  40  60  82 114 155 196 240 293 352
#     4  11  21  35  59  87 115 150 192 238 291 342
#     4  11  21  36  58  84 117 153 192 238 288 345
#
# _framework density 19.814975
#
# number of rings (size 3 to 8) (size 9 to 14) (size 15 to 20)
#    0.000    1.333    1.667    6.000    0.000    5.000 
#    0.000    0.833    0.000    3.000    0.000    0.000 
#    0.000    0.000    0.000    0.000    0.000    0.000 
#
# Total GULP energy -595390.601124 kJ/mol
# GULP energy per Si atom -12403.970857 kJ/mol
# Density = 1.976987 g / cm^3
# Si number density = 19.814975 Si / 1000 Ang^3
#
#
#
# Elastic Constant Matrix: (Units=GPa)
#
#
# Indices 1 2 3 4 5 6 
#
# 1 84.5689 29.2087 21.0937 0.0000 0.0000 0.0000
# 2 29.2087 104.8330 27.5966 0.0000 0.0000 0.0000
# 3 21.0937 27.5966 61.5321 0.0000 0.0000 0.0000
# 4 0.0000 0.0000 0.0000 20.3511 0.0000 0.0000
# 5 0.0000 0.0000 0.0000 0.0000 23.0096 0.0000
# 6 0.0000 0.0000 0.0000 0.0000 0.0000 39.1214
#
#
#
# Elastic Compliance Matrix: (Units=1/GPa)
#
#
# Indices 1 2 3 4 5 6 
#
# 1 0.013676 -0.002921 -0.003378 0.000000 0.000000 0.000000
# 2 -0.002921 0.011440 -0.004129 0.000000 0.000000 0.000000
# 3 -0.003378 -0.004129 0.019262 0.000000 0.000000 0.000000
# 4 0.000000 0.000000 0.000000 0.049137 0.000000 0.000000
# 5 0.000000 0.000000 0.000000 0.000000 0.043460 0.000000
# 6 0.000000 0.000000 0.000000 0.000000 0.000000 0.025561
#
#
# Mechanical properties :
#
#
# Convention : Reuss Voigt Hill
#
# Bulk Modulus (GPa) = 42.51616 45.19246 43.85431
# Shear Modulus (GPa) = 26.14594 28.03209 27.08902
#
# Velocity S-wave (km/s) = 3.63644 3.76532 3.70144
# Velocity P-wave (km/s) = 6.25578 6.46222 6.35983
#
# Compressibility (1/GPa) = 0.02352047
#
# Stress axis : x y z
#
# Youngs Moduli (GPa) = 73.11961 87.41340 51.91656
#
# Poissons Ratio (x) = 0.25535 0.17538
# Poissons Ratio (y) = 0.21360 0.21438
# Poissons Ratio (z) = 0.24701 0.36095
#
# Static dielectric constant tensor:
#      x y z
#    x 3.648910 0.000000 0.000000 
#    y 0.000000 3.724690 0.000000 
#    z 0.000000 0.000000 3.548110 
# 
# 
# High freq. dielectric constant tensor:
#      x y z
#    x 1.779030 0.000000 0.000000 
#    y 0.000000 1.779270 0.000000 
#    z 0.000000 0.000000 1.755070 
# 
# From -- ./inp_files/51252.got.cif
#   From: 2010.03.12/outbox.cif.g09.slc.cpg/sg63_26_cif.got.tgz:51252.got - 2010.04.10 19:34:48.
