data_PCOD8260651
_publ_section_title
;
Structure prediction by ZEFSAII (Michael W. Deem and Ramdas Pophale) SiO2 
 PCOD8260651
Probable space group: C M C M
;
_chemical_formula_sum "Si O2"
_cell_formula_units_Z 64
_cell_length_a 8.932687
_cell_length_b 19.990099
_cell_length_c 17.422660
_cell_angle_alpha 90.000000
_cell_angle_beta 90.000000
_cell_angle_gamma 90.000000
_cell_volume 3111.082466
_symmetry_space_group_name_H-M "C M C M"
_symmetry_group_IT_number 63
_symmetry_cell_setting 'orthorhombic'
loop_
_space_group_symop_operation_xyz
x,y,z
-x,-y,1/2+z
x,-y,-z
-x,y,1/2-z
-x,-y,-z
x,y,1/2-z
-x,y,z
x,-y,1/2+z
1/2+x,1/2+y,z
1/2-x,1/2-y,1/2+z
1/2+x,1/2-y,-z
1/2-x,1/2+y,1/2-z
1/2-x,1/2-y,-z
1/2+x,1/2+y,1/2-z
1/2-x,1/2+y,z
1/2+x,1/2-y,1/2+z
loop_
_atom_site_type_symbol
_atom_site_label
_atom_site_fract_x
_atom_site_fract_y
_atom_site_fract_z
Si Si1 0.827336 0.634247 0.661954
Si Si2 0.673534 0.269246 0.921319
Si Si3 0.674153 0.890695 0.838600
Si Si4 0.324733 0.513633 0.587614
O O1 0.780759 0.624067 0.750000
O O2 0.798962 0.711276 0.640737
O O3 0.723584 0.588778 0.608305
O O4 0.000000 0.614690 0.648217
O O5 0.500000 0.281829 0.937086
O O6 0.741780 0.337575 0.890747
O O7 0.750000 0.250000 0.000000
O O8 0.704439 0.874379 0.750000
O O9 0.500000 0.888423 0.858680
O O10 0.735943 0.964073 0.856695
O O11 0.280335 0.500000 0.500000
O O12 0.500000 0.504362 0.601591
#
# Coordination Sequence:
#
# PCOD8260651 Si02
#       4
#    16  16  16  16
#     4  10  22  40  61  86 117 154 195 240 293 351
#     4  11  23  40  63  90 122 159 199 245 298 356
#     4  11  24  41  62  89 121 158 201 248 298 355
#     4  11  24  40  60  88 120 155 197 245 297 354
#
# _framework density 20.571618000000001
#
# number of rings (size 3 to 8) (size 9 to 14) (size 15 to 20)
#    0.000    1.250    0.000    5.250    0.000   14.500 
#    0.000    0.000    0.000    0.000    0.000    0.000 
#    0.000    0.000    0.000    0.000    0.000    0.000 
#
# Total GULP energy -397073.969178 kJ/mol
# GULP energy per Si atom -12408.561537 kJ/mol
# Density = 2.052480 g / cm^3
# Si number density = 20.571618 Si / 1000 Ang^3
#
#
#
# Elastic Constant Matrix: (Units=GPa)
#
#
# Indices 1 2 3 4 5 6 
#
# 1 101.9748 30.9587 46.5634 0.0000 0.0000 0.0000
# 2 30.9587 72.1531 5.3556 0.0000 0.0000 0.0000
# 3 46.5634 5.3556 79.1551 0.0000 0.0000 0.0000
# 4 0.0000 0.0000 0.0000 42.9281 0.0000 0.0000
# 5 0.0000 0.0000 0.0000 0.0000 34.3204 0.0000
# 6 0.0000 0.0000 0.0000 0.0000 0.0000 40.7187
#
#
#
# Elastic Compliance Matrix: (Units=1/GPa)
#
#
# Indices 1 2 3 4 5 6 
#
# 1 0.015671 -0.006070 -0.008808 0.000000 0.000000 0.000000
# 2 -0.006070 0.016281 0.002469 0.000000 0.000000 0.000000
# 3 -0.008808 0.002469 0.017648 0.000000 0.000000 0.000000
# 4 0.000000 0.000000 0.000000 0.023295 0.000000 0.000000
# 5 0.000000 0.000000 0.000000 0.000000 0.029137 0.000000
# 6 0.000000 0.000000 0.000000 0.000000 0.000000 0.024559
#
#
# Mechanical properties :
#
#
# Convention : Reuss Voigt Hill
#
# Bulk Modulus (GPa) = 40.35225 46.55983 43.45604
# Shear Modulus (GPa) = 31.31496 34.95379 33.13438
#
# Velocity S-wave (km/s) = 3.90582 4.12652 4.01769
# Velocity P-wave (km/s) = 6.32445 6.73694 6.53395
#
# Compressibility (1/GPa) = 0.02478177
#
# Stress axis : x y z
#
# Youngs Moduli (GPa) = 63.81210 61.42253 56.66492
#
# Poissons Ratio (x) = 0.37285 0.49910
# Poissons Ratio (y) = 0.38735 -0.13992
# Poissons Ratio (z) = 0.56205 -0.15167
#
# Static dielectric constant tensor:
#      x y z
#    x 3.829150 0.000000 0.000000 
#    y 0.000000 3.793350 0.000000 
#    z 0.000000 0.000000 3.815200 
# 
# 
# High freq. dielectric constant tensor:
#      x y z
#    x 1.812430 0.000000 0.000000 
#    y 0.000000 1.817700 0.000000 
#    z 0.000000 0.000000 1.817110 
# 
# From -- ./inp_files/27478.got.cif
#   From: 2010.03.12/outbox.cif.g09.slc.cpg/sg63_14_cif.got.tgz:27478.got - 2010.04.10 19:34:48.
