data_PCOD8260043
_publ_section_title
;
Structure prediction by ZEFSAII (Michael W. Deem and Ramdas Pophale) SiO2 
 PCOD8260043
Probable space group: C M C M
;
_chemical_formula_sum "Si O2"
_cell_formula_units_Z 88
_cell_length_a 11.912185
_cell_length_b 27.193389
_cell_length_c 14.146197
_cell_angle_alpha 90.000000
_cell_angle_beta 90.000000
_cell_angle_gamma 90.000000
_cell_volume 4582.415514
_symmetry_space_group_name_H-M "C M C M"
_symmetry_group_IT_number 63
_symmetry_cell_setting 'orthorhombic'
loop_
_space_group_symop_operation_xyz
x,y,z
-x,-y,1/2+z
x,-y,-z
-x,y,1/2-z
-x,-y,-z
x,y,1/2-z
-x,y,z
x,-y,1/2+z
1/2+x,1/2+y,z
1/2-x,1/2-y,1/2+z
1/2+x,1/2-y,-z
1/2-x,1/2+y,1/2-z
1/2-x,1/2-y,-z
1/2+x,1/2+y,1/2-z
1/2-x,1/2+y,z
1/2+x,1/2-y,1/2+z
loop_
_atom_site_type_symbol
_atom_site_label
_atom_site_fract_x
_atom_site_fract_y
_atom_site_fract_z
Si Si1 0.868790 0.323839 0.856675
Si Si2 0.000000 0.153667 0.861933
Si Si3 0.310088 0.500000 0.000000
Si Si4 0.301456 0.279698 0.361976
Si Si5 0.372701 0.855025 0.353571
Si Si6 0.000000 0.040458 0.864973
Si Si7 0.370045 0.080517 0.024500
O O1 0.828237 0.333377 0.750000
O O2 0.808104 0.275845 0.902978
O O3 0.838218 0.372340 0.913724
O O4 0.000000 0.312257 0.860909
O O5 0.106397 0.182703 0.903263
O O6 0.000000 0.097367 0.896126
O O7 0.000000 0.153492 0.750000
O O8 0.387896 0.517215 0.912310
O O9 0.224225 0.460010 0.955478
O O10 0.319256 0.274024 0.250000
O O11 0.185084 0.305226 0.391042
O O12 0.324792 0.869210 0.250000
O O13 0.500000 0.838911 0.350041
O O14 0.356180 0.903519 0.415747
O O15 0.000000 0.032554 0.750000
O O16 0.500000 0.062946 0.044533
#
# Coordination Sequence:
#
# PCOD8260043 Si02
#       7
#    16   8   8  16  16   8  16
#     4   9  17  31  50  77 111 145 180 221 268 328
#     4   9  15  27  51  82 103 128 173 226 273 318
#     4  11  23  40  60  82 111 145 190 240 280 329
#     4   9  15  26  49  76 104 137 176 218 267 323
#     4   9  18  32  49  72 107 145 180 223 274 328
#     4  10  23  41  62  83 109 144 186 234 286 332
#     4  10  21  36  56  81 111 145 186 231 283 329
#
# _framework density 19.203845999999999
#
# number of rings (size 3 to 8) (size 9 to 14) (size 15 to 20)
#    0.000    2.545    0.909    1.364    0.000    3.636 
#    0.000    0.000    4.000    5.455    0.000    0.000 
#    0.000    0.000    0.000    0.000    0.000    0.000 
#
# Total GULP energy -545194.519897 kJ/mol
# GULP energy per Si atom -12390.784543 kJ/mol
# Density = 1.916014 g / cm^3
# Si number density = 19.203846 Si / 1000 Ang^3
#
#
#
# Elastic Constant Matrix: (Units=GPa)
#
#
# Indices 1 2 3 4 5 6 
#
# 1 92.1892 65.6788 20.5649 0.0000 0.0000 0.0000
# 2 65.6788 135.6529 29.7831 0.0000 0.0000 0.0000
# 3 20.5649 29.7831 50.6134 0.0000 0.0000 0.0000
# 4 0.0000 0.0000 0.0000 19.1977 0.0000 0.0000
# 5 0.0000 0.0000 0.0000 0.0000 15.8676 0.0000
# 6 0.0000 0.0000 0.0000 0.0000 0.0000 31.8299
#
#
#
# Elastic Compliance Matrix: (Units=1/GPa)
#
#
# Indices 1 2 3 4 5 6 
#
# 1 0.016797 -0.007619 -0.002342 0.000000 0.000000 0.000000
# 2 -0.007619 0.011921 -0.003919 0.000000 0.000000 0.000000
# 3 -0.002342 -0.003919 0.023015 0.000000 0.000000 0.000000
# 4 0.000000 0.000000 0.000000 0.052090 0.000000 0.000000
# 5 0.000000 0.000000 0.000000 0.000000 0.063022 0.000000
# 6 0.000000 0.000000 0.000000 0.000000 0.000000 0.031417
#
#
# Mechanical properties :
#
#
# Convention : Reuss Voigt Hill
#
# Bulk Modulus (GPa) = 41.71142 56.72324 49.21733
# Shear Modulus (GPa) = 21.36634 24.20762 22.78698
#
# Velocity S-wave (km/s) = 3.33920 3.55429 3.44842
# Velocity P-wave (km/s) = 6.05264 6.81510 6.44515
#
# Compressibility (1/GPa) = 0.02397425
#
# Stress axis : x y z
#
# Youngs Moduli (GPa) = 59.53295 83.88623 43.44914
#
# Poissons Ratio (x) = 0.63909 0.10175
# Poissons Ratio (y) = 0.45356 0.17029
# Poissons Ratio (z) = 0.13942 0.32877
#
# Static dielectric constant tensor:
#      x y z
#    x 3.532430 0.000000 0.000000 
#    y 0.000000 3.565590 0.000000 
#    z 0.000000 0.000000 3.530210 
# 
# 
# High freq. dielectric constant tensor:
#      x y z
#    x 1.746460 0.000000 0.000000 
#    y 0.000000 1.746360 0.000000 
#    z 0.000000 0.000000 1.728050 
# 
# From -- ./inp_files/30185.got.cif
#   From: 2010.03.12/outbox.cif.g09.slc.cpg/sg63_16_cif.got.tgz:30185.got - 2010.04.10 19:34:48.
