data_PCOD8260414
_publ_section_title
;
Structure prediction by ZEFSAII (Michael W. Deem and Ramdas Pophale) SiO2 
 PCOD8260414
Probable space group: C M C M
;
_chemical_formula_sum "Si O2"
_cell_formula_units_Z 72
_cell_length_a 25.396245
_cell_length_b 17.149825
_cell_length_c 8.744479
_cell_angle_alpha 90.000000
_cell_angle_beta 90.000000
_cell_angle_gamma 90.000000
_cell_volume 3808.580505
_symmetry_space_group_name_H-M "C M C M"
_symmetry_group_IT_number 63
_symmetry_cell_setting 'orthorhombic'
loop_
_space_group_symop_operation_xyz
x,y,z
-x,-y,1/2+z
x,-y,-z
-x,y,1/2-z
-x,-y,-z
x,y,1/2-z
-x,y,z
x,-y,1/2+z
1/2+x,1/2+y,z
1/2-x,1/2-y,1/2+z
1/2+x,1/2-y,-z
1/2-x,1/2+y,1/2-z
1/2-x,1/2-y,-z
1/2+x,1/2+y,1/2-z
1/2-x,1/2+y,z
1/2+x,1/2-y,1/2+z
loop_
_atom_site_type_symbol
_atom_site_label
_atom_site_fract_x
_atom_site_fract_y
_atom_site_fract_z
Si Si1 0.000000 0.086219 0.430606
Si Si2 0.585619 0.303761 0.427367
Si Si3 0.156434 0.578234 0.572398
Si Si4 0.193828 0.735281 0.429624
Si Si5 0.941378 0.628397 0.422992
O O1 0.053487 0.131096 0.479765
O O2 0.000000 0.078938 0.250000
O O3 0.000000 0.000000 0.500000
O O4 0.582284 0.327305 0.250000
O O5 0.647385 0.296039 0.480876
O O6 0.558750 0.220556 0.457282
O O7 0.180772 0.500000 0.500000
O O8 0.170569 0.584003 0.750000
O O9 0.179853 0.648841 0.478413
O O10 0.093504 0.580672 0.544479
O O11 0.198890 0.739447 0.250000
O O12 0.250000 0.750000 0.500000
O O13 0.920001 0.614286 0.250000
O O14 0.000000 0.596377 0.441778
#
# Coordination Sequence:
#
# PCOD8260414 Si02
#       5
#     8  16  16  16  16
#     4  12  24  36  56  84 117 154 195 244 296 350
#     4   9  18  36  58  81 113 149 185 230 285 341
#     4  11  22  36  54  79 112 147 185 230 278 329
#     4  10  21  39  63  88 114 149 191 237 288 348
#     4   9  17  32  54  78 108 147 183 220 270 329
#
# _framework density 18.904681
#
# number of rings (size 3 to 8) (size 9 to 14) (size 15 to 20)
#    0.000    2.000    1.111    5.000    0.000    5.333 
#    0.000    1.111    0.000    5.333    0.000    0.000 
#    0.000    0.000    0.000    0.000    0.000    0.000 
#
# Total GULP energy -446197.778300 kJ/mol
# GULP energy per Si atom -12394.382731 kJ/mol
# Density = 1.886165 g / cm^3
# Si number density = 18.904681 Si / 1000 Ang^3
#
#
#
# Elastic Constant Matrix: (Units=GPa)
#
#
# Indices 1 2 3 4 5 6 
#
# 1 139.4157 43.7392 45.6922 0.0000 0.0000 0.0000
# 2 43.7392 92.0409 33.6448 0.0000 0.0000 0.0000
# 3 45.6922 33.6448 83.6966 0.0000 0.0000 0.0000
# 4 0.0000 0.0000 0.0000 31.0862 0.0000 0.0000
# 5 0.0000 0.0000 0.0000 0.0000 34.9398 0.0000
# 6 0.0000 0.0000 0.0000 0.0000 0.0000 6.0422
#
#
#
# Elastic Compliance Matrix: (Units=1/GPa)
#
#
# Indices 1 2 3 4 5 6 
#
# 1 0.009410 -0.003041 -0.003915 0.000000 0.000000 0.000000
# 2 -0.003041 0.013719 -0.003855 0.000000 0.000000 0.000000
# 3 -0.003915 -0.003855 0.015635 0.000000 0.000000 0.000000
# 4 0.000000 0.000000 0.000000 0.032169 0.000000 0.000000
# 5 0.000000 0.000000 0.000000 0.000000 0.028621 0.000000
# 6 0.000000 0.000000 0.000000 0.000000 0.000000 0.165502
#
#
# Mechanical properties :
#
#
# Convention : Reuss Voigt Hill
#
# Bulk Modulus (GPa) = 58.33339 62.36729 60.35034
# Shear Modulus (GPa) = 17.10051 27.21878 22.15964
#
# Velocity S-wave (km/s) = 3.01086 3.79857 3.42742
# Velocity P-wave (km/s) = 6.55825 7.23194 6.90331
#
# Compressibility (1/GPa) = 0.01714284
#
# Stress axis : x y z
#
# Youngs Moduli (GPa) = 106.27255 72.89280 63.96053
#
# Poissons Ratio (x) = 0.22164 0.25039
# Poissons Ratio (y) = 0.32314 0.24655
# Poissons Ratio (z) = 0.41603 0.28099
#
# Static dielectric constant tensor:
#      x y z
#    x 3.774450 0.000000 0.000000 
#    y 0.000000 3.369550 0.000000 
#    z 0.000000 0.000000 3.364080 
# 
# 
# High freq. dielectric constant tensor:
#      x y z
#    x 1.732100 0.000000 0.000000 
#    y 0.000000 1.723140 0.000000 
#    z 0.000000 0.000000 1.733800 
# 
# From -- ./inp_files/11667.got.cif
#   From: 2010.03.12/outbox.cif.g09.slc.cpg/sg63_6_cif.got.tgz:11667.got - 2010.04.10 19:34:48.
