data_PCOD8260206
_publ_section_title
;
Structure prediction by ZEFSAII (Michael W. Deem and Ramdas Pophale) SiO2 
 PCOD8260206
Probable space group: C M C M
;
_chemical_formula_sum "Si O2"
_cell_formula_units_Z 104
_cell_length_a 26.128857
_cell_length_b 21.932392
_cell_length_c 8.932252
_cell_angle_alpha 90.000000
_cell_angle_beta 90.000000
_cell_angle_gamma 90.000000
_cell_volume 5118.790775
_symmetry_space_group_name_H-M "C M C M"
_symmetry_group_IT_number 63
_symmetry_cell_setting 'orthorhombic'
loop_
_space_group_symop_operation_xyz
x,y,z
-x,-y,1/2+z
x,-y,-z
-x,y,1/2-z
-x,-y,-z
x,y,1/2-z
-x,y,z
x,-y,1/2+z
1/2+x,1/2+y,z
1/2-x,1/2-y,1/2+z
1/2+x,1/2-y,-z
1/2-x,1/2+y,1/2-z
1/2-x,1/2-y,-z
1/2+x,1/2+y,1/2-z
1/2-x,1/2+y,z
1/2+x,1/2-y,1/2+z
loop_
_atom_site_type_symbol
_atom_site_label
_atom_site_fract_x
_atom_site_fract_y
_atom_site_fract_z
Si Si1 0.206698 0.143850 0.074144
Si Si2 0.701717 0.939468 0.574233
Si Si3 0.357292 0.246904 0.923059
Si Si4 0.057345 0.842812 0.579175
Si Si5 0.109337 0.382647 0.428307
Si Si6 0.378755 0.564450 0.925466
Si Si7 0.500000 0.066238 0.573467
O O1 0.193758 0.138507 0.250000
O O2 0.264513 0.121761 0.040001
O O3 0.192954 0.213845 0.020935
O O4 0.171111 0.097767 0.986224
O O5 0.697170 0.950398 0.750000
O O6 0.645709 0.933230 0.501814
O O7 0.727074 0.000000 0.500000
O O8 0.350027 0.233443 0.750000
O O9 0.407416 0.285732 0.958421
O O10 0.368930 0.181346 0.997643
O O11 0.065607 0.864590 0.750000
O O12 0.070473 0.898203 0.469127
O O13 0.000000 0.820922 0.549635
O O14 0.114094 0.385327 0.250000
O O15 0.050550 0.395686 0.476420
O O16 0.374172 0.556917 0.750000
O O17 0.383616 0.500000 0.000000
O O18 0.500000 0.056217 0.750000
O O19 0.500000 0.000000 0.500000
#
# Coordination Sequence:
#
# PCOD8260206 Si02
#       7
#    16  16  16  16  16  16   8
#     4   9  19  37  58  82 112 146 184 230 280 337
#     4  11  23  38  58  84 115 149 190 234 284 339
#     4   8  16  33  57  84 112 143 184 228 275 333
#     4   9  18  33  54  77 104 142 185 232 282 335
#     4  10  21  37  59  87 117 149 189 234 282 338
#     4  11  21  33  51  75 106 143 185 233 284 340
#     4  10  22  38  58  84 114 150 191 236 281 330
#
# _framework density 20.317298000000001
#
# number of rings (size 3 to 8) (size 9 to 14) (size 15 to 20)
#    0.000    2.308    0.000    3.692    1.077    5.538 
#    0.000    3.077    0.000    0.000    0.000    0.000 
#    0.000    0.000    0.000    0.000    0.000    0.000 
#
# Total GULP energy -644397.708521 kJ/mol
# GULP energy per Si atom -12392.263625 kJ/mol
# Density = 2.027106 g / cm^3
# Si number density = 20.317298 Si / 1000 Ang^3
#
#
#
# Elastic Constant Matrix: (Units=GPa)
#
#
# Indices 1 2 3 4 5 6 
#
# 1 127.0734 41.0644 27.5331 0.0000 0.0000 0.0000
# 2 41.0644 130.5407 34.3492 0.0000 0.0000 0.0000
# 3 27.5331 34.3492 63.3719 0.0000 0.0000 0.0000
# 4 0.0000 0.0000 0.0000 24.2301 0.0000 0.0000
# 5 0.0000 0.0000 0.0000 0.0000 25.4547 0.0000
# 6 0.0000 0.0000 0.0000 0.0000 0.0000 24.9308
#
#
#
# Elastic Compliance Matrix: (Units=1/GPa)
#
#
# Indices 1 2 3 4 5 6 
#
# 1 0.009174 -0.002143 -0.002824 0.000000 0.000000 0.000000
# 2 -0.002143 0.009435 -0.004183 0.000000 0.000000 0.000000
# 3 -0.002824 -0.004183 0.019274 0.000000 0.000000 0.000000
# 4 0.000000 0.000000 0.000000 0.041271 0.000000 0.000000
# 5 0.000000 0.000000 0.000000 0.000000 0.039285 0.000000
# 6 0.000000 0.000000 0.000000 0.000000 0.000000 0.040111
#
#
# Mechanical properties :
#
#
# Convention : Reuss Voigt Hill
#
# Bulk Modulus (GPa) = 51.06485 58.54216 54.80351
# Shear Modulus (GPa) = 27.26596 29.45909 28.36252
#
# Velocity S-wave (km/s) = 3.66732 3.81195 3.74033
# Velocity P-wave (km/s) = 6.56662 6.94630 6.75913
#
# Compressibility (1/GPa) = 0.01958294
#
# Stress axis : x y z
#
# Youngs Moduli (GPa) = 109.00569 105.98619 51.88242
#
# Poissons Ratio (x) = 0.22709 0.14653
# Poissons Ratio (y) = 0.23356 0.21703
# Poissons Ratio (z) = 0.30787 0.44336
#
# Static dielectric constant tensor:
#      x y z
#    x 3.724440 0.000000 0.000000 
#    y 0.000000 3.815590 0.000000 
#    z 0.000000 0.000000 3.452800 
# 
# 
# High freq. dielectric constant tensor:
#      x y z
#    x 1.797030 0.000000 0.000000 
#    y 0.000000 1.801930 0.000000 
#    z 0.000000 0.000000 1.767200 
# 
# From -- ./inp_files/12522.got.cif
#   From: 2010.03.12/outbox.cif.g09.slc.cpg/sg63_7_cif.got.tgz:12522.got - 2010.04.10 19:34:48.
