data_PCOD8260600
_publ_section_title
;
Structure prediction by ZEFSAII (Michael W. Deem and Ramdas Pophale) SiO2 
 PCOD8260600
Probable space group: C M C M
;
_chemical_formula_sum "Si O2"
_cell_formula_units_Z 64
_cell_length_a 13.193328
_cell_length_b 15.441225
_cell_length_c 16.990737
_cell_angle_alpha 90.000000
_cell_angle_beta 90.000000
_cell_angle_gamma 90.000000
_cell_volume 3461.372416
_symmetry_space_group_name_H-M "C M C M"
_symmetry_group_IT_number 63
_symmetry_cell_setting 'orthorhombic'
loop_
_space_group_symop_operation_xyz
x,y,z
-x,-y,1/2+z
x,-y,-z
-x,y,1/2-z
-x,-y,-z
x,y,1/2-z
-x,y,z
x,-y,1/2+z
1/2+x,1/2+y,z
1/2-x,1/2-y,1/2+z
1/2+x,1/2-y,-z
1/2-x,1/2+y,1/2-z
1/2-x,1/2-y,-z
1/2+x,1/2+y,1/2-z
1/2-x,1/2+y,z
1/2+x,1/2-y,1/2+z
loop_
_atom_site_type_symbol
_atom_site_label
_atom_site_fract_x
_atom_site_fract_y
_atom_site_fract_z
Si Si1 0.000000 0.212152 0.660287
Si Si2 0.329379 0.706960 0.060402
Si Si3 0.500000 0.007677 0.342967
Si Si4 0.500000 0.600052 0.980386
Si Si5 0.500000 0.807661 0.154410
Si Si6 0.841466 0.641689 0.341672
O O1 0.902207 0.269995 0.639248
O O2 0.000000 0.183026 0.750000
O O3 0.000000 0.122186 0.612465
O O4 0.397925 0.772064 0.113117
O O5 0.267862 0.646316 0.119676
O O6 0.250000 0.750000 0.000000
O O7 0.399786 0.642010 0.014280
O O8 0.500000 0.020321 0.250000
O O9 0.500000 0.908640 0.367541
O O10 0.400962 0.057917 0.375987
O O11 0.500000 0.500000 0.000000
O O12 0.500000 0.791873 0.250000
O O13 0.824937 0.630722 0.250000
#
# Coordination Sequence:
#
# PCOD8260600 Si02
#       6
#     8  16   8   8   8  16
#     4   9  17  35  61  82 107 145 191 232 281 340
#     4  11  22  37  59  80 115 153 191 228 286 350
#     4   8  17  34  59  88 111 135 187 243 278 327
#     4  11  24  40  54  83 120 148 185 242 286 328
#     4  10  22  39  57  85 120 150 182 239 298 343
#     4   9  17  34  61  85 107 146 193 235 279 341
#
# _framework density 18.489775000000002
#
# number of rings (size 3 to 8) (size 9 to 14) (size 15 to 20)
#    0.000    2.250    2.500    2.250    0.000    2.000 
#    0.000    5.000    0.000    0.000    0.000    0.000 
#    0.000    0.000    0.000    0.000    0.000    0.000 
#
# Total GULP energy -396551.713532 kJ/mol
# GULP energy per Si atom -12392.241048 kJ/mol
# Density = 1.844769 g / cm^3
# Si number density = 18.489775 Si / 1000 Ang^3
#
#
#
# Elastic Constant Matrix: (Units=GPa)
#
#
# Indices 1 2 3 4 5 6 
#
# 1 147.3870 66.9700 61.0322 0.0000 0.0000 0.0000
# 2 66.9700 144.2741 70.6975 0.0000 0.0000 0.0000
# 3 61.0322 70.6975 88.4456 0.0000 0.0000 0.0000
# 4 0.0000 0.0000 0.0000 23.8127 0.0000 0.0000
# 5 0.0000 0.0000 0.0000 0.0000 31.0649 0.0000
# 6 0.0000 0.0000 0.0000 0.0000 0.0000 12.4352
#
#
#
# Elastic Compliance Matrix: (Units=1/GPa)
#
#
# Indices 1 2 3 4 5 6 
#
# 1 0.009852 -0.002041 -0.005167 0.000000 0.000000 0.000000
# 2 -0.002041 0.011817 -0.008037 0.000000 0.000000 0.000000
# 3 -0.005167 -0.008037 0.021296 0.000000 0.000000 0.000000
# 4 0.000000 0.000000 0.000000 0.041994 0.000000 0.000000
# 5 0.000000 0.000000 0.000000 0.000000 0.032191 0.000000
# 6 0.000000 0.000000 0.000000 0.000000 0.000000 0.080417
#
#
# Mechanical properties :
#
#
# Convention : Reuss Voigt Hill
#
# Bulk Modulus (GPa) = 80.16196 86.38955 83.27576
# Shear Modulus (GPa) = 21.53170 25.55637 23.54404
#
# Velocity S-wave (km/s) = 3.41621 3.72181 3.57228
# Velocity P-wave (km/s) = 7.68176 8.08044 7.88362
#
# Compressibility (1/GPa) = 0.01247475
#
# Stress axis : x y z
#
# Youngs Moduli (GPa) = 101.50355 84.62191 46.95701
#
# Poissons Ratio (x) = 0.17274 0.24261
# Poissons Ratio (y) = 0.20721 0.37741
# Poissons Ratio (z) = 0.52443 0.68013
#
# Static dielectric constant tensor:
#      x y z
#    x 3.627940 0.000000 0.000000 
#    y 0.000000 3.456550 0.000000 
#    z 0.000000 0.000000 3.597150 
# 
# 
# High freq. dielectric constant tensor:
#      x y z
#    x 1.727990 0.000000 0.000000 
#    y 0.000000 1.700270 0.000000 
#    z 0.000000 0.000000 1.722010 
# 
# From -- ./inp_files/41578.got.cif
#   From: 2010.03.12/outbox.cif.g09.slc.cpg/sg63_21_cif.got.tgz:41578.got - 2010.04.10 19:34:48.
