data_PCOD8260064
_publ_section_title
;
Structure prediction by ZEFSAII (Michael W. Deem and Ramdas Pophale) SiO2 
 PCOD8260064
Probable space group: C M C M
;
_chemical_formula_sum "Si O2"
_cell_formula_units_Z 80
_cell_length_a 28.084815
_cell_length_b 8.440896
_cell_length_c 16.428497
_cell_angle_alpha 90.000000
_cell_angle_beta 90.000000
_cell_angle_gamma 90.000000
_cell_volume 3894.555970
_symmetry_space_group_name_H-M "C M C M"
_symmetry_group_IT_number 63
_symmetry_cell_setting 'orthorhombic'
loop_
_space_group_symop_operation_xyz
x,y,z
-x,-y,1/2+z
x,-y,-z
-x,y,1/2-z
-x,-y,-z
x,y,1/2-z
-x,y,z
x,-y,1/2+z
1/2+x,1/2+y,z
1/2-x,1/2-y,1/2+z
1/2+x,1/2-y,-z
1/2-x,1/2+y,1/2-z
1/2-x,1/2-y,-z
1/2+x,1/2+y,1/2-z
1/2-x,1/2+y,z
1/2+x,1/2-y,1/2+z
loop_
_atom_site_type_symbol
_atom_site_label
_atom_site_fract_x
_atom_site_fract_y
_atom_site_fract_z
Si Si1 0.445439 0.182715 0.003489
Si Si2 0.775352 0.289795 0.414825
Si Si3 0.629424 0.602179 0.078702
Si Si4 0.602667 0.704091 0.657636
Si Si5 0.197222 0.609612 0.341554
O O1 0.500000 0.207670 0.977822
O O2 0.438982 0.249341 0.095119
O O3 0.413564 0.276522 0.938369
O O4 0.430657 0.000000 0.000000
O O5 0.750000 0.250000 0.500000
O O6 0.823267 0.193940 0.397629
O O7 0.788670 0.474325 0.406311
O O8 0.737793 0.244418 0.344693
O O9 0.614857 0.482722 0.151003
O O10 0.641331 0.500000 0.000000
O O11 0.586454 0.739144 0.750000
O O12 0.647821 0.810578 0.631762
O O13 0.193408 0.542216 0.250000
#
# Coordination Sequence:
#
# PCOD8260064 Si02
#       5
#    16  16  16  16  16
#     4  10  21  40  64  87 114 149 189 235 291 351
#     4  12  22  35  56  81 111 151 199 241 278 334
#     4  10  21  36  57  84 113 147 188 236 286 338
#     4  10  22  39  59  85 117 152 193 241 291 345
#     4  11  23  37  54  80 117 156 191 234 291 342
#
# _framework density 20.541494
#
# number of rings (size 3 to 8) (size 9 to 14) (size 15 to 20)
#    0.000    1.400    0.000    7.200    0.000    7.200 
#    0.000    1.000    0.000    1.200    0.000    0.000 
#    0.000    0.000    0.000    0.000    0.000    0.000 
#
# Total GULP energy -496063.384277 kJ/mol
# GULP energy per Si atom -12401.584607 kJ/mol
# Density = 2.049474 g / cm^3
# Si number density = 20.541494 Si / 1000 Ang^3
#
#
#
# Elastic Constant Matrix: (Units=GPa)
#
#
# Indices 1 2 3 4 5 6 
#
# 1 71.1630 25.6806 12.5234 0.0000 0.0000 0.0000
# 2 25.6806 110.0480 22.0368 0.0000 0.0000 0.0000
# 3 12.5234 22.0368 62.4270 0.0000 0.0000 0.0000
# 4 0.0000 0.0000 0.0000 29.4961 0.0000 0.0000
# 5 0.0000 0.0000 0.0000 0.0000 22.1820 0.0000
# 6 0.0000 0.0000 0.0000 0.0000 0.0000 34.1722
#
#
#
# Elastic Compliance Matrix: (Units=1/GPa)
#
#
# Indices 1 2 3 4 5 6 
#
# 1 0.015569 -0.003236 -0.001981 0.000000 0.000000 0.000000
# 2 -0.003236 0.010451 -0.003040 0.000000 0.000000 0.000000
# 3 -0.001981 -0.003040 0.017489 0.000000 0.000000 0.000000
# 4 0.000000 0.000000 0.000000 0.033903 0.000000 0.000000
# 5 0.000000 0.000000 0.000000 0.000000 0.045082 0.000000
# 6 0.000000 0.000000 0.000000 0.000000 0.000000 0.029264
#
#
# Mechanical properties :
#
#
# Convention : Reuss Voigt Hill
#
# Bulk Modulus (GPa) = 37.04447 40.45772 38.75109
# Shear Modulus (GPa) = 28.20568 29.39655 28.80111
#
# Velocity S-wave (km/s) = 3.70957 3.78707 3.74852
# Velocity P-wave (km/s) = 6.03498 6.23385 6.13522
#
# Compressibility (1/GPa) = 0.02699459
#
# Stress axis : x y z
#
# Youngs Moduli (GPa) = 64.23118 95.68531 57.17822
#
# Poissons Ratio (x) = 0.30968 0.11326
# Poissons Ratio (y) = 0.20788 0.17382
# Poissons Ratio (z) = 0.12723 0.29088
#
# Static dielectric constant tensor:
#      x y z
#    x 3.627310 0.000000 0.000000 
#    y 0.000000 4.022070 0.000000 
#    z 0.000000 0.000000 3.554200 
# 
# 
# High freq. dielectric constant tensor:
#      x y z
#    x 1.801180 0.000000 0.000000 
#    y 0.000000 1.816950 0.000000 
#    z 0.000000 0.000000 1.789500 
# 
# From -- ./inp_files/48762.got.cif
#   From: 2010.03.12/outbox.cif.g09.slc.cpg/sg63_25_cif.got.tgz:48762.got - 2010.04.10 19:34:48.
