data_PCOD8260202
_publ_section_title
;
Structure prediction by ZEFSAII (Michael W. Deem and Ramdas Pophale) SiO2 
 PCOD8260202
Probable space group: C M C M
;
_chemical_formula_sum "Si O2"
_cell_formula_units_Z 112
_cell_length_a 14.590290
_cell_length_b 12.791974
_cell_length_c 26.988024
_cell_angle_alpha 90.000000
_cell_angle_beta 90.000000
_cell_angle_gamma 90.000000
_cell_volume 5037.007295
_symmetry_space_group_name_H-M "C M C M"
_symmetry_group_IT_number 63
_symmetry_cell_setting 'orthorhombic'
loop_
_space_group_symop_operation_xyz
x,y,z
-x,-y,1/2+z
x,-y,-z
-x,y,1/2-z
-x,-y,-z
x,y,1/2-z
-x,y,z
x,-y,1/2+z
1/2+x,1/2+y,z
1/2-x,1/2-y,1/2+z
1/2+x,1/2-y,-z
1/2-x,1/2+y,1/2-z
1/2-x,1/2-y,-z
1/2+x,1/2+y,1/2-z
1/2-x,1/2+y,z
1/2+x,1/2-y,1/2+z
loop_
_atom_site_type_symbol
_atom_site_label
_atom_site_fract_x
_atom_site_fract_y
_atom_site_fract_z
Si Si1 0.106353 0.255829 0.848131
Si Si2 0.834701 0.269771 0.464444
Si Si3 0.101278 0.036777 0.693680
Si Si4 0.395162 0.541631 0.445804
Si Si5 0.714454 0.058695 0.194775
Si Si6 0.599805 0.123925 0.445062
Si Si7 0.777970 0.454858 0.097386
O O1 0.136288 0.136195 0.838861
O O2 0.171841 0.327884 0.814364
O O3 0.122919 0.283356 0.905866
O O4 0.000000 0.271934 0.832590
O O5 0.750000 0.250000 0.500000
O O6 0.878954 0.165408 0.442838
O O7 0.906393 0.330370 0.499395
O O8 0.802721 0.336958 0.416956
O O9 0.096135 0.077383 0.750000
O O10 0.174052 0.941415 0.689695
O O11 0.000000 0.998211 0.676352
O O12 0.370115 0.500000 0.500000
O O13 0.500000 0.515150 0.431920
O O14 0.331243 0.480963 0.406227
O O15 0.685997 0.020223 0.250000
O O16 0.680302 0.978028 0.152144
O O17 0.500000 0.076440 0.432437
O O18 0.675071 0.033377 0.442112
#
# Coordination Sequence:
#
# PCOD8260202 Si02
#       7
#    16  16  16  16  16  16  16
#     4   9  19  36  60  87 113 147 192 242 291 342
#     4  12  22  37  58  83 120 161 189 233 291 348
#     4   9  18  33  55  82 109 140 186 239 288 340
#     4  11  23  39  59  88 121 158 197 237 289 350
#     4  10  22  37  59  87 115 150 194 246 300 347
#     4  10  21  37  59  86 115 151 195 236 284 347
#     4  11  23  39  59  84 119 152 195 246 291 347
#
# _framework density 22.235423999999998
#
# number of rings (size 3 to 8) (size 9 to 14) (size 15 to 20)
#    0.000    1.714    2.857    1.286    2.000    3.143 
#    0.000    0.000    0.000    0.857    0.000    2.000 
#    0.000    0.000    0.000    0.000    0.000    0.000 
#
# Total GULP energy -694227.582435 kJ/mol
# GULP energy per Si atom -12396.921115 kJ/mol
# Density = 2.218482 g / cm^3
# Si number density = 22.235424 Si / 1000 Ang^3
#
#
#
# Elastic Constant Matrix: (Units=GPa)
#
#
# Indices 1 2 3 4 5 6 
#
# 1 101.7660 48.4439 12.2592 0.0000 0.0000 0.0000
# 2 48.4439 99.1158 37.4007 0.0000 0.0000 0.0000
# 3 12.2592 37.4007 115.2640 0.0000 0.0000 0.0000
# 4 0.0000 0.0000 0.0000 28.8569 0.0000 0.0000
# 5 0.0000 0.0000 0.0000 0.0000 21.7235 0.0000
# 6 0.0000 0.0000 0.0000 0.0000 0.0000 33.6189
#
#
#
# Elastic Compliance Matrix: (Units=1/GPa)
#
#
# Indices 1 2 3 4 5 6 
#
# 1 0.012865 -0.006577 0.000766 0.000000 0.000000 0.000000
# 2 -0.006577 0.014859 -0.004122 0.000000 0.000000 0.000000
# 3 0.000766 -0.004122 0.009932 0.000000 0.000000 0.000000
# 4 0.000000 0.000000 0.000000 0.034654 0.000000 0.000000
# 5 0.000000 0.000000 0.000000 0.000000 0.046033 0.000000
# 6 0.000000 0.000000 0.000000 0.000000 0.000000 0.029745
#
#
# Mechanical properties :
#
#
# Convention : Reuss Voigt Hill
#
# Bulk Modulus (GPa) = 56.21210 56.92817 56.57013
# Shear Modulus (GPa) = 28.75482 31.37601 30.06541
#
# Velocity S-wave (km/s) = 3.60001 3.76051 3.68114
# Velocity P-wave (km/s) = 6.52805 6.67183 6.60033
#
# Compressibility (1/GPa) = 0.01778977
#
# Stress axis : x y z
#
# Youngs Moduli (GPa) = 77.73020 67.29872 100.68686
#
# Poissons Ratio (x) = 0.44261 -0.07710
# Poissons Ratio (y) = 0.51122 0.41503
# Poissons Ratio (z) = -0.05952 0.27740
#
# Static dielectric constant tensor:
#      x y z
#    x 4.180340 0.000000 0.000000 
#    y 0.000000 3.827130 0.000000 
#    z 0.000000 0.000000 4.306060 
# 
# 
# High freq. dielectric constant tensor:
#      x y z
#    x 1.879010 0.000000 0.000000 
#    y 0.000000 1.851770 0.000000 
#    z 0.000000 0.000000 1.883500 
# 
# From -- ./inp_files/73396.got.cif
#   From: 2010.03.12/outbox.cif.g09.slc.cpg/sg63_37_cif.got.tgz:73396.got - 2010.04.10 19:34:48.
