data_PCOD8260404
_publ_section_title
;
Structure prediction by ZEFSAII (Michael W. Deem and Ramdas Pophale) SiO2 
 PCOD8260404
Probable space group: C M C M
;
_chemical_formula_sum "Si O2"
_cell_formula_units_Z 96
_cell_length_a 14.837045
_cell_length_b 18.686146
_cell_length_c 17.088743
_cell_angle_alpha 90.000000
_cell_angle_beta 90.000000
_cell_angle_gamma 90.000000
_cell_volume 4737.805962
_symmetry_space_group_name_H-M "C M C M"
_symmetry_group_IT_number 63
_symmetry_cell_setting 'orthorhombic'
loop_
_space_group_symop_operation_xyz
x,y,z
-x,-y,1/2+z
x,-y,-z
-x,y,1/2-z
-x,-y,-z
x,y,1/2-z
-x,y,z
x,-y,1/2+z
1/2+x,1/2+y,z
1/2-x,1/2-y,1/2+z
1/2+x,1/2-y,-z
1/2-x,1/2+y,1/2-z
1/2-x,1/2-y,-z
1/2+x,1/2+y,1/2-z
1/2-x,1/2+y,z
1/2+x,1/2-y,1/2+z
loop_
_atom_site_type_symbol
_atom_site_label
_atom_site_fract_x
_atom_site_fract_y
_atom_site_fract_z
Si Si1 0.103879 0.243121 0.592926
Si Si2 0.756284 0.501706 0.591121
Si Si3 0.603577 0.258668 0.912688
Si Si4 0.895675 0.392150 0.340214
Si Si5 0.897628 0.908699 0.159511
Si Si6 0.244740 0.650676 0.158891
O O1 0.124897 0.259238 0.502627
O O2 0.129610 0.161080 0.609968
O O3 0.163479 0.294263 0.646428
O O4 0.000000 0.257687 0.614444
O O5 0.735248 0.500000 0.500000
O O6 0.838875 0.554940 0.606275
O O7 0.666106 0.526207 0.635454
O O8 0.784907 0.424469 0.622411
O O9 0.500000 0.282017 0.902079
O O10 0.627712 0.189223 0.861846
O O11 0.664077 0.323809 0.883240
O O12 0.870020 0.404323 0.250000
O O13 0.000000 0.408324 0.356740
O O14 0.884048 0.889651 0.250000
O O15 0.000000 0.932150 0.141783
O O16 0.264293 0.641825 0.250000
#
# Coordination Sequence:
#
# PCOD8260404 Si02
#       6
#    16  16  16  16  16  16
#     4  10  21  39  63  89 117 151 193 239 286 339
#     4  12  25  40  59  84 118 156 194 238 289 346
#     4  10  21  39  63  89 117 151 193 239 286 339
#     4  10  21  39  62  85 113 154 199 237 280 342
#     4  10  21  39  62  85 113 154 199 237 280 342
#     4  12  24  36  56  88 122 152 188 240 296 342
#
# _framework density 20.262543000000001
#
# number of rings (size 3 to 8) (size 9 to 14) (size 15 to 20)
#    0.000    1.333    0.000    6.000    0.000    4.000 
#    0.000    0.000    0.000    0.000    0.000    0.000 
#    0.000    0.000    0.000    0.000    0.000    0.000 
#
# Total GULP energy -595596.348705 kJ/mol
# GULP energy per Si atom -12408.257265 kJ/mol
# Density = 2.021642 g / cm^3
# Si number density = 20.262543 Si / 1000 Ang^3
#
#
#
# Elastic Constant Matrix: (Units=GPa)
#
#
# Indices 1 2 3 4 5 6 
#
# 1 81.1889 30.9261 31.8348 0.0000 0.0000 0.0000
# 2 30.9261 64.1766 18.3321 0.0000 0.0000 0.0000
# 3 31.8348 18.3321 78.1803 0.0000 0.0000 0.0000
# 4 0.0000 0.0000 0.0000 37.5243 0.0000 0.0000
# 5 0.0000 0.0000 0.0000 0.0000 27.0184 0.0000
# 6 0.0000 0.0000 0.0000 0.0000 0.0000 5.1941
#
#
#
# Elastic Compliance Matrix: (Units=1/GPa)
#
#
# Indices 1 2 3 4 5 6 
#
# 1 0.016940 -0.006637 -0.005341 0.000000 0.000000 0.000000
# 2 -0.006637 0.019301 -0.001823 0.000000 0.000000 0.000000
# 3 -0.005341 -0.001823 0.015393 0.000000 0.000000 0.000000
# 4 0.000000 0.000000 0.000000 0.026649 0.000000 0.000000
# 5 0.000000 0.000000 0.000000 0.000000 0.037012 0.000000
# 6 0.000000 0.000000 0.000000 0.000000 0.000000 0.192528
#
#
# Mechanical properties :
#
#
# Convention : Reuss Voigt Hill
#
# Bulk Modulus (GPa) = 41.61363 42.85908 42.23636
# Shear Modulus (GPa) = 14.55871 23.44421 19.00146
#
# Velocity S-wave (km/s) = 2.68340 3.40519 3.06561
# Velocity P-wave (km/s) = 5.49387 6.05461 5.78104
#
# Compressibility (1/GPa) = 0.02403059
#
# Stress axis : x y z
#
# Youngs Moduli (GPa) = 59.03332 51.81019 64.96263
#
# Poissons Ratio (x) = 0.34388 0.34699
# Poissons Ratio (y) = 0.39182 0.11844
# Poissons Ratio (z) = 0.31532 0.09446
#
# Static dielectric constant tensor:
#      x y z
#    x 3.742660 0.000000 0.000000 
#    y 0.000000 3.596700 0.000000 
#    z 0.000000 0.000000 3.768660 
# 
# 
# High freq. dielectric constant tensor:
#      x y z
#    x 1.803120 0.000000 0.000000 
#    y 0.000000 1.787540 0.000000 
#    z 0.000000 0.000000 1.804820 
# 
# From -- ./inp_files/31950.got.cif
#   From: 2010.03.12/outbox.cif.g09.slc.cpg/sg63_16_cif.got.tgz:31950.got - 2010.04.10 19:34:48.
