data_PCOD8260520
_publ_section_title
;
Structure prediction by ZEFSAII (Michael W. Deem and Ramdas Pophale) SiO2 
 PCOD8260520
Probable space group: C M C M
;
_chemical_formula_sum "Si O2"
_cell_formula_units_Z 64
_cell_length_a 14.222775
_cell_length_b 11.131779
_cell_length_c 18.900744
_cell_angle_alpha 90.000000
_cell_angle_beta 90.000000
_cell_angle_gamma 90.000000
_cell_volume 2992.456288
_symmetry_space_group_name_H-M "C M C M"
_symmetry_group_IT_number 63
_symmetry_cell_setting 'orthorhombic'
loop_
_space_group_symop_operation_xyz
x,y,z
-x,-y,1/2+z
x,-y,-z
-x,y,1/2-z
-x,-y,-z
x,y,1/2-z
-x,y,z
x,-y,1/2+z
1/2+x,1/2+y,z
1/2-x,1/2-y,1/2+z
1/2+x,1/2-y,-z
1/2-x,1/2+y,1/2-z
1/2-x,1/2-y,-z
1/2+x,1/2+y,1/2-z
1/2-x,1/2+y,z
1/2+x,1/2-y,1/2+z
loop_
_atom_site_type_symbol
_atom_site_label
_atom_site_fract_x
_atom_site_fract_y
_atom_site_fract_z
Si Si1 0.104435 0.584770 0.670947
Si Si2 0.500000 0.367945 0.166062
Si Si3 0.500000 0.585863 0.065604
Si Si4 0.809995 0.765780 0.570988
Si Si5 0.652777 0.820362 0.830442
O O1 0.144365 0.614568 0.750000
O O2 0.170411 0.638177 0.609421
O O3 0.093966 0.442190 0.661677
O O4 0.000000 0.640615 0.663564
O O5 0.500000 0.378902 0.250000
O O6 0.500000 0.502534 0.135409
O O7 0.591373 0.292155 0.140829
O O8 0.592388 0.666875 0.059402
O O9 0.500000 0.500000 0.000000
O O10 0.750000 0.750000 0.500000
O O11 0.746774 0.841328 0.624819
O O12 0.682049 0.796460 0.750000
#
# Coordination Sequence:
#
# PCOD8260520 Si02
#       5
#    16   8   8  16  16
#     4  10  21  44  72  97 128 169 225 283 329 387
#     4  10  22  43  70 101 138 173 214 271 338 404
#     4  12  28  47  62  92 136 179 219 272 341 402
#     4  12  27  44  67  95 134 178 226 280 333 395
#     4  10  22  42  69 100 132 174 220 272 335 399
#
# _framework density 21.387112999999999
#
# number of rings (size 3 to 8) (size 9 to 14) (size 15 to 20)
#    0.000    1.250    2.500    2.250    7.000    2.000 
#    0.000    1.250    0.000    0.000    0.000    0.000 
#    0.000    0.000    0.000    0.000    0.000    0.000 
#
# Total GULP energy -396699.812640 kJ/mol
# GULP energy per Si atom -12396.869145 kJ/mol
# Density = 2.133843 g / cm^3
# Si number density = 21.387113 Si / 1000 Ang^3
#
#
#
# Elastic Constant Matrix: (Units=GPa)
#
#
# Indices 1 2 3 4 5 6 
#
# 1 152.8792 49.2570 73.1554 0.0000 0.0000 0.0000
# 2 49.2570 98.2798 54.6975 0.0000 0.0000 0.0000
# 3 73.1554 54.6975 117.5265 0.0000 0.0000 0.0000
# 4 0.0000 0.0000 0.0000 33.1039 0.0000 0.0000
# 5 0.0000 0.0000 0.0000 0.0000 40.8665 0.0000
# 6 0.0000 0.0000 0.0000 0.0000 0.0000 33.1699
#
#
#
# Elastic Compliance Matrix: (Units=1/GPa)
#
#
# Indices 1 2 3 4 5 6 
#
# 1 0.009600 -0.002005 -0.005042 0.000000 0.000000 0.000000
# 2 -0.002005 0.014151 -0.005338 0.000000 0.000000 0.000000
# 3 -0.005042 -0.005338 0.014132 0.000000 0.000000 0.000000
# 4 0.000000 0.000000 0.000000 0.030208 0.000000 0.000000
# 5 0.000000 0.000000 0.000000 0.000000 0.024470 0.000000
# 6 0.000000 0.000000 0.000000 0.000000 0.000000 0.030148
#
#
# Mechanical properties :
#
#
# Convention : Reuss Voigt Hill
#
# Bulk Modulus (GPa) = 76.26697 80.32282 78.29489
# Shear Modulus (GPa) = 32.92742 34.19977 33.56359
#
# Velocity S-wave (km/s) = 3.92802 4.00319 3.96578
# Velocity P-wave (km/s) = 7.50401 7.68151 7.59328
#
# Compressibility (1/GPa) = 0.01311184
#
# Stress axis : x y z
#
# Youngs Moduli (GPa) = 104.16626 70.66806 70.76321
#
# Poissons Ratio (x) = 0.14170 0.35682
# Poissons Ratio (y) = 0.20886 0.37771
# Poissons Ratio (z) = 0.52525 0.37721
#
# Static dielectric constant tensor:
#      x y z
#    x 4.026330 0.000000 0.000000 
#    y 0.000000 4.078000 0.000000 
#    z 0.000000 0.000000 3.509870 
# 
# 
# High freq. dielectric constant tensor:
#      x y z
#    x 1.849820 0.000000 0.000000 
#    y 0.000000 1.833090 0.000000 
#    z 0.000000 0.000000 1.840750 
# 
# From -- ./inp_files/43474.got.cif
#   From: 2010.03.12/outbox.cif.g09.slc.cpg/sg63_22_cif.got.tgz:43474.got - 2010.04.10 19:34:48.
