data_PCOD8260989
_publ_section_title
;
Structure prediction by ZEFSAII (Michael W. Deem and Ramdas Pophale) SiO2 
 PCOD8260989
Probable space group: C M C M
;
_chemical_formula_sum "Si O2"
_cell_formula_units_Z 80
_cell_length_a 18.813302
_cell_length_b 13.355753
_cell_length_c 17.960415
_cell_angle_alpha 90.000000
_cell_angle_beta 90.000000
_cell_angle_gamma 90.000000
_cell_volume 4512.838306
_symmetry_space_group_name_H-M "C M C M"
_symmetry_group_IT_number 63
_symmetry_cell_setting 'orthorhombic'
loop_
_space_group_symop_operation_xyz
x,y,z
-x,-y,1/2+z
x,-y,-z
-x,y,1/2-z
-x,-y,-z
x,y,1/2-z
-x,y,z
x,-y,1/2+z
1/2+x,1/2+y,z
1/2-x,1/2-y,1/2+z
1/2+x,1/2-y,-z
1/2-x,1/2+y,1/2-z
1/2-x,1/2-y,-z
1/2+x,1/2+y,1/2-z
1/2-x,1/2+y,z
1/2+x,1/2-y,1/2+z
loop_
_atom_site_type_symbol
_atom_site_label
_atom_site_fract_x
_atom_site_fract_y
_atom_site_fract_z
Si Si1 0.718278 0.494094 0.412215
Si Si2 0.143668 0.171303 0.337022
Si Si3 0.216349 0.791326 0.164813
Si Si4 0.000000 0.273794 0.338492
Si Si5 0.147707 0.585438 0.337013
Si Si6 0.500000 0.998727 0.338441
O O1 0.720633 0.500000 0.500000
O O2 0.659031 0.569780 0.381371
O O3 0.696286 0.382339 0.388739
O O4 0.795760 0.517796 0.379924
O O5 0.141043 0.144353 0.250000
O O6 0.204288 0.253189 0.352704
O O7 0.069603 0.215624 0.366853
O O8 0.210587 0.827195 0.250000
O O9 0.160531 0.702661 0.147939
O O10 0.000000 0.279527 0.250000
O O11 0.000000 0.386248 0.371155
O O12 0.157212 0.560451 0.250000
O O13 0.069607 0.557421 0.366882
O O14 0.500000 0.995908 0.250000
#
# Coordination Sequence:
#
# PCOD8260989 Si02
#       6
#    16  16  16   8  16   8
#     4  11  21  32  49  72 101 136 169 203 242 286
#     4   9  18  32  51  75  98 124 165 208 245 292
#     4   9  17  32  53  72  95 128 162 201 246 289
#     4   9  16  28  50  75  97 122 155 205 256 291
#     4   9  18  32  52  77 101 126 162 205 246 296
#     4   9  16  30  54  81 102 120 153 203 256 299
#
# _framework density 17.727202999999999
#
# number of rings (size 3 to 8) (size 9 to 14) (size 15 to 20)
#    0.000    2.600    0.000    4.200    0.000    6.400 
#    0.000    2.000    0.000    6.000    0.000    0.000 
#    0.000    0.000    0.000    0.000    0.000    0.000 
#
# Total GULP energy -496057.095831 kJ/mol
# GULP energy per Si atom -12401.427396 kJ/mol
# Density = 1.768686 g / cm^3
# Si number density = 17.727203 Si / 1000 Ang^3
#
#
#
# Elastic Constant Matrix: (Units=GPa)
#
#
# Indices 1 2 3 4 5 6 
#
# 1 152.1780 80.2127 33.5908 0.0000 0.0000 0.0000
# 2 80.2127 141.7054 55.3010 0.0000 0.0000 0.0000
# 3 33.5908 55.3010 69.2723 0.0000 0.0000 0.0000
# 4 0.0000 0.0000 0.0000 6.2793 0.0000 0.0000
# 5 0.0000 0.0000 0.0000 0.0000 8.5787 0.0000
# 6 0.0000 0.0000 0.0000 0.0000 0.0000 21.7305
#
#
#
# Elastic Compliance Matrix: (Units=1/GPa)
#
#
# Indices 1 2 3 4 5 6 
#
# 1 0.009375 -0.005131 -0.000450 0.000000 0.000000 0.000000
# 2 -0.005131 0.013059 -0.007937 0.000000 0.000000 0.000000
# 3 -0.000450 -0.007937 0.020990 0.000000 0.000000 0.000000
# 4 0.000000 0.000000 0.000000 0.159254 0.000000 0.000000
# 5 0.000000 0.000000 0.000000 0.000000 0.116568 0.000000
# 6 0.000000 0.000000 0.000000 0.000000 0.000000 0.046018
#
#
# Mechanical properties :
#
#
# Convention : Reuss Voigt Hill
#
# Bulk Modulus (GPa) = 61.01933 77.92942 69.47437
# Shear Modulus (GPa) = 12.57028 20.25443 16.41236
#
# Velocity S-wave (km/s) = 2.66577 3.38385 3.04604
# Velocity P-wave (km/s) = 6.63107 7.70214 7.18659
#
# Compressibility (1/GPa) = 0.01638825
#
# Stress axis : x y z
#
# Youngs Moduli (GPa) = 106.66362 76.57602 47.64187
#
# Poissons Ratio (x) = 0.39294 0.02142
# Poissons Ratio (y) = 0.54733 0.37813
# Poissons Ratio (z) = 0.04796 0.60777
#
# Static dielectric constant tensor:
#      x y z
#    x 3.406840 0.000000 0.000000 
#    y 0.000000 3.323560 0.000000 
#    z 0.000000 0.000000 2.952790 
# 
# 
# High freq. dielectric constant tensor:
#      x y z
#    x 1.679340 0.000000 0.000000 
#    y 0.000000 1.693930 0.000000 
#    z 0.000000 0.000000 1.652020 
# 
# From -- ./inp_files/46826.got.cif
#   From: 2010.03.12/outbox.cif.g09.slc.cpg/sg63_24_cif.got.tgz:46826.got - 2010.04.10 19:34:48.
