data_PCOD8260775
_publ_section_title
;
Structure prediction by ZEFSAII (Michael W. Deem and Ramdas Pophale) SiO2 
 PCOD8260775
Probable space group: C M C M
;
_chemical_formula_sum "Si O2"
_cell_formula_units_Z 64
_cell_length_a 13.043640
_cell_length_b 28.879811
_cell_length_c 8.710232
_cell_angle_alpha 90.000000
_cell_angle_beta 90.000000
_cell_angle_gamma 90.000000
_cell_volume 3281.125737
_symmetry_space_group_name_H-M "C M C M"
_symmetry_group_IT_number 63
_symmetry_cell_setting 'orthorhombic'
loop_
_space_group_symop_operation_xyz
x,y,z
-x,-y,1/2+z
x,-y,-z
-x,y,1/2-z
-x,-y,-z
x,y,1/2-z
-x,y,z
x,-y,1/2+z
1/2+x,1/2+y,z
1/2-x,1/2-y,1/2+z
1/2+x,1/2-y,-z
1/2-x,1/2+y,1/2-z
1/2-x,1/2-y,-z
1/2+x,1/2+y,1/2-z
1/2-x,1/2+y,z
1/2+x,1/2-y,1/2+z
loop_
_atom_site_type_symbol
_atom_site_label
_atom_site_fract_x
_atom_site_fract_y
_atom_site_fract_z
Si Si1 0.115816 0.449651 0.568777
Si Si2 0.817195 0.712283 0.576624
Si Si3 0.289946 0.614676 0.924768
Si Si4 0.000000 0.751285 0.073617
Si Si5 0.500000 0.354141 0.567676
O O1 0.132251 0.500000 0.500000
O O2 0.127302 0.452281 0.750000
O O3 0.207614 0.418389 0.505079
O O4 0.000000 0.431615 0.524754
O O5 0.847305 0.725735 0.750000
O O6 0.750000 0.750000 0.500000
O O7 0.759377 0.664594 0.571114
O O8 0.913475 0.714500 0.466989
O O9 0.307998 0.598052 0.750000
O O10 0.399964 0.617784 0.008720
O O11 0.000000 0.765909 0.250000
O O12 0.000000 0.800299 0.984376
O O13 0.500000 0.355188 0.750000
#
# Coordination Sequence:
#
# PCOD8260775 Si02
#       5
#    16  16  16   8   8
#     4  10  22  42  68  97 127 160 200 249 307 367
#     4  11  23  38  58  85 120 162 208 254 304 362
#     4  11  24  41  63  91 125 163 207 255 309 367
#     4  12  24  38  56  81 120 163 208 258 308 361
#     4  12  24  40  63  87 122 165 211 256 307 367
#
# _framework density 19.505500999999999
#
# number of rings (size 3 to 8) (size 9 to 14) (size 15 to 20)
#    0.000    1.000    2.500    4.500    1.750    4.500 
#    0.000    0.625    0.000    0.000    0.000    0.000 
#    0.000    0.000    0.000    0.000    0.000    0.000 
#
# Total GULP energy -396453.705959 kJ/mol
# GULP energy per Si atom -12389.178311 kJ/mol
# Density = 1.946111 g / cm^3
# Si number density = 19.505501 Si / 1000 Ang^3
#
#
#
# Elastic Constant Matrix: (Units=GPa)
#
#
# Indices 1 2 3 4 5 6 
#
# 1 166.7725 43.0124 77.7566 0.0000 0.0000 0.0000
# 2 43.0124 62.5369 53.0551 0.0000 0.0000 0.0000
# 3 77.7566 53.0551 162.2640 0.0000 0.0000 0.0000
# 4 0.0000 0.0000 0.0000 34.3210 0.0000 0.0000
# 5 0.0000 0.0000 0.0000 0.0000 39.5515 0.0000
# 6 0.0000 0.0000 0.0000 0.0000 0.0000 40.8985
#
#
#
# Elastic Compliance Matrix: (Units=1/GPa)
#
#
# Indices 1 2 3 4 5 6 
#
# 1 0.008152 -0.003173 -0.002869 0.000000 0.000000 0.000000
# 2 -0.003173 0.023364 -0.006119 0.000000 0.000000 0.000000
# 3 -0.002869 -0.006119 0.009538 0.000000 0.000000 0.000000
# 4 0.000000 0.000000 0.000000 0.029137 0.000000 0.000000
# 5 0.000000 0.000000 0.000000 0.000000 0.025283 0.000000
# 6 0.000000 0.000000 0.000000 0.000000 0.000000 0.024451
#
#
# Mechanical properties :
#
#
# Convention : Reuss Voigt Hill
#
# Bulk Modulus (GPa) = 59.76277 82.13575 70.94926
# Shear Modulus (GPa) = 33.37236 37.47084 35.42160
#
# Velocity S-wave (km/s) = 4.14081 4.38772 4.26605
# Velocity P-wave (km/s) = 7.31896 8.23832 7.79221
#
# Compressibility (1/GPa) = 0.01673283
#
# Stress axis : x y z
#
# Youngs Moduli (GPa) = 122.66597 42.80099 104.84055
#
# Poissons Ratio (x) = 0.13581 0.30080
# Poissons Ratio (y) = 0.38921 0.64150
# Poissons Ratio (z) = 0.35194 0.26189
#
# Static dielectric constant tensor:
#      x y z
#    x 3.920210 0.000000 0.000000 
#    y 0.000000 3.300020 0.000000 
#    z 0.000000 0.000000 4.734910 
# 
# 
# High freq. dielectric constant tensor:
#      x y z
#    x 1.784320 0.000000 0.000000 
#    y 0.000000 1.742010 0.000000 
#    z 0.000000 0.000000 1.779990 
# 
# From -- ./inp_files/3150.got.cif
#   From: 2010.03.12/outbox.cif.g09.slc.cpg/sg63_2_cif.got.tgz:3150.got - 2010.04.10 19:34:48.
