data_PCOD8260411
_publ_section_title
;
Structure prediction by ZEFSAII (Michael W. Deem and Ramdas Pophale) SiO2 
 PCOD8260411
Probable space group: C M C M
;
_chemical_formula_sum "Si O2"
_cell_formula_units_Z 64
_cell_length_a 11.313035
_cell_length_b 19.080458
_cell_length_c 14.080132
_cell_angle_alpha 90.000000
_cell_angle_beta 90.000000
_cell_angle_gamma 90.000000
_cell_volume 3039.307573
_symmetry_space_group_name_H-M "C M C M"
_symmetry_group_IT_number 63
_symmetry_cell_setting 'orthorhombic'
loop_
_space_group_symop_operation_xyz
x,y,z
-x,-y,1/2+z
x,-y,-z
-x,y,1/2-z
-x,-y,-z
x,y,1/2-z
-x,y,z
x,-y,1/2+z
1/2+x,1/2+y,z
1/2-x,1/2-y,1/2+z
1/2+x,1/2-y,-z
1/2-x,1/2+y,1/2-z
1/2-x,1/2-y,-z
1/2+x,1/2+y,1/2-z
1/2-x,1/2+y,z
1/2+x,1/2-y,1/2+z
loop_
_atom_site_type_symbol
_atom_site_label
_atom_site_fract_x
_atom_site_fract_y
_atom_site_fract_z
Si Si1 0.500000 0.872254 0.403529
Si Si2 0.000000 0.508302 0.750000
Si Si3 0.363780 0.566508 0.441374
Si Si4 0.754029 0.321067 0.055207
Si Si5 0.500000 0.243888 0.750000
Si Si6 0.255320 0.247541 0.250000
Si Si7 0.279420 0.906772 0.750000
O O1 0.622490 0.864353 0.462278
O O2 0.500000 0.803103 0.341842
O O3 0.500000 0.943865 0.344161
O O4 0.112201 0.459166 0.750000
O O5 0.315879 0.500000 0.500000
O O6 0.500000 0.557468 0.413804
O O7 0.349984 0.632098 0.512256
O O8 0.293325 0.577229 0.344511
O O9 0.724695 0.301181 0.163709
O O10 0.750000 0.250000 0.000000
O O11 0.378216 0.287306 0.750000
O O12 0.328875 0.174748 0.250000
#
# Coordination Sequence:
#
# PCOD8260411 Si02
#       7
#     8   4  16  16   4   8   8
#     4   9  20  39  65  94 131 177 224 270 335 411
#     4  11  24  44  66 100 138 183 224 270 351 426
#     4  11  26  45  68  99 134 180 230 278 344 414
#     4  11  22  40  69  99 135 178 229 288 342 410
#     4   7  16  32  64  90 116 163 228 262 323 394
#     4  10  21  39  63 103 130 177 222 283 346 402
#     4  12  24  43  70  96 137 172 226 284 333 410
#
# _framework density 21.057427000000001
#
# number of rings (size 3 to 8) (size 9 to 14) (size 15 to 20)
#    0.000    1.500    2.500    2.625    3.500    2.000 
#    2.250    3.750    0.000    0.000    0.000    0.000 
#    0.000    0.000    0.000    0.000    0.000    0.000 
#
# Total GULP energy -396570.254258 kJ/mol
# GULP energy per Si atom -12392.820446 kJ/mol
# Density = 2.100950 g / cm^3
# Si number density = 21.057427 Si / 1000 Ang^3
#
#
#
# Elastic Constant Matrix: (Units=GPa)
#
#
# Indices 1 2 3 4 5 6 
#
# 1 71.5549 41.7482 38.0018 0.0000 0.0000 0.0000
# 2 41.7482 144.3269 57.4280 0.0000 0.0000 0.0000
# 3 38.0018 57.4280 149.4493 0.0000 0.0000 0.0000
# 4 0.0000 0.0000 0.0000 40.4830 0.0000 0.0000
# 5 0.0000 0.0000 0.0000 0.0000 23.9457 0.0000
# 6 0.0000 0.0000 0.0000 0.0000 0.0000 37.8538
#
#
#
# Elastic Compliance Matrix: (Units=1/GPa)
#
#
# Indices 1 2 3 4 5 6 
#
# 1 0.017900 -0.003974 -0.003024 0.000000 0.000000 0.000000
# 2 -0.003974 0.009062 -0.002472 0.000000 0.000000 0.000000
# 3 -0.003024 -0.002472 0.008410 0.000000 0.000000 0.000000
# 4 0.000000 0.000000 0.000000 0.024702 0.000000 0.000000
# 5 0.000000 0.000000 0.000000 0.000000 0.041761 0.000000
# 6 0.000000 0.000000 0.000000 0.000000 0.000000 0.026417
#
#
# Mechanical properties :
#
#
# Convention : Reuss Voigt Hill
#
# Bulk Modulus (GPa) = 60.85924 71.07636 65.96780
# Shear Modulus (GPa) = 32.75026 35.66668 34.20847
#
# Velocity S-wave (km/s) = 3.94799 4.12002 4.03492
# Velocity P-wave (km/s) = 7.05311 7.51396 7.28718
#
# Compressibility (1/GPa) = 0.01643136
#
# Stress axis : x y z
#
# Youngs Moduli (GPa) = 55.86467 110.35348 118.90607
#
# Poissons Ratio (x) = 0.43860 0.35963
# Poissons Ratio (y) = 0.22203 0.29388
# Poissons Ratio (z) = 0.16896 0.27274
#
# Static dielectric constant tensor:
#      x y z
#    x 4.146840 0.000000 0.000000 
#    y 0.000000 3.884790 0.000000 
#    z 0.000000 0.000000 7.325790 
# 
# 
# High freq. dielectric constant tensor:
#      x y z
#    x 1.815870 0.000000 0.000000 
#    y 0.000000 1.837100 0.000000 
#    z 0.000000 0.000000 1.831270 
# 
# From -- ./inp_files/29258.got.cif
#   From: 2010.03.12/outbox.cif.g09.slc.cpg/sg63_15_cif.got.tgz:29258.got - 2010.04.10 19:34:48.
