data_PCOD8260030
_publ_section_title
;
Structure prediction by ZEFSAII (Michael W. Deem and Ramdas Pophale) SiO2 
 PCOD8260030
Probable space group: C M C M
;
_chemical_formula_sum "Si O2"
_cell_formula_units_Z 80
_cell_length_a 8.997530
_cell_length_b 24.940382
_cell_length_c 18.323991
_cell_angle_alpha 90.000000
_cell_angle_beta 90.000000
_cell_angle_gamma 90.000000
_cell_volume 4111.937210
_symmetry_space_group_name_H-M "C M C M"
_symmetry_group_IT_number 63
_symmetry_cell_setting 'orthorhombic'
loop_
_space_group_symop_operation_xyz
x,y,z
-x,-y,1/2+z
x,-y,-z
-x,y,1/2-z
-x,-y,-z
x,y,1/2-z
-x,y,z
x,-y,1/2+z
1/2+x,1/2+y,z
1/2-x,1/2-y,1/2+z
1/2+x,1/2-y,-z
1/2-x,1/2+y,1/2-z
1/2-x,1/2-y,-z
1/2+x,1/2+y,1/2-z
1/2-x,1/2+y,z
1/2+x,1/2-y,1/2+z
loop_
_atom_site_type_symbol
_atom_site_label
_atom_site_fract_x
_atom_site_fract_y
_atom_site_fract_z
Si Si1 0.673496 0.188362 0.577184
Si Si2 0.327699 0.995373 0.085063
Si Si3 0.326878 0.312110 0.572183
Si Si4 0.674245 0.399397 0.333744
Si Si5 0.328325 0.896714 0.665487
O O1 0.500000 0.175631 0.574931
O O2 0.708002 0.250583 0.591381
O O3 0.741154 0.169375 0.500292
O O4 0.747515 0.155714 0.642688
O O5 0.500000 0.982750 0.100701
O O6 0.277916 0.050404 0.122698
O O7 0.230123 0.947911 0.117059
O O8 0.293997 0.000000 0.000000
O O9 0.500000 0.321568 0.558727
O O10 0.270687 0.346942 0.639866
O O11 0.715645 0.411014 0.250000
O O12 0.500000 0.392423 0.345047
O O13 0.297020 0.906911 0.750000
O O14 0.500000 0.883205 0.650093
#
# Coordination Sequence:
#
# PCOD8260030 Si02
#       5
#    16  16  16  16  16
#     4  10  21  38  60  84 112 149 190 231 280 338
#     4  10  21  38  61  86 111 145 190 234 278 335
#     4  10  21  37  59  86 114 146 188 237 283 330
#     4  11  24  39  57  85 118 150 187 234 286 335
#     4  10  21  36  55  82 117 154 189 228 279 338
#
# _framework density 19.455549999999999
#
# number of rings (size 3 to 8) (size 9 to 14) (size 15 to 20)
#    0.000    1.800    0.000    3.600    0.000    8.800 
#    0.000    4.000    0.000    0.000    0.000    0.000 
#    0.000    0.000    0.000    0.000    0.000    0.000 
#
# Total GULP energy -496287.793709 kJ/mol
# GULP energy per Si atom -12407.194843 kJ/mol
# Density = 1.941127 g / cm^3
# Si number density = 19.455550 Si / 1000 Ang^3
#
#
#
# Elastic Constant Matrix: (Units=GPa)
#
#
# Indices 1 2 3 4 5 6 
#
# 1 94.1599 55.7322 54.4452 0.0000 0.0000 0.0000
# 2 55.7322 109.0658 64.7917 0.0000 0.0000 0.0000
# 3 54.4452 64.7917 116.4960 0.0000 0.0000 0.0000
# 4 0.0000 0.0000 0.0000 29.1948 0.0000 0.0000
# 5 0.0000 0.0000 0.0000 0.0000 33.2974 0.0000
# 6 0.0000 0.0000 0.0000 0.0000 0.0000 36.8016
#
#
#
# Elastic Compliance Matrix: (Units=1/GPa)
#
#
# Indices 1 2 3 4 5 6 
#
# 1 0.016710 -0.005823 -0.004571 0.000000 0.000000 0.000000
# 2 -0.005823 0.015722 -0.006023 0.000000 0.000000 0.000000
# 3 -0.004571 -0.006023 0.014070 0.000000 0.000000 0.000000
# 4 0.000000 0.000000 0.000000 0.034253 0.000000 0.000000
# 5 0.000000 0.000000 0.000000 0.000000 0.030032 0.000000
# 6 0.000000 0.000000 0.000000 0.000000 0.000000 0.027173
#
#
# Mechanical properties :
#
#
# Convention : Reuss Voigt Hill
#
# Bulk Modulus (GPa) = 73.16124 74.40665 73.78394
# Shear Modulus (GPa) = 28.51445 29.50893 29.01169
#
# Velocity S-wave (km/s) = 3.83250 3.89875 3.86577
# Velocity P-wave (km/s) = 7.56769 7.65470 7.61132
#
# Compressibility (1/GPa) = 0.01366844
#
# Stress axis : x y z
#
# Youngs Moduli (GPa) = 59.84467 63.60355 71.07431
#
# Poissons Ratio (x) = 0.37039 0.32486
# Poissons Ratio (y) = 0.34850 0.42806
# Poissons Ratio (z) = 0.27353 0.38307
#
# Static dielectric constant tensor:
#      x y z
#    x 3.553290 0.000000 0.000000 
#    y 0.000000 3.614730 0.000000 
#    z 0.000000 0.000000 3.511640 
# 
# 
# High freq. dielectric constant tensor:
#      x y z
#    x 1.761380 0.000000 0.000000 
#    y 0.000000 1.767070 0.000000 
#    z 0.000000 0.000000 1.762540 
# 
# From -- ./inp_files/40511.got.cif
#   From: 2010.03.12/outbox.cif.g09.slc.cpg/sg63_21_cif.got.tgz:40511.got - 2010.04.10 19:34:48.
