data_PCOD8260495
_publ_section_title
;
Structure prediction by ZEFSAII (Michael W. Deem and Ramdas Pophale) SiO2 
 PCOD8260495
Probable space group: C M C M
;
_chemical_formula_sum "Si O2"
_cell_formula_units_Z 64
_cell_length_a 25.909405
_cell_length_b 12.251199
_cell_length_c 10.004557
_cell_angle_alpha 90.000000
_cell_angle_beta 90.000000
_cell_angle_gamma 90.000000
_cell_volume 3175.659255
_symmetry_space_group_name_H-M "C M C M"
_symmetry_group_IT_number 63
_symmetry_cell_setting 'orthorhombic'
loop_
_space_group_symop_operation_xyz
x,y,z
-x,-y,1/2+z
x,-y,-z
-x,y,1/2-z
-x,-y,-z
x,y,1/2-z
-x,y,z
x,-y,1/2+z
1/2+x,1/2+y,z
1/2-x,1/2-y,1/2+z
1/2+x,1/2-y,-z
1/2-x,1/2+y,1/2-z
1/2-x,1/2-y,-z
1/2+x,1/2+y,1/2-z
1/2-x,1/2+y,z
1/2+x,1/2-y,1/2+z
loop_
_atom_site_type_symbol
_atom_site_label
_atom_site_fract_x
_atom_site_fract_y
_atom_site_fract_z
Si Si1 0.650600 0.676732 0.750000
Si Si2 0.394656 0.380915 0.975514
Si Si3 0.184423 0.940287 0.750000
Si Si4 0.057124 0.668011 0.901671
Si Si5 0.137500 0.500000 0.500000
Si Si6 0.303790 0.912517 0.750000
O O1 0.616162 0.674188 0.617719
O O2 0.687458 0.571386 0.750000
O O3 0.682230 0.786672 0.750000
O O4 0.343774 0.395962 0.883403
O O5 0.433916 0.298628 0.903793
O O6 0.420415 0.500000 0.000000
O O7 0.242617 0.902078 0.750000
O O8 0.059708 0.626411 0.750000
O O9 0.100961 0.605273 0.983898
O O10 0.000000 0.643461 0.960785
O O11 0.174960 0.521527 0.376422
#
# Coordination Sequence:
#
# PCOD8260495 Si02
#       6
#     8  16   8  16   8   8
#     4  10  22  40  60  88 129 164 203 258 315 360
#     4  10  21  41  64  91 130 160 208 260 308 376
#     4  10  24  40  62  96 124 172 207 256 313 370
#     4  11  23  42  67  93 125 168 207 265 324 367
#     4  12  25  44  60  96 130 162 217 262 304 384
#     4  12  26  40  65  90 129 172 215 252 316 374
#
# _framework density 20.153296000000001
#
# number of rings (size 3 to 8) (size 9 to 14) (size 15 to 20)
#    0.000    1.250    5.000    0.375    5.250    3.500 
#    0.000    1.875    0.000    0.000    0.000    0.000 
#    0.000    0.000    0.000    0.000    0.000    0.000 
#
# Total GULP energy -396749.694748 kJ/mol
# GULP energy per Si atom -12398.427961 kJ/mol
# Density = 2.010743 g / cm^3
# Si number density = 20.153296 Si / 1000 Ang^3
#
#
#
# Elastic Constant Matrix: (Units=GPa)
#
#
# Indices 1 2 3 4 5 6 
#
# 1 74.7835 18.2711 30.7060 0.0000 0.0000 0.0000
# 2 18.2711 93.6424 19.5802 0.0000 0.0000 0.0000
# 3 30.7060 19.5802 120.5623 0.0000 0.0000 0.0000
# 4 0.0000 0.0000 0.0000 25.9046 0.0000 0.0000
# 5 0.0000 0.0000 0.0000 0.0000 -1.1267 0.0000
# 6 0.0000 0.0000 0.0000 0.0000 0.0000 20.9574
#
#
#
# Elastic Compliance Matrix: (Units=1/GPa)
#
#
# Indices 1 2 3 4 5 6 
#
# 1 0.015382 -0.002259 -0.003551 0.000000 0.000000 0.000000
# 2 -0.002259 0.011386 -0.001274 0.000000 0.000000 0.000000
# 3 -0.003551 -0.001274 0.009406 0.000000 0.000000 0.000000
# 4 0.000000 0.000000 0.000000 0.038603 0.000000 0.000000
# 5 0.000000 0.000000 0.000000 0.000000 -0.887543 0.000000
# 6 0.000000 0.000000 0.000000 0.000000 0.000000 0.047716
#
#
# Mechanical properties :
#
#
# Convention : Reuss Voigt Hill
#
# Bulk Modulus (GPa) = 45.44084 47.34477 46.39280
# Shear Modulus (GPa) = -6.72451 23.84246 8.55897
#
# Velocity S-wave (km/s) = -1.82864 3.44329 2.06305
# Velocity P-wave (km/s) = 4.25887 6.27309 5.36142
#
# Compressibility (1/GPa) = 0.02200664
#
# Stress axis : x y z
#
# Youngs Moduli (GPa) = 65.01225 87.82708 106.31864
#
# Poissons Ratio (x) = 0.19838 0.37751
# Poissons Ratio (y) = 0.14685 0.13544
# Poissons Ratio (z) = 0.23084 0.11188
#
# Static dielectric constant tensor:
#      x y z
#    x 3.378730 0.000000 0.000000 
#    y 0.000000 3.794050 0.000000 
#    z 0.000000 0.000000 3.865550 
# 
# 
# High freq. dielectric constant tensor:
#      x y z
#    x 1.764220 0.000000 0.000000 
#    y 0.000000 1.802000 0.000000 
#    z 0.000000 0.000000 1.800690 
# 
# From -- ./inp_files/13794.got.cif
#   From: 2010.03.12/outbox.cif.g09.slc.cpg/sg63_7_cif.got.tgz:13794.got - 2010.04.10 19:34:48.
