data_PCOD8260552
_publ_section_title
;
Structure prediction by ZEFSAII (Michael W. Deem and Ramdas Pophale) SiO2 
 PCOD8260552
Probable space group: C M C M
;
_chemical_formula_sum "Si O2"
_cell_formula_units_Z 96
_cell_length_a 20.271360
_cell_length_b 9.479584
_cell_length_c 24.846951
_cell_angle_alpha 90.000000
_cell_angle_beta 90.000000
_cell_angle_gamma 90.000000
_cell_volume 4774.690981
_symmetry_space_group_name_H-M "C M C M"
_symmetry_group_IT_number 63
_symmetry_cell_setting 'orthorhombic'
loop_
_space_group_symop_operation_xyz
x,y,z
-x,-y,1/2+z
x,-y,-z
-x,y,1/2-z
-x,-y,-z
x,y,1/2-z
-x,y,z
x,-y,1/2+z
1/2+x,1/2+y,z
1/2-x,1/2-y,1/2+z
1/2+x,1/2-y,-z
1/2-x,1/2+y,1/2-z
1/2-x,1/2-y,-z
1/2+x,1/2+y,1/2-z
1/2-x,1/2+y,z
1/2+x,1/2-y,1/2+z
loop_
_atom_site_type_symbol
_atom_site_label
_atom_site_fract_x
_atom_site_fract_y
_atom_site_fract_z
Si Si1 0.689098 0.374062 0.689459
Si Si2 0.571477 0.356900 0.608768
Si Si3 0.302465 0.676473 0.850082
Si Si4 0.097748 0.645991 0.983037
Si Si5 0.075933 0.822623 0.412340
Si Si6 0.743101 0.882596 0.463913
O O1 0.671475 0.327389 0.750000
O O2 0.629973 0.322902 0.650722
O O3 0.698766 0.542765 0.689589
O O4 0.758360 0.303074 0.672372
O O5 0.500000 0.361087 0.638822
O O6 0.563539 0.236207 0.563663
O O7 0.583597 0.508483 0.580782
O O8 0.378260 0.726407 0.861386
O O9 0.276451 0.620979 0.906782
O O10 0.165573 0.589610 0.956995
O O11 0.059538 0.500000 0.000000
O O12 0.104380 0.748062 0.034543
O O13 0.000000 0.778263 0.401687
O O14 0.750000 0.750000 0.500000
O O15 0.778781 0.000000 0.500000
#
# Coordination Sequence:
#
# PCOD8260552 Si02
#       6
#    16  16  16  16  16  16
#     4  11  24  41  63  87 110 148 201 253 302 343
#     4  10  22  40  60  84 118 157 195 239 288 343
#     4  11  22  39  62  85 121 151 190 247 296 345
#     4  11  22  34  54  88 126 157 189 226 278 349
#     4  10  22  37  57  85 121 161 194 227 280 351
#     4  11  21  32  54  87 119 152 189 227 279 348
#
# _framework density 20.106013999999998
#
# number of rings (size 3 to 8) (size 9 to 14) (size 15 to 20)
#    0.000    1.333    3.333    2.500    4.667    3.000 
#    0.000    0.000    0.000    1.500    0.000    0.000 
#    0.000    0.000    0.000    0.000    0.000    0.000 
#
# Total GULP energy -594766.637786 kJ/mol
# GULP energy per Si atom -12390.971621 kJ/mol
# Density = 2.006025 g / cm^3
# Si number density = 20.106014 Si / 1000 Ang^3
#
#
#
# Elastic Constant Matrix: (Units=GPa)
#
#
# Indices 1 2 3 4 5 6 
#
# 1 111.3700 22.7526 31.3017 0.0000 0.0000 0.0000
# 2 22.7526 84.1121 40.3784 0.0000 0.0000 0.0000
# 3 31.3017 40.3784 100.8902 0.0000 0.0000 0.0000
# 4 0.0000 0.0000 0.0000 25.1478 0.0000 0.0000
# 5 0.0000 0.0000 0.0000 0.0000 6.3125 0.0000
# 6 0.0000 0.0000 0.0000 0.0000 0.0000 19.1187
#
#
#
# Elastic Compliance Matrix: (Units=1/GPa)
#
#
# Indices 1 2 3 4 5 6 
#
# 1 0.009988 -0.001503 -0.002497 0.000000 0.000000 0.000000
# 2 -0.001503 0.014942 -0.005514 0.000000 0.000000 0.000000
# 3 -0.002497 -0.005514 0.012893 0.000000 0.000000 0.000000
# 4 0.000000 0.000000 0.000000 0.039765 0.000000 0.000000
# 5 0.000000 0.000000 0.000000 0.000000 0.158417 0.000000
# 6 0.000000 0.000000 0.000000 0.000000 0.000000 0.052305
#
#
# Mechanical properties :
#
#
# Convention : Reuss Voigt Hill
#
# Bulk Modulus (GPa) = 53.20465 53.91531 53.55998
# Shear Modulus (GPa) = 15.94367 23.57843 19.76105
#
# Velocity S-wave (km/s) = 2.81905 3.42819 3.13843
# Velocity P-wave (km/s) = 6.09225 6.52256 6.31107
#
# Compressibility (1/GPa) = 0.01879535
#
# Stress axis : x y z
#
# Youngs Moduli (GPa) = 100.11986 66.92338 77.55909
#
# Poissons Ratio (x) = 0.10058 0.19369
# Poissons Ratio (y) = 0.15047 0.42766
# Poissons Ratio (z) = 0.25003 0.36902
#
# Static dielectric constant tensor:
#      x y z
#    x 2.029030 0.000000 0.000000 
#    y 0.000000 3.767150 0.000000 
#    z 0.000000 0.000000 3.352690 
# 
# 
# High freq. dielectric constant tensor:
#      x y z
#    x 1.801830 0.000000 0.000000 
#    y 0.000000 1.786660 0.000000 
#    z 0.000000 0.000000 1.752970 
# 
# From -- ./inp_files/64940.got.cif
#   From: 2010.03.12/outbox.cif.g09.slc.cpg/sg63_33_cif.got.tgz:64940.got - 2010.04.10 19:34:48.
