data_PCOD8260061
_publ_section_title
;
Structure prediction by ZEFSAII (Michael W. Deem and Ramdas Pophale) SiO2 
 PCOD8260061
Probable space group: C M C M
;
_chemical_formula_sum "Si O2"
_cell_formula_units_Z 96
_cell_length_a 28.366096
_cell_length_b 14.717985
_cell_length_c 12.448160
_cell_angle_alpha 90.000000
_cell_angle_beta 90.000000
_cell_angle_gamma 90.000000
_cell_volume 5197.004419
_symmetry_space_group_name_H-M "C M C M"
_symmetry_group_IT_number 63
_symmetry_cell_setting 'orthorhombic'
loop_
_space_group_symop_operation_xyz
x,y,z
-x,-y,1/2+z
x,-y,-z
-x,y,1/2-z
-x,-y,-z
x,y,1/2-z
-x,y,z
x,-y,1/2+z
1/2+x,1/2+y,z
1/2-x,1/2-y,1/2+z
1/2+x,1/2-y,-z
1/2-x,1/2+y,1/2-z
1/2-x,1/2-y,-z
1/2+x,1/2+y,1/2-z
1/2-x,1/2+y,z
1/2+x,1/2-y,1/2+z
loop_
_atom_site_type_symbol
_atom_site_label
_atom_site_fract_x
_atom_site_fract_y
_atom_site_fract_z
Si Si1 0.893060 0.241492 0.876916
Si Si2 0.055381 0.102709 0.022160
Si Si3 0.051594 0.152412 0.250000
Si Si4 0.611585 0.099429 0.961127
Si Si5 0.713814 0.737047 0.869567
Si Si6 0.220790 0.603945 0.528988
Si Si7 0.052355 0.363442 0.250000
O O1 0.903938 0.255887 0.750000
O O2 0.839583 0.210996 0.898962
O O3 0.924982 0.162125 0.924738
O O4 0.903804 0.333632 0.942538
O O5 0.078421 0.125249 0.139391
O O6 0.000000 0.121919 0.026514
O O7 0.068562 0.000000 0.000000
O O8 0.044454 0.257999 0.250000
O O9 0.000000 0.103929 0.250000
O O10 0.666806 0.109488 0.932345
O O11 0.581365 0.111782 0.855106
O O12 0.599826 0.000000 0.000000
O O13 0.716859 0.772712 0.750000
O O14 0.745244 0.645425 0.879787
O O15 0.731262 0.826600 0.931851
O O16 0.234670 0.500000 0.500000
O O17 0.000000 0.409779 0.250000
#
# Coordination Sequence:
#
# PCOD8260061 Si02
#       7
#    16  16   8  16  16  16   8
#     4  10  21  37  55  80 117 153 184 232 286 333
#     4  10  21  36  57  81 108 144 190 235 277 336
#     4   9  18  36  56  77 106 142 184 237 281 314
#     4  10  22  38  60  86 110 147 191 232 277 339
#     4   9  19  35  54  79 114 145 178 230 280 322
#     4   9  19  36  57  83 109 144 188 228 268 334
#     4  11  22  38  60  83 114 148 186 239 288 330
#
# _framework density 18.472180000000002
#
# number of rings (size 3 to 8) (size 9 to 14) (size 15 to 20)
#    0.000    2.333    1.667    0.000    3.500    2.000 
#    3.000    0.000    0.000    0.000    0.000    0.000 
#    0.000    0.000    0.000    0.000    0.000    0.000 
#
# Total GULP energy -594866.411283 kJ/mol
# GULP energy per Si atom -12393.050235 kJ/mol
# Density = 1.843014 g / cm^3
# Si number density = 18.472180 Si / 1000 Ang^3
#
#
#
# Elastic Constant Matrix: (Units=GPa)
#
#
# Indices 1 2 3 4 5 6 
#
# 1 61.0748 55.1671 49.9993 0.0000 0.0000 0.0000
# 2 55.1671 137.2962 58.2266 0.0000 0.0000 0.0000
# 3 49.9993 58.2266 135.3296 0.0000 0.0000 0.0000
# 4 0.0000 0.0000 0.0000 31.4885 0.0000 0.0000
# 5 0.0000 0.0000 0.0000 0.0000 28.1222 0.0000
# 6 0.0000 0.0000 0.0000 0.0000 0.0000 24.4134
#
#
#
# Elastic Compliance Matrix: (Units=1/GPa)
#
#
# Indices 1 2 3 4 5 6 
#
# 1 0.030759 -0.009223 -0.007396 0.000000 0.000000 0.000000
# 2 -0.009223 0.011674 -0.001616 0.000000 0.000000 0.000000
# 3 -0.007396 -0.001616 0.010817 0.000000 0.000000 0.000000
# 4 0.000000 0.000000 0.000000 0.031758 0.000000 0.000000
# 5 0.000000 0.000000 0.000000 0.000000 0.035559 0.000000
# 6 0.000000 0.000000 0.000000 0.000000 0.000000 0.040961
#
#
# Mechanical properties :
#
#
# Convention : Reuss Voigt Hill
#
# Bulk Modulus (GPa) = 59.58893 73.38738 66.48815
# Shear Modulus (GPa) = 24.55911 28.15866 26.35888
#
# Velocity S-wave (km/s) = 3.65021 3.90857 3.78160
# Velocity P-wave (km/s) = 7.07772 7.75784 7.42557
#
# Compressibility (1/GPa) = 0.01678164
#
# Stress axis : x y z
#
# Youngs Moduli (GPa) = 32.51116 85.65746 92.44629
#
# Poissons Ratio (x) = 0.78998 0.68374
# Poissons Ratio (y) = 0.29983 0.14936
# Poissons Ratio (z) = 0.24046 0.13839
#
# Static dielectric constant tensor:
#      x y z
#    x 3.468180 0.000000 0.000000 
#    y 0.000000 3.429210 0.000000 
#    z 0.000000 0.000000 3.532810 
# 
# 
# High freq. dielectric constant tensor:
#      x y z
#    x 1.703570 0.000000 0.000000 
#    y 0.000000 1.717600 0.000000 
#    z 0.000000 0.000000 1.726250 
# 
# From -- ./inp_files/25878.got.cif
#   From: 2010.03.12/outbox.cif.g09.slc.cpg/sg63_13_cif.got.tgz:25878.got - 2010.04.10 19:34:48.
