data_PCOD8260466
_publ_section_title
;
Structure prediction by ZEFSAII (Michael W. Deem and Ramdas Pophale) SiO2 
 PCOD8260466
Probable space group: C M C M
;
_chemical_formula_sum "Si O2"
_cell_formula_units_Z 64
_cell_length_a 24.288613
_cell_length_b 8.497664
_cell_length_c 15.074099
_cell_angle_alpha 90.000000
_cell_angle_beta 90.000000
_cell_angle_gamma 90.000000
_cell_volume 3111.240857
_symmetry_space_group_name_H-M "C M C M"
_symmetry_group_IT_number 63
_symmetry_cell_setting 'orthorhombic'
loop_
_space_group_symop_operation_xyz
x,y,z
-x,-y,1/2+z
x,-y,-z
-x,y,1/2-z
-x,-y,-z
x,y,1/2-z
-x,y,z
x,-y,1/2+z
1/2+x,1/2+y,z
1/2-x,1/2-y,1/2+z
1/2+x,1/2-y,-z
1/2-x,1/2+y,1/2-z
1/2-x,1/2-y,-z
1/2+x,1/2+y,1/2-z
1/2-x,1/2+y,z
1/2+x,1/2-y,1/2+z
loop_
_atom_site_type_symbol
_atom_site_label
_atom_site_fract_x
_atom_site_fract_y
_atom_site_fract_z
Si Si1 0.809770 0.936401 0.750000
Si Si2 0.312428 0.936036 0.250000
Si Si3 0.500000 0.561706 0.098495
Si Si4 0.113395 0.435344 0.595582
Si Si5 0.386124 0.437054 0.099336
Si Si6 0.500000 0.087005 0.852927
O O1 0.811553 0.750260 0.750000
O O2 0.747909 0.994363 0.750000
O O3 0.837787 0.000101 0.838985
O O4 0.343029 0.994498 0.162936
O O5 0.443936 0.496984 0.143031
O O6 0.500000 0.750041 0.093979
O O7 0.500000 0.500000 0.000000
O O8 0.130131 0.500000 0.500000
O O9 0.115768 0.249106 0.597572
O O10 0.052272 0.485567 0.621145
O O11 0.377552 0.500000 0.000000
O O12 0.500000 0.130453 0.750000
#
# Coordination Sequence:
#
# PCOD8260466 Si02
#       6
#     8   8   8  16  16   8
#     4  12  26  45  70  93 136 168 222 278 328 390
#     4  12  26  47  66 101 126 174 222 274 330 390
#     4  10  21  40  63  97 135 171 215 263 321 388
#     4  12  24  44  70  97 135 175 219 272 330 395
#     4  11  24  43  67 100 132 175 220 269 330 393
#     4  12  24  40  67 102 138 178 221 270 331 395
#
# _framework density 20.570571000000001
#
# number of rings (size 3 to 8) (size 9 to 14) (size 15 to 20)
#    0.000    0.500    1.250    9.375    1.750    1.000 
#    0.000    5.000    0.000    0.000    0.000    0.000 
#    0.000    0.000    0.000    0.000    0.000    0.000 
#
# Total GULP energy -396952.832189 kJ/mol
# GULP energy per Si atom -12404.776006 kJ/mol
# Density = 2.052375 g / cm^3
# Si number density = 20.570571 Si / 1000 Ang^3
#
#
#
# Elastic Constant Matrix: (Units=GPa)
#
#
# Indices 1 2 3 4 5 6 
#
# 1 199.4657 88.6486 87.2602 0.0000 0.0000 0.0000
# 2 88.6486 240.2563 67.7469 0.0000 0.0000 0.0000
# 3 87.2602 67.7469 150.8786 0.0000 0.0000 0.0000
# 4 0.0000 0.0000 0.0000 21.8200 0.0000 0.0000
# 5 0.0000 0.0000 0.0000 0.0000 77.1691 0.0000
# 6 0.0000 0.0000 0.0000 0.0000 0.0000 62.8830
#
#
#
# Elastic Compliance Matrix: (Units=1/GPa)
#
#
# Indices 1 2 3 4 5 6 
#
# 1 0.007281 -0.001717 -0.003440 0.000000 0.000000 0.000000
# 2 -0.001717 0.005170 -0.001329 0.000000 0.000000 0.000000
# 3 -0.003440 -0.001329 0.009214 0.000000 0.000000 0.000000
# 4 0.000000 0.000000 0.000000 0.045829 0.000000 0.000000
# 5 0.000000 0.000000 0.000000 0.000000 0.012959 0.000000
# 6 0.000000 0.000000 0.000000 0.000000 0.000000 0.015903
#
#
# Mechanical properties :
#
#
# Convention : Reuss Voigt Hill
#
# Bulk Modulus (GPa) = 115.01615 119.76801 117.39208
# Shear Modulus (GPa) = 44.55297 55.50408 50.02853
#
# Velocity S-wave (km/s) = 4.65893 5.20008 4.93693
# Velocity P-wave (km/s) = 9.21820 9.71616 9.47045
#
# Compressibility (1/GPa) = 0.00869443
#
# Stress axis : x y z
#
# Youngs Moduli (GPa) = 137.33745 193.41374 108.52769
#
# Poissons Ratio (x) = 0.33200 0.37338
# Poissons Ratio (y) = 0.23574 0.14421
# Poissons Ratio (z) = 0.47250 0.25701
#
# Static dielectric constant tensor:
#      x y z
#    x 4.199810 0.000000 0.000000 
#    y 0.000000 3.990500 0.000000 
#    z 0.000000 0.000000 3.947440 
# 
# 
# High freq. dielectric constant tensor:
#      x y z
#    x 1.814000 0.000000 0.000000 
#    y 0.000000 1.831570 0.000000 
#    z 0.000000 0.000000 1.817000 
# 
# From -- ./inp_files/36271.got.cif
#   From: 2010.03.12/outbox.cif.g09.slc.cpg/sg63_19_cif.got.tgz:36271.got - 2010.04.10 19:34:48.
