data_PCOD8260625
_publ_section_title
;
Structure prediction by ZEFSAII (Michael W. Deem and Ramdas Pophale) SiO2 
 PCOD8260625
Probable space group: C M C M
;
_chemical_formula_sum "Si O2"
_cell_formula_units_Z 80
_cell_length_a 15.272346
_cell_length_b 10.704170
_cell_length_c 25.035308
_cell_angle_alpha 90.000000
_cell_angle_beta 90.000000
_cell_angle_gamma 90.000000
_cell_volume 4092.716771
_symmetry_space_group_name_H-M "C M C M"
_symmetry_group_IT_number 63
_symmetry_cell_setting 'orthorhombic'
loop_
_space_group_symop_operation_xyz
x,y,z
-x,-y,1/2+z
x,-y,-z
-x,y,1/2-z
-x,-y,-z
x,y,1/2-z
-x,y,z
x,-y,1/2+z
1/2+x,1/2+y,z
1/2-x,1/2-y,1/2+z
1/2+x,1/2-y,-z
1/2-x,1/2+y,1/2-z
1/2-x,1/2-y,-z
1/2+x,1/2+y,1/2-z
1/2-x,1/2+y,z
1/2+x,1/2-y,1/2+z
loop_
_atom_site_type_symbol
_atom_site_label
_atom_site_fract_x
_atom_site_fract_y
_atom_site_fract_z
Si Si1 0.267696 0.873919 0.533627
Si Si2 0.603095 0.755227 0.607650
Si Si3 0.000000 0.892758 0.813973
Si Si4 0.831813 0.988659 0.625467
Si Si5 0.000000 0.390260 0.186959
Si Si6 0.841469 0.555417 0.313031
O O1 0.250000 0.750000 0.500000
O O2 0.359513 0.852812 0.564184
O O3 0.278440 0.000000 0.500000
O O4 0.188913 0.893356 0.576765
O O5 0.500000 0.739782 0.600181
O O6 0.651394 0.623535 0.599465
O O7 0.629039 0.808240 0.665997
O O8 0.000000 0.750498 0.832814
O O9 0.000000 0.909969 0.750000
O O10 0.915043 0.953958 0.839364
O O11 0.750726 0.992824 0.665665
O O12 0.913178 0.457231 0.165365
O O13 0.000000 0.397659 0.250000
O O14 0.836497 0.564936 0.250000
#
# Coordination Sequence:
#
# PCOD8260625 Si02
#       6
#    16  16   8  16   8  16
#     4  11  24  46  71  95 127 170 218 282 343 396
#     4  11  23  42  66  97 130 166 222 274 334 405
#     4  11  24  41  62  97 140 179 220 267 324 402
#     4  11  24  41  66  95 132 175 218 273 330 402
#     4   9  20  37  57  85 125 172 221 263 310 379
#     4  10  22  39  61  91 131 178 218 267 326 388
#
# _framework density 19.546918000000002
#
# number of rings (size 3 to 8) (size 9 to 14) (size 15 to 20)
#    0.000    1.400    4.000    0.600    5.600    2.000 
#    1.800    1.500    0.000    0.000    0.000    0.000 
#    0.000    0.000    0.000    0.000    0.000    0.000 
#
# Total GULP energy -495965.460618 kJ/mol
# GULP energy per Si atom -12399.136515 kJ/mol
# Density = 1.950243 g / cm^3
# Si number density = 19.546918 Si / 1000 Ang^3
#
#
#
# Elastic Constant Matrix: (Units=GPa)
#
#
# Indices 1 2 3 4 5 6 
#
# 1 153.8564 52.0516 52.4674 0.0000 0.0000 0.0000
# 2 52.0516 130.7288 54.9782 0.0000 0.0000 0.0000
# 3 52.4674 54.9782 113.2357 0.0000 0.0000 0.0000
# 4 0.0000 0.0000 0.0000 38.4530 0.0000 0.0000
# 5 0.0000 0.0000 0.0000 0.0000 23.6872 0.0000
# 6 0.0000 0.0000 0.0000 0.0000 0.0000 26.4323
#
#
#
# Elastic Compliance Matrix: (Units=1/GPa)
#
#
# Indices 1 2 3 4 5 6 
#
# 1 0.008146 -0.002081 -0.002764 0.000000 0.000000 0.000000
# 2 -0.002081 0.010144 -0.003961 0.000000 0.000000 0.000000
# 3 -0.002764 -0.003961 0.012035 0.000000 0.000000 0.000000
# 4 0.000000 0.000000 0.000000 0.026006 0.000000 0.000000
# 5 0.000000 0.000000 0.000000 0.000000 0.042217 0.000000
# 6 0.000000 0.000000 0.000000 0.000000 0.000000 0.037832
#
#
# Mechanical properties :
#
#
# Convention : Reuss Voigt Hill
#
# Bulk Modulus (GPa) = 78.65965 79.64615 79.15290
# Shear Modulus (GPa) = 31.59969 33.60277 32.60123
#
# Velocity S-wave (km/s) = 4.02507 4.15068 4.08836
# Velocity P-wave (km/s) = 7.86959 7.98783 7.92893
#
# Compressibility (1/GPa) = 0.01271300
#
# Stress axis : x y z
#
# Youngs Moduli (GPa) = 122.75613 98.58312 83.09176
#
# Poissons Ratio (x) = 0.20516 0.22968
# Poissons Ratio (y) = 0.25547 0.32910
# Poissons Ratio (z) = 0.33931 0.39046
#
# Static dielectric constant tensor:
#      x y z
#    x 3.710820 0.000000 0.000000 
#    y 0.000000 3.856020 0.000000 
#    z 0.000000 0.000000 3.618600 
# 
# 
# High freq. dielectric constant tensor:
#      x y z
#    x 1.769930 0.000000 0.000000 
#    y 0.000000 1.771040 0.000000 
#    z 0.000000 0.000000 1.761560 
# 
# From -- ./inp_files/62618.got.cif
#   From: 2010.03.12/outbox.cif.g09.slc.cpg/sg63_32_cif.got.tgz:62618.got - 2010.04.10 19:34:48.
