data_PCOD8260534
_publ_section_title
;
Structure prediction by ZEFSAII (Michael W. Deem and Ramdas Pophale) SiO2 
 PCOD8260534
Probable space group: C M C M
;
_chemical_formula_sum "Si O2"
_cell_formula_units_Z 80
_cell_length_a 9.980780
_cell_length_b 19.800132
_cell_length_c 21.433132
_cell_angle_alpha 90.000000
_cell_angle_beta 90.000000
_cell_angle_gamma 90.000000
_cell_volume 4235.631866
_symmetry_space_group_name_H-M "C M C M"
_symmetry_group_IT_number 63
_symmetry_cell_setting 'orthorhombic'
loop_
_space_group_symop_operation_xyz
x,y,z
-x,-y,1/2+z
x,-y,-z
-x,y,1/2-z
-x,-y,-z
x,y,1/2-z
-x,y,z
x,-y,1/2+z
1/2+x,1/2+y,z
1/2-x,1/2-y,1/2+z
1/2+x,1/2-y,-z
1/2-x,1/2+y,1/2-z
1/2-x,1/2-y,-z
1/2+x,1/2+y,1/2-z
1/2-x,1/2+y,z
1/2+x,1/2-y,1/2+z
loop_
_atom_site_type_symbol
_atom_site_label
_atom_site_fract_x
_atom_site_fract_y
_atom_site_fract_z
Si Si1 0.500000 0.047098 0.060161
Si Si2 0.500000 0.306399 0.048771
Si Si3 0.273887 0.485336 0.880144
Si Si4 0.846100 0.005899 0.750000
Si Si5 0.840545 0.633368 0.750000
Si Si6 0.751176 0.355702 0.384887
Si Si7 0.000000 0.933965 0.538862
Si Si8 0.500000 0.830728 0.474818
O O1 0.622265 0.031619 0.105301
O O2 0.500000 0.123375 0.036573
O O3 0.500000 0.000000 0.000000
O O4 0.370200 0.307780 0.093406
O O5 0.500000 0.369148 0.003099
O O6 0.500000 0.244019 0.001804
O O7 0.316437 0.461657 0.810994
O O8 0.298435 0.566155 0.887234
O O9 0.363880 0.437015 0.922258
O O10 0.734130 0.063002 0.750000
O O11 0.000000 0.033343 0.750000
O O12 0.795497 0.669003 0.684885
O O13 0.000000 0.623040 0.750000
O O14 0.871344 0.345762 0.432966
O O15 0.000000 0.000000 0.500000
#
# Coordination Sequence:
#
# PCOD8260534 Si02
#       8
#     8   8  16   8   8  16   8   8
#     4  12  22  37  61  87 119 158 194 243 294 361
#     4  12  26  37  61  91 123 162 198 250 302 355
#     4  11  21  36  62  88 121 156 198 247 300 352
#     4  10  22  36  56  93 126 150 194 258 304 349
#     4  10  22  36  62  89 118 158 198 248 302 347
#     4  11  21  39  61  89 124 152 200 251 295 359
#     4  12  20  37  59  85 121 156 194 239 296 359
#     4  12  24  41  59  87 129 158 200 248 300 353
#
# _framework density 18.887381999999999
#
# number of rings (size 3 to 8) (size 9 to 14) (size 15 to 20)
#    0.000    0.800    6.000    2.400    8.400    0.000 
#    0.000    0.000    0.000    7.200    0.000    0.000 
#    0.000    0.000    0.000    0.000    0.000    0.000 
#
# Total GULP energy -495809.212520 kJ/mol
# GULP energy per Si atom -12395.230313 kJ/mol
# Density = 1.884439 g / cm^3
# Si number density = 18.887382 Si / 1000 Ang^3
#
#
#
# Elastic Constant Matrix: (Units=GPa)
#
#
# Indices 1 2 3 4 5 6 
#
# 1 142.8064 6.0842 54.9944 0.0000 0.0000 0.0000
# 2 6.0842 63.5209 33.4837 0.0000 0.0000 0.0000
# 3 54.9944 33.4837 135.0045 0.0000 0.0000 0.0000
# 4 0.0000 0.0000 0.0000 17.8543 0.0000 0.0000
# 5 0.0000 0.0000 0.0000 0.0000 42.1278 0.0000
# 6 0.0000 0.0000 0.0000 0.0000 0.0000 -0.8165
#
#
#
# Elastic Compliance Matrix: (Units=1/GPa)
#
#
# Indices 1 2 3 4 5 6 
#
# 1 0.008377 0.001146 -0.003697 0.000000 0.000000 0.000000
# 2 0.001146 0.018267 -0.004998 0.000000 0.000000 0.000000
# 3 -0.003697 -0.004998 0.010153 0.000000 0.000000 0.000000
# 4 0.000000 0.000000 0.000000 0.056009 0.000000 0.000000
# 5 0.000000 0.000000 0.000000 0.000000 0.023737 0.000000
# 6 0.000000 0.000000 0.000000 0.000000 0.000000 -1.224785
#
#
# Mechanical properties :
#
#
# Convention : Reuss Voigt Hill
#
# Bulk Modulus (GPa) = 46.08078 58.93960 52.51019
# Shear Modulus (GPa) = -4.60443 28.28443 11.84000
#
# Velocity S-wave (km/s) = -1.56305 3.87399 2.50646
# Velocity P-wave (km/s) = 4.60360 7.16128 6.01985
#
# Compressibility (1/GPa) = 0.02170102
#
# Stress axis : x y z
#
# Youngs Moduli (GPa) = 119.37045 54.74221 98.49720
#
# Poissons Ratio (x) = -0.06275 0.36413
# Poissons Ratio (y) = -0.13683 0.49225
# Poissons Ratio (z) = 0.44129 0.27358
#
# Static dielectric constant tensor:
#      x y z
#    x 3.643830 0.000000 0.000000 
#    y 0.000000 2.990830 0.000000 
#    z 0.000000 0.000000 4.367090 
# 
# 
# High freq. dielectric constant tensor:
#      x y z
#    x 1.759730 0.000000 0.000000 
#    y 0.000000 1.680430 0.000000 
#    z 0.000000 0.000000 1.756410 
# 
# From -- ./inp_files/51017.got.cif
#   From: 2010.03.12/outbox.cif.g09.slc.cpg/sg63_26_cif.got.tgz:51017.got - 2010.04.10 19:34:48.
