data_PCOD8260620
_publ_section_title
;
Structure prediction by ZEFSAII (Michael W. Deem and Ramdas Pophale) SiO2 
 PCOD8260620
Probable space group: C M C M
;
_chemical_formula_sum "Si O2"
_cell_formula_units_Z 96
_cell_length_a 14.435996
_cell_length_b 20.397971
_cell_length_c 17.369305
_cell_angle_alpha 90.000000
_cell_angle_beta 90.000000
_cell_angle_gamma 90.000000
_cell_volume 5114.652879
_symmetry_space_group_name_H-M "C M C M"
_symmetry_group_IT_number 63
_symmetry_cell_setting 'orthorhombic'
loop_
_space_group_symop_operation_xyz
x,y,z
-x,-y,1/2+z
x,-y,-z
-x,y,1/2-z
-x,-y,-z
x,y,1/2-z
-x,y,z
x,-y,1/2+z
1/2+x,1/2+y,z
1/2-x,1/2-y,1/2+z
1/2+x,1/2-y,-z
1/2-x,1/2+y,1/2-z
1/2-x,1/2-y,-z
1/2+x,1/2+y,1/2-z
1/2-x,1/2+y,z
1/2+x,1/2-y,1/2+z
loop_
_atom_site_type_symbol
_atom_site_label
_atom_site_fract_x
_atom_site_fract_y
_atom_site_fract_z
Si Si1 0.000000 0.685621 0.658804
Si Si2 0.195389 0.259891 0.158550
Si Si3 0.000000 0.930968 0.841248
Si Si4 0.310158 0.623692 0.590208
Si Si5 0.311420 0.999912 0.590593
Si Si6 0.500000 0.581035 0.841198
Si Si7 0.312444 0.621444 0.092207
Si Si8 0.500000 0.961868 0.340818
O O1 0.908713 0.723418 0.629653
O O2 0.000000 0.682053 0.750000
O O3 0.000000 0.611908 0.624595
O O4 0.203036 0.263586 0.250000
O O5 0.266794 0.309933 0.121390
O O6 0.224313 0.188703 0.128392
O O7 0.912303 0.893690 0.874041
O O8 0.000000 0.925334 0.750000
O O9 0.000000 0.005888 0.869915
O O10 0.247388 0.562801 0.617668
O O11 0.411154 0.617690 0.626151
O O12 0.318890 0.626449 0.499018
O O13 0.258238 0.935082 0.618105
O O14 0.326792 0.000000 0.500000
O O15 0.410353 0.999188 0.631142
O O16 0.500000 0.585013 0.750000
O O17 0.500000 0.959404 0.250000
#
# Coordination Sequence:
#
# PCOD8260620 Si02
#       8
#     8  16   8  16  16   8  16   8
#     4   9  19  34  57  85 110 144 190 242 292 333
#     4  11  22  39  60  87 122 155 196 250 301 353
#     4  11  22  37  61  92 125 155 191 253 313 353
#     4  11  22  40  62  85 119 163 203 241 291 362
#     4  10  22  39  61  87 119 154 193 240 291 348
#     4  11  23  37  59  91 122 158 203 246 296 363
#     4  11  23  39  61  91 121 155 198 248 303 354
#     4  11  21  36  61  88 114 147 196 245 285 341
#
# _framework density 18.769603
#
# number of rings (size 3 to 8) (size 9 to 14) (size 15 to 20)
#    0.000    1.333    3.333    2.750    0.000    3.333 
#    0.000    0.833    0.000    1.000    0.000    0.000 
#    0.000    0.000    0.000    0.000    0.000    0.000 
#
# Total GULP energy -595485.132589 kJ/mol
# GULP energy per Si atom -12405.940262 kJ/mol
# Density = 1.872688 g / cm^3
# Si number density = 18.769603 Si / 1000 Ang^3
#
#
#
# Elastic Constant Matrix: (Units=GPa)
#
#
# Indices 1 2 3 4 5 6 
#
# 1 149.0544 75.8199 43.3563 0.0000 0.0000 0.0000
# 2 75.8199 153.3597 36.4789 0.0000 0.0000 0.0000
# 3 43.3563 36.4789 57.9059 0.0000 0.0000 0.0000
# 4 0.0000 0.0000 0.0000 31.9621 0.0000 0.0000
# 5 0.0000 0.0000 0.0000 0.0000 15.5903 0.0000
# 6 0.0000 0.0000 0.0000 0.0000 0.0000 4.7167
#
#
#
# Elastic Compliance Matrix: (Units=1/GPa)
#
#
# Indices 1 2 3 4 5 6 
#
# 1 0.010148 -0.003775 -0.005220 0.000000 0.000000 0.000000
# 2 -0.003775 0.009075 -0.002890 0.000000 0.000000 0.000000
# 3 -0.005220 -0.002890 0.022998 0.000000 0.000000 0.000000
# 4 0.000000 0.000000 0.000000 0.031287 0.000000 0.000000
# 5 0.000000 0.000000 0.000000 0.000000 0.064142 0.000000
# 6 0.000000 0.000000 0.000000 0.000000 0.000000 0.212012
#
#
# Mechanical properties :
#
#
# Convention : Reuss Voigt Hill
#
# Bulk Modulus (GPa) = 54.19897 74.62556 64.41226
# Shear Modulus (GPa) = 13.17239 24.09815 18.63527
#
# Velocity S-wave (km/s) = 2.65201 3.58703 3.15436
# Velocity P-wave (km/s) = 6.19001 7.54989 6.90351
#
# Compressibility (1/GPa) = 0.01845053
#
# Stress axis : x y z
#
# Youngs Moduli (GPa) = 98.54526 110.19840 43.48202
#
# Poissons Ratio (x) = 0.41604 0.22696
# Poissons Ratio (y) = 0.37204 0.12566
# Poissons Ratio (z) = 0.51436 0.31846
#
# Static dielectric constant tensor:
#      x y z
#    x 3.490990 0.000000 0.000000 
#    y 0.000000 3.603360 0.000000 
#    z 0.000000 0.000000 3.509720 
# 
# 
# High freq. dielectric constant tensor:
#      x y z
#    x 1.736410 0.000000 0.000000 
#    y 0.000000 1.735930 0.000000 
#    z 0.000000 0.000000 1.727570 
# 
# From -- ./inp_files/32031.got.cif
#   From: 2010.03.12/outbox.cif.g09.slc.cpg/sg63_17_cif.got.tgz:32031.got - 2010.04.10 19:34:48.
