data_PCOD8260873
_publ_section_title
;
Structure prediction by ZEFSAII (Michael W. Deem and Ramdas Pophale) SiO2 
 PCOD8260873
Probable space group: C M C M
;
_chemical_formula_sum "Si O2"
_cell_formula_units_Z 88
_cell_length_a 14.119374
_cell_length_b 11.716962
_cell_length_c 26.823131
_cell_angle_alpha 90.000000
_cell_angle_beta 90.000000
_cell_angle_gamma 90.000000
_cell_volume 4437.516023
_symmetry_space_group_name_H-M "C M C M"
_symmetry_group_IT_number 63
_symmetry_cell_setting 'orthorhombic'
loop_
_space_group_symop_operation_xyz
x,y,z
-x,-y,1/2+z
x,-y,-z
-x,y,1/2-z
-x,-y,-z
x,y,1/2-z
-x,y,z
x,-y,1/2+z
1/2+x,1/2+y,z
1/2-x,1/2-y,1/2+z
1/2+x,1/2-y,-z
1/2-x,1/2+y,1/2-z
1/2-x,1/2-y,-z
1/2+x,1/2+y,1/2-z
1/2-x,1/2+y,z
1/2+x,1/2-y,1/2+z
loop_
_atom_site_type_symbol
_atom_site_label
_atom_site_fract_x
_atom_site_fract_y
_atom_site_fract_z
Si Si1 0.500000 0.499027 0.192189
Si Si2 0.000000 0.132946 0.499401
Si Si3 0.816564 0.637098 0.630829
Si Si4 0.606217 0.107314 0.119955
Si Si5 0.500000 0.708946 0.384724
Si Si6 0.188004 0.226199 0.952949
Si Si7 0.648327 0.694420 0.693003
O O1 0.500000 0.542512 0.250000
O O2 0.500000 0.602576 0.153085
O O3 0.407547 0.422473 0.181535
O O4 0.090037 0.171421 0.530850
O O5 0.000000 0.175502 0.442669
O O6 0.000000 0.000000 0.500000
O O7 0.847090 0.507756 0.639851
O O8 0.906632 0.717856 0.624967
O O9 0.746126 0.642583 0.583454
O O10 0.758381 0.677083 0.679312
O O11 0.500000 0.080925 0.101637
O O12 0.667721 0.153255 0.073769
O O13 0.602817 0.201245 0.163155
O O14 0.250000 0.250000 0.000000
O O15 0.639344 0.729338 0.750000
#
# Coordination Sequence:
#
# PCOD8260873 Si02
#       7
#     8   8  16  16   8  16  16
#     4  10  24  45  69  94 130 170 215 272 323 384
#     4  12  28  41  66  95 131 175 224 269 314 388
#     4  11  26  42  68  96 134 171 212 272 329 387
#     4  11  23  43  69  94 130 169 218 271 323 383
#     4  12  26  46  63  99 133 171 219 267 332 386
#     4  11  25  44  62  96 130 174 218 261 322 381
#     4  10  24  44  68  97 127 171 218 264 326 392
#
# _framework density 19.830914
#
# number of rings (size 3 to 8) (size 9 to 14) (size 15 to 20)
#    0.000    1.091    4.545    0.000   12.727    1.455 
#    0.000    1.818    0.000    0.000    0.000    0.000 
#    0.000    0.000    0.000    0.000    0.000    0.000 
#
# Total GULP energy -545663.404872 kJ/mol
# GULP energy per Si atom -12401.441020 kJ/mol
# Density = 1.978578 g / cm^3
# Si number density = 19.830914 Si / 1000 Ang^3
#
#
#
# Elastic Constant Matrix: (Units=GPa)
#
#
# Indices 1 2 3 4 5 6 
#
# 1 145.5215 45.0717 45.4741 0.0000 0.0000 0.0000
# 2 45.0717 111.6413 36.8802 0.0000 0.0000 0.0000
# 3 45.4741 36.8802 102.2323 0.0000 0.0000 0.0000
# 4 0.0000 0.0000 0.0000 23.3638 0.0000 0.0000
# 5 0.0000 0.0000 0.0000 0.0000 32.6373 0.0000
# 6 0.0000 0.0000 0.0000 0.0000 0.0000 12.1042
#
#
#
# Elastic Compliance Matrix: (Units=1/GPa)
#
#
# Indices 1 2 3 4 5 6 
#
# 1 0.008552 -0.002493 -0.002905 0.000000 0.000000 0.000000
# 2 -0.002493 0.010896 -0.002822 0.000000 0.000000 0.000000
# 3 -0.002905 -0.002822 0.012092 0.000000 0.000000 0.000000
# 4 0.000000 0.000000 0.000000 0.042801 0.000000 0.000000
# 5 0.000000 0.000000 0.000000 0.000000 0.030640 0.000000
# 6 0.000000 0.000000 0.000000 0.000000 0.000000 0.082616
#
#
# Mechanical properties :
#
#
# Convention : Reuss Voigt Hill
#
# Bulk Modulus (GPa) = 66.22282 68.24967 67.23624
# Shear Modulus (GPa) = 23.91569 29.08567 26.50068
#
# Velocity S-wave (km/s) = 3.47649 3.83389 3.65955
# Velocity P-wave (km/s) = 7.04137 7.35450 7.19964
#
# Compressibility (1/GPa) = 0.01510054
#
# Stress axis : x y z
#
# Youngs Moduli (GPa) = 116.93719 91.77791 82.70226
#
# Poissons Ratio (x) = 0.22880 0.24021
# Poissons Ratio (y) = 0.29152 0.23337
# Poissons Ratio (z) = 0.33965 0.25898
#
# Static dielectric constant tensor:
#      x y z
#    x 3.798550 0.000000 0.000000 
#    y 0.000000 3.648020 0.000000 
#    z 0.000000 0.000000 3.695950 
# 
# 
# High freq. dielectric constant tensor:
#      x y z
#    x 1.797180 0.000000 0.000000 
#    y 0.000000 1.772470 0.000000 
#    z 0.000000 0.000000 1.778140 
# 
# From -- ./inp_files/69262.got.cif
#   From: 2010.03.12/outbox.cif.g09.slc.cpg/sg63_35_cif.got.tgz:69262.got - 2010.04.10 19:34:48.
