data_PCOD8260218
_publ_section_title
;
Structure prediction by ZEFSAII (Michael W. Deem and Ramdas Pophale) SiO2 
 PCOD8260218
Probable space group: C M C M
;
_chemical_formula_sum "Si O2"
_cell_formula_units_Z 72
_cell_length_a 9.729875
_cell_length_b 14.855478
_cell_length_c 24.522834
_cell_angle_alpha 90.000000
_cell_angle_beta 90.000000
_cell_angle_gamma 90.000000
_cell_volume 3544.578099
_symmetry_space_group_name_H-M "C M C M"
_symmetry_group_IT_number 63
_symmetry_cell_setting 'orthorhombic'
loop_
_space_group_symop_operation_xyz
x,y,z
-x,-y,1/2+z
x,-y,-z
-x,y,1/2-z
-x,-y,-z
x,y,1/2-z
-x,y,z
x,-y,1/2+z
1/2+x,1/2+y,z
1/2-x,1/2-y,1/2+z
1/2+x,1/2-y,-z
1/2-x,1/2+y,1/2-z
1/2-x,1/2-y,-z
1/2+x,1/2+y,1/2-z
1/2-x,1/2+y,z
1/2+x,1/2-y,1/2+z
loop_
_atom_site_type_symbol
_atom_site_label
_atom_site_fract_x
_atom_site_fract_y
_atom_site_fract_z
Si Si1 0.240349 0.500000 0.000000
Si Si2 0.847504 0.033536 0.118985
Si Si3 0.846182 0.164589 0.633281
Si Si4 0.654466 0.813484 0.034670
Si Si5 0.842736 0.343492 0.689365
O O1 0.331273 0.484018 0.945813
O O2 0.145827 0.587072 0.991081
O O3 0.741104 0.105431 0.142539
O O4 0.000000 0.072214 0.128496
O O5 0.829123 0.939237 0.151935
O O6 0.721711 0.186704 0.593553
O O7 0.831322 0.235233 0.682623
O O8 0.000000 0.175618 0.606606
O O9 0.500000 0.774575 0.038240
O O10 0.750000 0.750000 0.000000
O O11 0.788041 0.366949 0.750000
O O12 0.000000 0.374714 0.682922
#
# Coordination Sequence:
#
# PCOD8260218 Si02
#       5
#     8  16  16  16  16
#     4  10  22  38  58  84 120 158 190 228 288 354
#     4  10  21  37  60  89 117 148 191 242 289 338
#     4   9  20  38  57  78 108 146 186 228 279 335
#     4  11  22  35  54  81 113 149 188 228 274 331
#     4  10  22  40  60  82 112 151 192 235 287 348
#
# _framework density 20.312712999999999
#
# number of rings (size 3 to 8) (size 9 to 14) (size 15 to 20)
#    0.000    2.000    0.000    2.667    0.000   12.889 
#    0.000    2.222    0.000    0.000    0.000    0.000 
#    0.000    0.000    0.000    0.000    0.000    0.000 
#
# Total GULP energy -446172.509842 kJ/mol
# GULP energy per Si atom -12393.680829 kJ/mol
# Density = 2.026648 g / cm^3
# Si number density = 20.312713 Si / 1000 Ang^3
#
#
#
# Elastic Constant Matrix: (Units=GPa)
#
#
# Indices 1 2 3 4 5 6 
#
# 1 129.9806 37.4114 37.0663 0.0000 0.0000 0.0000
# 2 37.4114 96.6302 42.3036 0.0000 0.0000 0.0000
# 3 37.0663 42.3036 84.3886 0.0000 0.0000 0.0000
# 4 0.0000 0.0000 0.0000 28.4615 0.0000 0.0000
# 5 0.0000 0.0000 0.0000 0.0000 17.5583 0.0000
# 6 0.0000 0.0000 0.0000 0.0000 0.0000 26.0505
#
#
#
# Elastic Compliance Matrix: (Units=1/GPa)
#
#
# Indices 1 2 3 4 5 6 
#
# 1 0.009174 -0.002290 -0.002882 0.000000 0.000000 0.000000
# 2 -0.002290 0.013830 -0.005927 0.000000 0.000000 0.000000
# 3 -0.002882 -0.005927 0.016087 0.000000 0.000000 0.000000
# 4 0.000000 0.000000 0.000000 0.035135 0.000000 0.000000
# 5 0.000000 0.000000 0.000000 0.000000 0.056953 0.000000
# 6 0.000000 0.000000 0.000000 0.000000 0.000000 0.038387
#
#
# Mechanical properties :
#
#
# Convention : Reuss Voigt Hill
#
# Bulk Modulus (GPa) = 59.19434 60.50688 59.85061
# Shear Modulus (GPa) = 25.32983 27.36195 26.34589
#
# Velocity S-wave (km/s) = 3.53511 3.67418 3.60532
# Velocity P-wave (km/s) = 6.77255 6.91750 6.84541
#
# Compressibility (1/GPa) = 0.01689351
#
# Stress axis : x y z
#
# Youngs Moduli (GPa) = 108.99867 72.30503 62.16281
#
# Poissons Ratio (x) = 0.16561 0.17912
# Poissons Ratio (y) = 0.24966 0.36844
# Poissons Ratio (z) = 0.31408 0.42855
#
# Static dielectric constant tensor:
#      x y z
#    x 3.552500 0.000000 0.000000 
#    y 0.000000 3.963650 0.000000 
#    z 0.000000 0.000000 3.459480 
# 
# 
# High freq. dielectric constant tensor:
#      x y z
#    x 1.794380 0.000000 0.000000 
#    y 0.000000 1.806230 0.000000 
#    z 0.000000 0.000000 1.767990 
# 
# From -- ./inp_files/66342.got.cif
#   From: 2010.03.12/outbox.cif.g09.slc.cpg/sg63_34_cif.got.tgz:66342.got - 2010.04.10 19:34:48.
