data_PCOD8260375
_publ_section_title
;
Structure prediction by ZEFSAII (Michael W. Deem and Ramdas Pophale) SiO2 
 PCOD8260375
Probable space group: C M C M
;
_chemical_formula_sum "Si O2"
_cell_formula_units_Z 72
_cell_length_a 16.319285
_cell_length_b 27.207792
_cell_length_c 8.682551
_cell_angle_alpha 90.000000
_cell_angle_beta 90.000000
_cell_angle_gamma 90.000000
_cell_volume 3855.154333
_symmetry_space_group_name_H-M "C M C M"
_symmetry_group_IT_number 63
_symmetry_cell_setting 'orthorhombic'
loop_
_space_group_symop_operation_xyz
x,y,z
-x,-y,1/2+z
x,-y,-z
-x,y,1/2-z
-x,-y,-z
x,y,1/2-z
-x,y,z
x,-y,1/2+z
1/2+x,1/2+y,z
1/2-x,1/2-y,1/2+z
1/2+x,1/2-y,-z
1/2-x,1/2+y,1/2-z
1/2-x,1/2-y,-z
1/2+x,1/2+y,1/2-z
1/2-x,1/2+y,z
1/2+x,1/2-y,1/2+z
loop_
_atom_site_type_symbol
_atom_site_label
_atom_site_fract_x
_atom_site_fract_y
_atom_site_fract_z
Si Si1 0.186551 0.949434 0.430161
Si Si2 0.160711 0.602380 0.067203
Si Si3 0.907778 0.133945 0.073242
Si Si4 0.000000 0.445032 0.432113
Si Si5 0.256106 0.697154 0.072397
O O1 0.205141 0.953289 0.250000
O O2 0.269222 0.935821 0.520414
O O3 0.114336 0.910700 0.461004
O O4 0.153947 0.000000 0.500000
O O5 0.148251 0.600485 0.250000
O O6 0.189777 0.656944 0.010835
O O7 0.077728 0.586671 0.984488
O O8 0.895894 0.116592 0.250000
O O9 0.848135 0.179256 0.037264
O O10 0.000000 0.151554 0.040279
O O11 0.000000 0.500000 0.500000
O O12 0.000000 0.450396 0.250000
O O13 0.239048 0.703741 0.250000
O O14 0.250000 0.750000 0.000000
#
# Coordination Sequence:
#
# PCOD8260375 Si02
#       5
#    16  16  16   8  16
#     4  11  21  34  54  80 110 145 185 224 271 327
#     4  10  21  39  58  80 113 150 189 233 281 334
#     4   9  19  37  57  78 107 142 182 226 274 325
#     4  12  24  38  58  86 118 154 192 238 289 342
#     4   9  19  36  59  82 109 144 182 228 282 332
#
# _framework density 18.676295
#
# number of rings (size 3 to 8) (size 9 to 14) (size 15 to 20)
#    0.000    2.000    0.000    5.667    0.000    5.333 
#    2.000    0.000    0.000    0.000    0.000    0.000 
#    0.000    0.000    0.000    0.000    0.000    0.000 
#
# Total GULP energy -446357.900066 kJ/mol
# GULP energy per Si atom -12398.830557 kJ/mol
# Density = 1.863379 g / cm^3
# Si number density = 18.676295 Si / 1000 Ang^3
#
#
#
# Elastic Constant Matrix: (Units=GPa)
#
#
# Indices 1 2 3 4 5 6 
#
# 1 143.4090 66.1340 43.3407 0.0000 0.0000 0.0000
# 2 66.1340 138.5824 55.1508 0.0000 0.0000 0.0000
# 3 43.3407 55.1508 90.5541 0.0000 0.0000 0.0000
# 4 0.0000 0.0000 0.0000 36.9635 0.0000 0.0000
# 5 0.0000 0.0000 0.0000 0.0000 29.7799 0.0000
# 6 0.0000 0.0000 0.0000 0.0000 0.0000 149.7772
#
#
#
# Elastic Compliance Matrix: (Units=1/GPa)
#
#
# Indices 1 2 3 4 5 6 
#
# 1 0.009291 -0.003517 -0.002305 0.000000 0.000000 0.000000
# 2 -0.003517 0.010855 -0.004928 0.000000 0.000000 0.000000
# 3 -0.002305 -0.004928 0.015148 0.000000 0.000000 0.000000
# 4 0.000000 0.000000 0.000000 0.027054 0.000000 0.000000
# 5 0.000000 0.000000 0.000000 0.000000 0.033580 0.000000
# 6 0.000000 0.000000 0.000000 0.000000 0.000000 0.006677
#
#
# Mechanical properties :
#
#
# Convention : Reuss Voigt Hill
#
# Bulk Modulus (GPa) = 72.49257 77.97739 75.23498
# Shear Modulus (GPa) = 38.84906 57.16544 48.00725
#
# Velocity S-wave (km/s) = 4.56579 5.53850 5.07550
# Velocity P-wave (km/s) = 8.16669 9.09630 8.64400
#
# Compressibility (1/GPa) = 0.01379452
#
# Stress axis : x y z
#
# Youngs Moduli (GPa) = 107.62542 92.12025 66.01564
#
# Poissons Ratio (x) = 0.32395 0.15219
# Poissons Ratio (y) = 0.37848 0.32534
# Poissons Ratio (z) = 0.24811 0.45399
#
# Static dielectric constant tensor:
#      x y z
#    x 2.593350 0.000000 0.000000 
#    y 0.000000 2.805490 0.000000 
#    z 0.000000 0.000000 2.223580 
# 
# 
# High freq. dielectric constant tensor:
#      x y z
#    x 1.725710 0.000000 0.000000 
#    y 0.000000 1.723070 0.000000 
#    z 0.000000 0.000000 1.728770 
# 
# From -- ./inp_files/4599.got.cif
#   From: 2010.03.12/outbox.cif.g09.slc.cpg/sg63_3_cif.got.tgz:4599.got - 2010.04.10 19:34:48.
