data_PCOD8260673
_publ_section_title
;
Structure prediction by ZEFSAII (Michael W. Deem and Ramdas Pophale) SiO2 
 PCOD8260673
Probable space group: C M C M
;
_chemical_formula_sum "Si O2"
_cell_formula_units_Z 88
_cell_length_a 22.675965
_cell_length_b 10.122914
_cell_length_c 18.653605
_cell_angle_alpha 90.000000
_cell_angle_beta 90.000000
_cell_angle_gamma 90.000000
_cell_volume 4281.876149
_symmetry_space_group_name_H-M "C M C M"
_symmetry_group_IT_number 63
_symmetry_cell_setting 'orthorhombic'
loop_
_space_group_symop_operation_xyz
x,y,z
-x,-y,1/2+z
x,-y,-z
-x,y,1/2-z
-x,-y,-z
x,y,1/2-z
-x,y,z
x,-y,1/2+z
1/2+x,1/2+y,z
1/2-x,1/2-y,1/2+z
1/2+x,1/2-y,-z
1/2-x,1/2+y,1/2-z
1/2-x,1/2-y,-z
1/2+x,1/2+y,1/2-z
1/2-x,1/2+y,z
1/2+x,1/2-y,1/2+z
loop_
_atom_site_type_symbol
_atom_site_label
_atom_site_fract_x
_atom_site_fract_y
_atom_site_fract_z
Si Si1 0.847467 0.000000 0.500000
Si Si2 0.736877 0.687441 0.575866
Si Si3 0.436475 0.620573 0.666185
Si Si4 0.152259 0.333893 0.667809
Si Si5 0.147595 0.367446 0.166737
Si Si6 0.069905 0.150009 0.097703
O O1 0.806465 0.061373 0.563297
O O2 0.890678 0.118039 0.472543
O O3 0.750000 0.750000 0.500000
O O4 0.711026 0.807176 0.622973
O O5 0.794935 0.643251 0.617637
O O6 0.440106 0.641170 0.750000
O O7 0.500000 0.643917 0.629984
O O8 0.394314 0.731504 0.633613
O O9 0.416284 0.471882 0.650447
O O10 0.166779 0.300098 0.750000
O O11 0.127049 0.480944 0.660051
O O12 0.161179 0.331772 0.250000
O O13 0.093660 0.280906 0.136718
O O14 0.000000 0.166538 0.080287
#
# Coordination Sequence:
#
# PCOD8260673 Si02
#       6
#     8  16  16  16  16  16
#     4  12  23  42  66  98 127 176 224 278 322 396
#     4  12  23  42  65  91 129 170 217 270 332 391
#     4   9  18  35  61  89 119 161 210 259 314 378
#     4  10  22  40  63  92 127 166 211 266 326 388
#     4  11  25  42  64  98 133 170 215 271 334 394
#     4  11  23  42  66  95 131 174 222 272 327 387
#
# _framework density 20.551738
#
# number of rings (size 3 to 8) (size 9 to 14) (size 15 to 20)
#    0.000    1.273    3.636    2.455    0.000    1.818 
#    0.000    1.818    0.000    1.091    0.000    0.000 
#    0.000    0.000    0.000    0.000    0.000    0.000 
#
# Total GULP energy -545371.949772 kJ/mol
# GULP energy per Si atom -12394.817040 kJ/mol
# Density = 2.050496 g / cm^3
# Si number density = 20.551738 Si / 1000 Ang^3
#
#
#
# Elastic Constant Matrix: (Units=GPa)
#
#
# Indices 1 2 3 4 5 6 
#
# 1 128.2844 60.4380 48.1298 0.0000 0.0000 0.0000
# 2 60.4380 119.5838 35.2802 0.0000 0.0000 0.0000
# 3 48.1298 35.2802 80.6127 0.0000 0.0000 0.0000
# 4 0.0000 0.0000 0.0000 34.6842 0.0000 0.0000
# 5 0.0000 0.0000 0.0000 0.0000 29.1856 0.0000
# 6 0.0000 0.0000 0.0000 0.0000 0.0000 33.1866
#
#
#
# Elastic Compliance Matrix: (Units=1/GPa)
#
#
# Indices 1 2 3 4 5 6 
#
# 1 0.011812 -0.004466 -0.005098 0.000000 0.000000 0.000000
# 2 -0.004466 0.011291 -0.002275 0.000000 0.000000 0.000000
# 3 -0.005098 -0.002275 0.016444 0.000000 0.000000 0.000000
# 4 0.000000 0.000000 0.000000 0.028832 0.000000 0.000000
# 5 0.000000 0.000000 0.000000 0.000000 0.034263 0.000000
# 6 0.000000 0.000000 0.000000 0.000000 0.000000 0.030133
#
#
# Mechanical properties :
#
#
# Convention : Reuss Voigt Hill
#
# Bulk Modulus (GPa) = 63.01408 68.46411 65.73909
# Shear Modulus (GPa) = 30.91365 31.72014 31.31690
#
# Velocity S-wave (km/s) = 3.88259 3.93291 3.90783
# Velocity P-wave (km/s) = 7.12931 7.34909 7.24003
#
# Compressibility (1/GPa) = 0.01586947
#
# Stress axis : x y z
#
# Youngs Moduli (GPa) = 84.66219 88.57003 60.81145
#
# Poissons Ratio (x) = 0.39553 0.31000
# Poissons Ratio (y) = 0.37807 0.13835
# Poissons Ratio (z) = 0.43159 0.20150
#
# Static dielectric constant tensor:
#      x y z
#    x 4.021830 0.000000 0.000000 
#    y 0.000000 3.790040 0.000000 
#    z 0.000000 0.000000 3.772180 
# 
# 
# High freq. dielectric constant tensor:
#      x y z
#    x 1.807220 0.000000 0.000000 
#    y 0.000000 1.804500 0.000000 
#    z 0.000000 0.000000 1.804320 
# 
# From -- ./inp_files/57339.got.cif
#   From: 2010.03.12/outbox.cif.g09.slc.cpg/sg63_29_cif.got.tgz:57339.got - 2010.04.10 19:34:48.
