data_PCOD8260962
_publ_section_title
;
Structure prediction by ZEFSAII (Michael W. Deem and Ramdas Pophale) SiO2 
 PCOD8260962
Probable space group: C M C M
;
_chemical_formula_sum "Si O2"
_cell_formula_units_Z 68
_cell_length_a 13.116965
_cell_length_b 18.898504
_cell_length_c 13.174592
_cell_angle_alpha 90.000000
_cell_angle_beta 90.000000
_cell_angle_gamma 90.000000
_cell_volume 3265.862990
_symmetry_space_group_name_H-M "C M C M"
_symmetry_group_IT_number 63
_symmetry_cell_setting 'orthorhombic'
loop_
_space_group_symop_operation_xyz
x,y,z
-x,-y,1/2+z
x,-y,-z
-x,y,1/2-z
-x,-y,-z
x,y,1/2-z
-x,y,z
x,-y,1/2+z
1/2+x,1/2+y,z
1/2-x,1/2-y,1/2+z
1/2+x,1/2-y,-z
1/2-x,1/2+y,1/2-z
1/2-x,1/2-y,-z
1/2+x,1/2+y,1/2-z
1/2-x,1/2+y,z
1/2+x,1/2-y,1/2+z
loop_
_atom_site_type_symbol
_atom_site_label
_atom_site_fract_x
_atom_site_fract_y
_atom_site_fract_z
Si Si1 0.624567 0.728953 0.250000
Si Si2 0.000000 0.953914 0.250000
Si Si3 0.345986 0.891127 0.250000
Si Si4 0.388574 0.920489 0.027658
Si Si5 0.794758 0.016977 0.250000
Si Si6 0.201374 0.126049 0.081887
Si Si7 0.500000 0.581276 0.528739
O O1 0.500000 0.725754 0.250000
O O2 0.669048 0.807338 0.250000
O O3 0.673728 0.692909 0.151068
O O4 0.085204 0.013572 0.250000
O O5 0.000000 0.905503 0.149800
O O6 0.404842 0.913749 0.148612
O O7 0.241085 0.935559 0.250000
O O8 0.500000 0.902974 0.978942
O O9 0.302105 0.864561 0.989023
O O10 0.355190 0.000000 0.000000
O O11 0.763894 0.058879 0.350900
O O12 0.102660 0.115357 0.013020
O O13 0.500000 0.500000 0.500000
#
# Coordination Sequence:
#
# PCOD8260962 Si02
#       7
#     8   4   8  16   8  16   8
#     4  11  25  45  68  96 136 180 223 269 331 416
#     4  12  22  30  60 102 132 156 210 278 336 380
#     4  12  24  43  67  96 130 175 226 275 326 406
#     4  11  23  41  66  97 131 172 224 281 330 386
#     4  11  20  37  64  98 131 163 223 279 321 391
#     4  11  22  41  66  99 130 177 221 271 339 385
#     4  12  20  34  64 100 134 166 207 279 333 390
#
# _framework density 20.821449999999999
#
# number of rings (size 3 to 8) (size 9 to 14) (size 15 to 20)
#    0.000    0.706    5.882    3.176    1.647    0.941 
#    0.000    2.353    2.588    0.000    0.000    0.000 
#    0.000    0.000    0.000    0.000    0.000    0.000 
#
# Total GULP energy -421312.489249 kJ/mol
# GULP energy per Si atom -12391.543801 kJ/mol
# Density = 2.077406 g / cm^3
# Si number density = 20.821450 Si / 1000 Ang^3
#
#
#
# Elastic Constant Matrix: (Units=GPa)
#
#
# Indices 1 2 3 4 5 6 
#
# 1 137.3580 37.0751 40.0785 0.0000 0.0000 0.0000
# 2 37.0751 125.0320 47.3964 0.0000 0.0000 0.0000
# 3 40.0785 47.3964 145.7567 0.0000 0.0000 0.0000
# 4 0.0000 0.0000 0.0000 166.4224 0.0000 0.0000
# 5 0.0000 0.0000 0.0000 0.0000 21.1433 0.0000
# 6 0.0000 0.0000 0.0000 0.0000 0.0000 1.2485
#
#
#
# Elastic Compliance Matrix: (Units=1/GPa)
#
#
# Indices 1 2 3 4 5 6 
#
# 1 0.008260 -0.001812 -0.001682 0.000000 0.000000 0.000000
# 2 -0.001812 0.009520 -0.002597 0.000000 0.000000 0.000000
# 3 -0.001682 -0.002597 0.008168 0.000000 0.000000 0.000000
# 4 0.000000 0.000000 0.000000 0.006009 0.000000 0.000000
# 5 0.000000 0.000000 0.000000 0.000000 0.047296 0.000000
# 6 0.000000 0.000000 0.000000 0.000000 0.000000 0.800944
#
#
# Mechanical properties :
#
#
# Convention : Reuss Voigt Hill
#
# Bulk Modulus (GPa) = 72.64669 73.02740 72.83705
# Shear Modulus (GPa) = 5.57434 56.66930 31.12182
#
# Velocity S-wave (km/s) = 1.63799 5.22263 3.87033
# Velocity P-wave (km/s) = 6.20833 8.45678 7.41824
#
# Compressibility (1/GPa) = 0.01376525
#
# Stress axis : x y z
#
# Youngs Moduli (GPa) = 121.06449 105.04452 122.43037
#
# Poissons Ratio (x) = 0.19030 0.20595
# Poissons Ratio (y) = 0.21933 0.31801
# Poissons Ratio (z) = 0.20365 0.27285
#
# Static dielectric constant tensor:
#      x y z
#    x 3.789570 0.000000 0.000000 
#    y 0.000000 3.446970 0.000000 
#    z 0.000000 0.000000 3.962030 
# 
# 
# High freq. dielectric constant tensor:
#      x y z
#    x 1.827040 0.000000 0.000000 
#    y 0.000000 1.778860 0.000000 
#    z 0.000000 0.000000 1.832200 
# 
# From -- ./inp_files/19211.got.cif
#   From: 2010.03.12/outbox.cif.g09.slc.cpg/sg63_10_cif.got.tgz:19211.got - 2010.04.10 19:34:48.
