data_PCOD8260876
_publ_section_title
;
Structure prediction by ZEFSAII (Michael W. Deem and Ramdas Pophale) SiO2 
 PCOD8260876
Probable space group: C M C M
;
_chemical_formula_sum "Si O2"
_cell_formula_units_Z 88
_cell_length_a 22.364942
_cell_length_b 15.570491
_cell_length_c 12.846973
_cell_angle_alpha 90.000000
_cell_angle_beta 90.000000
_cell_angle_gamma 90.000000
_cell_volume 4473.741595
_symmetry_space_group_name_H-M "C M C M"
_symmetry_group_IT_number 63
_symmetry_cell_setting 'orthorhombic'
loop_
_space_group_symop_operation_xyz
x,y,z
-x,-y,1/2+z
x,-y,-z
-x,y,1/2-z
-x,-y,-z
x,y,1/2-z
-x,y,z
x,-y,1/2+z
1/2+x,1/2+y,z
1/2-x,1/2-y,1/2+z
1/2+x,1/2-y,-z
1/2-x,1/2+y,1/2-z
1/2-x,1/2-y,-z
1/2+x,1/2+y,1/2-z
1/2-x,1/2+y,z
1/2+x,1/2-y,1/2+z
loop_
_atom_site_type_symbol
_atom_site_label
_atom_site_fract_x
_atom_site_fract_y
_atom_site_fract_z
Si Si1 0.785544 0.963049 0.129678
Si Si2 0.000000 0.095479 0.039793
Si Si3 0.188178 0.215722 0.540128
Si Si4 0.000000 0.247223 0.871747
Si Si5 0.628658 0.380972 0.628671
Si Si6 0.673212 0.000000 0.000000
Si Si7 0.115197 0.356458 0.631931
O O1 0.779913 0.977302 0.250000
O O2 0.814025 0.871876 0.104812
O O3 0.717924 0.963102 0.086898
O O4 0.828408 0.040438 0.087691
O O5 0.941438 0.103518 0.111215
O O6 0.000000 0.162167 0.943028
O O7 0.000000 0.000000 0.000000
O O8 0.250000 0.250000 0.500000
O O9 0.146821 0.203023 0.437791
O O10 0.166926 0.286534 0.621583
O O11 0.944959 0.308043 0.899425
O O12 0.000000 0.218409 0.750000
O O13 0.639698 0.362949 0.750000
O O14 0.628209 0.068295 0.050318
O O15 0.113267 0.392137 0.750000
#
# Coordination Sequence:
#
# PCOD8260876 Si02
#       7
#    16   8  16   8  16   8  16
#     4  11  22  38  60  91 132 169 207 254 312 380
#     4  12  23  41  67  91 130 175 215 257 307 376
#     4  12  21  39  62  92 128 165 209 259 314 375
#     4  10  24  44  69  95 125 167 214 263 318 374
#     4  11  24  40  61  93 132 170 208 257 310 372
#     4  12  22  41  66  91 124 166 212 264 326 372
#     4  11  24  43  66  94 124 163 214 266 319 380
#
# _framework density 19.670337
#
# number of rings (size 3 to 8) (size 9 to 14) (size 15 to 20)
#    0.000    0.727    5.455    2.455    0.000    4.000 
#    0.000    0.000    0.000    0.000    0.000    0.000 
#    0.000    0.000    0.000    0.000    0.000    0.000 
#
# Total GULP energy -545440.831491 kJ/mol
# GULP energy per Si atom -12396.382534 kJ/mol
# Density = 1.962557 g / cm^3
# Si number density = 19.670337 Si / 1000 Ang^3
#
#
#
# Elastic Constant Matrix: (Units=GPa)
#
#
# Indices 1 2 3 4 5 6 
#
# 1 110.7773 33.3551 27.9550 0.0000 0.0000 0.0000
# 2 33.3551 105.2597 48.3427 0.0000 0.0000 0.0000
# 3 27.9550 48.3427 88.2774 0.0000 0.0000 0.0000
# 4 0.0000 0.0000 0.0000 31.3076 0.0000 0.0000
# 5 0.0000 0.0000 0.0000 0.0000 31.9756 0.0000
# 6 0.0000 0.0000 0.0000 0.0000 0.0000 32.9409
#
#
#
# Elastic Compliance Matrix: (Units=1/GPa)
#
#
# Indices 1 2 3 4 5 6 
#
# 1 0.010226 -0.002342 -0.001956 0.000000 0.000000 0.000000
# 2 -0.002342 0.013229 -0.006503 0.000000 0.000000 0.000000
# 3 -0.001956 -0.006503 0.015508 0.000000 0.000000 0.000000
# 4 0.000000 0.000000 0.000000 0.031941 0.000000 0.000000
# 5 0.000000 0.000000 0.000000 0.000000 0.031274 0.000000
# 6 0.000000 0.000000 0.000000 0.000000 0.000000 0.030357
#
#
# Mechanical properties :
#
#
# Convention : Reuss Voigt Hill
#
# Bulk Modulus (GPa) = 57.59725 58.17999 57.88862
# Shear Modulus (GPa) = 31.26478 32.22224 31.74351
#
# Velocity S-wave (km/s) = 3.99110 4.05175 4.02154
# Velocity P-wave (km/s) = 7.11220 7.17849 7.14542
#
# Compressibility (1/GPa) = 0.01736194
#
# Stress axis : x y z
#
# Youngs Moduli (GPa) = 97.79113 75.59099 64.48165
#
# Poissons Ratio (x) = 0.17706 0.12610
# Poissons Ratio (y) = 0.22905 0.41931
# Poissons Ratio (z) = 0.19124 0.49155
#
# Static dielectric constant tensor:
#      x y z
#    x 3.575080 0.000000 0.000000 
#    y 0.000000 3.656910 0.000000 
#    z 0.000000 0.000000 3.692610 
# 
# 
# High freq. dielectric constant tensor:
#      x y z
#    x 1.772770 0.000000 0.000000 
#    y 0.000000 1.760470 0.000000 
#    z 0.000000 0.000000 1.779840 
# 
# From -- ./inp_files/35268.got.cif
#   From: 2010.03.12/outbox.cif.g09.slc.cpg/sg63_18_cif.got.tgz:35268.got - 2010.04.10 19:34:48.
