data_PCOD8260787
_publ_section_title
;
Structure prediction by ZEFSAII (Michael W. Deem and Ramdas Pophale) SiO2 
 PCOD8260787
Probable space group: C M C M
;
_chemical_formula_sum "Si O2"
_cell_formula_units_Z 80
_cell_length_a 25.418905
_cell_length_b 8.747388
_cell_length_c 15.847040
_cell_angle_alpha 90.000000
_cell_angle_beta 90.000000
_cell_angle_gamma 90.000000
_cell_volume 3523.573886
_symmetry_space_group_name_H-M "C M C M"
_symmetry_group_IT_number 63
_symmetry_cell_setting 'orthorhombic'
loop_
_space_group_symop_operation_xyz
x,y,z
-x,-y,1/2+z
x,-y,-z
-x,y,1/2-z
-x,-y,-z
x,y,1/2-z
-x,y,z
x,-y,1/2+z
1/2+x,1/2+y,z
1/2-x,1/2-y,1/2+z
1/2+x,1/2-y,-z
1/2-x,1/2+y,1/2-z
1/2-x,1/2-y,-z
1/2+x,1/2+y,1/2-z
1/2-x,1/2+y,z
1/2+x,1/2-y,1/2+z
loop_
_atom_site_type_symbol
_atom_site_label
_atom_site_fract_x
_atom_site_fract_y
_atom_site_fract_z
Si Si1 0.781601 0.139584 0.656873
Si Si2 0.907898 0.825255 0.510319
Si Si3 0.558162 0.125581 0.842811
Si Si4 0.612099 0.181403 0.155706
Si Si5 0.290476 0.674481 0.434307
O O1 0.784932 0.064893 0.750000
O O2 0.827479 0.266249 0.644524
O O3 0.726261 0.231616 0.649945
O O4 0.786894 0.008707 0.584250
O O5 0.942042 0.754127 0.585175
O O6 0.922076 0.756706 0.418726
O O7 0.848346 0.788287 0.536018
O O8 0.921947 0.000000 0.500000
O O9 0.566701 0.201482 0.750000
O O10 0.500000 0.048285 0.845922
O O11 0.604100 0.000248 0.856840
O O12 0.592099 0.228541 0.250000
O O13 0.250000 0.750000 0.500000
#
# Coordination Sequence:
#
# PCOD8260787 Si02
#       5
#    16  16  16  16  16
#     4  11  24  40  62  94 134 184 236 281 335 405
#     4  12  24  42  67 101 141 186 226 284 347 416
#     4  10  25  48  74 103 134 174 231 294 353 417
#     4  10  22  43  67  95 134 178 230 285 344 409
#     4  12  23  41  62  94 139 187 229 278 336 405
#
# _framework density 22.704222000000001
#
# number of rings (size 3 to 8) (size 9 to 14) (size 15 to 20)
#    0.000    1.000    4.000    1.800    2.800    6.000 
#    0.000    0.000    0.000    2.400    0.000    0.000 
#    0.000    0.000    0.000    0.000    0.000    0.000 
#
# Total GULP energy -495593.635336 kJ/mol
# GULP energy per Si atom -12389.840883 kJ/mol
# Density = 2.265255 g / cm^3
# Si number density = 22.704222 Si / 1000 Ang^3
#
#
#
# Elastic Constant Matrix: (Units=GPa)
#
#
# Indices 1 2 3 4 5 6 
#
# 1 65.8901 46.2882 30.9675 0.0000 0.0000 0.0000
# 2 46.2882 117.2053 87.9417 0.0000 0.0000 0.0000
# 3 30.9675 87.9417 175.4904 0.0000 0.0000 0.0000
# 4 0.0000 0.0000 0.0000 43.0110 0.0000 0.0000
# 5 0.0000 0.0000 0.0000 0.0000 25.6783 0.0000
# 6 0.0000 0.0000 0.0000 0.0000 0.0000 23.0403
#
#
#
# Elastic Compliance Matrix: (Units=1/GPa)
#
#
# Indices 1 2 3 4 5 6 
#
# 1 0.021061 -0.008861 0.000724 0.000000 0.000000 0.000000
# 2 -0.008861 0.017401 -0.007156 0.000000 0.000000 0.000000
# 3 0.000724 -0.007156 0.009157 0.000000 0.000000 0.000000
# 4 0.000000 0.000000 0.000000 0.023250 0.000000 0.000000
# 5 0.000000 0.000000 0.000000 0.000000 0.038943 0.000000
# 6 0.000000 0.000000 0.000000 0.000000 0.000000 0.043402
#
#
# Mechanical properties :
#
#
# Convention : Reuss Voigt Hill
#
# Bulk Modulus (GPa) = 58.71192 76.55339 67.63265
# Shear Modulus (GPa) = 26.38809 31.23849 28.81329
#
# Velocity S-wave (km/s) = 3.41288 3.71332 3.56627
# Velocity P-wave (km/s) = 6.43786 7.22329 6.84185
#
# Compressibility (1/GPa) = 0.01703232
#
# Stress axis : x y z
#
# Youngs Moduli (GPa) = 47.48007 57.46743 109.20828
#
# Poissons Ratio (x) = 0.50922 -0.07905
# Poissons Ratio (y) = 0.42072 0.78154
# Poissons Ratio (z) = -0.03437 0.41126
#
# Static dielectric constant tensor:
#      x y z
#    x 4.061240 0.000000 0.000000 
#    y 0.000000 3.982960 0.000000 
#    z 0.000000 0.000000 4.934260 
# 
# 
# High freq. dielectric constant tensor:
#      x y z
#    x 1.871090 0.000000 0.000000 
#    y 0.000000 1.881940 0.000000 
#    z 0.000000 0.000000 1.932190 
# 
# From -- ./inp_files/48813.got.cif
#   From: 2010.03.12/outbox.cif.g09.slc.cpg/sg63_25_cif.got.tgz:48813.got - 2010.04.10 19:34:48.
