data_PCOD8260298
_publ_section_title
;
Structure prediction by ZEFSAII (Michael W. Deem and Ramdas Pophale) SiO2 
 PCOD8260298
Probable space group: C M C M
;
_chemical_formula_sum "Si O2"
_cell_formula_units_Z 72
_cell_length_a 13.048802
_cell_length_b 32.326817
_cell_length_c 8.641053
_cell_angle_alpha 90.000000
_cell_angle_beta 90.000000
_cell_angle_gamma 90.000000
_cell_volume 3645.022848
_symmetry_space_group_name_H-M "C M C M"
_symmetry_group_IT_number 63
_symmetry_cell_setting 'orthorhombic'
loop_
_space_group_symop_operation_xyz
x,y,z
-x,-y,1/2+z
x,-y,-z
-x,y,1/2-z
-x,-y,-z
x,y,1/2-z
-x,y,z
x,-y,1/2+z
1/2+x,1/2+y,z
1/2-x,1/2-y,1/2+z
1/2+x,1/2-y,-z
1/2-x,1/2+y,1/2-z
1/2-x,1/2-y,-z
1/2+x,1/2+y,1/2-z
1/2-x,1/2+y,z
1/2+x,1/2-y,1/2+z
loop_
_atom_site_type_symbol
_atom_site_label
_atom_site_fract_x
_atom_site_fract_y
_atom_site_fract_z
Si Si1 0.117438 0.455072 0.431805
Si Si2 0.703250 0.314304 0.932237
Si Si3 0.612198 0.239125 0.072396
Si Si4 0.500000 0.545623 0.566500
Si Si5 0.805153 0.907156 0.934142
O O1 0.139595 0.500000 0.500000
O O2 0.139835 0.456009 0.250000
O O3 0.194190 0.423560 0.514524
O O4 0.000000 0.441543 0.466496
O O5 0.706863 0.317927 0.750000
O O6 0.809094 0.294378 0.997629
O O7 0.686348 0.360207 0.998012
O O8 0.613917 0.283209 0.984585
O O9 0.639229 0.248230 0.250000
O O10 0.500000 0.219712 0.052234
O O11 0.500000 0.500000 0.500000
O O12 0.500000 0.543954 0.750000
O O13 0.602412 0.567954 0.509720
O O14 0.814916 0.910093 0.750000
#
# Coordination Sequence:
#
# PCOD8260298 Si02
#       5
#    16  16  16   8  16
#     4  10  21  38  60  86 116 151 191 236 288 348
#     4   9  20  36  54  80 112 146 186 232 282 339
#     4   9  18  34  56  80 109 146 187 231 280 336
#     4  12  26  44  64  86 118 158 200 248 302 356
#     4  11  23  39  60  87 119 155 196 243 293 352
#
# _framework density 19.752963999999999
#
# number of rings (size 3 to 8) (size 9 to 14) (size 15 to 20)
#    0.000    2.000    0.000    3.000    1.556    4.444 
#    0.000    2.222    0.000    0.000    0.000    0.000 
#    0.000    0.000    0.000    0.000    0.000    0.000 
#
# Total GULP energy -446353.069771 kJ/mol
# GULP energy per Si atom -12398.696383 kJ/mol
# Density = 1.970800 g / cm^3
# Si number density = 19.752964 Si / 1000 Ang^3
#
#
#
# Elastic Constant Matrix: (Units=GPa)
#
#
# Indices 1 2 3 4 5 6 
#
# 1 116.7789 60.7550 36.3304 0.0000 0.0000 0.0000
# 2 60.7550 153.0190 44.9454 0.0000 0.0000 0.0000
# 3 36.3304 44.9454 75.5066 0.0000 0.0000 0.0000
# 4 0.0000 0.0000 0.0000 28.9396 0.0000 0.0000
# 5 0.0000 0.0000 0.0000 0.0000 33.4542 0.0000
# 6 0.0000 0.0000 0.0000 0.0000 0.0000 19.6996
#
#
#
# Elastic Compliance Matrix: (Units=1/GPa)
#
#
# Indices 1 2 3 4 5 6 
#
# 1 0.011472 -0.003555 -0.003403 0.000000 0.000000 0.000000
# 2 -0.003555 0.009022 -0.003660 0.000000 0.000000 0.000000
# 3 -0.003403 -0.003660 0.017060 0.000000 0.000000 0.000000
# 4 0.000000 0.000000 0.000000 0.034555 0.000000 0.000000
# 5 0.000000 0.000000 0.000000 0.000000 0.029892 0.000000
# 6 0.000000 0.000000 0.000000 0.000000 0.000000 0.050762
#
#
# Mechanical properties :
#
#
# Convention : Reuss Voigt Hill
#
# Bulk Modulus (GPa) = 61.28644 69.92956 65.60800
# Shear Modulus (GPa) = 27.86498 29.97026 28.91762
#
# Velocity S-wave (km/s) = 3.75997 3.89942 3.83033
# Velocity P-wave (km/s) = 7.06708 7.46679 7.26968
#
# Compressibility (1/GPa) = 0.01631682
#
# Stress axis : x y z
#
# Youngs Moduli (GPa) = 87.17228 110.84603 58.61721
#
# Poissons Ratio (x) = 0.39406 0.19950
# Poissons Ratio (y) = 0.30990 0.21451
# Poissons Ratio (z) = 0.29669 0.40565
#
# Static dielectric constant tensor:
#      x y z
#    x 5.977420 0.000000 0.000000 
#    y 0.000000 3.798840 0.000000 
#    z 0.000000 0.000000 3.601200 
# 
# 
# High freq. dielectric constant tensor:
#      x y z
#    x 1.781570 0.000000 0.000000 
#    y 0.000000 1.770320 0.000000 
#    z 0.000000 0.000000 1.769540 
# 
# From -- ./inp_files/4660.got.cif
#   From: 2010.03.12/outbox.cif.g09.slc.cpg/sg63_3_cif.got.tgz:4660.got - 2010.04.10 19:34:48.
