data_PCOD8260122
_publ_section_title
;
Structure prediction by ZEFSAII (Michael W. Deem and Ramdas Pophale) SiO2 
 PCOD8260122
Probable space group: C M C M
;
_chemical_formula_sum "Si O2"
_cell_formula_units_Z 72
_cell_length_a 21.814571
_cell_length_b 19.504578
_cell_length_c 8.907032
_cell_angle_alpha 90.000000
_cell_angle_beta 90.000000
_cell_angle_gamma 90.000000
_cell_volume 3789.799618
_symmetry_space_group_name_H-M "C M C M"
_symmetry_group_IT_number 63
_symmetry_cell_setting 'orthorhombic'
loop_
_space_group_symop_operation_xyz
x,y,z
-x,-y,1/2+z
x,-y,-z
-x,y,1/2-z
-x,-y,-z
x,y,1/2-z
-x,y,z
x,-y,1/2+z
1/2+x,1/2+y,z
1/2-x,1/2-y,1/2+z
1/2+x,1/2-y,-z
1/2-x,1/2+y,1/2-z
1/2-x,1/2-y,-z
1/2+x,1/2+y,1/2-z
1/2-x,1/2+y,z
1/2+x,1/2-y,1/2+z
loop_
_atom_site_type_symbol
_atom_site_label
_atom_site_fract_x
_atom_site_fract_y
_atom_site_fract_z
Si Si1 0.106857 0.340240 0.074268
Si Si2 0.071628 0.796197 0.074488
Si Si3 0.280838 0.068723 0.924230
Si Si4 0.142813 0.069973 0.926774
Si Si5 0.000000 0.425597 0.571667
O O1 0.090621 0.345758 0.250000
O O2 0.174987 0.367696 0.038790
O O3 0.105081 0.262030 0.021396
O O4 0.059557 0.384721 0.979479
O O5 0.084287 0.783278 0.250000
O O6 0.099475 0.868249 0.020276
O O7 0.000000 0.795887 0.037888
O O8 0.279736 0.052651 0.750000
O O9 0.212262 0.085913 0.981734
O O10 0.306923 0.000000 0.000000
O O11 0.139454 0.060688 0.750000
O O12 0.118171 0.000000 0.000000
O O13 0.000000 0.500000 0.500000
O O14 0.000000 0.432094 0.750000
#
# Coordination Sequence:
#
# PCOD8260122 Si02
#       5
#    16  16  16  16   8
#     4  11  22  36  55  81 111 145 186 230 274 325
#     4  10  21  37  56  79 111 150 186 226 278 332
#     4   9  19  35  55  80 110 143 182 229 277 326
#     4   9  19  37  58  81 110 143 183 230 280 332
#     4  12  24  38  56  80 111 148 187 226 272 324
#
# _framework density 18.998366000000001
#
# number of rings (size 3 to 8) (size 9 to 14) (size 15 to 20)
#    0.000    2.000    1.111    2.333    0.000    5.778 
#    0.000    0.000    0.000    0.000    0.000    0.000 
#    0.000    0.000    0.000    0.000    0.000    0.000 
#
# Total GULP energy -446502.222362 kJ/mol
# GULP energy per Si atom -12402.839510 kJ/mol
# Density = 1.895513 g / cm^3
# Si number density = 18.998366 Si / 1000 Ang^3
#
#
#
# Elastic Constant Matrix: (Units=GPa)
#
#
# Indices 1 2 3 4 5 6 
#
# 1 69.5934 60.1946 31.2136 0.0000 0.0000 0.0000
# 2 60.1946 163.1176 52.4091 0.0000 0.0000 0.0000
# 3 31.2136 52.4091 66.9957 0.0000 0.0000 0.0000
# 4 0.0000 0.0000 0.0000 38.1447 0.0000 0.0000
# 5 0.0000 0.0000 0.0000 0.0000 18.5428 0.0000
# 6 0.0000 0.0000 0.0000 0.0000 0.0000 39.3265
#
#
#
# Elastic Compliance Matrix: (Units=1/GPa)
#
#
# Indices 1 2 3 4 5 6 
#
# 1 0.022437 -0.006573 -0.005311 0.000000 0.000000 0.000000
# 2 -0.006573 0.010114 -0.004850 0.000000 0.000000 0.000000
# 3 -0.005311 -0.004850 0.021195 0.000000 0.000000 0.000000
# 4 0.000000 0.000000 0.000000 0.026216 0.000000 0.000000
# 5 0.000000 0.000000 0.000000 0.000000 0.053929 0.000000
# 6 0.000000 0.000000 0.000000 0.000000 0.000000 0.025428
#
#
# Mechanical properties :
#
#
# Convention : Reuss Voigt Hill
#
# Bulk Modulus (GPa) = 49.31608 65.26013 57.28810
# Shear Modulus (GPa) = 25.05669 29.59543 27.32606
#
# Velocity S-wave (km/s) = 3.63559 3.95116 3.79666
# Velocity P-wave (km/s) = 6.60589 7.43240 7.03130
#
# Compressibility (1/GPa) = 0.02027736
#
# Stress axis : x y z
#
# Youngs Moduli (GPa) = 44.56939 98.86811 47.18142
#
# Poissons Ratio (x) = 0.64989 0.25060
# Poissons Ratio (y) = 0.29297 0.22882
# Poissons Ratio (z) = 0.23672 0.47949
#
# Static dielectric constant tensor:
#      x y z
#    x 3.719160 0.000000 0.000000 
#    y 0.000000 3.640440 0.000000 
#    z 0.000000 0.000000 3.472360 
# 
# 
# High freq. dielectric constant tensor:
#      x y z
#    x 1.741000 0.000000 0.000000 
#    y 0.000000 1.743670 0.000000 
#    z 0.000000 0.000000 1.735590 
# 
# From -- ./inp_files/7796.got.cif
#   From: 2010.03.12/outbox.cif.g09.slc.cpg/sg63_4_cif.got.tgz:7796.got - 2010.04.10 19:34:48.
