data_PCOD8260048
_publ_section_title
;
Structure prediction by ZEFSAII (Michael W. Deem and Ramdas Pophale) SiO2 
 PCOD8260048
Probable space group: C M C M
;
_chemical_formula_sum "Si O2"
_cell_formula_units_Z 80
_cell_length_a 14.214144
_cell_length_b 13.617936
_cell_length_c 22.294058
_cell_angle_alpha 90.000000
_cell_angle_beta 90.000000
_cell_angle_gamma 90.000000
_cell_volume 4315.400686
_symmetry_space_group_name_H-M "C M C M"
_symmetry_group_IT_number 63
_symmetry_cell_setting 'orthorhombic'
loop_
_space_group_symop_operation_xyz
x,y,z
-x,-y,1/2+z
x,-y,-z
-x,y,1/2-z
-x,-y,-z
x,y,1/2-z
-x,y,z
x,-y,1/2+z
1/2+x,1/2+y,z
1/2-x,1/2-y,1/2+z
1/2+x,1/2-y,-z
1/2-x,1/2+y,1/2-z
1/2-x,1/2-y,-z
1/2+x,1/2+y,1/2-z
1/2-x,1/2+y,z
1/2+x,1/2-y,1/2+z
loop_
_atom_site_type_symbol
_atom_site_label
_atom_site_fract_x
_atom_site_fract_y
_atom_site_fract_z
Si Si1 0.611211 0.221464 0.978771
Si Si2 0.500000 0.245700 0.318976
Si Si3 0.500000 0.028407 0.178731
Si Si4 0.674878 0.055407 0.611476
Si Si5 0.702494 0.295649 0.179936
Si Si6 0.261116 0.153450 0.080294
O O1 0.500000 0.240709 0.981765
O O2 0.635072 0.124971 0.940354
O O3 0.662142 0.317661 0.951086
O O4 0.651588 0.203968 0.045256
O O5 0.500000 0.216340 0.250000
O O6 0.408230 0.309142 0.334048
O O7 0.500000 0.137998 0.349790
O O8 0.500000 0.022225 0.250000
O O9 0.408538 0.974482 0.154881
O O10 0.750297 0.108539 0.653080
O O11 0.727240 0.963405 0.580952
O O12 0.725297 0.284320 0.250000
O O13 0.739193 0.196300 0.147893
#
# Coordination Sequence:
#
# PCOD8260048 Si02
#       6
#    16   8   8  16  16  16
#     4  10  22  39  60  84 116 150 192 236 285 340
#     4   9  18  34  53  76 108 148 193 228 272 335
#     4  11  20  32  56  87 112 150 196 237 287 341
#     4  11  21  36  57  86 115 149 188 242 284 343
#     4  10  21  36  56  83 115 148 188 236 286 339
#     4  10  22  37  59  86 116 148 191 234 289 337
#
# _framework density 18.538254999999999
#
# number of rings (size 3 to 8) (size 9 to 14) (size 15 to 20)
#    0.000    1.800    3.000    1.200    2.800    1.600 
#    1.800    0.000    0.000    3.600    0.000    0.000 
#    0.000    0.000    0.000    0.000    0.000    0.000 
#
# Total GULP energy -495975.810585 kJ/mol
# GULP energy per Si atom -12399.395265 kJ/mol
# Density = 1.849606 g / cm^3
# Si number density = 18.538255 Si / 1000 Ang^3
#
#
#
# Elastic Constant Matrix: (Units=GPa)
#
#
# Indices 1 2 3 4 5 6 
#
# 1 140.1684 56.9194 34.6240 0.0000 0.0000 0.0000
# 2 56.9194 84.0654 23.0769 0.0000 0.0000 0.0000
# 3 34.6240 23.0769 90.1687 0.0000 0.0000 0.0000
# 4 0.0000 0.0000 0.0000 22.6864 0.0000 0.0000
# 5 0.0000 0.0000 0.0000 0.0000 22.5643 0.0000
# 6 0.0000 0.0000 0.0000 0.0000 0.0000 42.1867
#
#
#
# Elastic Compliance Matrix: (Units=1/GPa)
#
#
# Indices 1 2 3 4 5 6 
#
# 1 0.010275 -0.006318 -0.002329 0.000000 0.000000 0.000000
# 2 -0.006318 0.016679 -0.001843 0.000000 0.000000 0.000000
# 3 -0.002329 -0.001843 0.012456 0.000000 0.000000 0.000000
# 4 0.000000 0.000000 0.000000 0.044079 0.000000 0.000000
# 5 0.000000 0.000000 0.000000 0.000000 0.044318 0.000000
# 6 0.000000 0.000000 0.000000 0.000000 0.000000 0.023704
#
#
# Mechanical properties :
#
#
# Convention : Reuss Voigt Hill
#
# Bulk Modulus (GPa) = 54.25370 60.40480 57.32925
# Shear Modulus (GPa) = 27.99025 30.80629 29.39827
#
# Velocity S-wave (km/s) = 3.88991 4.08090 3.98655
# Velocity P-wave (km/s) = 7.03595 7.40673 7.22372
#
# Compressibility (1/GPa) = 0.01843192
#
# Stress axis : x y z
#
# Youngs Moduli (GPa) = 97.32346 59.95546 80.28213
#
# Poissons Ratio (x) = 0.37879 0.18694
# Poissons Ratio (y) = 0.61487 0.14793
# Poissons Ratio (z) = 0.22663 0.11048
#
# Static dielectric constant tensor:
#      x y z
#    x 3.494040 0.000000 0.000000 
#    y 0.000000 3.337090 0.000000 
#    z 0.000000 0.000000 3.504380 
# 
# 
# High freq. dielectric constant tensor:
#      x y z
#    x 1.720460 0.000000 0.000000 
#    y 0.000000 1.706530 0.000000 
#    z 0.000000 0.000000 1.732880 
# 
# From -- ./inp_files/61157.got.cif
#   From: 2010.03.12/outbox.cif.g09.slc.cpg/sg63_31_cif.got.tgz:61157.got - 2010.04.10 19:34:48.
