data_PCOD8260885
_publ_section_title
;
Structure prediction by ZEFSAII (Michael W. Deem and Ramdas Pophale) SiO2 
 PCOD8260885
Probable space group: C M C M
;
_chemical_formula_sum "Si O2"
_cell_formula_units_Z 64
_cell_length_a 9.391790
_cell_length_b 23.221491
_cell_length_c 15.059937
_cell_angle_alpha 90.000000
_cell_angle_beta 90.000000
_cell_angle_gamma 90.000000
_cell_volume 3284.442247
_symmetry_space_group_name_H-M "C M C M"
_symmetry_group_IT_number 63
_symmetry_cell_setting 'orthorhombic'
loop_
_space_group_symop_operation_xyz
x,y,z
-x,-y,1/2+z
x,-y,-z
-x,y,1/2-z
-x,-y,-z
x,y,1/2-z
-x,y,z
x,-y,1/2+z
1/2+x,1/2+y,z
1/2-x,1/2-y,1/2+z
1/2+x,1/2-y,-z
1/2-x,1/2+y,1/2-z
1/2-x,1/2-y,-z
1/2+x,1/2+y,1/2-z
1/2-x,1/2+y,z
1/2+x,1/2-y,1/2+z
loop_
_atom_site_type_symbol
_atom_site_label
_atom_site_fract_x
_atom_site_fract_y
_atom_site_fract_z
Si Si1 0.500000 0.259742 0.250000
Si Si2 0.500000 0.076488 0.250000
Si Si3 0.785716 0.929773 0.349598
Si Si4 0.750897 0.330697 0.750000
Si Si5 0.000000 0.018674 0.399144
Si Si6 0.500000 0.342474 0.418072
Si Si7 0.500000 0.654518 0.383756
Si Si8 0.000000 0.480936 0.399747
O O1 0.645582 0.223901 0.250000
O O2 0.500000 0.295153 0.341447
O O3 0.645692 0.113519 0.250000
O O4 0.500000 0.036412 0.336694
O O5 0.789342 0.905550 0.250000
O O6 0.861388 0.882827 0.411114
O O7 0.861027 0.992140 0.352439
O O8 0.628206 0.937688 0.383502
O O9 0.646183 0.327320 0.835058
O O10 0.000000 0.086037 0.387817
O O11 0.000000 0.000000 0.500000
O O12 0.500000 0.316538 0.517957
O O13 0.000000 0.500000 0.500000
#
# Coordination Sequence:
#
# PCOD8260885 Si02
#       8
#     4   4  16   8   8   8   8   8
#     4  11  24  52  66  86 112 162 212 283 330 356
#     4  11  22  42  58  88 128 188 194 247 304 360
#     4  11  21  37  55  96 123 176 203 243 297 370
#     4  10  26  42  66  88 124 158 218 260 318 364
#     4  11  19  32  60  93 134 163 203 229 295 380
#     4  11  23  41  72  86 123 159 212 261 313 369
#     4  11  23  41  64 101 123 159 202 259 304 385
#     4  12  25  35  56  88 143 165 204 242 300 366
#
# _framework density 19.485803000000001
#
# number of rings (size 3 to 8) (size 9 to 14) (size 15 to 20)
#    0.000    1.000    5.000    3.375    7.000    1.000 
#    0.000    2.500    0.000    0.000    0.000    0.000 
#    0.000    0.000    0.000    0.000    0.000    0.000 
#
# Total GULP energy -396732.092303 kJ/mol
# GULP energy per Si atom -12397.877884 kJ/mol
# Density = 1.944145 g / cm^3
# Si number density = 19.485803 Si / 1000 Ang^3
#
#
#
# Elastic Constant Matrix: (Units=GPa)
#
#
# Indices 1 2 3 4 5 6 
#
# 1 174.4678 52.2763 58.9054 0.0000 0.0000 0.0000
# 2 52.2763 93.1710 41.5977 0.0000 0.0000 0.0000
# 3 58.9054 41.5977 175.8321 0.0000 0.0000 0.0000
# 4 0.0000 0.0000 0.0000 27.4562 0.0000 0.0000
# 5 0.0000 0.0000 0.0000 0.0000 30.4401 0.0000
# 6 0.0000 0.0000 0.0000 0.0000 0.0000 19.1207
#
#
#
# Elastic Compliance Matrix: (Units=1/GPa)
#
#
# Indices 1 2 3 4 5 6 
#
# 1 0.007294 -0.003356 -0.001650 0.000000 0.000000 0.000000
# 2 -0.003356 0.013545 -0.002080 0.000000 0.000000 0.000000
# 3 -0.001650 -0.002080 0.006732 0.000000 0.000000 0.000000
# 4 0.000000 0.000000 0.000000 0.036422 0.000000 0.000000
# 5 0.000000 0.000000 0.000000 0.000000 0.032851 0.000000
# 6 0.000000 0.000000 0.000000 0.000000 0.000000 0.052299
#
#
# Mechanical properties :
#
#
# Convention : Reuss Voigt Hill
#
# Bulk Modulus (GPa) = 74.63082 83.22552 78.92817
# Shear Modulus (GPa) = 29.80069 34.78285 32.29177
#
# Velocity S-wave (km/s) = 3.91494 4.22955 4.07528
# Velocity P-wave (km/s) = 7.66935 8.16429 7.92069
#
# Compressibility (1/GPa) = 0.01339929
#
# Stress axis : x y z
#
# Youngs Moduli (GPa) = 137.09314 73.82977 148.54474
#
# Poissons Ratio (x) = 0.24778 0.24505
# Poissons Ratio (y) = 0.46011 0.30897
# Poissons Ratio (z) = 0.22616 0.15357
#
# Static dielectric constant tensor:
#      x y z
#    x 3.771960 0.000000 0.000000 
#    y 0.000000 3.479730 0.000000 
#    z 0.000000 0.000000 3.617290 
# 
# 
# High freq. dielectric constant tensor:
#      x y z
#    x 1.774730 0.000000 0.000000 
#    y 0.000000 1.730610 0.000000 
#    z 0.000000 0.000000 1.775750 
# 
# From -- ./inp_files/27855.got.cif
#   From: 2010.03.12/outbox.cif.g09.slc.cpg/sg63_14_cif.got.tgz:27855.got - 2010.04.10 19:34:48.
