data_PCOD8260006
_publ_section_title
;
Structure prediction by ZEFSAII (Michael W. Deem and Ramdas Pophale) SiO2 
 PCOD8260006
Probable space group: C M C M
;
_chemical_formula_sum "Si O2"
_cell_formula_units_Z 96
_cell_length_a 22.863248
_cell_length_b 11.748555
_cell_length_c 18.369523
_cell_angle_alpha 90.000000
_cell_angle_beta 90.000000
_cell_angle_gamma 90.000000
_cell_volume 4934.239899
_symmetry_space_group_name_H-M "C M C M"
_symmetry_group_IT_number 63
_symmetry_cell_setting 'orthorhombic'
loop_
_space_group_symop_operation_xyz
x,y,z
-x,-y,1/2+z
x,-y,-z
-x,y,1/2-z
-x,-y,-z
x,y,1/2-z
-x,y,z
x,-y,1/2+z
1/2+x,1/2+y,z
1/2-x,1/2-y,1/2+z
1/2+x,1/2-y,-z
1/2-x,1/2+y,1/2-z
1/2-x,1/2-y,-z
1/2+x,1/2+y,1/2-z
1/2-x,1/2+y,z
1/2+x,1/2-y,1/2+z
loop_
_atom_site_type_symbol
_atom_site_label
_atom_site_fract_x
_atom_site_fract_y
_atom_site_fract_z
Si Si1 0.935825 0.811244 0.941070
Si Si2 0.931000 0.805806 0.394423
Si Si3 0.724177 0.319072 0.833778
Si Si4 0.336522 0.142721 0.572079
Si Si5 0.340343 0.884486 0.905951
Si Si6 0.384090 0.526095 0.333135
O O1 0.895599 0.710413 0.913683
O O2 0.931136 0.917882 0.886984
O O3 0.000000 0.759240 0.937214
O O4 0.922686 0.851060 0.023350
O O5 0.900601 0.681656 0.386999
O O6 0.000000 0.798407 0.372071
O O7 0.892689 0.890749 0.343970
O O8 0.717061 0.284820 0.750000
O O9 0.713286 0.205833 0.881451
O O10 0.790204 0.355069 0.848647
O O11 0.680583 0.425005 0.853566
O O12 0.317986 0.144157 0.487454
O O13 0.351226 0.018213 0.601550
O O14 0.398711 0.557232 0.250000
#
# Coordination Sequence:
#
# PCOD8260006 Si02
#       6
#    16  16  16  16  16  16
#     4   9  18  35  58  82 110 146 186 227 274 329
#     4  10  21  36  56  84 116 148 183 227 283 340
#     4  10  22  38  57  80 109 148 191 233 278 329
#     4   9  20  38  56  83 111 141 187 230 278 331
#     4  10  21  37  58  82 112 146 185 228 283 335
#     4  10  21  36  54  81 113 146 187 233 279 327
#
# _framework density 19.455884999999999
#
# number of rings (size 3 to 8) (size 9 to 14) (size 15 to 20)
#    0.000    2.333    0.000    1.500    2.333    4.667 
#    6.000    3.333    0.000    0.000    0.000    4.667 
#    0.000    0.000    0.000    0.000    0.000    0.000 
#
# Total GULP energy -595079.962590 kJ/mol
# GULP energy per Si atom -12397.499221 kJ/mol
# Density = 1.941160 g / cm^3
# Si number density = 19.455885 Si / 1000 Ang^3
#
#
#
# Elastic Constant Matrix: (Units=GPa)
#
#
# Indices 1 2 3 4 5 6 
#
# 1 83.8101 33.4252 27.8306 0.0000 0.0000 0.0000
# 2 33.4252 110.8898 28.7499 0.0000 0.0000 0.0000
# 3 27.8306 28.7499 62.0782 0.0000 0.0000 0.0000
# 4 0.0000 0.0000 0.0000 20.2472 0.0000 0.0000
# 5 0.0000 0.0000 0.0000 0.0000 22.5302 0.0000
# 6 0.0000 0.0000 0.0000 0.0000 0.0000 16.9352
#
#
#
# Elastic Compliance Matrix: (Units=1/GPa)
#
#
# Indices 1 2 3 4 5 6 
#
# 1 0.014923 -0.003141 -0.005236 0.000000 0.000000 0.000000
# 2 -0.003141 0.010910 -0.003644 0.000000 0.000000 0.000000
# 3 -0.005236 -0.003644 0.020144 0.000000 0.000000 0.000000
# 4 0.000000 0.000000 0.000000 0.049390 0.000000 0.000000
# 5 0.000000 0.000000 0.000000 0.000000 0.044385 0.000000
# 6 0.000000 0.000000 0.000000 0.000000 0.000000 0.059049
#
#
# Mechanical properties :
#
#
# Convention : Reuss Voigt Hill
#
# Bulk Modulus (GPa) = 45.59004 48.53217 47.06111
# Shear Modulus (GPa) = 21.72474 23.06068 22.39271
#
# Velocity S-wave (km/s) = 3.34520 3.44652 3.39624
# Velocity P-wave (km/s) = 6.19709 6.39038 6.29448
#
# Compressibility (1/GPa) = 0.02193461
#
# Stress axis : x y z
#
# Youngs Moduli (GPa) = 67.01110 91.66279 49.64324
#
# Poissons Ratio (x) = 0.28789 0.25991
# Poissons Ratio (y) = 0.21047 0.18092
# Poissons Ratio (z) = 0.35084 0.33406
#
# Static dielectric constant tensor:
#      x y z
#    x 3.483650 0.000000 0.000000 
#    y 0.000000 3.587770 0.000000 
#    z 0.000000 0.000000 3.530210 
# 
# 
# High freq. dielectric constant tensor:
#      x y z
#    x 1.752030 0.000000 0.000000 
#    y 0.000000 1.753960 0.000000 
#    z 0.000000 0.000000 1.753270 
# 
# From -- ./inp_files/47984.got.cif
#   From: 2010.03.12/outbox.cif.g09.slc.cpg/sg63_24_cif.got.tgz:47984.got - 2010.04.10 19:34:48.
