data_PCOD8260259
_publ_section_title
;
Structure prediction by ZEFSAII (Michael W. Deem and Ramdas Pophale) SiO2 
 PCOD8260259
Probable space group: C M C M
;
_chemical_formula_sum "Si O2"
_cell_formula_units_Z 80
_cell_length_a 8.370528
_cell_length_b 18.317599
_cell_length_c 25.639211
_cell_angle_alpha 90.000000
_cell_angle_beta 90.000000
_cell_angle_gamma 90.000000
_cell_volume 3931.208311
_symmetry_space_group_name_H-M "C M C M"
_symmetry_group_IT_number 63
_symmetry_cell_setting 'orthorhombic'
loop_
_space_group_symop_operation_xyz
x,y,z
-x,-y,1/2+z
x,-y,-z
-x,y,1/2-z
-x,-y,-z
x,y,1/2-z
-x,y,z
x,-y,1/2+z
1/2+x,1/2+y,z
1/2-x,1/2-y,1/2+z
1/2+x,1/2-y,-z
1/2-x,1/2+y,1/2-z
1/2-x,1/2-y,-z
1/2+x,1/2+y,1/2-z
1/2-x,1/2+y,z
1/2+x,1/2-y,1/2+z
loop_
_atom_site_type_symbol
_atom_site_label
_atom_site_fract_x
_atom_site_fract_y
_atom_site_fract_z
Si Si1 0.683247 0.430610 0.250000
Si Si2 0.189187 0.082611 0.939539
Si Si3 0.311386 0.327278 0.848065
Si Si4 0.310885 0.582406 0.443837
Si Si5 0.186262 0.663196 0.842487
Si Si6 0.684708 0.088180 0.250000
O O1 0.500000 0.456106 0.250000
O O2 0.715192 0.383717 0.301380
O O3 0.794556 0.501389 0.250000
O O4 0.286167 0.133655 0.900461
O O5 0.000000 0.091290 0.930555
O O6 0.246766 0.999460 0.930556
O O7 0.240568 0.106501 0.998032
O O8 0.500000 0.323841 0.853334
O O9 0.238212 0.361776 0.901278
O O10 0.245776 0.245666 0.839747
O O11 0.266287 0.378663 0.800599
O O12 0.500000 0.581362 0.441301
O O13 0.000000 0.660096 0.827878
O O14 0.500000 0.108513 0.250000
#
# Coordination Sequence:
#
# PCOD8260259 Si02
#       6
#     8  16  16  16  16   8
#     4  12  25  42  63  81 105 147 191 230 283 346
#     4   9  17  33  58  83 109 147 196 240 279 333
#     4  10  21  38  58  81 116 158 191 225 279 339
#     4   8  16  33  57  82 107 145 197 240 275 329
#     4  11  23  37  55  84 119 150 187 237 284 328
#     4  12  25  40  61  89 115 139 181 238 285 334
#
# _framework density 20.349978
#
# number of rings (size 3 to 8) (size 9 to 14) (size 15 to 20)
#    0.000    2.000    0.000    5.400    0.000    6.400 
#    0.000    3.000    0.000    0.000    0.000    0.000 
#    0.000    0.000    0.000    0.000    0.000    0.000 
#
# Total GULP energy -496054.744846 kJ/mol
# GULP energy per Si atom -12401.368621 kJ/mol
# Density = 2.030366 g / cm^3
# Si number density = 20.349978 Si / 1000 Ang^3
#
#
#
# Elastic Constant Matrix: (Units=GPa)
#
#
# Indices 1 2 3 4 5 6 
#
# 1 22.6765 1.7626 0.8308 0.0000 0.0000 0.0000
# 2 1.7626 128.5264 66.1608 0.0000 0.0000 0.0000
# 3 0.8308 66.1608 143.4929 0.0000 0.0000 0.0000
# 4 0.0000 0.0000 0.0000 15.2931 0.0000 0.0000
# 5 0.0000 0.0000 0.0000 0.0000 15.6688 0.0000
# 6 0.0000 0.0000 0.0000 0.0000 0.0000 18.3248
#
#
#
# Elastic Compliance Matrix: (Units=1/GPa)
#
#
# Indices 1 2 3 4 5 6 
#
# 1 0.044146 -0.000621 0.000031 0.000000 0.000000 0.000000
# 2 -0.000621 0.010211 -0.004704 0.000000 0.000000 0.000000
# 3 0.000031 -0.004704 0.009138 0.000000 0.000000 0.000000
# 4 0.000000 0.000000 0.000000 0.065389 0.000000 0.000000
# 5 0.000000 0.000000 0.000000 0.000000 0.063821 0.000000
# 6 0.000000 0.000000 0.000000 0.000000 0.000000 0.054571
#
#
# Mechanical properties :
#
#
# Convention : Reuss Voigt Hill
#
# Bulk Modulus (GPa) = 18.90188 48.02269 33.46228
# Shear Modulus (GPa) = 18.14885 24.92010 21.53448
#
# Velocity S-wave (km/s) = 2.98960 3.50319 3.25654
# Velocity P-wave (km/s) = 4.60712 6.32556 5.53346
#
# Compressibility (1/GPa) = 0.05290479
#
# Stress axis : x y z
#
# Youngs Moduli (GPa) = 22.65224 97.93747 109.43540
#
# Poissons Ratio (x) = 0.06085 -0.00338
# Poissons Ratio (y) = 0.01407 0.51481
# Poissons Ratio (z) = -0.00070 0.46072
#
# Static dielectric constant tensor:
#      x y z
#    x 3.322520 0.000000 0.000000 
#    y 0.000000 3.914680 0.000000 
#    z 0.000000 0.000000 3.995510 
# 
# 
# High freq. dielectric constant tensor:
#      x y z
#    x 1.767250 0.000000 0.000000 
#    y 0.000000 1.799470 0.000000 
#    z 0.000000 0.000000 1.812520 
# 
# From -- ./inp_files/66704.got.cif
#   From: 2010.03.12/outbox.cif.g09.slc.cpg/sg63_34_cif.got.tgz:66704.got - 2010.04.10 19:34:48.
