data_PCOD8260743
_publ_section_title
;
Structure prediction by ZEFSAII (Michael W. Deem and Ramdas Pophale) SiO2 
 PCOD8260743
Probable space group: C M C M
;
_chemical_formula_sum "Si O2"
_cell_formula_units_Z 80
_cell_length_a 10.209266
_cell_length_b 24.318919
_cell_length_c 16.195238
_cell_angle_alpha 90.000000
_cell_angle_beta 90.000000
_cell_angle_gamma 90.000000
_cell_volume 4020.926368
_symmetry_space_group_name_H-M "C M C M"
_symmetry_group_IT_number 63
_symmetry_cell_setting 'orthorhombic'
loop_
_space_group_symop_operation_xyz
x,y,z
-x,-y,1/2+z
x,-y,-z
-x,y,1/2-z
-x,-y,-z
x,y,1/2-z
-x,y,z
x,-y,1/2+z
1/2+x,1/2+y,z
1/2-x,1/2-y,1/2+z
1/2+x,1/2-y,-z
1/2-x,1/2+y,1/2-z
1/2-x,1/2-y,-z
1/2+x,1/2+y,1/2-z
1/2-x,1/2+y,z
1/2+x,1/2-y,1/2+z
loop_
_atom_site_type_symbol
_atom_site_label
_atom_site_fract_x
_atom_site_fract_y
_atom_site_fract_z
Si Si1 0.500000 0.027239 0.250000
Si Si2 0.654681 0.831848 0.597482
Si Si3 0.000000 0.461674 0.081659
Si Si4 0.746131 0.103498 0.250000
Si Si5 0.500000 0.460189 0.421675
Si Si6 0.753601 0.614551 0.567510
Si Si7 0.500000 0.471794 0.750000
Si Si8 0.351452 0.713452 0.656348
O O1 0.628812 0.061913 0.250000
O O2 0.500000 0.994511 0.165530
O O3 0.500000 0.847716 0.601285
O O4 0.736608 0.857664 0.671373
O O5 0.726797 0.855703 0.518831
O O6 0.673305 0.766188 0.598546
O O7 0.125724 0.423938 0.085980
O O8 0.000000 0.500000 0.000000
O O9 0.876898 0.068188 0.250000
O O10 0.500000 0.500000 0.500000
O O11 0.626143 0.422539 0.430227
O O12 0.500000 0.490974 0.332934
O O13 0.744314 0.663194 0.634777
O O14 0.326181 0.732053 0.750000
O O15 0.500000 0.692560 0.644232
#
# Coordination Sequence:
#
# PCOD8260743 Si02
#       8
#     4  16   8   8   8  16   4  16
#     4  12  24  40  68  92 126 178 230 268 344 390
#     4  11  21  42  70 102 129 177 224 277 333 406
#     4  12  26  44  62  98 131 176 227 286 320 388
#     4  12  22  44  70  99 127 177 229 282 336 398
#     4  12  26  46  66 100 133 186 229 280 336 404
#     4  12  24  42  68  95 139 172 221 275 339 394
#     4  12  28  44  68  98 144 176 228 292 344 398
#     4  10  22  41  69 102 134 172 223 269 335 419
#
# _framework density 19.895911999999999
#
# number of rings (size 3 to 8) (size 9 to 14) (size 15 to 20)
#    0.000    0.600    4.000    4.800    2.800    0.000 
#    0.000    1.000    0.000    0.000    0.000    0.000 
#    0.000    0.000    0.000    0.000    0.000    0.000 
#
# Total GULP energy -495989.286495 kJ/mol
# GULP energy per Si atom -12399.732162 kJ/mol
# Density = 1.985063 g / cm^3
# Si number density = 19.895912 Si / 1000 Ang^3
#
#
#
# Elastic Constant Matrix: (Units=GPa)
#
#
# Indices 1 2 3 4 5 6 
#
# 1 136.1644 64.4143 20.8124 0.0000 0.0000 0.0000
# 2 64.4143 119.5873 41.9193 0.0000 0.0000 0.0000
# 3 20.8124 41.9193 102.9029 0.0000 0.0000 0.0000
# 4 0.0000 0.0000 0.0000 57.9508 0.0000 0.0000
# 5 0.0000 0.0000 0.0000 0.0000 32.7006 0.0000
# 6 0.0000 0.0000 0.0000 0.0000 0.0000 47.9336
#
#
#
# Elastic Compliance Matrix: (Units=1/GPa)
#
#
# Indices 1 2 3 4 5 6 
#
# 1 0.009859 -0.005380 0.000197 0.000000 0.000000 0.000000
# 2 -0.005380 0.012690 -0.004082 0.000000 0.000000 0.000000
# 3 0.000197 -0.004082 0.011341 0.000000 0.000000 0.000000
# 4 0.000000 0.000000 0.000000 0.017256 0.000000 0.000000
# 5 0.000000 0.000000 0.000000 0.000000 0.030580 0.000000
# 6 0.000000 0.000000 0.000000 0.000000 0.000000 0.020862
#
#
# Mechanical properties :
#
#
# Convention : Reuss Voigt Hill
#
# Bulk Modulus (GPa) = 65.09358 68.10520 66.59939
# Shear Modulus (GPa) = 39.60811 43.15090 41.37950
#
# Velocity S-wave (km/s) = 4.46664 4.66212 4.56543
# Velocity P-wave (km/s) = 7.70644 7.95523 7.83182
#
# Compressibility (1/GPa) = 0.01536250
#
# Stress axis : x y z
#
# Youngs Moduli (GPa) = 101.43304 78.79937 88.17806
#
# Poissons Ratio (x) = 0.42390 -0.01741
# Poissons Ratio (y) = 0.54566 0.35991
# Poissons Ratio (z) = -0.02003 0.32163
#
# Static dielectric constant tensor:
#      x y z
#    x 3.598220 0.000000 0.000000 
#    y 0.000000 3.890000 0.000000 
#    z 0.000000 0.000000 3.478080 
# 
# 
# High freq. dielectric constant tensor:
#      x y z
#    x 1.776320 0.000000 0.000000 
#    y 0.000000 1.799510 0.000000 
#    z 0.000000 0.000000 1.788950 
# 
# From -- ./inp_files/42240.got.cif
#   From: 2010.03.12/outbox.cif.g09.slc.cpg/sg63_22_cif.got.tgz:42240.got - 2010.04.10 19:34:48.
