data_PCOD8260707
_publ_section_title
;
Structure prediction by ZEFSAII (Michael W. Deem and Ramdas Pophale) SiO2 
 PCOD8260707
Probable space group: C M C M
;
_chemical_formula_sum "Si O2"
_cell_formula_units_Z 48
_cell_length_a 14.007927
_cell_length_b 7.287676
_cell_length_c 17.160104
_cell_angle_alpha 90.000000
_cell_angle_beta 90.000000
_cell_angle_gamma 90.000000
_cell_volume 1751.793222
_symmetry_space_group_name_H-M "C M C M"
_symmetry_group_IT_number 63
_symmetry_cell_setting 'orthorhombic'
loop_
_space_group_symop_operation_xyz
x,y,z
-x,-y,1/2+z
x,-y,-z
-x,y,1/2-z
-x,-y,-z
x,y,1/2-z
-x,y,z
x,-y,1/2+z
1/2+x,1/2+y,z
1/2-x,1/2-y,1/2+z
1/2+x,1/2-y,-z
1/2-x,1/2+y,1/2-z
1/2-x,1/2-y,-z
1/2+x,1/2+y,1/2-z
1/2-x,1/2+y,z
1/2+x,1/2-y,1/2+z
loop_
_atom_site_type_symbol
_atom_site_label
_atom_site_fract_x
_atom_site_fract_y
_atom_site_fract_z
Si Si1 0.109731 0.104592 0.414914
Si Si2 0.606325 0.163552 0.061632
Si Si3 0.271424 0.077762 0.658744
O O1 0.121138 0.150611 0.507786
O O2 0.166526 0.918902 0.384285
O O3 0.152068 0.269695 0.363552
O O4 0.000000 0.080747 0.391514
O O5 0.500000 0.165152 0.097836
O O6 0.685837 0.121457 0.128704
O O7 0.616834 0.000000 0.000000
O O8 0.256554 0.064781 0.750000
#
# Coordination Sequence:
#
# PCOD8260707 Si02
#       3
#    16  16  16
#     4  10  22  41  61  82 114 154 193 232 278 338
#     4   8  16  33  57  82 110 149 191 230 277 334
#     4  11  21  34  58  88 116 149 188 235 289 336
#
# _framework density 27.400493999999998
#
# number of rings (size 3 to 8) (size 9 to 14) (size 15 to 20)
#    0.000    2.333    0.000    5.000    0.000    4.667 
#    0.000    3.333    0.000   21.000    0.000    0.000 
#    0.000    0.000    0.000    0.000    0.000    0.000 
#
# Total GULP energy -297663.151458 kJ/mol
# GULP energy per Si atom -12402.631311 kJ/mol
# Density = 2.733813 g / cm^3
# Si number density = 27.400494 Si / 1000 Ang^3
#
#
#
# Elastic Constant Matrix: (Units=GPa)
#
#
# Indices 1 2 3 4 5 6 
#
# 1 233.2845 52.3291 117.3958 0.0000 0.0000 0.0000
# 2 52.3291 137.3461 28.6594 0.0000 0.0000 0.0000
# 3 117.3958 28.6594 207.1302 0.0000 0.0000 0.0000
# 4 0.0000 0.0000 0.0000 31.0331 0.0000 0.0000
# 5 0.0000 0.0000 0.0000 0.0000 24.1355 0.0000
# 6 0.0000 0.0000 0.0000 0.0000 0.0000 34.3379
#
#
#
# Elastic Compliance Matrix: (Units=1/GPa)
#
#
# Indices 1 2 3 4 5 6 
#
# 1 0.006370 -0.001723 -0.003372 0.000000 0.000000 0.000000
# 2 -0.001723 0.007964 -0.000125 0.000000 0.000000 0.000000
# 3 -0.003372 -0.000125 0.006756 0.000000 0.000000 0.000000
# 4 0.000000 0.000000 0.000000 0.032224 0.000000 0.000000
# 5 0.000000 0.000000 0.000000 0.000000 0.041433 0.000000
# 6 0.000000 0.000000 0.000000 0.000000 0.000000 0.029122
#
#
# Mechanical properties :
#
#
# Convention : Reuss Voigt Hill
#
# Bulk Modulus (GPa) = 93.90446 108.28103 101.09275
# Shear Modulus (GPa) = 36.26885 43.19305 39.73095
#
# Velocity S-wave (km/s) = 3.64216 3.97465 3.81203
# Velocity P-wave (km/s) = 7.21336 7.78893 7.50666
#
# Compressibility (1/GPa) = 0.01064912
#
# Stress axis : x y z
#
# Youngs Moduli (GPa) = 156.98486 125.57137 148.01007
#
# Poissons Ratio (x) = 0.21641 0.49908
# Poissons Ratio (y) = 0.27055 0.01852
# Poissons Ratio (z) = 0.52934 0.01571
#
# Static dielectric constant tensor:
#      x y z
#    x 5.173100 0.000000 0.000000 
#    y 0.000000 6.884300 0.000000 
#    z 0.000000 0.000000 4.694480 
# 
# 
# High freq. dielectric constant tensor:
#      x y z
#    x 2.117380 0.000000 0.000000 
#    y 0.000000 2.207830 0.000000 
#    z 0.000000 0.000000 2.083010 
# 
# From -- ./inp_files/41118.got.cif
#   From: 2010.03.12/outbox.cif.g09.slc.cpg/sg63_21_cif.got.tgz:41118.got - 2010.04.10 19:34:48.
