data_PCOD8260786
_publ_section_title
;
Structure prediction by ZEFSAII (Michael W. Deem and Ramdas Pophale) SiO2 
 PCOD8260786
Probable space group: C M C M
;
_chemical_formula_sum "Si O2"
_cell_formula_units_Z 96
_cell_length_a 15.187088
_cell_length_b 21.437745
_cell_length_c 13.852444
_cell_angle_alpha 90.000000
_cell_angle_beta 90.000000
_cell_angle_gamma 90.000000
_cell_volume 4510.036050
_symmetry_space_group_name_H-M "C M C M"
_symmetry_group_IT_number 63
_symmetry_cell_setting 'orthorhombic'
loop_
_space_group_symop_operation_xyz
x,y,z
-x,-y,1/2+z
x,-y,-z
-x,y,1/2-z
-x,-y,-z
x,y,1/2-z
-x,y,z
x,-y,1/2+z
1/2+x,1/2+y,z
1/2-x,1/2-y,1/2+z
1/2+x,1/2-y,-z
1/2-x,1/2+y,1/2-z
1/2-x,1/2-y,-z
1/2+x,1/2+y,1/2-z
1/2-x,1/2+y,z
1/2+x,1/2-y,1/2+z
loop_
_atom_site_type_symbol
_atom_site_label
_atom_site_fract_x
_atom_site_fract_y
_atom_site_fract_z
Si Si1 0.100563 0.833661 0.355993
Si Si2 0.601879 0.145858 0.855248
Si Si3 0.598770 0.009179 0.863316
Si Si4 0.769997 0.404837 0.636006
Si Si5 0.898541 0.073030 0.017864
Si Si6 0.664617 0.783309 0.964181
O O1 0.147833 0.835270 0.250000
O O2 0.138111 0.888340 0.424977
O O3 0.107123 0.765651 0.404143
O O4 0.000000 0.849324 0.339210
O O5 0.641662 0.166951 0.750000
O O6 0.500000 0.134867 0.839641
O O7 0.638785 0.077883 0.886636
O O8 0.616616 0.196644 0.937448
O O9 0.593023 0.999142 0.750000
O O10 0.500000 0.998687 0.906994
O O11 0.667523 0.959403 0.908157
O O12 0.768199 0.408198 0.750000
O O13 0.668387 0.410376 0.603386
O O14 0.813611 0.340266 0.605013
O O15 0.000000 0.092798 0.043688
O O16 0.894908 0.000000 0.000000
O O17 0.750000 0.750000 0.000000
#
# Coordination Sequence:
#
# PCOD8260786 Si02
#       6
#    16  16  16  16  16  16
#     4  10  22  43  67  89 120 163 209 259 318 382
#     4   9  20  40  65  93 126 167 212 258 315 379
#     4   8  17  36  62  95 132 166 204 251 309 381
#     4  11  24  40  62  95 131 169 212 261 321 377
#     4  10  23  44  68  94 122 159 216 273 322 379
#     4  12  24  39  58  90 129 168 210 256 306 378
#
# _framework density 21.285861000000001
#
# number of rings (size 3 to 8) (size 9 to 14) (size 15 to 20)
#    0.000    2.000    1.667    2.000    2.333    3.667 
#    0.000    5.000    0.000    0.000    0.000    0.000 
#    0.000    0.000    0.000    0.000    0.000    0.000 
#
# Total GULP energy -594880.889249 kJ/mol
# GULP energy per Si atom -12393.351859 kJ/mol
# Density = 2.123741 g / cm^3
# Si number density = 21.285861 Si / 1000 Ang^3
#
#
#
# Elastic Constant Matrix: (Units=GPa)
#
#
# Indices 1 2 3 4 5 6 
#
# 1 64.5197 24.2059 28.0161 0.0000 0.0000 0.0000
# 2 24.2059 134.9277 59.7082 0.0000 0.0000 0.0000
# 3 28.0161 59.7082 129.1996 0.0000 0.0000 0.0000
# 4 0.0000 0.0000 0.0000 28.9273 0.0000 0.0000
# 5 0.0000 0.0000 0.0000 0.0000 16.8623 0.0000
# 6 0.0000 0.0000 0.0000 0.0000 0.0000 25.1044
#
#
#
# Elastic Compliance Matrix: (Units=1/GPa)
#
#
# Indices 1 2 3 4 5 6 
#
# 1 0.017463 -0.001832 -0.002940 0.000000 0.000000 0.000000
# 2 -0.001832 0.009509 -0.003997 0.000000 0.000000 0.000000
# 3 -0.002940 -0.003997 0.010225 0.000000 0.000000 0.000000
# 4 0.000000 0.000000 0.000000 0.034569 0.000000 0.000000
# 5 0.000000 0.000000 0.000000 0.000000 0.059304 0.000000
# 6 0.000000 0.000000 0.000000 0.000000 0.000000 0.039834
#
#
# Mechanical properties :
#
#
# Convention : Reuss Voigt Hill
#
# Bulk Modulus (GPa) = 50.86899 61.38972 56.12936
# Shear Modulus (GPa) = 25.64170 28.62659 27.13414
#
# Velocity S-wave (km/s) = 3.47455 3.67122 3.57424
# Velocity P-wave (km/s) = 6.32824 6.84643 6.59243
#
# Compressibility (1/GPa) = 0.01965834
#
# Stress axis : x y z
#
# Youngs Moduli (GPa) = 57.26366 105.16541 97.80151
#
# Poissons Ratio (x) = 0.19264 0.28756
# Poissons Ratio (y) = 0.10489 0.39093
# Poissons Ratio (z) = 0.16837 0.42037
#
# Static dielectric constant tensor:
#      x y z
#    x 3.892320 0.000000 0.000000 
#    y 0.000000 3.332750 0.000000 
#    z 0.000000 0.000000 4.201660 
# 
# 
# High freq. dielectric constant tensor:
#      x y z
#    x 1.830390 0.000000 0.000000 
#    y 0.000000 1.838670 0.000000 
#    z 0.000000 0.000000 1.842590 
# 
# From -- ./inp_files/31853.got.cif
#   From: 2010.03.12/outbox.cif.g09.slc.cpg/sg63_16_cif.got.tgz:31853.got - 2010.04.10 19:34:48.
