data_PCOD8260136
_publ_section_title
;
Structure prediction by ZEFSAII (Michael W. Deem and Ramdas Pophale) SiO2 
 PCOD8260136
Probable space group: C M C M
;
_chemical_formula_sum "Si O2"
_cell_formula_units_Z 80
_cell_length_a 28.016867
_cell_length_b 9.024985
_cell_length_c 15.635416
_cell_angle_alpha 90.000000
_cell_angle_beta 90.000000
_cell_angle_gamma 90.000000
_cell_volume 3953.443148
_symmetry_space_group_name_H-M "C M C M"
_symmetry_group_IT_number 63
_symmetry_cell_setting 'orthorhombic'
loop_
_space_group_symop_operation_xyz
x,y,z
-x,-y,1/2+z
x,-y,-z
-x,y,1/2-z
-x,-y,-z
x,y,1/2-z
-x,y,z
x,-y,1/2+z
1/2+x,1/2+y,z
1/2-x,1/2-y,1/2+z
1/2+x,1/2-y,-z
1/2-x,1/2+y,1/2-z
1/2-x,1/2-y,-z
1/2+x,1/2+y,1/2-z
1/2-x,1/2+y,z
1/2+x,1/2-y,1/2+z
loop_
_atom_site_type_symbol
_atom_site_label
_atom_site_fract_x
_atom_site_fract_y
_atom_site_fract_z
Si Si1 0.598769 0.151457 0.038710
Si Si2 0.281742 0.248609 0.651342
Si Si3 0.868443 0.901093 0.921780
Si Si4 0.446338 0.384251 0.347357
Si Si5 0.191112 0.425865 0.852823
O O1 0.559651 0.238900 0.094040
O O2 0.643389 0.124568 0.100789
O O3 0.612069 0.245742 0.955504
O O4 0.577288 0.000000 0.000000
O O5 0.273660 0.222430 0.750000
O O6 0.323559 0.369285 0.638839
O O7 0.232125 0.312864 0.614945
O O8 0.294795 0.088974 0.611530
O O9 0.909995 0.985042 0.870836
O O10 0.849943 0.000000 0.000000
O O11 0.437462 0.336264 0.250000
O O12 0.500000 0.444912 0.360882
O O13 0.183861 0.424017 0.750000
#
# Coordination Sequence:
#
# PCOD8260136 Si02
#       5
#    16  16  16  16  16
#     4  11  22  39  60  91 126 156 195 247 309 359
#     4  10  21  37  56  83 118 163 211 250 292 348
#     4  10  22  37  60  88 118 157 198 248 303 359
#     4  10  23  44  68  90 116 156 203 249 301 364
#     4  10  22  37  57  84 121 167 208 245 293 354
#
# _framework density 20.235524000000002
#
# number of rings (size 3 to 8) (size 9 to 14) (size 15 to 20)
#    0.000    1.800    2.000    1.200    5.600    5.600 
#    0.000    0.000    0.000    2.400    0.000    0.000 
#    0.000    0.000    0.000    0.000    0.000    0.000 
#
# Total GULP energy -495969.035919 kJ/mol
# GULP energy per Si atom -12399.225898 kJ/mol
# Density = 2.018947 g / cm^3
# Si number density = 20.235524 Si / 1000 Ang^3
#
#
#
# Elastic Constant Matrix: (Units=GPa)
#
#
# Indices 1 2 3 4 5 6 
#
# 1 80.3972 18.5405 23.6694 0.0000 0.0000 0.0000
# 2 18.5405 96.9521 18.5334 0.0000 0.0000 0.0000
# 3 23.6694 18.5334 52.6139 0.0000 0.0000 0.0000
# 4 0.0000 0.0000 0.0000 30.4082 0.0000 0.0000
# 5 0.0000 0.0000 0.0000 0.0000 22.3922 0.0000
# 6 0.0000 0.0000 0.0000 0.0000 0.0000 31.6295
#
#
#
# Elastic Compliance Matrix: (Units=1/GPa)
#
#
# Indices 1 2 3 4 5 6 
#
# 1 0.014578 -0.001645 -0.005979 0.000000 0.000000 0.000000
# 2 -0.001645 0.011245 -0.003221 0.000000 0.000000 0.000000
# 3 -0.005979 -0.003221 0.022831 0.000000 0.000000 0.000000
# 4 0.000000 0.000000 0.000000 0.032886 0.000000 0.000000
# 5 0.000000 0.000000 0.000000 0.000000 0.044658 0.000000
# 6 0.000000 0.000000 0.000000 0.000000 0.000000 0.031616
#
#
# Mechanical properties :
#
#
# Convention : Reuss Voigt Hill
#
# Bulk Modulus (GPa) = 37.08655 39.04998 38.06827
# Shear Modulus (GPa) = 26.52656 28.16731 27.34693
#
# Velocity S-wave (km/s) = 3.62455 3.73496 3.68017
# Velocity P-wave (km/s) = 5.99030 6.15951 6.07550
#
# Compressibility (1/GPa) = 0.02696395
#
# Stress axis : x y z
#
# Youngs Moduli (GPa) = 68.59785 88.93115 43.80081
#
# Poissons Ratio (x) = 0.14628 0.26187
# Poissons Ratio (y) = 0.11283 0.14108
# Poissons Ratio (z) = 0.41012 0.28645
#
# Static dielectric constant tensor:
#      x y z
#    x 3.546130 0.000000 0.000000 
#    y 0.000000 4.019210 0.000000 
#    z 0.000000 0.000000 3.667870 
# 
# 
# High freq. dielectric constant tensor:
#      x y z
#    x 1.780240 0.000000 0.000000 
#    y 0.000000 1.799690 0.000000 
#    z 0.000000 0.000000 1.792120 
# 
# From -- ./inp_files/48753.got.cif
#   From: 2010.03.12/outbox.cif.g09.slc.cpg/sg63_25_cif.got.tgz:48753.got - 2010.04.10 19:34:48.
