data_PCOD8260901
_publ_section_title
;
Structure prediction by ZEFSAII (Michael W. Deem and Ramdas Pophale) SiO2 
 PCOD8260901
Probable space group: C M C M
;
_chemical_formula_sum "Si O2"
_cell_formula_units_Z 72
_cell_length_a 12.771562
_cell_length_b 23.599407
_cell_length_c 14.082978
_cell_angle_alpha 90.000000
_cell_angle_beta 90.000000
_cell_angle_gamma 90.000000
_cell_volume 4244.627732
_symmetry_space_group_name_H-M "C M C M"
_symmetry_group_IT_number 63
_symmetry_cell_setting 'orthorhombic'
loop_
_space_group_symop_operation_xyz
x,y,z
-x,-y,1/2+z
x,-y,-z
-x,y,1/2-z
-x,-y,-z
x,y,1/2-z
-x,y,z
x,-y,1/2+z
1/2+x,1/2+y,z
1/2-x,1/2-y,1/2+z
1/2+x,1/2-y,-z
1/2-x,1/2+y,1/2-z
1/2-x,1/2-y,-z
1/2+x,1/2+y,1/2-z
1/2-x,1/2+y,z
1/2+x,1/2-y,1/2+z
loop_
_atom_site_type_symbol
_atom_site_label
_atom_site_fract_x
_atom_site_fract_y
_atom_site_fract_z
Si Si1 0.500000 0.123506 0.355553
Si Si2 0.379657 0.821434 0.358208
Si Si3 0.880457 0.809589 0.858591
Si Si4 0.209278 0.622242 0.032509
Si Si5 0.500000 0.989932 0.355281
Si Si6 0.170318 0.500000 0.000000
O O1 0.500000 0.151169 0.250000
O O2 0.395135 0.141776 0.410938
O O3 0.500000 0.056749 0.345450
O O4 0.344323 0.831338 0.250000
O O5 0.500000 0.840878 0.371711
O O6 0.366871 0.755846 0.386270
O O7 0.303723 0.858358 0.423940
O O8 0.846878 0.819524 0.750000
O O9 0.810040 0.848055 0.925100
O O10 0.000000 0.828345 0.874208
O O11 0.234273 0.554326 0.038202
O O12 0.500000 0.961522 0.250000
O O13 0.398768 0.971710 0.415575
#
# Coordination Sequence:
#
# PCOD8260901 Si02
#       6
#     8  16  16  16   8   8
#     4   9  17  27  44  72 101 129 159 192 240 292
#     4   9  18  32  50  75  99 125 165 203 242 295
#     4   9  19  35  54  72  91 123 169 210 243 286
#     4  11  18  32  49  72 103 133 156 202 247 288
#     4   8  15  29  42  59  99 138 159 189 226 277
#     4   9  20  28  41  74 100 126 169 189 232 304
#
# _framework density 16.962617999999999
#
# number of rings (size 3 to 8) (size 9 to 14) (size 15 to 20)
#    0.000    2.667    1.111    3.333    0.000    1.778 
#    0.000    0.556    0.000    0.667    0.000    0.000 
#    0.000    0.000    0.000    0.000    0.000    0.000 
#
# Total GULP energy -446267.465135 kJ/mol
# GULP energy per Si atom -12396.318476 kJ/mol
# Density = 1.692401 g / cm^3
# Si number density = 16.962618 Si / 1000 Ang^3
#
#
#
# Elastic Constant Matrix: (Units=GPa)
#
#
# Indices 1 2 3 4 5 6 
#
# 1 54.9844 31.7836 30.4029 0.0000 0.0000 0.0000
# 2 31.7836 62.2648 30.6665 0.0000 0.0000 0.0000
# 3 30.4029 30.6665 95.8076 0.0000 0.0000 0.0000
# 4 0.0000 0.0000 0.0000 21.0109 0.0000 0.0000
# 5 0.0000 0.0000 0.0000 0.0000 25.7066 0.0000
# 6 0.0000 0.0000 0.0000 0.0000 0.0000 23.8764
#
#
#
# Elastic Compliance Matrix: (Units=1/GPa)
#
#
# Indices 1 2 3 4 5 6 
#
# 1 0.027728 -0.011658 -0.005067 0.000000 0.000000 0.000000
# 2 -0.011658 0.023968 -0.003972 0.000000 0.000000 0.000000
# 3 -0.005067 -0.003972 0.013317 0.000000 0.000000 0.000000
# 4 0.000000 0.000000 0.000000 0.047594 0.000000 0.000000
# 5 0.000000 0.000000 0.000000 0.000000 0.038901 0.000000
# 6 0.000000 0.000000 0.000000 0.000000 0.000000 0.041882
#
#
# Mechanical properties :
#
#
# Convention : Reuss Voigt Hill
#
# Bulk Modulus (GPa) = 42.34181 44.30695 43.32438
# Shear Modulus (GPa) = 20.60514 22.13237 21.36876
#
# Velocity S-wave (km/s) = 3.48909 3.61608 3.55315
# Velocity P-wave (km/s) = 6.42244 6.60392 6.51381
#
# Compressibility (1/GPa) = 0.02361732
#
# Stress axis : x y z
#
# Youngs Moduli (GPa) = 36.06476 41.72259 75.09168
#
# Poissons Ratio (x) = 0.48641 0.38052
# Poissons Ratio (y) = 0.42045 0.29828
# Poissons Ratio (z) = 0.18275 0.16573
#
# Static dielectric constant tensor:
#      x y z
#    x 2.829680 0.000000 0.000000 
#    y 0.000000 3.027380 0.000000 
#    z 0.000000 0.000000 3.477140 
# 
# 
# High freq. dielectric constant tensor:
#      x y z
#    x 1.611150 0.000000 0.000000 
#    y 0.000000 1.649860 0.000000 
#    z 0.000000 0.000000 1.665360 
# 
# From -- ./inp_files/27972.got.cif
#   From: 2010.03.12/outbox.cif.g09.slc.cpg/sg63_14_cif.got.tgz:27972.got - 2010.04.10 19:34:48.
