data_PCOD8260162
_publ_section_title
;
Structure prediction by ZEFSAII (Michael W. Deem and Ramdas Pophale) SiO2 
 PCOD8260162
Probable space group: C M C M
;
_chemical_formula_sum "Si O2"
_cell_formula_units_Z 112
_cell_length_a 24.224885
_cell_length_b 15.585983
_cell_length_c 15.021524
_cell_angle_alpha 90.000000
_cell_angle_beta 90.000000
_cell_angle_gamma 90.000000
_cell_volume 5671.656474
_symmetry_space_group_name_H-M "C M C M"
_symmetry_group_IT_number 63
_symmetry_cell_setting 'orthorhombic'
loop_
_space_group_symop_operation_xyz
x,y,z
-x,-y,1/2+z
x,-y,-z
-x,y,1/2-z
-x,-y,-z
x,y,1/2-z
-x,y,z
x,-y,1/2+z
1/2+x,1/2+y,z
1/2-x,1/2-y,1/2+z
1/2+x,1/2-y,-z
1/2-x,1/2+y,1/2-z
1/2-x,1/2-y,-z
1/2+x,1/2+y,1/2-z
1/2-x,1/2+y,z
1/2+x,1/2-y,1/2+z
loop_
_atom_site_type_symbol
_atom_site_label
_atom_site_fract_x
_atom_site_fract_y
_atom_site_fract_z
Si Si1 0.245707 0.120380 0.147811
Si Si2 0.160519 0.595301 0.489759
Si Si3 0.132759 0.970679 0.600429
Si Si4 0.803663 0.296101 0.152289
Si Si5 0.082386 0.798660 0.847781
Si Si6 0.060083 0.720207 0.024971
Si Si7 0.562423 0.626350 0.651616
O O1 0.263295 0.113751 0.250000
O O2 0.295894 0.088092 0.089094
O O3 0.237942 0.220837 0.121288
O O4 0.192648 0.059123 0.134245
O O5 0.137142 0.500000 0.500000
O O6 0.191643 0.629641 0.578575
O O7 0.107301 0.650145 0.463177
O O8 0.107591 0.050940 0.653242
O O9 0.137886 0.000000 0.500000
O O10 0.089132 0.894519 0.614513
O O11 0.786930 0.334943 0.250000
O O12 0.859715 0.245895 0.165139
O O13 0.052842 0.800211 0.750000
O O14 0.049530 0.745132 0.921666
O O15 0.080673 0.801964 0.080904
O O16 0.000000 0.687329 0.060061
O O17 0.563053 0.667781 0.750000
O O18 0.500000 0.593336 0.628851
#
# Coordination Sequence:
#
# PCOD8260162 Si02
#       7
#    16  16  16  16  16  16  16
#     4  10  21  38  60  88 122 157 196 239 293 362
#     4  11  23  39  60  86 117 152 194 251 307 350
#     4  11  19  33  58  88 126 161 192 238 291 354
#     4   8  17  36  60  83 112 151 191 238 292 349
#     4   9  17  32  55  85 119 154 192 239 295 353
#     4  10  22  40  60  83 113 154 205 254 297 351
#     4  10  21  37  57  84 120 161 203 242 285 344
#
# _framework density 19.747316999999999
#
# number of rings (size 3 to 8) (size 9 to 14) (size 15 to 20)
#    0.000    2.143    1.429    3.000    0.000    2.571 
#    2.571    0.000    0.000    0.000    0.000    4.000 
#    0.000    0.000    0.000    0.000    0.000    0.000 
#
# Total GULP energy -693904.003382 kJ/mol
# GULP energy per Si atom -12391.142918 kJ/mol
# Density = 1.970237 g / cm^3
# Si number density = 19.747317 Si / 1000 Ang^3
#
#
#
# Elastic Constant Matrix: (Units=GPa)
#
#
# Indices 1 2 3 4 5 6 
#
# 1 93.3699 50.8600 22.2122 0.0000 0.0000 0.0000
# 2 50.8600 116.3446 46.8427 0.0000 0.0000 0.0000
# 3 22.2122 46.8427 111.0865 0.0000 0.0000 0.0000
# 4 0.0000 0.0000 0.0000 11.3677 0.0000 0.0000
# 5 0.0000 0.0000 0.0000 0.0000 20.1968 0.0000
# 6 0.0000 0.0000 0.0000 0.0000 0.0000 10.6358
#
#
#
# Elastic Compliance Matrix: (Units=1/GPa)
#
#
# Indices 1 2 3 4 5 6 
#
# 1 0.014064 -0.006042 -0.000265 0.000000 0.000000 0.000000
# 2 -0.006042 0.012948 -0.004252 0.000000 0.000000 0.000000
# 3 -0.000265 -0.004252 0.010848 0.000000 0.000000 0.000000
# 4 0.000000 0.000000 0.000000 0.087969 0.000000 0.000000
# 5 0.000000 0.000000 0.000000 0.000000 0.049513 0.000000
# 6 0.000000 0.000000 0.000000 0.000000 0.000000 0.094022
#
#
# Mechanical properties :
#
#
# Convention : Reuss Voigt Hill
#
# Bulk Modulus (GPa) = 59.72326 62.29230 61.00778
# Shear Modulus (GPa) = 16.88839 21.83244 19.36041
#
# Velocity S-wave (km/s) = 2.92759 3.32865 3.13454
# Velocity P-wave (km/s) = 6.46043 6.81075 6.63790
#
# Compressibility (1/GPa) = 0.01674390
#
# Stress axis : x y z
#
# Youngs Moduli (GPa) = 71.10376 77.23127 92.18435
#
# Poissons Ratio (x) = 0.46660 0.02439
# Poissons Ratio (y) = 0.42958 0.39196
# Poissons Ratio (z) = 0.01881 0.32838
#
# Static dielectric constant tensor:
#      x y z
#    x 3.482280 0.000000 0.000000 
#    y 0.000000 3.477470 0.000000 
#    z 0.000000 0.000000 4.436750 
# 
# 
# High freq. dielectric constant tensor:
#      x y z
#    x 1.757830 0.000000 0.000000 
#    y 0.000000 1.749190 0.000000 
#    z 0.000000 0.000000 1.785800 
# 
# From -- ./inp_files/36947.got.cif
#   From: 2010.03.12/outbox.cif.g09.slc.cpg/sg63_19_cif.got.tgz:36947.got - 2010.04.10 19:34:48.
