data_PCOD8260641
_publ_section_title
;
Structure prediction by ZEFSAII (Michael W. Deem and Ramdas Pophale) SiO2 
 PCOD8260641
Probable space group: C M C M
;
_chemical_formula_sum "Si O2"
_cell_formula_units_Z 64
_cell_length_a 9.089373
_cell_length_b 10.005863
_cell_length_c 34.964464
_cell_angle_alpha 90.000000
_cell_angle_beta 90.000000
_cell_angle_gamma 90.000000
_cell_volume 3179.913841
_symmetry_space_group_name_H-M "C M C M"
_symmetry_group_IT_number 63
_symmetry_cell_setting 'orthorhombic'
loop_
_space_group_symop_operation_xyz
x,y,z
-x,-y,1/2+z
x,-y,-z
-x,y,1/2-z
-x,-y,-z
x,y,1/2-z
-x,y,z
x,-y,1/2+z
1/2+x,1/2+y,z
1/2-x,1/2-y,1/2+z
1/2+x,1/2-y,-z
1/2-x,1/2+y,1/2-z
1/2-x,1/2-y,-z
1/2+x,1/2+y,1/2-z
1/2-x,1/2+y,z
1/2+x,1/2-y,1/2+z
loop_
_atom_site_type_symbol
_atom_site_label
_atom_site_fract_x
_atom_site_fract_y
_atom_site_fract_z
Si Si1 0.327631 0.765960 0.164614
Si Si2 0.170265 0.482724 0.956819
Si Si3 0.168698 0.537516 0.206125
Si Si4 0.329340 0.714224 0.586027
O O1 0.500000 0.747689 0.158272
O O2 0.273572 0.659650 0.195661
O O3 0.288486 0.912414 0.179888
O O4 0.246097 0.739516 0.124979
O O5 0.261388 0.576984 0.928858
O O6 0.196378 0.329623 0.945197
O O7 0.000000 0.523936 0.953243
O O8 0.227559 0.500000 0.000000
O O9 0.195401 0.497325 0.250000
O O10 0.000000 0.579850 0.199093
O O11 0.500000 0.690349 0.594164
#
# Coordination Sequence:
#
# PCOD8260641 Si02
#       4
#    16  16  16  16
#     4  11  23  39  60  86 117 153 192 234 284 341
#     4  10  22  40  60  84 116 152 191 238 290 343
#     4  10  22  40  60  84 115 149 188 235 283 334
#     4  11  23  38  59  87 116 150 193 237 285 341
#
# _framework density 20.126331
#
# number of rings (size 3 to 8) (size 9 to 14) (size 15 to 20)
#    0.000    1.500    0.000    4.500    0.000   12.000 
#    0.000    0.000    0.000    0.000    0.000    0.000 
#    0.000    0.000    0.000    0.000    0.000    0.000 
#
# Total GULP energy -397055.053083 kJ/mol
# GULP energy per Si atom -12407.970409 kJ/mol
# Density = 2.008052 g / cm^3
# Si number density = 20.126331 Si / 1000 Ang^3
#
#
#
# Elastic Constant Matrix: (Units=GPa)
#
#
# Indices 1 2 3 4 5 6 
#
# 1 89.6886 46.4172 33.4440 0.0000 0.0000 0.0000
# 2 46.4172 79.1804 12.6881 0.0000 0.0000 0.0000
# 3 33.4440 12.6881 91.8805 0.0000 0.0000 0.0000
# 4 0.0000 0.0000 0.0000 39.8929 0.0000 0.0000
# 5 0.0000 0.0000 0.0000 0.0000 35.5626 0.0000
# 6 0.0000 0.0000 0.0000 0.0000 0.0000 28.0577
#
#
#
# Elastic Compliance Matrix: (Units=1/GPa)
#
#
# Indices 1 2 3 4 5 6 
#
# 1 0.018198 -0.009824 -0.005267 0.000000 0.000000 0.000000
# 2 -0.009824 0.018219 0.001060 0.000000 0.000000 0.000000
# 3 -0.005267 0.001060 0.012655 0.000000 0.000000 0.000000
# 4 0.000000 0.000000 0.000000 0.025067 0.000000 0.000000
# 5 0.000000 0.000000 0.000000 0.000000 0.028119 0.000000
# 6 0.000000 0.000000 0.000000 0.000000 0.000000 0.035641
#
#
# Mechanical properties :
#
#
# Convention : Reuss Voigt Hill
#
# Bulk Modulus (GPa) = 47.59974 49.53869 48.56921
# Shear Modulus (GPa) = 28.90765 31.91597 30.41181
#
# Velocity S-wave (km/s) = 3.79398 3.98651 3.89143
# Velocity P-wave (km/s) = 6.54937 6.77178 6.66150
#
# Compressibility (1/GPa) = 0.02100852
#
# Stress axis : x y z
#
# Youngs Moduli (GPa) = 54.95053 54.88889 79.02258
#
# Poissons Ratio (x) = 0.53923 0.41624
# Poissons Ratio (y) = 0.53984 -0.08377
# Poissons Ratio (z) = 0.28945 -0.05818
#
# Static dielectric constant tensor:
#      x y z
#    x 3.666930 0.000000 0.000000 
#    y 0.000000 3.590340 0.000000 
#    z 0.000000 0.000000 3.755070 
# 
# 
# High freq. dielectric constant tensor:
#      x y z
#    x 1.788420 0.000000 0.000000 
#    y 0.000000 1.793010 0.000000 
#    z 0.000000 0.000000 1.800170 
# 
# From -- ./inp_files/71338.got.cif
#   From: 2010.03.12/outbox.cif.g09.slc.cpg/sg63_36_cif.got.tgz:71338.got - 2010.04.10 19:34:48.
