data_PCOD8260806
_publ_section_title
;
Structure prediction by ZEFSAII (Michael W. Deem and Ramdas Pophale) SiO2 
 PCOD8260806
Probable space group: C M C M
;
_chemical_formula_sum "Si O2"
_cell_formula_units_Z 88
_cell_length_a 27.219605
_cell_length_b 10.984045
_cell_length_c 14.916702
_cell_angle_alpha 90.000000
_cell_angle_beta 90.000000
_cell_angle_gamma 90.000000
_cell_volume 4459.815943
_symmetry_space_group_name_H-M "C M C M"
_symmetry_group_IT_number 63
_symmetry_cell_setting 'orthorhombic'
loop_
_space_group_symop_operation_xyz
x,y,z
-x,-y,1/2+z
x,-y,-z
-x,y,1/2-z
-x,-y,-z
x,y,1/2-z
-x,y,z
x,-y,1/2+z
1/2+x,1/2+y,z
1/2-x,1/2-y,1/2+z
1/2+x,1/2-y,-z
1/2-x,1/2+y,1/2-z
1/2-x,1/2-y,-z
1/2+x,1/2+y,1/2-z
1/2-x,1/2+y,z
1/2+x,1/2-y,1/2+z
loop_
_atom_site_type_symbol
_atom_site_label
_atom_site_fract_x
_atom_site_fract_y
_atom_site_fract_z
Si Si1 0.112977 0.755048 0.075970
Si Si2 0.694201 0.365402 0.645462
Si Si3 0.692576 0.894583 0.854204
Si Si4 0.554374 0.197521 0.250000
Si Si5 0.442949 0.910388 0.250000
Si Si6 0.367147 0.129803 0.902780
Si Si7 0.362385 0.500000 0.500000
O O1 0.167454 0.732799 0.116740
O O2 0.075864 0.746833 0.157633
O O3 0.106934 0.651542 0.999215
O O4 0.104865 0.885359 0.029079
O O5 0.685234 0.391866 0.750000
O O6 0.751227 0.376513 0.619867
O O7 0.672757 0.234352 0.619156
O O8 0.669213 0.470427 0.587756
O O9 0.684861 0.919411 0.750000
O O10 0.664520 0.005940 0.902943
O O11 0.500000 0.247571 0.250000
O O12 0.558436 0.054222 0.250000
O O13 0.500000 0.863559 0.250000
O O14 0.413251 0.863879 0.164035
#
# Coordination Sequence:
#
# PCOD8260806 Si02
#       7
#    16  16  16   8   8  16   8
#     4  11  23  41  63  90 125 168 202 258 306 373
#     4  10  23  37  58  89 130 169 212 256 297 369
#     4  11  21  36  62  91 125 175 207 247 310 366
#     4  11  24  44  68  96 122 153 210 267 324 377
#     4  11  22  40  66  98 126 157 206 263 326 379
#     4  11  21  40  61  92 134 163 207 258 316 373
#     4  10  26  38  59  90 122 168 217 240 302 378
#
# _framework density 19.731756000000001
#
# number of rings (size 3 to 8) (size 9 to 14) (size 15 to 20)
#    0.000    1.273    4.545    0.545    6.364    2.182 
#    0.000    2.273    0.000    5.455    0.000    0.000 
#    0.000    0.000    0.000    0.000    0.000    0.000 
#
# Total GULP energy -545308.674495 kJ/mol
# GULP energy per Si atom -12393.378966 kJ/mol
# Density = 1.968685 g / cm^3
# Si number density = 19.731756 Si / 1000 Ang^3
#
#
#
# Elastic Constant Matrix: (Units=GPa)
#
#
# Indices 1 2 3 4 5 6 
#
# 1 122.4596 39.8643 73.6938 0.0000 0.0000 0.0000
# 2 39.8643 92.8464 39.0301 0.0000 0.0000 0.0000
# 3 73.6938 39.0301 144.4422 0.0000 0.0000 0.0000
# 4 0.0000 0.0000 0.0000 62.4605 0.0000 0.0000
# 5 0.0000 0.0000 0.0000 0.0000 9.4405 0.0000
# 6 0.0000 0.0000 0.0000 0.0000 0.0000 17.5773
#
#
#
# Elastic Compliance Matrix: (Units=1/GPa)
#
#
# Indices 1 2 3 4 5 6 
#
# 1 0.012496 -0.003029 -0.005557 0.000000 0.000000 0.000000
# 2 -0.003029 0.012885 -0.001936 0.000000 0.000000 0.000000
# 3 -0.005557 -0.001936 0.010281 0.000000 0.000000 0.000000
# 4 0.000000 0.000000 0.000000 0.016010 0.000000 0.000000
# 5 0.000000 0.000000 0.000000 0.000000 0.105926 0.000000
# 6 0.000000 0.000000 0.000000 0.000000 0.000000 0.056892
#
#
# Mechanical properties :
#
#
# Convention : Reuss Voigt Hill
#
# Bulk Modulus (GPa) = 68.40945 73.88052 71.14499
# Shear Modulus (GPa) = 20.79798 31.70632 26.25215
#
# Velocity S-wave (km/s) = 3.25011 4.01292 3.65149
# Velocity P-wave (km/s) = 6.98780 7.68083 7.34249
#
# Compressibility (1/GPa) = 0.01461786
#
# Stress axis : x y z
#
# Youngs Moduli (GPa) = 80.02471 77.60930 97.26235
#
# Poissons Ratio (x) = 0.23510 0.54048
# Poissons Ratio (y) = 0.24242 0.18831
# Poissons Ratio (z) = 0.44469 0.15026
#
# Static dielectric constant tensor:
#      x y z
#    x 3.638260 0.000000 0.000000 
#    y 0.000000 3.547280 0.000000 
#    z 0.000000 0.000000 3.940820 
# 
# 
# High freq. dielectric constant tensor:
#      x y z
#    x 1.747980 0.000000 0.000000 
#    y 0.000000 1.763650 0.000000 
#    z 0.000000 0.000000 1.798010 
# 
# From -- ./inp_files/37806.got.cif
#   From: 2010.03.12/outbox.cif.g09.slc.cpg/sg63_19_cif.got.tgz:37806.got - 2010.04.10 19:34:48.
