data_PCOD8260791
_publ_section_title
;
Structure prediction by ZEFSAII (Michael W. Deem and Ramdas Pophale) SiO2 
 PCOD8260791
Probable space group: C M C M
;
_chemical_formula_sum "Si O2"
_cell_formula_units_Z 96
_cell_length_a 19.765240
_cell_length_b 15.555382
_cell_length_c 14.367869
_cell_angle_alpha 90.000000
_cell_angle_beta 90.000000
_cell_angle_gamma 90.000000
_cell_volume 4417.485499
_symmetry_space_group_name_H-M "C M C M"
_symmetry_group_IT_number 63
_symmetry_cell_setting 'orthorhombic'
loop_
_space_group_symop_operation_xyz
x,y,z
-x,-y,1/2+z
x,-y,-z
-x,y,1/2-z
-x,-y,-z
x,y,1/2-z
-x,y,z
x,-y,1/2+z
1/2+x,1/2+y,z
1/2-x,1/2-y,1/2+z
1/2+x,1/2-y,-z
1/2-x,1/2+y,1/2-z
1/2-x,1/2-y,-z
1/2+x,1/2+y,1/2-z
1/2-x,1/2+y,z
1/2+x,1/2-y,1/2+z
loop_
_atom_site_type_symbol
_atom_site_label
_atom_site_fract_x
_atom_site_fract_y
_atom_site_fract_z
Si Si1 0.923033 0.546421 0.642082
Si Si2 0.797249 0.434415 0.571674
Si Si3 0.421470 0.702878 0.647721
Si Si4 0.629113 0.202197 0.527635
Si Si5 0.425275 0.516265 0.640413
Si Si6 0.833028 0.133162 0.355127
O O1 0.910201 0.564894 0.750000
O O2 0.868417 0.474644 0.609361
O O3 0.916284 0.637531 0.589289
O O4 0.000000 0.511759 0.624992
O O5 0.762389 0.500000 0.500000
O O6 0.807338 0.349227 0.510777
O O7 0.743214 0.405895 0.648984
O O8 0.392764 0.734529 0.750000
O O9 0.500000 0.685868 0.661571
O O10 0.410855 0.769730 0.565178
O O11 0.390612 0.609323 0.620468
O O12 0.657972 0.280440 0.586830
O O13 0.428740 0.502589 0.750000
O O14 0.500000 0.508471 0.595861
O O15 0.380747 0.439200 0.597802
O O16 0.853986 0.155080 0.250000
#
# Coordination Sequence:
#
# PCOD8260791 Si02
#       6
#    16  16  16  16  16  16
#     4  10  22  43  69  95 127 167 211 260 317 379
#     4  10  24  42  62  87 122 165 214 261 308 372
#     4   9  19  36  58  89 127 164 205 254 307 366
#     4  11  23  38  61  95 126 158 204 263 318 371
#     4   8  17  35  57  85 119 159 205 246 294 361
#     4  11  23  40  63  90 126 166 206 256 314 380
#
# _framework density 21.731819999999999
#
# number of rings (size 3 to 8) (size 9 to 14) (size 15 to 20)
#    0.000    2.167    0.000    3.000    2.333    6.333 
#    0.000    5.000    0.000    0.000    0.000    0.000 
#    0.000    0.000    0.000    0.000    0.000    0.000 
#
# Total GULP energy -594680.670756 kJ/mol
# GULP energy per Si atom -12389.180641 kJ/mol
# Density = 2.168236 g / cm^3
# Si number density = 21.731820 Si / 1000 Ang^3
#
#
#
# Elastic Constant Matrix: (Units=GPa)
#
#
# Indices 1 2 3 4 5 6 
#
# 1 77.6436 32.2251 18.4638 0.0000 0.0000 0.0000
# 2 32.2251 125.5388 50.4802 0.0000 0.0000 0.0000
# 3 18.4638 50.4802 114.5645 0.0000 0.0000 0.0000
# 4 0.0000 0.0000 0.0000 35.0673 0.0000 0.0000
# 5 0.0000 0.0000 0.0000 0.0000 -0.0247 0.0000
# 6 0.0000 0.0000 0.0000 0.0000 0.0000 -37.4945
#
#
#
# Elastic Compliance Matrix: (Units=1/GPa)
#
#
# Indices 1 2 3 4 5 6 
#
# 1 0.014482 -0.003377 -0.000846 0.000000 0.000000 0.000000
# 2 -0.003377 0.010469 -0.004068 0.000000 0.000000 0.000000
# 3 -0.000846 -0.004068 0.010658 0.000000 0.000000 0.000000
# 4 0.000000 0.000000 0.000000 0.028517 0.000000 0.000000
# 5 0.000000 0.000000 0.000000 0.000000-40.515799 0.000000
# 6 0.000000 0.000000 0.000000 0.000000 0.000000 -0.026671
#
#
# Mechanical properties :
#
#
# Convention : Reuss Voigt Hill
#
# Bulk Modulus (GPa) = 52.56196 57.78724 55.17460
# Shear Modulus (GPa) = -0.12359 13.94815 6.91228
#
# Velocity S-wave (km/s) = -0.23874 2.53619 1.78539
# Velocity P-wave (km/s) = 4.91560 5.93508 5.44923
#
# Compressibility (1/GPa) = 0.01902517
#
# Stress axis : x y z
#
# Youngs Moduli (GPa) = 69.05002 95.52410 93.82903
#
# Poissons Ratio (x) = 0.32262 0.07937
# Poissons Ratio (y) = 0.23321 0.38174
# Poissons Ratio (z) = 0.05841 0.38863
#
# Static dielectric constant tensor:
#      x y z
#    x 3.747220 0.000000 0.000000 
#    y 0.000000 4.393680 0.000000 
#    z 0.000000 0.000000 3.817440 
# 
# 
# High freq. dielectric constant tensor:
#      x y z
#    x 1.833460 0.000000 0.000000 
#    y 0.000000 1.861990 0.000000 
#    z 0.000000 0.000000 1.863430 
# 
# From -- ./inp_files/35371.got.cif
#   From: 2010.03.12/outbox.cif.g09.slc.cpg/sg63_18_cif.got.tgz:35371.got - 2010.04.10 19:34:48.
