data_PCOD8260091
_publ_section_title
;
Structure prediction by ZEFSAII (Michael W. Deem and Ramdas Pophale) SiO2 
 PCOD8260091
Probable space group: C M C M
;
_chemical_formula_sum "Si O2"
_cell_formula_units_Z 96
_cell_length_a 19.309135
_cell_length_b 30.875858
_cell_length_c 8.953647
_cell_angle_alpha 90.000000
_cell_angle_beta 90.000000
_cell_angle_gamma 90.000000
_cell_volume 5338.039978
_symmetry_space_group_name_H-M "C M C M"
_symmetry_group_IT_number 63
_symmetry_cell_setting 'orthorhombic'
loop_
_space_group_symop_operation_xyz
x,y,z
-x,-y,1/2+z
x,-y,-z
-x,y,1/2-z
-x,-y,-z
x,y,1/2-z
-x,y,z
x,-y,1/2+z
1/2+x,1/2+y,z
1/2-x,1/2-y,1/2+z
1/2+x,1/2-y,-z
1/2-x,1/2+y,1/2-z
1/2-x,1/2-y,-z
1/2+x,1/2+y,1/2-z
1/2-x,1/2+y,z
1/2+x,1/2-y,1/2+z
loop_
_atom_site_type_symbol
_atom_site_label
_atom_site_fract_x
_atom_site_fract_y
_atom_site_fract_z
Si Si1 0.674245 0.369366 0.572955
Si Si2 0.579634 0.211720 0.922452
Si Si3 0.819619 0.365253 0.427383
Si Si4 0.418552 0.299638 0.078637
Si Si5 0.832294 0.540684 0.913302
Si Si6 0.168280 0.041783 0.916888
O O1 0.679327 0.372630 0.750000
O O2 0.747856 0.354282 0.507820
O O3 0.617838 0.334300 0.526308
O O4 0.649288 0.415381 0.508942
O O5 0.592765 0.223792 0.750000
O O6 0.500000 0.199305 0.950589
O O7 0.624870 0.170727 0.972006
O O8 0.602871 0.251923 0.023494
O O9 0.805551 0.367670 0.250000
O O10 0.848836 0.412025 0.484121
O O11 0.394743 0.305068 0.250000
O O12 0.500000 0.306455 0.060286
O O13 0.865638 0.538262 0.750000
O O14 0.750111 0.535939 0.906163
O O15 0.865393 0.500000 0.000000
O O16 0.136747 0.045283 0.750000
O O17 0.135767 0.000000 0.000000
#
# Coordination Sequence:
#
# PCOD8260091 Si02
#       6
#    16  16  16  16  16  16
#     4  11  21  32  50  76 103 132 167 206 246 288
#     4   9  18  34  55  75  95 125 166 208 251 301
#     4   9  18  32  49  72 102 131 162 205 253 297
#     4  10  21  37  55  73  96 128 163 201 249 303
#     4   8  14  24  40  63  92 126 159 193 234 280
#     4   9  16  28  46  70 101 133 165 201 243 291
#
# _framework density 17.98413
#
# number of rings (size 3 to 8) (size 9 to 14) (size 15 to 20)
#    0.000    2.667    0.000    3.500    0.000    6.333 
#    0.000    0.000    0.000    1.000    0.000    0.000 
#    0.000    0.000    0.000    0.000    0.000    1.833 
#
# Total GULP energy -595079.655635 kJ/mol
# GULP energy per Si atom -12397.492826 kJ/mol
# Density = 1.794320 g / cm^3
# Si number density = 17.984130 Si / 1000 Ang^3
#
#
#
# Elastic Constant Matrix: (Units=GPa)
#
#
# Indices 1 2 3 4 5 6 
#
# 1 40.6525 53.5841 31.4192 0.0000 0.0000 0.0000
# 2 53.5841 150.2329 60.6835 0.0000 0.0000 0.0000
# 3 31.4192 60.6835 101.8161 0.0000 0.0000 0.0000
# 4 0.0000 0.0000 0.0000 35.7622 0.0000 0.0000
# 5 0.0000 0.0000 0.0000 0.0000 16.1953 0.0000
# 6 0.0000 0.0000 0.0000 0.0000 0.0000 -2.4405
#
#
#
# Elastic Compliance Matrix: (Units=1/GPa)
#
#
# Indices 1 2 3 4 5 6 
#
# 1 0.049250 -0.015051 -0.006228 0.000000 0.000000 0.000000
# 2 -0.015051 0.013366 -0.003322 0.000000 0.000000 0.000000
# 3 -0.006228 -0.003322 0.013723 0.000000 0.000000 0.000000
# 4 0.000000 0.000000 0.000000 0.027962 0.000000 0.000000
# 5 0.000000 0.000000 0.000000 0.000000 0.061746 0.000000
# 6 0.000000 0.000000 0.000000 0.000000 0.000000 -0.409752
#
#
# Mechanical properties :
#
#
# Convention : Reuss Voigt Hill
#
# Bulk Modulus (GPa) = 36.84707 64.89723 50.87215
# Shear Modulus (GPa) = -26.96052 19.70439 -3.62807
#
# Velocity S-wave (km/s) = -3.87606 3.31366 -1.42188
# Velocity P-wave (km/s) = 0.70807 7.12774 5.06488
#
# Compressibility (1/GPa) = 0.02713920
#
# Stress axis : x y z
#
# Youngs Moduli (GPa) = 20.30449 74.81453 72.86836
#
# Poissons Ratio (x) = 1.12601 0.45380
# Poissons Ratio (y) = 0.30560 0.24207
# Poissons Ratio (z) = 0.12645 0.24854
#
# Static dielectric constant tensor:
#      x y z
#    x 2.904450 0.000000 0.000000 
#    y 0.000000 3.599990 0.000000 
#    z 0.000000 0.000000 3.466440 
# 
# 
# High freq. dielectric constant tensor:
#      x y z
#    x 1.647860 0.000000 0.000000 
#    y 0.000000 1.713410 0.000000 
#    z 0.000000 0.000000 1.699950 
# 
# From -- ./inp_files/8576.got.cif
#   From: 2010.03.12/outbox.cif.g09.slc.cpg/sg63_5_cif.got.tgz:8576.got - 2010.04.10 19:34:48.
