data_PCOD8260504
_publ_section_title
;
Structure prediction by ZEFSAII (Michael W. Deem and Ramdas Pophale) SiO2 
 PCOD8260504
Probable space group: C M C M
;
_chemical_formula_sum "Si O2"
_cell_formula_units_Z 64
_cell_length_a 14.388554
_cell_length_b 11.402104
_cell_length_c 17.334599
_cell_angle_alpha 90.000000
_cell_angle_beta 90.000000
_cell_angle_gamma 90.000000
_cell_volume 2843.910656
_symmetry_space_group_name_H-M "C M C M"
_symmetry_group_IT_number 63
_symmetry_cell_setting 'orthorhombic'
loop_
_space_group_symop_operation_xyz
x,y,z
-x,-y,1/2+z
x,-y,-z
-x,y,1/2-z
-x,-y,-z
x,y,1/2-z
-x,y,z
x,-y,1/2+z
1/2+x,1/2+y,z
1/2-x,1/2-y,1/2+z
1/2+x,1/2-y,-z
1/2-x,1/2+y,1/2-z
1/2-x,1/2-y,-z
1/2+x,1/2+y,1/2-z
1/2-x,1/2+y,z
1/2+x,1/2-y,1/2+z
loop_
_atom_site_type_symbol
_atom_site_label
_atom_site_fract_x
_atom_site_fract_y
_atom_site_fract_z
Si Si1 0.898718 0.239666 0.115883
Si Si2 0.606279 0.876730 0.536336
Si Si3 0.701660 0.267281 0.163446
Si Si4 0.396030 0.478441 0.083455
O O1 0.812958 0.288125 0.165040
O O2 0.000000 0.290176 0.143405
O O3 0.899473 0.100723 0.128111
O O4 0.884133 0.273019 0.026072
O O5 0.500000 0.889655 0.565165
O O6 0.671362 0.841452 0.608698
O O7 0.640721 0.000000 0.500000
O O8 0.667178 0.240596 0.250000
O O9 0.659888 0.388625 0.135083
O O10 0.500000 0.426960 0.071079
O O11 0.348513 0.500000 0.000000
#
# Coordination Sequence:
#
# PCOD8260504 Si02
#       4
#    16  16  16  16
#     4  10  23  43  67  94 133 185 232 270 322 402
#     4  10  22  42  69 100 132 177 230 275 329 404
#     4  12  26  40  67 105 138 171 219 285 347 391
#     4  10  21  41  70 100 130 172 225 275 330 399
#
# _framework density 22.504223
#
# number of rings (size 3 to 8) (size 9 to 14) (size 15 to 20)
#    0.000    1.500    2.500    1.500    3.500    3.500 
#    0.000    2.500    0.000    4.500    0.000    0.000 
#    0.000    0.000    0.000    0.000    0.000    0.000 
#
# Total GULP energy -396777.522646 kJ/mol
# GULP energy per Si atom -12399.297583 kJ/mol
# Density = 2.245300 g / cm^3
# Si number density = 22.504223 Si / 1000 Ang^3
#
#
#
# Elastic Constant Matrix: (Units=GPa)
#
#
# Indices 1 2 3 4 5 6 
#
# 1 130.4299 53.6675 55.7101 0.0000 0.0000 0.0000
# 2 53.6675 123.7959 57.0958 0.0000 0.0000 0.0000
# 3 55.7101 57.0958 133.3944 0.0000 0.0000 0.0000
# 4 0.0000 0.0000 0.0000 25.4855 0.0000 0.0000
# 5 0.0000 0.0000 0.0000 0.0000 -2.3409 0.0000
# 6 0.0000 0.0000 0.0000 0.0000 0.0000 19.9961
#
#
#
# Elastic Compliance Matrix: (Units=1/GPa)
#
#
# Indices 1 2 3 4 5 6 
#
# 1 0.010182 -0.003056 -0.002944 0.000000 0.000000 0.000000
# 2 -0.003056 0.010982 -0.003424 0.000000 0.000000 0.000000
# 3 -0.002944 -0.003424 0.010192 0.000000 0.000000 0.000000
# 4 0.000000 0.000000 0.000000 0.039238 0.000000 0.000000
# 5 0.000000 0.000000 0.000000 0.000000 -0.427185 0.000000
# 6 0.000000 0.000000 0.000000 0.000000 0.000000 0.050010
#
#
# Mechanical properties :
#
#
# Convention : Reuss Voigt Hill
#
# Bulk Modulus (GPa) = 79.95758 80.06300 80.01029
# Shear Modulus (GPa) = -17.63275 23.37125 2.86925
#
# Velocity S-wave (km/s) = -2.80220 3.22612 1.13038
# Velocity P-wave (km/s) = 5.01372 7.03784 6.11018
#
# Compressibility (1/GPa) = 0.01250663
#
# Stress axis : x y z
#
# Youngs Moduli (GPa) = 98.21218 91.05838 98.11790
#
# Poissons Ratio (x) = 0.27829 0.28889
# Poissons Ratio (y) = 0.30015 0.33597
# Poissons Ratio (z) = 0.28916 0.31180
#
# Static dielectric constant tensor:
#      x y z
#    x 4.362480 0.000000 0.000000 
#    y 0.000000 3.927830 0.000000 
#    z 0.000000 0.000000 3.650050 
# 
# 
# High freq. dielectric constant tensor:
#      x y z
#    x 1.901460 0.000000 0.000000 
#    y 0.000000 1.885010 0.000000 
#    z 0.000000 0.000000 1.849640 
# 
# From -- ./inp_files/33380.got.cif
#   From: 2010.03.12/outbox.cif.g09.slc.cpg/sg63_17_cif.got.tgz:33380.got - 2010.04.10 19:34:48.
