data_PCOD8260204
_publ_section_title
;
Structure prediction by ZEFSAII (Michael W. Deem and Ramdas Pophale) SiO2 
 PCOD8260204
Probable space group: C M C M
;
_chemical_formula_sum "Si O2"
_cell_formula_units_Z 80
_cell_length_a 9.023600
_cell_length_b 18.307961
_cell_length_c 24.910572
_cell_angle_alpha 90.000000
_cell_angle_beta 90.000000
_cell_angle_gamma 90.000000
_cell_volume 4115.319084
_symmetry_space_group_name_H-M "C M C M"
_symmetry_group_IT_number 63
_symmetry_cell_setting 'orthorhombic'
loop_
_space_group_symop_operation_xyz
x,y,z
-x,-y,1/2+z
x,-y,-z
-x,y,1/2-z
-x,-y,-z
x,y,1/2-z
-x,y,z
x,-y,1/2+z
1/2+x,1/2+y,z
1/2-x,1/2-y,1/2+z
1/2+x,1/2-y,-z
1/2-x,1/2+y,1/2-z
1/2-x,1/2-y,-z
1/2+x,1/2+y,1/2-z
1/2-x,1/2+y,z
1/2+x,1/2-y,1/2+z
loop_
_atom_site_type_symbol
_atom_site_label
_atom_site_fract_x
_atom_site_fract_y
_atom_site_fract_z
Si Si1 0.171835 0.669195 0.102834
Si Si2 0.672762 0.662486 0.601111
Si Si3 0.171043 0.414513 0.004057
Si Si4 0.672845 0.423085 0.811890
Si Si5 0.672614 0.927586 0.312203
O O1 0.208146 0.753053 0.090508
O O2 0.220405 0.622536 0.051370
O O3 0.267542 0.644491 0.153773
O O4 0.000000 0.657064 0.116641
O O5 0.500000 0.648108 0.609295
O O6 0.727881 0.616367 0.550894
O O7 0.756499 0.638608 0.655029
O O8 0.000000 0.396944 0.017130
O O9 0.200226 0.500000 0.000000
O O10 0.707849 0.405555 0.750000
O O11 0.500000 0.434192 0.822112
O O12 0.754835 0.496507 0.830713
O O13 0.703995 0.911708 0.250000
O O14 0.500000 0.932880 0.325377
#
# Coordination Sequence:
#
# PCOD8260204 Si02
#       5
#    16  16  16  16  16
#     4  10  22  38  56  83 118 153 188 229 281 336
#     4  11  23  37  56  84 117 151 188 233 283 333
#     4  10  21  38  60  83 109 146 192 237 281 336
#     4  10  21  37  59  87 116 147 187 234 281 333
#     4  10  21  38  60  83 110 148 191 234 282 335
#
# _framework density 19.439561999999999
#
# number of rings (size 3 to 8) (size 9 to 14) (size 15 to 20)
#    0.000    1.800    0.000    3.600    0.000    7.600 
#    0.000    4.000    0.000    0.000    0.000    0.000 
#    0.000    0.000    0.000    0.000    0.000    0.000 
#
# Total GULP energy -496289.590367 kJ/mol
# GULP energy per Si atom -12407.239759 kJ/mol
# Density = 1.939532 g / cm^3
# Si number density = 19.439562 Si / 1000 Ang^3
#
#
#
# Elastic Constant Matrix: (Units=GPa)
#
#
# Indices 1 2 3 4 5 6 
#
# 1 97.4790 53.8616 57.7435 0.0000 0.0000 0.0000
# 2 53.8616 108.2835 60.2121 0.0000 0.0000 0.0000
# 3 57.7435 60.2121 105.5173 0.0000 0.0000 0.0000
# 4 0.0000 0.0000 0.0000 28.8957 0.0000 0.0000
# 5 0.0000 0.0000 0.0000 0.0000 34.2459 0.0000
# 6 0.0000 0.0000 0.0000 0.0000 0.0000 33.4311
#
#
#
# Elastic Compliance Matrix: (Units=1/GPa)
#
#
# Indices 1 2 3 4 5 6 
#
# 1 0.016677 -0.004717 -0.006434 0.000000 0.000000 0.000000
# 2 -0.004717 0.014862 -0.005899 0.000000 0.000000 0.000000
# 3 -0.006434 -0.005899 0.016364 0.000000 0.000000 0.000000
# 4 0.000000 0.000000 0.000000 0.034607 0.000000 0.000000
# 5 0.000000 0.000000 0.000000 0.000000 0.029201 0.000000
# 6 0.000000 0.000000 0.000000 0.000000 0.000000 0.029912
#
#
# Mechanical properties :
#
#
# Convention : Reuss Voigt Hill
#
# Bulk Modulus (GPa) = 72.45649 72.76822 72.61236
# Shear Modulus (GPa) = 27.72776 28.61207 28.16992
#
# Velocity S-wave (km/s) = 3.78081 3.84063 3.81084
# Velocity P-wave (km/s) = 7.51086 7.56185 7.53640
#
# Compressibility (1/GPa) = 0.01380139
#
# Stress axis : x y z
#
# Youngs Moduli (GPa) = 59.96422 67.28684 61.10796
#
# Poissons Ratio (x) = 0.31741 0.39318
# Poissons Ratio (y) = 0.28287 0.36048
# Poissons Ratio (z) = 0.38583 0.39693
#
# Static dielectric constant tensor:
#      x y z
#    x 3.579930 0.000000 0.000000 
#    y 0.000000 3.557210 0.000000 
#    z 0.000000 0.000000 3.611340 
# 
# 
# High freq. dielectric constant tensor:
#      x y z
#    x 1.762740 0.000000 0.000000 
#    y 0.000000 1.761370 0.000000 
#    z 0.000000 0.000000 1.765840 
# 
# From -- ./inp_files/66591.got.cif
#   From: 2010.03.12/outbox.cif.g09.slc.cpg/sg63_34_cif.got.tgz:66591.got - 2010.04.10 19:34:48.
