data_PCOD8260580
_publ_section_title
;
Structure prediction by ZEFSAII (Michael W. Deem and Ramdas Pophale) SiO2 
 PCOD8260580
Probable space group: C M C M
;
_chemical_formula_sum "Si O2"
_cell_formula_units_Z 64
_cell_length_a 22.966364
_cell_length_b 5.067928
_cell_length_c 20.921475
_cell_angle_alpha 90.000000
_cell_angle_beta 90.000000
_cell_angle_gamma 90.000000
_cell_volume 2435.089790
_symmetry_space_group_name_H-M "C M C M"
_symmetry_group_IT_number 63
_symmetry_cell_setting 'orthorhombic'
loop_
_space_group_symop_operation_xyz
x,y,z
-x,-y,1/2+z
x,-y,-z
-x,y,1/2-z
-x,-y,-z
x,y,1/2-z
-x,y,z
x,-y,1/2+z
1/2+x,1/2+y,z
1/2-x,1/2-y,1/2+z
1/2+x,1/2-y,-z
1/2-x,1/2+y,1/2-z
1/2-x,1/2-y,-z
1/2+x,1/2+y,1/2-z
1/2-x,1/2+y,z
1/2+x,1/2-y,1/2+z
loop_
_atom_site_type_symbol
_atom_site_label
_atom_site_fract_x
_atom_site_fract_y
_atom_site_fract_z
Si Si1 0.069302 0.709681 0.321459
Si Si2 0.067814 0.201122 0.400555
Si Si3 0.212000 0.386220 0.614464
Si Si4 0.789360 0.270676 0.750000
Si Si5 0.635688 0.000000 0.000000
O O1 0.096846 0.746181 0.250000
O O2 0.084696 0.424202 0.349245
O O3 0.000000 0.743448 0.315190
O O4 0.092558 0.930107 0.371206
O O5 0.097352 0.270100 0.468014
O O6 0.000000 0.185544 0.414720
O O7 0.233523 0.688169 0.612984
O O8 0.176730 0.330450 0.682168
O O9 0.173021 0.342362 0.552536
O O10 0.733803 0.471339 0.750000
#
# Coordination Sequence:
#
# PCOD8260580 Si02
#       5
#    16  16  16   8   8
#     4   9  18  37  62  85 116 162 213 261 305 350
#     4  10  22  38  59  89 127 169 207 250 305 367
#     4  10  22  41  65  90 120 159 204 256 309 367
#     4   8  16  36  62  84 113 150 193 246 306 356
#     4  12  25  40  62  94 132 164 209 246 314 368
#
# _framework density 26.282401
#
# number of rings (size 3 to 8) (size 9 to 14) (size 15 to 20)
#    0.000    2.250    0.000    1.875    0.000    8.000 
#    4.500    3.750    5.500    0.000    0.000    0.000 
#    0.000    0.000    0.000    0.000    0.000    0.000 
#
# Total GULP energy -396907.654554 kJ/mol
# GULP energy per Si atom -12403.364205 kJ/mol
# Density = 2.622258 g / cm^3
# Si number density = 26.282401 Si / 1000 Ang^3
#
#
#
# Elastic Constant Matrix: (Units=GPa)
#
#
# Indices 1 2 3 4 5 6 
#
# 1 46.3403 18.9774 71.0998 0.0000 0.0000 0.0000
# 2 18.9774 107.4121 26.5511 0.0000 0.0000 0.0000
# 3 71.0998 26.5511 226.8688 0.0000 0.0000 0.0000
# 4 0.0000 0.0000 0.0000 32.6112 0.0000 0.0000
# 5 0.0000 0.0000 0.0000 0.0000 70.6082 0.0000
# 6 0.0000 0.0000 0.0000 0.0000 0.0000 -33.0520
#
#
#
# Elastic Compliance Matrix: (Units=1/GPa)
#
#
# Indices 1 2 3 4 5 6 
#
# 1 0.043537 -0.004448 -0.013124 0.000000 0.000000 0.000000
# 2 -0.004448 0.010042 0.000219 0.000000 0.000000 0.000000
# 3 -0.013124 0.000219 0.008495 0.000000 0.000000 0.000000
# 4 0.000000 0.000000 0.000000 0.030664 0.000000 0.000000
# 5 0.000000 0.000000 0.000000 0.000000 0.014163 0.000000
# 6 0.000000 0.000000 0.000000 0.000000 0.000000 -0.030255
#
#
# Mechanical properties :
#
#
# Convention : Reuss Voigt Hill
#
# Bulk Modulus (GPa) = 36.53929 68.20864 52.37396
# Shear Modulus (GPa) = 41.50290 31.63299 36.56794
#
# Velocity S-wave (km/s) = 3.97812 3.47303 3.73412
# Velocity P-wave (km/s) = 5.91889 6.48777 6.20985
#
# Compressibility (1/GPa) = 0.02736780
#
# Stress axis : x y z
#
# Youngs Moduli (GPa) = 22.96915 99.58458 117.71444
#
# Poissons Ratio (x) = 0.44295 1.54484
# Poissons Ratio (y) = 0.10217 -0.02575
# Poissons Ratio (z) = 0.30144 -0.02179
#
# Static dielectric constant tensor:
#      x y z
#    x 4.852130 0.000000 0.000000 
#    y 0.000000 4.556300 0.000000 
#    z 0.000000 0.000000 5.268550 
# 
# 
# High freq. dielectric constant tensor:
#      x y z
#    x 2.067980 0.000000 0.000000 
#    y 0.000000 2.051860 0.000000 
#    z 0.000000 0.000000 2.079330 
# 
# From -- ./inp_files/57874.got.cif
#   From: 2010.03.12/outbox.cif.g09.slc.cpg/sg63_29_cif.got.tgz:57874.got - 2010.04.10 19:34:48.
