data_PCOD8260741
_publ_section_title
;
Structure prediction by ZEFSAII (Michael W. Deem and Ramdas Pophale) SiO2 
 PCOD8260741
Probable space group: C M C M
;
_chemical_formula_sum "Si O2"
_cell_formula_units_Z 40
_cell_length_a 9.597908
_cell_length_b 11.102900
_cell_length_c 14.622081
_cell_angle_alpha 90.000000
_cell_angle_beta 90.000000
_cell_angle_gamma 90.000000
_cell_volume 1558.196399
_symmetry_space_group_name_H-M "C M C M"
_symmetry_group_IT_number 63
_symmetry_cell_setting 'orthorhombic'
loop_
_space_group_symop_operation_xyz
x,y,z
-x,-y,1/2+z
x,-y,-z
-x,y,1/2-z
-x,-y,-z
x,y,1/2-z
-x,y,z
x,-y,1/2+z
1/2+x,1/2+y,z
1/2-x,1/2-y,1/2+z
1/2+x,1/2-y,-z
1/2-x,1/2+y,1/2-z
1/2-x,1/2-y,-z
1/2+x,1/2+y,1/2-z
1/2-x,1/2+y,z
1/2+x,1/2-y,1/2+z
loop_
_atom_site_type_symbol
_atom_site_label
_atom_site_fract_x
_atom_site_fract_y
_atom_site_fract_z
Si Si1 0.500000 0.338626 0.352881
Si Si2 0.000000 0.516975 0.605330
Si Si3 0.500000 0.277816 0.551323
Si Si4 0.699059 0.447063 0.850135
O O1 0.500000 0.278236 0.250000
O O2 0.500000 0.247440 0.440840
O O3 0.362633 0.419955 0.365144
O O4 0.000000 0.500000 0.500000
O O5 0.000000 0.661700 0.616836
O O6 0.134609 0.454146 0.648270
O O7 0.361703 0.355931 0.574386
O O8 0.654043 0.399538 0.750000
#
# Coordination Sequence:
#
# PCOD8260741 Si02
#       4
#     8   8   8  16
#     4   9  19  39  67  97 131 174 226 281 334 395
#     4  12  26  42  65  99 136 176 224 278 332 394
#     4  11  23  45  71  92 132 186 223 267 340 403
#     4  10  22  41  67  99 133 172 223 279 334 400
#
# _framework density 25.670704000000001
#
# number of rings (size 3 to 8) (size 9 to 14) (size 15 to 20)
#    0.000    1.600    0.000    7.200    0.000    9.600 
#    0.000    8.000    0.000    7.200    0.000    0.000 
#    0.000    0.000    0.000    0.000    0.000    0.000 
#
# Total GULP energy -247893.007508 kJ/mol
# GULP energy per Si atom -12394.650375 kJ/mol
# Density = 2.561228 g / cm^3
# Si number density = 25.670704 Si / 1000 Ang^3
#
#
#
# Elastic Constant Matrix: (Units=GPa)
#
#
# Indices 1 2 3 4 5 6 
#
# 1 195.2058 25.8300 13.0822 0.0000 0.0000 0.0000
# 2 25.8300 56.6774 16.9177 0.0000 0.0000 0.0000
# 3 13.0822 16.9177 168.6220 0.0000 0.0000 0.0000
# 4 0.0000 0.0000 0.0000 17.9119 0.0000 0.0000
# 5 0.0000 0.0000 0.0000 0.0000 30.7907 0.0000
# 6 0.0000 0.0000 0.0000 0.0000 0.0000 31.6366
#
#
#
# Elastic Compliance Matrix: (Units=1/GPa)
#
#
# Indices 1 2 3 4 5 6 
#
# 1 0.005457 -0.002433 -0.000179 0.000000 0.000000 0.000000
# 2 -0.002433 0.019274 -0.001745 0.000000 0.000000 0.000000
# 3 -0.000179 -0.001745 0.006119 0.000000 0.000000 0.000000
# 4 0.000000 0.000000 0.000000 0.055829 0.000000 0.000000
# 5 0.000000 0.000000 0.000000 0.000000 0.032477 0.000000
# 6 0.000000 0.000000 0.000000 0.000000 0.000000 0.031609
#
#
# Mechanical properties :
#
#
# Convention : Reuss Voigt Hill
#
# Bulk Modulus (GPa) = 45.17785 59.12944 52.15365
# Shear Modulus (GPa) = 29.96558 40.37953 35.17255
#
# Velocity S-wave (km/s) = 3.42029 3.97038 3.70556
# Velocity P-wave (km/s) = 5.76499 6.64097 6.21842
#
# Compressibility (1/GPa) = 0.02213474
#
# Stress axis : x y z
#
# Youngs Moduli (GPa) = 183.25770 51.88460 163.41493
#
# Poissons Ratio (x) = 0.12625 0.02929
# Poissons Ratio (y) = 0.44593 0.28514
# Poissons Ratio (z) = 0.03284 0.09053
#
# Static dielectric constant tensor:
#      x y z
#    x 4.286680 0.000000 0.000000 
#    y 0.000000 5.463830 0.000000 
#    z 0.000000 0.000000 6.645970 
# 
# 
# High freq. dielectric constant tensor:
#      x y z
#    x 2.029720 0.000000 0.000000 
#    y 0.000000 2.003740 0.000000 
#    z 0.000000 0.000000 2.039490 
# 
# From -- ./inp_files/26734.got.cif
#   From: 2010.03.12/outbox.cif.g09.slc.cpg/sg63_14_cif.got.tgz:26734.got - 2010.04.10 19:34:48.
