data_PCOD8260000
_publ_section_title
;
Structure prediction by ZEFSAII (Michael W. Deem and Ramdas Pophale) SiO2 
 PCOD8260000
Probable space group: C M C M
;
_chemical_formula_sum "Si O2"
_cell_formula_units_Z 96
_cell_length_a 20.625026
_cell_length_b 8.761945
_cell_length_c 26.463052
_cell_angle_alpha 90.000000
_cell_angle_beta 90.000000
_cell_angle_gamma 90.000000
_cell_volume 4782.279531
_symmetry_space_group_name_H-M "C M C M"
_symmetry_group_IT_number 63
_symmetry_cell_setting 'orthorhombic'
loop_
_space_group_symop_operation_xyz
x,y,z
-x,-y,1/2+z
x,-y,-z
-x,y,1/2-z
-x,-y,-z
x,y,1/2-z
-x,y,z
x,-y,1/2+z
1/2+x,1/2+y,z
1/2-x,1/2-y,1/2+z
1/2+x,1/2-y,-z
1/2-x,1/2+y,1/2-z
1/2-x,1/2-y,-z
1/2+x,1/2+y,1/2-z
1/2-x,1/2+y,z
1/2+x,1/2-y,1/2+z
loop_
_atom_site_type_symbol
_atom_site_label
_atom_site_fract_x
_atom_site_fract_y
_atom_site_fract_z
Si Si1 0.657193 0.780776 0.305688
Si Si2 0.073722 0.625213 0.899347
Si Si3 0.198556 0.072734 0.944737
Si Si4 0.430105 0.441296 0.943168
Si Si5 0.318247 0.895487 0.590859
Si Si6 0.725989 0.089900 0.194261
O O1 0.624137 0.780966 0.250000
O O2 0.601626 0.807352 0.346898
O O3 0.697335 0.624019 0.314590
O O4 0.713327 0.909216 0.308731
O O5 0.077872 0.757884 0.941446
O O6 0.113658 0.479479 0.919965
O O7 0.000000 0.571751 0.890398
O O8 0.132257 0.017859 0.916407
O O9 0.261340 0.021606 0.913762
O O10 0.194691 0.257039 0.947850
O O11 0.202601 0.000000 0.000000
O O12 0.500000 0.484743 0.917546
O O13 0.430950 0.500000 0.000000
O O14 0.316303 0.833931 0.648839
O O15 0.704648 0.152142 0.250000
#
# Coordination Sequence:
#
# PCOD8260000 Si02
#       6
#    16  16  16  16  16  16
#     4   9  17  30  51  80 112 144 179 222 272 324
#     4  10  21  36  54  78 109 146 189 231 274 330
#     4  11  22  36  56  82 111 140 178 227 279 334
#     4   9  19  37  57  77 105 140 177 222 277 331
#     4  11  21  35  57  82 111 145 182 227 279 328
#     4   9  17  30  50  79 110 138 173 216 264 319
#
# _framework density 20.074109
#
# number of rings (size 3 to 8) (size 9 to 14) (size 15 to 20)
#    0.000    2.167    0.000    4.500    0.000    2.333 
#    0.000    0.000    0.000    9.500    0.000    0.000 
#    0.000    6.667    0.000    0.000    0.000    0.000 
#
# Total GULP energy -594680.855413 kJ/mol
# GULP energy per Si atom -12389.184488 kJ/mol
# Density = 2.002842 g / cm^3
# Si number density = 20.074109 Si / 1000 Ang^3
#
#
#
# Elastic Constant Matrix: (Units=GPa)
#
#
# Indices 1 2 3 4 5 6 
#
# 1 156.9155 62.4059 29.1133 0.0000 0.0000 0.0000
# 2 62.4059 100.8234 45.4681 0.0000 0.0000 0.0000
# 3 29.1133 45.4681 93.4659 0.0000 0.0000 0.0000
# 4 0.0000 0.0000 0.0000 26.2785 0.0000 0.0000
# 5 0.0000 0.0000 0.0000 0.0000 17.7199 0.0000
# 6 0.0000 0.0000 0.0000 0.0000 0.0000 35.0658
#
#
#
# Elastic Compliance Matrix: (Units=1/GPa)
#
#
# Indices 1 2 3 4 5 6 
#
# 1 0.008455 -0.005183 -0.000112 0.000000 0.000000 0.000000
# 2 -0.005183 0.015882 -0.006112 0.000000 0.000000 0.000000
# 3 -0.000112 -0.006112 0.013707 0.000000 0.000000 0.000000
# 4 0.000000 0.000000 0.000000 0.038054 0.000000 0.000000
# 5 0.000000 0.000000 0.000000 0.000000 0.056434 0.000000
# 6 0.000000 0.000000 0.000000 0.000000 0.000000 0.028518
#
#
# Mechanical properties :
#
#
# Convention : Reuss Voigt Hill
#
# Bulk Modulus (GPa) = 65.65662 69.46436 67.56049
# Shear Modulus (GPa) = 26.46328 30.09400 28.27864
#
# Velocity S-wave (km/s) = 3.63475 3.87608 3.75735
# Velocity P-wave (km/s) = 7.09883 7.39669 7.24929
#
# Compressibility (1/GPa) = 0.01523076
#
# Stress axis : x y z
#
# Youngs Moduli (GPa) = 118.27572 62.96263 72.95328
#
# Poissons Ratio (x) = 0.32630 0.00820
# Poissons Ratio (y) = 0.61297 0.44589
# Poissons Ratio (z) = 0.01330 0.38483
#
# Static dielectric constant tensor:
#      x y z
#    x 4.057020 0.000000 0.000000 
#    y 0.000000 3.588380 0.000000 
#    z 0.000000 0.000000 3.725850 
# 
# 
# High freq. dielectric constant tensor:
#      x y z
#    x 1.772630 0.000000 0.000000 
#    y 0.000000 1.773900 0.000000 
#    z 0.000000 0.000000 1.778550 
# 
# From -- ./inp_files/70302.got.cif
#   From: 2010.03.12/outbox.cif.g09.slc.cpg/sg63_36_cif.got.tgz:70302.got - 2010.04.10 19:34:48.
