data_PCOD8260192
_publ_section_title
;
Structure prediction by ZEFSAII (Michael W. Deem and Ramdas Pophale) SiO2 
 PCOD8260192
Probable space group: C M C M
;
_chemical_formula_sum "Si O2"
_cell_formula_units_Z 64
_cell_length_a 10.623471
_cell_length_b 8.944719
_cell_length_c 25.755398
_cell_angle_alpha 90.000000
_cell_angle_beta 90.000000
_cell_angle_gamma 90.000000
_cell_volume 2447.379984
_symmetry_space_group_name_H-M "C M C M"
_symmetry_group_IT_number 63
_symmetry_cell_setting 'orthorhombic'
loop_
_space_group_symop_operation_xyz
x,y,z
-x,-y,1/2+z
x,-y,-z
-x,y,1/2-z
-x,-y,-z
x,y,1/2-z
-x,y,z
x,-y,1/2+z
1/2+x,1/2+y,z
1/2-x,1/2-y,1/2+z
1/2+x,1/2-y,-z
1/2-x,1/2+y,1/2-z
1/2-x,1/2-y,-z
1/2+x,1/2+y,1/2-z
1/2-x,1/2+y,z
1/2+x,1/2-y,1/2+z
loop_
_atom_site_type_symbol
_atom_site_label
_atom_site_fract_x
_atom_site_fract_y
_atom_site_fract_z
Si Si1 0.647629 0.168023 0.613371
Si Si2 0.500000 0.945387 0.808674
Si Si3 0.000000 0.908687 0.191140
Si Si4 0.729150 0.593437 0.311746
Si Si5 0.640590 0.474719 0.559923
O O1 0.500000 0.109500 0.624410
O O2 0.703908 0.242173 0.666537
O O3 0.640051 0.296911 0.570008
O O4 0.744674 0.043484 0.592571
O O5 0.500000 0.005508 0.750000
O O6 0.500000 0.766555 0.811119
O O7 0.638346 0.982794 0.833380
O O8 0.877400 0.983518 0.165540
O O9 0.000000 0.967263 0.250000
O O10 0.741894 0.609964 0.250000
O O11 0.669475 0.500000 0.500000
O O12 0.500000 0.541015 0.574072
#
# Coordination Sequence:
#
# PCOD8260192 Si02
#       5
#    16   8   8  16  16
#     4  11  24  40  65  98 127 165 213 256 315 386
#     4   9  20  36  57  81 114 165 214 253 297 351
#     4   9  18  36  57  75 114 163 198 249 303 345
#     4  10  21  37  58  89 126 165 208 252 302 368
#     4  10  24  46  69  94 126 163 210 271 329 380
#
# _framework density 26.150413
#
# number of rings (size 3 to 8) (size 9 to 14) (size 15 to 20)
#    0.000    2.000    1.250    0.750    5.250    1.500 
#    0.000    1.250    0.000    7.500    0.000    0.000 
#    0.000    0.000    0.000    0.000    0.000    0.000 
#
# Total GULP energy -396769.701455 kJ/mol
# GULP energy per Si atom -12399.053170 kJ/mol
# Density = 2.609089 g / cm^3
# Si number density = 26.150413 Si / 1000 Ang^3
#
#
#
# Elastic Constant Matrix: (Units=GPa)
#
#
# Indices 1 2 3 4 5 6 
#
# 1 288.2688 97.6118 112.6332 0.0000 0.0000 0.0000
# 2 97.6118 105.8374 36.3681 0.0000 0.0000 0.0000
# 3 112.6332 36.3681 137.3443 0.0000 0.0000 0.0000
# 4 0.0000 0.0000 0.0000 26.9655 0.0000 0.0000
# 5 0.0000 0.0000 0.0000 0.0000 47.9853 0.0000
# 6 0.0000 0.0000 0.0000 0.0000 0.0000 60.3954
#
#
#
# Elastic Compliance Matrix: (Units=1/GPa)
#
#
# Indices 1 2 3 4 5 6 
#
# 1 0.006750 -0.004756 -0.004276 0.000000 0.000000 0.000000
# 2 -0.004756 0.013745 0.000261 0.000000 0.000000 0.000000
# 3 -0.004276 0.000261 0.010719 0.000000 0.000000 0.000000
# 4 0.000000 0.000000 0.000000 0.037084 0.000000 0.000000
# 5 0.000000 0.000000 0.000000 0.000000 0.020840 0.000000
# 6 0.000000 0.000000 0.000000 0.000000 0.000000 0.016558
#
#
# Mechanical properties :
#
#
# Convention : Reuss Voigt Hill
#
# Bulk Modulus (GPa) = 73.14763 113.85295 93.50029
# Shear Modulus (GPa) = 39.12440 46.05841 42.59141
#
# Velocity S-wave (km/s) = 3.87218 4.20132 4.04010
# Velocity P-wave (km/s) = 6.92996 8.19555 7.58918
#
# Compressibility (1/GPa) = 0.01367098
#
# Stress axis : x y z
#
# Youngs Moduli (GPa) = 148.13827 72.75109 93.29280
#
# Poissons Ratio (x) = 0.34603 0.39896
# Poissons Ratio (y) = 0.70459 -0.02433
# Poissons Ratio (z) = 0.63351 -0.01898
#
# Static dielectric constant tensor:
#      x y z
#    x 5.841850 0.000000 0.000000 
#    y 0.000000 4.621250 0.000000 
#    z 0.000000 0.000000 5.003360 
# 
# 
# High freq. dielectric constant tensor:
#      x y z
#    x 2.102160 0.000000 0.000000 
#    y 0.000000 2.058810 0.000000 
#    z 0.000000 0.000000 2.065130 
# 
# From -- ./inp_files/71361.got.cif
#   From: 2010.03.12/outbox.cif.g09.slc.cpg/sg63_36_cif.got.tgz:71361.got - 2010.04.10 19:34:48.
