data_PCOD8260468
_publ_section_title
;
Structure prediction by ZEFSAII (Michael W. Deem and Ramdas Pophale) SiO2 
 PCOD8260468
Probable space group: C M C M
;
_chemical_formula_sum "Si O2"
_cell_formula_units_Z 64
_cell_length_a 22.735402
_cell_length_b 7.699541
_cell_length_c 16.761820
_cell_angle_alpha 90.000000
_cell_angle_beta 90.000000
_cell_angle_gamma 90.000000
_cell_volume 2934.192794
_symmetry_space_group_name_H-M "C M C M"
_symmetry_group_IT_number 63
_symmetry_cell_setting 'orthorhombic'
loop_
_space_group_symop_operation_xyz
x,y,z
-x,-y,1/2+z
x,-y,-z
-x,y,1/2-z
-x,-y,-z
x,y,1/2-z
-x,y,z
x,-y,1/2+z
1/2+x,1/2+y,z
1/2-x,1/2-y,1/2+z
1/2+x,1/2-y,-z
1/2-x,1/2+y,1/2-z
1/2-x,1/2-y,-z
1/2+x,1/2+y,1/2-z
1/2-x,1/2+y,z
1/2+x,1/2-y,1/2+z
loop_
_atom_site_type_symbol
_atom_site_label
_atom_site_fract_x
_atom_site_fract_y
_atom_site_fract_z
Si Si1 0.839799 0.698167 0.092852
Si Si2 0.432300 0.427835 0.342363
Si Si3 0.156128 0.141278 0.063064
Si Si4 0.233085 0.623109 0.656059
O O1 0.810705 0.524167 0.124624
O O2 0.798336 0.867336 0.117967
O O3 0.901007 0.743101 0.137461
O O4 0.851029 0.691221 0.996974
O O5 0.424584 0.475405 0.250000
O O6 0.500000 0.409267 0.366149
O O7 0.404872 0.583257 0.395936
O O8 0.204152 0.190957 0.130550
O O9 0.179802 0.000000 0.000000
O O10 0.238066 0.611402 0.750000
#
# Coordination Sequence:
#
# PCOD8260468 Si02
#       4
#    16  16  16  16
#     4  11  23  38  59  88 122 159 198 248 303 357
#     4  10  21  40  64  89 119 158 204 249 297 355
#     4  10  22  38  60  87 120 156 196 242 296 356
#     4  12  23  39  62  90 124 158 200 248 302 359
#
# _framework density 21.811792000000001
#
# number of rings (size 3 to 8) (size 9 to 14) (size 15 to 20)
#    0.000    1.250    0.000    7.500    0.000    6.500 
#    0.000    1.250    0.000   12.000    0.000    0.000 
#    0.000    0.000    0.000    0.000    0.000    0.000 
#
# Total GULP energy -396524.592471 kJ/mol
# GULP energy per Si atom -12391.393515 kJ/mol
# Density = 2.176215 g / cm^3
# Si number density = 21.811792 Si / 1000 Ang^3
#
#
#
# Elastic Constant Matrix: (Units=GPa)
#
#
# Indices 1 2 3 4 5 6 
#
# 1 145.2770 23.4170 55.6928 0.0000 0.0000 0.0000
# 2 23.4170 32.4749 15.8248 0.0000 0.0000 0.0000
# 3 55.6928 15.8248 127.2435 0.0000 0.0000 0.0000
# 4 0.0000 0.0000 0.0000 39.3818 0.0000 0.0000
# 5 0.0000 0.0000 0.0000 0.0000 32.1382 0.0000
# 6 0.0000 0.0000 0.0000 0.0000 0.0000 28.9630
#
#
#
# Elastic Compliance Matrix: (Units=1/GPa)
#
#
# Indices 1 2 3 4 5 6 
#
# 1 0.008930 -0.004827 -0.003308 0.000000 0.000000 0.000000
# 2 -0.004827 0.035389 -0.002288 0.000000 0.000000 0.000000
# 3 -0.003308 -0.002288 0.009591 0.000000 0.000000 0.000000
# 4 0.000000 0.000000 0.000000 0.025392 0.000000 0.000000
# 5 0.000000 0.000000 0.000000 0.000000 0.031116 0.000000
# 6 0.000000 0.000000 0.000000 0.000000 0.000000 0.034527
#
#
# Mechanical properties :
#
#
# Convention : Reuss Voigt Hill
#
# Bulk Modulus (GPa) = 30.24543 54.98496 42.61520
# Shear Modulus (GPa) = 28.27852 34.10067 31.18960
#
# Velocity S-wave (km/s) = 3.60457 3.95828 3.78556
# Velocity P-wave (km/s) = 5.58754 6.79369 6.21992
#
# Compressibility (1/GPa) = 0.03306285
#
# Stress axis : x y z
#
# Youngs Moduli (GPa) = 111.98684 28.25752 104.25952
#
# Poissons Ratio (x) = 0.13640 0.34490
# Poissons Ratio (y) = 0.54056 0.23860
# Poissons Ratio (z) = 0.37046 0.06467
#
# Static dielectric constant tensor:
#      x y z
#    x 3.777950 0.000000 0.000000 
#    y 0.000000 4.255540 0.000000 
#    z 0.000000 0.000000 4.364190 
# 
# 
# High freq. dielectric constant tensor:
#      x y z
#    x 1.834910 0.000000 0.000000 
#    y 0.000000 1.861160 0.000000 
#    z 0.000000 0.000000 1.886940 
# 
# From -- ./inp_files/46532.got.cif
#   From: 2010.03.12/outbox.cif.g09.slc.cpg/sg63_24_cif.got.tgz:46532.got - 2010.04.10 19:34:48.
