data_PCOD8260622
_publ_section_title
;
Structure prediction by ZEFSAII (Michael W. Deem and Ramdas Pophale) SiO2 
 PCOD8260622
Probable space group: C M C M
;
_chemical_formula_sum "Si O2"
_cell_formula_units_Z 64
_cell_length_a 17.800143
_cell_length_b 6.888027
_cell_length_c 25.218446
_cell_angle_alpha 90.000000
_cell_angle_beta 90.000000
_cell_angle_gamma 90.000000
_cell_volume 3091.979838
_symmetry_space_group_name_H-M "C M C M"
_symmetry_group_IT_number 63
_symmetry_cell_setting 'orthorhombic'
loop_
_space_group_symop_operation_xyz
x,y,z
-x,-y,1/2+z
x,-y,-z
-x,y,1/2-z
-x,-y,-z
x,y,1/2-z
-x,y,z
x,-y,1/2+z
1/2+x,1/2+y,z
1/2-x,1/2-y,1/2+z
1/2+x,1/2-y,-z
1/2-x,1/2+y,1/2-z
1/2-x,1/2-y,-z
1/2+x,1/2+y,1/2-z
1/2-x,1/2+y,z
1/2+x,1/2-y,1/2+z
loop_
_atom_site_type_symbol
_atom_site_label
_atom_site_fract_x
_atom_site_fract_y
_atom_site_fract_z
Si Si1 0.086729 0.573580 0.689313
Si Si2 0.701507 0.001299 0.558505
Si Si3 0.658220 0.637321 0.114378
Si Si4 0.916085 0.253150 0.603662
O O1 0.107252 0.531791 0.750000
O O2 0.142762 0.743855 0.668704
O O3 0.100224 0.372531 0.657788
O O4 0.000000 0.641029 0.682833
O O5 0.761737 0.973142 0.606630
O O6 0.641998 0.825354 0.559025
O O7 0.739025 0.000000 0.500000
O O8 0.656631 0.202653 0.567362
O O9 0.593213 0.477009 0.111435
O O10 0.000000 0.292336 0.583427
#
# Coordination Sequence:
#
# PCOD8260622 Si02
#       4
#    16  16  16  16
#     4   9  20  40  64  89 120 158 199 248 309 369
#     4  11  23  39  63  86 123 169 207 246 305 364
#     4  11  21  37  63  90 119 160 206 250 297 363
#     4  10  22  39  61  90 121 155 204 257 301 358
#
# _framework density 20.698710999999999
#
# number of rings (size 3 to 8) (size 9 to 14) (size 15 to 20)
#    0.000    1.750    2.500    1.500    0.000    2.500 
#    0.000    8.750    0.000    0.000    0.000    0.000 
#    0.000    0.000    0.000    0.000    0.000    0.000 
#
# Total GULP energy -396474.099209 kJ/mol
# GULP energy per Si atom -12389.815600 kJ/mol
# Density = 2.065160 g / cm^3
# Si number density = 20.698711 Si / 1000 Ang^3
#
#
#
# Elastic Constant Matrix: (Units=GPa)
#
#
# Indices 1 2 3 4 5 6 
#
# 1 83.8155 28.2010 37.6784 0.0000 0.0000 0.0000
# 2 28.2010 134.1123 30.3179 0.0000 0.0000 0.0000
# 3 37.6784 30.3179 100.9754 0.0000 0.0000 0.0000
# 4 0.0000 0.0000 0.0000 14.8531 0.0000 0.0000
# 5 0.0000 0.0000 0.0000 0.0000 29.0134 0.0000
# 6 0.0000 0.0000 0.0000 0.0000 0.0000 38.4161
#
#
#
# Elastic Compliance Matrix: (Units=1/GPa)
#
#
# Indices 1 2 3 4 5 6 
#
# 1 0.014820 -0.002002 -0.004929 0.000000 0.000000 0.000000
# 2 -0.002002 0.008270 -0.001736 0.000000 0.000000 0.000000
# 3 -0.004929 -0.001736 0.012264 0.000000 0.000000 0.000000
# 4 0.000000 0.000000 0.000000 0.067326 0.000000 0.000000
# 5 0.000000 0.000000 0.000000 0.000000 0.034467 0.000000
# 6 0.000000 0.000000 0.000000 0.000000 0.000000 0.026031
#
#
# Mechanical properties :
#
#
# Convention : Reuss Voigt Hill
#
# Bulk Modulus (GPa) = 55.49410 56.81088 56.15249
# Shear Modulus (GPa) = 26.80699 31.30357 29.05528
#
# Velocity S-wave (km/s) = 3.60266 3.89311 3.75070
# Velocity P-wave (km/s) = 6.64636 6.90757 6.77823
#
# Compressibility (1/GPa) = 0.01801993
#
# Stress axis : x y z
#
# Youngs Moduli (GPa) = 67.47459 120.92069 81.54046
#
# Poissons Ratio (x) = 0.24210 0.40191
# Poissons Ratio (y) = 0.13509 0.14155
# Poissons Ratio (z) = 0.33258 0.20991
#
# Static dielectric constant tensor:
#      x y z
#    x 3.746330 0.000000 0.000000 
#    y 0.000000 3.991600 0.000000 
#    z 0.000000 0.000000 3.515320 
# 
# 
# High freq. dielectric constant tensor:
#      x y z
#    x 1.804490 0.000000 0.000000 
#    y 0.000000 1.828970 0.000000 
#    z 0.000000 0.000000 1.778720 
# 
# From -- ./inp_files/70153.got.cif
#   From: 2010.03.12/outbox.cif.g09.slc.cpg/sg63_36_cif.got.tgz:70153.got - 2010.04.10 19:34:48.
