data_PCOD8260024
_publ_section_title
;
Structure prediction by ZEFSAII (Michael W. Deem and Ramdas Pophale) SiO2 
 PCOD8260024
Probable space group: C M C M
;
_chemical_formula_sum "Si O2"
_cell_formula_units_Z 64
_cell_length_a 18.628574
_cell_length_b 5.256104
_cell_length_c 28.225655
_cell_angle_alpha 90.000000
_cell_angle_beta 90.000000
_cell_angle_gamma 90.000000
_cell_volume 2763.678946
_symmetry_space_group_name_H-M "C M C M"
_symmetry_group_IT_number 63
_symmetry_cell_setting 'orthorhombic'
loop_
_space_group_symop_operation_xyz
x,y,z
-x,-y,1/2+z
x,-y,-z
-x,y,1/2-z
-x,-y,-z
x,y,1/2-z
-x,y,z
x,-y,1/2+z
1/2+x,1/2+y,z
1/2-x,1/2-y,1/2+z
1/2+x,1/2-y,-z
1/2-x,1/2+y,1/2-z
1/2-x,1/2-y,-z
1/2+x,1/2+y,1/2-z
1/2-x,1/2+y,z
1/2+x,1/2-y,1/2+z
loop_
_atom_site_type_symbol
_atom_site_label
_atom_site_fract_x
_atom_site_fract_y
_atom_site_fract_z
Si Si1 0.918326 0.651896 0.547188
Si Si2 0.217002 0.039493 0.053381
Si Si3 0.583391 0.063136 0.146523
Si Si4 0.414354 0.562217 0.196050
O O1 0.897491 0.500000 0.500000
O O2 0.868243 0.900130 0.553644
O O3 0.000000 0.754305 0.546104
O O4 0.905372 0.456469 0.590150
O O5 0.261665 0.271923 0.078520
O O6 0.246050 0.000000 0.000000
O O7 0.500000 0.067319 0.159701
O O8 0.617864 0.323480 0.166500
O O9 0.617901 0.817665 0.172556
O O10 0.387996 0.542030 0.250000
O O11 0.500000 0.564909 0.192806
#
# Coordination Sequence:
#
# PCOD8260024 Si02
#       4
#    16  16  16  16
#     4  10  21  36  55  81 115 152 185 221 271 330
#     4  10  21  38  57  76 103 144 191 233 269 309
#     4   9  18  30  45  70 102 134 172 216 262 318
#     4   9  16  28  46  67  96 134 171 213 269 322
#
# _framework density 23.157540000000001
#
# number of rings (size 3 to 8) (size 9 to 14) (size 15 to 20)
#    0.000    2.500    0.000    3.000    0.000    7.500 
#    0.000    8.750    0.000    0.750    0.000    0.000 
#    0.000   20.000    0.000    0.000    0.000    0.000 
#
# Total GULP energy -396644.019350 kJ/mol
# GULP energy per Si atom -12395.125605 kJ/mol
# Density = 2.310483 g / cm^3
# Si number density = 23.157540 Si / 1000 Ang^3
#
#
#
# Elastic Constant Matrix: (Units=GPa)
#
#
# Indices 1 2 3 4 5 6 
#
# 1 93.0235 23.6014 -2.5244 0.0000 0.0000 0.0000
# 2 23.6014 170.1949 44.5338 0.0000 0.0000 0.0000
# 3 -2.5244 44.5338 127.7157 0.0000 0.0000 0.0000
# 4 0.0000 0.0000 0.0000 26.7832 0.0000 0.0000
# 5 0.0000 0.0000 0.0000 0.0000 -0.2262 0.0000
# 6 0.0000 0.0000 0.0000 0.0000 0.0000 18.8606
#
#
#
# Elastic Compliance Matrix: (Units=1/GPa)
#
#
# Indices 1 2 3 4 5 6 
#
# 1 0.011224 -0.001777 0.000841 0.000000 0.000000 0.000000
# 2 -0.001777 0.006747 -0.002388 0.000000 0.000000 0.000000
# 3 0.000841 -0.002388 0.008679 0.000000 0.000000 0.000000
# 4 0.000000 0.000000 0.000000 0.037337 0.000000 0.000000
# 5 0.000000 0.000000 0.000000 0.000000 -4.420901 0.000000
# 6 0.000000 0.000000 0.000000 0.000000 0.000000 0.053021
#
#
# Mechanical properties :
#
#
# Convention : Reuss Voigt Hill
#
# Bulk Modulus (GPa) = 49.99107 58.01730 54.00418
# Shear Modulus (GPa) = -1.16534 30.77173 14.80319
#
# Velocity S-wave (km/s) = -0.71015 3.64922 2.53106
# Velocity P-wave (km/s) = 4.57841 6.54702 5.64913
#
# Compressibility (1/GPa) = 0.02000357
#
# Stress axis : x y z
#
# Youngs Moduli (GPa) = 89.09845 148.21967 115.21946
#
# Poissons Ratio (x) = 0.26332 -0.09694
# Poissons Ratio (y) = 0.15829 0.27511
# Poissons Ratio (z) = -0.07496 0.35390
#
# Static dielectric constant tensor:
#      x y z
#    x 3.628760 0.000000 0.000000 
#    y 0.000000 4.469050 0.000000 
#    z 0.000000 0.000000 3.988510 
# 
# 
# High freq. dielectric constant tensor:
#      x y z
#    x 1.860780 0.000000 0.000000 
#    y 0.000000 1.931760 0.000000 
#    z 0.000000 0.000000 1.890730 
# 
# From -- ./inp_files/70151.got.cif
#   From: 2010.03.12/outbox.cif.g09.slc.cpg/sg63_36_cif.got.tgz:70151.got - 2010.04.10 19:34:48.
