data_PCOD8260865
_publ_section_title
;
Structure prediction by ZEFSAII (Michael W. Deem and Ramdas Pophale) SiO2 
 PCOD8260865
Probable space group: C M C M
;
_chemical_formula_sum "Si O2"
_cell_formula_units_Z 92
_cell_length_a 11.272638
_cell_length_b 19.366121
_cell_length_c 23.492133
_cell_angle_alpha 90.000000
_cell_angle_beta 90.000000
_cell_angle_gamma 90.000000
_cell_volume 5128.503457
_symmetry_space_group_name_H-M "C M C M"
_symmetry_group_IT_number 63
_symmetry_cell_setting 'orthorhombic'
loop_
_space_group_symop_operation_xyz
x,y,z
-x,-y,1/2+z
x,-y,-z
-x,y,1/2-z
-x,-y,-z
x,y,1/2-z
-x,y,z
x,-y,1/2+z
1/2+x,1/2+y,z
1/2-x,1/2-y,1/2+z
1/2+x,1/2-y,-z
1/2-x,1/2+y,1/2-z
1/2-x,1/2-y,-z
1/2+x,1/2+y,1/2-z
1/2-x,1/2+y,z
1/2+x,1/2-y,1/2+z
loop_
_atom_site_type_symbol
_atom_site_label
_atom_site_fract_x
_atom_site_fract_y
_atom_site_fract_z
Si Si1 0.500000 0.668612 0.684410
Si Si2 0.133816 0.977252 0.935377
Si Si3 0.859085 0.695357 0.564456
Si Si4 0.000000 0.600310 0.250000
Si Si5 0.130385 0.532435 0.750000
Si Si6 0.000000 0.684179 0.365537
Si Si7 0.772360 0.337468 0.558779
Si Si8 0.768032 0.907843 0.144846
O O1 0.500000 0.692271 0.750000
O O2 0.500000 0.733760 0.642614
O O3 0.614134 0.623386 0.671450
O O4 0.197457 0.904712 0.926773
O O5 0.000000 0.970480 0.911969
O O6 0.203863 0.035612 0.902066
O O7 0.132808 0.000000 0.000000
O O8 0.813496 0.660809 0.506473
O O9 0.811265 0.772560 0.570857
O O10 0.812538 0.651679 0.617670
O O11 0.000000 0.697211 0.564864
O O12 0.883033 0.551250 0.250000
O O13 0.000000 0.647764 0.194966
O O14 0.197305 0.554820 0.805975
O O15 0.000000 0.567427 0.750000
O O16 0.114810 0.662587 0.400530
#
# Coordination Sequence:
#
# PCOD8260865 Si02
#       8
#     8  16  16   4   8   8  16  16
#     4  12  24  42  69  93 117 165 216 277 305 379
#     4  11  23  39  61  91 129 169 208 258 316 381
#     4  11  23  39  61  91 129 169 208 258 316 381
#     4  10  24  42  62  92 124 166 202 262 316 370
#     4  10  24  42  62  92 124 166 202 262 316 370
#     4  12  22  42  66  92 124 162 218 256 324 379
#     4  11  23  39  61  91 129 169 208 258 316 381
#     4  12  22  42  66  92 124 162 218 256 324 379
#
# _framework density 17.938956999999998
#
# number of rings (size 3 to 8) (size 9 to 14) (size 15 to 20)
#    0.261    0.522    6.522    2.087    0.000    0.000 
#    1.565    1.304    0.000    0.000    0.000    0.000 
#    0.000    0.000    0.000    0.000    0.000    0.000 
#
# Total GULP energy -570555.861217 kJ/mol
# GULP energy per Si atom -12403.388287 kJ/mol
# Density = 1.789813 g / cm^3
# Si number density = 17.938957 Si / 1000 Ang^3
#
#
#
# Elastic Constant Matrix: (Units=GPa)
#
#
# Indices 1 2 3 4 5 6 
#
# 1 108.2495 43.4390 9.1372 0.0000 0.0000 0.0000
# 2 43.4390 81.1800 18.8540 0.0000 0.0000 0.0000
# 3 9.1372 18.8540 55.7434 0.0000 0.0000 0.0000
# 4 0.0000 0.0000 0.0000 22.5219 0.0000 0.0000
# 5 0.0000 0.0000 0.0000 0.0000 50.4580 0.0000
# 6 0.0000 0.0000 0.0000 0.0000 0.0000 55.8560
#
#
#
# Elastic Compliance Matrix: (Units=1/GPa)
#
#
# Indices 1 2 3 4 5 6 
#
# 1 0.011766 -0.006347 0.000218 0.000000 0.000000 0.000000
# 2 -0.006347 0.016792 -0.004639 0.000000 0.000000 0.000000
# 3 0.000218 -0.004639 0.019473 0.000000 0.000000 0.000000
# 4 0.000000 0.000000 0.000000 0.044401 0.000000 0.000000
# 5 0.000000 0.000000 0.000000 0.000000 0.019818 0.000000
# 6 0.000000 0.000000 0.000000 0.000000 0.000000 0.017903
#
#
# Mechanical properties :
#
#
# Convention : Reuss Voigt Hill
#
# Bulk Modulus (GPa) = 37.74290 43.11482 40.42886
# Shear Modulus (GPa) = 31.14850 37.35003 34.24926
#
# Velocity S-wave (km/s) = 4.17149 4.56791 4.37419
# Velocity P-wave (km/s) = 6.65485 7.20468 6.93522
#
# Compressibility (1/GPa) = 0.02649505
#
# Stress axis : x y z
#
# Youngs Moduli (GPa) = 84.98788 59.55262 51.35395
#
# Poissons Ratio (x) = 0.37797 -0.01119
# Poissons Ratio (y) = 0.53940 0.23824
# Poissons Ratio (z) = -0.01852 0.27627
#
# Static dielectric constant tensor:
#      x y z
#    x 3.507050 0.000000 0.000000 
#    y 0.000000 3.362370 0.000000 
#    z 0.000000 0.000000 3.357090 
# 
# 
# High freq. dielectric constant tensor:
#      x y z
#    x 1.708020 0.000000 0.000000 
#    y 0.000000 1.705530 0.000000 
#    z 0.000000 0.000000 1.701270 
# 
# From -- ./inp_files/52616.got.cif
#   From: 2010.03.12/outbox.cif.g09.slc.cpg/sg63_27_cif.got.tgz:52616.got - 2010.04.10 19:34:48.
