data_PCOD8260290
_publ_section_title
;
Structure prediction by ZEFSAII (Michael W. Deem and Ramdas Pophale) SiO2 
 PCOD8260290
Probable space group: C M C M
;
_chemical_formula_sum "Si O2"
_cell_formula_units_Z 80
_cell_length_a 14.412304
_cell_length_b 29.561372
_cell_length_c 9.068328
_cell_angle_alpha 90.000000
_cell_angle_beta 90.000000
_cell_angle_gamma 90.000000
_cell_volume 3863.538291
_symmetry_space_group_name_H-M "C M C M"
_symmetry_group_IT_number 63
_symmetry_cell_setting 'orthorhombic'
loop_
_space_group_symop_operation_xyz
x,y,z
-x,-y,1/2+z
x,-y,-z
-x,y,1/2-z
-x,-y,-z
x,y,1/2-z
-x,y,z
x,-y,1/2+z
1/2+x,1/2+y,z
1/2-x,1/2-y,1/2+z
1/2+x,1/2-y,-z
1/2-x,1/2+y,1/2-z
1/2-x,1/2-y,-z
1/2+x,1/2+y,1/2-z
1/2-x,1/2+y,z
1/2+x,1/2-y,1/2+z
loop_
_atom_site_type_symbol
_atom_site_label
_atom_site_fract_x
_atom_site_fract_y
_atom_site_fract_z
Si Si1 0.389385 0.543427 0.415506
Si Si2 0.110454 0.544153 0.916706
Si Si3 0.105006 0.868367 0.419940
Si Si4 0.609823 0.134187 0.419714
Si Si5 0.761127 0.702334 0.922968
O O1 0.348187 0.500000 0.500000
O O2 0.351640 0.542058 0.250000
O O3 0.500000 0.542443 0.421739
O O4 0.353265 0.589326 0.490685
O O5 0.149285 0.545517 0.750000
O O6 0.000000 0.542645 0.915021
O O7 0.149850 0.500000 0.000000
O O8 0.145752 0.588254 0.003617
O O9 0.108291 0.882532 0.250000
O O10 0.166306 0.824635 0.453088
O O11 0.000000 0.856780 0.469331
O O12 0.641917 0.133813 0.250000
O O13 0.500000 0.138711 0.432843
O O14 0.652552 0.176739 0.504207
O O15 0.780505 0.708500 0.750000
O O16 0.750000 0.750000 0.000000
#
# Coordination Sequence:
#
# PCOD8260290 Si02
#       5
#    16  16  16  16  16
#     4   9  16  27  48  79 113 148 184 222 267 321
#     4   9  16  28  50  81 116 152 189 229 276 333
#     4   9  19  37  59  82 111 147 185 226 275 331
#     4  10  21  38  60  85 115 152 192 235 285 339
#     4  11  24  41  61  85 113 146 187 237 291 344
#
# _framework density 20.706409000000001
#
# number of rings (size 3 to 8) (size 9 to 14) (size 15 to 20)
#    0.000    2.400    0.000    2.400    0.000    8.400 
#    0.000    3.000    0.000    4.800    0.000    0.000 
#    0.000    0.000    0.000    0.000    0.000    0.000 
#
# Total GULP energy -496126.816737 kJ/mol
# GULP energy per Si atom -12403.170418 kJ/mol
# Density = 2.065928 g / cm^3
# Si number density = 20.706409 Si / 1000 Ang^3
#
#
#
# Elastic Constant Matrix: (Units=GPa)
#
#
# Indices 1 2 3 4 5 6 
#
# 1 42.8326 36.0675 41.9377 0.0000 0.0000 0.0000
# 2 36.0675 198.4583 112.2907 0.0000 0.0000 0.0000
# 3 41.9377 112.2907 183.2626 0.0000 0.0000 0.0000
# 4 0.0000 0.0000 0.0000 48.3793 0.0000 0.0000
# 5 0.0000 0.0000 0.0000 0.0000 22.6231 0.0000
# 6 0.0000 0.0000 0.0000 0.0000 0.0000 9851.8931
#
#
#
# Elastic Compliance Matrix: (Units=1/GPa)
#
#
# Indices 1 2 3 4 5 6 
#
# 1 0.030858 -0.002468 -0.005549 0.000000 0.000000 0.000000
# 2 -0.002468 0.007910 -0.004282 0.000000 0.000000 0.000000
# 3 -0.005549 -0.004282 0.009350 0.000000 0.000000 0.000000
# 4 0.000000 0.000000 0.000000 0.020670 0.000000 0.000000
# 5 0.000000 0.000000 0.000000 0.000000 0.044203 0.000000
# 6 0.000000 0.000000 0.000000 0.000000 0.000000 0.000102
#
#
# Mechanical properties :
#
#
# Convention : Reuss Voigt Hill
#
# Bulk Modulus (GPa) = 42.51731 89.46062 65.98896
# Shear Modulus (GPa) = 34.35668 2000.19626 1017.27647
#
# Velocity S-wave (km/s) = 4.07778 31.11393 22.18901
# Velocity P-wave (km/s) = 6.53828 36.52488 26.23753
#
# Compressibility (1/GPa) = 0.02351983
#
# Stress axis : x y z
#
# Youngs Moduli (GPa) = 32.40605 126.41808 106.94901
#
# Poissons Ratio (x) = 0.31204 0.59348
# Poissons Ratio (y) = 0.07999 0.45796
# Poissons Ratio (z) = 0.17983 0.54132
#
# Static dielectric constant tensor:
#      x y z
#    x 3.546520 0.000000 0.000000 
#    y 0.000000 3.736350 0.000000 
#    z 0.000000 0.000000 3.933180 
# 
# 
# High freq. dielectric constant tensor:
#      x y z
#    x 1.799520 0.000000 0.000000 
#    y 0.000000 1.808890 0.000000 
#    z 0.000000 0.000000 1.821930 
# 
# From -- ./inp_files/6394.got.cif
#   From: 2010.03.12/outbox.cif.g09.slc.cpg/sg63_4_cif.got.tgz:6394.got - 2010.04.10 19:34:48.
