data_PCOD8260073
_publ_section_title
;
Structure prediction by ZEFSAII (Michael W. Deem and Ramdas Pophale) SiO2 
 PCOD8260073
Probable space group: C M C M
;
_chemical_formula_sum "Si O2"
_cell_formula_units_Z 80
_cell_length_a 25.564014
_cell_length_b 11.263139
_cell_length_c 14.282273
_cell_angle_alpha 90.000000
_cell_angle_beta 90.000000
_cell_angle_gamma 90.000000
_cell_volume 4112.309762
_symmetry_space_group_name_H-M "C M C M"
_symmetry_group_IT_number 63
_symmetry_cell_setting 'orthorhombic'
loop_
_space_group_symop_operation_xyz
x,y,z
-x,-y,1/2+z
x,-y,-z
-x,y,1/2-z
-x,-y,-z
x,y,1/2-z
-x,y,z
x,-y,1/2+z
1/2+x,1/2+y,z
1/2-x,1/2-y,1/2+z
1/2+x,1/2-y,-z
1/2-x,1/2+y,1/2-z
1/2-x,1/2-y,-z
1/2+x,1/2+y,1/2-z
1/2-x,1/2+y,z
1/2+x,1/2-y,1/2+z
loop_
_atom_site_type_symbol
_atom_site_label
_atom_site_fract_x
_atom_site_fract_y
_atom_site_fract_z
Si Si1 0.864088 0.625914 0.975433
Si Si2 0.251124 0.876842 0.447112
Si Si3 0.557178 0.549888 0.639055
Si Si4 0.059858 0.785024 0.857000
Si Si5 0.653402 0.291252 0.142671
O O1 0.811244 0.609665 0.912346
O O2 0.905964 0.700055 0.919995
O O3 0.889965 0.500000 0.000000
O O4 0.846103 0.678351 0.075487
O O5 0.250000 0.750000 0.500000
O O6 0.207501 0.866152 0.365462
O O7 0.236088 0.000000 0.500000
O O8 0.556469 0.539115 0.750000
O O9 0.500000 0.598209 0.604865
O O10 0.566047 0.417016 0.599885
O O11 0.604080 0.632535 0.605680
O O12 0.079855 0.779204 0.750000
O O13 0.000000 0.743007 0.862409
O O14 0.646096 0.251039 0.250000
#
# Coordination Sequence:
#
# PCOD8260073 Si02
#       5
#    16  16  16  16  16
#     4  10  22  38  56  80 115 155 193 238 288 346
#     4   9  20  37  55  78 113 151 192 239 284 343
#     4   8  16  32  54  84 114 138 178 235 290 342
#     4   9  19  36  58  85 115 149 193 240 289 349
#     4  10  21  36  58  86 114 147 193 244 292 350
#
# _framework density 19.453789
#
# number of rings (size 3 to 8) (size 9 to 14) (size 15 to 20)
#    0.000    2.800    0.000    1.200    5.600    2.800 
#    0.000   10.000    0.000    2.400    0.000    0.000 
#    0.000    0.000    0.000    0.000    0.000    0.000 
#
# Total GULP energy -495522.882682 kJ/mol
# GULP energy per Si atom -12388.072067 kJ/mol
# Density = 1.940951 g / cm^3
# Si number density = 19.453789 Si / 1000 Ang^3
#
#
#
# Elastic Constant Matrix: (Units=GPa)
#
#
# Indices 1 2 3 4 5 6 
#
# 1 111.5949 40.4761 33.4222 0.0000 0.0000 0.0000
# 2 40.4761 103.9551 24.1322 0.0000 0.0000 0.0000
# 3 33.4222 24.1322 56.0958 0.0000 0.0000 0.0000
# 4 0.0000 0.0000 0.0000 21.8596 0.0000 0.0000
# 5 0.0000 0.0000 0.0000 0.0000 32.6043 0.0000
# 6 0.0000 0.0000 0.0000 0.0000 0.0000 30.5153
#
#
#
# Elastic Compliance Matrix: (Units=1/GPa)
#
#
# Indices 1 2 3 4 5 6 
#
# 1 0.011848 -0.003304 -0.005638 0.000000 0.000000 0.000000
# 2 -0.003304 0.011608 -0.003025 0.000000 0.000000 0.000000
# 3 -0.005638 -0.003025 0.022487 0.000000 0.000000 0.000000
# 4 0.000000 0.000000 0.000000 0.045747 0.000000 0.000000
# 5 0.000000 0.000000 0.000000 0.000000 0.030671 0.000000
# 6 0.000000 0.000000 0.000000 0.000000 0.000000 0.032770
#
#
# Mechanical properties :
#
#
# Convention : Reuss Voigt Hill
#
# Bulk Modulus (GPa) = 45.43564 51.96744 48.70154
# Shear Modulus (GPa) = 26.82380 28.57017 27.69698
#
# Velocity S-wave (km/s) = 3.71731 3.83641 3.77733
# Velocity P-wave (km/s) = 6.46768 6.81141 6.64177
#
# Compressibility (1/GPa) = 0.02200915
#
# Stress axis : x y z
#
# Youngs Moduli (GPa) = 84.40290 86.14445 44.47032
#
# Poissons Ratio (x) = 0.28466 0.25070
# Poissons Ratio (y) = 0.27890 0.13453
# Poissons Ratio (z) = 0.47582 0.26060
#
# Static dielectric constant tensor:
#      x y z
#    x 3.993280 0.000000 0.000000 
#    y 0.000000 3.605540 0.000000 
#    z 0.000000 0.000000 3.272010 
# 
# 
# High freq. dielectric constant tensor:
#      x y z
#    x 1.773610 0.000000 0.000000 
#    y 0.000000 1.752010 0.000000 
#    z 0.000000 0.000000 1.733570 
# 
# From -- ./inp_files/36474.got.cif
#   From: 2010.03.12/outbox.cif.g09.slc.cpg/sg63_19_cif.got.tgz:36474.got - 2010.04.10 19:34:48.
