data_PCOD8260077
_publ_section_title
;
Structure prediction by ZEFSAII (Michael W. Deem and Ramdas Pophale) SiO2 
 PCOD8260077
Probable space group: C M C M
;
_chemical_formula_sum "Si O2"
_cell_formula_units_Z 80
_cell_length_a 9.062756
_cell_length_b 25.510494
_cell_length_c 16.778892
_cell_angle_alpha 90.000000
_cell_angle_beta 90.000000
_cell_angle_gamma 90.000000
_cell_volume 3879.202355
_symmetry_space_group_name_H-M "C M C M"
_symmetry_group_IT_number 63
_symmetry_cell_setting 'orthorhombic'
loop_
_space_group_symop_operation_xyz
x,y,z
-x,-y,1/2+z
x,-y,-z
-x,y,1/2-z
-x,-y,-z
x,y,1/2-z
-x,y,z
x,-y,1/2+z
1/2+x,1/2+y,z
1/2-x,1/2-y,1/2+z
1/2+x,1/2-y,-z
1/2-x,1/2+y,1/2-z
1/2-x,1/2-y,-z
1/2+x,1/2+y,1/2-z
1/2-x,1/2+y,z
1/2+x,1/2-y,1/2+z
loop_
_atom_site_type_symbol
_atom_site_label
_atom_site_fract_x
_atom_site_fract_y
_atom_site_fract_z
Si Si1 0.824520 0.234607 0.082521
Si Si2 0.337155 0.674151 0.657570
Si Si3 0.326676 0.516709 0.411118
Si Si4 0.662772 0.076865 0.842439
Si Si5 0.325353 0.373615 0.659676
O O1 0.766132 0.275503 0.147499
O O2 0.770712 0.177328 0.111210
O O3 0.000000 0.238054 0.075676
O O4 0.750000 0.250000 0.000000
O O5 0.359404 0.663750 0.750000
O O6 0.500000 0.681412 0.617612
O O7 0.259201 0.623423 0.617274
O O8 0.281209 0.500000 0.500000
O O9 0.500000 0.510558 0.396914
O O10 0.243752 0.478312 0.351302
O O11 0.273055 0.575429 0.390047
O O12 0.645300 0.089353 0.750000
O O13 0.500000 0.075423 0.882216
O O14 0.259798 0.374242 0.750000
O O15 0.500000 0.372499 0.665829
#
# Coordination Sequence:
#
# PCOD8260077 Si02
#       5
#    16  16  16  16  16
#     4  11  23  38  59  87 120 159 201 250 306 363
#     4  10  21  38  61  87 116 153 198 249 302 360
#     4  10  21  36  59  89 120 156 198 247 298 353
#     4  10  21  37  58  86 119 155 195 242 298 359
#     4   9  19  37  60  85 117 160 205 244 292 361
#
# _framework density 20.622796999999998
#
# number of rings (size 3 to 8) (size 9 to 14) (size 15 to 20)
#    0.000    2.000    0.000    3.000    2.800    4.400 
#    0.000    2.000    0.000    4.800    0.000    0.000 
#    0.000    0.000    0.000    0.000    0.000    0.000 
#
# Total GULP energy -495961.615603 kJ/mol
# GULP energy per Si atom -12399.040390 kJ/mol
# Density = 2.057586 g / cm^3
# Si number density = 20.622797 Si / 1000 Ang^3
#
#
#
# Elastic Constant Matrix: (Units=GPa)
#
#
# Indices 1 2 3 4 5 6 
#
# 1 96.4313 64.3625 28.3129 0.0000 0.0000 0.0000
# 2 64.3625 207.2289 52.8487 0.0000 0.0000 0.0000
# 3 28.3129 52.8487 82.5504 0.0000 0.0000 0.0000
# 4 0.0000 0.0000 0.0000 35.2863 0.0000 0.0000
# 5 0.0000 0.0000 0.0000 0.0000 26.3823 0.0000
# 6 0.0000 0.0000 0.0000 0.0000 0.0000 29.4729
#
#
#
# Elastic Compliance Matrix: (Units=1/GPa)
#
#
# Indices 1 2 3 4 5 6 
#
# 1 0.013442 -0.003584 -0.002316 0.000000 0.000000 0.000000
# 2 -0.003584 0.006723 -0.003075 0.000000 0.000000 0.000000
# 3 -0.002316 -0.003075 0.014876 0.000000 0.000000 0.000000
# 4 0.000000 0.000000 0.000000 0.028340 0.000000 0.000000
# 5 0.000000 0.000000 0.000000 0.000000 0.037904 0.000000
# 6 0.000000 0.000000 0.000000 0.000000 0.000000 0.033929
#
#
# Mechanical properties :
#
#
# Convention : Reuss Voigt Hill
#
# Bulk Modulus (GPa) = 58.50611 75.25097 66.87854
# Shear Modulus (GPa) = 31.47385 34.27408 32.87396
#
# Velocity S-wave (km/s) = 3.91086 4.08113 3.99690
# Velocity P-wave (km/s) = 6.98744 7.66654 7.33485
#
# Compressibility (1/GPa) = 0.01709223
#
# Stress axis : x y z
#
# Youngs Moduli (GPa) = 74.39145 148.74334 67.22043
#
# Poissons Ratio (x) = 0.53317 0.15566
# Poissons Ratio (y) = 0.26665 0.20668
# Poissons Ratio (z) = 0.17227 0.45733
#
# Static dielectric constant tensor:
#      x y z
#    x 3.861230 0.000000 0.000000 
#    y 0.000000 4.006290 0.000000 
#    z 0.000000 0.000000 3.600270 
# 
# 
# High freq. dielectric constant tensor:
#      x y z
#    x 1.793660 0.000000 0.000000 
#    y 0.000000 1.821270 0.000000 
#    z 0.000000 0.000000 1.794210 
# 
# From -- ./inp_files/40482.got.cif
#   From: 2010.03.12/outbox.cif.g09.slc.cpg/sg63_21_cif.got.tgz:40482.got - 2010.04.10 19:34:48.
