data_PCOD8260424
_publ_section_title
;
Structure prediction by ZEFSAII (Michael W. Deem and Ramdas Pophale) SiO2 
 PCOD8260424
Probable space group: C M C M
;
_chemical_formula_sum "Si O2"
_cell_formula_units_Z 96
_cell_length_a 8.403478
_cell_length_b 23.452053
_cell_length_c 24.839467
_cell_angle_alpha 90.000000
_cell_angle_beta 90.000000
_cell_angle_gamma 90.000000
_cell_volume 4895.332633
_symmetry_space_group_name_H-M "C M C M"
_symmetry_group_IT_number 63
_symmetry_cell_setting 'orthorhombic'
loop_
_space_group_symop_operation_xyz
x,y,z
-x,-y,1/2+z
x,-y,-z
-x,y,1/2-z
-x,-y,-z
x,y,1/2-z
-x,y,z
x,-y,1/2+z
1/2+x,1/2+y,z
1/2-x,1/2-y,1/2+z
1/2+x,1/2-y,-z
1/2-x,1/2+y,1/2-z
1/2-x,1/2-y,-z
1/2+x,1/2+y,1/2-z
1/2-x,1/2+y,z
1/2+x,1/2-y,1/2+z
loop_
_atom_site_type_symbol
_atom_site_label
_atom_site_fract_x
_atom_site_fract_y
_atom_site_fract_z
Si Si1 0.815111 0.686873 0.495337
Si Si2 0.682765 0.620805 0.906531
Si Si3 0.813273 0.688800 0.811687
Si Si4 0.684607 0.004677 0.561489
Si Si5 0.315860 0.611402 0.098614
Si Si6 0.685154 0.811080 0.812600
O O1 0.750000 0.750000 0.500000
O O2 0.793190 0.653961 0.551280
O O3 0.719009 0.655844 0.448559
O O4 0.000000 0.687572 0.479983
O O5 0.500000 0.633207 0.920389
O O6 0.722053 0.641879 0.846594
O O7 0.715732 0.553545 0.908828
O O8 0.761636 0.679130 0.750000
O O9 0.762724 0.751620 0.830927
O O10 0.000000 0.681499 0.819744
O O11 0.500000 0.021059 0.563786
O O12 0.712776 0.945393 0.591560
O O13 0.743692 0.000000 0.500000
O O14 0.500000 0.594795 0.097658
O O15 0.270303 0.638190 0.155798
O O16 0.715389 0.822785 0.750000
O O17 0.500000 0.809085 0.827198
#
# Coordination Sequence:
#
# PCOD8260424 Si02
#       6
#    16  16  16  16  16  16
#     4  12  24  39  58  85 120 156 196 244 298 356
#     4  12  24  39  61  89 121 156 198 247 298 356
#     4  10  21  39  63  90 122 160 201 246 298 356
#     4  11  23  41  64  87 117 160 202 246 296 355
#     4  12  24  39  61  89 121 156 198 247 298 356
#     4  10  21  39  63  90 122 160 201 246 298 356
#
# _framework density 19.610516000000001
#
# number of rings (size 3 to 8) (size 9 to 14) (size 15 to 20)
#    0.000    0.833    1.667    7.000    0.000    2.667 
#    0.000    0.833    0.000    5.000    0.000    0.000 
#    0.000    0.000    0.000    0.000    0.000    0.000 
#
# Total GULP energy -595634.288637 kJ/mol
# GULP energy per Si atom -12409.047680 kJ/mol
# Density = 1.956588 g / cm^3
# Si number density = 19.610516 Si / 1000 Ang^3
#
#
#
# Elastic Constant Matrix: (Units=GPa)
#
#
# Indices 1 2 3 4 5 6 
#
# 1 80.1239 16.2464 22.7692 0.0000 0.0000 0.0000
# 2 16.2464 129.1835 51.1214 0.0000 0.0000 0.0000
# 3 22.7692 51.1214 91.1808 0.0000 0.0000 0.0000
# 4 0.0000 0.0000 0.0000 26.4211 0.0000 0.0000
# 5 0.0000 0.0000 0.0000 0.0000 30.8801 0.0000
# 6 0.0000 0.0000 0.0000 0.0000 0.0000 36.6954
#
#
#
# Elastic Compliance Matrix: (Units=1/GPa)
#
#
# Indices 1 2 3 4 5 6 
#
# 1 0.013456 -0.000466 -0.003099 0.000000 0.000000 0.000000
# 2 -0.000466 0.009964 -0.005470 0.000000 0.000000 0.000000
# 3 -0.003099 -0.005470 0.014808 0.000000 0.000000 0.000000
# 4 0.000000 0.000000 0.000000 0.037849 0.000000 0.000000
# 5 0.000000 0.000000 0.000000 0.000000 0.032383 0.000000
# 6 0.000000 0.000000 0.000000 0.000000 0.000000 0.027251
#
#
# Mechanical properties :
#
#
# Convention : Reuss Voigt Hill
#
# Bulk Modulus (GPa) = 49.60815 53.41803 51.51309
# Shear Modulus (GPa) = 31.15258 32.82276 31.98767
#
# Velocity S-wave (km/s) = 3.99000 4.09557 4.04313
# Velocity P-wave (km/s) = 6.82484 7.04723 6.93693
#
# Compressibility (1/GPa) = 0.02015798
#
# Stress axis : x y z
#
# Youngs Moduli (GPa) = 74.31758 100.35911 67.53120
#
# Poissons Ratio (x) = 0.04676 0.20927
# Poissons Ratio (y) = 0.03463 0.36941
# Poissons Ratio (z) = 0.23030 0.54898
#
# Static dielectric constant tensor:
#      x y z
#    x 3.331050 0.000000 0.000000 
#    y 0.000000 3.581190 0.000000 
#    z 0.000000 0.000000 3.625510 
# 
# 
# High freq. dielectric constant tensor:
#      x y z
#    x 1.780630 0.000000 0.000000 
#    y 0.000000 1.766170 0.000000 
#    z 0.000000 0.000000 1.761910 
# 
# From -- ./inp_files/59838.got.cif
#   From: 2010.03.12/outbox.cif.g09.slc.cpg/sg63_30_cif.got.tgz:59838.got - 2010.04.10 19:34:48.
