data_PCOD8260843
_publ_section_title
;
Structure prediction by ZEFSAII (Michael W. Deem and Ramdas Pophale) SiO2 
 PCOD8260843
Probable space group: C M C M
;
_chemical_formula_sum "Si O2"
_cell_formula_units_Z 72
_cell_length_a 17.541776
_cell_length_b 23.405465
_cell_length_c 8.665615
_cell_angle_alpha 90.000000
_cell_angle_beta 90.000000
_cell_angle_gamma 90.000000
_cell_volume 3557.871223
_symmetry_space_group_name_H-M "C M C M"
_symmetry_group_IT_number 63
_symmetry_cell_setting 'orthorhombic'
loop_
_space_group_symop_operation_xyz
x,y,z
-x,-y,1/2+z
x,-y,-z
-x,y,1/2-z
-x,-y,-z
x,y,1/2-z
-x,y,z
x,-y,1/2+z
1/2+x,1/2+y,z
1/2-x,1/2-y,1/2+z
1/2+x,1/2-y,-z
1/2-x,1/2+y,1/2-z
1/2-x,1/2-y,-z
1/2+x,1/2+y,1/2-z
1/2-x,1/2+y,z
1/2+x,1/2-y,1/2+z
loop_
_atom_site_type_symbol
_atom_site_label
_atom_site_fract_x
_atom_site_fract_y
_atom_site_fract_z
Si Si1 0.911983 0.133759 0.931403
Si Si2 0.833780 0.251378 0.567447
Si Si3 0.216624 0.937764 0.567849
Si Si4 0.500000 0.061717 0.568114
Si Si5 0.145105 0.368779 0.432986
O O1 0.900539 0.124554 0.750000
O O2 0.880555 0.195470 0.982968
O O3 0.000000 0.129427 0.979625
O O4 0.867251 0.083569 0.019671
O O5 0.830022 0.257192 0.750000
O O6 0.750000 0.250000 0.500000
O O7 0.875260 0.306023 0.494841
O O8 0.223615 0.941373 0.750000
O O9 0.276738 0.892086 0.503766
O O10 0.233838 0.000000 0.500000
O O11 0.500000 0.058923 0.750000
O O12 0.575639 0.092694 0.508509
O O13 0.500000 0.000000 0.500000
O O14 0.154073 0.367533 0.250000
#
# Coordination Sequence:
#
# PCOD8260843 Si02
#       5
#    16  16  16   8  16
#     4  10  23  43  65  92 128 167 210 261 312 368
#     4  11  22  38  64  94 125 163 205 254 310 369
#     4  12  25  42  66  93 122 163 210 259 316 378
#     4  10  24  42  62  90 126 168 209 260 313 366
#     4  11  23  41  63  92 128 165 210 260 310 372
#
# _framework density 20.236819000000001
#
# number of rings (size 3 to 8) (size 9 to 14) (size 15 to 20)
#    0.000    1.111    2.222    4.000    1.556    5.333 
#    0.000    0.000    0.000    0.000    0.000    0.000 
#    0.000    0.000    0.000    0.000    0.000    0.000 
#
# Total GULP energy -446606.630178 kJ/mol
# GULP energy per Si atom -12405.739727 kJ/mol
# Density = 2.019076 g / cm^3
# Si number density = 20.236819 Si / 1000 Ang^3
#
#
#
# Elastic Constant Matrix: (Units=GPa)
#
#
# Indices 1 2 3 4 5 6 
#
# 1 100.4319 13.0108 24.5318 0.0000 0.0000 0.0000
# 2 13.0108 93.4166 25.0323 0.0000 0.0000 0.0000
# 3 24.5318 25.0323 83.8777 0.0000 0.0000 0.0000
# 4 0.0000 0.0000 0.0000 40.7834 0.0000 0.0000
# 5 0.0000 0.0000 0.0000 0.0000 19.8402 0.0000
# 6 0.0000 0.0000 0.0000 0.0000 0.0000 39.8923
#
#
#
# Elastic Compliance Matrix: (Units=1/GPa)
#
#
# Indices 1 2 3 4 5 6 
#
# 1 0.010767 -0.000713 -0.002936 0.000000 0.000000 0.000000
# 2 -0.000713 0.011682 -0.003278 0.000000 0.000000 0.000000
# 3 -0.002936 -0.003278 0.013759 0.000000 0.000000 0.000000
# 4 0.000000 0.000000 0.000000 0.024520 0.000000 0.000000
# 5 0.000000 0.000000 0.000000 0.000000 0.050403 0.000000
# 6 0.000000 0.000000 0.000000 0.000000 0.000000 0.025068
#
#
# Mechanical properties :
#
#
# Convention : Reuss Voigt Hill
#
# Bulk Modulus (GPa) = 44.73435 44.76401 44.74918
# Shear Modulus (GPa) = 31.74537 34.44659 33.09598
#
# Velocity S-wave (km/s) = 3.96497 4.13022 4.04844
# Velocity P-wave (km/s) = 6.56618 6.70172 6.63430
#
# Compressibility (1/GPa) = 0.02235419
#
# Stress axis : x y z
#
# Youngs Moduli (GPa) = 92.88042 85.59886 72.67892
#
# Poissons Ratio (x) = 0.06101 0.21340
# Poissons Ratio (y) = 0.06620 0.23824
# Poissons Ratio (z) = 0.27271 0.28059
#
# Static dielectric constant tensor:
#      x y z
#    x 3.650770 0.000000 0.000000 
#    y 0.000000 3.979360 0.000000 
#    z 0.000000 0.000000 3.535550 
# 
# 
# High freq. dielectric constant tensor:
#      x y z
#    x 1.797600 0.000000 0.000000 
#    y 0.000000 1.806260 0.000000 
#    z 0.000000 0.000000 1.793350 
# 
# From -- ./inp_files/6106.got.cif
#   From: 2010.03.12/outbox.cif.g09.slc.cpg/sg63_4_cif.got.tgz:6106.got - 2010.04.10 19:34:48.
