data_PCOD8260447
_publ_section_title
;
Structure prediction by ZEFSAII (Michael W. Deem and Ramdas Pophale) SiO2 
 PCOD8260447
Probable space group: C M C M
;
_chemical_formula_sum "Si O2"
_cell_formula_units_Z 64
_cell_length_a 13.771875
_cell_length_b 12.664054
_cell_length_c 15.016160
_cell_angle_alpha 90.000000
_cell_angle_beta 90.000000
_cell_angle_gamma 90.000000
_cell_volume 2618.934960
_symmetry_space_group_name_H-M "C M C M"
_symmetry_group_IT_number 63
_symmetry_cell_setting 'orthorhombic'
loop_
_space_group_symop_operation_xyz
x,y,z
-x,-y,1/2+z
x,-y,-z
-x,y,1/2-z
-x,-y,-z
x,y,1/2-z
-x,y,z
x,-y,1/2+z
1/2+x,1/2+y,z
1/2-x,1/2-y,1/2+z
1/2+x,1/2-y,-z
1/2-x,1/2+y,1/2-z
1/2-x,1/2-y,-z
1/2+x,1/2+y,1/2-z
1/2-x,1/2+y,z
1/2+x,1/2-y,1/2+z
loop_
_atom_site_type_symbol
_atom_site_label
_atom_site_fract_x
_atom_site_fract_y
_atom_site_fract_z
Si Si1 0.790959 0.965508 0.407345
Si Si2 0.390794 0.659661 0.347253
Si Si3 0.387606 0.853164 0.471037
Si Si4 0.112487 0.751600 0.150205
O O1 0.675961 0.947120 0.428126
O O2 0.831651 0.859861 0.364954
O O3 0.843290 0.000000 0.500000
O O4 0.813477 0.063773 0.343253
O O5 0.385477 0.714693 0.250000
O O6 0.500000 0.617004 0.365091
O O7 0.361244 0.744149 0.421469
O O8 0.500000 0.884779 0.457858
O O9 0.359022 0.835076 0.575162
O O10 0.136535 0.708761 0.250000
O O11 0.000000 0.778715 0.139780
#
# Coordination Sequence:
#
# PCOD8260447 Si02
#       4
#    16  16  16  16
#     4  12  23  37  63  97 132 164 215 265 329 382
#     4  10  22  41  67  97 130 170 217 271 326 382
#     4  10  23  44  66  92 130 175 221 265 317 388
#     4  10  21  39  65  95 128 169 216 268 322 380
#
# _framework density 24.437415000000001
#
# number of rings (size 3 to 8) (size 9 to 14) (size 15 to 20)
#    0.000    1.500    2.500    2.250    0.000    5.500 
#    0.000    1.250    0.000    0.000    0.000    7.000 
#    0.000    0.000    0.000    0.000    0.000    0.000 
#
# Total GULP energy -396644.966805 kJ/mol
# GULP energy per Si atom -12395.155213 kJ/mol
# Density = 2.438179 g / cm^3
# Si number density = 24.437415 Si / 1000 Ang^3
#
#
#
# Elastic Constant Matrix: (Units=GPa)
#
#
# Indices 1 2 3 4 5 6 
#
# 1 121.3086 56.1965 48.1810 0.0000 0.0000 0.0000
# 2 56.1965 90.7673 39.7937 0.0000 0.0000 0.0000
# 3 48.1810 39.7937 157.4084 0.0000 0.0000 0.0000
# 4 0.0000 0.0000 0.0000 16.5109 0.0000 0.0000
# 5 0.0000 0.0000 0.0000 0.0000 23.9570 0.0000
# 6 0.0000 0.0000 0.0000 0.0000 0.0000 40.4743
#
#
#
# Elastic Compliance Matrix: (Units=1/GPa)
#
#
# Indices 1 2 3 4 5 6 
#
# 1 0.012113 -0.006606 -0.002038 0.000000 0.000000 0.000000
# 2 -0.006606 0.015993 -0.002021 0.000000 0.000000 0.000000
# 3 -0.002038 -0.002021 0.007488 0.000000 0.000000 0.000000
# 4 0.000000 0.000000 0.000000 0.060566 0.000000 0.000000
# 5 0.000000 0.000000 0.000000 0.000000 0.041741 0.000000
# 6 0.000000 0.000000 0.000000 0.000000 0.000000 0.024707
#
#
# Mechanical properties :
#
#
# Convention : Reuss Voigt Hill
#
# Bulk Modulus (GPa) = 70.10601 73.09185 71.59893
# Shear Modulus (GPa) = 26.49807 31.20932 28.85370
#
# Velocity S-wave (km/s) = 3.29648 3.57755 3.43989
# Velocity P-wave (km/s) = 6.57566 6.85856 6.71860
#
# Compressibility (1/GPa) = 0.01426411
#
# Stress axis : x y z
#
# Youngs Moduli (GPa) = 82.55545 62.52595 133.55535
#
# Poissons Ratio (x) = 0.41306 0.27213
# Poissons Ratio (y) = 0.54538 0.26993
# Poissons Ratio (z) = 0.16821 0.12637
#
# Static dielectric constant tensor:
#      x y z
#    x 4.504310 0.000000 0.000000 
#    y 0.000000 4.101340 0.000000 
#    z 0.000000 0.000000 4.776700 
# 
# 
# High freq. dielectric constant tensor:
#      x y z
#    x 1.978110 0.000000 0.000000 
#    y 0.000000 1.952790 0.000000 
#    z 0.000000 0.000000 1.980940 
# 
# From -- ./inp_files/33360.got.cif
#   From: 2010.03.12/outbox.cif.g09.slc.cpg/sg63_17_cif.got.tgz:33360.got - 2010.04.10 19:34:48.
