data_PCOD8260630
_publ_section_title
;
Structure prediction by ZEFSAII (Michael W. Deem and Ramdas Pophale) SiO2 
 PCOD8260630
Probable space group: C M C M
;
_chemical_formula_sum "Si O2"
_cell_formula_units_Z 48
_cell_length_a 26.859551
_cell_length_b 5.798420
_cell_length_c 13.888440
_cell_angle_alpha 90.000000
_cell_angle_beta 90.000000
_cell_angle_gamma 90.000000
_cell_volume 2163.026724
_symmetry_space_group_name_H-M "C M C M"
_symmetry_group_IT_number 63
_symmetry_cell_setting 'orthorhombic'
loop_
_space_group_symop_operation_xyz
x,y,z
-x,-y,1/2+z
x,-y,-z
-x,y,1/2-z
-x,-y,-z
x,y,1/2-z
-x,y,z
x,-y,1/2+z
1/2+x,1/2+y,z
1/2-x,1/2-y,1/2+z
1/2+x,1/2-y,-z
1/2-x,1/2+y,1/2-z
1/2-x,1/2-y,-z
1/2+x,1/2+y,1/2-z
1/2-x,1/2+y,z
1/2+x,1/2-y,1/2+z
loop_
_atom_site_type_symbol
_atom_site_label
_atom_site_fract_x
_atom_site_fract_y
_atom_site_fract_z
Si Si1 0.056311 0.664872 0.643569
Si Si2 0.722264 0.000000 0.500000
Si Si3 0.852955 0.659450 0.141568
Si Si4 0.393501 0.500000 0.500000
O O1 0.062006 0.781790 0.750000
O O2 0.091895 0.445042 0.638419
O O3 0.000000 0.577403 0.628003
O O4 0.069919 0.836104 0.558585
O O5 0.750000 0.750000 0.500000
O O6 0.687758 0.013055 0.595788
O O7 0.836712 0.722744 0.250000
O O8 0.855419 0.884871 0.075224
#
# Coordination Sequence:
#
# PCOD8260630 Si02
#       4
#    16   8  16   8
#     4  10  22  39  64 100 140 185 234 287 357 439
#     4  12  27  50  76 106 139 183 246 305 366 434
#     4  11  25  45  69 101 144 185 235 302 365 435
#     4  12  20  40  65 100 140 189 236 291 353 430
#
# _framework density 22.191126000000001
#
# number of rings (size 3 to 8) (size 9 to 14) (size 15 to 20)
#    0.000    1.000    3.333    2.500    0.000    5.333 
#    0.000    3.333    0.000    0.000    0.000    0.000 
#    0.000    0.000    0.000    0.000    0.000    0.000 
#
# Total GULP energy -297470.426925 kJ/mol
# GULP energy per Si atom -12394.601122 kJ/mol
# Density = 2.214062 g / cm^3
# Si number density = 22.191126 Si / 1000 Ang^3
#
#
#
# Elastic Constant Matrix: (Units=GPa)
#
#
# Indices 1 2 3 4 5 6 
#
# 1 115.7721 45.0021 59.3002 0.0000 0.0000 0.0000
# 2 45.0021 100.8068 64.2104 0.0000 0.0000 0.0000
# 3 59.3002 64.2104 204.8557 0.0000 0.0000 0.0000
# 4 0.0000 0.0000 0.0000 35.8655 0.0000 0.0000
# 5 0.0000 0.0000 0.0000 0.0000 13.1387 0.0000
# 6 0.0000 0.0000 0.0000 0.0000 0.0000 35.4200
#
#
#
# Elastic Compliance Matrix: (Units=1/GPa)
#
#
# Indices 1 2 3 4 5 6 
#
# 1 0.011116 -0.003639 -0.002077 0.000000 0.000000 0.000000
# 2 -0.003639 0.013586 -0.003205 0.000000 0.000000 0.000000
# 3 -0.002077 -0.003205 0.006487 0.000000 0.000000 0.000000
# 4 0.000000 0.000000 0.000000 0.027882 0.000000 0.000000
# 5 0.000000 0.000000 0.000000 0.000000 0.076111 0.000000
# 6 0.000000 0.000000 0.000000 0.000000 0.000000 0.028233
#
#
# Mechanical properties :
#
#
# Convention : Reuss Voigt Hill
#
# Bulk Modulus (GPa) = 74.92489 84.27333 79.59911
# Shear Modulus (GPa) = 26.92406 33.74629 30.33518
#
# Velocity S-wave (km/s) = 3.48700 3.90386 3.70130
# Velocity P-wave (km/s) = 7.07453 7.64060 7.36301
#
# Compressibility (1/GPa) = 0.01334670
#
# Stress axis : x y z
#
# Youngs Moduli (GPa) = 89.95811 73.60450 154.14709
#
# Poissons Ratio (x) = 0.26788 0.32018
# Poissons Ratio (y) = 0.32740 0.49403
# Poissons Ratio (z) = 0.18685 0.23590
#
# Static dielectric constant tensor:
#      x y z
#    x 4.105100 0.000000 0.000000 
#    y 0.000000 3.803320 0.000000 
#    z 0.000000 0.000000 4.610240 
# 
# 
# High freq. dielectric constant tensor:
#      x y z
#    x 1.876720 0.000000 0.000000 
#    y 0.000000 1.854350 0.000000 
#    z 0.000000 0.000000 1.898940 
# 
# From -- ./inp_files/37362.got.cif
#   From: 2010.03.12/outbox.cif.g09.slc.cpg/sg63_19_cif.got.tgz:37362.got - 2010.04.10 19:34:48.
