data_PCOD8260402
_publ_section_title
;
Structure prediction by ZEFSAII (Michael W. Deem and Ramdas Pophale) SiO2 
 PCOD8260402
Probable space group: C M C M
;
_chemical_formula_sum "Si O2"
_cell_formula_units_Z 96
_cell_length_a 20.058719
_cell_length_b 15.360314
_cell_length_c 15.299844
_cell_angle_alpha 90.000000
_cell_angle_beta 90.000000
_cell_angle_gamma 90.000000
_cell_volume 4714.007736
_symmetry_space_group_name_H-M "C M C M"
_symmetry_group_IT_number 63
_symmetry_cell_setting 'orthorhombic'
loop_
_space_group_symop_operation_xyz
x,y,z
-x,-y,1/2+z
x,-y,-z
-x,y,1/2-z
-x,-y,-z
x,y,1/2-z
-x,y,z
x,-y,1/2+z
1/2+x,1/2+y,z
1/2-x,1/2-y,1/2+z
1/2+x,1/2-y,-z
1/2-x,1/2+y,1/2-z
1/2-x,1/2-y,-z
1/2+x,1/2+y,1/2-z
1/2-x,1/2+y,z
1/2+x,1/2-y,1/2+z
loop_
_atom_site_type_symbol
_atom_site_label
_atom_site_fract_x
_atom_site_fract_y
_atom_site_fract_z
Si Si1 0.832395 0.115979 0.654851
Si Si2 0.630236 0.554034 0.086208
Si Si3 0.000000 0.656996 0.649206
Si Si4 0.249938 0.646840 0.002108
Si Si5 0.401798 0.100133 0.501437
Si Si6 0.000000 0.139704 0.153410
Si Si7 0.573343 0.771006 0.848181
O O1 0.807709 0.144191 0.750000
O O2 0.769766 0.109599 0.591885
O O3 0.881127 0.191387 0.617571
O O4 0.864143 0.019265 0.661612
O O5 0.698093 0.611849 0.075916
O O6 0.567083 0.614531 0.102774
O O7 0.615551 0.500000 0.000000
O O8 0.933232 0.634064 0.592986
O O9 0.000000 0.616652 0.750000
O O10 0.000000 0.758420 0.661707
O O11 0.250000 0.750000 0.000000
O O12 0.176794 0.609455 0.012688
O O13 0.430152 0.149899 0.416676
O O14 0.422939 0.000000 0.500000
O O15 0.000000 0.097431 0.250000
O O16 0.595382 0.802654 0.750000
O O17 0.500000 0.730339 0.841988
#
# Coordination Sequence:
#
# PCOD8260402 Si02
#       7
#    16  16   8  16  16   8  16
#     4  10  21  39  61  94 128 159 204 262 317 376
#     4  10  22  37  62  94 121 162 210 256 310 378
#     4  11  27  44  63  94 131 171 214 258 323 392
#     4  11  22  42  65  88 125 167 213 255 316 384
#     4  12  24  43  68  92 123 168 214 271 324 379
#     4  11  23  40  60  90 131 171 201 245 308 382
#     4  10  22  39  64  96 125 161 211 268 324 378
#
# _framework density 20.364837000000001
#
# number of rings (size 3 to 8) (size 9 to 14) (size 15 to 20)
#    0.000    1.333    2.500    3.500    3.500    1.333 
#    0.000    5.000    0.000    0.000    0.000    0.000 
#    0.000    0.000    0.000    0.000    0.000    0.000 
#
# Total GULP energy -594702.417952 kJ/mol
# GULP energy per Si atom -12389.633707 kJ/mol
# Density = 2.031849 g / cm^3
# Si number density = 20.364837 Si / 1000 Ang^3
#
#
#
# Elastic Constant Matrix: (Units=GPa)
#
#
# Indices 1 2 3 4 5 6 
#
# 1 134.7725 24.5061 38.4209 0.0000 0.0000 0.0000
# 2 24.5061 116.5084 30.6711 0.0000 0.0000 0.0000
# 3 38.4209 30.6711 104.7290 0.0000 0.0000 0.0000
# 4 0.0000 0.0000 0.0000 24.4852 0.0000 0.0000
# 5 0.0000 0.0000 0.0000 0.0000 10.8644 0.0000
# 6 0.0000 0.0000 0.0000 0.0000 0.0000 20.1997
#
#
#
# Elastic Compliance Matrix: (Units=1/GPa)
#
#
# Indices 1 2 3 4 5 6 
#
# 1 0.008400 -0.001035 -0.002778 0.000000 0.000000 0.000000
# 2 -0.001035 0.009428 -0.002381 0.000000 0.000000 0.000000
# 3 -0.002778 -0.002381 0.011265 0.000000 0.000000 0.000000
# 4 0.000000 0.000000 0.000000 0.040841 0.000000 0.000000
# 5 0.000000 0.000000 0.000000 0.000000 0.092044 0.000000
# 6 0.000000 0.000000 0.000000 0.000000 0.000000 0.049506
#
#
# Mechanical properties :
#
#
# Convention : Reuss Voigt Hill
#
# Bulk Modulus (GPa) = 59.86973 60.35625 60.11299
# Shear Modulus (GPa) = 21.79204 28.60398 25.19801
#
# Velocity S-wave (km/s) = 3.27476 3.75183 3.52139
# Velocity P-wave (km/s) = 6.61522 6.96205 6.79085
#
# Compressibility (1/GPa) = 0.01670293
#
# Stress axis : x y z
#
# Youngs Moduli (GPa) = 119.04364 106.07027 88.76962
#
# Poissons Ratio (x) = 0.10983 0.24665
# Poissons Ratio (y) = 0.12326 0.21137
# Poissons Ratio (z) = 0.33076 0.25257
#
# Static dielectric constant tensor:
#      x y z
#    x 3.791400 0.000000 0.000000 
#    y 0.000000 4.027960 0.000000 
#    z 0.000000 0.000000 3.958040 
# 
# 
# High freq. dielectric constant tensor:
#      x y z
#    x 1.798070 0.000000 0.000000 
#    y 0.000000 1.803890 0.000000 
#    z 0.000000 0.000000 1.797010 
# 
# From -- ./inp_files/35438.got.cif
#   From: 2010.03.12/outbox.cif.g09.slc.cpg/sg63_18_cif.got.tgz:35438.got - 2010.04.10 19:34:48.
