data_PCOD8260576
_publ_section_title
;
Structure prediction by ZEFSAII (Michael W. Deem and Ramdas Pophale) SiO2 
 PCOD8260576
Probable space group: C M C M
;
_chemical_formula_sum "Si O2"
_cell_formula_units_Z 80
_cell_length_a 7.665467
_cell_length_b 29.275910
_cell_length_c 17.572328
_cell_angle_alpha 90.000000
_cell_angle_beta 90.000000
_cell_angle_gamma 90.000000
_cell_volume 3943.468016
_symmetry_space_group_name_H-M "C M C M"
_symmetry_group_IT_number 63
_symmetry_cell_setting 'orthorhombic'
loop_
_space_group_symop_operation_xyz
x,y,z
-x,-y,1/2+z
x,-y,-z
-x,y,1/2-z
-x,-y,-z
x,y,1/2-z
-x,y,z
x,-y,1/2+z
1/2+x,1/2+y,z
1/2-x,1/2-y,1/2+z
1/2+x,1/2-y,-z
1/2-x,1/2+y,1/2-z
1/2-x,1/2-y,-z
1/2+x,1/2+y,1/2-z
1/2-x,1/2+y,z
1/2+x,1/2-y,1/2+z
loop_
_atom_site_type_symbol
_atom_site_label
_atom_site_fract_x
_atom_site_fract_y
_atom_site_fract_z
Si Si1 0.500000 0.651544 0.159534
Si Si2 0.500000 0.245731 0.660050
Si Si3 0.303719 0.408485 0.434140
Si Si4 0.200442 0.178932 0.838928
Si Si5 0.705166 0.992745 0.336983
Si Si6 0.195879 0.589901 0.099985
O O1 0.500000 0.649263 0.250000
O O2 0.500000 0.703164 0.127074
O O3 0.323842 0.629109 0.128575
O O4 0.500000 0.248549 0.750000
O O5 0.674911 0.219752 0.632295
O O6 0.500000 0.399685 0.462212
O O7 0.239515 0.366718 0.382094
O O8 0.300929 0.454635 0.385841
O O9 0.185336 0.412390 0.508651
O O10 0.227994 0.169042 0.750000
O O11 0.000000 0.192362 0.856473
O O12 0.765405 0.988007 0.250000
O O13 0.500000 0.986186 0.346431
O O14 0.765101 0.041952 0.367485
O O15 0.000000 0.600031 0.130307
#
# Coordination Sequence:
#
# PCOD8260576 Si02
#       6
#     8   8  16  16  16  16
#     4  11  24  44  67  91 116 155 210 260 301 362
#     4   9  20  38  64  91 116 153 205 254 310 360
#     4  11  22  37  60  90 127 162 204 247 306 364
#     4   9  19  36  59  89 123 156 197 252 305 363
#     4  10  22  38  58  89 122 163 211 249 295 362
#     4  11  24  42  62  87 127 165 203 248 306 359
#
# _framework density 20.286712999999999
#
# number of rings (size 3 to 8) (size 9 to 14) (size 15 to 20)
#    0.000    1.800    1.000    2.400    4.200    5.600 
#    0.000    3.000    0.000    0.000    0.000    0.000 
#    0.000    0.000    0.000    0.000    0.000    0.000 
#
# Total GULP energy -496145.674682 kJ/mol
# GULP energy per Si atom -12403.641867 kJ/mol
# Density = 2.024054 g / cm^3
# Si number density = 20.286713 Si / 1000 Ang^3
#
#
#
# Elastic Constant Matrix: (Units=GPa)
#
#
# Indices 1 2 3 4 5 6 
#
# 1 90.7784 50.8975 18.6137 0.0000 0.0000 0.0000
# 2 50.8975 129.2068 24.6189 0.0000 0.0000 0.0000
# 3 18.6137 24.6189 82.4501 0.0000 0.0000 0.0000
# 4 0.0000 0.0000 0.0000 1.9339 0.0000 0.0000
# 5 0.0000 0.0000 0.0000 0.0000 24.7253 0.0000
# 6 0.0000 0.0000 0.0000 0.0000 0.0000 35.1378
#
#
#
# Elastic Compliance Matrix: (Units=1/GPa)
#
#
# Indices 1 2 3 4 5 6 
#
# 1 0.014346 -0.005338 -0.001645 0.000000 0.000000 0.000000
# 2 -0.005338 0.010192 -0.001838 0.000000 0.000000 0.000000
# 3 -0.001645 -0.001838 0.013049 0.000000 0.000000 0.000000
# 4 0.000000 0.000000 0.000000 0.517098 0.000000 0.000000
# 5 0.000000 0.000000 0.000000 0.000000 0.040444 0.000000
# 6 0.000000 0.000000 0.000000 0.000000 0.000000 0.028459
#
#
# Mechanical properties :
#
#
# Convention : Reuss Voigt Hill
#
# Bulk Modulus (GPa) = 50.13738 54.52171 52.32955
# Shear Modulus (GPa) = 7.71749 26.24642 16.98196
#
# Velocity S-wave (km/s) = 1.95255 3.60081 2.89640
# Velocity P-wave (km/s) = 5.46364 6.64994 6.08576
#
# Compressibility (1/GPa) = 0.01994520
#
# Stress axis : x y z
#
# Youngs Moduli (GPa) = 69.70643 98.11169 76.63534
#
# Poissons Ratio (x) = 0.52370 0.12606
# Poissons Ratio (y) = 0.37208 0.14088
# Poissons Ratio (z) = 0.11466 0.18036
#
# Static dielectric constant tensor:
#      x y z
#    x 3.696810 0.000000 0.000000 
#    y 0.000000 3.769710 0.000000 
#    z 0.000000 0.000000 3.636200 
# 
# 
# High freq. dielectric constant tensor:
#      x y z
#    x 1.800960 0.000000 0.000000 
#    y 0.000000 1.790010 0.000000 
#    z 0.000000 0.000000 1.787170 
# 
# From -- ./inp_files/40591.got.cif
#   From: 2010.03.12/outbox.cif.g09.slc.cpg/sg63_21_cif.got.tgz:40591.got - 2010.04.10 19:34:48.
