data_PCOD8260127
_publ_section_title
;
Structure prediction by ZEFSAII (Michael W. Deem and Ramdas Pophale) SiO2 
 PCOD8260127
Probable space group: C M C M
;
_chemical_formula_sum "Si O2"
_cell_formula_units_Z 96
_cell_length_a 22.224750
_cell_length_b 24.503437
_cell_length_c 9.063386
_cell_angle_alpha 90.000000
_cell_angle_beta 90.000000
_cell_angle_gamma 90.000000
_cell_volume 4935.763776
_symmetry_space_group_name_H-M "C M C M"
_symmetry_group_IT_number 63
_symmetry_cell_setting 'orthorhombic'
loop_
_space_group_symop_operation_xyz
x,y,z
-x,-y,1/2+z
x,-y,-z
-x,y,1/2-z
-x,-y,-z
x,y,1/2-z
-x,y,z
x,-y,1/2+z
1/2+x,1/2+y,z
1/2-x,1/2-y,1/2+z
1/2+x,1/2-y,-z
1/2-x,1/2+y,1/2-z
1/2-x,1/2-y,-z
1/2+x,1/2+y,1/2-z
1/2-x,1/2+y,z
1/2+x,1/2-y,1/2+z
loop_
_atom_site_type_symbol
_atom_site_label
_atom_site_fract_x
_atom_site_fract_y
_atom_site_fract_z
Si Si1 0.736493 0.197633 0.588913
Si Si2 0.230147 0.082246 0.925069
Si Si3 0.396476 0.157846 0.915422
Si Si4 0.147913 0.446374 0.573933
Si Si5 0.000000 0.143294 0.923768
Si Si6 0.404367 0.554083 0.577014
Si Si7 0.500000 0.238501 0.924660
O O1 0.762186 0.209061 0.750000
O O2 0.750000 0.250000 0.500000
O O3 0.771060 0.145315 0.524589
O O4 0.666007 0.188484 0.590225
O O5 0.244832 0.077170 0.750000
O O6 0.165576 0.058495 0.968587
O O7 0.282928 0.053941 0.017562
O O8 0.414956 0.138436 0.750000
O O9 0.443136 0.202483 0.977251
O O10 0.391465 0.105414 0.021781
O O11 0.117998 0.500000 0.500000
O O12 0.146837 0.449858 0.750000
O O13 0.941282 0.107996 0.971867
O O14 0.000000 0.154337 0.750000
O O15 0.000000 0.201916 0.001883
O O16 0.430985 0.500000 0.500000
O O17 0.412078 0.545929 0.750000
O O18 0.500000 0.247983 0.750000
#
# Coordination Sequence:
#
# PCOD8260127 Si02
#       7
#    16  16  16  16   8  16   8
#     4   9  18  31  50  76 110 144 178 224 273 327
#     4   9  19  35  53  78 114 150 186 230 282 333
#     4   9  20  39  58  81 113 148 185 232 280 327
#     4  11  21  35  58  87 116 148 185 226 278 338
#     4  10  23  39  57  81 111 148 189 236 288 336
#     4  10  21  37  56  80 111 149 190 236 285 333
#     4  10  22  41  64  85 111 148 190 234 283 332
#
# _framework density 19.449877000000001
#
# number of rings (size 3 to 8) (size 9 to 14) (size 15 to 20)
#    0.000    2.333    0.000    3.250    2.333    6.000 
#    0.000    0.417    0.000    0.000    0.000    0.000 
#    0.000    0.000    0.000    0.000    0.000    0.000 
#
# Total GULP energy -594971.191840 kJ/mol
# GULP energy per Si atom -12395.233163 kJ/mol
# Density = 1.940561 g / cm^3
# Si number density = 19.449877 Si / 1000 Ang^3
#
#
#
# Elastic Constant Matrix: (Units=GPa)
#
#
# Indices 1 2 3 4 5 6 
#
# 1 71.5291 52.8029 30.0712 0.0000 0.0000 0.0000
# 2 52.8029 177.0249 71.4929 0.0000 0.0000 0.0000
# 3 30.0712 71.4929 84.9641 0.0000 0.0000 0.0000
# 4 0.0000 0.0000 0.0000 40.7617 0.0000 0.0000
# 5 0.0000 0.0000 0.0000 0.0000 20.4962 0.0000
# 6 0.0000 0.0000 0.0000 0.0000 0.0000 10.1510
#
#
#
# Elastic Compliance Matrix: (Units=1/GPa)
#
#
# Indices 1 2 3 4 5 6 
#
# 1 0.018377 -0.004324 -0.002866 0.000000 0.000000 0.000000
# 2 -0.004324 0.009574 -0.006526 0.000000 0.000000 0.000000
# 3 -0.002866 -0.006526 0.018275 0.000000 0.000000 0.000000
# 4 0.000000 0.000000 0.000000 0.024533 0.000000 0.000000
# 5 0.000000 0.000000 0.000000 0.000000 0.048790 0.000000
# 6 0.000000 0.000000 0.000000 0.000000 0.000000 0.098513
#
#
# Mechanical properties :
#
#
# Convention : Reuss Voigt Hill
#
# Bulk Modulus (GPa) = 53.20490 71.36134 62.28312
# Shear Modulus (GPa) = 19.86035 26.22516 23.04276
#
# Velocity S-wave (km/s) = 3.19894 3.67597 3.44572
# Velocity P-wave (km/s) = 6.40769 7.40179 6.92261
#
# Compressibility (1/GPa) = 0.01879526
#
# Stress axis : x y z
#
# Youngs Moduli (GPa) = 54.41522 104.44693 54.71970
#
# Poissons Ratio (x) = 0.45166 0.15680
# Poissons Ratio (y) = 0.23531 0.35709
# Poissons Ratio (z) = 0.15593 0.68159
#
# Static dielectric constant tensor:
#      x y z
#    x 2.511220 0.000000 0.000000 
#    y 0.000000 3.579360 0.000000 
#    z 0.000000 0.000000 3.579790 
# 
# 
# High freq. dielectric constant tensor:
#      x y z
#    x 1.747610 0.000000 0.000000 
#    y 0.000000 1.772530 0.000000 
#    z 0.000000 0.000000 1.744090 
# 
# From -- ./inp_files/10546.got.cif
#   From: 2010.03.12/outbox.cif.g09.slc.cpg/sg63_6_cif.got.tgz:10546.got - 2010.04.10 19:34:48.
