data_PCOD8260397
_publ_section_title
;
Structure prediction by ZEFSAII (Michael W. Deem and Ramdas Pophale) SiO2 
 PCOD8260397
Probable space group: C M C M
;
_chemical_formula_sum "Si O2"
_cell_formula_units_Z 96
_cell_length_a 27.705636
_cell_length_b 20.443043
_cell_length_c 8.984069
_cell_angle_alpha 90.000000
_cell_angle_beta 90.000000
_cell_angle_gamma 90.000000
_cell_volume 5088.464453
_symmetry_space_group_name_H-M "C M C M"
_symmetry_group_IT_number 63
_symmetry_cell_setting 'orthorhombic'
loop_
_space_group_symop_operation_xyz
x,y,z
-x,-y,1/2+z
x,-y,-z
-x,y,1/2-z
-x,-y,-z
x,y,1/2-z
-x,y,z
x,-y,1/2+z
1/2+x,1/2+y,z
1/2-x,1/2-y,1/2+z
1/2+x,1/2-y,-z
1/2-x,1/2+y,1/2-z
1/2-x,1/2-y,-z
1/2+x,1/2+y,1/2-z
1/2-x,1/2+y,z
1/2+x,1/2-y,1/2+z
loop_
_atom_site_type_symbol
_atom_site_label
_atom_site_fract_x
_atom_site_fract_y
_atom_site_fract_z
Si Si1 0.617952 0.796823 0.580382
Si Si2 0.380038 0.060090 0.080425
Si Si3 0.100311 0.931539 0.074533
Si Si4 0.803696 0.366202 0.075174
Si Si5 0.290959 0.433020 0.077236
Si Si6 0.944477 0.188991 0.421249
O O1 0.621979 0.771237 0.750000
O O2 0.592498 0.869285 0.574159
O O3 0.672423 0.803918 0.511653
O O4 0.586968 0.747862 0.484069
O O5 0.368937 0.041038 0.250000
O O6 0.330358 0.068416 0.986069
O O7 0.408832 0.000000 0.000000
O O8 0.092924 0.937954 0.250000
O O9 0.155121 0.910831 0.031559
O O10 0.064765 0.877021 0.011673
O O11 0.086356 0.000000 0.000000
O O12 0.812740 0.357412 0.250000
O O13 0.746807 0.374898 0.037221
O O14 0.288685 0.448838 0.250000
O O15 0.275944 0.500000 0.000000
O O16 0.930752 0.177390 0.250000
O O17 0.000000 0.208708 0.440604
#
# Coordination Sequence:
#
# PCOD8260397 Si02
#       6
#    16  16  16  16  16  16
#     4   9  20  35  53  81 113 147 189 232 277 331
#     4   9  17  27  45  75 109 146 188 230 269 316
#     4  10  21  39  61  87 118 148 183 229 280 335
#     4   9  16  28  48  76 112 150 188 227 265 313
#     4   9  18  30  49  79 115 154 190 225 269 323
#     4  11  24  42  64  86 107 138 183 234 292 352
#
# _framework density 18.866202000000001
#
# number of rings (size 3 to 8) (size 9 to 14) (size 15 to 20)
#    1.000    1.500    0.000    2.500    0.000    5.000 
#    0.000    0.833    0.000    0.500    0.000    0.000 
#    0.000    0.000    0.000    0.000    0.000    0.000 
#
# Total GULP energy -594664.118907 kJ/mol
# GULP energy per Si atom -12388.835811 kJ/mol
# Density = 1.882326 g / cm^3
# Si number density = 18.866202 Si / 1000 Ang^3
#
#
#
# Elastic Constant Matrix: (Units=GPa)
#
#
# Indices 1 2 3 4 5 6 
#
# 1 48.7067 19.5087 29.9247 0.0000 0.0000 0.0000
# 2 19.5087 68.5399 34.8236 0.0000 0.0000 0.0000
# 3 29.9247 34.8236 98.1027 0.0000 0.0000 0.0000
# 4 0.0000 0.0000 0.0000 35.0104 0.0000 0.0000
# 5 0.0000 0.0000 0.0000 0.0000 15.5757 0.0000
# 6 0.0000 0.0000 0.0000 0.0000 0.0000 -36.4962
#
#
#
# Elastic Compliance Matrix: (Units=1/GPa)
#
#
# Indices 1 2 3 4 5 6 
#
# 1 0.026197 -0.004144 -0.006520 0.000000 0.000000 0.000000
# 2 -0.004144 0.018456 -0.005287 0.000000 0.000000 0.000000
# 3 -0.006520 -0.005287 0.014059 0.000000 0.000000 0.000000
# 4 0.000000 0.000000 0.000000 0.028563 0.000000 0.000000
# 5 0.000000 0.000000 0.000000 0.000000 0.064203 0.000000
# 6 0.000000 0.000000 0.000000 0.000000 0.000000 -0.027400
#
#
# Mechanical properties :
#
#
# Convention : Reuss Voigt Hill
#
# Bulk Modulus (GPa) = 37.30031 42.65149 39.97590
# Shear Modulus (GPa) = 30.31859 11.55746 20.93803
#
# Velocity S-wave (km/s) = 4.01313 2.47776 3.33501
# Velocity P-wave (km/s) = 6.42553 5.55357 6.00540
#
# Compressibility (1/GPa) = 0.02680943
#
# Stress axis : x y z
#
# Youngs Moduli (GPa) = 38.17301 54.18337 71.12870
#
# Poissons Ratio (x) = 0.22452 0.46375
# Poissons Ratio (y) = 0.15818 0.37608
# Poissons Ratio (z) = 0.24888 0.28648
#
# Static dielectric constant tensor:
#      x y z
#    x 3.241430 0.000000 0.000000 
#    y 0.000000 3.356460 0.000000 
#    z 0.000000 0.000000 3.557010 
# 
# 
# High freq. dielectric constant tensor:
#      x y z
#    x 1.698830 0.000000 0.000000 
#    y 0.000000 1.723270 0.000000 
#    z 0.000000 0.000000 1.749770 
# 
# From -- ./inp_files/10416.got.cif
#   From: 2010.03.12/outbox.cif.g09.slc.cpg/sg63_6_cif.got.tgz:10416.got - 2010.04.10 19:34:48.
