data_PCOD8260304
_publ_section_title
;
Structure prediction by ZEFSAII (Michael W. Deem and Ramdas Pophale) SiO2 
 PCOD8260304
Probable space group: C M C M
;
_chemical_formula_sum "Si O2"
_cell_formula_units_Z 96
_cell_length_a 21.854869
_cell_length_b 11.226585
_cell_length_c 18.607258
_cell_angle_alpha 90.000000
_cell_angle_beta 90.000000
_cell_angle_gamma 90.000000
_cell_volume 4565.393918
_symmetry_space_group_name_H-M "C M C M"
_symmetry_group_IT_number 63
_symmetry_cell_setting 'orthorhombic'
loop_
_space_group_symop_operation_xyz
x,y,z
-x,-y,1/2+z
x,-y,-z
-x,y,1/2-z
-x,-y,-z
x,y,1/2-z
-x,y,z
x,-y,1/2+z
1/2+x,1/2+y,z
1/2-x,1/2-y,1/2+z
1/2+x,1/2-y,-z
1/2-x,1/2+y,1/2-z
1/2-x,1/2-y,-z
1/2+x,1/2+y,1/2-z
1/2-x,1/2+y,z
1/2+x,1/2-y,1/2+z
loop_
_atom_site_type_symbol
_atom_site_label
_atom_site_fract_x
_atom_site_fract_y
_atom_site_fract_z
Si Si1 0.643106 0.235315 0.333793
Si Si2 0.272782 0.632837 0.331942
Si Si3 0.256705 0.928501 0.438590
Si Si4 0.125374 0.126126 0.971900
Si Si5 0.568857 0.000448 0.333412
Si Si6 0.867413 0.278489 0.099870
O O1 0.628599 0.268652 0.250000
O O2 0.716086 0.225499 0.348903
O O3 0.612900 0.334037 0.388367
O O4 0.613738 0.107638 0.354441
O O5 0.265993 0.595992 0.250000
O O6 0.265141 0.509152 0.372807
O O7 0.343306 0.677644 0.344339
O O8 0.198407 0.876396 0.481797
O O9 0.299793 0.825959 0.413091
O O10 0.294318 0.000000 0.500000
O O11 0.100942 0.224853 0.028386
O O12 0.096595 0.000000 0.000000
O O13 0.573199 0.973550 0.250000
O O14 0.500000 0.034549 0.356550
O O15 0.586994 0.877140 0.370888
#
# Coordination Sequence:
#
# PCOD8260304 Si02
#       6
#    16  16  16  16  16  16
#     4  10  21  38  60  86 120 163 207 258 311 372
#     4  11  21  32  52  88 124 156 200 250 310 375
#     4  11  20  33  52  82 123 168 193 237 307 371
#     4  11  22  37  55  89 125 164 203 249 313 379
#     4  10  23  43  65  91 124 164 210 260 313 369
#     4  12  21  35  60  88 127 161 203 252 315 372
#
# _framework density 21.027757999999999
#
# number of rings (size 3 to 8) (size 9 to 14) (size 15 to 20)
#    0.000    1.167    6.667    2.000    0.000    1.333 
#    0.000    1.667    0.000    2.000    0.000    2.333 
#    0.000    0.000    0.000    0.000    0.000    0.000 
#
# Total GULP energy -594652.130286 kJ/mol
# GULP energy per Si atom -12388.586048 kJ/mol
# Density = 2.097990 g / cm^3
# Si number density = 21.027758 Si / 1000 Ang^3
#
#
#
# Elastic Constant Matrix: (Units=GPa)
#
#
# Indices 1 2 3 4 5 6 
#
# 1 46.6567 10.9153 22.0316 0.0000 0.0000 0.0000
# 2 10.9153 84.9194 51.8780 0.0000 0.0000 0.0000
# 3 22.0316 51.8780 112.9440 0.0000 0.0000 0.0000
# 4 0.0000 0.0000 0.0000 46.5698 0.0000 0.0000
# 5 0.0000 0.0000 0.0000 0.0000 11.8127 0.0000
# 6 0.0000 0.0000 0.0000 0.0000 0.0000 20.0093
#
#
#
# Elastic Compliance Matrix: (Units=1/GPa)
#
#
# Indices 1 2 3 4 5 6 
#
# 1 0.023613 -0.000308 -0.004465 0.000000 0.000000 0.000000
# 2 -0.000308 0.016373 -0.007461 0.000000 0.000000 0.000000
# 3 -0.004465 -0.007461 0.013152 0.000000 0.000000 0.000000
# 4 0.000000 0.000000 0.000000 0.021473 0.000000 0.000000
# 5 0.000000 0.000000 0.000000 0.000000 0.084655 0.000000
# 6 0.000000 0.000000 0.000000 0.000000 0.000000 0.049977
#
#
# Mechanical properties :
#
#
# Convention : Reuss Voigt Hill
#
# Bulk Modulus (GPa) = 34.87696 46.01888 40.44792
# Shear Modulus (GPa) = 20.55357 26.32470 23.43914
#
# Velocity S-wave (km/s) = 3.12981 3.54206 3.34230
# Velocity P-wave (km/s) = 5.44822 6.21777 5.84567
#
# Compressibility (1/GPa) = 0.02867222
#
# Stress axis : x y z
#
# Youngs Moduli (GPa) = 42.34867 61.07556 76.03553
#
# Poissons Ratio (x) = 0.01878 0.33949
# Poissons Ratio (y) = 0.01302 0.56727
# Poissons Ratio (z) = 0.18908 0.45566
#
# Static dielectric constant tensor:
#      x y z
#    x 3.414930 0.000000 0.000000 
#    y 0.000000 3.834530 0.000000 
#    z 0.000000 0.000000 3.981280 
# 
# 
# High freq. dielectric constant tensor:
#      x y z
#    x 1.764640 0.000000 0.000000 
#    y 0.000000 1.828970 0.000000 
#    z 0.000000 0.000000 1.838740 
# 
# From -- ./inp_files/48019.got.cif
#   From: 2010.03.12/outbox.cif.g09.slc.cpg/sg63_25_cif.got.tgz:48019.got - 2010.04.10 19:34:48.
