data_PCOD8260167
_publ_section_title
;
Structure prediction by ZEFSAII (Michael W. Deem and Ramdas Pophale) SiO2 
 PCOD8260167
Probable space group: C M C M
;
_chemical_formula_sum "Si O2"
_cell_formula_units_Z 112
_cell_length_a 23.255303
_cell_length_b 11.334083
_cell_length_c 20.947744
_cell_angle_alpha 90.000000
_cell_angle_beta 90.000000
_cell_angle_gamma 90.000000
_cell_volume 5521.354715
_symmetry_space_group_name_H-M "C M C M"
_symmetry_group_IT_number 63
_symmetry_cell_setting 'orthorhombic'
loop_
_space_group_symop_operation_xyz
x,y,z
-x,-y,1/2+z
x,-y,-z
-x,y,1/2-z
-x,-y,-z
x,y,1/2-z
-x,y,z
x,-y,1/2+z
1/2+x,1/2+y,z
1/2-x,1/2-y,1/2+z
1/2+x,1/2-y,-z
1/2-x,1/2+y,1/2-z
1/2-x,1/2-y,-z
1/2+x,1/2+y,1/2-z
1/2-x,1/2+y,z
1/2+x,1/2-y,1/2+z
loop_
_atom_site_type_symbol
_atom_site_label
_atom_site_fract_x
_atom_site_fract_y
_atom_site_fract_z
Si Si1 0.742406 0.374334 0.463034
Si Si2 0.156355 0.366143 0.136683
Si Si3 0.671195 0.883552 0.820689
Si Si4 0.197006 0.874208 0.677892
Si Si5 0.934359 0.735427 0.950651
Si Si6 0.886038 0.978441 0.926924
Si Si7 0.622565 0.718263 0.920677
O O1 0.743884 0.500000 0.500000
O O2 0.750000 0.250000 0.500000
O O3 0.794248 0.385032 0.414493
O O4 0.682157 0.355135 0.427583
O O5 0.151084 0.481344 0.180068
O O6 0.171858 0.257224 0.182097
O O7 0.095204 0.346427 0.102103
O O8 0.665416 0.830945 0.750000
O O9 0.736659 0.870970 0.844504
O O10 0.626991 0.812304 0.864906
O O11 0.191368 0.929318 0.750000
O O12 0.165204 0.946135 0.622448
O O13 0.931589 0.872129 0.928556
O O14 0.000000 0.696106 0.958944
O O15 0.899734 0.714894 0.016602
O O16 0.917174 0.102155 0.904593
O O17 0.862530 0.000000 0.000000
#
# Coordination Sequence:
#
# PCOD8260167 Si02
#       7
#    16  16  16  16  16  16  16
#     4  12  22  33  58  91 130 164 199 247 321 389
#     4  11  22  38  59  86 125 160 205 256 304 375
#     4  11  24  39  57  85 122 168 207 248 311 377
#     4  10  21  37  57  86 124 170 207 245 300 378
#     4  10  22  40  63  90 117 155 203 256 317 372
#     4   9  20  36  59  90 123 156 199 253 314 370
#     4  11  21  36  58  89 126 156 194 246 314 383
#
# _framework density 20.284876000000001
#
# number of rings (size 3 to 8) (size 9 to 14) (size 15 to 20)
#    0.000    1.429    2.857    3.429    2.000    3.143 
#    2.571    1.429    0.000   12.000    0.000    8.000 
#    0.000    0.000    0.000    0.000    0.000    0.000 
#
# Total GULP energy -693731.613692 kJ/mol
# GULP energy per Si atom -12388.064530 kJ/mol
# Density = 2.023871 g / cm^3
# Si number density = 20.284876 Si / 1000 Ang^3
#
#
#
# Elastic Constant Matrix: (Units=GPa)
#
#
# Indices 1 2 3 4 5 6 
#
# 1 80.4208 10.0608 31.1544 0.0000 0.0000 0.0000
# 2 10.0608 95.6817 31.5465 0.0000 0.0000 0.0000
# 3 31.1544 31.5465 87.5292 0.0000 0.0000 0.0000
# 4 0.0000 0.0000 0.0000 30.1916 0.0000 0.0000
# 5 0.0000 0.0000 0.0000 0.0000 8.9869 0.0000
# 6 0.0000 0.0000 0.0000 0.0000 0.0000 13.0570
#
#
#
# Elastic Compliance Matrix: (Units=1/GPa)
#
#
# Indices 1 2 3 4 5 6 
#
# 1 0.014427 0.000200 -0.005207 0.000000 0.000000 0.000000
# 2 0.000200 0.011863 -0.004347 0.000000 0.000000 0.000000
# 3 -0.005207 -0.004347 0.014845 0.000000 0.000000 0.000000
# 4 0.000000 0.000000 0.000000 0.033122 0.000000 0.000000
# 5 0.000000 0.000000 0.000000 0.000000 0.111273 0.000000
# 6 0.000000 0.000000 0.000000 0.000000 0.000000 0.076587
#
#
# Mechanical properties :
#
#
# Convention : Reuss Voigt Hill
#
# Bulk Modulus (GPa) = 44.58920 45.46167 45.02543
# Shear Modulus (GPa) = 17.34303 23.17178 20.25740
#
# Velocity S-wave (km/s) = 2.92716 3.38349 3.16356
# Velocity P-wave (km/s) = 5.78391 6.14201 5.96565
#
# Compressibility (1/GPa) = 0.02242696
#
# Stress axis : x y z
#
# Youngs Moduli (GPa) = 69.31583 84.29231 67.36400
#
# Poissons Ratio (x) = -0.01684 0.35076
# Poissons Ratio (y) = -0.01385 0.29282
# Poissons Ratio (z) = 0.36092 0.36641
#
# Static dielectric constant tensor:
#      x y z
#    x 3.315830 0.000000 0.000000 
#    y 0.000000 7.701360 0.000000 
#    z 0.000000 0.000000 3.365390 
# 
# 
# High freq. dielectric constant tensor:
#      x y z
#    x 1.748360 0.000000 0.000000 
#    y 0.000000 1.812670 0.000000 
#    z 0.000000 0.000000 1.784290 
# 
# From -- ./inp_files/57621.got.cif
#   From: 2010.03.12/outbox.cif.g09.slc.cpg/sg63_29_cif.got.tgz:57621.got - 2010.04.10 19:34:48.
