data_PCOD8260492
_publ_section_title
;
Structure prediction by ZEFSAII (Michael W. Deem and Ramdas Pophale) SiO2 
 PCOD8260492
Probable space group: C M C M
;
_chemical_formula_sum "Si O2"
_cell_formula_units_Z 96
_cell_length_a 15.948217
_cell_length_b 16.237617
_cell_length_c 18.475574
_cell_angle_alpha 90.000000
_cell_angle_beta 90.000000
_cell_angle_gamma 90.000000
_cell_volume 4784.453848
_symmetry_space_group_name_H-M "C M C M"
_symmetry_group_IT_number 63
_symmetry_cell_setting 'orthorhombic'
loop_
_space_group_symop_operation_xyz
x,y,z
-x,-y,1/2+z
x,-y,-z
-x,y,1/2-z
-x,-y,-z
x,y,1/2-z
-x,y,z
x,-y,1/2+z
1/2+x,1/2+y,z
1/2-x,1/2-y,1/2+z
1/2+x,1/2-y,-z
1/2-x,1/2+y,1/2-z
1/2-x,1/2-y,-z
1/2+x,1/2+y,1/2-z
1/2-x,1/2+y,z
1/2+x,1/2-y,1/2+z
loop_
_atom_site_type_symbol
_atom_site_label
_atom_site_fract_x
_atom_site_fract_y
_atom_site_fract_z
Si Si1 0.814949 0.373432 0.333969
Si Si2 0.500000 0.580959 0.336172
Si Si3 0.401487 0.043583 0.167704
Si Si4 0.791302 0.661185 0.079188
Si Si5 0.322775 0.653759 0.554733
Si Si6 0.358486 0.301815 0.833315
Si Si7 0.500000 0.565177 0.937260
O O1 0.791074 0.363190 0.250000
O O2 0.873292 0.450897 0.348523
O O3 0.726962 0.381215 0.375981
O O4 0.866967 0.292758 0.361793
O O5 0.500000 0.575080 0.250000
O O6 0.578013 0.633065 0.369394
O O7 0.500000 0.486985 0.363014
O O8 0.374926 0.069190 0.250000
O O9 0.500000 0.048896 0.159441
O O10 0.363921 0.099531 0.103810
O O11 0.831655 0.747339 0.054650
O O12 0.735979 0.670644 0.151425
O O13 0.730651 0.625890 0.015945
O O14 0.416815 0.620008 0.556547
O O15 0.379750 0.303822 0.750000
O O16 0.500000 0.500000 0.000000
#
# Coordination Sequence:
#
# PCOD8260492 Si02
#       7
#    16   8  16  16  16  16   8
#     4   9  20  38  61  88 120 156 201 252 302 354
#     4  10  22  36  58  91 120 157 206 251 298 357
#     4  10  22  38  64  95 121 153 194 246 304 358
#     4  10  21  41  62  86 118 156 202 245 298 375
#     4  10  24  41  62  86 117 162 202 246 304 359
#     4   9  18  35  59  84 116 157 199 248 300 351
#     4  12  26  40  60  87 122 158 198 253 302 356
#
# _framework density 20.064986000000001
#
# number of rings (size 3 to 8) (size 9 to 14) (size 15 to 20)
#    0.000    2.167    0.000    1.500    7.000    1.333 
#    0.000    1.667    0.000    0.000    0.000    0.000 
#    0.000    0.000    0.000    0.000    0.000    0.000 
#
# Total GULP energy -594912.449038 kJ/mol
# GULP energy per Si atom -12394.009355 kJ/mol
# Density = 2.001932 g / cm^3
# Si number density = 20.064986 Si / 1000 Ang^3
#
#
#
# Elastic Constant Matrix: (Units=GPa)
#
#
# Indices 1 2 3 4 5 6 
#
# 1 136.5473 76.1090 51.5726 0.0000 0.0000 0.0000
# 2 76.1090 106.8881 49.9303 0.0000 0.0000 0.0000
# 3 51.5726 49.9303 71.9505 0.0000 0.0000 0.0000
# 4 0.0000 0.0000 0.0000 30.5220 0.0000 0.0000
# 5 0.0000 0.0000 0.0000 0.0000 29.8532 0.0000
# 6 0.0000 0.0000 0.0000 0.0000 0.0000 38.4786
#
#
#
# Elastic Compliance Matrix: (Units=1/GPa)
#
#
# Indices 1 2 3 4 5 6 
#
# 1 0.012974 -0.007241 -0.004274 0.000000 0.000000 0.000000
# 2 -0.007241 0.017885 -0.007221 0.000000 0.000000 0.000000
# 3 -0.004274 -0.007221 0.021973 0.000000 0.000000 0.000000
# 4 0.000000 0.000000 0.000000 0.032763 0.000000 0.000000
# 5 0.000000 0.000000 0.000000 0.000000 0.033497 0.000000
# 6 0.000000 0.000000 0.000000 0.000000 0.000000 0.025988
#
#
# Mechanical properties :
#
#
# Convention : Reuss Voigt Hill
#
# Bulk Modulus (GPa) = 65.10862 74.51219 69.81041
# Shear Modulus (GPa) = 26.64201 28.95570 27.79885
#
# Velocity S-wave (km/s) = 3.64783 3.80293 3.72619
# Velocity P-wave (km/s) = 7.08954 7.51659 7.30618
#
# Compressibility (1/GPa) = 0.01535895
#
# Stress axis : x y z
#
# Youngs Moduli (GPa) = 77.07656 55.91333 45.51040
#
# Poissons Ratio (x) = 0.40490 0.19453
# Poissons Ratio (y) = 0.55815 0.32862
# Poissons Ratio (z) = 0.32945 0.40373
#
# Static dielectric constant tensor:
#      x y z
#    x 3.598980 0.000000 0.000000 
#    y 0.000000 3.921000 0.000000 
#    z 0.000000 0.000000 3.765400 
# 
# 
# High freq. dielectric constant tensor:
#      x y z
#    x 1.777450 0.000000 0.000000 
#    y 0.000000 1.786990 0.000000 
#    z 0.000000 0.000000 1.784080 
# 
# From -- ./inp_files/54250.got.cif
#   From: 2010.03.12/outbox.cif.g09.slc.cpg/sg63_28_cif.got.tgz:54250.got - 2010.04.10 19:34:48.
