data_PCOD8260719
_publ_section_title
;
Structure prediction by ZEFSAII (Michael W. Deem and Ramdas Pophale) SiO2 
 PCOD8260719
Probable space group: C M C M
;
_chemical_formula_sum "Si O2"
_cell_formula_units_Z 64
_cell_length_a 8.800563
_cell_length_b 20.220129
_cell_length_c 17.496311
_cell_angle_alpha 90.000000
_cell_angle_beta 90.000000
_cell_angle_gamma 90.000000
_cell_volume 3113.442633
_symmetry_space_group_name_H-M "C M C M"
_symmetry_group_IT_number 63
_symmetry_cell_setting 'orthorhombic'
loop_
_space_group_symop_operation_xyz
x,y,z
-x,-y,1/2+z
x,-y,-z
-x,y,1/2-z
-x,-y,-z
x,y,1/2-z
-x,y,z
x,-y,1/2+z
1/2+x,1/2+y,z
1/2-x,1/2-y,1/2+z
1/2+x,1/2-y,-z
1/2-x,1/2+y,1/2-z
1/2-x,1/2-y,-z
1/2+x,1/2+y,1/2-z
1/2-x,1/2+y,z
1/2+x,1/2-y,1/2+z
loop_
_atom_site_type_symbol
_atom_site_label
_atom_site_fract_x
_atom_site_fract_y
_atom_site_fract_z
Si Si1 0.821447 0.128714 0.432822
Si Si2 0.674461 0.016164 0.338298
Si Si3 0.175515 0.254787 0.662269
Si Si4 0.677298 0.872778 0.401552
O O1 0.783052 0.061949 0.388035
O O2 0.756224 0.192074 0.390429
O O3 0.752772 0.124600 0.516323
O O4 0.000000 0.136826 0.439328
O O5 0.710288 0.029041 0.250000
O O6 0.500000 0.034083 0.357516
O O7 0.709548 0.940610 0.357621
O O8 0.195578 0.276422 0.750000
O O9 0.250534 0.183796 0.650371
O O10 0.000000 0.251043 0.638863
O O11 0.500000 0.858955 0.411635
#
# Coordination Sequence:
#
# PCOD8260719 Si02
#       4
#    16  16  16  16
#     4  12  25  40  61  90 124 161 203 250 299 354
#     4  10  22  41  64  90 121 158 200 247 301 360
#     4  11  24  42  64  90 122 159 200 249 303 359
#     4  11  23  41  65  91 122 160 202 248 300 359
#
# _framework density 20.556025000000002
#
# number of rings (size 3 to 8) (size 9 to 14) (size 15 to 20)
#    0.000    1.000    0.000    6.750    0.000   11.500 
#    0.000    0.000    0.000    0.000    0.000    0.000 
#    0.000    0.000    0.000    0.000    0.000    0.000 
#
# Total GULP energy -397046.217181 kJ/mol
# GULP energy per Si atom -12407.694287 kJ/mol
# Density = 2.050924 g / cm^3
# Si number density = 20.556025 Si / 1000 Ang^3
#
#
#
# Elastic Constant Matrix: (Units=GPa)
#
#
# Indices 1 2 3 4 5 6 
#
# 1 138.7124 42.8031 33.4262 0.0000 0.0000 0.0000
# 2 42.8031 70.9654 4.0950 0.0000 0.0000 0.0000
# 3 33.4262 4.0950 71.9915 0.0000 0.0000 0.0000
# 4 0.0000 0.0000 0.0000 39.5770 0.0000 0.0000
# 5 0.0000 0.0000 0.0000 0.0000 32.0214 0.0000
# 6 0.0000 0.0000 0.0000 0.0000 0.0000 37.1286
#
#
#
# Elastic Compliance Matrix: (Units=1/GPa)
#
#
# Indices 1 2 3 4 5 6 
#
# 1 0.010046 -0.005809 -0.004334 0.000000 0.000000 0.000000
# 2 -0.005809 0.017497 0.001702 0.000000 0.000000 0.000000
# 3 -0.004334 0.001702 0.015806 0.000000 0.000000 0.000000
# 4 0.000000 0.000000 0.000000 0.025267 0.000000 0.000000
# 5 0.000000 0.000000 0.000000 0.000000 0.031229 0.000000
# 6 0.000000 0.000000 0.000000 0.000000 0.000000 0.026933
#
#
# Mechanical properties :
#
#
# Convention : Reuss Voigt Hill
#
# Bulk Modulus (GPa) = 37.78345 49.14645 43.46495
# Shear Modulus (GPa) = 32.79036 35.16840 33.97938
#
# Velocity S-wave (km/s) = 3.99829 4.14074 4.07014
# Velocity P-wave (km/s) = 6.30363 6.84261 6.57864
#
# Compressibility (1/GPa) = 0.02646662
#
# Stress axis : x y z
#
# Youngs Moduli (GPa) = 99.54055 57.15248 63.26687
#
# Poissons Ratio (x) = 0.33202 0.27420
# Poissons Ratio (y) = 0.57826 -0.10768
# Poissons Ratio (z) = 0.43142 -0.09727
#
# Static dielectric constant tensor:
#      x y z
#    x 3.896840 0.000000 0.000000 
#    y 0.000000 3.894090 0.000000 
#    z 0.000000 0.000000 3.845800 
# 
# 
# High freq. dielectric constant tensor:
#      x y z
#    x 1.812600 0.000000 0.000000 
#    y 0.000000 1.821660 0.000000 
#    z 0.000000 0.000000 1.821820 
# 
# From -- ./inp_files/39826.got.cif
#   From: 2010.03.12/outbox.cif.g09.slc.cpg/sg63_20_cif.got.tgz:39826.got - 2010.04.10 19:34:48.
