data_PCOD8260494
_publ_section_title
;
Structure prediction by ZEFSAII (Michael W. Deem and Ramdas Pophale) SiO2 
 PCOD8260494
Probable space group: C M C M
;
_chemical_formula_sum "Si O2"
_cell_formula_units_Z 96
_cell_length_a 16.000943
_cell_length_b 16.245486
_cell_length_c 19.007644
_cell_angle_alpha 90.000000
_cell_angle_beta 90.000000
_cell_angle_gamma 90.000000
_cell_volume 4940.905819
_symmetry_space_group_name_H-M "C M C M"
_symmetry_group_IT_number 63
_symmetry_cell_setting 'orthorhombic'
loop_
_space_group_symop_operation_xyz
x,y,z
-x,-y,1/2+z
x,-y,-z
-x,y,1/2-z
-x,-y,-z
x,y,1/2-z
-x,y,z
x,-y,1/2+z
1/2+x,1/2+y,z
1/2-x,1/2-y,1/2+z
1/2+x,1/2-y,-z
1/2-x,1/2+y,1/2-z
1/2-x,1/2-y,-z
1/2+x,1/2+y,1/2-z
1/2-x,1/2+y,z
1/2+x,1/2-y,1/2+z
loop_
_atom_site_type_symbol
_atom_site_label
_atom_site_fract_x
_atom_site_fract_y
_atom_site_fract_z
Si Si1 0.811250 0.377460 0.331802
Si Si2 0.500000 0.586557 0.333805
Si Si3 0.406333 0.016100 0.082240
Si Si4 0.791541 0.661706 0.065070
Si Si5 0.324813 0.654613 0.559968
Si Si6 0.349157 0.303462 0.830481
Si Si7 0.500000 0.560659 0.935325
O O1 0.799235 0.400985 0.250000
O O2 0.858181 0.448265 0.373189
O O3 0.719133 0.364230 0.365295
O O4 0.866597 0.294206 0.340103
O O5 0.500000 0.578993 0.250000
O O6 0.577669 0.640173 0.362347
O O7 0.500000 0.494627 0.364875
O O8 0.500000 0.019475 0.111812
O O9 0.364788 0.104156 0.092627
O O10 0.404856 0.000000 0.000000
O O11 0.833488 0.748219 0.042660
O O12 0.735737 0.673369 0.132876
O O13 0.736658 0.620696 0.001891
O O14 0.416880 0.615980 0.560661
O O15 0.337182 0.326341 0.750000
O O16 0.500000 0.500000 0.000000
#
# Coordination Sequence:
#
# PCOD8260494 Si02
#       7
#    16   8  16  16  16  16   8
#     4  10  22  41  65  89 121 163 207 254 305 361
#     4  10  22  38  60  91 125 159 199 253 306 357
#     4  11  24  39  61  94 127 158 203 257 309 363
#     4  10  21  41  64  86 122 162 202 249 306 374
#     4  10  23  41  62  90 121 163 203 248 308 367
#     4   9  20  38  61  90 121 160 206 251 303 362
#     4  12  26  38  60  93 125 156 205 253 296 366
#
# _framework density 19.429635000000001
#
# number of rings (size 3 to 8) (size 9 to 14) (size 15 to 20)
#    0.000    1.833    1.667    1.000    7.000    1.667 
#    0.000    0.000    0.000    0.000    0.000    0.000 
#    0.000    0.000    0.000    0.000    0.000    0.000 
#
# Total GULP energy -595085.665356 kJ/mol
# GULP energy per Si atom -12397.618028 kJ/mol
# Density = 1.938541 g / cm^3
# Si number density = 19.429635 Si / 1000 Ang^3
#
#
#
# Elastic Constant Matrix: (Units=GPa)
#
#
# Indices 1 2 3 4 5 6 
#
# 1 131.2841 74.9681 39.9082 0.0000 0.0000 0.0000
# 2 74.9681 108.8785 39.7685 0.0000 0.0000 0.0000
# 3 39.9082 39.7685 83.6369 0.0000 0.0000 0.0000
# 4 0.0000 0.0000 0.0000 34.6769 0.0000 0.0000
# 5 0.0000 0.0000 0.0000 0.0000 22.0294 0.0000
# 6 0.0000 0.0000 0.0000 0.0000 0.0000 39.8767
#
#
#
# Elastic Compliance Matrix: (Units=1/GPa)
#
#
# Indices 1 2 3 4 5 6 
#
# 1 0.012921 -0.008041 -0.002342 0.000000 0.000000 0.000000
# 2 -0.008041 0.016119 -0.003828 0.000000 0.000000 0.000000
# 3 -0.002342 -0.003828 0.014894 0.000000 0.000000 0.000000
# 4 0.000000 0.000000 0.000000 0.028838 0.000000 0.000000
# 5 0.000000 0.000000 0.000000 0.000000 0.045394 0.000000
# 6 0.000000 0.000000 0.000000 0.000000 0.000000 0.025077
#
#
# Mechanical properties :
#
#
# Convention : Reuss Voigt Hill
#
# Bulk Modulus (GPa) = 64.46318 70.34324 67.40321
# Shear Modulus (GPa) = 28.27493 30.59359 29.43426
#
# Velocity S-wave (km/s) = 3.81891 3.97241 3.89641
# Velocity P-wave (km/s) = 7.25915 7.57118 7.41680
#
# Compressibility (1/GPa) = 0.01551273
#
# Stress axis : x y z
#
# Youngs Moduli (GPa) = 77.39474 62.03699 67.14185
#
# Poissons Ratio (x) = 0.49885 0.15723
# Poissons Ratio (y) = 0.62235 0.25700
# Poissons Ratio (z) = 0.18124 0.23746
#
# Static dielectric constant tensor:
#      x y z
#    x 3.631160 0.000000 0.000000 
#    y 0.000000 3.806850 0.000000 
#    z 0.000000 0.000000 3.634910 
# 
# 
# High freq. dielectric constant tensor:
#      x y z
#    x 1.751940 0.000000 0.000000 
#    y 0.000000 1.761660 0.000000 
#    z 0.000000 0.000000 1.760660 
# 
# From -- ./inp_files/54251.got.cif
#   From: 2010.03.12/outbox.cif.g09.slc.cpg/sg63_28_cif.got.tgz:54251.got - 2010.04.10 19:34:48.
