data_PCOD8260738
_publ_section_title
;
Structure prediction by ZEFSAII (Michael W. Deem and Ramdas Pophale) SiO2 
 PCOD8260738
Probable space group: C M C M
;
_chemical_formula_sum "Si O2"
_cell_formula_units_Z 72
_cell_length_a 17.511581
_cell_length_b 22.969584
_cell_length_c 8.671789
_cell_angle_alpha 90.000000
_cell_angle_beta 90.000000
_cell_angle_gamma 90.000000
_cell_volume 3488.086042
_symmetry_space_group_name_H-M "C M C M"
_symmetry_group_IT_number 63
_symmetry_cell_setting 'orthorhombic'
loop_
_space_group_symop_operation_xyz
x,y,z
-x,-y,1/2+z
x,-y,-z
-x,y,1/2-z
-x,-y,-z
x,y,1/2-z
-x,y,z
x,-y,1/2+z
1/2+x,1/2+y,z
1/2-x,1/2-y,1/2+z
1/2+x,1/2-y,-z
1/2-x,1/2+y,1/2-z
1/2-x,1/2-y,-z
1/2+x,1/2+y,1/2-z
1/2-x,1/2+y,z
1/2+x,1/2-y,1/2+z
loop_
_atom_site_type_symbol
_atom_site_label
_atom_site_fract_x
_atom_site_fract_y
_atom_site_fract_z
Si Si1 0.500000 0.563809 0.931546
Si Si2 0.723883 0.937755 0.068542
Si Si3 0.588033 0.756520 0.425810
Si Si4 0.587993 0.123912 0.071122
Si Si5 0.358609 0.368428 0.931243
O O1 0.500000 0.558652 0.750000
O O2 0.500000 0.500000 0.000000
O O3 0.424686 0.597134 0.983069
O O4 0.736661 0.938945 0.250000
O O5 0.636704 0.921785 0.027995
O O6 0.776901 0.889352 0.990459
O O7 0.746131 0.000000 0.000000
O O8 0.602990 0.775762 0.250000
O O9 0.500000 0.739471 0.451059
O O10 0.612656 0.809873 0.534315
O O11 0.637175 0.700070 0.470842
O O12 0.602508 0.111546 0.250000
O O13 0.500000 0.114298 0.024453
O O14 0.367940 0.379244 0.750000
#
# Coordination Sequence:
#
# PCOD8260738 Si02
#       5
#     8  16  16  16  16
#     4  12  24  38  58  86 122 166 215 256 301 362
#     4  12  26  44  64  89 122 162 206 257 311 369
#     4   9  18  36  62  92 125 162 203 250 303 359
#     4  10  22  41  66  95 124 158 201 253 309 369
#     4  11  22  40  63  90 125 165 207 255 306 360
#
# _framework density 20.641691000000002
#
# number of rings (size 3 to 8) (size 9 to 14) (size 15 to 20)
#    0.000    1.333    1.111    5.000    0.000    4.444 
#    0.000    0.000    0.000    0.000    0.000    0.000 
#    0.000    0.000    0.000    0.000    0.000    0.000 
#
# Total GULP energy -446630.760908 kJ/mol
# GULP energy per Si atom -12406.410025 kJ/mol
# Density = 2.059471 g / cm^3
# Si number density = 20.641691 Si / 1000 Ang^3
#
#
#
# Elastic Constant Matrix: (Units=GPa)
#
#
# Indices 1 2 3 4 5 6 
#
# 1 74.0137 18.4655 17.3654 0.0000 0.0000 0.0000
# 2 18.4655 55.6934 20.8301 0.0000 0.0000 0.0000
# 3 17.3654 20.8301 99.5330 0.0000 0.0000 0.0000
# 4 0.0000 0.0000 0.0000 37.2848 0.0000 0.0000
# 5 0.0000 0.0000 0.0000 0.0000 36.0970 0.0000
# 6 0.0000 0.0000 0.0000 0.0000 0.0000 33.1474
#
#
#
# Elastic Compliance Matrix: (Units=1/GPa)
#
#
# Indices 1 2 3 4 5 6 
#
# 1 0.014993 -0.004332 -0.001709 0.000000 0.000000 0.000000
# 2 -0.004332 0.020732 -0.003583 0.000000 0.000000 0.000000
# 3 -0.001709 -0.003583 0.011095 0.000000 0.000000 0.000000
# 4 0.000000 0.000000 0.000000 0.026821 0.000000 0.000000
# 5 0.000000 0.000000 0.000000 0.000000 0.027703 0.000000
# 6 0.000000 0.000000 0.000000 0.000000 0.000000 0.030168
#
#
# Mechanical properties :
#
#
# Convention : Reuss Voigt Hill
#
# Bulk Modulus (GPa) = 36.26906 38.06244 37.16575
# Shear Modulus (GPa) = 31.25984 32.81113 32.03548
#
# Velocity S-wave (km/s) = 3.89575 3.99125 3.94379
# Velocity P-wave (km/s) = 6.15181 6.30236 6.22754
#
# Compressibility (1/GPa) = 0.02757171
#
# Stress axis : x y z
#
# Youngs Moduli (GPa) = 66.69899 48.23527 90.13101
#
# Poissons Ratio (x) = 0.20894 0.15406
# Poissons Ratio (y) = 0.28892 0.32294
# Poissons Ratio (z) = 0.11400 0.17282
#
# Static dielectric constant tensor:
#      x y z
#    x 3.739560 0.000000 0.000000 
#    y 0.000000 3.770770 0.000000 
#    z 0.000000 0.000000 3.769150 
# 
# 
# High freq. dielectric constant tensor:
#      x y z
#    x 1.806710 0.000000 0.000000 
#    y 0.000000 1.814440 0.000000 
#    z 0.000000 0.000000 1.815120 
# 
# From -- ./inp_files/6142.got.cif
#   From: 2010.03.12/outbox.cif.g09.slc.cpg/sg63_4_cif.got.tgz:6142.got - 2010.04.10 19:34:48.
