data_PCOD8260582
_publ_section_title
;
Structure prediction by ZEFSAII (Michael W. Deem and Ramdas Pophale) SiO2 
 PCOD8260582
Probable space group: C M C M
;
_chemical_formula_sum "Si O2"
_cell_formula_units_Z 56
_cell_length_a 10.528108
_cell_length_b 26.016457
_cell_length_c 9.898664
_cell_angle_alpha 90.000000
_cell_angle_beta 90.000000
_cell_angle_gamma 90.000000
_cell_volume 2711.284348
_symmetry_space_group_name_H-M "C M C M"
_symmetry_group_IT_number 63
_symmetry_cell_setting 'orthorhombic'
loop_
_space_group_symop_operation_xyz
x,y,z
-x,-y,1/2+z
x,-y,-z
-x,y,1/2-z
-x,-y,-z
x,y,1/2-z
-x,y,z
x,-y,1/2+z
1/2+x,1/2+y,z
1/2-x,1/2-y,1/2+z
1/2+x,1/2-y,-z
1/2-x,1/2+y,1/2-z
1/2-x,1/2-y,-z
1/2+x,1/2+y,1/2-z
1/2-x,1/2+y,z
1/2+x,1/2-y,1/2+z
loop_
_atom_site_type_symbol
_atom_site_label
_atom_site_fract_x
_atom_site_fract_y
_atom_site_fract_z
Si Si1 0.646166 0.961443 0.604531
Si Si2 0.500000 0.552909 0.589469
Si Si3 0.354054 0.695532 0.250000
Si Si4 0.346654 0.189370 0.750000
Si Si5 0.274318 0.370756 0.495650
O O1 0.713839 0.969001 0.750000
O O2 0.500000 0.976338 0.618586
O O3 0.657695 0.903232 0.555909
O O4 0.714882 0.000000 0.500000
O O5 0.500000 0.500000 0.500000
O O6 0.500000 0.539467 0.750000
O O7 0.379842 0.588812 0.553836
O O8 0.500000 0.707022 0.250000
O O9 0.293397 0.752378 0.250000
O O10 0.322264 0.665633 0.385897
O O11 0.500000 0.183392 0.750000
O O12 0.283742 0.163212 0.621365
#
# Coordination Sequence:
#
# PCOD8260582 Si02
#       5
#    16   8   8   8  16
#     4  10  22  38  60  91 127 168 214 262 326 394
#     4  12  28  44  70 106 138 184 228 278 353 428
#     4  11  24  44  70 100 132 179 228 290 350 411
#     4  11  26  45  69  99 133 181 237 285 347 402
#     4  12  23  44  69  95 138 174 223 283 341 412
#
# _framework density 20.654419000000001
#
# number of rings (size 3 to 8) (size 9 to 14) (size 15 to 20)
#    0.000    0.857    4.286    2.571    4.000    2.286 
#    0.000    0.000    3.143    0.000    0.000    0.000 
#    0.000    0.000    0.000    0.000    0.000    0.000 
#
# Total GULP energy -346998.359821 kJ/mol
# GULP energy per Si atom -12392.798565 kJ/mol
# Density = 2.060741 g / cm^3
# Si number density = 20.654419 Si / 1000 Ang^3
#
#
#
# Elastic Constant Matrix: (Units=GPa)
#
#
# Indices 1 2 3 4 5 6 
#
# 1 59.0379 42.4261 35.2608 0.0000 0.0000 0.0000
# 2 42.4261 178.3561 105.0304 0.0000 0.0000 0.0000
# 3 35.2608 105.0304 212.6703 0.0000 0.0000 0.0000
# 4 0.0000 0.0000 0.0000 101.7689 0.0000 0.0000
# 5 0.0000 0.0000 0.0000 0.0000 -25.4908 0.0000
# 6 0.0000 0.0000 0.0000 0.0000 0.0000 22.5132
#
#
#
# Elastic Compliance Matrix: (Units=1/GPa)
#
#
# Indices 1 2 3 4 5 6 
#
# 1 0.020727 -0.004099 -0.001412 0.000000 0.000000 0.000000
# 2 -0.004099 0.008717 -0.003625 0.000000 0.000000 0.000000
# 3 -0.001412 -0.003625 0.006727 0.000000 0.000000 0.000000
# 4 0.000000 0.000000 0.000000 0.009826 0.000000 0.000000
# 5 0.000000 0.000000 0.000000 0.000000 -0.039230 0.000000
# 6 0.000000 0.000000 0.000000 0.000000 0.000000 0.044418
#
#
# Mechanical properties :
#
#
# Convention : Reuss Voigt Hill
#
# Bulk Modulus (GPa) = 55.87271 90.61098 73.24185
# Shear Modulus (GPa) = 66.29206 37.58140 51.93673
#
# Velocity S-wave (km/s) = 5.67146 4.27023 5.01998
# Velocity P-wave (km/s) = 8.36644 8.26307 8.31492
#
# Compressibility (1/GPa) = 0.01789783
#
# Stress axis : x y z
#
# Youngs Moduli (GPa) = 48.24559 114.72390 148.66216
#
# Poissons Ratio (x) = 0.47023 0.20996
# Poissons Ratio (y) = 0.19775 0.53894
# Poissons Ratio (z) = 0.06814 0.41590
#
# Static dielectric constant tensor:
#      x y z
#    x 3.682400 0.000000 0.000000 
#    y 0.000000 3.977110 0.000000 
#    z 0.000000 0.000000 4.239790 
# 
# 
# High freq. dielectric constant tensor:
#      x y z
#    x 1.804220 0.000000 0.000000 
#    y 0.000000 1.822980 0.000000 
#    z 0.000000 0.000000 1.832980 
# 
# From -- ./inp_files/2866.got.cif
#   From: 2010.03.12/outbox.cif.g09.slc.cpg/sg63_2_cif.got.tgz:2866.got - 2010.04.10 19:34:48.
