data_PCOD8260034
_publ_section_title
;
Structure prediction by ZEFSAII (Michael W. Deem and Ramdas Pophale) SiO2 
 PCOD8260034
Probable space group: C M C M
;
_chemical_formula_sum "Si O2"
_cell_formula_units_Z 96
_cell_length_a 24.419418
_cell_length_b 9.336230
_cell_length_c 22.406562
_cell_angle_alpha 90.000000
_cell_angle_beta 90.000000
_cell_angle_gamma 90.000000
_cell_volume 5108.366825
_symmetry_space_group_name_H-M "C M C M"
_symmetry_group_IT_number 63
_symmetry_cell_setting 'orthorhombic'
loop_
_space_group_symop_operation_xyz
x,y,z
-x,-y,1/2+z
x,-y,-z
-x,y,1/2-z
-x,-y,-z
x,y,1/2-z
-x,y,z
x,-y,1/2+z
1/2+x,1/2+y,z
1/2-x,1/2-y,1/2+z
1/2+x,1/2-y,-z
1/2-x,1/2+y,1/2-z
1/2-x,1/2-y,-z
1/2+x,1/2+y,1/2-z
1/2-x,1/2+y,z
1/2+x,1/2-y,1/2+z
loop_
_atom_site_type_symbol
_atom_site_label
_atom_site_fract_x
_atom_site_fract_y
_atom_site_fract_z
Si Si1 0.786537 0.470047 0.430481
Si Si2 0.709088 0.360154 0.750000
Si Si3 0.815464 0.808897 0.250000
Si Si4 0.435909 0.038680 0.680234
Si Si5 0.860792 0.305990 0.868060
Si Si6 0.853194 0.237879 0.364880
Si Si7 0.157676 0.964319 0.432506
O O1 0.798453 0.500000 0.500000
O O2 0.809565 0.595624 0.388035
O O3 0.816267 0.322295 0.413284
O O4 0.722302 0.455579 0.417416
O O5 0.771779 0.317390 0.750000
O O6 0.708301 0.531556 0.750000
O O7 0.681897 0.287758 0.806567
O O8 0.850752 0.786816 0.191000
O O9 0.421014 0.021091 0.750000
O O10 0.500000 0.052508 0.669817
O O11 0.408333 0.180039 0.653187
O O12 0.414235 0.902242 0.643115
O O13 0.871173 0.187956 0.919272
O O14 0.870721 0.087227 0.393202
O O15 0.146170 0.000000 0.500000
#
# Coordination Sequence:
#
# PCOD8260034 Si02
#       7
#    16   8   8  16  16  16  16
#     4  10  21  36  55  83 121 164 198 221 263 340
#     4  12  24  34  54  87 127 159 181 224 282 343
#     4  12  24  34  54  87 127 159 181 224 282 343
#     4  10  22  42  63  82 108 145 194 242 294 349
#     4  11  22  36  57  85 116 151 194 237 282 337
#     4  11  22  36  57  85 116 151 194 237 282 337
#     4  11  21  36  57  84 120 158 190 228 276 337
#
# _framework density 18.792698999999999
#
# number of rings (size 3 to 8) (size 9 to 14) (size 15 to 20)
#    0.000    1.167    3.333    4.000    4.667    2.667 
#    0.000    0.833    0.000   22.000    0.000    0.000 
#    0.000    0.000    0.000    0.000    0.000    0.000 
#
# Total GULP energy -595319.047636 kJ/mol
# GULP energy per Si atom -12402.480159 kJ/mol
# Density = 1.874993 g / cm^3
# Si number density = 18.792699 Si / 1000 Ang^3
#
#
#
# Elastic Constant Matrix: (Units=GPa)
#
#
# Indices 1 2 3 4 5 6 
#
# 1 71.0351 33.4940 30.8112 0.0000 0.0000 0.0000
# 2 33.4940 97.7672 12.9280 0.0000 0.0000 0.0000
# 3 30.8112 12.9280 78.0794 0.0000 0.0000 0.0000
# 4 0.0000 0.0000 0.0000 38.2785 0.0000 0.0000
# 5 0.0000 0.0000 0.0000 0.0000 22.4643 0.0000
# 6 0.0000 0.0000 0.0000 0.0000 0.0000 15.8847
#
#
#
# Elastic Compliance Matrix: (Units=1/GPa)
#
#
# Indices 1 2 3 4 5 6 
#
# 1 0.019823 -0.005886 -0.006848 0.000000 0.000000 0.000000
# 2 -0.005886 0.012205 0.000302 0.000000 0.000000 0.000000
# 3 -0.006848 0.000302 0.015460 0.000000 0.000000 0.000000
# 4 0.000000 0.000000 0.000000 0.026124 0.000000 0.000000
# 5 0.000000 0.000000 0.000000 0.000000 0.044515 0.000000
# 6 0.000000 0.000000 0.000000 0.000000 0.000000 0.062954
#
#
# Mechanical properties :
#
#
# Convention : Reuss Voigt Hill
#
# Bulk Modulus (GPa) = 44.20084 44.59423 44.39754
# Shear Modulus (GPa) = 23.42078 26.63540 25.02809
#
# Velocity S-wave (km/s) = 3.53408 3.76882 3.65334
# Velocity P-wave (km/s) = 6.34226 6.53604 6.43988
#
# Compressibility (1/GPa) = 0.02262400
#
# Stress axis : x y z
#
# Youngs Moduli (GPa) = 50.44655 81.93477 64.68390
#
# Poissons Ratio (x) = 0.48224 0.44295
# Poissons Ratio (y) = 0.29691 -0.01952
# Poissons Ratio (z) = 0.34545 -0.02472
#
# Static dielectric constant tensor:
#      x y z
#    x 3.029680 0.000000 0.000000 
#    y 0.000000 3.683220 0.000000 
#    z 0.000000 0.000000 2.375950 
# 
# 
# High freq. dielectric constant tensor:
#      x y z
#    x 1.681770 0.000000 0.000000 
#    y 0.000000 1.750500 0.000000 
#    z 0.000000 0.000000 1.748600 
# 
# From -- ./inp_files/58073.got.cif
#   From: 2010.03.12/outbox.cif.g09.slc.cpg/sg63_30_cif.got.tgz:58073.got - 2010.04.10 19:34:48.
