data_PCOD8260018
_publ_section_title
;
Structure prediction by ZEFSAII (Michael W. Deem and Ramdas Pophale) SiO2 
 PCOD8260018
Probable space group: C M C M
;
_chemical_formula_sum "Si O2"
_cell_formula_units_Z 64
_cell_length_a 9.229599
_cell_length_b 40.967787
_cell_length_c 9.064224
_cell_angle_alpha 90.000000
_cell_angle_beta 90.000000
_cell_angle_gamma 90.000000
_cell_volume 3427.330351
_symmetry_space_group_name_H-M "C M C M"
_symmetry_group_IT_number 63
_symmetry_cell_setting 'orthorhombic'
loop_
_space_group_symop_operation_xyz
x,y,z
-x,-y,1/2+z
x,-y,-z
-x,y,1/2-z
-x,-y,-z
x,y,1/2-z
-x,y,z
x,-y,1/2+z
1/2+x,1/2+y,z
1/2-x,1/2-y,1/2+z
1/2+x,1/2-y,-z
1/2-x,1/2+y,1/2-z
1/2-x,1/2-y,-z
1/2+x,1/2+y,1/2-z
1/2-x,1/2+y,z
1/2+x,1/2-y,1/2+z
loop_
_atom_site_type_symbol
_atom_site_label
_atom_site_fract_x
_atom_site_fract_y
_atom_site_fract_z
Si Si1 0.167414 0.343513 0.079330
Si Si2 0.329696 0.090791 0.080727
Si Si3 0.666274 0.720913 0.576286
Si Si4 0.330860 0.532839 0.578747
O O1 0.195731 0.352028 0.250000
O O2 0.262986 0.313112 0.026102
O O3 0.000000 0.334652 0.051358
O O4 0.217235 0.374221 0.982745
O O5 0.280161 0.088686 0.250000
O O6 0.500000 0.085661 0.062849
O O7 0.251915 0.063260 0.987665
O O8 0.681573 0.725533 0.750000
O O9 0.500000 0.721135 0.524935
O O10 0.750000 0.750000 0.500000
O O11 0.276053 0.500000 0.500000
O O12 0.293094 0.529733 0.750000
O O13 0.500000 0.538285 0.550476
#
# Coordination Sequence:
#
# PCOD8260018 Si02
#       4
#    16  16  16  16
#     4   9  18  34  54  75 104 142 180 219 264 314
#     4  10  21  36  55  81 111 142 177 218 265 317
#     4  10  21  36  55  80 109 141 178 220 266 317
#     4  10  21  37  57  80 107 141 180 222 268 317
#
# _framework density 18.673425999999999
#
# number of rings (size 3 to 8) (size 9 to 14) (size 15 to 20)
#    0.000    2.250    0.000    2.250    0.000    7.000 
#    0.000    5.000    0.000    0.000    0.000    0.000 
#    0.000    0.000    0.000    0.000    0.000    0.000 
#
# Total GULP energy -396942.814847 kJ/mol
# GULP energy per Si atom -12404.462964 kJ/mol
# Density = 1.863092 g / cm^3
# Si number density = 18.673426 Si / 1000 Ang^3
#
#
#
# Elastic Constant Matrix: (Units=GPa)
#
#
# Indices 1 2 3 4 5 6 
#
# 1 83.9907 81.5793 44.8049 0.0000 0.0000 0.0000
# 2 81.5793 171.5386 74.0308 0.0000 0.0000 0.0000
# 3 44.8049 74.0308 87.4170 0.0000 0.0000 0.0000
# 4 0.0000 0.0000 0.0000 42.9870 0.0000 0.0000
# 5 0.0000 0.0000 0.0000 0.0000 28.7859 0.0000
# 6 0.0000 0.0000 0.0000 0.0000 0.0000 40.6991
#
#
#
# Elastic Compliance Matrix: (Units=1/GPa)
#
#
# Indices 1 2 3 4 5 6 
#
# 1 0.022971 -0.009209 -0.003975 0.000000 0.000000 0.000000
# 2 -0.009209 0.012879 -0.006187 0.000000 0.000000 0.000000
# 3 -0.003975 -0.006187 0.018716 0.000000 0.000000 0.000000
# 4 0.000000 0.000000 0.000000 0.023263 0.000000 0.000000
# 5 0.000000 0.000000 0.000000 0.000000 0.034739 0.000000
# 6 0.000000 0.000000 0.000000 0.000000 0.000000 0.024571
#
#
# Mechanical properties :
#
#
# Convention : Reuss Voigt Hill
#
# Bulk Modulus (GPa) = 63.19159 82.64183 72.91671
# Shear Modulus (GPa) = 27.60047 31.99647 29.79847
#
# Velocity S-wave (km/s) = 3.84873 4.14391 3.99904
# Velocity P-wave (km/s) = 7.32558 8.20051 7.77536
#
# Compressibility (1/GPa) = 0.01582489
#
# Stress axis : x y z
#
# Youngs Moduli (GPa) = 43.53293 77.64368 53.42926
#
# Poissons Ratio (x) = 0.71503 0.21237
# Poissons Ratio (y) = 0.40090 0.33057
# Poissons Ratio (z) = 0.17303 0.48039
#
# Static dielectric constant tensor:
#      x y z
#    x 3.458470 0.000000 0.000000 
#    y 0.000000 3.533920 0.000000 
#    z 0.000000 0.000000 3.339190 
# 
# 
# High freq. dielectric constant tensor:
#      x y z
#    x 1.721970 0.000000 0.000000 
#    y 0.000000 1.738350 0.000000 
#    z 0.000000 0.000000 1.729200 
# 
# From -- ./inp_files/3123.got.cif
#   From: 2010.03.12/outbox.cif.g09.slc.cpg/sg63_2_cif.got.tgz:3123.got - 2010.04.10 19:34:48.
