data_PCOD8260998
_publ_section_title
;
Structure prediction by ZEFSAII (Michael W. Deem and Ramdas Pophale) SiO2 
 PCOD8260998
Probable space group: C M C M
;
_chemical_formula_sum "Si O2"
_cell_formula_units_Z 80
_cell_length_a 8.990365
_cell_length_b 19.169709
_cell_length_c 26.103147
_cell_angle_alpha 90.000000
_cell_angle_beta 90.000000
_cell_angle_gamma 90.000000
_cell_volume 4498.686333
_symmetry_space_group_name_H-M "C M C M"
_symmetry_group_IT_number 63
_symmetry_cell_setting 'orthorhombic'
loop_
_space_group_symop_operation_xyz
x,y,z
-x,-y,1/2+z
x,-y,-z
-x,y,1/2-z
-x,-y,-z
x,y,1/2-z
-x,y,z
x,-y,1/2+z
1/2+x,1/2+y,z
1/2-x,1/2-y,1/2+z
1/2+x,1/2-y,-z
1/2-x,1/2+y,1/2-z
1/2-x,1/2-y,-z
1/2+x,1/2+y,1/2-z
1/2-x,1/2+y,z
1/2+x,1/2-y,1/2+z
loop_
_atom_site_type_symbol
_atom_site_label
_atom_site_fract_x
_atom_site_fract_y
_atom_site_fract_z
Si Si1 0.836846 0.454778 0.653415
Si Si2 0.175084 0.556686 0.457976
Si Si3 0.669262 0.712589 0.250000
Si Si4 0.177770 0.796391 0.543714
Si Si5 0.832111 0.710900 0.351146
Si Si6 0.664022 0.545913 0.250000
O O1 0.782278 0.477781 0.596939
O O2 0.838313 0.371643 0.654191
O O3 0.735794 0.485346 0.698490
O O4 0.000000 0.484728 0.664274
O O5 0.216491 0.500000 0.500000
O O6 0.273809 0.624538 0.467617
O O7 0.000000 0.577327 0.458709
O O8 0.500000 0.739707 0.250000
O O9 0.751887 0.741931 0.300608
O O10 0.672589 0.629063 0.250000
O O11 0.250000 0.750000 0.500000
O O12 0.238345 0.768989 0.598430
O O13 0.000000 0.790304 0.543125
O O14 0.000000 0.741064 0.355228
O O15 0.500000 0.516609 0.250000
#
# Coordination Sequence:
#
# PCOD8260998 Si02
#       6
#    16  16   8  16  16   8
#     4   8  14  24  39  59  85 116 147 181 224 274
#     4   9  18  33  51  71  96 125 157 194 238 287
#     4   9  15  23  37  61  90 119 150 187 234 283
#     4  11  21  33  49  70  97 128 163 201 241 287
#     4   9  16  27  42  62  89 121 155 192 236 282
#     4   9  15  21  33  55  84 115 146 183 224 265
#
# _framework density 17.782969000000001
#
# number of rings (size 3 to 8) (size 9 to 14) (size 15 to 20)
#    0.000    2.800    0.000    4.200    0.000    7.600 
#    0.000    0.000    0.000    0.000    0.000    1.400 
#    0.000    3.200    0.000    0.000    0.000    0.000 
#
# Total GULP energy -495771.367460 kJ/mol
# GULP energy per Si atom -12394.284186 kJ/mol
# Density = 1.774249 g / cm^3
# Si number density = 17.782969 Si / 1000 Ang^3
#
#
#
# Elastic Constant Matrix: (Units=GPa)
#
#
# Indices 1 2 3 4 5 6 
#
# 1 156.7934 32.6325 99.3403 0.0000 0.0000 0.0000
# 2 32.6325 22.0257 42.9720 0.0000 0.0000 0.0000
# 3 99.3403 42.9720 202.3621 0.0000 0.0000 0.0000
# 4 0.0000 0.0000 0.0000 20.1002 0.0000 0.0000
# 5 0.0000 0.0000 0.0000 0.0000 33.3467 0.0000
# 6 0.0000 0.0000 0.0000 0.0000 0.0000 14.3851
#
#
#
# Elastic Compliance Matrix: (Units=1/GPa)
#
#
# Indices 1 2 3 4 5 6 
#
# 1 0.010235 -0.009153 -0.003080 0.000000 0.000000 0.000000
# 2 -0.009153 0.085702 -0.013706 0.000000 0.000000 0.000000
# 3 -0.003080 -0.013706 0.009364 0.000000 0.000000 0.000000
# 4 0.000000 0.000000 0.000000 0.049751 0.000000 0.000000
# 5 0.000000 0.000000 0.000000 0.000000 0.029988 0.000000
# 6 0.000000 0.000000 0.000000 0.000000 0.000000 0.069516
#
#
# Mechanical properties :
#
#
# Convention : Reuss Voigt Hill
#
# Bulk Modulus (GPa) = 18.71872 81.23009 49.97440
# Shear Modulus (GPa) = 15.42057 27.31551 21.36804
#
# Velocity S-wave (km/s) = 2.94794 3.92350 3.47017
# Velocity P-wave (km/s) = 4.70491 8.14266 6.64978
#
# Compressibility (1/GPa) = 0.05342245
#
# Stress axis : x y z
#
# Youngs Moduli (GPa) = 97.70856 11.66829 106.78859
#
# Poissons Ratio (x) = 0.10680 0.32896
# Poissons Ratio (y) = 0.89434 1.46362
# Poissons Ratio (z) = 0.30099 0.15992
#
# Static dielectric constant tensor:
#      x y z
#    x 3.476270 0.000000 0.000000 
#    y 0.000000 2.611020 0.000000 
#    z 0.000000 0.000000 3.776910 
# 
# 
# High freq. dielectric constant tensor:
#      x y z
#    x 1.697580 0.000000 0.000000 
#    y 0.000000 1.604170 0.000000 
#    z 0.000000 0.000000 1.713830 
# 
# From -- ./inp_files/59522.got.cif
#   From: 2010.03.12/outbox.cif.g09.slc.cpg/sg63_30_cif.got.tgz:59522.got - 2010.04.10 19:34:48.
