data_PCOD8260835
_publ_section_title
;
Structure prediction by ZEFSAII (Michael W. Deem and Ramdas Pophale) SiO2 
 PCOD8260835
Probable space group: C M C M
;
_chemical_formula_sum "Si O2"
_cell_formula_units_Z 56
_cell_length_a 28.848247
_cell_length_b 5.588014
_cell_length_c 14.433844
_cell_angle_alpha 90.000000
_cell_angle_beta 90.000000
_cell_angle_gamma 90.000000
_cell_volume 2326.799279
_symmetry_space_group_name_H-M "C M C M"
_symmetry_group_IT_number 63
_symmetry_cell_setting 'orthorhombic'
loop_
_space_group_symop_operation_xyz
x,y,z
-x,-y,1/2+z
x,-y,-z
-x,y,1/2-z
-x,-y,-z
x,y,1/2-z
-x,y,z
x,-y,1/2+z
1/2+x,1/2+y,z
1/2-x,1/2-y,1/2+z
1/2+x,1/2-y,-z
1/2-x,1/2+y,1/2-z
1/2-x,1/2-y,-z
1/2+x,1/2+y,1/2-z
1/2-x,1/2+y,z
1/2+x,1/2-y,1/2+z
loop_
_atom_site_type_symbol
_atom_site_label
_atom_site_fract_x
_atom_site_fract_y
_atom_site_fract_z
Si Si1 0.897250 0.000000 0.000000
Si Si2 0.052776 0.317973 0.146443
Si Si3 0.365499 0.832889 0.852160
Si Si4 0.270732 0.984133 0.107821
O O1 0.931564 0.864140 0.931587
O O2 0.861337 0.146215 0.936112
O O3 0.058216 0.205299 0.250000
O O4 0.083840 0.553276 0.138245
O O5 0.000000 0.396118 0.128041
O O6 0.360453 0.714903 0.750000
O O7 0.325341 0.029851 0.867502
O O8 0.251430 0.238996 0.150302
O O9 0.260545 0.000000 0.000000
#
# Coordination Sequence:
#
# PCOD8260835 Si02
#       4
#     8  16  16  16
#     4  12  23  40  68  98 134 178 228 286 345 416
#     4  10  23  43  67  98 136 176 223 281 349 422
#     4  11  26  44  66  97 137 182 231 288 352 422
#     4  10  23  42  71 103 137 182 234 291 354 422
#
# _framework density 24.067395999999999
#
# number of rings (size 3 to 8) (size 9 to 14) (size 15 to 20)
#    0.000    1.429    0.000    3.857   10.000    4.571 
#    0.000    2.857    0.000    0.000    0.000    0.000 
#    0.000    0.000    0.000    0.000    0.000    0.000 
#
# Total GULP energy -347059.598688 kJ/mol
# GULP energy per Si atom -12394.985667 kJ/mol
# Density = 2.401262 g / cm^3
# Si number density = 24.067396 Si / 1000 Ang^3
#
#
#
# Elastic Constant Matrix: (Units=GPa)
#
#
# Indices 1 2 3 4 5 6 
#
# 1 126.6147 45.0442 19.0975 0.0000 0.0000 0.0000
# 2 45.0442 123.3253 51.9801 0.0000 0.0000 0.0000
# 3 19.0975 51.9801 147.1763 0.0000 0.0000 0.0000
# 4 0.0000 0.0000 0.0000 31.0310 0.0000 0.0000
# 5 0.0000 0.0000 0.0000 0.0000 37.8116 0.0000
# 6 0.0000 0.0000 0.0000 0.0000 0.0000 30.6728
#
#
#
# Elastic Compliance Matrix: (Units=1/GPa)
#
#
# Indices 1 2 3 4 5 6 
#
# 1 0.009078 -0.003312 -0.000008 0.000000 0.000000 0.000000
# 2 -0.003312 0.010735 -0.003362 0.000000 0.000000 0.000000
# 3 -0.000008 -0.003362 0.007983 0.000000 0.000000 0.000000
# 4 0.000000 0.000000 0.000000 0.032226 0.000000 0.000000
# 5 0.000000 0.000000 0.000000 0.000000 0.026447 0.000000
# 6 0.000000 0.000000 0.000000 0.000000 0.000000 0.032602
#
#
# Mechanical properties :
#
#
# Convention : Reuss Voigt Hill
#
# Bulk Modulus (GPa) = 69.29136 69.92887 69.61011
# Shear Modulus (GPa) = 36.43114 38.63605 37.53359
#
# Velocity S-wave (km/s) = 3.89487 4.01100 3.95336
# Velocity P-wave (km/s) = 7.00569 7.11121 7.05865
#
# Compressibility (1/GPa) = 0.01443181
#
# Stress axis : x y z
#
# Youngs Moduli (GPa) = 110.16233 93.15050 125.26723
#
# Poissons Ratio (x) = 0.30853 0.00102
# Poissons Ratio (y) = 0.36487 0.42112
# Poissons Ratio (z) = 0.00089 0.31315
#
# Static dielectric constant tensor:
#      x y z
#    x 4.277360 0.000000 0.000000 
#    y 0.000000 4.301680 0.000000 
#    z 0.000000 0.000000 4.756430 
# 
# 
# High freq. dielectric constant tensor:
#      x y z
#    x 1.964160 0.000000 0.000000 
#    y 0.000000 1.929420 0.000000 
#    z 0.000000 0.000000 1.974740 
# 
# From -- ./inp_files/38213.got.cif
#   From: 2010.03.12/outbox.cif.g09.slc.cpg/sg63_20_cif.got.tgz:38213.got - 2010.04.10 19:34:48.
