data_PCOD8260875
_publ_section_title
;
Structure prediction by ZEFSAII (Michael W. Deem and Ramdas Pophale) SiO2 
 PCOD8260875
Probable space group: C M C M
;
_chemical_formula_sum "Si O2"
_cell_formula_units_Z 72
_cell_length_a 26.709051
_cell_length_b 14.543482
_cell_length_c 8.725721
_cell_angle_alpha 90.000000
_cell_angle_beta 90.000000
_cell_angle_gamma 90.000000
_cell_volume 3389.441774
_symmetry_space_group_name_H-M "C M C M"
_symmetry_group_IT_number 63
_symmetry_cell_setting 'orthorhombic'
loop_
_space_group_symop_operation_xyz
x,y,z
-x,-y,1/2+z
x,-y,-z
-x,y,1/2-z
-x,-y,-z
x,y,1/2-z
-x,y,z
x,-y,1/2+z
1/2+x,1/2+y,z
1/2-x,1/2-y,1/2+z
1/2+x,1/2-y,-z
1/2-x,1/2+y,1/2-z
1/2-x,1/2-y,-z
1/2+x,1/2+y,1/2-z
1/2-x,1/2+y,z
1/2+x,1/2-y,1/2+z
loop_
_atom_site_type_symbol
_atom_site_label
_atom_site_fract_x
_atom_site_fract_y
_atom_site_fract_z
Si Si1 0.164711 0.091925 0.923058
Si Si2 0.407391 0.275451 0.569546
Si Si3 0.500000 0.398529 0.568681
Si Si4 0.872833 0.596516 0.068790
Si Si5 0.229094 0.659057 0.923922
O O1 0.144025 0.098802 0.750000
O O2 0.224799 0.087763 0.924297
O O3 0.145239 0.179477 0.018964
O O4 0.142927 0.000000 0.000000
O O5 0.409407 0.261705 0.750000
O O6 0.451873 0.341316 0.511065
O O7 0.410534 0.175332 0.491563
O O8 0.500000 0.500000 0.500000
O O9 0.500000 0.408210 0.750000
O O10 0.875201 0.591743 0.250000
O O11 0.891231 0.500000 0.000000
O O12 0.815956 0.615995 0.019162
O O13 0.210877 0.678316 0.750000
O O14 0.250000 0.750000 0.000000
#
# Coordination Sequence:
#
# PCOD8260875 Si02
#       5
#    16  16   8  16  16
#     4  11  23  37  57  88 123 163 208 253 306 368
#     4  11  23  42  66  92 125 161 205 259 315 375
#     4  10  24  44  69 100 129 162 201 250 314 382
#     4  12  25  42  64  92 126 168 217 261 313 372
#     4  11  22  37  59  88 126 168 213 259 308 364
#
# _framework density 21.242436999999999
#
# number of rings (size 3 to 8) (size 9 to 14) (size 15 to 20)
#    0.000    0.889    2.222    5.333    0.000    8.000 
#    0.000    0.556    0.000    0.000    0.000    0.000 
#    0.000    0.000    0.000    0.000    0.000    0.000 
#
# Total GULP energy -446551.717360 kJ/mol
# GULP energy per Si atom -12404.214371 kJ/mol
# Density = 2.119409 g / cm^3
# Si number density = 21.242437 Si / 1000 Ang^3
#
#
#
# Elastic Constant Matrix: (Units=GPa)
#
#
# Indices 1 2 3 4 5 6 
#
# 1 86.4931 43.2960 32.3749 0.0000 0.0000 0.0000
# 2 43.2960 179.2888 71.4702 0.0000 0.0000 0.0000
# 3 32.3749 71.4702 156.5101 0.0000 0.0000 0.0000
# 4 0.0000 0.0000 0.0000 40.9308 0.0000 0.0000
# 5 0.0000 0.0000 0.0000 0.0000 24.7743 0.0000
# 6 0.0000 0.0000 0.0000 0.0000 0.0000 34.7862
#
#
#
# Elastic Compliance Matrix: (Units=1/GPa)
#
#
# Indices 1 2 3 4 5 6 
#
# 1 0.013467 -0.002618 -0.001590 0.000000 0.000000 0.000000
# 2 -0.002618 0.007328 -0.002805 0.000000 0.000000 0.000000
# 3 -0.001590 -0.002805 0.007999 0.000000 0.000000 0.000000
# 4 0.000000 0.000000 0.000000 0.024431 0.000000 0.000000
# 5 0.000000 0.000000 0.000000 0.000000 0.040364 0.000000
# 6 0.000000 0.000000 0.000000 0.000000 0.000000 0.028747
#
#
# Mechanical properties :
#
#
# Convention : Reuss Voigt Hill
#
# Bulk Modulus (GPa) = 67.71343 79.61936 73.66640
# Shear Modulus (GPa) = 35.38909 38.44164 36.91537
#
# Velocity S-wave (km/s) = 4.08605 4.25863 4.17323
# Velocity P-wave (km/s) = 7.36252 7.85773 7.61415
#
# Compressibility (1/GPa) = 0.01476812
#
# Stress axis : x y z
#
# Youngs Moduli (GPa) = 74.25286 136.46428 125.01489
#
# Poissons Ratio (x) = 0.35731 0.19879
# Poissons Ratio (y) = 0.19442 0.35063
# Poissons Ratio (z) = 0.11807 0.38274
#
# Static dielectric constant tensor:
#      x y z
#    x 3.828380 0.000000 0.000000 
#    y 0.000000 3.904580 0.000000 
#    z 0.000000 0.000000 3.477970 
# 
# 
# High freq. dielectric constant tensor:
#      x y z
#    x 1.813010 0.000000 0.000000 
#    y 0.000000 1.845450 0.000000 
#    z 0.000000 0.000000 1.843890 
# 
# From -- ./inp_files/11727.got.cif
#   From: 2010.03.12/outbox.cif.g09.slc.cpg/sg63_6_cif.got.tgz:11727.got - 2010.04.10 19:34:48.
