data_PCOD8260386
_publ_section_title
;
Structure prediction by ZEFSAII (Michael W. Deem and Ramdas Pophale) SiO2 
 PCOD8260386
Probable space group: C M C M
;
_chemical_formula_sum "Si O2"
_cell_formula_units_Z 96
_cell_length_a 28.233286
_cell_length_b 9.201468
_cell_length_c 18.425305
_cell_angle_alpha 90.000000
_cell_angle_beta 90.000000
_cell_angle_gamma 90.000000
_cell_volume 4786.667196
_symmetry_space_group_name_H-M "C M C M"
_symmetry_group_IT_number 63
_symmetry_cell_setting 'orthorhombic'
loop_
_space_group_symop_operation_xyz
x,y,z
-x,-y,1/2+z
x,-y,-z
-x,y,1/2-z
-x,-y,-z
x,y,1/2-z
-x,y,z
x,-y,1/2+z
1/2+x,1/2+y,z
1/2-x,1/2-y,1/2+z
1/2+x,1/2-y,-z
1/2-x,1/2+y,1/2-z
1/2-x,1/2-y,-z
1/2+x,1/2+y,1/2-z
1/2-x,1/2+y,z
1/2+x,1/2-y,1/2+z
loop_
_atom_site_type_symbol
_atom_site_label
_atom_site_fract_x
_atom_site_fract_y
_atom_site_fract_z
Si Si1 0.948852 0.944548 0.080076
Si Si2 0.052409 0.234198 0.334594
Si Si3 0.205027 0.097231 0.333634
Si Si4 0.855476 0.387146 0.332922
Si Si5 0.202922 0.592464 0.430010
Si Si6 0.347380 0.387315 0.433832
O O1 0.902284 0.841643 0.084146
O O2 0.000000 0.872497 0.104183
O O3 0.936409 0.081328 0.129522
O O4 0.956204 0.000000 0.000000
O O5 0.057737 0.204719 0.250000
O O6 0.090924 0.353120 0.358834
O O7 0.000000 0.291857 0.355511
O O8 0.217948 0.065037 0.250000
O O9 0.175489 0.243321 0.342088
O O10 0.252625 0.118821 0.378827
O O11 0.175761 0.959450 0.362809
O O12 0.853994 0.442400 0.250000
O O13 0.837842 0.513063 0.385053
O O14 0.218799 0.500000 0.500000
O O15 0.181961 0.745634 0.457046
O O16 0.345777 0.500000 0.500000
#
# Coordination Sequence:
#
# PCOD8260386 Si02
#       6
#    16  16  16  16  16  16
#     4   9  18  33  58  88 117 149 192 244 288 336
#     4   9  17  33  60  89 116 152 196 239 290 351
#     4  11  23  41  63  86 113 152 200 246 292 349
#     4  10  21  39  60  87 120 151 188 238 295 354
#     4  12  26  39  57  85 120 159 196 241 299 353
#     4  11  23  40  62  86 117 156 201 243 288 346
#
# _framework density 20.055707999999999
#
# number of rings (size 3 to 8) (size 9 to 14) (size 15 to 20)
#    0.000    1.667    1.667    3.000    2.333    4.667 
#    0.000    0.833    0.000    1.000    0.000    0.000 
#    0.000    0.000    0.000    0.000    0.000    0.000 
#
# Total GULP energy -595066.355086 kJ/mol
# GULP energy per Si atom -12397.215731 kJ/mol
# Density = 2.001006 g / cm^3
# Si number density = 20.055708 Si / 1000 Ang^3
#
#
#
# Elastic Constant Matrix: (Units=GPa)
#
#
# Indices 1 2 3 4 5 6 
#
# 1 143.4535 35.8825 49.5857 0.0000 0.0000 0.0000
# 2 35.8825 69.9261 31.4118 0.0000 0.0000 0.0000
# 3 49.5857 31.4118 78.0870 0.0000 0.0000 0.0000
# 4 0.0000 0.0000 0.0000 29.9820 0.0000 0.0000
# 5 0.0000 0.0000 0.0000 0.0000 22.3414 0.0000
# 6 0.0000 0.0000 0.0000 0.0000 0.0000 19.6088
#
#
#
# Elastic Compliance Matrix: (Units=1/GPa)
#
#
# Indices 1 2 3 4 5 6 
#
# 1 0.009299 -0.002587 -0.004865 0.000000 0.000000 0.000000
# 2 -0.002587 0.018175 -0.005668 0.000000 0.000000 0.000000
# 3 -0.004865 -0.005668 0.018176 0.000000 0.000000 0.000000
# 4 0.000000 0.000000 0.000000 0.033353 0.000000 0.000000
# 5 0.000000 0.000000 0.000000 0.000000 0.044760 0.000000
# 6 0.000000 0.000000 0.000000 0.000000 0.000000 0.050997
#
#
# Mechanical properties :
#
#
# Convention : Reuss Voigt Hill
#
# Bulk Modulus (GPa) = 51.52011 58.35853 54.93932
# Shear Modulus (GPa) = 24.09991 26.02556 25.06274
#
# Velocity S-wave (km/s) = 3.47024 3.60622 3.53888
# Velocity P-wave (km/s) = 6.46537 6.81917 6.64463
#
# Compressibility (1/GPa) = 0.01940989
#
# Stress axis : x y z
#
# Youngs Moduli (GPa) = 107.53360 55.02211 55.01905
#
# Poissons Ratio (x) = 0.14233 0.26765
# Poissons Ratio (y) = 0.27816 0.31187
# Poissons Ratio (z) = 0.52311 0.31189
#
# Static dielectric constant tensor:
#      x y z
#    x 4.447780 0.000000 0.000000 
#    y 0.000000 3.330720 0.000000 
#    z 0.000000 0.000000 3.772720 
# 
# 
# High freq. dielectric constant tensor:
#      x y z
#    x 1.811240 0.000000 0.000000 
#    y 0.000000 1.741870 0.000000 
#    z 0.000000 0.000000 1.790450 
# 
# From -- ./inp_files/58119.got.cif
#   From: 2010.03.12/outbox.cif.g09.slc.cpg/sg63_30_cif.got.tgz:58119.got - 2010.04.10 19:34:48.
