data_PCOD8260253
_publ_section_title
;
Structure prediction by ZEFSAII (Michael W. Deem and Ramdas Pophale) SiO2 
 PCOD8260253
Probable space group: C M C M
;
_chemical_formula_sum "Si O2"
_cell_formula_units_Z 100
_cell_length_a 16.337637
_cell_length_b 19.312991
_cell_length_c 16.758226
_cell_angle_alpha 90.000000
_cell_angle_beta 90.000000
_cell_angle_gamma 90.000000
_cell_volume 5287.700197
_symmetry_space_group_name_H-M "C M C M"
_symmetry_group_IT_number 63
_symmetry_cell_setting 'orthorhombic'
loop_
_space_group_symop_operation_xyz
x,y,z
-x,-y,1/2+z
x,-y,-z
-x,y,1/2-z
-x,-y,-z
x,y,1/2-z
-x,y,z
x,-y,1/2+z
1/2+x,1/2+y,z
1/2-x,1/2-y,1/2+z
1/2+x,1/2-y,-z
1/2-x,1/2+y,1/2-z
1/2-x,1/2-y,-z
1/2+x,1/2+y,1/2-z
1/2-x,1/2+y,z
1/2+x,1/2-y,1/2+z
loop_
_atom_site_type_symbol
_atom_site_label
_atom_site_fract_x
_atom_site_fract_y
_atom_site_fract_z
Si Si1 0.275178 0.371888 0.376495
Si Si2 0.802890 0.510369 0.090217
Si Si3 0.408383 0.869170 0.843685
Si Si4 0.000000 0.936328 0.563746
Si Si5 0.500000 0.525426 0.250000
Si Si6 0.591649 0.602403 0.750000
Si Si7 0.172760 0.118027 0.053213
Si Si8 0.756808 0.718901 0.340354
O O1 0.213769 0.437393 0.363217
O O2 0.360731 0.378377 0.330090
O O3 0.287735 0.363316 0.469510
O O4 0.237931 0.300220 0.345428
O O5 0.871597 0.555510 0.134360
O O6 0.715182 0.549321 0.089186
O O7 0.834458 0.500000 0.000000
O O8 0.417650 0.865368 0.750000
O O9 0.500000 0.859917 0.881519
O O10 0.346342 0.807766 0.873070
O O11 0.922199 0.892245 0.540149
O O12 0.000000 0.940009 0.661700
O O13 0.000000 0.000000 0.500000
O O14 0.417268 0.480273 0.250000
O O15 0.500000 0.637465 0.750000
O O16 0.184842 0.182708 0.111068
O O17 0.749279 0.693546 0.250000
#
# Coordination Sequence:
#
# PCOD8260253 Si02
#       8
#    16  16  16   8   4   8  16  16
#     4  11  20  37  58  84 115 155 187 243 296 349
#     4   9  19  35  57  83 108 145 187 234 281 339
#     4   9  19  35  55  78 108 141 181 232 289 341
#     4  12  22  38  60  88 122 162 196 246 294 357
#     4  10  22  34  52  84 122 152 190 240 294 356
#     4  10  22  32  49  87 121 141 189 244 292 348
#     4  10  22  37  59  80 120 154 195 233 289 356
#     4  10  21  38  57  83 112 151 195 239 291 357
#
# _framework density 18.911814
#
# number of rings (size 3 to 8) (size 9 to 14) (size 15 to 20)
#    0.240    1.760    0.800    3.840    3.360    0.960 
#    0.000    0.000    1.760    0.000    0.000    0.000 
#    0.000    0.000    0.000    0.000    0.000    0.000 
#
# Total GULP energy -619410.454620 kJ/mol
# GULP energy per Si atom -12388.209092 kJ/mol
# Density = 1.886877 g / cm^3
# Si number density = 18.911814 Si / 1000 Ang^3
#
#
#
# Elastic Constant Matrix: (Units=GPa)
#
#
# Indices 1 2 3 4 5 6 
#
# 1 82.3237 25.9279 6.7400 0.0000 0.0000 0.0000
# 2 25.9279 95.6676 15.6533 0.0000 0.0000 0.0000
# 3 6.7400 15.6533 62.6206 0.0000 0.0000 0.0000
# 4 0.0000 0.0000 0.0000 27.9346 0.0000 0.0000
# 5 0.0000 0.0000 0.0000 0.0000 22.7266 0.0000
# 6 0.0000 0.0000 0.0000 0.0000 0.0000 15.4992
#
#
#
# Elastic Compliance Matrix: (Units=1/GPa)
#
#
# Indices 1 2 3 4 5 6 
#
# 1 0.013299 -0.003514 -0.000553 0.000000 0.000000 0.000000
# 2 -0.003514 0.011827 -0.002578 0.000000 0.000000 0.000000
# 3 -0.000553 -0.002578 0.016673 0.000000 0.000000 0.000000
# 4 0.000000 0.000000 0.000000 0.035798 0.000000 0.000000
# 5 0.000000 0.000000 0.000000 0.000000 0.044001 0.000000
# 6 0.000000 0.000000 0.000000 0.000000 0.000000 0.064520
#
#
# Mechanical properties :
#
#
# Convention : Reuss Voigt Hill
#
# Bulk Modulus (GPa) = 35.07647 37.47270 36.27459
# Shear Modulus (GPa) = 23.93358 26.05145 24.99251
#
# Velocity S-wave (km/s) = 3.56130 3.71553 3.63923
# Velocity P-wave (km/s) = 5.95803 6.18581 6.07299
#
# Compressibility (1/GPa) = 0.02850914
#
# Stress axis : x y z
#
# Youngs Moduli (GPa) = 75.19283 84.55197 59.97652
#
# Poissons Ratio (x) = 0.29710 0.03317
# Poissons Ratio (y) = 0.26422 0.15463
# Poissons Ratio (z) = 0.04159 0.21799
#
# Static dielectric constant tensor:
#      x y z
#    x 3.607050 0.000000 0.000000 
#    y 0.000000 3.491900 0.000000 
#    z 0.000000 0.000000 3.569620 
# 
# 
# High freq. dielectric constant tensor:
#      x y z
#    x 1.712970 0.000000 0.000000 
#    y 0.000000 1.727200 0.000000 
#    z 0.000000 0.000000 1.741100 
# 
# From -- ./inp_files/44443.got.cif
#   From: 2010.03.12/outbox.cif.g09.slc.cpg/sg63_23_cif.got.tgz:44443.got - 2010.04.10 19:34:48.
