data_PCOD8260940
_publ_section_title
;
Structure prediction by ZEFSAII (Michael W. Deem and Ramdas Pophale) SiO2 
 PCOD8260940
Probable space group: C M C M
;
_chemical_formula_sum "Si O2"
_cell_formula_units_Z 80
_cell_length_a 21.084356
_cell_length_b 13.537628
_cell_length_c 14.203351
_cell_angle_alpha 90.000000
_cell_angle_beta 90.000000
_cell_angle_gamma 90.000000
_cell_volume 4054.093271
_symmetry_space_group_name_H-M "C M C M"
_symmetry_group_IT_number 63
_symmetry_cell_setting 'orthorhombic'
loop_
_space_group_symop_operation_xyz
x,y,z
-x,-y,1/2+z
x,-y,-z
-x,y,1/2-z
-x,-y,-z
x,y,1/2-z
-x,y,z
x,-y,1/2+z
1/2+x,1/2+y,z
1/2-x,1/2-y,1/2+z
1/2+x,1/2-y,-z
1/2-x,1/2+y,1/2-z
1/2-x,1/2-y,-z
1/2+x,1/2+y,1/2-z
1/2-x,1/2+y,z
1/2+x,1/2-y,1/2+z
loop_
_atom_site_type_symbol
_atom_site_label
_atom_site_fract_x
_atom_site_fract_y
_atom_site_fract_z
Si Si1 0.290649 0.189936 0.860527
Si Si2 0.132093 0.394772 0.982665
Si Si3 0.073226 0.775883 0.357815
Si Si4 0.174509 0.068478 0.591084
Si Si5 0.750877 0.599884 0.350410
O O1 0.292659 0.159464 0.750000
O O2 0.226676 0.155533 0.914572
O O3 0.292454 0.306884 0.876471
O O4 0.352253 0.148436 0.914011
O O5 0.091527 0.316340 0.923838
O O6 0.196607 0.423550 0.928004
O O7 0.095936 0.500000 0.000000
O O8 0.087654 0.746146 0.250000
O O9 0.109150 0.878203 0.381625
O O10 0.000000 0.799713 0.374152
O O11 0.165715 0.000000 0.500000
O O12 0.203168 0.991838 0.666334
O O13 0.785084 0.620640 0.250000
#
# Coordination Sequence:
#
# PCOD8260940 Si02
#       5
#    16  16  16  16  16
#     4  11  21  34  56  92 134 166 198 252 324 385
#     4  12  22  36  60  92 123 157 204 263 318 373
#     4  11  26  46  65  87 124 175 222 260 306 377
#     4  12  21  37  62  92 129 161 201 256 314 377
#     4  11  20  32  55  90 128 161 195 252 314 377
#
# _framework density 19.733142000000001
#
# number of rings (size 3 to 8) (size 9 to 14) (size 15 to 20)
#    0.000    0.600    6.000    4.200    0.000    1.600 
#    0.000    0.000    0.000    0.600    0.000    0.000 
#    0.000    0.000    0.000    0.000    0.000    0.000 
#
# Total GULP energy -495634.504922 kJ/mol
# GULP energy per Si atom -12390.862623 kJ/mol
# Density = 1.968823 g / cm^3
# Si number density = 19.733142 Si / 1000 Ang^3
#
#
#
# Elastic Constant Matrix: (Units=GPa)
#
#
# Indices 1 2 3 4 5 6 
#
# 1 83.2939 42.9905 34.6743 0.0000 0.0000 0.0000
# 2 42.9905 133.6108 22.5520 0.0000 0.0000 0.0000
# 3 34.6743 22.5520 108.2904 0.0000 0.0000 0.0000
# 4 0.0000 0.0000 0.0000 25.9744 0.0000 0.0000
# 5 0.0000 0.0000 0.0000 0.0000 23.5455 0.0000
# 6 0.0000 0.0000 0.0000 0.0000 0.0000 22.6859
#
#
#
# Elastic Compliance Matrix: (Units=1/GPa)
#
#
# Indices 1 2 3 4 5 6 
#
# 1 0.016060 -0.004456 -0.004214 0.000000 0.000000 0.000000
# 2 -0.004456 0.008994 -0.000446 0.000000 0.000000 0.000000
# 3 -0.004214 -0.000446 0.010677 0.000000 0.000000 0.000000
# 4 0.000000 0.000000 0.000000 0.038499 0.000000 0.000000
# 5 0.000000 0.000000 0.000000 0.000000 0.042471 0.000000
# 6 0.000000 0.000000 0.000000 0.000000 0.000000 0.044080
#
#
# Mechanical properties :
#
#
# Convention : Reuss Voigt Hill
#
# Bulk Modulus (GPa) = 57.15230 58.40319 57.77774
# Shear Modulus (GPa) = 27.04947 29.43972 28.24459
#
# Velocity S-wave (km/s) = 3.70640 3.86669 3.78739
# Velocity P-wave (km/s) = 6.88055 7.04243 6.96196
#
# Compressibility (1/GPa) = 0.01749711
#
# Stress axis : x y z
#
# Youngs Moduli (GPa) = 62.26644 111.19112 93.66138
#
# Poissons Ratio (x) = 0.49548 0.39472
# Poissons Ratio (y) = 0.27747 0.04178
# Poissons Ratio (z) = 0.26241 0.04960
#
# Static dielectric constant tensor:
#      x y z
#    x 3.182390 0.000000 0.000000 
#    y 0.000000 3.910900 0.000000 
#    z 0.000000 0.000000 3.880580 
# 
# 
# High freq. dielectric constant tensor:
#      x y z
#    x 1.708200 0.000000 0.000000 
#    y 0.000000 1.796530 0.000000 
#    z 0.000000 0.000000 1.791260 
# 
# From -- ./inp_files/35086.got.cif
#   From: 2010.03.12/outbox.cif.g09.slc.cpg/sg63_18_cif.got.tgz:35086.got - 2010.04.10 19:34:48.
