data_PCOD8260594
_publ_section_title
;
Structure prediction by ZEFSAII (Michael W. Deem and Ramdas Pophale) SiO2 
 PCOD8260594
Probable space group: C M C M
;
_chemical_formula_sum "Si O2"
_cell_formula_units_Z 80
_cell_length_a 28.683657
_cell_length_b 9.120091
_cell_length_c 16.522028
_cell_angle_alpha 90.000000
_cell_angle_beta 90.000000
_cell_angle_gamma 90.000000
_cell_volume 4322.122245
_symmetry_space_group_name_H-M "C M C M"
_symmetry_group_IT_number 63
_symmetry_cell_setting 'orthorhombic'
loop_
_space_group_symop_operation_xyz
x,y,z
-x,-y,1/2+z
x,-y,-z
-x,y,1/2-z
-x,-y,-z
x,y,1/2-z
-x,y,z
x,-y,1/2+z
1/2+x,1/2+y,z
1/2-x,1/2-y,1/2+z
1/2+x,1/2-y,-z
1/2-x,1/2+y,1/2-z
1/2-x,1/2-y,-z
1/2+x,1/2+y,1/2-z
1/2-x,1/2+y,z
1/2+x,1/2-y,1/2+z
loop_
_atom_site_type_symbol
_atom_site_label
_atom_site_fract_x
_atom_site_fract_y
_atom_site_fract_z
Si Si1 0.445748 0.667166 0.010296
Si Si2 0.383832 0.100766 0.423950
Si Si3 0.297062 0.208805 0.841761
Si Si4 0.599410 0.186757 0.655632
Si Si5 0.790933 0.368750 0.657354
O O1 0.500000 0.679930 0.990691
O O2 0.437008 0.721362 0.102272
O O3 0.428476 0.500000 0.000000
O O4 0.419899 0.771452 0.946006
O O5 0.337073 0.179023 0.391377
O O6 0.370786 0.000000 0.500000
O O7 0.405866 0.989680 0.356953
O O8 0.299410 0.263516 0.750000
O O9 0.348955 0.234989 0.876910
O O10 0.255192 0.298279 0.884534
O O11 0.283622 0.040576 0.847753
O O12 0.591146 0.221823 0.750000
O O13 0.797004 0.314834 0.750000
#
# Coordination Sequence:
#
# PCOD8260594 Si02
#       5
#    16  16  16  16  16
#     4  10  22  39  55  74 104 137 167 210 271 322
#     4   9  18  33  53  75 100 134 171 211 256 304
#     4   8  15  27  45  71 102 133 164 205 251 293
#     4   9  18  35  57  79 103 134 177 218 250 298
#     4   9  16  29  48  71 101 134 168 203 244 296
#
# _framework density 18.509426000000001
#
# number of rings (size 3 to 8) (size 9 to 14) (size 15 to 20)
#    0.000    3.000    0.000    1.800    0.000    5.600 
#    0.000   14.000    0.000    4.200    0.000    0.000 
#    0.000    0.000    0.000    0.000    0.000    0.000 
#
# Total GULP energy -495722.646792 kJ/mol
# GULP energy per Si atom -12393.066170 kJ/mol
# Density = 1.846730 g / cm^3
# Si number density = 18.509426 Si / 1000 Ang^3
#
#
#
# Elastic Constant Matrix: (Units=GPa)
#
#
# Indices 1 2 3 4 5 6 
#
# 1 82.0254 46.1577 16.4178 0.0000 0.0000 0.0000
# 2 46.1577 73.0140 20.2882 0.0000 0.0000 0.0000
# 3 16.4178 20.2882 41.1153 0.0000 0.0000 0.0000
# 4 0.0000 0.0000 0.0000 18.2823 0.0000 0.0000
# 5 0.0000 0.0000 0.0000 0.0000 29.5232 0.0000
# 6 0.0000 0.0000 0.0000 0.0000 0.0000 36.7594
#
#
#
# Elastic Compliance Matrix: (Units=1/GPa)
#
#
# Indices 1 2 3 4 5 6 
#
# 1 0.019054 -0.011510 -0.001929 0.000000 0.000000 0.000000
# 2 -0.011510 0.022825 -0.006667 0.000000 0.000000 0.000000
# 3 -0.001929 -0.006667 0.028382 0.000000 0.000000 0.000000
# 4 0.000000 0.000000 0.000000 0.054698 0.000000 0.000000
# 5 0.000000 0.000000 0.000000 0.000000 0.033872 0.000000
# 6 0.000000 0.000000 0.000000 0.000000 0.000000 0.027204
#
#
# Mechanical properties :
#
#
# Convention : Reuss Voigt Hill
#
# Bulk Modulus (GPa) = 33.27837 40.20911 36.74374
# Shear Modulus (GPa) = 21.16298 24.46571 22.81435
#
# Velocity S-wave (km/s) = 3.38503 3.63960 3.51462
# Velocity P-wave (km/s) = 5.77028 6.27957 6.03030
#
# Compressibility (1/GPa) = 0.03004954
#
# Stress axis : x y z
#
# Youngs Moduli (GPa) = 52.48202 43.81251 35.23371
#
# Poissons Ratio (x) = 0.50426 0.06797
# Poissons Ratio (y) = 0.60404 0.23490
# Poissons Ratio (z) = 0.10125 0.29209
#
# Static dielectric constant tensor:
#      x y z
#    x 3.471970 0.000000 0.000000 
#    y 0.000000 3.428300 0.000000 
#    z 0.000000 0.000000 3.375920 
# 
# 
# High freq. dielectric constant tensor:
#      x y z
#    x 1.717590 0.000000 0.000000 
#    y 0.000000 1.704250 0.000000 
#    z 0.000000 0.000000 1.702460 
# 
# From -- ./inp_files/48795.got.cif
#   From: 2010.03.12/outbox.cif.g09.slc.cpg/sg63_25_cif.got.tgz:48795.got - 2010.04.10 19:34:48.
