data_PCOD8260509
_publ_section_title
;
Structure prediction by ZEFSAII (Michael W. Deem and Ramdas Pophale) SiO2 
 PCOD8260509
Probable space group: C M C M
;
_chemical_formula_sum "Si O2"
_cell_formula_units_Z 72
_cell_length_a 27.137083
_cell_length_b 9.532716
_cell_length_c 14.274857
_cell_angle_alpha 90.000000
_cell_angle_beta 90.000000
_cell_angle_gamma 90.000000
_cell_volume 3692.764261
_symmetry_space_group_name_H-M "C M C M"
_symmetry_group_IT_number 63
_symmetry_cell_setting 'orthorhombic'
loop_
_space_group_symop_operation_xyz
x,y,z
-x,-y,1/2+z
x,-y,-z
-x,y,1/2-z
-x,-y,-z
x,y,1/2-z
-x,y,z
x,-y,1/2+z
1/2+x,1/2+y,z
1/2-x,1/2-y,1/2+z
1/2+x,1/2-y,-z
1/2-x,1/2+y,1/2-z
1/2-x,1/2-y,-z
1/2+x,1/2+y,1/2-z
1/2-x,1/2+y,z
1/2+x,1/2-y,1/2+z
loop_
_atom_site_type_symbol
_atom_site_label
_atom_site_fract_x
_atom_site_fract_y
_atom_site_fract_z
Si Si1 0.869338 0.500000 0.000000
Si Si2 0.844722 0.992182 0.638768
Si Si3 0.692679 0.277891 0.494587
Si Si4 0.553264 0.390234 0.139435
Si Si5 0.444061 0.075110 0.358157
O O1 0.834943 0.632320 0.016866
O O2 0.905339 0.475618 0.088770
O O3 0.835865 0.985632 0.750000
O O4 0.816818 0.127061 0.596941
O O5 0.902718 0.005442 0.610968
O O6 0.824789 0.852065 0.590529
O O7 0.750000 0.250000 0.500000
O O8 0.551032 0.374419 0.250000
O O9 0.500000 0.447896 0.102964
O O10 0.562445 0.233080 0.101016
O O11 0.430121 0.066629 0.250000
O O12 0.500000 0.022852 0.375205
#
# Coordination Sequence:
#
# PCOD8260509 Si02
#       5
#     8  16  16  16  16
#     4  12  21  36  62  86 120 160 195 238 304 360
#     4  10  21  42  65  86 116 156 199 240 294 356
#     4  11  25  42  59  86 120 152 198 259 300 340
#     4   8  14  30  58  87 115 150 192 236 283 342
#     4   9  18  33  55  87 124 158 194 236 287 356
#
# _framework density 19.497588
#
# number of rings (size 3 to 8) (size 9 to 14) (size 15 to 20)
#    0.000    2.222    2.222    3.000    0.000    1.778 
#    0.000    6.667    0.000    2.667    0.000    0.000 
#    0.000    0.000    0.000    0.000    0.000    0.000 
#
# Total GULP energy -446253.231927 kJ/mol
# GULP energy per Si atom -12395.923109 kJ/mol
# Density = 1.945321 g / cm^3
# Si number density = 19.497588 Si / 1000 Ang^3
#
#
#
# Elastic Constant Matrix: (Units=GPa)
#
#
# Indices 1 2 3 4 5 6 
#
# 1 151.5864 25.4620 42.5135 0.0000 0.0000 0.0000
# 2 25.4620 51.7604 20.9656 0.0000 0.0000 0.0000
# 3 42.5135 20.9656 99.5518 0.0000 0.0000 0.0000
# 4 0.0000 0.0000 0.0000 28.3513 0.0000 0.0000
# 5 0.0000 0.0000 0.0000 0.0000 26.1507 0.0000
# 6 0.0000 0.0000 0.0000 0.0000 0.0000 25.2441
#
#
#
# Elastic Compliance Matrix: (Units=1/GPa)
#
#
# Indices 1 2 3 4 5 6 
#
# 1 0.007832 -0.002731 -0.002770 0.000000 0.000000 0.000000
# 2 -0.002731 0.022074 -0.003482 0.000000 0.000000 0.000000
# 3 -0.002770 -0.003482 0.011961 0.000000 0.000000 0.000000
# 4 0.000000 0.000000 0.000000 0.035272 0.000000 0.000000
# 5 0.000000 0.000000 0.000000 0.000000 0.038240 0.000000
# 6 0.000000 0.000000 0.000000 0.000000 0.000000 0.039613
#
#
# Mechanical properties :
#
#
# Convention : Reuss Voigt Hill
#
# Bulk Modulus (GPa) = 41.83910 53.42008 47.62959
# Shear Modulus (GPa) = 27.63567 30.21306 28.92437
#
# Velocity S-wave (km/s) = 3.76891 3.94074 3.85578
# Velocity P-wave (km/s) = 6.35962 6.94001 6.65614
#
# Compressibility (1/GPa) = 0.02390109
#
# Stress axis : x y z
#
# Youngs Moduli (GPa) = 127.67468 45.30254 83.60358
#
# Poissons Ratio (x) = 0.12372 0.23155
# Poissons Ratio (y) = 0.34869 0.29115
# Poissons Ratio (z) = 0.35362 0.15776
#
# Static dielectric constant tensor:
#      x y z
#    x 3.912650 0.000000 0.000000 
#    y 0.000000 3.366850 0.000000 
#    z 0.000000 0.000000 3.465090 
# 
# 
# High freq. dielectric constant tensor:
#      x y z
#    x 1.775430 0.000000 0.000000 
#    y 0.000000 1.737280 0.000000 
#    z 0.000000 0.000000 1.751820 
# 
# From -- ./inp_files/37546.got.cif
#   From: 2010.03.12/outbox.cif.g09.slc.cpg/sg63_19_cif.got.tgz:37546.got - 2010.04.10 19:34:48.
