data_PCOD8260575
_publ_section_title
;
Structure prediction by ZEFSAII (Michael W. Deem and Ramdas Pophale) SiO2 
 PCOD8260575
Probable space group: C M C M
;
_chemical_formula_sum "Si O2"
_cell_formula_units_Z 96
_cell_length_a 11.248639
_cell_length_b 24.749556
_cell_length_c 18.046690
_cell_angle_alpha 90.000000
_cell_angle_beta 90.000000
_cell_angle_gamma 90.000000
_cell_volume 5024.177216
_symmetry_space_group_name_H-M "C M C M"
_symmetry_group_IT_number 63
_symmetry_cell_setting 'orthorhombic'
loop_
_space_group_symop_operation_xyz
x,y,z
-x,-y,1/2+z
x,-y,-z
-x,y,1/2-z
-x,-y,-z
x,y,1/2-z
-x,y,z
x,-y,1/2+z
1/2+x,1/2+y,z
1/2-x,1/2-y,1/2+z
1/2+x,1/2-y,-z
1/2-x,1/2+y,1/2-z
1/2-x,1/2-y,-z
1/2+x,1/2+y,1/2-z
1/2-x,1/2+y,z
1/2+x,1/2-y,1/2+z
loop_
_atom_site_type_symbol
_atom_site_label
_atom_site_fract_x
_atom_site_fract_y
_atom_site_fract_z
Si Si1 0.637564 0.257430 0.835589
Si Si2 0.236286 0.853587 0.574708
Si Si3 0.137506 0.559199 0.334156
Si Si4 0.362473 0.150106 0.577885
Si Si5 0.000000 0.037756 0.610344
Si Si6 0.000000 0.078997 0.055864
Si Si7 0.254362 0.052742 0.664619
O O1 0.674003 0.260527 0.750000
O O2 0.500000 0.272932 0.847235
O O3 0.720052 0.298201 0.880925
O O4 0.663429 0.197121 0.863363
O O5 0.334877 0.889727 0.614946
O O6 0.281663 0.838830 0.493384
O O7 0.114015 0.885626 0.573058
O O8 0.173455 0.573527 0.250000
O O9 0.210647 0.507230 0.362218
O O10 0.000000 0.544536 0.340817
O O11 0.500000 0.148687 0.554144
O O12 0.328550 0.093688 0.614876
O O13 0.113902 0.060468 0.653591
O O14 0.000000 0.060714 0.528299
O O15 0.000000 0.972666 0.610012
O O16 0.289442 0.061823 0.750000
#
# Coordination Sequence:
#
# PCOD8260575 Si02
#       7
#    16  16  16  16   8   8  16
#     4  10  22  40  63  89 117 153 199 250 302 357
#     4  12  21  40  62  91 117 156 199 248 304 352
#     4  10  22  38  58  88 123 158 194 238 295 357
#     4  11  24  40  61  89 120 159 203 247 298 359
#     4  11  21  40  56  92 125 160 199 243 305 356
#     4  11  22  36  62  88 126 155 194 251 302 356
#     4  11  22  38  61  86 122 161 201 247 294 355
#
# _framework density 19.107606000000001
#
# number of rings (size 3 to 8) (size 9 to 14) (size 15 to 20)
#    0.000    1.167    4.167    2.750    0.000    2.333 
#    0.000    1.667    1.833    0.000    0.000    0.000 
#    0.000    0.000    0.000    0.000    0.000    0.000 
#
# Total GULP energy -595509.918984 kJ/mol
# GULP energy per Si atom -12406.456646 kJ/mol
# Density = 1.906412 g / cm^3
# Si number density = 19.107606 Si / 1000 Ang^3
#
#
#
# Elastic Constant Matrix: (Units=GPa)
#
#
# Indices 1 2 3 4 5 6 
#
# 1 61.3351 19.1480 15.5257 0.0000 0.0000 0.0000
# 2 19.1480 78.1615 32.6253 0.0000 0.0000 0.0000
# 3 15.5257 32.6253 96.7951 0.0000 0.0000 0.0000
# 4 0.0000 0.0000 0.0000 36.2198 0.0000 0.0000
# 5 0.0000 0.0000 0.0000 0.0000 24.4372 0.0000
# 6 0.0000 0.0000 0.0000 0.0000 0.0000 31.9030
#
#
#
# Elastic Compliance Matrix: (Units=1/GPa)
#
#
# Indices 1 2 3 4 5 6 
#
# 1 0.017869 -0.003702 -0.001618 0.000000 0.000000 0.000000
# 2 -0.003702 0.015656 -0.004683 0.000000 0.000000 0.000000
# 3 -0.001618 -0.004683 0.012169 0.000000 0.000000 0.000000
# 4 0.000000 0.000000 0.000000 0.027609 0.000000 0.000000
# 5 0.000000 0.000000 0.000000 0.000000 0.040921 0.000000
# 6 0.000000 0.000000 0.000000 0.000000 0.000000 0.031345
#
#
# Mechanical properties :
#
#
# Convention : Reuss Voigt Hill
#
# Bulk Modulus (GPa) = 38.93003 41.20997 40.07000
# Shear Modulus (GPa) = 28.71270 29.77817 29.24544
#
# Velocity S-wave (km/s) = 3.88065 3.95200 3.91649
# Velocity P-wave (km/s) = 6.36377 6.51449 6.43957
#
# Compressibility (1/GPa) = 0.02568711
#
# Stress axis : x y z
#
# Youngs Moduli (GPa) = 55.96195 63.87449 82.17511
#
# Poissons Ratio (x) = 0.23647 0.13299
# Poissons Ratio (y) = 0.20718 0.38483
# Poissons Ratio (z) = 0.09057 0.29913
#
# Static dielectric constant tensor:
#      x y z
#    x 3.308250 0.000000 0.000000 
#    y 0.000000 3.484950 0.000000 
#    z 0.000000 0.000000 3.483090 
# 
# 
# High freq. dielectric constant tensor:
#      x y z
#    x 1.746360 0.000000 0.000000 
#    y 0.000000 1.746210 0.000000 
#    z 0.000000 0.000000 1.749310 
# 
# From -- ./inp_files/42578.got.cif
#   From: 2010.03.12/outbox.cif.g09.slc.cpg/sg63_22_cif.got.tgz:42578.got - 2010.04.10 19:34:48.
