data_PCOD8260609
_publ_section_title
;
Structure prediction by ZEFSAII (Michael W. Deem and Ramdas Pophale) SiO2 
 PCOD8260609
Probable space group: C M C M
;
_chemical_formula_sum "Si O2"
_cell_formula_units_Z 80
_cell_length_a 25.292023
_cell_length_b 11.233707
_cell_length_c 14.965267
_cell_angle_alpha 90.000000
_cell_angle_beta 90.000000
_cell_angle_gamma 90.000000
_cell_volume 4251.979187
_symmetry_space_group_name_H-M "C M C M"
_symmetry_group_IT_number 63
_symmetry_cell_setting 'orthorhombic'
loop_
_space_group_symop_operation_xyz
x,y,z
-x,-y,1/2+z
x,-y,-z
-x,y,1/2-z
-x,-y,-z
x,y,1/2-z
-x,y,z
x,-y,1/2+z
1/2+x,1/2+y,z
1/2-x,1/2-y,1/2+z
1/2+x,1/2-y,-z
1/2-x,1/2+y,1/2-z
1/2-x,1/2-y,-z
1/2+x,1/2+y,1/2-z
1/2-x,1/2+y,z
1/2+x,1/2-y,1/2+z
loop_
_atom_site_type_symbol
_atom_site_label
_atom_site_fract_x
_atom_site_fract_y
_atom_site_fract_z
Si Si1 0.560599 0.779657 0.649339
Si Si2 0.629476 0.363466 0.477220
Si Si3 0.276896 0.238936 0.094148
Si Si4 0.165660 0.728855 0.845396
Si Si5 0.143838 0.469570 0.898671
O O1 0.567863 0.727519 0.750000
O O2 0.500000 0.812504 0.630963
O O3 0.577610 0.684014 0.573700
O O4 0.594162 0.900351 0.642085
O O5 0.622393 0.500000 0.500000
O O6 0.677495 0.340874 0.406741
O O7 0.639056 0.293623 0.570275
O O8 0.229516 0.258324 0.163042
O O9 0.303263 0.110334 0.108925
O O10 0.250000 0.250000 0.000000
O O11 0.143767 0.779227 0.750000
O O12 0.152667 0.589649 0.845160
O O13 0.130973 0.500000 0.000000
#
# Coordination Sequence:
#
# PCOD8260609 Si02
#       5
#    16  16  16  16  16
#     4  10  22  41  65  89 112 146 194 245 299 351
#     4  10  22  39  60  83 118 154 193 241 289 347
#     4   9  19  32  54  78 113 153 193 226 277 333
#     4  11  23  36  56  86 120 158 198 238 284 338
#     4  11  19  38  61  84 115 155 192 242 291 341
#
# _framework density 18.814768000000001
#
# number of rings (size 3 to 8) (size 9 to 14) (size 15 to 20)
#    0.000    1.800    6.000    0.600    5.600    5.600 
#    0.000    0.000    0.000    0.600    0.000    0.000 
#    0.000    0.000    0.000    0.000    0.000    0.000 
#
# Total GULP energy -495604.398669 kJ/mol
# GULP energy per Si atom -12390.109967 kJ/mol
# Density = 1.877194 g / cm^3
# Si number density = 18.814768 Si / 1000 Ang^3
#
#
#
# Elastic Constant Matrix: (Units=GPa)
#
#
# Indices 1 2 3 4 5 6 
#
# 1 105.3084 51.5262 45.4998 0.0000 0.0000 0.0000
# 2 51.5262 138.9409 41.9357 0.0000 0.0000 0.0000
# 3 45.4998 41.9357 123.7021 0.0000 0.0000 0.0000
# 4 0.0000 0.0000 0.0000 11.7387 0.0000 0.0000
# 5 0.0000 0.0000 0.0000 0.0000 22.2672 0.0000
# 6 0.0000 0.0000 0.0000 0.0000 0.0000 13.1649
#
#
#
# Elastic Compliance Matrix: (Units=1/GPa)
#
#
# Indices 1 2 3 4 5 6 
#
# 1 0.012800 -0.003705 -0.003452 0.000000 0.000000 0.000000
# 2 -0.003705 0.009090 -0.001719 0.000000 0.000000 0.000000
# 3 -0.003452 -0.001719 0.009936 0.000000 0.000000 0.000000
# 4 0.000000 0.000000 0.000000 0.085188 0.000000 0.000000
# 5 0.000000 0.000000 0.000000 0.000000 0.044909 0.000000
# 6 0.000000 0.000000 0.000000 0.000000 0.000000 0.075959
#
#
# Mechanical properties :
#
#
# Convention : Reuss Voigt Hill
#
# Bulk Modulus (GPa) = 71.04912 71.76389 71.40651
# Shear Modulus (GPa) = 19.20661 24.70016 21.95339
#
# Velocity S-wave (km/s) = 3.19850 3.62720 3.41958
# Velocity P-wave (km/s) = 7.17530 7.46775 7.32298
#
# Compressibility (1/GPa) = 0.01407477
#
# Stress axis : x y z
#
# Youngs Moduli (GPa) = 78.12316 110.00981 100.64026
#
# Poissons Ratio (x) = 0.40759 0.34742
# Poissons Ratio (y) = 0.28945 0.17298
# Poissons Ratio (z) = 0.26969 0.18909
#
# Static dielectric constant tensor:
#      x y z
#    x 3.810340 0.000000 0.000000 
#    y 0.000000 3.427020 0.000000 
#    z 0.000000 0.000000 3.660860 
# 
# 
# High freq. dielectric constant tensor:
#      x y z
#    x 1.716880 0.000000 0.000000 
#    y 0.000000 1.718930 0.000000 
#    z 0.000000 0.000000 1.741170 
# 
# From -- ./inp_files/36471.got.cif
#   From: 2010.03.12/outbox.cif.g09.slc.cpg/sg63_19_cif.got.tgz:36471.got - 2010.04.10 19:34:48.
