data_PCOD8260868
_publ_section_title
;
Structure prediction by ZEFSAII (Michael W. Deem and Ramdas Pophale) SiO2 
 PCOD8260868
Probable space group: C M C M
;
_chemical_formula_sum "Si O2"
_cell_formula_units_Z 52
_cell_length_a 8.073441
_cell_length_b 19.598686
_cell_length_c 14.842103
_cell_angle_alpha 90.000000
_cell_angle_beta 90.000000
_cell_angle_gamma 90.000000
_cell_volume 2348.448668
_symmetry_space_group_name_H-M "C M C M"
_symmetry_group_IT_number 63
_symmetry_cell_setting 'orthorhombic'
loop_
_space_group_symop_operation_xyz
x,y,z
-x,-y,1/2+z
x,-y,-z
-x,y,1/2-z
-x,-y,-z
x,y,1/2-z
-x,y,z
x,-y,1/2+z
1/2+x,1/2+y,z
1/2-x,1/2-y,1/2+z
1/2+x,1/2-y,-z
1/2-x,1/2+y,1/2-z
1/2-x,1/2-y,-z
1/2+x,1/2+y,1/2-z
1/2-x,1/2+y,z
1/2+x,1/2-y,1/2+z
loop_
_atom_site_type_symbol
_atom_site_label
_atom_site_fract_x
_atom_site_fract_y
_atom_site_fract_z
Si Si1 0.689078 0.295198 0.580540
Si Si2 0.000000 0.489734 0.110297
Si Si3 0.314199 0.273226 0.250000
Si Si4 0.178763 0.049501 0.415164
Si Si5 0.000000 0.372510 0.250000
O O1 0.500000 0.277826 0.604549
O O2 0.750000 0.250000 0.500000
O O3 0.800596 0.277080 0.665598
O O4 0.711832 0.373673 0.551696
O O5 0.167440 0.526080 0.147390
O O6 0.000000 0.415010 0.155673
O O7 0.000000 0.500000 0.000000
O O8 0.500000 0.306479 0.250000
O O9 0.170366 0.329957 0.250000
O O10 0.000000 0.046004 0.363727
O O11 0.169880 0.000000 0.500000
#
# Coordination Sequence:
#
# PCOD8260868 Si02
#       5
#    16   8   8  16   4
#     4  11  24  43  73 107 146 191 242 303 361 438
#     4  10  24  42  72  98 142 185 228 296 350 438
#     4  12  28  47  71 105 147 191 249 306 369 437
#     4   9  21  40  66 101 137 177 232 280 349 425
#     4  12  28  50  70 110 144 180 250 300 368 446
#
# _framework density 22.142275999999999
#
# number of rings (size 3 to 8) (size 9 to 14) (size 15 to 20)
#    0.000    1.538    1.538    0.923   12.923    2.462 
#    0.000    1.538    0.000    0.000    0.000    0.000 
#    0.000    0.000    0.000    0.000    0.000    0.000 
#
# Total GULP energy -322100.073642 kJ/mol
# GULP energy per Si atom -12388.464371 kJ/mol
# Density = 2.209188 g / cm^3
# Si number density = 22.142276 Si / 1000 Ang^3
#
#
#
# Elastic Constant Matrix: (Units=GPa)
#
#
# Indices 1 2 3 4 5 6 
#
# 1 224.7102 81.9597 22.2972 0.0000 0.0000 0.0000
# 2 81.9597 162.3739 52.1980 0.0000 0.0000 0.0000
# 3 22.2972 52.1980 115.4205 0.0000 0.0000 0.0000
# 4 0.0000 0.0000 0.0000 38.2884 0.0000 0.0000
# 5 0.0000 0.0000 0.0000 0.0000 17.9325 0.0000
# 6 0.0000 0.0000 0.0000 0.0000 0.0000 35.5389
#
#
#
# Elastic Compliance Matrix: (Units=1/GPa)
#
#
# Indices 1 2 3 4 5 6 
#
# 1 0.005459 -0.002828 0.000224 0.000000 0.000000 0.000000
# 2 -0.002828 0.008671 -0.003375 0.000000 0.000000 0.000000
# 3 0.000224 -0.003375 0.010147 0.000000 0.000000 0.000000
# 4 0.000000 0.000000 0.000000 0.026118 0.000000 0.000000
# 5 0.000000 0.000000 0.000000 0.000000 0.055765 0.000000
# 6 0.000000 0.000000 0.000000 0.000000 0.000000 0.028138
#
#
# Mechanical properties :
#
#
# Convention : Reuss Voigt Hill
#
# Bulk Modulus (GPa) = 81.16889 90.60161 85.88525
# Shear Modulus (GPa) = 33.25320 41.42194 37.33757
#
# Velocity S-wave (km/s) = 3.87951 4.32987 4.11086
# Velocity P-wave (km/s) = 7.53690 8.12427 7.83609
#
# Compressibility (1/GPa) = 0.01231999
#
# Stress axis : x y z
#
# Youngs Moduli (GPa) = 183.17396 115.32811 98.55101
#
# Poissons Ratio (x) = 0.32611 -0.02209
# Poissons Ratio (y) = 0.51796 0.33262
# Poissons Ratio (z) = -0.04106 0.38924
#
# Static dielectric constant tensor:
#      x y z
#    x 5.662870 0.000000 0.000000 
#    y 0.000000 4.112080 0.000000 
#    z 0.000000 0.000000 3.590220 
# 
# 
# High freq. dielectric constant tensor:
#      x y z
#    x 1.909910 0.000000 0.000000 
#    y 0.000000 1.875420 0.000000 
#    z 0.000000 0.000000 1.839770 
# 
# From -- ./inp_files/39555.got.cif
#   From: 2010.03.12/outbox.cif.g09.slc.cpg/sg63_20_cif.got.tgz:39555.got - 2010.04.10 19:34:48.
