data_PCOD8260634
_publ_section_title
;
Structure prediction by ZEFSAII (Michael W. Deem and Ramdas Pophale) SiO2 
 PCOD8260634
Probable space group: C M C M
;
_chemical_formula_sum "Si O2"
_cell_formula_units_Z 96
_cell_length_a 24.113311
_cell_length_b 11.653881
_cell_length_c 17.200874
_cell_angle_alpha 90.000000
_cell_angle_beta 90.000000
_cell_angle_gamma 90.000000
_cell_volume 4833.680505
_symmetry_space_group_name_H-M "C M C M"
_symmetry_group_IT_number 63
_symmetry_cell_setting 'orthorhombic'
loop_
_space_group_symop_operation_xyz
x,y,z
-x,-y,1/2+z
x,-y,-z
-x,y,1/2-z
-x,-y,-z
x,y,1/2-z
-x,y,z
x,-y,1/2+z
1/2+x,1/2+y,z
1/2-x,1/2-y,1/2+z
1/2+x,1/2-y,-z
1/2-x,1/2+y,1/2-z
1/2-x,1/2-y,-z
1/2+x,1/2+y,1/2-z
1/2-x,1/2+y,z
1/2+x,1/2-y,1/2+z
loop_
_atom_site_type_symbol
_atom_site_label
_atom_site_fract_x
_atom_site_fract_y
_atom_site_fract_z
Si Si1 0.000000 0.882953 0.949602
Si Si2 0.121111 0.357321 0.397377
Si Si3 0.307137 0.210034 0.461040
Si Si4 0.293304 0.980667 0.661383
Si Si5 0.000000 0.621336 0.547053
Si Si6 0.604095 0.382711 0.660978
Si Si7 0.312950 0.448030 0.084668
O O1 0.947138 0.892567 0.895778
O O2 0.000000 0.753761 0.991974
O O3 0.000000 0.000000 0.000000
O O4 0.150599 0.355986 0.481941
O O5 0.147283 0.458110 0.346070
O O6 0.133538 0.239248 0.352522
O O7 0.055525 0.382901 0.401659
O O8 0.250000 0.250000 0.500000
O O9 0.291658 0.134718 0.387533
O O10 0.338904 0.322046 0.428165
O O11 0.281324 0.947990 0.750000
O O12 0.246053 0.064774 0.627729
O O13 0.000000 0.500000 0.500000
O O14 0.585239 0.396417 0.750000
O O15 0.647053 0.481281 0.639967
O O16 0.303231 0.500000 0.000000
#
# Coordination Sequence:
#
# PCOD8260634 Si02
#       7
#     8  16  16  16   8  16  16
#     4  10  23  41  66  95 128 170 218 264 322 392
#     4  11  22  42  67  93 125 164 215 265 319 383
#     4  12  22  40  64  86 124 168 213 259 313 386
#     4  12  25  39  59  90 127 165 209 263 324 378
#     4  10  22  39  68  99 120 160 220 274 312 374
#     4  11  23  40  64  95 127 162 209 267 323 380
#     4  12  22  39  61  90 122 164 208 257 313 379
#
# _framework density 19.860641000000001
#
# number of rings (size 3 to 8) (size 9 to 14) (size 15 to 20)
#    0.000    0.667    5.000    3.250    2.333    1.333 
#    0.000    1.250    0.000    0.000    0.000    1.167 
#    0.000    0.000    0.000    0.000    0.000    0.000 
#
# Total GULP energy -594989.676778 kJ/mol
# GULP energy per Si atom -12395.618266 kJ/mol
# Density = 1.981544 g / cm^3
# Si number density = 19.860641 Si / 1000 Ang^3
#
#
#
# Elastic Constant Matrix: (Units=GPa)
#
#
# Indices 1 2 3 4 5 6 
#
# 1 92.5247 23.7225 21.2989 0.0000 0.0000 0.0000
# 2 23.7225 129.2906 45.9936 0.0000 0.0000 0.0000
# 3 21.2989 45.9936 128.0474 0.0000 0.0000 0.0000
# 4 0.0000 0.0000 0.0000 29.3571 0.0000 0.0000
# 5 0.0000 0.0000 0.0000 0.0000 57.6323 0.0000
# 6 0.0000 0.0000 0.0000 0.0000 0.0000 27.5933
#
#
#
# Elastic Compliance Matrix: (Units=1/GPa)
#
#
# Indices 1 2 3 4 5 6 
#
# 1 0.011535 -0.001644 -0.001328 0.000000 0.000000 0.000000
# 2 -0.001644 0.009102 -0.002996 0.000000 0.000000 0.000000
# 3 -0.001328 -0.002996 0.009107 0.000000 0.000000 0.000000
# 4 0.000000 0.000000 0.000000 0.034063 0.000000 0.000000
# 5 0.000000 0.000000 0.000000 0.000000 0.017351 0.000000
# 6 0.000000 0.000000 0.000000 0.000000 0.000000 0.036241
#
#
# Mechanical properties :
#
#
# Convention : Reuss Voigt Hill
#
# Bulk Modulus (GPa) = 56.15595 59.09918 57.62756
# Shear Modulus (GPa) = 36.96281 40.17306 38.56794
#
# Velocity S-wave (km/s) = 4.31874 4.50238 4.41151
# Velocity P-wave (km/s) = 7.29418 7.53990 7.41805
#
# Compressibility (1/GPa) = 0.01780755
#
# Stress axis : x y z
#
# Youngs Moduli (GPa) = 86.69128 109.86709 109.81005
#
# Poissons Ratio (x) = 0.18062 0.14585
# Poissons Ratio (y) = 0.14252 0.32898
# Poissons Ratio (z) = 0.11514 0.32915
#
# Static dielectric constant tensor:
#      x y z
#    x 3.035520 0.000000 0.000000 
#    y 0.000000 4.385000 0.000000 
#    z 0.000000 0.000000 3.504870 
# 
# 
# High freq. dielectric constant tensor:
#      x y z
#    x 1.778500 0.000000 0.000000 
#    y 0.000000 1.790910 0.000000 
#    z 0.000000 0.000000 1.757020 
# 
# From -- ./inp_files/49004.got.cif
#   From: 2010.03.12/outbox.cif.g09.slc.cpg/sg63_25_cif.got.tgz:49004.got - 2010.04.10 19:34:48.
