data_PCOD8260147
_publ_section_title
;
Structure prediction by ZEFSAII (Michael W. Deem and Ramdas Pophale) SiO2 
 PCOD8260147
Probable space group: C M C M
;
_chemical_formula_sum "Si O2"
_cell_formula_units_Z 80
_cell_length_a 8.983060
_cell_length_b 25.426299
_cell_length_c 17.948011
_cell_angle_alpha 90.000000
_cell_angle_beta 90.000000
_cell_angle_gamma 90.000000
_cell_volume 4099.432853
_symmetry_space_group_name_H-M "C M C M"
_symmetry_group_IT_number 63
_symmetry_cell_setting 'orthorhombic'
loop_
_space_group_symop_operation_xyz
x,y,z
-x,-y,1/2+z
x,-y,-z
-x,y,1/2-z
-x,-y,-z
x,y,1/2-z
-x,y,z
x,-y,1/2+z
1/2+x,1/2+y,z
1/2-x,1/2-y,1/2+z
1/2+x,1/2-y,-z
1/2-x,1/2+y,1/2-z
1/2-x,1/2-y,-z
1/2+x,1/2+y,1/2-z
1/2-x,1/2+y,z
1/2+x,1/2-y,1/2+z
loop_
_atom_site_type_symbol
_atom_site_label
_atom_site_fract_x
_atom_site_fract_y
_atom_site_fract_z
Si Si1 0.671391 0.801607 0.662516
Si Si2 0.176784 0.815700 0.167459
Si Si3 0.325330 0.399227 0.597911
Si Si4 0.173423 0.503551 0.335063
Si Si5 0.824538 0.912825 0.072842
O O1 0.691886 0.811721 0.750000
O O2 0.500000 0.810450 0.639515
O O3 0.725794 0.742611 0.641810
O O4 0.775644 0.840208 0.615936
O O5 0.240489 0.828134 0.250000
O O6 0.238040 0.859369 0.110431
O O7 0.000000 0.816810 0.170785
O O8 0.500000 0.404716 0.611259
O O9 0.240711 0.438809 0.652466
O O10 0.281501 0.412381 0.513342
O O11 0.203771 0.486601 0.250000
O O12 0.249843 0.462898 0.390167
O O13 0.000000 0.505739 0.353073
O O14 0.000000 0.917813 0.084998
#
# Coordination Sequence:
#
# PCOD8260147 Si02
#       5
#    16  16  16  16  16
#     4   9  18  34  56  80 106 141 185 224 260 312
#     4   8  15  31  56  81 105 139 181 220 261 313
#     4  11  23  36  53  81 113 143 178 220 267 319
#     4  11  24  40  58  80 105 137 180 225 269 321
#     4  10  21  37  57  82 111 142 178 219 265 321
#
# _framework density 19.514894999999999
#
# number of rings (size 3 to 8) (size 9 to 14) (size 15 to 20)
#    0.000    2.200    0.000    4.200    0.000   10.000 
#    0.000    1.000    0.000    1.200    0.000    0.000 
#    0.000    0.000    0.000    0.000    0.000    0.000 
#
# Total GULP energy -496084.580759 kJ/mol
# GULP energy per Si atom -12402.114519 kJ/mol
# Density = 1.947048 g / cm^3
# Si number density = 19.514895 Si / 1000 Ang^3
#
#
#
# Elastic Constant Matrix: (Units=GPa)
#
#
# Indices 1 2 3 4 5 6 
#
# 1 36.3092 22.7690 37.0319 0.0000 0.0000 0.0000
# 2 22.7690 104.0759 28.4071 0.0000 0.0000 0.0000
# 3 37.0319 28.4071 67.7272 0.0000 0.0000 0.0000
# 4 0.0000 0.0000 0.0000 32.2370 0.0000 0.0000
# 5 0.0000 0.0000 0.0000 0.0000 22.8049 0.0000
# 6 0.0000 0.0000 0.0000 0.0000 0.0000 31.0666
#
#
#
# Elastic Compliance Matrix: (Units=1/GPa)
#
#
# Indices 1 2 3 4 5 6 
#
# 1 0.064547 -0.005068 -0.033167 0.000000 0.000000 0.000000
# 2 -0.005068 0.011249 -0.001947 0.000000 0.000000 0.000000
# 3 -0.033167 -0.001947 0.033717 0.000000 0.000000 0.000000
# 4 0.000000 0.000000 0.000000 0.031020 0.000000 0.000000
# 5 0.000000 0.000000 0.000000 0.000000 0.043850 0.000000
# 6 0.000000 0.000000 0.000000 0.000000 0.000000 0.032189
#
#
# Mechanical properties :
#
#
# Convention : Reuss Voigt Hill
#
# Bulk Modulus (GPa) = 34.30794 42.72537 38.51665
# Shear Modulus (GPa) = 16.30516 25.21532 20.76024
#
# Velocity S-wave (km/s) = 2.89368 3.59849 3.26516
# Velocity P-wave (km/s) = 5.36498 6.26153 5.83051
#
# Compressibility (1/GPa) = 0.02914777
#
# Stress axis : x y z
#
# Youngs Moduli (GPa) = 15.49266 88.90043 29.65888
#
# Poissons Ratio (x) = 0.45057 0.98370
# Poissons Ratio (y) = 0.07852 0.05774
# Poissons Ratio (z) = 0.51385 0.17307
#
# Static dielectric constant tensor:
#      x y z
#    x 3.292860 0.000000 0.000000 
#    y 0.000000 3.769810 0.000000 
#    z 0.000000 0.000000 3.652460 
# 
# 
# High freq. dielectric constant tensor:
#      x y z
#    x 1.736740 0.000000 0.000000 
#    y 0.000000 1.776510 0.000000 
#    z 0.000000 0.000000 1.761570 
# 
# From -- ./inp_files/40510.got.cif
#   From: 2010.03.12/outbox.cif.g09.slc.cpg/sg63_21_cif.got.tgz:40510.got - 2010.04.10 19:34:48.
