data_PCOD8260155
_publ_section_title
;
Structure prediction by ZEFSAII (Michael W. Deem and Ramdas Pophale) SiO2 
 PCOD8260155
Probable space group: C M C M
;
_chemical_formula_sum "Si O2"
_cell_formula_units_Z 80
_cell_length_a 17.911251
_cell_length_b 9.026000
_cell_length_c 25.219940
_cell_angle_alpha 90.000000
_cell_angle_beta 90.000000
_cell_angle_gamma 90.000000
_cell_volume 4077.230817
_symmetry_space_group_name_H-M "C M C M"
_symmetry_group_IT_number 63
_symmetry_cell_setting 'orthorhombic'
loop_
_space_group_symop_operation_xyz
x,y,z
-x,-y,1/2+z
x,-y,-z
-x,y,1/2-z
-x,-y,-z
x,y,1/2-z
-x,y,z
x,-y,1/2+z
1/2+x,1/2+y,z
1/2-x,1/2-y,1/2+z
1/2+x,1/2-y,-z
1/2-x,1/2+y,1/2-z
1/2-x,1/2-y,-z
1/2+x,1/2+y,1/2-z
1/2-x,1/2+y,z
1/2+x,1/2-y,1/2+z
loop_
_atom_site_type_symbol
_atom_site_label
_atom_site_fract_x
_atom_site_fract_y
_atom_site_fract_z
Si Si1 0.165255 0.565975 0.903465
Si Si2 0.916180 0.987410 0.620557
Si Si3 0.915357 0.234005 0.475622
Si Si4 0.182088 0.224677 0.921147
Si Si5 0.913088 0.713839 0.811030
O O1 0.100363 0.610075 0.945343
O O2 0.184951 0.394683 0.904401
O O3 0.234274 0.665300 0.923104
O O4 0.138718 0.601418 0.843847
O O5 0.904795 0.899233 0.565758
O O6 0.896739 0.881226 0.669891
O O7 0.000000 0.047212 0.625345
O O8 0.862537 0.129593 0.622746
O O9 0.857822 0.205248 0.522603
O O10 0.000000 0.237963 0.497701
O O11 0.890660 0.699167 0.750000
O O12 0.000000 0.675154 0.820956
#
# Coordination Sequence:
#
# PCOD8260155 Si02
#       5
#    16  16  16  16  16
#     4  11  23  37  55  82 115 150 189 231 276 329
#     4   9  19  36  59  86 113 146 187 226 272 332
#     4  10  21  37  57  82 115 153 188 226 276 332
#     4  12  23  36  54  81 117 154 188 228 275 327
#     4   9  19  40  66  86 109 142 180 228 284 336
#
# _framework density 19.62116
#
# number of rings (size 3 to 8) (size 9 to 14) (size 15 to 20)
#    0.000    1.800    0.000    6.600    0.000    7.200 
#    0.000    5.000    0.000    2.400    0.000    0.000 
#    0.000    0.000    0.000    0.000    0.000    0.000 
#
# Total GULP energy -496051.924357 kJ/mol
# GULP energy per Si atom -12401.298109 kJ/mol
# Density = 1.957650 g / cm^3
# Si number density = 19.621160 Si / 1000 Ang^3
#
#
#
# Elastic Constant Matrix: (Units=GPa)
#
#
# Indices 1 2 3 4 5 6 
#
# 1 97.4827 51.5243 59.3198 0.0000 0.0000 0.0000
# 2 51.5243 130.7223 28.6997 0.0000 0.0000 0.0000
# 3 59.3198 28.6997 112.5656 0.0000 0.0000 0.0000
# 4 0.0000 0.0000 0.0000 12.6390 0.0000 0.0000
# 5 0.0000 0.0000 0.0000 0.0000 19.9416 0.0000
# 6 0.0000 0.0000 0.0000 0.0000 0.0000 29.3462
#
#
#
# Elastic Compliance Matrix: (Units=1/GPa)
#
#
# Indices 1 2 3 4 5 6 
#
# 1 0.018023 -0.005316 -0.008142 0.000000 0.000000 0.000000
# 2 -0.005316 0.009671 0.000336 0.000000 0.000000 0.000000
# 3 -0.008142 0.000336 0.013089 0.000000 0.000000 0.000000
# 4 0.000000 0.000000 0.000000 0.079120 0.000000 0.000000
# 5 0.000000 0.000000 0.000000 0.000000 0.050146 0.000000
# 6 0.000000 0.000000 0.000000 0.000000 0.000000 0.034076
#
#
# Mechanical properties :
#
#
# Convention : Reuss Voigt Hill
#
# Bulk Modulus (GPa) = 68.78636 68.87313 68.82975
# Shear Modulus (GPa) = 21.25697 25.80047 23.52872
#
# Velocity S-wave (km/s) = 3.29503 3.63013 3.46663
# Velocity P-wave (km/s) = 7.04341 7.26279 7.15394
#
# Compressibility (1/GPa) = 0.01453777
#
# Stress axis : x y z
#
# Youngs Moduli (GPa) = 55.48557 103.39707 76.40049
#
# Poissons Ratio (x) = 0.54967 0.62207
# Poissons Ratio (y) = 0.29497 -0.02564
# Poissons Ratio (z) = 0.45178 -0.03470
#
# Static dielectric constant tensor:
#      x y z
#    x 3.725000 0.000000 0.000000 
#    y 0.000000 3.551110 0.000000 
#    z 0.000000 0.000000 3.442360 
# 
# 
# High freq. dielectric constant tensor:
#      x y z
#    x 1.775600 0.000000 0.000000 
#    y 0.000000 1.760470 0.000000 
#    z 0.000000 0.000000 1.741800 
# 
# From -- ./inp_files/69708.got.cif
#   From: 2010.03.12/outbox.cif.g09.slc.cpg/sg63_35_cif.got.tgz:69708.got - 2010.04.10 19:34:48.
