data_PCOD8260106
_publ_section_title
;
Structure prediction by ZEFSAII (Michael W. Deem and Ramdas Pophale) SiO2 
 PCOD8260106
Probable space group: C M C M
;
_chemical_formula_sum "Si O2"
_cell_formula_units_Z 80
_cell_length_a 25.024758
_cell_length_b 18.319513
_cell_length_c 9.070970
_cell_angle_alpha 90.000000
_cell_angle_beta 90.000000
_cell_angle_gamma 90.000000
_cell_volume 4158.508000
_symmetry_space_group_name_H-M "C M C M"
_symmetry_group_IT_number 63
_symmetry_cell_setting 'orthorhombic'
loop_
_space_group_symop_operation_xyz
x,y,z
-x,-y,1/2+z
x,-y,-z
-x,y,1/2-z
-x,-y,-z
x,y,1/2-z
-x,y,z
x,-y,1/2+z
1/2+x,1/2+y,z
1/2-x,1/2-y,1/2+z
1/2+x,1/2-y,-z
1/2-x,1/2+y,1/2-z
1/2-x,1/2-y,-z
1/2+x,1/2+y,1/2-z
1/2-x,1/2+y,z
1/2+x,1/2-y,1/2+z
loop_
_atom_site_type_symbol
_atom_site_label
_atom_site_fract_x
_atom_site_fract_y
_atom_site_fract_z
Si Si1 0.248440 0.076730 0.078039
Si Si2 0.062418 0.925677 0.079158
Si Si3 0.645758 0.669136 0.424077
Si Si4 0.439607 0.073375 0.421883
Si Si5 0.346097 0.820776 0.922770
O O1 0.249812 0.061452 0.250000
O O2 0.193903 0.116000 0.030548
O O3 0.297904 0.126789 0.030426
O O4 0.253296 0.000000 0.000000
O O5 0.078071 0.931936 0.250000
O O6 0.000000 0.910856 0.057446
O O7 0.092380 0.858059 0.004891
O O8 0.080401 0.000000 0.000000
O O9 0.636226 0.670806 0.250000
O O10 0.659908 0.749189 0.479912
O O11 0.435887 0.057221 0.250000
O O12 0.500000 0.093414 0.470693
O O13 0.401837 0.140578 0.465328
O O14 0.419405 0.000000 0.500000
O O15 0.343762 0.800639 0.750000
#
# Coordination Sequence:
#
# PCOD8260106 Si02
#       5
#    16  16  16  16  16
#     4  10  22  38  57  81 108 142 184 229 278 331
#     4  10  21  38  60  84 111 145 184 226 273 326
#     4  11  23  37  55  82 113 145 184 228 276 330
#     4   9  18  33  54  79 106 138 178 222 267 318
#     4  10  21  37  55  78 111 147 183 226 275 326
#
# _framework density 19.237667999999999
#
# number of rings (size 3 to 8) (size 9 to 14) (size 15 to 20)
#    0.000    2.000    0.000    3.000    0.000    6.800 
#    0.000    2.000    0.000    0.000    0.000    0.000 
#    0.000    0.000    0.000    0.000    0.000    0.000 
#
# Total GULP energy -496208.062147 kJ/mol
# GULP energy per Si atom -12405.201554 kJ/mol
# Density = 1.919388 g / cm^3
# Si number density = 19.237668 Si / 1000 Ang^3
#
#
#
# Elastic Constant Matrix: (Units=GPa)
#
#
# Indices 1 2 3 4 5 6 
#
# 1 96.9597 64.3263 53.5499 0.0000 0.0000 0.0000
# 2 64.3263 147.7145 68.0976 0.0000 0.0000 0.0000
# 3 53.5499 68.0976 83.1247 0.0000 0.0000 0.0000
# 4 0.0000 0.0000 0.0000 42.6931 0.0000 0.0000
# 5 0.0000 0.0000 0.0000 0.0000 22.0833 0.0000
# 6 0.0000 0.0000 0.0000 0.0000 0.0000 21.7944
#
#
#
# Elastic Compliance Matrix: (Units=1/GPa)
#
#
# Indices 1 2 3 4 5 6 
#
# 1 0.017268 -0.003843 -0.007976 0.000000 0.000000 0.000000
# 2 -0.003843 0.011733 -0.007137 0.000000 0.000000 0.000000
# 3 -0.007976 -0.007137 0.023015 0.000000 0.000000 0.000000
# 4 0.000000 0.000000 0.000000 0.023423 0.000000 0.000000
# 5 0.000000 0.000000 0.000000 0.000000 0.045283 0.000000
# 6 0.000000 0.000000 0.000000 0.000000 0.000000 0.045883
#
#
# Mechanical properties :
#
#
# Convention : Reuss Voigt Hill
#
# Bulk Modulus (GPa) = 70.89609 77.74961 74.32285
# Shear Modulus (GPa) = 23.89840 26.76918 25.33379
#
# Velocity S-wave (km/s) = 3.52841 3.73433 3.63283
# Velocity P-wave (km/s) = 7.31658 7.68743 7.50430
#
# Compressibility (1/GPa) = 0.01410515
#
# Stress axis : x y z
#
# Youngs Moduli (GPa) = 57.90982 85.22752 43.44986
#
# Poissons Ratio (x) = 0.32751 0.34657
# Poissons Ratio (y) = 0.22253 0.31008
# Poissons Ratio (z) = 0.46191 0.60824
#
# Static dielectric constant tensor:
#      x y z
#    x 3.758010 0.000000 0.000000 
#    y 0.000000 3.427760 0.000000 
#    z 0.000000 0.000000 3.453920 
# 
# 
# High freq. dielectric constant tensor:
#      x y z
#    x 1.762460 0.000000 0.000000 
#    y 0.000000 1.750580 0.000000 
#    z 0.000000 0.000000 1.748280 
# 
# From -- ./inp_files/11986.got.cif
#   From: 2010.03.12/outbox.cif.g09.slc.cpg/sg63_6_cif.got.tgz:11986.got - 2010.04.10 19:34:48.
