data_PCOD8260967
_publ_section_title
;
Structure prediction by ZEFSAII (Michael W. Deem and Ramdas Pophale) SiO2 
 PCOD8260967
Probable space group: C M C M
;
_chemical_formula_sum "Si O2"
_cell_formula_units_Z 64
_cell_length_a 23.294033
_cell_length_b 9.631011
_cell_length_c 13.974197
_cell_angle_alpha 90.000000
_cell_angle_beta 90.000000
_cell_angle_gamma 90.000000
_cell_volume 3135.042456
_symmetry_space_group_name_H-M "C M C M"
_symmetry_group_IT_number 63
_symmetry_cell_setting 'orthorhombic'
loop_
_space_group_symop_operation_xyz
x,y,z
-x,-y,1/2+z
x,-y,-z
-x,y,1/2-z
-x,-y,-z
x,y,1/2-z
-x,y,z
x,-y,1/2+z
1/2+x,1/2+y,z
1/2-x,1/2-y,1/2+z
1/2+x,1/2-y,-z
1/2-x,1/2+y,1/2-z
1/2-x,1/2-y,-z
1/2+x,1/2+y,1/2-z
1/2-x,1/2+y,z
1/2+x,1/2-y,1/2+z
loop_
_atom_site_type_symbol
_atom_site_label
_atom_site_fract_x
_atom_site_fract_y
_atom_site_fract_z
Si Si1 0.804258 0.045380 0.750000
Si Si2 0.500000 0.166797 0.861724
Si Si3 0.880091 0.630489 0.557733
Si Si4 0.379596 0.608063 0.572186
Si Si5 0.687586 0.787251 0.250000
Si Si6 0.500000 0.495129 0.860629
O O1 0.839210 0.107295 0.662679
O O2 0.742589 0.115472 0.750000
O O3 0.799406 0.877753 0.750000
O O4 0.500000 0.132479 0.750000
O O5 0.555257 0.097046 0.909748
O O6 0.500000 0.331496 0.880027
O O7 0.853485 0.500000 0.500000
O O8 0.879054 0.743997 0.475843
O O9 0.846499 0.676018 0.653256
O O10 0.350919 0.500000 0.500000
O O11 0.444485 0.563522 0.593672
O O12 0.500000 0.529737 0.750000
#
# Coordination Sequence:
#
# PCOD8260967 Si02
#       6
#     8   8  16  16   8   8
#     4  12  28  47  73 102 138 181 237 293 337 402
#     4  11  20  41  73 101 141 183 220 278 353 418
#     4  12  27  45  72 104 144 184 225 281 351 415
#     4  12  23  44  72 104 135 179 231 279 343 416
#     4  12  28  51  71 100 138 183 235 293 343 400
#     4  11  20  38  73 106 139 177 224 286 346 408
#
# _framework density 20.414397000000001
#
# number of rings (size 3 to 8) (size 9 to 14) (size 15 to 20)
#    0.000    0.250    7.500    1.500    3.500    2.000 
#    0.000    1.250    0.000    0.000    0.000    0.000 
#    0.000    0.000    0.000    0.000    0.000    0.000 
#
# Total GULP energy -396737.537462 kJ/mol
# GULP energy per Si atom -12398.048046 kJ/mol
# Density = 2.036793 g / cm^3
# Si number density = 20.414397 Si / 1000 Ang^3
#
#
#
# Elastic Constant Matrix: (Units=GPa)
#
#
# Indices 1 2 3 4 5 6 
#
# 1 106.6038 -0.0442 38.5805 0.0000 0.0000 0.0000
# 2 -0.0442 63.0204 34.0857 0.0000 0.0000 0.0000
# 3 38.5805 34.0857 147.2508 0.0000 0.0000 0.0000
# 4 0.0000 0.0000 0.0000 19.9235 0.0000 0.0000
# 5 0.0000 0.0000 0.0000 0.0000 12.5781 0.0000
# 6 0.0000 0.0000 0.0000 0.0000 0.0000 -22.1319
#
#
#
# Elastic Compliance Matrix: (Units=1/GPa)
#
#
# Indices 1 2 3 4 5 6 
#
# 1 0.010522 0.001713 -0.003153 0.000000 0.000000 0.000000
# 2 0.001713 0.018418 -0.004712 0.000000 0.000000 0.000000
# 3 -0.003153 -0.004712 0.008708 0.000000 0.000000 0.000000
# 4 0.000000 0.000000 0.000000 0.050192 0.000000 0.000000
# 5 0.000000 0.000000 0.000000 0.000000 0.079503 0.000000
# 6 0.000000 0.000000 0.000000 0.000000 0.000000 -0.045184
#
#
# Mechanical properties :
#
#
# Convention : Reuss Voigt Hill
#
# Bulk Modulus (GPa) = 39.45852 51.34656 45.40254
# Shear Modulus (GPa) = 34.98639 18.35748 26.67193
#
# Velocity S-wave (km/s) = 4.14431 3.00199 3.61851
# Velocity P-wave (km/s) = 6.50163 6.10104 6.30451
#
# Compressibility (1/GPa) = 0.02534307
#
# Stress axis : x y z
#
# Youngs Moduli (GPa) = 95.03446 54.29553 114.83518
#
# Poissons Ratio (x) = -0.09301 0.36213
# Poissons Ratio (y) = -0.16279 0.54112
# Poissons Ratio (z) = 0.29969 0.25585
#
# Static dielectric constant tensor:
#      x y z
#    x 3.808610 0.000000 0.000000 
#    y 0.000000 3.752890 0.000000 
#    z 0.000000 0.000000 4.343430 
# 
# 
# High freq. dielectric constant tensor:
#      x y z
#    x 1.795850 0.000000 0.000000 
#    y 0.000000 1.797490 0.000000 
#    z 0.000000 0.000000 1.831900 
# 
# From -- ./inp_files/36254.got.cif
#   From: 2010.03.12/outbox.cif.g09.slc.cpg/sg63_19_cif.got.tgz:36254.got - 2010.04.10 19:34:48.
