data_PCOD8260050
_publ_section_title
;
Structure prediction by ZEFSAII (Michael W. Deem and Ramdas Pophale) SiO2 
 PCOD8260050
Probable space group: C M C M
;
_chemical_formula_sum "Si O2"
_cell_formula_units_Z 64
_cell_length_a 23.504396
_cell_length_b 12.864741
_cell_length_c 9.244718
_cell_angle_alpha 90.000000
_cell_angle_beta 90.000000
_cell_angle_gamma 90.000000
_cell_volume 2795.399033
_symmetry_space_group_name_H-M "C M C M"
_symmetry_group_IT_number 63
_symmetry_cell_setting 'orthorhombic'
loop_
_space_group_symop_operation_xyz
x,y,z
-x,-y,1/2+z
x,-y,-z
-x,y,1/2-z
-x,-y,-z
x,y,1/2-z
-x,y,z
x,-y,1/2+z
1/2+x,1/2+y,z
1/2-x,1/2-y,1/2+z
1/2+x,1/2-y,-z
1/2-x,1/2+y,1/2-z
1/2-x,1/2-y,-z
1/2+x,1/2+y,1/2-z
1/2-x,1/2+y,z
1/2+x,1/2-y,1/2+z
loop_
_atom_site_type_symbol
_atom_site_label
_atom_site_fract_x
_atom_site_fract_y
_atom_site_fract_z
Si Si1 0.564769 0.587657 0.095574
Si Si2 0.672023 0.823386 0.581222
Si Si3 0.436898 0.821572 0.420795
Si Si4 0.781990 0.100096 0.580914
O O1 0.596893 0.588010 0.250000
O O2 0.500000 0.552327 0.120020
O O3 0.565177 0.701983 0.028536
O O4 0.596193 0.500000 0.000000
O O5 0.676565 0.851866 0.750000
O O6 0.613087 0.871908 0.517092
O O7 0.721612 0.878316 0.493387
O O8 0.675968 0.698284 0.557186
O O9 0.424855 0.833622 0.250000
O O10 0.500000 0.867281 0.457482
O O11 0.772182 0.078208 0.750000
O O12 0.808772 0.000000 0.500000
#
# Coordination Sequence:
#
# PCOD8260050 Si02
#       4
#    16  16  16  16
#     4   8  14  24  37  55  83 122 167 210 251 299
#     4  10  21  36  56  84 114 145 185 231 278 331
#     4   9  18  32  49  71 104 146 185 222 269 324
#     4  10  21  38  60  84 111 144 183 231 284 335
#
# _framework density 22.894763000000001
#
# number of rings (size 3 to 8) (size 9 to 14) (size 15 to 20)
#    0.000    2.750    0.000    3.000    0.000    5.500 
#    0.000    7.500    0.000    0.750    0.000    0.000 
#    0.000    0.000    0.000    0.000    0.000    0.000 
#
# Total GULP energy -396486.382794 kJ/mol
# GULP energy per Si atom -12390.199462 kJ/mol
# Density = 2.284265 g / cm^3
# Si number density = 22.894763 Si / 1000 Ang^3
#
#
#
# Elastic Constant Matrix: (Units=GPa)
#
#
# Indices 1 2 3 4 5 6 
#
# 1 139.8879 -9.6431 65.0970 0.0000 0.0000 0.0000
# 2 -9.6431 31.4713 14.2624 0.0000 0.0000 0.0000
# 3 65.0970 14.2624 125.9106 0.0000 0.0000 0.0000
# 4 0.0000 0.0000 0.0000 30.4490 0.0000 0.0000
# 5 0.0000 0.0000 0.0000 0.0000 31.9357 0.0000
# 6 0.0000 0.0000 0.0000 0.0000 0.0000 2.0142
#
#
#
# Elastic Compliance Matrix: (Units=1/GPa)
#
#
# Indices 1 2 3 4 5 6 
#
# 1 0.010359 0.005904 -0.006025 0.000000 0.000000 0.000000
# 2 0.005904 0.036860 -0.007228 0.000000 0.000000 0.000000
# 3 -0.006025 -0.007228 0.011876 0.000000 0.000000 0.000000
# 4 0.000000 0.000000 0.000000 0.032842 0.000000 0.000000
# 5 0.000000 0.000000 0.000000 0.000000 0.031313 0.000000
# 6 0.000000 0.000000 0.000000 0.000000 0.000000 0.496468
#
#
# Mechanical properties :
#
#
# Convention : Reuss Voigt Hill
#
# Bulk Modulus (GPa) = 22.52336 48.52249 35.52293
# Shear Modulus (GPa) = 7.70163 28.05002 17.87583
#
# Velocity S-wave (km/s) = 1.83609 3.50404 2.79728
# Velocity P-wave (km/s) = 3.78868 6.13276 5.09730
#
# Compressibility (1/GPa) = 0.04439834
#
# Stress axis : x y z
#
# Youngs Moduli (GPa) = 96.53305 27.12991 84.20593
#
# Poissons Ratio (x) = -0.16019 0.50731
# Poissons Ratio (y) = -0.56997 0.60863
# Poissons Ratio (z) = 0.58157 0.19609
#
# Static dielectric constant tensor:
#      x y z
#    x 4.018740 0.000000 0.000000 
#    y 0.000000 3.868520 0.000000 
#    z 0.000000 0.000000 4.062940 
# 
# 
# High freq. dielectric constant tensor:
#      x y z
#    x 1.909120 0.000000 0.000000 
#    y 0.000000 1.874320 0.000000 
#    z 0.000000 0.000000 1.898750 
# 
# From -- ./inp_files/9613.got.cif
#   From: 2010.03.12/outbox.cif.g09.slc.cpg/sg63_5_cif.got.tgz:9613.got - 2010.04.10 19:34:48.
