data_PCOD8260252
_publ_section_title
;
Structure prediction by ZEFSAII (Michael W. Deem and Ramdas Pophale) SiO2 
 PCOD8260252
Probable space group: C M C M
;
_chemical_formula_sum "Si O2"
_cell_formula_units_Z 96
_cell_length_a 9.166262
_cell_length_b 20.360054
_cell_length_c 27.666764
_cell_angle_alpha 90.000000
_cell_angle_beta 90.000000
_cell_angle_gamma 90.000000
_cell_volume 5163.326135
_symmetry_space_group_name_H-M "C M C M"
_symmetry_group_IT_number 63
_symmetry_cell_setting 'orthorhombic'
loop_
_space_group_symop_operation_xyz
x,y,z
-x,-y,1/2+z
x,-y,-z
-x,y,1/2-z
-x,-y,-z
x,y,1/2-z
-x,y,z
x,-y,1/2+z
1/2+x,1/2+y,z
1/2-x,1/2-y,1/2+z
1/2+x,1/2-y,-z
1/2-x,1/2+y,1/2-z
1/2-x,1/2-y,-z
1/2+x,1/2+y,1/2-z
1/2-x,1/2+y,z
1/2+x,1/2-y,1/2+z
loop_
_atom_site_type_symbol
_atom_site_label
_atom_site_fract_x
_atom_site_fract_y
_atom_site_fract_z
Si Si1 0.169677 0.009845 0.889336
Si Si2 0.830362 0.884272 0.955010
Si Si3 0.328476 0.122062 0.944548
Si Si4 0.669893 0.741917 0.104501
Si Si5 0.171047 0.295850 0.696070
Si Si6 0.333430 0.053104 0.194719
O O1 0.256619 0.073076 0.906666
O O2 0.000000 0.027232 0.886405
O O3 0.199656 0.949856 0.925257
O O4 0.226474 0.992054 0.836241
O O5 0.774723 0.822194 0.924157
O O6 0.000000 0.876680 0.968859
O O7 0.736706 0.889747 0.002974
O O8 0.500000 0.109056 0.946299
O O9 0.290949 0.195568 0.927876
O O10 0.500000 0.736544 0.115487
O O11 0.748331 0.748100 0.156254
O O12 0.217416 0.272741 0.750000
O O13 0.215713 0.371562 0.688945
O O14 0.000000 0.286845 0.689185
O O15 0.318177 0.030521 0.250000
O O16 0.500000 0.044418 0.177035
#
# Coordination Sequence:
#
# PCOD8260252 Si02
#       6
#    16  16  16  16  16  16
#     4  11  22  37  58  83 113 147 183 228 278 327
#     4  10  21  38  58  81 109 143 187 233 276 323
#     4  11  24  38  55  80 113 150 188 228 274 330
#     4  10  21  38  57  82 113 146 184 227 275 326
#     4   9  18  33  56  86 114 141 178 225 274 325
#     4   9  18  34  57  85 114 142 178 226 275 325
#
# _framework density 18.592666999999999
#
# number of rings (size 3 to 8) (size 9 to 14) (size 15 to 20)
#    0.000    2.000    1.667    3.000    0.000    6.000 
#    0.000    2.500    0.000    1.000    0.000    0.000 
#    0.000    0.000    0.000    0.000    0.000    0.000 
#
# Total GULP energy -595385.130238 kJ/mol
# GULP energy per Si atom -12403.856880 kJ/mol
# Density = 1.855035 g / cm^3
# Si number density = 18.592667 Si / 1000 Ang^3
#
#
#
# Elastic Constant Matrix: (Units=GPa)
#
#
# Indices 1 2 3 4 5 6 
#
# 1 64.2654 29.8004 41.2021 0.0000 0.0000 0.0000
# 2 29.8004 50.3120 9.0527 0.0000 0.0000 0.0000
# 3 41.2021 9.0527 93.7984 0.0000 0.0000 0.0000
# 4 0.0000 0.0000 0.0000 5.4049 0.0000 0.0000
# 5 0.0000 0.0000 0.0000 0.0000 41.4316 0.0000
# 6 0.0000 0.0000 0.0000 0.0000 0.0000 28.5393
#
#
#
# Elastic Compliance Matrix: (Units=1/GPa)
#
#
# Indices 1 2 3 4 5 6 
#
# 1 0.030602 -0.015985 -0.011900 0.000000 0.000000 0.000000
# 2 -0.015985 0.028577 0.004263 0.000000 0.000000 0.000000
# 3 -0.011900 0.004263 0.015477 0.000000 0.000000 0.000000
# 4 0.000000 0.000000 0.000000 0.185018 0.000000 0.000000
# 5 0.000000 0.000000 0.000000 0.000000 0.024136 0.000000
# 6 0.000000 0.000000 0.000000 0.000000 0.000000 0.035039
#
#
# Mechanical properties :
#
#
# Convention : Reuss Voigt Hill
#
# Bulk Modulus (GPa) = 36.47799 40.94291 38.71045
# Shear Modulus (GPa) = 13.32520 23.62986 18.47753
#
# Velocity S-wave (km/s) = 2.68001 3.56887 3.15589
# Velocity P-wave (km/s) = 5.40729 6.24910 5.84337
#
# Compressibility (1/GPa) = 0.02741379
#
# Stress axis : x y z
#
# Youngs Moduli (GPa) = 32.67778 34.99335 64.61332
#
# Poissons Ratio (x) = 0.55936 0.76887
# Poissons Ratio (y) = 0.52235 -0.27548
# Poissons Ratio (z) = 0.38885 -0.14919
#
# Static dielectric constant tensor:
#      x y z
#    x 3.383310 0.000000 0.000000 
#    y 0.000000 3.414820 0.000000 
#    z 0.000000 0.000000 3.447180 
# 
# 
# High freq. dielectric constant tensor:
#      x y z
#    x 1.721840 0.000000 0.000000 
#    y 0.000000 1.710550 0.000000 
#    z 0.000000 0.000000 1.731510 
# 
# From -- ./inp_files/66869.got.cif
#   From: 2010.03.12/outbox.cif.g09.slc.cpg/sg63_34_cif.got.tgz:66869.got - 2010.04.10 19:34:48.
