data_PCOD8260132
_publ_section_title
;
Structure prediction by ZEFSAII (Michael W. Deem and Ramdas Pophale) SiO2 
 PCOD8260132
Probable space group: C M C M
;
_chemical_formula_sum "Si O2"
_cell_formula_units_Z 80
_cell_length_a 19.628684
_cell_length_b 23.659478
_cell_length_c 8.575771
_cell_angle_alpha 90.000000
_cell_angle_beta 90.000000
_cell_angle_gamma 90.000000
_cell_volume 3982.625934
_symmetry_space_group_name_H-M "C M C M"
_symmetry_group_IT_number 63
_symmetry_cell_setting 'orthorhombic'
loop_
_space_group_symop_operation_xyz
x,y,z
-x,-y,1/2+z
x,-y,-z
-x,y,1/2-z
-x,-y,-z
x,y,1/2-z
-x,y,z
x,-y,1/2+z
1/2+x,1/2+y,z
1/2-x,1/2-y,1/2+z
1/2+x,1/2-y,-z
1/2-x,1/2+y,1/2-z
1/2-x,1/2-y,-z
1/2+x,1/2+y,1/2-z
1/2-x,1/2+y,z
1/2+x,1/2-y,1/2+z
loop_
_atom_site_type_symbol
_atom_site_label
_atom_site_fract_x
_atom_site_fract_y
_atom_site_fract_z
Si Si1 0.685504 0.627880 0.929095
Si Si2 0.819988 0.563279 0.566207
Si Si3 0.675580 0.743833 0.431540
Si Si4 0.422976 0.841966 0.064864
Si Si5 0.926676 0.940410 0.927311
O O1 0.695540 0.646288 0.750000
O O2 0.755278 0.599851 0.994425
O O3 0.656105 0.679883 0.030173
O O4 0.625902 0.583706 0.948524
O O5 0.822354 0.500000 0.500000
O O6 0.814017 0.557010 0.750000
O O7 0.887276 0.598647 0.516341
O O8 0.679140 0.755332 0.250000
O O9 0.750000 0.750000 0.500000
O O10 0.621286 0.789012 0.502154
O O11 0.426399 0.837530 0.250000
O O12 0.500000 0.840348 0.995540
O O13 0.897199 0.942314 0.750000
O O14 0.000000 0.908048 0.925928
O O15 0.941628 0.000000 0.000000
#
# Coordination Sequence:
#
# PCOD8260132 Si02
#       5
#    16  16  16  16  16
#     4  11  22  37  58  86 118 152 197 245 294 351
#     4  10  21  37  57  85 116 151 195 239 288 347
#     4  11  21  37  61  87 115 152 194 238 293 352
#     4   9  19  38  61  84 115 154 193 236 290 352
#     4  10  21  37  56  81 115 156 199 242 293 350
#
# _framework density 20.087250000000001
#
# number of rings (size 3 to 8) (size 9 to 14) (size 15 to 20)
#    0.000    1.800    2.000    2.400    0.000    5.600 
#    0.000    2.000    0.000    4.200    0.000    0.000 
#    0.000    0.000    0.000    0.000    0.000    0.000 
#
# Total GULP energy -495636.254108 kJ/mol
# GULP energy per Si atom -12390.906353 kJ/mol
# Density = 2.004153 g / cm^3
# Si number density = 20.087250 Si / 1000 Ang^3
#
#
#
# Elastic Constant Matrix: (Units=GPa)
#
#
# Indices 1 2 3 4 5 6 
#
# 1 154.4487 73.1854 24.0403 0.0000 0.0000 0.0000
# 2 73.1854 137.5470 20.7604 0.0000 0.0000 0.0000
# 3 24.0403 20.7604 41.5242 0.0000 0.0000 0.0000
# 4 0.0000 0.0000 0.0000 31.1171 0.0000 0.0000
# 5 0.0000 0.0000 0.0000 0.0000 25.2304 0.0000
# 6 0.0000 0.0000 0.0000 0.0000 0.0000 41.2131
#
#
#
# Elastic Compliance Matrix: (Units=1/GPa)
#
#
# Indices 1 2 3 4 5 6 
#
# 1 0.009000 -0.004329 -0.003046 0.000000 0.000000 0.000000
# 2 -0.004329 0.009946 -0.002466 0.000000 0.000000 0.000000
# 3 -0.003046 -0.002466 0.027079 0.000000 0.000000 0.000000
# 4 0.000000 0.000000 0.000000 0.032137 0.000000 0.000000
# 5 0.000000 0.000000 0.000000 0.000000 0.039635 0.000000
# 6 0.000000 0.000000 0.000000 0.000000 0.000000 0.024264
#
#
# Mechanical properties :
#
#
# Convention : Reuss Voigt Hill
#
# Bulk Modulus (GPa) = 37.96228 63.27690 50.61959
# Shear Modulus (GPa) = 29.32138 33.88104 31.60121
#
# Velocity S-wave (km/s) = 3.82475 4.11139 3.97066
# Velocity P-wave (km/s) = 6.20038 7.35578 6.80265
#
# Compressibility (1/GPa) = 0.02634194
#
# Stress axis : x y z
#
# Youngs Moduli (GPa) = 111.11030 100.54496 36.92894
#
# Poissons Ratio (x) = 0.43525 0.11250
# Poissons Ratio (y) = 0.48099 0.09108
# Poissons Ratio (z) = 0.33847 0.24797
#
# Static dielectric constant tensor:
#      x y z
#    x 0.000000 0.000000 0.000000 
#    y 0.000000 0.000000 0.000000 
#    z 0.000000 0.000000 0.000000 
# 
# 
# High freq. dielectric constant tensor:
#      x y z
#    x 1.793460 0.000000 0.000000 
#    y 0.000000 1.789050 0.000000 
#    z 0.000000 0.000000 1.759020 
# 
# From -- ./inp_files/6364.got.cif
#   From: 2010.03.12/outbox.cif.g09.slc.cpg/sg63_4_cif.got.tgz:6364.got - 2010.04.10 19:34:48.
