data_PCOD8260550
_publ_section_title
;
Structure prediction by ZEFSAII (Michael W. Deem and Ramdas Pophale) SiO2 
 PCOD8260550
Probable space group: C M C M
;
_chemical_formula_sum "Si O2"
_cell_formula_units_Z 80
_cell_length_a 25.820486
_cell_length_b 11.188669
_cell_length_c 14.473833
_cell_angle_alpha 90.000000
_cell_angle_beta 90.000000
_cell_angle_gamma 90.000000
_cell_volume 4181.445069
_symmetry_space_group_name_H-M "C M C M"
_symmetry_group_IT_number 63
_symmetry_cell_setting 'orthorhombic'
loop_
_space_group_symop_operation_xyz
x,y,z
-x,-y,1/2+z
x,-y,-z
-x,y,1/2-z
-x,-y,-z
x,y,1/2-z
-x,y,z
x,-y,1/2+z
1/2+x,1/2+y,z
1/2-x,1/2-y,1/2+z
1/2+x,1/2-y,-z
1/2-x,1/2+y,1/2-z
1/2-x,1/2-y,-z
1/2+x,1/2+y,1/2-z
1/2-x,1/2+y,z
1/2+x,1/2-y,1/2+z
loop_
_atom_site_type_symbol
_atom_site_label
_atom_site_fract_x
_atom_site_fract_y
_atom_site_fract_z
Si Si1 0.147317 0.029253 0.105934
Si Si2 0.830365 0.229824 0.648289
Si Si3 0.059398 0.795134 0.856252
Si Si4 0.128266 0.363432 0.021375
Si Si5 0.787197 0.257291 0.144354
O O1 0.090541 0.082772 0.125109
O O2 0.190653 0.123751 0.136730
O O3 0.154156 0.908089 0.162254
O O4 0.155417 0.000000 0.000000
O O5 0.835492 0.290133 0.750000
O O6 0.868050 0.293406 0.575664
O O7 0.771903 0.241604 0.610286
O O8 0.066510 0.755195 0.750000
O O9 0.080236 0.689068 0.921090
O O10 0.000000 0.820500 0.880714
O O11 0.180648 0.348976 0.080875
O O12 0.116987 0.500000 0.000000
O O13 0.790802 0.301964 0.250000
#
# Coordination Sequence:
#
# PCOD8260550 Si02
#       5
#    16  16  16  16  16
#     4  11  20  37  62  86 118 152 191 246 291 341
#     4  11  23  36  55  86 122 161 196 237 286 336
#     4  10  22  43  68  88 110 148 195 243 298 353
#     4  11  23  38  59  85 119 152 195 244 290 345
#     4  10  22  37  56  82 118 163 203 233 277 344
#
# _framework density 19.132142000000002
#
# number of rings (size 3 to 8) (size 9 to 14) (size 15 to 20)
#    0.000    1.400    4.000    4.200    2.800    2.400 
#    0.000    0.000    0.000    0.600    0.000    0.000 
#    0.000    0.000    0.000    0.000    0.000    0.000 
#
# Total GULP energy -496075.264963 kJ/mol
# GULP energy per Si atom -12401.881624 kJ/mol
# Density = 1.908860 g / cm^3
# Si number density = 19.132142 Si / 1000 Ang^3
#
#
#
# Elastic Constant Matrix: (Units=GPa)
#
#
# Indices 1 2 3 4 5 6 
#
# 1 105.4214 55.2664 32.1124 0.0000 0.0000 0.0000
# 2 55.2664 120.5544 20.8318 0.0000 0.0000 0.0000
# 3 32.1124 20.8318 97.1749 0.0000 0.0000 0.0000
# 4 0.0000 0.0000 0.0000 20.1353 0.0000 0.0000
# 5 0.0000 0.0000 0.0000 0.0000 42.4146 0.0000
# 6 0.0000 0.0000 0.0000 0.0000 0.0000 13.1720
#
#
#
# Elastic Compliance Matrix: (Units=1/GPa)
#
#
# Indices 1 2 3 4 5 6 
#
# 1 0.013397 -0.005583 -0.003230 0.000000 0.000000 0.000000
# 2 -0.005583 0.010941 -0.000500 0.000000 0.000000 0.000000
# 3 -0.003230 -0.000500 0.011465 0.000000 0.000000 0.000000
# 4 0.000000 0.000000 0.000000 0.049664 0.000000 0.000000
# 5 0.000000 0.000000 0.000000 0.000000 0.023577 0.000000
# 6 0.000000 0.000000 0.000000 0.000000 0.000000 0.075919
#
#
# Mechanical properties :
#
#
# Convention : Reuss Voigt Hill
#
# Bulk Modulus (GPa) = 58.22280 59.95243 59.08761
# Shear Modulus (GPa) = 23.88739 29.47374 26.68056
#
# Velocity S-wave (km/s) = 3.53731 3.92922 3.73841
# Velocity P-wave (km/s) = 6.86887 7.21034 7.04168
#
# Compressibility (1/GPa) = 0.01717540
#
# Stress axis : x y z
#
# Youngs Moduli (GPa) = 74.64521 91.39861 87.21870
#
# Poissons Ratio (x) = 0.51031 0.28173
# Poissons Ratio (y) = 0.41677 0.04365
# Poissons Ratio (z) = 0.24111 0.04574
#
# Static dielectric constant tensor:
#      x y z
#    x 3.442950 0.000000 0.000000 
#    y 0.000000 3.503940 0.000000 
#    z 0.000000 0.000000 3.479520 
# 
# 
# High freq. dielectric constant tensor:
#      x y z
#    x 1.725960 0.000000 0.000000 
#    y 0.000000 1.730620 0.000000 
#    z 0.000000 0.000000 1.770830 
# 
# From -- ./inp_files/37687.got.cif
#   From: 2010.03.12/outbox.cif.g09.slc.cpg/sg63_19_cif.got.tgz:37687.got - 2010.04.10 19:34:48.
