data_PCOD8260531
_publ_section_title
;
Structure prediction by ZEFSAII (Michael W. Deem and Ramdas Pophale) SiO2 
 PCOD8260531
Probable space group: C M C M
;
_chemical_formula_sum "Si O2"
_cell_formula_units_Z 88
_cell_length_a 27.114482
_cell_length_b 17.750887
_cell_length_c 8.792359
_cell_angle_alpha 90.000000
_cell_angle_beta 90.000000
_cell_angle_gamma 90.000000
_cell_volume 4231.816073
_symmetry_space_group_name_H-M "C M C M"
_symmetry_group_IT_number 63
_symmetry_cell_setting 'orthorhombic'
loop_
_space_group_symop_operation_xyz
x,y,z
-x,-y,1/2+z
x,-y,-z
-x,y,1/2-z
-x,-y,-z
x,y,1/2-z
-x,y,z
x,-y,1/2+z
1/2+x,1/2+y,z
1/2-x,1/2-y,1/2+z
1/2+x,1/2-y,-z
1/2-x,1/2+y,1/2-z
1/2-x,1/2-y,-z
1/2+x,1/2+y,1/2-z
1/2-x,1/2+y,z
1/2+x,1/2-y,1/2+z
loop_
_atom_site_type_symbol
_atom_site_label
_atom_site_fract_x
_atom_site_fract_y
_atom_site_fract_z
Si Si1 0.640054 0.920801 0.068911
Si Si2 0.091604 0.821091 0.930130
Si Si3 0.443296 0.168314 0.069784
Si Si4 0.326498 0.419091 0.425889
Si Si5 0.000000 0.919475 0.928102
Si Si6 0.231723 0.326018 0.076418
O O1 0.638632 0.926616 0.250000
O O2 0.679434 0.857099 0.014016
O O3 0.585926 0.901367 0.004130
O O4 0.657131 0.000000 0.000000
O O5 0.092323 0.807802 0.750000
O O6 0.048016 0.875694 0.983960
O O7 0.083790 0.742596 0.012451
O O8 0.142489 0.856500 0.984936
O O9 0.440084 0.163162 0.250000
O O10 0.500000 0.166097 0.013883
O O11 0.335195 0.500000 0.500000
O O12 0.342880 0.422687 0.250000
O O13 0.270063 0.394430 0.444215
O O14 0.000000 0.929268 0.750000
O O15 0.000000 0.000000 0.000000
O O16 0.225297 0.303610 0.250000
O O17 0.250000 0.250000 0.000000
#
# Coordination Sequence:
#
# PCOD8260531 Si02
#       6
#    16  16  16  16   8  16
#     4  11  24  43  67  95 127 165 208 258 313 370
#     4  11  22  39  60  87 121 162 208 255 307 364
#     4  11  24  42  65  93 124 162 206 256 313 373
#     4  11  23  39  59  88 124 163 206 253 305 363
#     4  10  22  36  54  80 115 156 201 252 304 358
#     4  10  23  41  63  92 125 162 205 252 305 365
#
# _framework density 20.794855999999999
#
# number of rings (size 3 to 8) (size 9 to 14) (size 15 to 20)
#    0.000    1.273    0.909    4.364    0.000   10.182 
#    0.000    0.000    0.000    0.000    0.000    0.000 
#    0.000    0.000    0.000    0.000    0.000    0.000 
#
# Total GULP energy -545785.629184 kJ/mol
# GULP energy per Si atom -12404.218845 kJ/mol
# Density = 2.074753 g / cm^3
# Si number density = 20.794856 Si / 1000 Ang^3
#
#
#
# Elastic Constant Matrix: (Units=GPa)
#
#
# Indices 1 2 3 4 5 6 
#
# 1 111.6678 43.8879 36.5104 0.0000 0.0000 0.0000
# 2 43.8879 120.5635 43.4226 0.0000 0.0000 0.0000
# 3 36.5104 43.4226 74.2662 0.0000 0.0000 0.0000
# 4 0.0000 0.0000 0.0000 43.4923 0.0000 0.0000
# 5 0.0000 0.0000 0.0000 0.0000 31.3585 0.0000
# 6 0.0000 0.0000 0.0000 0.0000 0.0000 45.1255
#
#
#
# Elastic Compliance Matrix: (Units=1/GPa)
#
#
# Indices 1 2 3 4 5 6 
#
# 1 0.011315 -0.002680 -0.003996 0.000000 0.000000 0.000000
# 2 -0.002680 0.011142 -0.005197 0.000000 0.000000 0.000000
# 3 -0.003996 -0.005197 0.018468 0.000000 0.000000 0.000000
# 4 0.000000 0.000000 0.000000 0.022993 0.000000 0.000000
# 5 0.000000 0.000000 0.000000 0.000000 0.031889 0.000000
# 6 0.000000 0.000000 0.000000 0.000000 0.000000 0.022160
#
#
# Mechanical properties :
#
#
# Convention : Reuss Voigt Hill
#
# Bulk Modulus (GPa) = 58.20860 61.57105 59.88983
# Shear Modulus (GPa) = 33.91255 36.17371 35.04313
#
# Velocity S-wave (km/s) = 4.04272 4.17532 4.10955
# Velocity P-wave (km/s) = 7.06003 7.27444 7.16803
#
# Compressibility (1/GPa) = 0.01717959
#
# Stress axis : x y z
#
# Youngs Moduli (GPa) = 88.38030 89.75346 54.14757
#
# Poissons Ratio (x) = 0.24051 0.21636
# Poissons Ratio (y) = 0.23683 0.28140
# Poissons Ratio (z) = 0.35314 0.46645
#
# Static dielectric constant tensor:
#      x y z
#    x 3.912220 0.000000 0.000000 
#    y 0.000000 4.012950 0.000000 
#    z 0.000000 0.000000 3.765550 
# 
# 
# High freq. dielectric constant tensor:
#      x y z
#    x 1.829050 0.000000 0.000000 
#    y 0.000000 1.822780 0.000000 
#    z 0.000000 0.000000 1.816930 
# 
# From -- ./inp_files/14215.got.cif
#   From: 2010.03.12/outbox.cif.g09.slc.cpg/sg63_8_cif.got.tgz:14215.got - 2010.04.10 19:34:48.
