data_PCOD8260517
_publ_section_title
;
Structure prediction by ZEFSAII (Michael W. Deem and Ramdas Pophale) SiO2 
 PCOD8260517
Probable space group: C M C M
;
_chemical_formula_sum "Si O2"
_cell_formula_units_Z 88
_cell_length_a 25.926357
_cell_length_b 13.887375
_cell_length_c 13.616145
_cell_angle_alpha 90.000000
_cell_angle_beta 90.000000
_cell_angle_gamma 90.000000
_cell_volume 4902.479964
_symmetry_space_group_name_H-M "C M C M"
_symmetry_group_IT_number 63
_symmetry_cell_setting 'orthorhombic'
loop_
_space_group_symop_operation_xyz
x,y,z
-x,-y,1/2+z
x,-y,-z
-x,y,1/2-z
-x,-y,-z
x,y,1/2-z
-x,y,z
x,-y,1/2+z
1/2+x,1/2+y,z
1/2-x,1/2-y,1/2+z
1/2+x,1/2-y,-z
1/2-x,1/2+y,1/2-z
1/2-x,1/2-y,-z
1/2+x,1/2+y,1/2-z
1/2-x,1/2+y,z
1/2+x,1/2-y,1/2+z
loop_
_atom_site_type_symbol
_atom_site_label
_atom_site_fract_x
_atom_site_fract_y
_atom_site_fract_z
Si Si1 0.694205 0.748457 0.043719
Si Si2 0.867866 0.406328 0.557838
Si Si3 0.558575 0.746227 0.635283
Si Si4 0.302537 0.087817 0.250000
Si Si5 0.293554 0.454140 0.250000
Si Si6 0.634041 0.413201 0.068097
Si Si7 0.265005 0.240712 0.750000
O O1 0.697541 0.736593 0.159880
O O2 0.750000 0.750000 0.000000
O O3 0.668295 0.849393 0.017186
O O4 0.665122 0.657486 0.001501
O O5 0.888368 0.500000 0.500000
O O6 0.915934 0.338583 0.584028
O O7 0.835588 0.438620 0.653955
O O8 0.562079 0.765673 0.750000
O O9 0.500000 0.738748 0.598091
O O10 0.585718 0.644695 0.611904
O O11 0.289824 0.201973 0.250000
O O12 0.244459 0.045453 0.250000
O O13 0.329402 0.453794 0.346055
O O14 0.252883 0.368376 0.250000
O O15 0.613558 0.500000 0.000000
#
# Coordination Sequence:
#
# PCOD8260517 Si02
#       7
#    16  16  16   8   8  16   8
#     4  11  21  34  53  78 121 165 200 237 286 342
#     4  11  23  37  56  89 118 153 203 244 295 361
#     4  10  21  43  68  85 109 150 203 262 308 347
#     4  12  22  32  54  79 122 163 196 234 280 345
#     4  12  22  32  54  79 122 163 196 234 280 345
#     4  11  23  37  56  89 118 153 203 244 295 361
#     4  12  20  34  50  76 114 170 208 234 270 334
#
# _framework density 17.950099000000002
#
# number of rings (size 3 to 8) (size 9 to 14) (size 15 to 20)
#    0.000    0.909    5.455    3.273    0.000    0.727 
#    0.000    0.000    0.000    0.000    0.000    3.818 
#    0.000    0.000    0.000    0.000    0.000    0.000 
#
# Total GULP energy -545659.690789 kJ/mol
# GULP energy per Si atom -12401.356609 kJ/mol
# Density = 1.790924 g / cm^3
# Si number density = 17.950099 Si / 1000 Ang^3
#
#
#
# Elastic Constant Matrix: (Units=GPa)
#
#
# Indices 1 2 3 4 5 6 
#
# 1 107.0504 29.1708 31.3037 0.0000 0.0000 0.0000
# 2 29.1708 81.9601 20.3330 0.0000 0.0000 0.0000
# 3 31.3037 20.3330 111.7696 0.0000 0.0000 0.0000
# 4 0.0000 0.0000 0.0000 30.6273 0.0000 0.0000
# 5 0.0000 0.0000 0.0000 0.0000 22.9810 0.0000
# 6 0.0000 0.0000 0.0000 0.0000 0.0000 22.6459
#
#
#
# Elastic Compliance Matrix: (Units=1/GPa)
#
#
# Indices 1 2 3 4 5 6 
#
# 1 0.010960 -0.003288 -0.002472 0.000000 0.000000 0.000000
# 2 -0.003288 0.013764 -0.001583 0.000000 0.000000 0.000000
# 3 -0.002472 -0.001583 0.009927 0.000000 0.000000 0.000000
# 4 0.000000 0.000000 0.000000 0.032651 0.000000 0.000000
# 5 0.000000 0.000000 0.000000 0.000000 0.043514 0.000000
# 6 0.000000 0.000000 0.000000 0.000000 0.000000 0.044158
#
#
# Mechanical properties :
#
#
# Convention : Reuss Voigt Hill
#
# Bulk Modulus (GPa) = 50.08395 51.37723 50.73059
# Shear Modulus (GPa) = 28.35849 29.91569 29.13709
#
# Velocity S-wave (km/s) = 3.97905 4.08683 4.03330
# Velocity P-wave (km/s) = 7.00520 7.13821 7.07201
#
# Compressibility (1/GPa) = 0.01996648
#
# Stress axis : x y z
#
# Youngs Moduli (GPa) = 91.24096 72.65355 100.73356
#
# Poissons Ratio (x) = 0.23886 0.24896
# Poissons Ratio (y) = 0.29997 0.15947
# Poissons Ratio (z) = 0.22550 0.11502
#
# Static dielectric constant tensor:
#      x y z
#    x 3.105800 0.000000 0.000000 
#    y 0.000000 3.364240 0.000000 
#    z 0.000000 0.000000 3.338510 
# 
# 
# High freq. dielectric constant tensor:
#      x y z
#    x 1.673970 0.000000 0.000000 
#    y 0.000000 1.704820 0.000000 
#    z 0.000000 0.000000 1.707720 
# 
# From -- ./inp_files/23800.got.cif
#   From: 2010.03.12/outbox.cif.g09.slc.cpg/sg63_12_cif.got.tgz:23800.got - 2010.04.10 19:34:48.
