data_PCOD8260742
_publ_section_title
;
Structure prediction by ZEFSAII (Michael W. Deem and Ramdas Pophale) SiO2 
 PCOD8260742
Probable space group: C M C M
;
_chemical_formula_sum "Si O2"
_cell_formula_units_Z 56
_cell_length_a 25.892865
_cell_length_b 10.833810
_cell_length_c 9.769999
_cell_angle_alpha 90.000000
_cell_angle_beta 90.000000
_cell_angle_gamma 90.000000
_cell_volume 2740.664290
_symmetry_space_group_name_H-M "C M C M"
_symmetry_group_IT_number 63
_symmetry_cell_setting 'orthorhombic'
loop_
_space_group_symop_operation_xyz
x,y,z
-x,-y,1/2+z
x,-y,-z
-x,y,1/2-z
-x,-y,-z
x,y,1/2-z
-x,y,z
x,-y,1/2+z
1/2+x,1/2+y,z
1/2-x,1/2-y,1/2+z
1/2+x,1/2-y,-z
1/2-x,1/2+y,1/2-z
1/2-x,1/2-y,-z
1/2+x,1/2+y,1/2-z
1/2-x,1/2+y,z
1/2+x,1/2-y,1/2+z
loop_
_atom_site_type_symbol
_atom_site_label
_atom_site_fract_x
_atom_site_fract_y
_atom_site_fract_z
Si Si1 0.892103 0.777597 0.486238
Si Si2 0.234329 0.866733 0.750000
Si Si3 0.157239 0.329259 0.250000
Si Si4 0.146511 0.380655 0.750000
Si Si5 0.500000 0.373357 0.918767
Si Si6 0.321044 0.500000 0.500000
O O1 0.869020 0.730894 0.623522
O O2 0.885945 0.667931 0.378102
O O3 0.859946 0.897775 0.435612
O O4 0.951356 0.801166 0.521211
O O5 0.215496 0.723764 0.750000
O O6 0.294618 0.837610 0.750000
O O7 0.215943 0.942574 0.883720
O O8 0.150756 0.473464 0.250000
O O9 0.500000 0.386560 0.750000
O O10 0.500000 0.500000 0.000000
#
# Coordination Sequence:
#
# PCOD8260742 Si02
#       6
#    16   8   8   8   8   8
#     4  11  24  44  70 103 140 179 237 297 347 419
#     4  10  25  40  68  98 145 187 236 284 356 413
#     4  10  24  45  63  97 145 189 230 292 347 423
#     4  12  27  41  67 101 142 194 236 282 345 430
#     4  12  26  46  79 107 140 180 227 300 368 408
#     4  10  22  41  68 102 136 175 230 292 350 414
#
# _framework density 20.433001000000001
#
# number of rings (size 3 to 8) (size 9 to 14) (size 15 to 20)
#    0.000    1.143    2.857    1.714   10.000    2.286 
#    0.000    4.286    0.000    0.000    0.000    0.000 
#    0.000    0.000    0.000    0.000    0.000    0.000 
#
# Total GULP energy -346942.383948 kJ/mol
# GULP energy per Si atom -12390.799427 kJ/mol
# Density = 2.038649 g / cm^3
# Si number density = 20.433001 Si / 1000 Ang^3
#
#
#
# Elastic Constant Matrix: (Units=GPa)
#
#
# Indices 1 2 3 4 5 6 
#
# 1 145.3837 41.5782 41.6358 0.0000 0.0000 0.0000
# 2 41.5782 130.8158 29.0766 0.0000 0.0000 0.0000
# 3 41.6358 29.0766 96.9333 0.0000 0.0000 0.0000
# 4 0.0000 0.0000 0.0000 55.0880 0.0000 0.0000
# 5 0.0000 0.0000 0.0000 0.0000 28.3007 0.0000
# 6 0.0000 0.0000 0.0000 0.0000 0.0000 17.5977
#
#
#
# Elastic Compliance Matrix: (Units=1/GPa)
#
#
# Indices 1 2 3 4 5 6 
#
# 1 0.008294 -0.001976 -0.002970 0.000000 0.000000 0.000000
# 2 -0.001976 0.008661 -0.001749 0.000000 0.000000 0.000000
# 3 -0.002970 -0.001749 0.012117 0.000000 0.000000 0.000000
# 4 0.000000 0.000000 0.000000 0.018153 0.000000 0.000000
# 5 0.000000 0.000000 0.000000 0.000000 0.035335 0.000000
# 6 0.000000 0.000000 0.000000 0.000000 0.000000 0.056826
#
#
# Mechanical properties :
#
#
# Convention : Reuss Voigt Hill
#
# Bulk Modulus (GPa) = 63.76864 66.41265 65.09064
# Shear Modulus (GPa) = 31.64504 37.58675 34.61589
#
# Velocity S-wave (km/s) = 3.93965 4.29361 4.12043
# Velocity P-wave (km/s) = 7.20908 7.55998 7.38661
#
# Compressibility (1/GPa) = 0.01568169
#
# Stress axis : x y z
#
# Youngs Moduli (GPa) = 120.56943 115.45728 82.53066
#
# Poissons Ratio (x) = 0.22815 0.24510
# Poissons Ratio (y) = 0.23825 0.14437
# Poissons Ratio (z) = 0.35806 0.20197
#
# Static dielectric constant tensor:
#      x y z
#    x 3.669350 0.000000 0.000000 
#    y 0.000000 5.061910 0.000000 
#    z 0.000000 0.000000 3.893480 
# 
# 
# High freq. dielectric constant tensor:
#      x y z
#    x 1.804030 0.000000 0.000000 
#    y 0.000000 1.806300 0.000000 
#    z 0.000000 0.000000 1.813620 
# 
# From -- ./inp_files/11503.got.cif
#   From: 2010.03.12/outbox.cif.g09.slc.cpg/sg63_6_cif.got.tgz:11503.got - 2010.04.10 19:34:48.
