data_PCOD8260430
_publ_section_title
;
Structure prediction by ZEFSAII (Michael W. Deem and Ramdas Pophale) SiO2 
 PCOD8260430
Probable space group: C M C M
;
_chemical_formula_sum "Si O2"
_cell_formula_units_Z 80
_cell_length_a 27.403253
_cell_length_b 8.919548
_cell_length_c 16.805349
_cell_angle_alpha 90.000000
_cell_angle_beta 90.000000
_cell_angle_gamma 90.000000
_cell_volume 4107.641220
_symmetry_space_group_name_H-M "C M C M"
_symmetry_group_IT_number 63
_symmetry_cell_setting 'orthorhombic'
loop_
_space_group_symop_operation_xyz
x,y,z
-x,-y,1/2+z
x,-y,-z
-x,y,1/2-z
-x,-y,-z
x,y,1/2-z
-x,y,z
x,-y,1/2+z
1/2+x,1/2+y,z
1/2-x,1/2-y,1/2+z
1/2+x,1/2-y,-z
1/2-x,1/2+y,1/2-z
1/2-x,1/2-y,-z
1/2+x,1/2+y,1/2-z
1/2-x,1/2+y,z
1/2+x,1/2-y,1/2+z
loop_
_atom_site_type_symbol
_atom_site_label
_atom_site_fract_x
_atom_site_fract_y
_atom_site_fract_z
Si Si1 0.595896 0.151044 0.035946
Si Si2 0.284602 0.253044 0.658034
Si Si3 0.873437 0.904153 0.925795
Si Si4 0.444248 0.368189 0.341198
Si Si5 0.203403 0.440645 0.916496
O O1 0.563053 0.218253 0.106426
O O2 0.649054 0.120356 0.072537
O O3 0.598372 0.261299 0.960555
O O4 0.572163 0.000000 0.000000
O O5 0.277119 0.284922 0.750000
O O6 0.328527 0.356112 0.628151
O O7 0.235268 0.301221 0.613305
O O8 0.295465 0.077902 0.645387
O O9 0.910661 0.997786 0.872174
O O10 0.853177 0.000000 0.000000
O O11 0.430888 0.330734 0.250000
O O12 0.500000 0.421071 0.349108
O O13 0.224520 0.500000 0.000000
#
# Coordination Sequence:
#
# PCOD8260430 Si02
#       5
#    16  16  16  16  16
#     4  10  21  41  64  89 119 159 206 251 302 358
#     4  12  24  37  57  89 121 160 207 252 302 355
#     4  10  21  39  64  87 118 161 205 248 297 361
#     4  10  23  42  65  93 125 158 196 251 314 366
#     4  11  23  40  59  82 122 164 203 248 298 360
#
# _framework density 19.475897
#
# number of rings (size 3 to 8) (size 9 to 14) (size 15 to 20)
#    0.000    1.400    4.000    2.400    5.600    5.600 
#    0.000    0.000    0.000    2.400    0.000    0.000 
#    0.000    0.000    0.000    0.000    0.000    0.000 
#
# Total GULP energy -496104.077069 kJ/mol
# GULP energy per Si atom -12402.601927 kJ/mol
# Density = 1.943157 g / cm^3
# Si number density = 19.475897 Si / 1000 Ang^3
#
#
#
# Elastic Constant Matrix: (Units=GPa)
#
#
# Indices 1 2 3 4 5 6 
#
# 1 71.7446 21.4699 28.4892 0.0000 0.0000 0.0000
# 2 21.4699 97.8429 20.2367 0.0000 0.0000 0.0000
# 3 28.4892 20.2367 104.4902 0.0000 0.0000 0.0000
# 4 0.0000 0.0000 0.0000 32.5476 0.0000 0.0000
# 5 0.0000 0.0000 0.0000 0.0000 29.2972 0.0000
# 6 0.0000 0.0000 0.0000 0.0000 0.0000 8.7240
#
#
#
# Elastic Compliance Matrix: (Units=1/GPa)
#
#
# Indices 1 2 3 4 5 6 
#
# 1 0.016322 -0.002772 -0.003913 0.000000 0.000000 0.000000
# 2 -0.002772 0.011118 -0.001397 0.000000 0.000000 0.000000
# 3 -0.003913 -0.001397 0.010908 0.000000 0.000000 0.000000
# 4 0.000000 0.000000 0.000000 0.030724 0.000000 0.000000
# 5 0.000000 0.000000 0.000000 0.000000 0.034133 0.000000
# 6 0.000000 0.000000 0.000000 0.000000 0.000000 0.114626
#
#
# Mechanical properties :
#
#
# Convention : Reuss Voigt Hill
#
# Bulk Modulus (GPa) = 45.08177 46.05214 45.56695
# Shear Modulus (GPa) = 20.71337 27.70588 24.20963
#
# Velocity S-wave (km/s) = 3.26473 3.77579 3.52952
# Velocity P-wave (km/s) = 6.11629 6.53497 6.32909
#
# Compressibility (1/GPa) = 0.02218192
#
# Stress axis : x y z
#
# Youngs Moduli (GPa) = 61.26759 89.94596 91.67710
#
# Poissons Ratio (x) = 0.24935 0.35876
# Poissons Ratio (y) = 0.16984 0.12811
# Poissons Ratio (z) = 0.23976 0.12569
#
# Static dielectric constant tensor:
#      x y z
#    x 3.351390 0.000000 0.000000 
#    y 0.000000 3.844230 0.000000 
#    z 0.000000 0.000000 3.655190 
# 
# 
# High freq. dielectric constant tensor:
#      x y z
#    x 1.746140 0.000000 0.000000 
#    y 0.000000 1.768540 0.000000 
#    z 0.000000 0.000000 1.766220 
# 
# From -- ./inp_files/48747.got.cif
#   From: 2010.03.12/outbox.cif.g09.slc.cpg/sg63_25_cif.got.tgz:48747.got - 2010.04.10 19:34:48.
