data_PCOD8260981
_publ_section_title
;
Structure prediction by ZEFSAII (Michael W. Deem and Ramdas Pophale) SiO2 
 PCOD8260981
Probable space group: C M C M
;
_chemical_formula_sum "Si O2"
_cell_formula_units_Z 96
_cell_length_a 9.168709
_cell_length_b 30.990280
_cell_length_c 19.153924
_cell_angle_alpha 90.000000
_cell_angle_beta 90.000000
_cell_angle_gamma 90.000000
_cell_volume 5442.412421
_symmetry_space_group_name_H-M "C M C M"
_symmetry_group_IT_number 63
_symmetry_cell_setting 'orthorhombic'
loop_
_space_group_symop_operation_xyz
x,y,z
-x,-y,1/2+z
x,-y,-z
-x,y,1/2-z
-x,-y,-z
x,y,1/2-z
-x,y,z
x,-y,1/2+z
1/2+x,1/2+y,z
1/2-x,1/2-y,1/2+z
1/2+x,1/2-y,-z
1/2-x,1/2+y,1/2-z
1/2-x,1/2-y,-z
1/2+x,1/2+y,1/2-z
1/2-x,1/2+y,z
1/2+x,1/2-y,1/2+z
loop_
_atom_site_type_symbol
_atom_site_label
_atom_site_fract_x
_atom_site_fract_y
_atom_site_fract_z
Si Si1 0.661398 0.249708 0.667098
Si Si2 0.160484 0.003121 0.417255
Si Si3 0.668922 0.345699 0.831946
Si Si4 0.328195 0.667263 0.670864
Si Si5 0.672738 0.086311 0.075270
Si Si6 0.172327 0.090933 0.571262
O O1 0.659964 0.250230 0.750000
O O2 0.500000 0.239722 0.638300
O O3 0.710953 0.297311 0.642305
O O4 0.767137 0.212100 0.639217
O O5 0.275084 0.039737 0.394906
O O6 0.000000 0.015198 0.387217
O O7 0.151448 0.000000 0.500000
O O8 0.208227 0.955234 0.391814
O O9 0.695832 0.351051 0.750000
O O10 0.500000 0.355480 0.850267
O O11 0.777135 0.377680 0.870727
O O12 0.272329 0.659731 0.750000
O O13 0.500000 0.670734 0.668811
O O14 0.272788 0.627672 0.624042
O O15 0.500000 0.085866 0.068815
O O16 0.741790 0.096753 0.000538
O O17 0.000000 0.094206 0.555110
#
# Coordination Sequence:
#
# PCOD8260981 Si02
#       6
#    16  16  16  16  16  16
#     4   8  15  29  49  71  94 123 158 192 230 283
#     4   8  15  30  50  68  90 126 167 197 227 278
#     4   9  18  34  54  72  93 126 164 196 232 285
#     4   9  17  30  50  75  99 123 155 197 240 278
#     4  11  21  31  48  74 100 124 156 201 247 286
#     4   9  18  33  51  70  96 130 165 197 231 282
#
# _framework density 17.639237000000001
#
# number of rings (size 3 to 8) (size 9 to 14) (size 15 to 20)
#    0.000    3.000    0.000    3.500    0.000    4.667 
#    0.000    3.333    0.000    3.000    0.000    0.000 
#    0.000    0.000    0.000    0.000    0.000    0.000 
#
# Total GULP energy -594914.046060 kJ/mol
# GULP energy per Si atom -12394.042626 kJ/mol
# Density = 1.759909 g / cm^3
# Si number density = 17.639237 Si / 1000 Ang^3
#
#
#
# Elastic Constant Matrix: (Units=GPa)
#
#
# Indices 1 2 3 4 5 6 
#
# 1 76.4364 60.6062 34.9100 0.0000 0.0000 0.0000
# 2 60.6062 158.3526 48.7892 0.0000 0.0000 0.0000
# 3 34.9100 48.7892 44.2421 0.0000 0.0000 0.0000
# 4 0.0000 0.0000 0.0000 32.3418 0.0000 0.0000
# 5 0.0000 0.0000 0.0000 0.0000 16.8517 0.0000
# 6 0.0000 0.0000 0.0000 0.0000 0.0000 31.3295
#
#
#
# Elastic Compliance Matrix: (Units=1/GPa)
#
#
# Indices 1 2 3 4 5 6 
#
# 1 0.022617 -0.004783 -0.012572 0.000000 0.000000 0.000000
# 2 -0.004783 0.010576 -0.007889 0.000000 0.000000 0.000000
# 3 -0.012572 -0.007889 0.041223 0.000000 0.000000 0.000000
# 4 0.000000 0.000000 0.000000 0.030920 0.000000 0.000000
# 5 0.000000 0.000000 0.000000 0.000000 0.059341 0.000000
# 6 0.000000 0.000000 0.000000 0.000000 0.000000 0.031919
#
#
# Mechanical properties :
#
#
# Convention : Reuss Voigt Hill
#
# Bulk Modulus (GPa) = 41.79155 63.07131 52.43143
# Shear Modulus (GPa) = 19.60320 25.08630 22.34475
#
# Velocity S-wave (km/s) = 3.33729 3.77528 3.56302
# Velocity P-wave (km/s) = 6.21240 7.40524 6.83489
#
# Compressibility (1/GPa) = 0.02392828
#
# Stress axis : x y z
#
# Youngs Moduli (GPa) = 44.21498 94.55143 24.25811
#
# Poissons Ratio (x) = 0.45220 0.30497
# Poissons Ratio (y) = 0.21146 0.19138
# Poissons Ratio (z) = 0.55587 0.74596
#
# Static dielectric constant tensor:
#      x y z
#    x 3.211290 0.000000 0.000000 
#    y 0.000000 3.823230 0.000000 
#    z 0.000000 0.000000 2.955840 
# 
# 
# High freq. dielectric constant tensor:
#      x y z
#    x 1.670180 0.000000 0.000000 
#    y 0.000000 1.701730 0.000000 
#    z 0.000000 0.000000 1.638890 
# 
# From -- ./inp_files/60206.got.cif
#   From: 2010.03.12/outbox.cif.g09.slc.cpg/sg63_31_cif.got.tgz:60206.got - 2010.04.10 19:34:48.
