data_PCOD8260317
_publ_section_title
;
Structure prediction by ZEFSAII (Michael W. Deem and Ramdas Pophale) SiO2 
 PCOD8260317
Probable space group: C M C M
;
_chemical_formula_sum "Si O2"
_cell_formula_units_Z 64
_cell_length_a 10.637422
_cell_length_b 13.680046
_cell_length_c 17.952914
_cell_angle_alpha 90.000000
_cell_angle_beta 90.000000
_cell_angle_gamma 90.000000
_cell_volume 2612.515626
_symmetry_space_group_name_H-M "C M C M"
_symmetry_group_IT_number 63
_symmetry_cell_setting 'orthorhombic'
loop_
_space_group_symop_operation_xyz
x,y,z
-x,-y,1/2+z
x,-y,-z
-x,y,1/2-z
-x,-y,-z
x,y,1/2-z
-x,y,z
x,-y,1/2+z
1/2+x,1/2+y,z
1/2-x,1/2-y,1/2+z
1/2+x,1/2-y,-z
1/2-x,1/2+y,1/2-z
1/2-x,1/2-y,-z
1/2+x,1/2+y,1/2-z
1/2-x,1/2+y,z
1/2+x,1/2-y,1/2+z
loop_
_atom_site_type_symbol
_atom_site_label
_atom_site_fract_x
_atom_site_fract_y
_atom_site_fract_z
Si Si1 0.637984 0.305633 0.461130
Si Si2 0.862519 0.548636 0.833258
Si Si3 0.715240 0.742894 0.333612
Si Si4 0.139726 0.951034 0.581809
O O1 0.500000 0.265115 0.482855
O O2 0.750000 0.250000 0.500000
O O3 0.658226 0.287060 0.373286
O O4 0.645638 0.420222 0.491105
O O5 0.825954 0.512710 0.750000
O O6 0.879562 0.665761 0.833505
O O7 0.755367 0.517130 0.891006
O O8 0.000000 0.505211 0.855852
O O9 0.750313 0.709165 0.250000
O O10 0.652501 0.654175 0.378064
O O11 0.000000 0.992642 0.602832
#
# Coordination Sequence:
#
# PCOD8260317 Si02
#       4
#    16  16  16  16
#     4   9  20  38  59  86 118 153 195 240 289 347
#     4  10  22  39  59  87 121 155 196 243 290 346
#     4  10  21  38  61  87 117 154 194 239 292 347
#     4  10  21  39  62  85 115 155 195 238 289 346
#
# _framework density 24.49746
#
# number of rings (size 3 to 8) (size 9 to 14) (size 15 to 20)
#    0.000    2.250    0.000    1.500    0.000   10.500 
#    0.000    6.250    0.000    0.000    0.000    0.000 
#    0.000    0.000    0.000    0.000    0.000    0.000 
#
# Total GULP energy -396418.842358 kJ/mol
# GULP energy per Si atom -12388.088824 kJ/mol
# Density = 2.444170 g / cm^3
# Si number density = 24.497460 Si / 1000 Ang^3
#
#
#
# Elastic Constant Matrix: (Units=GPa)
#
#
# Indices 1 2 3 4 5 6 
#
# 1 210.0686 52.3270 92.3448 0.0000 0.0000 0.0000
# 2 52.3270 93.4572 24.1731 0.0000 0.0000 0.0000
# 3 92.3448 24.1731 158.0787 0.0000 0.0000 0.0000
# 4 0.0000 0.0000 0.0000 18.8060 0.0000 0.0000
# 5 0.0000 0.0000 0.0000 0.0000 32.2005 0.0000
# 6 0.0000 0.0000 0.0000 0.0000 0.0000 30.0139
#
#
#
# Elastic Compliance Matrix: (Units=1/GPa)
#
#
# Indices 1 2 3 4 5 6 
#
# 1 0.007150 -0.003043 -0.003711 0.000000 0.000000 0.000000
# 2 -0.003043 0.012436 -0.000124 0.000000 0.000000 0.000000
# 3 -0.003711 -0.000124 0.008513 0.000000 0.000000 0.000000
# 4 0.000000 0.000000 0.000000 0.053174 0.000000 0.000000
# 5 0.000000 0.000000 0.000000 0.000000 0.031055 0.000000
# 6 0.000000 0.000000 0.000000 0.000000 0.000000 0.033318
#
#
# Mechanical properties :
#
#
# Convention : Reuss Voigt Hill
#
# Bulk Modulus (GPa) = 69.72618 88.81049 79.26834
# Shear Modulus (GPa) = 30.45352 35.72138 33.08745
#
# Velocity S-wave (km/s) = 3.52963 3.82274 3.67910
# Velocity P-wave (km/s) = 6.71829 7.47102 7.10463
#
# Compressibility (1/GPa) = 0.01434182
#
# Stress axis : x y z
#
# Youngs Moduli (GPa) = 139.86154 80.41116 117.46747
#
# Poissons Ratio (x) = 0.24472 0.43597
# Poissons Ratio (y) = 0.42564 0.01455
# Poissons Ratio (z) = 0.51908 0.00996
#
# Static dielectric constant tensor:
#      x y z
#    x 4.292120 0.000000 0.000000 
#    y 0.000000 4.810860 0.000000 
#    z 0.000000 0.000000 5.429140 
# 
# 
# High freq. dielectric constant tensor:
#      x y z
#    x 1.969680 0.000000 0.000000 
#    y 0.000000 1.994560 0.000000 
#    z 0.000000 0.000000 1.990030 
# 
# From -- ./inp_files/41507.got.cif
#   From: 2010.03.12/outbox.cif.g09.slc.cpg/sg63_21_cif.got.tgz:41507.got - 2010.04.10 19:34:48.
