data_PCOD8260918
_publ_section_title
;
Structure prediction by ZEFSAII (Michael W. Deem and Ramdas Pophale) SiO2 
 PCOD8260918
Probable space group: C M C M
;
_chemical_formula_sum "Si O2"
_cell_formula_units_Z 64
_cell_length_a 17.404384
_cell_length_b 7.577617
_cell_length_c 24.597738
_cell_angle_alpha 90.000000
_cell_angle_beta 90.000000
_cell_angle_gamma 90.000000
_cell_volume 3244.042078
_symmetry_space_group_name_H-M "C M C M"
_symmetry_group_IT_number 63
_symmetry_cell_setting 'orthorhombic'
loop_
_space_group_symop_operation_xyz
x,y,z
-x,-y,1/2+z
x,-y,-z
-x,y,1/2-z
-x,-y,-z
x,y,1/2-z
-x,y,z
x,-y,1/2+z
1/2+x,1/2+y,z
1/2-x,1/2-y,1/2+z
1/2+x,1/2-y,-z
1/2-x,1/2+y,1/2-z
1/2-x,1/2-y,-z
1/2+x,1/2+y,1/2-z
1/2-x,1/2+y,z
1/2+x,1/2-y,1/2+z
loop_
_atom_site_type_symbol
_atom_site_label
_atom_site_fract_x
_atom_site_fract_y
_atom_site_fract_z
Si Si1 0.588876 0.273046 0.124748
Si Si2 0.201248 0.639348 0.459148
Si Si3 0.306254 0.590114 0.356219
Si Si4 0.658862 0.962789 0.311252
O O1 0.500000 0.308701 0.114517
O O2 0.630509 0.242826 0.067297
O O3 0.625386 0.449740 0.150363
O O4 0.599237 0.102934 0.163439
O O5 0.162668 0.500000 0.500000
O O6 0.250000 0.750000 0.500000
O O7 0.259534 0.565401 0.412900
O O8 0.340664 0.785666 0.348156
O O9 0.243527 0.550315 0.309567
O O10 0.632913 0.917872 0.250000
#
# Coordination Sequence:
#
# PCOD8260918 Si02
#       4
#    16  16  16  16
#     4  11  25  42  60  94 135 164 203 267 323 367
#     4  11  19  38  65  88 121 165 215 257 305 370
#     4  11  21  39  64  95 123 164 215 263 303 379
#     4  11  22  39  66  94 121 165 219 260 307 378
#
# _framework density 19.728473999999999
#
# number of rings (size 3 to 8) (size 9 to 14) (size 15 to 20)
#    0.000    1.000    7.500    2.250    0.000    3.000 
#    0.000    2.500    0.000    0.000    0.000    0.000 
#    0.000    0.000    0.000    0.000    0.000    0.000 
#
# Total GULP energy -396620.575647 kJ/mol
# GULP energy per Si atom -12394.392989 kJ/mol
# Density = 1.968357 g / cm^3
# Si number density = 19.728474 Si / 1000 Ang^3
#
#
#
# Elastic Constant Matrix: (Units=GPa)
#
#
# Indices 1 2 3 4 5 6 
#
# 1 120.2740 29.5934 22.3388 0.0000 0.0000 0.0000
# 2 29.5934 107.1368 14.7836 0.0000 0.0000 0.0000
# 3 22.3388 14.7836 98.8594 0.0000 0.0000 0.0000
# 4 0.0000 0.0000 0.0000 29.0868 0.0000 0.0000
# 5 0.0000 0.0000 0.0000 0.0000 16.7026 0.0000
# 6 0.0000 0.0000 0.0000 0.0000 0.0000 27.8372
#
#
#
# Elastic Compliance Matrix: (Units=1/GPa)
#
#
# Indices 1 2 3 4 5 6 
#
# 1 0.009203 -0.002303 -0.001735 0.000000 0.000000 0.000000
# 2 -0.002303 0.010107 -0.000991 0.000000 0.000000 0.000000
# 3 -0.001735 -0.000991 0.010656 0.000000 0.000000 0.000000
# 4 0.000000 0.000000 0.000000 0.034380 0.000000 0.000000
# 5 0.000000 0.000000 0.000000 0.000000 0.059871 0.000000
# 6 0.000000 0.000000 0.000000 0.000000 0.000000 0.035923
#
#
# Mechanical properties :
#
#
# Convention : Reuss Voigt Hill
#
# Bulk Modulus (GPa) = 50.23206 51.07799 50.65503
# Shear Modulus (GPa) = 28.27521 32.02895 30.15208
#
# Velocity S-wave (km/s) = 3.78989 4.03362 3.91366
# Velocity P-wave (km/s) = 6.68342 6.90219 6.79368
#
# Compressibility (1/GPa) = 0.01990760
#
# Stress axis : x y z
#
# Youngs Moduli (GPa) = 108.65761 98.94463 93.84663
#
# Poissons Ratio (x) = 0.22784 0.16285
# Poissons Ratio (y) = 0.25020 0.09301
# Poissons Ratio (z) = 0.18855 0.09806
#
# Static dielectric constant tensor:
#      x y z
#    x 3.230770 0.000000 0.000000 
#    y 0.000000 4.466800 0.000000 
#    z 0.000000 0.000000 3.522660 
# 
# 
# High freq. dielectric constant tensor:
#      x y z
#    x 1.732800 0.000000 0.000000 
#    y 0.000000 1.786220 0.000000 
#    z 0.000000 0.000000 1.771740 
# 
# From -- ./inp_files/62357.got.cif
#   From: 2010.03.12/outbox.cif.g09.slc.cpg/sg63_32_cif.got.tgz:62357.got - 2010.04.10 19:34:48.
