data_PCOD8260839
_publ_section_title
;
Structure prediction by ZEFSAII (Michael W. Deem and Ramdas Pophale) SiO2 
 PCOD8260839
Probable space group: C M C M
;
_chemical_formula_sum "Si O2"
_cell_formula_units_Z 96
_cell_length_a 15.512785
_cell_length_b 21.792893
_cell_length_c 13.781230
_cell_angle_alpha 90.000000
_cell_angle_beta 90.000000
_cell_angle_gamma 90.000000
_cell_volume 4658.999253
_symmetry_space_group_name_H-M "C M C M"
_symmetry_group_IT_number 63
_symmetry_cell_setting 'orthorhombic'
loop_
_space_group_symop_operation_xyz
x,y,z
-x,-y,1/2+z
x,-y,-z
-x,y,1/2-z
-x,-y,-z
x,y,1/2-z
-x,y,z
x,-y,1/2+z
1/2+x,1/2+y,z
1/2-x,1/2-y,1/2+z
1/2+x,1/2-y,-z
1/2-x,1/2+y,1/2-z
1/2-x,1/2-y,-z
1/2+x,1/2+y,1/2-z
1/2-x,1/2+y,z
1/2+x,1/2-y,1/2+z
loop_
_atom_site_type_symbol
_atom_site_label
_atom_site_fract_x
_atom_site_fract_y
_atom_site_fract_z
Si Si1 0.000000 0.881821 0.355131
Si Si2 0.901513 0.523722 0.357738
Si Si3 0.099303 0.160739 0.140362
Si Si4 0.352842 0.431234 0.014644
Si Si5 0.500000 0.239473 0.359188
Si Si6 0.836367 0.588395 0.962770
Si Si7 0.849475 0.727907 0.987242
O O1 0.085071 0.897876 0.412075
O O2 0.000000 0.914808 0.250000
O O3 0.000000 0.810477 0.340527
O O4 0.861960 0.526681 0.250000
O O5 0.850277 0.571860 0.424081
O O6 0.897872 0.453581 0.396727
O O7 0.000000 0.544720 0.357527
O O8 0.134541 0.165251 0.250000
O O9 0.000000 0.140993 0.138268
O O10 0.151908 0.107470 0.085277
O O11 0.108001 0.226708 0.089957
O O12 0.260131 0.431417 0.064785
O O13 0.386745 0.500000 0.000000
O O14 0.500000 0.208216 0.250000
O O15 0.589388 0.223824 0.416848
O O16 0.850650 0.659899 0.941674
O O17 0.750000 0.750000 0.000000
#
# Coordination Sequence:
#
# PCOD8260839 Si02
#       7
#     8  16  16  16   8  16  16
#     4  11  23  41  65  93 127 167 214 262 316 379
#     4  10  23  43  64  93 129 165 212 261 314 383
#     4  11  24  43  66  93 129 169 213 264 320 382
#     4  12  22  43  64  91 132 167 213 264 317 377
#     4  11  24  43  67  98 134 173 216 272 331 391
#     4  11  23  40  68  93 127 171 207 265 323 373
#     4  12  23  43  68  94 135 170 218 272 325 389
#
# _framework density 20.605281999999999
#
# number of rings (size 3 to 8) (size 9 to 14) (size 15 to 20)
#    0.000    0.833    6.667    1.250    2.333    4.000 
#    0.000    1.667    0.000    0.000    0.000    0.000 
#    0.000    0.000    0.000    0.000    0.000    0.000 
#
# Total GULP energy -595089.735707 kJ/mol
# GULP energy per Si atom -12397.702827 kJ/mol
# Density = 2.055838 g / cm^3
# Si number density = 20.605282 Si / 1000 Ang^3
#
#
#
# Elastic Constant Matrix: (Units=GPa)
#
#
# Indices 1 2 3 4 5 6 
#
# 1 98.7215 -9.3452 22.6283 0.0000 0.0000 0.0000
# 2 -9.3452 111.9335 13.1013 0.0000 0.0000 0.0000
# 3 22.6283 13.1013 119.1617 0.0000 0.0000 0.0000
# 4 0.0000 0.0000 0.0000 9.9222 0.0000 0.0000
# 5 0.0000 0.0000 0.0000 0.0000 4.8396 0.0000
# 6 0.0000 0.0000 0.0000 0.0000 0.0000 31.8785
#
#
#
# Elastic Compliance Matrix: (Units=1/GPa)
#
#
# Indices 1 2 3 4 5 6 
#
# 1 0.010735 0.001150 -0.002165 0.000000 0.000000 0.000000
# 2 0.001150 0.009173 -0.001227 0.000000 0.000000 0.000000
# 3 -0.002165 -0.001227 0.008938 0.000000 0.000000 0.000000
# 4 0.000000 0.000000 0.000000 0.100784 0.000000 0.000000
# 5 0.000000 0.000000 0.000000 0.000000 0.206630 0.000000
# 6 0.000000 0.000000 0.000000 0.000000 0.000000 0.031369
#
#
# Mechanical properties :
#
#
# Convention : Reuss Voigt Hill
#
# Bulk Modulus (GPa) = 41.04806 42.50951 41.77879
# Shear Modulus (GPa) = 13.14980 29.55687 21.35334
#
# Velocity S-wave (km/s) = 2.52896 3.79150 3.22266
# Velocity P-wave (km/s) = 5.33778 6.31209 5.84527
#
# Compressibility (1/GPa) = 0.02436169
#
# Stress axis : x y z
#
# Youngs Moduli (GPa) = 93.15723 109.01023 111.88259
#
# Poissons Ratio (x) = -0.12532 0.24221
# Poissons Ratio (y) = -0.10709 0.13727
# Poissons Ratio (z) = 0.20167 0.13374
#
# Static dielectric constant tensor:
#      x y z
#    x 4.793630 0.000000 0.000000 
#    y 0.000000 3.770830 0.000000 
#    z 0.000000 0.000000 3.972530 
# 
# 
# High freq. dielectric constant tensor:
#      x y z
#    x 1.815270 0.000000 0.000000 
#    y 0.000000 1.812710 0.000000 
#    z 0.000000 0.000000 1.797570 
# 
# From -- ./inp_files/31973.got.cif
#   From: 2010.03.12/outbox.cif.g09.slc.cpg/sg63_16_cif.got.tgz:31973.got - 2010.04.10 19:34:48.
