data_PCOD8260182
_publ_section_title
;
Structure prediction by ZEFSAII (Michael W. Deem and Ramdas Pophale) SiO2 
 PCOD8260182
Probable space group: C M C M
;
_chemical_formula_sum "Si O2"
_cell_formula_units_Z 64
_cell_length_a 10.395070
_cell_length_b 19.673476
_cell_length_c 14.450410
_cell_angle_alpha 90.000000
_cell_angle_beta 90.000000
_cell_angle_gamma 90.000000
_cell_volume 2955.212312
_symmetry_space_group_name_H-M "C M C M"
_symmetry_group_IT_number 63
_symmetry_cell_setting 'orthorhombic'
loop_
_space_group_symop_operation_xyz
x,y,z
-x,-y,1/2+z
x,-y,-z
-x,y,1/2-z
-x,-y,-z
x,y,1/2-z
-x,y,z
x,-y,1/2+z
1/2+x,1/2+y,z
1/2-x,1/2-y,1/2+z
1/2+x,1/2-y,-z
1/2-x,1/2+y,1/2-z
1/2-x,1/2-y,-z
1/2+x,1/2+y,1/2-z
1/2-x,1/2+y,z
1/2+x,1/2-y,1/2+z
loop_
_atom_site_type_symbol
_atom_site_label
_atom_site_fract_x
_atom_site_fract_y
_atom_site_fract_z
Si Si1 0.644281 0.484813 0.354317
Si Si2 0.223454 0.379687 0.647382
Si Si3 0.143516 0.602555 0.547718
Si Si4 0.145531 0.737972 0.855544
O O1 0.662280 0.456623 0.250000
O O2 0.500000 0.467576 0.390303
O O3 0.659486 0.566451 0.354405
O O4 0.752808 0.452737 0.419966
O O5 0.157108 0.382251 0.750000
O O6 0.127877 0.398493 0.563814
O O7 0.271889 0.304422 0.625565
O O8 0.194745 0.675782 0.581615
O O9 0.000000 0.586787 0.588027
O O10 0.158094 0.713902 0.750000
O O11 0.000000 0.756238 0.881563
#
# Coordination Sequence:
#
# PCOD8260182 Si02
#       4
#    16  16  16  16
#     4  10  22  40  62  88 116 149 193 244 294 344
#     4  10  21  37  58  84 116 155 199 244 286 334
#     4  11  23  38  59  88 121 157 193 234 291 352
#     4   9  18  35  59  85 113 148 193 243 294 347
#
# _framework density 21.656649999999999
#
# number of rings (size 3 to 8) (size 9 to 14) (size 15 to 20)
#    0.000    2.000    0.000    3.000    0.000   10.000 
#    0.000    3.750    0.000    1.500    0.000    0.000 
#    0.000    0.000    0.000    0.000    0.000    0.000 
#
# Total GULP energy -396581.303224 kJ/mol
# GULP energy per Si atom -12393.165726 kJ/mol
# Density = 2.160736 g / cm^3
# Si number density = 21.656650 Si / 1000 Ang^3
#
#
#
# Elastic Constant Matrix: (Units=GPa)
#
#
# Indices 1 2 3 4 5 6 
#
# 1 96.7366 44.2515 31.3811 0.0000 0.0000 0.0000
# 2 44.2515 114.0664 37.6074 0.0000 0.0000 0.0000
# 3 31.3811 37.6074 117.2618 0.0000 0.0000 0.0000
# 4 0.0000 0.0000 0.0000 30.3336 0.0000 0.0000
# 5 0.0000 0.0000 0.0000 0.0000 25.1806 0.0000
# 6 0.0000 0.0000 0.0000 0.0000 0.0000 18.1724
#
#
#
# Elastic Compliance Matrix: (Units=1/GPa)
#
#
# Indices 1 2 3 4 5 6 
#
# 1 0.013007 -0.004359 -0.002083 0.000000 0.000000 0.000000
# 2 -0.004359 0.011264 -0.002446 0.000000 0.000000 0.000000
# 3 -0.002083 -0.002446 0.009870 0.000000 0.000000 0.000000
# 4 0.000000 0.000000 0.000000 0.032967 0.000000 0.000000
# 5 0.000000 0.000000 0.000000 0.000000 0.039713 0.000000
# 6 0.000000 0.000000 0.000000 0.000000 0.000000 0.055028
#
#
# Mechanical properties :
#
#
# Convention : Reuss Voigt Hill
#
# Bulk Modulus (GPa) = 61.10598 61.61608 61.36103
# Shear Modulus (GPa) = 27.01516 29.05897 28.03706
#
# Velocity S-wave (km/s) = 3.53573 3.66704 3.60198
# Velocity P-wave (km/s) = 6.70415 6.81489 6.75974
#
# Compressibility (1/GPa) = 0.01636501
#
# Stress axis : x y z
#
# Youngs Moduli (GPa) = 76.88063 88.77464 101.31922
#
# Poissons Ratio (x) = 0.38700 0.21103
# Poissons Ratio (y) = 0.33515 0.24783
# Poissons Ratio (z) = 0.16013 0.21715
#
# Static dielectric constant tensor:
#      x y z
#    x 3.474730 0.000000 0.000000 
#    y 0.000000 3.902720 0.000000 
#    z 0.000000 0.000000 4.136890 
# 
# 
# High freq. dielectric constant tensor:
#      x y z
#    x 1.819970 0.000000 0.000000 
#    y 0.000000 1.852860 0.000000 
#    z 0.000000 0.000000 1.864640 
# 
# From -- ./inp_files/29111.got.cif
#   From: 2010.03.12/outbox.cif.g09.slc.cpg/sg63_15_cif.got.tgz:29111.got - 2010.04.10 19:34:48.
