data_PCOD8260044
_publ_section_title
;
Structure prediction by ZEFSAII (Michael W. Deem and Ramdas Pophale) SiO2 
 PCOD8260044
Probable space group: C M C M
;
_chemical_formula_sum "Si O2"
_cell_formula_units_Z 80
_cell_length_a 9.214924
_cell_length_b 29.561441
_cell_length_c 14.877528
_cell_angle_alpha 90.000000
_cell_angle_beta 90.000000
_cell_angle_gamma 90.000000
_cell_volume 4052.734322
_symmetry_space_group_name_H-M "C M C M"
_symmetry_group_IT_number 63
_symmetry_cell_setting 'orthorhombic'
loop_
_space_group_symop_operation_xyz
x,y,z
-x,-y,1/2+z
x,-y,-z
-x,y,1/2-z
-x,-y,-z
x,y,1/2-z
-x,y,z
x,-y,1/2+z
1/2+x,1/2+y,z
1/2-x,1/2-y,1/2+z
1/2+x,1/2-y,-z
1/2-x,1/2+y,1/2-z
1/2-x,1/2-y,-z
1/2+x,1/2+y,1/2-z
1/2-x,1/2+y,z
1/2+x,1/2-y,1/2+z
loop_
_atom_site_type_symbol
_atom_site_label
_atom_site_fract_x
_atom_site_fract_y
_atom_site_fract_z
Si Si1 0.670102 0.052408 0.990057
Si Si2 0.331549 0.387961 0.355374
Si Si3 0.338635 0.784898 0.856637
Si Si4 0.172403 0.384713 0.650315
Si Si5 0.162427 0.299561 0.143155
O O1 0.500000 0.061102 0.974063
O O2 0.758000 0.069669 0.904124
O O3 0.726976 0.078032 0.079495
O O4 0.705832 0.000000 0.000000
O O5 0.306989 0.395120 0.250000
O O6 0.500000 0.384982 0.380092
O O7 0.255431 0.342203 0.390150
O O8 0.347300 0.780674 0.750000
O O9 0.500000 0.777796 0.896966
O O10 0.276621 0.834646 0.881860
O O11 0.233320 0.746267 0.896337
O O12 0.235340 0.396086 0.750000
O O13 0.000000 0.384450 0.656275
O O14 0.159937 0.297754 0.250000
O O15 0.000000 0.304172 0.104222
#
# Coordination Sequence:
#
# PCOD8260044 Si02
#       5
#    16  16  16  16  16
#     4  10  21  36  56  82 108 135 173 224 274 316
#     4  10  21  37  56  77 105 143 182 217 258 312
#     4   8  13  24  45  71 100 136 173 205 244 304
#     4   8  15  30  52  77 106 140 175 211 257 316
#     4   9  16  27  47  76 107 135 167 212 261 307
#
# _framework density 19.739758999999999
#
# number of rings (size 3 to 8) (size 9 to 14) (size 15 to 20)
#    0.000    3.000    0.000    2.400    0.000    4.800 
#    0.000    4.000    0.000    1.800    0.000    0.000 
#    0.000    0.000    0.000    0.000    0.000    0.000 
#
# Total GULP energy -495895.430526 kJ/mol
# GULP energy per Si atom -12397.385763 kJ/mol
# Density = 1.969483 g / cm^3
# Si number density = 19.739759 Si / 1000 Ang^3
#
#
#
# Elastic Constant Matrix: (Units=GPa)
#
#
# Indices 1 2 3 4 5 6 
#
# 1 103.2799 79.4221 40.7881 0.0000 0.0000 0.0000
# 2 79.4221 176.0239 57.7977 0.0000 0.0000 0.0000
# 3 40.7881 57.7977 61.5350 0.0000 0.0000 0.0000
# 4 0.0000 0.0000 0.0000 3.5646 0.0000 0.0000
# 5 0.0000 0.0000 0.0000 0.0000 16.0623 0.0000
# 6 0.0000 0.0000 0.0000 0.0000 0.0000 11.1188
#
#
#
# Elastic Compliance Matrix: (Units=1/GPa)
#
#
# Indices 1 2 3 4 5 6 
#
# 1 0.016036 -0.005415 -0.005543 0.000000 0.000000 0.000000
# 2 -0.005415 0.010043 -0.005844 0.000000 0.000000 0.000000
# 3 -0.005543 -0.005844 0.025414 0.000000 0.000000 0.000000
# 4 0.000000 0.000000 0.000000 0.280540 0.000000 0.000000
# 5 0.000000 0.000000 0.000000 0.000000 0.062258 0.000000
# 6 0.000000 0.000000 0.000000 0.000000 0.000000 0.089938
#
#
# Mechanical properties :
#
#
# Convention : Reuss Voigt Hill
#
# Bulk Modulus (GPa) = 55.90015 77.42829 66.66422
# Shear Modulus (GPa) = 9.54572 17.00452 13.27512
#
# Velocity S-wave (km/s) = 2.20143 2.93821 2.59609
# Velocity P-wave (km/s) = 5.90269 7.12884 6.54455
#
# Compressibility (1/GPa) = 0.01788904
#
# Stress axis : x y z
#
# Youngs Moduli (GPa) = 62.36014 99.56907 39.34882
#
# Poissons Ratio (x) = 0.53921 0.21810
# Poissons Ratio (y) = 0.33771 0.22994
# Poissons Ratio (z) = 0.34565 0.58185
#
# Static dielectric constant tensor:
#      x y z
#    x 3.502510 0.000000 0.000000 
#    y 0.000000 3.713100 0.000000 
#    z 0.000000 0.000000 3.482660 
# 
# 
# High freq. dielectric constant tensor:
#      x y z
#    x 1.743750 0.000000 0.000000 
#    y 0.000000 1.771120 0.000000 
#    z 0.000000 0.000000 1.756540 
# 
# From -- ./inp_files/40718.got.cif
#   From: 2010.03.12/outbox.cif.g09.slc.cpg/sg63_21_cif.got.tgz:40718.got - 2010.04.10 19:34:48.
