data_PCOD8260054
_publ_section_title
;
Structure prediction by ZEFSAII (Michael W. Deem and Ramdas Pophale) SiO2 
 PCOD8260054
Probable space group: C M C M
;
_chemical_formula_sum "Si O2"
_cell_formula_units_Z 96
_cell_length_a 8.551526
_cell_length_b 23.378414
_cell_length_c 24.922618
_cell_angle_alpha 90.000000
_cell_angle_beta 90.000000
_cell_angle_gamma 90.000000
_cell_volume 4982.557583
_symmetry_space_group_name_H-M "C M C M"
_symmetry_group_IT_number 63
_symmetry_cell_setting 'orthorhombic'
loop_
_space_group_symop_operation_xyz
x,y,z
-x,-y,1/2+z
x,-y,-z
-x,y,1/2-z
-x,-y,-z
x,y,1/2-z
-x,y,z
x,-y,1/2+z
1/2+x,1/2+y,z
1/2-x,1/2-y,1/2+z
1/2+x,1/2-y,-z
1/2-x,1/2+y,1/2-z
1/2-x,1/2-y,-z
1/2+x,1/2+y,1/2-z
1/2-x,1/2+y,z
1/2+x,1/2-y,1/2+z
loop_
_atom_site_type_symbol
_atom_site_label
_atom_site_fract_x
_atom_site_fract_y
_atom_site_fract_z
Si Si1 0.183107 0.133683 0.398618
Si Si2 0.681407 0.944576 0.688724
Si Si3 0.318407 0.566385 0.995049
Si Si4 0.318920 0.435490 0.312191
Si Si5 0.817095 0.747809 0.440454
Si Si6 0.180278 0.637353 0.598032
O O1 0.271850 0.109429 0.346999
O O2 0.232946 0.097479 0.450549
O O3 0.232736 0.198994 0.406222
O O4 0.000000 0.129701 0.387947
O O5 0.723118 0.928999 0.750000
O O6 0.500000 0.958760 0.681946
O O7 0.776569 0.000305 0.669466
O O8 0.500000 0.577817 0.982128
O O9 0.214921 0.590271 0.946998
O O10 0.280695 0.500000 0.000000
O O11 0.277619 0.427015 0.250000
O O12 0.500000 0.425291 0.324755
O O13 0.218277 0.389135 0.344151
O O14 0.750000 0.750000 0.500000
O O15 0.787372 0.807383 0.410794
O O16 0.000000 0.735003 0.443562
O O17 0.000000 0.655546 0.595470
#
# Coordination Sequence:
#
# PCOD8260054 Si02
#       6
#    16  16  16  16  16  16
#     4  11  22  37  60  88 120 157 200 247 296 352
#     4  10  21  38  61  90 124 160 199 246 298 353
#     4  10  21  36  56  84 119 154 191 240 297 354
#     4  10  21  39  63  89 120 159 200 245 299 355
#     4  12  24  41  62  85 118 158 202 246 295 355
#     4  12  24  38  60  88 119 155 198 245 298 357
#
# _framework density 19.267213000000002
#
# number of rings (size 3 to 8) (size 9 to 14) (size 15 to 20)
#    0.000    1.167    1.667    5.500    0.000    4.333 
#    0.000    0.833    0.000    5.000    0.000    0.000 
#    0.000    0.000    0.000    0.000    0.000    0.000 
#
# Total GULP energy -595584.898381 kJ/mol
# GULP energy per Si atom -12408.018716 kJ/mol
# Density = 1.922336 g / cm^3
# Si number density = 19.267213 Si / 1000 Ang^3
#
#
#
# Elastic Constant Matrix: (Units=GPa)
#
#
# Indices 1 2 3 4 5 6 
#
# 1 61.8656 6.6809 24.8399 0.0000 0.0000 0.0000
# 2 6.6809 106.9486 48.5218 0.0000 0.0000 0.0000
# 3 24.8399 48.5218 93.7794 0.0000 0.0000 0.0000
# 4 0.0000 0.0000 0.0000 32.2991 0.0000 0.0000
# 5 0.0000 0.0000 0.0000 0.0000 32.3060 0.0000
# 6 0.0000 0.0000 0.0000 0.0000 0.0000 34.8238
#
#
#
# Elastic Compliance Matrix: (Units=1/GPa)
#
#
# Indices 1 2 3 4 5 6 
#
# 1 0.018241 0.001375 -0.005543 0.000000 0.000000 0.000000
# 2 0.001375 0.012322 -0.006740 0.000000 0.000000 0.000000
# 3 -0.005543 -0.006740 0.015619 0.000000 0.000000 0.000000
# 4 0.000000 0.000000 0.000000 0.030961 0.000000 0.000000
# 5 0.000000 0.000000 0.000000 0.000000 0.030954 0.000000
# 6 0.000000 0.000000 0.000000 0.000000 0.000000 0.028716
#
#
# Mechanical properties :
#
#
# Convention : Reuss Voigt Hill
#
# Bulk Modulus (GPa) = 41.03942 46.96432 44.00187
# Shear Modulus (GPa) = 29.98487 32.05583 31.02035
#
# Velocity S-wave (km/s) = 3.94923 4.08333 4.01684
# Velocity P-wave (km/s) = 6.49166 6.83079 6.66338
#
# Compressibility (1/GPa) = 0.02436682
#
# Stress axis : x y z
#
# Youngs Moduli (GPa) = 54.82074 81.15443 64.02523
#
# Poissons Ratio (x) = -0.11163 0.35491
# Poissons Ratio (y) = -0.07540 0.43152
# Poissons Ratio (z) = 0.30389 0.54697
#
# Static dielectric constant tensor:
#      x y z
#    x 3.624450 0.000000 0.000000 
#    y 0.000000 3.594660 0.000000 
#    z 0.000000 0.000000 3.528120 
# 
# 
# High freq. dielectric constant tensor:
#      x y z
#    x 1.760720 0.000000 0.000000 
#    y 0.000000 1.751910 0.000000 
#    z 0.000000 0.000000 1.748960 
# 
# From -- ./inp_files/59905.got.cif
#   From: 2010.03.12/outbox.cif.g09.slc.cpg/sg63_30_cif.got.tgz:59905.got - 2010.04.10 19:34:48.
