data_PCOD8260305
_publ_section_title
;
Structure prediction by ZEFSAII (Michael W. Deem and Ramdas Pophale) SiO2 
 PCOD8260305
Probable space group: C M C M
;
_chemical_formula_sum "Si O2"
_cell_formula_units_Z 96
_cell_length_a 19.989401
_cell_length_b 23.270692
_cell_length_c 11.128039
_cell_angle_alpha 90.000000
_cell_angle_beta 90.000000
_cell_angle_gamma 90.000000
_cell_volume 5176.398676
_symmetry_space_group_name_H-M "C M C M"
_symmetry_group_IT_number 63
_symmetry_cell_setting 'orthorhombic'
loop_
_space_group_symop_operation_xyz
x,y,z
-x,-y,1/2+z
x,-y,-z
-x,y,1/2-z
-x,-y,-z
x,y,1/2-z
-x,y,z
x,-y,1/2+z
1/2+x,1/2+y,z
1/2-x,1/2-y,1/2+z
1/2+x,1/2-y,-z
1/2-x,1/2+y,1/2-z
1/2-x,1/2-y,-z
1/2+x,1/2+y,1/2-z
1/2-x,1/2+y,z
1/2+x,1/2-y,1/2+z
loop_
_atom_site_type_symbol
_atom_site_label
_atom_site_fract_x
_atom_site_fract_y
_atom_site_fract_z
Si Si1 0.785426 0.328807 0.107412
Si Si2 0.574922 0.093225 0.250000
Si Si3 0.349397 0.724538 0.524023
Si Si4 0.322568 0.935395 0.951939
Si Si5 0.816949 0.039528 0.116801
Si Si6 0.925520 0.134034 0.113917
Si Si7 0.075196 0.728040 0.250000
O O1 0.784304 0.334484 0.250000
O O2 0.710616 0.318956 0.057474
O O3 0.827875 0.273258 0.069979
O O4 0.818614 0.387474 0.057027
O O5 0.500000 0.066077 0.250000
O O6 0.613085 0.073931 0.369598
O O7 0.568329 0.160701 0.250000
O O8 0.408724 0.688277 0.466829
O O9 0.380302 0.754403 0.638455
O O10 0.254326 0.928194 0.875192
O O11 0.328647 0.000000 0.000000
O O12 0.828177 0.010058 0.250000
O O13 0.876765 0.081833 0.088087
O O14 0.814737 0.000000 0.000000
O O15 0.919021 0.155022 0.250000
O O16 0.000000 0.112649 0.082925
O O17 0.000000 0.755295 0.250000
#
# Coordination Sequence:
#
# PCOD8260305 Si02
#       7
#    16   8  16  16  16  16   8
#     4  11  23  37  61  93 121 153 201 257 300 355
#     4  11  24  44  65  88 119 155 200 246 305 372
#     4  11  21  38  59  88 125 158 200 247 303 360
#     4  11  23  40  66  89 116 157 199 250 303 362
#     4  10  21  38  62  90 120 161 209 256 303 362
#     4  10  21  38  60  86 122 166 206 247 300 360
#     4  11  22  38  61  86 122 163 202 242 298 368
#
# _framework density 18.545712000000002
#
# number of rings (size 3 to 8) (size 9 to 14) (size 15 to 20)
#    0.000    1.333    5.000    1.000    1.167    1.333 
#    1.500    0.000    0.000    1.000    0.000    0.000 
#    0.000    0.000    0.000    0.000    0.000    0.000 
#
# Total GULP energy -594972.850927 kJ/mol
# GULP energy per Si atom -12395.267728 kJ/mol
# Density = 1.850350 g / cm^3
# Si number density = 18.545712 Si / 1000 Ang^3
#
#
#
# Elastic Constant Matrix: (Units=GPa)
#
#
# Indices 1 2 3 4 5 6 
#
# 1 132.9822 50.0625 36.8806 0.0000 0.0000 0.0000
# 2 50.0625 83.8289 60.7438 0.0000 0.0000 0.0000
# 3 36.8806 60.7438 111.3640 0.0000 0.0000 0.0000
# 4 0.0000 0.0000 0.0000 18.9946 0.0000 0.0000
# 5 0.0000 0.0000 0.0000 0.0000 31.9767 0.0000
# 6 0.0000 0.0000 0.0000 0.0000 0.0000 18.7990
#
#
#
# Elastic Compliance Matrix: (Units=1/GPa)
#
#
# Indices 1 2 3 4 5 6 
#
# 1 0.009701 -0.005730 -0.000087 0.000000 0.000000 0.000000
# 2 -0.005730 0.023110 -0.010708 0.000000 0.000000 0.000000
# 3 -0.000087 -0.010708 0.014849 0.000000 0.000000 0.000000
# 4 0.000000 0.000000 0.000000 0.052646 0.000000 0.000000
# 5 0.000000 0.000000 0.000000 0.000000 0.031273 0.000000
# 6 0.000000 0.000000 0.000000 0.000000 0.000000 0.053194
#
#
# Mechanical properties :
#
#
# Convention : Reuss Voigt Hill
#
# Bulk Modulus (GPa) = 68.44696 69.28321 68.86509
# Shear Modulus (GPa) = 22.45226 25.98663 24.21945
#
# Velocity S-wave (km/s) = 3.48321 3.74735 3.61769
# Velocity P-wave (km/s) = 7.29138 7.49418 7.39347
#
# Compressibility (1/GPa) = 0.01460985
#
# Stress axis : x y z
#
# Youngs Moduli (GPa) = 103.07956 43.27068 67.34455
#
# Poissons Ratio (x) = 0.24796 0.00586
# Poissons Ratio (y) = 0.59069 0.72111
# Poissons Ratio (z) = 0.00898 0.46333
#
# Static dielectric constant tensor:
#      x y z
#    x 3.891800 0.000000 0.000000 
#    y 0.000000 3.289810 0.000000 
#    z 0.000000 0.000000 3.432840 
# 
# 
# High freq. dielectric constant tensor:
#      x y z
#    x 1.727680 0.000000 0.000000 
#    y 0.000000 1.711970 0.000000 
#    z 0.000000 0.000000 1.729600 
# 
# From -- ./inp_files/22824.got.cif
#   From: 2010.03.12/outbox.cif.g09.slc.cpg/sg63_12_cif.got.tgz:22824.got - 2010.04.10 19:34:48.
