data_PCOD8260972
_publ_section_title
;
Structure prediction by ZEFSAII (Michael W. Deem and Ramdas Pophale) SiO2 
 PCOD8260972
Probable space group: C M C M
;
_chemical_formula_sum "Si O2"
_cell_formula_units_Z 96
_cell_length_a 24.251106
_cell_length_b 13.574119
_cell_length_c 17.919566
_cell_angle_alpha 90.000000
_cell_angle_beta 90.000000
_cell_angle_gamma 90.000000
_cell_volume 5898.895318
_symmetry_space_group_name_H-M "C M C M"
_symmetry_group_IT_number 63
_symmetry_cell_setting 'orthorhombic'
loop_
_space_group_symop_operation_xyz
x,y,z
-x,-y,1/2+z
x,-y,-z
-x,y,1/2-z
-x,-y,-z
x,y,1/2-z
-x,y,z
x,-y,1/2+z
1/2+x,1/2+y,z
1/2-x,1/2-y,1/2+z
1/2+x,1/2-y,-z
1/2-x,1/2+y,1/2-z
1/2-x,1/2-y,-z
1/2+x,1/2+y,1/2-z
1/2-x,1/2+y,z
1/2+x,1/2-y,1/2+z
loop_
_atom_site_type_symbol
_atom_site_label
_atom_site_fract_x
_atom_site_fract_y
_atom_site_fract_z
Si Si1 0.060273 0.997367 0.661357
Si Si2 0.271153 0.994149 0.587959
Si Si3 0.438946 0.276588 0.838520
Si Si4 0.833665 0.663292 0.837356
Si Si5 0.728260 0.208161 0.335501
Si Si6 0.830051 0.904991 0.162670
O O1 0.059784 0.994661 0.750000
O O2 0.071523 0.887028 0.630836
O O3 0.000000 0.034171 0.632647
O O4 0.108330 0.070590 0.633381
O O5 0.319538 0.063869 0.618813
O O6 0.212107 0.024591 0.620172
O O7 0.269603 0.000000 0.500000
O O8 0.284347 0.882587 0.610935
O O9 0.434392 0.279287 0.750000
O O10 0.500000 0.239784 0.863132
O O11 0.392103 0.202811 0.869020
O O12 0.835590 0.637417 0.750000
O O13 0.788253 0.747055 0.852808
O O14 0.724754 0.172895 0.250000
O O15 0.682037 0.290603 0.353161
O O16 0.822786 0.928797 0.250000
#
# Coordination Sequence:
#
# PCOD8260972 Si02
#       6
#    16  16  16  16  16  16
#     4   8  13  23  43  71  96 113 135 173 219 264
#     4  11  21  30  43  64  90 119 150 185 222 259
#     4   8  13  22  40  66  90 110 136 176 223 263
#     4   9  17  29  46  66  88 115 146 181 220 262
#     4   9  17  30  47  65  86 114 146 178 215 261
#     4   9  17  29  46  67  90 118 148 178 217 263
#
# _framework density 16.274232999999999
#
# number of rings (size 3 to 8) (size 9 to 14) (size 15 to 20)
#    0.000    3.000    0.000    4.500    0.000    5.333 
#    0.000    0.000    0.000    2.000    0.000    7.000 
#    0.000    0.000    0.000    0.000    0.000    0.000 
#
# Total GULP energy -594986.550310 kJ/mol
# GULP energy per Si atom -12395.553131 kJ/mol
# Density = 1.623719 g / cm^3
# Si number density = 16.274233 Si / 1000 Ang^3
#
#
#
# Elastic Constant Matrix: (Units=GPa)
#
#
# Indices 1 2 3 4 5 6 
#
# 1 154.2110 76.5596 33.4660 0.0000 0.0000 0.0000
# 2 76.5596 110.8091 43.4061 0.0000 0.0000 0.0000
# 3 33.4660 43.4061 53.0607 0.0000 0.0000 0.0000
# 4 0.0000 0.0000 0.0000 3.7384 0.0000 0.0000
# 5 0.0000 0.0000 0.0000 0.0000 5.2718 0.0000
# 6 0.0000 0.0000 0.0000 0.0000 0.0000 27.2532
#
#
#
# Elastic Compliance Matrix: (Units=1/GPa)
#
#
# Indices 1 2 3 4 5 6 
#
# 1 0.009903 -0.006468 -0.000955 0.000000 0.000000 0.000000
# 2 -0.006468 0.017505 -0.010240 0.000000 0.000000 0.000000
# 3 -0.000955 -0.010240 0.027825 0.000000 0.000000 0.000000
# 4 0.000000 0.000000 0.000000 0.267492 0.000000 0.000000
# 5 0.000000 0.000000 0.000000 0.000000 0.189687 0.000000
# 6 0.000000 0.000000 0.000000 0.000000 0.000000 0.036693
#
#
# Mechanical properties :
#
#
# Convention : Reuss Voigt Hill
#
# Bulk Modulus (GPa) = 50.23324 69.43824 59.83574
# Shear Modulus (GPa) = 8.45928 18.22931 13.34429
#
# Velocity S-wave (km/s) = 2.28238 3.35047 2.86661
# Velocity P-wave (km/s) = 6.15462 7.59788 6.91401
#
# Compressibility (1/GPa) = 0.01990714
#
# Stress axis : x y z
#
# Youngs Moduli (GPa) = 100.97976 57.12742 35.93845
#
# Poissons Ratio (x) = 0.36951 0.03431
# Poissons Ratio (y) = 0.65315 0.36801
# Poissons Ratio (z) = 0.09640 0.58499
#
# Static dielectric constant tensor:
#      x y z
#    x 3.420600 0.000000 0.000000 
#    y 0.000000 3.045610 0.000000 
#    z 0.000000 0.000000 2.680110 
# 
# 
# High freq. dielectric constant tensor:
#      x y z
#    x 1.625470 0.000000 0.000000 
#    y 0.000000 1.617960 0.000000 
#    z 0.000000 0.000000 1.584340 
# 
# From -- ./inp_files/48058.got.cif
#   From: 2010.03.12/outbox.cif.g09.slc.cpg/sg63_25_cif.got.tgz:48058.got - 2010.04.10 19:34:48.
