data_PCOD8260758
_publ_section_title
;
Structure prediction by ZEFSAII (Michael W. Deem and Ramdas Pophale) SiO2 
 PCOD8260758
Probable space group: C M C M
;
_chemical_formula_sum "Si O2"
_cell_formula_units_Z 64
_cell_length_a 8.820145
_cell_length_b 30.473970
_cell_length_c 12.045112
_cell_angle_alpha 90.000000
_cell_angle_beta 90.000000
_cell_angle_gamma 90.000000
_cell_volume 3237.543431
_symmetry_space_group_name_H-M "C M C M"
_symmetry_group_IT_number 63
_symmetry_cell_setting 'orthorhombic'
loop_
_space_group_symop_operation_xyz
x,y,z
-x,-y,1/2+z
x,-y,-z
-x,y,1/2-z
-x,-y,-z
x,y,1/2-z
-x,y,z
x,-y,1/2+z
1/2+x,1/2+y,z
1/2-x,1/2-y,1/2+z
1/2+x,1/2-y,-z
1/2-x,1/2+y,1/2-z
1/2-x,1/2-y,-z
1/2+x,1/2+y,1/2-z
1/2-x,1/2+y,z
1/2+x,1/2-y,1/2+z
loop_
_atom_site_type_symbol
_atom_site_label
_atom_site_fract_x
_atom_site_fract_y
_atom_site_fract_z
Si Si1 0.820884 0.875682 0.378950
Si Si2 0.673311 0.050875 0.475366
Si Si3 0.324157 0.576415 0.250000
Si Si4 0.173851 0.703448 0.486815
Si Si5 0.331459 0.164344 0.250000
O O1 0.774184 0.874270 0.250000
O O2 0.756426 0.920310 0.431600
O O3 0.756067 0.833124 0.439828
O O4 0.000000 0.875821 0.394658
O O5 0.500000 0.066983 0.470724
O O6 0.748787 0.055904 0.357027
O O7 0.686731 0.000000 0.500000
O O8 0.500000 0.565227 0.250000
O O9 0.299431 0.628331 0.250000
O O10 0.250000 0.750000 0.500000
O O11 0.189612 0.693963 0.357158
O O12 0.000000 0.705427 0.525289
O O13 0.500000 0.142523 0.250000
#
# Coordination Sequence:
#
# PCOD8260758 Si02
#       5
#    16  16   8  16   8
#     4  11  25  44  65  94 132 169 211 266 324 382
#     4  11  25  44  67  95 129 171 217 264 318 383
#     4  12  24  40  68  97 128 167 212 268 323 377
#     4  11  24  42  66  95 129 169 214 264 320 383
#     4  10  22  42  66  91 126 169 210 264 321 375
#
# _framework density 19.768073999999999
#
# number of rings (size 3 to 8) (size 9 to 14) (size 15 to 20)
#    0.000    1.000    2.500    3.375    3.500    5.000 
#    0.000    0.000    0.000    0.000    0.000    0.000 
#    0.000    0.000    0.000    0.000    0.000    0.000 
#
# Total GULP energy -396915.226747 kJ/mol
# GULP energy per Si atom -12403.600836 kJ/mol
# Density = 1.972308 g / cm^3
# Si number density = 19.768074 Si / 1000 Ang^3
#
#
#
# Elastic Constant Matrix: (Units=GPa)
#
#
# Indices 1 2 3 4 5 6 
#
# 1 139.6397 66.2545 85.4350 0.0000 0.0000 0.0000
# 2 66.2545 113.7224 61.5933 0.0000 0.0000 0.0000
# 3 85.4350 61.5933 174.5305 0.0000 0.0000 0.0000
# 4 0.0000 0.0000 0.0000 36.4601 0.0000 0.0000
# 5 0.0000 0.0000 0.0000 0.0000 36.8319 0.0000
# 6 0.0000 0.0000 0.0000 0.0000 0.0000 38.4180
#
#
#
# Elastic Compliance Matrix: (Units=1/GPa)
#
#
# Indices 1 2 3 4 5 6 
#
# 1 0.011955 -0.004692 -0.004196 0.000000 0.000000 0.000000
# 2 -0.004692 0.012713 -0.002190 0.000000 0.000000 0.000000
# 3 -0.004196 -0.002190 0.008556 0.000000 0.000000 0.000000
# 4 0.000000 0.000000 0.000000 0.027427 0.000000 0.000000
# 5 0.000000 0.000000 0.000000 0.000000 0.027150 0.000000
# 6 0.000000 0.000000 0.000000 0.000000 0.000000 0.026029
#
#
# Mechanical properties :
#
#
# Convention : Reuss Voigt Hill
#
# Bulk Modulus (GPa) = 90.34780 94.93981 92.64380
# Shear Modulus (GPa) = 35.79694 36.64934 36.22314
#
# Velocity S-wave (km/s) = 4.26002 4.31044 4.28531
# Velocity P-wave (km/s) = 8.36661 8.53840 8.45294
#
# Compressibility (1/GPa) = 0.01106834
#
# Stress axis : x y z
#
# Youngs Moduli (GPa) = 83.64768 78.66006 116.87082
#
# Poissons Ratio (x) = 0.36909 0.49041
# Poissons Ratio (y) = 0.39249 0.25590
# Poissons Ratio (z) = 0.35100 0.17223
#
# Static dielectric constant tensor:
#      x y z
#    x 3.902140 0.000000 0.000000 
#    y 0.000000 3.606950 0.000000 
#    z 0.000000 0.000000 3.836740 
# 
# 
# High freq. dielectric constant tensor:
#      x y z
#    x 1.788080 0.000000 0.000000 
#    y 0.000000 1.780160 0.000000 
#    z 0.000000 0.000000 1.789630 
# 
# From -- ./inp_files/16245.got.cif
#   From: 2010.03.12/outbox.cif.g09.slc.cpg/sg63_9_cif.got.tgz:16245.got - 2010.04.10 19:34:48.
