data_PCOD8260563
_publ_section_title
;
Structure prediction by ZEFSAII (Michael W. Deem and Ramdas Pophale) SiO2 
 PCOD8260563
Probable space group: C M C M
;
_chemical_formula_sum "Si O2"
_cell_formula_units_Z 96
_cell_length_a 22.067960
_cell_length_b 11.328698
_cell_length_c 18.951234
_cell_angle_alpha 90.000000
_cell_angle_beta 90.000000
_cell_angle_gamma 90.000000
_cell_volume 4737.832271
_symmetry_space_group_name_H-M "C M C M"
_symmetry_group_IT_number 63
_symmetry_cell_setting 'orthorhombic'
loop_
_space_group_symop_operation_xyz
x,y,z
-x,-y,1/2+z
x,-y,-z
-x,y,1/2-z
-x,-y,-z
x,y,1/2-z
-x,y,z
x,-y,1/2+z
1/2+x,1/2+y,z
1/2-x,1/2-y,1/2+z
1/2+x,1/2-y,-z
1/2-x,1/2+y,1/2-z
1/2-x,1/2-y,-z
1/2+x,1/2+y,1/2-z
1/2-x,1/2+y,z
1/2+x,1/2-y,1/2+z
loop_
_atom_site_type_symbol
_atom_site_label
_atom_site_fract_x
_atom_site_fract_y
_atom_site_fract_z
Si Si1 0.746661 0.374858 0.542333
Si Si2 0.068423 0.675155 0.538770
Si Si3 0.386717 0.420931 0.931551
Si Si4 0.368507 0.166360 0.105664
Si Si5 0.929617 0.887279 0.167298
Si Si6 0.928634 0.539337 0.826931
O O1 0.756134 0.500000 0.500000
O O2 0.750000 0.250000 0.500000
O O3 0.682047 0.378017 0.581484
O O4 0.797053 0.360979 0.603501
O O5 0.069011 0.814085 0.550503
O O6 0.107021 0.632692 0.472101
O O7 0.096911 0.619600 0.610033
O O8 0.000000 0.632573 0.525769
O O9 0.413399 0.483647 0.862162
O O10 0.388672 0.500000 0.000000
O O11 0.384676 0.300639 0.124835
O O12 0.399592 0.089665 0.166387
O O13 0.915540 0.884718 0.250000
O O14 0.000000 0.855872 0.152188
O O15 0.910941 0.591821 0.750000
O O16 0.000000 0.525087 0.832919
#
# Coordination Sequence:
#
# PCOD8260563 Si02
#       6
#    16  16  16  16  16  16
#     4  11  22  40  65  96 131 171 218 273 330 388
#     4  11  21  34  60  92 119 154 208 265 315 376
#     4  11  22  40  64  91 122 165 215 266 316 381
#     4  12  21  37  64  92 123 163 213 263 318 386
#     4  11  24  42  65  95 132 171 213 269 338 400
#     4  10  22  38  55  83 124 163 200 250 318 385
#
# _framework density 20.262432
#
# number of rings (size 3 to 8) (size 9 to 14) (size 15 to 20)
#    0.000    1.000    3.333    5.000    0.000    4.000 
#    0.000    3.333    0.000    0.000    0.000    0.000 
#    0.000    0.000    0.000    0.000    0.000    0.000 
#
# Total GULP energy -595081.062404 kJ/mol
# GULP energy per Si atom -12397.522133 kJ/mol
# Density = 2.021631 g / cm^3
# Si number density = 20.262432 Si / 1000 Ang^3
#
#
#
# Elastic Constant Matrix: (Units=GPa)
#
#
# Indices 1 2 3 4 5 6 
#
# 1 59.0305 18.0521 39.2722 0.0000 0.0000 0.0000
# 2 18.0521 76.4931 18.5195 0.0000 0.0000 0.0000
# 3 39.2722 18.5195 110.0255 0.0000 0.0000 0.0000
# 4 0.0000 0.0000 0.0000 33.1357 0.0000 0.0000
# 5 0.0000 0.0000 0.0000 0.0000 15.1192 0.0000
# 6 0.0000 0.0000 0.0000 0.0000 0.0000 34.5354
#
#
#
# Elastic Compliance Matrix: (Units=1/GPa)
#
#
# Indices 1 2 3 4 5 6 
#
# 1 0.023133 -0.003607 -0.007650 0.000000 0.000000 0.000000
# 2 -0.003607 0.014191 -0.001101 0.000000 0.000000 0.000000
# 3 -0.007650 -0.001101 0.012005 0.000000 0.000000 0.000000
# 4 0.000000 0.000000 0.000000 0.030179 0.000000 0.000000
# 5 0.000000 0.000000 0.000000 0.000000 0.066141 0.000000
# 6 0.000000 0.000000 0.000000 0.000000 0.000000 0.028956
#
#
# Mechanical properties :
#
#
# Convention : Reuss Voigt Hill
#
# Bulk Modulus (GPa) = 40.63020 44.13743 42.38382
# Shear Modulus (GPa) = 24.09352 27.87173 25.98263
#
# Velocity S-wave (km/s) = 3.45204 3.71285 3.58481
# Velocity P-wave (km/s) = 5.99869 6.34117 6.17231
#
# Compressibility (1/GPa) = 0.02461224
#
# Stress axis : x y z
#
# Youngs Moduli (GPa) = 43.22859 70.46749 83.30113
#
# Poissons Ratio (x) = 0.25419 0.63724
# Poissons Ratio (y) = 0.15593 0.09172
# Poissons Ratio (z) = 0.33069 0.07759
#
# Static dielectric constant tensor:
#      x y z
#    x 3.860160 0.000000 0.000000 
#    y 0.000000 3.999630 0.000000 
#    z 0.000000 0.000000 3.718760 
# 
# 
# High freq. dielectric constant tensor:
#      x y z
#    x 1.788800 0.000000 0.000000 
#    y 0.000000 1.803200 0.000000 
#    z 0.000000 0.000000 1.777600 
# 
# From -- ./inp_files/48009.got.cif
#   From: 2010.03.12/outbox.cif.g09.slc.cpg/sg63_25_cif.got.tgz:48009.got - 2010.04.10 19:34:48.
