data_PCOD8260331
_publ_section_title
;
Structure prediction by ZEFSAII (Michael W. Deem and Ramdas Pophale) SiO2 
 PCOD8260331
Probable space group: C M C M
;
_chemical_formula_sum "Si O2"
_cell_formula_units_Z 72
_cell_length_a 21.402538
_cell_length_b 19.329718
_cell_length_c 8.683614
_cell_angle_alpha 90.000000
_cell_angle_beta 90.000000
_cell_angle_gamma 90.000000
_cell_volume 3592.454738
_symmetry_space_group_name_H-M "C M C M"
_symmetry_group_IT_number 63
_symmetry_cell_setting 'orthorhombic'
loop_
_space_group_symop_operation_xyz
x,y,z
-x,-y,1/2+z
x,-y,-z
-x,y,1/2-z
-x,-y,-z
x,y,1/2-z
-x,y,z
x,-y,1/2+z
1/2+x,1/2+y,z
1/2-x,1/2-y,1/2+z
1/2+x,1/2-y,-z
1/2-x,1/2+y,1/2-z
1/2-x,1/2-y,-z
1/2+x,1/2+y,1/2-z
1/2-x,1/2+y,z
1/2+x,1/2-y,1/2+z
loop_
_atom_site_type_symbol
_atom_site_label
_atom_site_fract_x
_atom_site_fract_y
_atom_site_fract_z
Si Si1 0.611113 0.339057 0.571447
Si Si2 0.427291 0.201307 0.072421
Si Si3 0.862823 0.425817 0.067782
Si Si4 0.768984 0.072113 0.429290
Si Si5 0.000000 0.075600 0.569221
O O1 0.592644 0.340356 0.750000
O O2 0.612401 0.260986 0.510172
O O3 0.679668 0.369424 0.542542
O O4 0.561597 0.384099 0.479495
O O5 0.407440 0.197310 0.250000
O O6 0.500000 0.218900 0.053639
O O7 0.413336 0.128794 0.991477
O O8 0.864582 0.429446 0.250000
O O9 0.881513 0.500000 0.000000
O O10 0.794091 0.403113 0.012190
O O11 0.754870 0.060386 0.250000
O O12 0.793326 0.000000 0.500000
O O13 0.000000 0.068357 0.750000
O O14 0.000000 0.000000 0.500000
#
# Coordination Sequence:
#
# PCOD8260331 Si02
#       5
#    16  16  16  16   8
#     4  11  23  39  61  89 123 162 204 251 304 362
#     4  11  24  42  64  90 122 161 203 252 306 363
#     4  11  23  41  66  92 121 158 199 252 307 365
#     4  10  21  38  61  90 123 160 202 252 303 360
#     4  12  24  38  58  86 121 164 209 254 300 354
#
# _framework density 20.042007000000002
#
# number of rings (size 3 to 8) (size 9 to 14) (size 15 to 20)
#    0.000    1.111    1.111    7.000    0.000    8.000 
#    0.000    0.000    0.000    0.000    0.000    0.000 
#    0.000    0.000    0.000    0.000    0.000    0.000 
#
# Total GULP energy -446654.359360 kJ/mol
# GULP energy per Si atom -12407.065538 kJ/mol
# Density = 1.999639 g / cm^3
# Si number density = 20.042007 Si / 1000 Ang^3
#
#
#
# Elastic Constant Matrix: (Units=GPa)
#
#
# Indices 1 2 3 4 5 6 
#
# 1 42.3080 32.7347 35.8068 0.0000 0.0000 0.0000
# 2 32.7347 123.4800 51.0693 0.0000 0.0000 0.0000
# 3 35.8068 51.0693 165.7053 0.0000 0.0000 0.0000
# 4 0.0000 0.0000 0.0000 40.1296 0.0000 0.0000
# 5 0.0000 0.0000 0.0000 0.0000 33.9054 0.0000
# 6 0.0000 0.0000 0.0000 0.0000 0.0000 35.4105
#
#
#
# Elastic Compliance Matrix: (Units=1/GPa)
#
#
# Indices 1 2 3 4 5 6 
#
# 1 0.033112 -0.006669 -0.005100 0.000000 0.000000 0.000000
# 2 -0.006669 0.010625 -0.001833 0.000000 0.000000 0.000000
# 3 -0.005100 -0.001833 0.007702 0.000000 0.000000 0.000000
# 4 0.000000 0.000000 0.000000 0.024919 0.000000 0.000000
# 5 0.000000 0.000000 0.000000 0.000000 0.029494 0.000000
# 6 0.000000 0.000000 0.000000 0.000000 0.000000 0.028240
#
#
# Mechanical properties :
#
#
# Convention : Reuss Voigt Hill
#
# Bulk Modulus (GPa) = 41.26341 63.41279 52.33810
# Shear Modulus (GPa) = 29.52039 36.01460 32.76750
#
# Velocity S-wave (km/s) = 3.84204 4.24365 4.04783
# Velocity P-wave (km/s) = 6.34939 7.46459 6.92946
#
# Compressibility (1/GPa) = 0.02423454
#
# Stress axis : x y z
#
# Youngs Moduli (GPa) = 30.20031 94.12054 129.83881
#
# Poissons Ratio (x) = 0.62768 0.66216
# Poissons Ratio (y) = 0.20140 0.23805
# Poissons Ratio (z) = 0.15402 0.17256
#
# Static dielectric constant tensor:
#      x y z
#    x 3.540910 0.000000 0.000000 
#    y 0.000000 3.923160 0.000000 
#    z 0.000000 0.000000 3.859420 
# 
# 
# High freq. dielectric constant tensor:
#      x y z
#    x 1.779970 0.000000 0.000000 
#    y 0.000000 1.791280 0.000000 
#    z 0.000000 0.000000 1.804110 
# 
# From -- ./inp_files/9834.got.cif
#   From: 2010.03.12/outbox.cif.g09.slc.cpg/sg63_5_cif.got.tgz:9834.got - 2010.04.10 19:34:48.
