data_PCOD8260287
_publ_section_title
;
Structure prediction by ZEFSAII (Michael W. Deem and Ramdas Pophale) SiO2 
 PCOD8260287
Probable space group: C M C M
;
_chemical_formula_sum "Si O2"
_cell_formula_units_Z 64
_cell_length_a 14.617394
_cell_length_b 27.690550
_cell_length_c 7.776119
_cell_angle_alpha 90.000000
_cell_angle_beta 90.000000
_cell_angle_gamma 90.000000
_cell_volume 3147.490538
_symmetry_space_group_name_H-M "C M C M"
_symmetry_group_IT_number 63
_symmetry_cell_setting 'orthorhombic'
loop_
_space_group_symop_operation_xyz
x,y,z
-x,-y,1/2+z
x,-y,-z
-x,y,1/2-z
-x,-y,-z
x,y,1/2-z
-x,y,z
x,-y,1/2+z
1/2+x,1/2+y,z
1/2-x,1/2-y,1/2+z
1/2+x,1/2-y,-z
1/2-x,1/2+y,1/2-z
1/2-x,1/2-y,-z
1/2+x,1/2+y,1/2-z
1/2-x,1/2+y,z
1/2+x,1/2-y,1/2+z
loop_
_atom_site_type_symbol
_atom_site_label
_atom_site_fract_x
_atom_site_fract_y
_atom_site_fract_z
Si Si1 0.391235 0.189629 0.250000
Si Si2 0.395526 0.876734 0.058709
Si Si3 0.606239 0.365365 0.554775
Si Si4 0.608499 0.297276 0.250000
Si Si5 0.749643 0.554035 0.053159
O O1 0.500000 0.192446 0.250000
O O2 0.356482 0.161781 0.420718
O O3 0.349072 0.243428 0.250000
O O4 0.388523 0.853995 0.250000
O O5 0.500000 0.890652 0.015039
O O6 0.335692 0.925366 0.052852
O O7 0.624220 0.347010 0.750000
O O8 0.500000 0.376817 0.524266
O O9 0.641885 0.324739 0.422110
O O10 0.659224 0.414763 0.515603
O O11 0.500000 0.293687 0.250000
O O12 0.778697 0.556322 0.250000
O O13 0.726385 0.500000 0.000000
#
# Coordination Sequence:
#
# PCOD8260287 Si02
#       5
#     8  16  16   8  16
#     4   9  18  36  59  86 115 147 192 235 280 336
#     4  10  21  38  60  84 116 152 188 235 283 334
#     4   9  20  38  58  84 118 150 189 235 278 335
#     4   9  18  34  61  86 111 153 190 231 286 330
#     4  11  23  38  60  85 115 153 189 236 287 336
#
# _framework density 20.333659000000001
#
# number of rings (size 3 to 8) (size 9 to 14) (size 15 to 20)
#    0.000    2.250    1.250    0.750    3.500    2.000 
#    0.000    6.250    0.000    0.000    0.000    0.000 
#    0.000    0.000    0.000    0.000    0.000    0.000 
#
# Total GULP energy -396823.125201 kJ/mol
# GULP energy per Si atom -12400.722663 kJ/mol
# Density = 2.028738 g / cm^3
# Si number density = 20.333659 Si / 1000 Ang^3
#
#
#
# Elastic Constant Matrix: (Units=GPa)
#
#
# Indices 1 2 3 4 5 6 
#
# 1 52.7271 33.6979 36.3199 0.0000 0.0000 0.0000
# 2 33.6979 147.8822 65.7742 0.0000 0.0000 0.0000
# 3 36.3199 65.7742 135.7514 0.0000 0.0000 0.0000
# 4 0.0000 0.0000 0.0000 25.3474 0.0000 0.0000
# 5 0.0000 0.0000 0.0000 0.0000 21.7186 0.0000
# 6 0.0000 0.0000 0.0000 0.0000 0.0000 21.4218
#
#
#
# Elastic Compliance Matrix: (Units=1/GPa)
#
#
# Indices 1 2 3 4 5 6 
#
# 1 0.024525 -0.003404 -0.004912 0.000000 0.000000 0.000000
# 2 -0.003404 0.009092 -0.003495 0.000000 0.000000 0.000000
# 3 -0.004912 -0.003495 0.010374 0.000000 0.000000 0.000000
# 4 0.000000 0.000000 0.000000 0.039452 0.000000 0.000000
# 5 0.000000 0.000000 0.000000 0.000000 0.046043 0.000000
# 6 0.000000 0.000000 0.000000 0.000000 0.000000 0.046681
#
#
# Mechanical properties :
#
#
# Convention : Reuss Voigt Hill
#
# Bulk Modulus (GPa) = 49.09328 67.54942 58.32135
# Shear Modulus (GPa) = 24.20390 27.06880 25.63635
#
# Velocity S-wave (km/s) = 3.45387 3.65256 3.55460
# Velocity P-wave (km/s) = 6.33260 7.14709 6.75214
#
# Compressibility (1/GPa) = 0.02036939
#
# Stress axis : x y z
#
# Youngs Moduli (GPa) = 40.77540 109.98637 96.39537
#
# Poissons Ratio (x) = 0.37434 0.47353
# Poissons Ratio (y) = 0.13878 0.33687
# Poissons Ratio (z) = 0.20031 0.38437
#
# Static dielectric constant tensor:
#      x y z
#    x 3.510580 0.000000 0.000000 
#    y 0.000000 3.776150 0.000000 
#    z 0.000000 0.000000 3.960900 
# 
# 
# High freq. dielectric constant tensor:
#      x y z
#    x 1.785880 0.000000 0.000000 
#    y 0.000000 1.776380 0.000000 
#    z 0.000000 0.000000 1.812390 
# 
# From -- ./inp_files/4305.got.cif
#   From: 2010.03.12/outbox.cif.g09.slc.cpg/sg63_3_cif.got.tgz:4305.got - 2010.04.10 19:34:48.
