data_PCOD8260777
_publ_section_title
;
Structure prediction by ZEFSAII (Michael W. Deem and Ramdas Pophale) SiO2 
 PCOD8260777
Probable space group: C M C M
;
_chemical_formula_sum "Si O2"
_cell_formula_units_Z 56
_cell_length_a 25.743185
_cell_length_b 9.778093
_cell_length_c 10.734872
_cell_angle_alpha 90.000000
_cell_angle_beta 90.000000
_cell_angle_gamma 90.000000
_cell_volume 2702.174004
_symmetry_space_group_name_H-M "C M C M"
_symmetry_group_IT_number 63
_symmetry_cell_setting 'orthorhombic'
loop_
_space_group_symop_operation_xyz
x,y,z
-x,-y,1/2+z
x,-y,-z
-x,y,1/2-z
-x,-y,-z
x,y,1/2-z
-x,y,z
x,-y,1/2+z
1/2+x,1/2+y,z
1/2-x,1/2-y,1/2+z
1/2+x,1/2-y,-z
1/2-x,1/2+y,1/2-z
1/2-x,1/2-y,-z
1/2+x,1/2+y,1/2-z
1/2-x,1/2+y,z
1/2+x,1/2-y,1/2+z
loop_
_atom_site_type_symbol
_atom_site_label
_atom_site_fract_x
_atom_site_fract_y
_atom_site_fract_z
Si Si1 0.000000 0.394042 0.111847
Si Si2 0.876866 0.910744 0.113911
Si Si3 0.716984 0.503913 0.750000
Si Si4 0.310216 0.201538 0.750000
Si Si5 0.891122 0.342216 0.463732
O O1 0.947155 0.306965 0.097791
O O2 0.000000 0.462908 0.250000
O O3 0.000000 0.500000 0.000000
O O4 0.903582 0.942606 0.250000
O O5 0.815494 0.947099 0.127843
O O6 0.884551 0.750222 0.086504
O O7 0.900872 0.000000 0.000000
O O8 0.723818 0.339718 0.750000
O O9 0.773759 0.569152 0.750000
O O10 0.345992 0.200714 0.629197
O O11 0.886270 0.500000 0.500000
#
# Coordination Sequence:
#
# PCOD8260777 Si02
#       5
#     8  16   8   8  16
#     4  10  22  42  69 102 137 178 232 286 338 402
#     4  10  22  45  66  93 138 175 222 283 336 399
#     4  10  26  40  68  95 137 179 233 276 334 405
#     4  12  24  43  66  99 139 184 225 282 342 403
#     4  11  24  40  70  98 137 181 229 279 344 404
#
# _framework density 20.724056000000001
#
# number of rings (size 3 to 8) (size 9 to 14) (size 15 to 20)
#    0.857    0.571    4.286    0.000    6.000    3.429 
#    0.000    0.714    0.000    0.000    0.000    0.000 
#    0.000    0.000    0.000    0.000    0.000    0.000 
#
# Total GULP energy -346913.757418 kJ/mol
# GULP energy per Si atom -12389.777051 kJ/mol
# Density = 2.067689 g / cm^3
# Si number density = 20.724056 Si / 1000 Ang^3
#
#
#
# Elastic Constant Matrix: (Units=GPa)
#
#
# Indices 1 2 3 4 5 6 
#
# 1 98.8025 50.8255 31.4670 0.0000 0.0000 0.0000
# 2 50.8255 137.9852 58.6839 0.0000 0.0000 0.0000
# 3 31.4670 58.6839 171.1469 0.0000 0.0000 0.0000
# 4 0.0000 0.0000 0.0000 38.6512 0.0000 0.0000
# 5 0.0000 0.0000 0.0000 0.0000 18.1365 0.0000
# 6 0.0000 0.0000 0.0000 0.0000 0.0000 18.4376
#
#
#
# Elastic Compliance Matrix: (Units=1/GPa)
#
#
# Indices 1 2 3 4 5 6 
#
# 1 0.012592 -0.004277 -0.000849 0.000000 0.000000 0.000000
# 2 -0.004277 0.009937 -0.002621 0.000000 0.000000 0.000000
# 3 -0.000849 -0.002621 0.006898 0.000000 0.000000 0.000000
# 4 0.000000 0.000000 0.000000 0.025872 0.000000 0.000000
# 5 0.000000 0.000000 0.000000 0.000000 0.055138 0.000000
# 6 0.000000 0.000000 0.000000 0.000000 0.000000 0.054237
#
#
# Mechanical properties :
#
#
# Convention : Reuss Voigt Hill
#
# Bulk Modulus (GPa) = 71.77044 76.65415 74.21229
# Shear Modulus (GPa) = 27.05461 32.84226 29.94844
#
# Velocity S-wave (km/s) = 3.61705 3.98520 3.80558
# Velocity P-wave (km/s) = 7.22154 7.63178 7.42949
#
# Compressibility (1/GPa) = 0.01393331
#
# Stress axis : x y z
#
# Youngs Moduli (GPa) = 79.41753 100.63126 144.97730
#
# Poissons Ratio (x) = 0.43041 0.12302
# Poissons Ratio (y) = 0.33968 0.37998
# Poissons Ratio (z) = 0.06739 0.26375
#
# Static dielectric constant tensor:
#      x y z
#    x 3.902270 0.000000 0.000000 
#    y 0.000000 3.632870 0.000000 
#    z 0.000000 0.000000 3.845660 
# 
# 
# High freq. dielectric constant tensor:
#      x y z
#    x 1.789040 0.000000 0.000000 
#    y 0.000000 1.805680 0.000000 
#    z 0.000000 0.000000 1.822140 
# 
# From -- ./inp_files/25443.got.cif
#   From: 2010.03.12/outbox.cif.g09.slc.cpg/sg63_13_cif.got.tgz:25443.got - 2010.04.10 19:34:48.
