data_PCOD8260022
_publ_section_title
;
Structure prediction by ZEFSAII (Michael W. Deem and Ramdas Pophale) SiO2 
 PCOD8260022
Probable space group: C M C M
;
_chemical_formula_sum "Si O2"
_cell_formula_units_Z 64
_cell_length_a 9.569935
_cell_length_b 10.081586
_cell_length_c 34.959184
_cell_angle_alpha 90.000000
_cell_angle_beta 90.000000
_cell_angle_gamma 90.000000
_cell_volume 3372.866362
_symmetry_space_group_name_H-M "C M C M"
_symmetry_group_IT_number 63
_symmetry_cell_setting 'orthorhombic'
loop_
_space_group_symop_operation_xyz
x,y,z
-x,-y,1/2+z
x,-y,-z
-x,y,1/2-z
-x,-y,-z
x,y,1/2-z
-x,y,z
x,-y,1/2+z
1/2+x,1/2+y,z
1/2-x,1/2-y,1/2+z
1/2+x,1/2-y,-z
1/2-x,1/2+y,1/2-z
1/2-x,1/2-y,-z
1/2+x,1/2+y,1/2-z
1/2-x,1/2+y,z
1/2+x,1/2-y,1/2+z
loop_
_atom_site_type_symbol
_atom_site_label
_atom_site_fract_x
_atom_site_fract_y
_atom_site_fract_z
Si Si1 0.340085 0.793906 0.419241
Si Si2 0.663632 0.519364 0.043644
Si Si3 0.663329 0.518640 0.205987
Si Si4 0.660008 0.792410 0.330838
O O1 0.500000 0.832559 0.427941
O O2 0.294209 0.667383 0.444149
O O3 0.318812 0.756943 0.375091
O O4 0.244257 0.917346 0.429627
O O5 0.500000 0.493394 0.049530
O O6 0.710134 0.500000 0.000000
O O7 0.703930 0.497169 0.250000
O O8 0.500000 0.496559 0.198537
O O9 0.707890 0.666269 0.193886
O O10 0.745616 0.416288 0.179927
O O11 0.500000 0.829587 0.321790
#
# Coordination Sequence:
#
# PCOD8260022 Si02
#       4
#    16  16  16  16
#     4  10  21  36  55  81 110 141 179 220 265 319
#     4  10  21  37  57  81 109 142 180 222 268 318
#     4  10  21  37  57  81 109 142 180 222 268 318
#     4  10  21  37  56  79 109 143 178 219 267 318
#
# _framework density 18.974958999999998
#
# number of rings (size 3 to 8) (size 9 to 14) (size 15 to 20)
#    0.000    2.000    0.000    3.000    0.000    7.000 
#    0.000    0.000    0.000    0.000    0.000    0.000 
#    0.000    0.000    0.000    0.000    0.000    0.000 
#
# Total GULP energy -397000.213220 kJ/mol
# GULP energy per Si atom -12406.256663 kJ/mol
# Density = 1.893177 g / cm^3
# Si number density = 18.974959 Si / 1000 Ang^3
#
#
#
# Elastic Constant Matrix: (Units=GPa)
#
#
# Indices 1 2 3 4 5 6 
#
# 1 51.6652 45.7648 23.5749 0.0000 0.0000 0.0000
# 2 45.7648 90.7932 18.9436 0.0000 0.0000 0.0000
# 3 23.5749 18.9436 63.9545 0.0000 0.0000 0.0000
# 4 0.0000 0.0000 0.0000 42.3385 0.0000 0.0000
# 5 0.0000 0.0000 0.0000 0.0000 31.5942 0.0000
# 6 0.0000 0.0000 0.0000 0.0000 0.0000 38.6357
#
#
#
# Elastic Compliance Matrix: (Units=1/GPa)
#
#
# Indices 1 2 3 4 5 6 
#
# 1 0.039497 -0.017982 -0.009233 0.000000 0.000000 0.000000
# 2 -0.017982 0.019927 0.000726 0.000000 0.000000 0.000000
# 3 -0.009233 0.000726 0.018824 0.000000 0.000000 0.000000
# 4 0.000000 0.000000 0.000000 0.023619 0.000000 0.000000
# 5 0.000000 0.000000 0.000000 0.000000 0.031651 0.000000
# 6 0.000000 0.000000 0.000000 0.000000 0.000000 0.025883
#
#
# Mechanical properties :
#
#
# Convention : Reuss Voigt Hill
#
# Bulk Modulus (GPa) = 39.57240 42.55327 41.06283
# Shear Modulus (GPa) = 22.64466 30.38898 26.51682
#
# Velocity S-wave (km/s) = 3.45831 4.00625 3.74232
# Velocity P-wave (km/s) = 6.07016 6.62381 6.35302
#
# Compressibility (1/GPa) = 0.02527014
#
# Stress axis : x y z
#
# Youngs Moduli (GPa) = 25.31837 50.18428 53.12244
#
# Poissons Ratio (x) = 0.90243 0.49048
# Poissons Ratio (y) = 0.45528 -0.03858
# Poissons Ratio (z) = 0.23376 -0.03645
#
# Static dielectric constant tensor:
#      x y z
#    x 3.393790 0.000000 0.000000 
#    y 0.000000 3.408540 0.000000 
#    z 0.000000 0.000000 3.602130 
# 
# 
# High freq. dielectric constant tensor:
#      x y z
#    x 1.730990 0.000000 0.000000 
#    y 0.000000 1.743590 0.000000 
#    z 0.000000 0.000000 1.753600 
# 
# From -- ./inp_files/71340.got.cif
#   From: 2010.03.12/outbox.cif.g09.slc.cpg/sg63_36_cif.got.tgz:71340.got - 2010.04.10 19:34:48.
