data_PCOD8260811
_publ_section_title
;
Structure prediction by ZEFSAII (Michael W. Deem and Ramdas Pophale) SiO2 
 PCOD8260811
Probable space group: C M C M
;
_chemical_formula_sum "Si O2"
_cell_formula_units_Z 64
_cell_length_a 8.099128
_cell_length_b 10.493351
_cell_length_c 33.489273
_cell_angle_alpha 90.000000
_cell_angle_beta 90.000000
_cell_angle_gamma 90.000000
_cell_volume 2846.152607
_symmetry_space_group_name_H-M "C M C M"
_symmetry_group_IT_number 63
_symmetry_cell_setting 'orthorhombic'
loop_
_space_group_symop_operation_xyz
x,y,z
-x,-y,1/2+z
x,-y,-z
-x,y,1/2-z
-x,-y,-z
x,y,1/2-z
-x,y,z
x,-y,1/2+z
1/2+x,1/2+y,z
1/2-x,1/2-y,1/2+z
1/2+x,1/2-y,-z
1/2-x,1/2+y,1/2-z
1/2-x,1/2-y,-z
1/2+x,1/2+y,1/2-z
1/2-x,1/2+y,z
1/2+x,1/2-y,1/2+z
loop_
_atom_site_type_symbol
_atom_site_label
_atom_site_fract_x
_atom_site_fract_y
_atom_site_fract_z
Si Si1 0.321117 0.683292 0.914264
Si Si2 0.500000 0.807894 0.520906
Si Si3 0.308732 0.312509 0.840758
Si Si4 0.500000 0.921640 0.059397
Si Si5 0.305115 0.433714 0.295618
O O1 0.500000 0.616650 0.903444
O O2 0.337949 0.741599 0.959168
O O3 0.291657 0.794659 0.881947
O O4 0.165494 0.587490 0.913462
O O5 0.500000 0.804033 0.472869
O O6 0.500000 0.951651 0.535148
O O7 0.500000 0.324480 0.851393
O O8 0.244751 0.441432 0.819744
O O9 0.283206 0.191450 0.812163
O O10 0.250688 0.453105 0.250000
O O11 0.500000 0.415789 0.299494
#
# Coordination Sequence:
#
# PCOD8260811 Si02
#       5
#    16   8  16   8  16
#     4  10  23  39  62  94 125 166 213 258 317 385
#     4   9  24  40  65  93 124 167 218 257 323 389
#     4  11  23  40  64  92 130 171 211 266 322 379
#     4  11  20  46  63  89 132 163 208 279 311 373
#     4  10  23  42  64  92 126 166 216 266 320 384
#
# _framework density 22.486494
#
# number of rings (size 3 to 8) (size 9 to 14) (size 15 to 20)
#    0.750    1.000    1.250    2.250    3.500    3.500 
#    2.250    1.250    0.000    0.000    0.000    0.000 
#    0.000    0.000    0.000    0.000    0.000    0.000 
#
# Total GULP energy -396491.974752 kJ/mol
# GULP energy per Si atom -12390.374211 kJ/mol
# Density = 2.243531 g / cm^3
# Si number density = 22.486494 Si / 1000 Ang^3
#
#
#
# Elastic Constant Matrix: (Units=GPa)
#
#
# Indices 1 2 3 4 5 6 
#
# 1 121.3550 15.6707 1.6540 0.0000 0.0000 0.0000
# 2 15.6707 74.4427 -13.3347 0.0000 0.0000 0.0000
# 3 1.6540 -13.3347 44.1338 0.0000 0.0000 0.0000
# 4 0.0000 0.0000 0.0000 33.2379 0.0000 0.0000
# 5 0.0000 0.0000 0.0000 0.0000 38.6668 0.0000
# 6 0.0000 0.0000 0.0000 0.0000 0.0000 21.8943
#
#
#
# Elastic Compliance Matrix: (Units=1/GPa)
#
#
# Indices 1 2 3 4 5 6 
#
# 1 0.008505 -0.001953 -0.000909 0.000000 0.000000 0.000000
# 2 -0.001953 0.014650 0.004500 0.000000 0.000000 0.000000
# 3 -0.000909 0.004500 0.024052 0.000000 0.000000 0.000000
# 4 0.000000 0.000000 0.000000 0.030086 0.000000 0.000000
# 5 0.000000 0.000000 0.000000 0.000000 0.025862 0.000000
# 6 0.000000 0.000000 0.000000 0.000000 0.000000 0.045674
#
#
# Mechanical properties :
#
#
# Convention : Reuss Voigt Hill
#
# Bulk Modulus (GPa) = 19.80882 27.54572 23.67727
# Shear Modulus (GPa) = 30.79169 34.48924 32.64047
#
# Velocity S-wave (km/s) = 3.70448 3.92059 3.81407
# Velocity P-wave (km/s) = 5.20825 5.72462 5.47253
#
# Compressibility (1/GPa) = 0.05048256
#
# Stress axis : x y z
#
# Youngs Moduli (GPa) = 117.57944 68.25789 41.57659
#
# Poissons Ratio (x) = 0.13332 0.03779
# Poissons Ratio (y) = 0.22965 -0.18708
# Poissons Ratio (z) = 0.10686 -0.30714
#
# Static dielectric constant tensor:
#      x y z
#    x 4.036990 0.000000 0.000000 
#    y 0.000000 3.770180 0.000000 
#    z 0.000000 0.000000 4.271910 
# 
# 
# High freq. dielectric constant tensor:
#      x y z
#    x 1.887690 0.000000 0.000000 
#    y 0.000000 1.864400 0.000000 
#    z 0.000000 0.000000 1.897380 
# 
# From -- ./inp_files/71370.got.cif
#   From: 2010.03.12/outbox.cif.g09.slc.cpg/sg63_36_cif.got.tgz:71370.got - 2010.04.10 19:34:48.
