data_PCOD8260623
_publ_section_title
;
Structure prediction by ZEFSAII (Michael W. Deem and Ramdas Pophale) SiO2 
 PCOD8260623
Probable space group: C M C M
;
_chemical_formula_sum "Si O2"
_cell_formula_units_Z 80
_cell_length_a 24.875625
_cell_length_b 9.784910
_cell_length_c 16.900438
_cell_angle_alpha 90.000000
_cell_angle_beta 90.000000
_cell_angle_gamma 90.000000
_cell_volume 4113.663817
_symmetry_space_group_name_H-M "C M C M"
_symmetry_group_IT_number 63
_symmetry_cell_setting 'orthorhombic'
loop_
_space_group_symop_operation_xyz
x,y,z
-x,-y,1/2+z
x,-y,-z
-x,y,1/2-z
-x,-y,-z
x,y,1/2-z
-x,y,z
x,-y,1/2+z
1/2+x,1/2+y,z
1/2-x,1/2-y,1/2+z
1/2+x,1/2-y,-z
1/2-x,1/2+y,1/2-z
1/2-x,1/2-y,-z
1/2+x,1/2+y,1/2-z
1/2-x,1/2+y,z
1/2+x,1/2-y,1/2+z
loop_
_atom_site_type_symbol
_atom_site_label
_atom_site_fract_x
_atom_site_fract_y
_atom_site_fract_z
Si Si1 0.244101 0.122567 0.943394
Si Si2 0.559601 0.229334 0.842959
Si Si3 0.146548 0.216984 0.842700
Si Si4 0.346143 0.966252 0.343462
Si Si5 0.437478 0.483295 0.091181
O O1 0.197263 0.142982 0.880575
O O2 0.297701 0.094459 0.893966
O O3 0.250000 0.250000 0.000000
O O4 0.227608 0.000000 0.000000
O O5 0.554809 0.221986 0.750000
O O6 0.500000 0.205084 0.880710
O O7 0.582002 0.378086 0.866373
O O8 0.600480 0.113080 0.872272
O O9 0.151299 0.196084 0.750000
O O10 0.145277 0.376137 0.865485
O O11 0.092239 0.147907 0.873562
O O12 0.334815 0.945332 0.250000
O O13 0.500000 0.456567 0.106446
O O14 0.423277 0.500000 0.000000
#
# Coordination Sequence:
#
# PCOD8260623 Si02
#       5
#    16  16  16  16  16
#     4  12  25  43  63  88 121 159 201 253 306 366
#     4   9  19  37  61  88 119 158 199 242 296 356
#     4  11  24  41  62  90 123 159 204 251 303 364
#     4  10  23  41  61  89 123 158 202 251 302 363
#     4  10  22  39  61  91 125 159 201 250 299 357
#
# _framework density 19.447385000000001
#
# number of rings (size 3 to 8) (size 9 to 14) (size 15 to 20)
#    0.000    1.600    2.000    1.800    5.600    2.000 
#    0.000    2.000    0.000    4.200    0.000    0.000 
#    0.000    0.000    0.000    0.000    0.000    0.000 
#
# Total GULP energy -496108.868625 kJ/mol
# GULP energy per Si atom -12402.721716 kJ/mol
# Density = 1.940312 g / cm^3
# Si number density = 19.447385 Si / 1000 Ang^3
#
#
#
# Elastic Constant Matrix: (Units=GPa)
#
#
# Indices 1 2 3 4 5 6 
#
# 1 128.8780 88.7620 56.9868 0.0000 0.0000 0.0000
# 2 88.7620 156.2666 56.5272 0.0000 0.0000 0.0000
# 3 56.9868 56.5272 66.2675 0.0000 0.0000 0.0000
# 4 0.0000 0.0000 0.0000 35.8502 0.0000 0.0000
# 5 0.0000 0.0000 0.0000 0.0000 33.0308 0.0000
# 6 0.0000 0.0000 0.0000 0.0000 0.0000 41.4117
#
#
#
# Elastic Compliance Matrix: (Units=1/GPa)
#
#
# Indices 1 2 3 4 5 6 
#
# 1 0.015396 -0.005721 -0.008360 0.000000 0.000000 0.000000
# 2 -0.005721 0.011381 -0.004788 0.000000 0.000000 0.000000
# 3 -0.008360 -0.004788 0.026364 0.000000 0.000000 0.000000
# 4 0.000000 0.000000 0.000000 0.027894 0.000000 0.000000
# 5 0.000000 0.000000 0.000000 0.000000 0.030275 0.000000
# 6 0.000000 0.000000 0.000000 0.000000 0.000000 0.024148
#
#
# Mechanical properties :
#
#
# Convention : Reuss Voigt Hill
#
# Bulk Modulus (GPa) = 64.92381 83.99601 74.45991
# Shear Modulus (GPa) = 28.03793 32.00095 30.01944
#
# Velocity S-wave (km/s) = 3.80113 4.06089 3.93316
# Velocity P-wave (km/s) = 7.26097 8.07917 7.68097
#
# Compressibility (1/GPa) = 0.01540267
#
# Stress axis : x y z
#
# Youngs Moduli (GPa) = 64.95165 87.86404 37.93098
#
# Poissons Ratio (x) = 0.50269 0.31708
# Poissons Ratio (y) = 0.37161 0.18163
# Poissons Ratio (z) = 0.54296 0.42072
#
# Static dielectric constant tensor:
#      x y z
#    x 3.820520 0.000000 0.000000 
#    y 0.000000 3.654150 0.000000 
#    z 0.000000 0.000000 3.610050 
# 
# 
# High freq. dielectric constant tensor:
#      x y z
#    x 1.764660 0.000000 0.000000 
#    y 0.000000 1.766750 0.000000 
#    z 0.000000 0.000000 1.764710 
# 
# From -- ./inp_files/48819.got.cif
#   From: 2010.03.12/outbox.cif.g09.slc.cpg/sg63_25_cif.got.tgz:48819.got - 2010.04.10 19:34:48.
