data_PCOD8260861
_publ_section_title
;
Structure prediction by ZEFSAII (Michael W. Deem and Ramdas Pophale) SiO2 
 PCOD8260861
Probable space group: C M C M
;
_chemical_formula_sum "Si O2"
_cell_formula_units_Z 52
_cell_length_a 7.728074
_cell_length_b 21.496996
_cell_length_c 16.746359
_cell_angle_alpha 90.000000
_cell_angle_beta 90.000000
_cell_angle_gamma 90.000000
_cell_volume 2782.078915
_symmetry_space_group_name_H-M "C M C M"
_symmetry_group_IT_number 63
_symmetry_cell_setting 'orthorhombic'
loop_
_space_group_symop_operation_xyz
x,y,z
-x,-y,1/2+z
x,-y,-z
-x,y,1/2-z
-x,-y,-z
x,y,1/2-z
-x,y,z
x,-y,1/2+z
1/2+x,1/2+y,z
1/2-x,1/2-y,1/2+z
1/2+x,1/2-y,-z
1/2-x,1/2+y,1/2-z
1/2-x,1/2-y,-z
1/2+x,1/2+y,1/2-z
1/2-x,1/2+y,z
1/2+x,1/2-y,1/2+z
loop_
_atom_site_type_symbol
_atom_site_label
_atom_site_fract_x
_atom_site_fract_y
_atom_site_fract_z
Si Si1 0.700242 0.916292 0.426022
Si Si2 0.000000 0.848722 0.338541
Si Si3 0.812955 0.864326 0.750000
Si Si4 0.000000 0.729702 0.250000
Si Si5 0.698685 0.056804 0.393455
O O1 0.500000 0.901424 0.404989
O O2 0.730290 0.912063 0.520670
O O3 0.825446 0.866942 0.384578
O O4 0.752600 0.984651 0.395412
O O5 0.000000 0.879773 0.250000
O O6 0.000000 0.773457 0.329087
O O7 0.669461 0.811858 0.750000
O O8 0.808466 0.907632 0.672116
O O9 0.000000 0.831062 0.750000
O O10 0.500000 0.062666 0.368486
#
# Coordination Sequence:
#
# PCOD8260861 Si02
#       5
#    16   8   8   4  16
#     4   9  20  37  61  96 121 151 185 239 304 355
#     4  10  24  39  63  79 123 154 197 249 287 343
#     4  12  24  37  63  83 115 166 200 235 298 348
#     4  10  26  48  50  82 122 158 204 258 276 332
#     4   9  19  37  61  92 131 147 182 244 298 357
#
# _framework density 18.691058000000002
#
# number of rings (size 3 to 8) (size 9 to 14) (size 15 to 20)
#    0.462    1.846    1.538    1.846    6.462    3.077 
#    0.000    1.538    0.000    0.000    0.000    0.000 
#    0.000    0.000    0.000    0.000    0.000    0.000 
#
# Total GULP energy -322333.703183 kJ/mol
# GULP energy per Si atom -12397.450122 kJ/mol
# Density = 1.864852 g / cm^3
# Si number density = 18.691058 Si / 1000 Ang^3
#
#
#
# Elastic Constant Matrix: (Units=GPa)
#
#
# Indices 1 2 3 4 5 6 
#
# 1 137.6366 64.9363 58.7655 0.0000 0.0000 0.0000
# 2 64.9363 97.0049 54.9984 0.0000 0.0000 0.0000
# 3 58.7655 54.9984 98.9205 0.0000 0.0000 0.0000
# 4 0.0000 0.0000 0.0000 0.9514 0.0000 0.0000
# 5 0.0000 0.0000 0.0000 0.0000 26.5546 0.0000
# 6 0.0000 0.0000 0.0000 0.0000 0.0000 10.8674
#
#
#
# Elastic Compliance Matrix: (Units=1/GPa)
#
#
# Indices 1 2 3 4 5 6 
#
# 1 0.011487 -0.005579 -0.003722 0.000000 0.000000 0.000000
# 2 -0.005579 0.017764 -0.006562 0.000000 0.000000 0.000000
# 3 -0.003722 -0.006562 0.015969 0.000000 0.000000 0.000000
# 4 0.000000 0.000000 0.000000 1.051069 0.000000 0.000000
# 5 0.000000 0.000000 0.000000 0.000000 0.037658 0.000000
# 6 0.000000 0.000000 0.000000 0.000000 0.000000 0.092018
#
#
# Mechanical properties :
#
#
# Convention : Reuss Voigt Hill
#
# Bulk Modulus (GPa) = 74.11293 76.77358 75.44326
# Shear Modulus (GPa) = 3.96137 17.99883 10.98010
#
# Velocity S-wave (km/s) = 1.45739 3.10653 2.42637
# Velocity P-wave (km/s) = 6.52454 7.35062 6.94986
#
# Compressibility (1/GPa) = 0.01349292
#
# Stress axis : x y z
#
# Youngs Moduli (GPa) = 87.05548 56.29346 62.62248
#
# Poissons Ratio (x) = 0.31407 0.23308
# Poissons Ratio (y) = 0.48570 0.41094
# Poissons Ratio (z) = 0.32402 0.36940
#
# Static dielectric constant tensor:
#      x y z
#    x 3.375420 0.000000 0.000000 
#    y 0.000000 3.159020 0.000000 
#    z 0.000000 0.000000 3.439360 
# 
# 
# High freq. dielectric constant tensor:
#      x y z
#    x 1.735810 0.000000 0.000000 
#    y 0.000000 1.697330 0.000000 
#    z 0.000000 0.000000 1.730620 
# 
# From -- ./inp_files/27141.got.cif
#   From: 2010.03.12/outbox.cif.g09.slc.cpg/sg63_14_cif.got.tgz:27141.got - 2010.04.10 19:34:48.
