data_PCOD8260014
_publ_section_title
;
Structure prediction by ZEFSAII (Michael W. Deem and Ramdas Pophale) SiO2 
 PCOD8260014
Probable space group: C M C M
;
_chemical_formula_sum "Si O2"
_cell_formula_units_Z 80
_cell_length_a 18.028616
_cell_length_b 25.530802
_cell_length_c 9.251375
_cell_angle_alpha 90.000000
_cell_angle_beta 90.000000
_cell_angle_gamma 90.000000
_cell_volume 4258.269377
_symmetry_space_group_name_H-M "C M C M"
_symmetry_group_IT_number 63
_symmetry_cell_setting 'orthorhombic'
loop_
_space_group_symop_operation_xyz
x,y,z
-x,-y,1/2+z
x,-y,-z
-x,y,1/2-z
-x,-y,-z
x,y,1/2-z
-x,y,z
x,-y,1/2+z
1/2+x,1/2+y,z
1/2-x,1/2-y,1/2+z
1/2+x,1/2-y,-z
1/2-x,1/2+y,1/2-z
1/2-x,1/2-y,-z
1/2+x,1/2+y,1/2-z
1/2-x,1/2+y,z
1/2+x,1/2-y,1/2+z
loop_
_atom_site_type_symbol
_atom_site_label
_atom_site_fract_x
_atom_site_fract_y
_atom_site_fract_z
Si Si1 0.332602 0.844829 0.416967
Si Si2 0.340589 0.645711 0.916667
Si Si3 0.415240 0.753856 0.580448
Si Si4 0.914453 0.448409 0.081464
Si Si5 0.914129 0.052515 0.418747
O O1 0.353578 0.837462 0.250000
O O2 0.245464 0.844001 0.443024
O O3 0.366894 0.797182 0.503017
O O4 0.366487 0.899411 0.474348
O O5 0.356974 0.630951 0.750000
O O6 0.385583 0.696968 0.963934
O O7 0.365307 0.599218 0.019742
O O8 0.406862 0.762765 0.750000
O O9 0.500000 0.758525 0.529355
O O10 0.902269 0.458422 0.250000
O O11 0.000000 0.436796 0.043972
O O12 0.885759 0.500000 0.000000
O O13 0.897658 0.045355 0.250000
O O14 0.000000 0.065127 0.448893
O O15 0.889543 0.000000 0.500000
#
# Coordination Sequence:
#
# PCOD8260014 Si02
#       5
#    16  16  16  16  16
#     4  10  21  36  55  80 109 141 178 222 272 324
#     4  10  21  37  56  80 112 145 178 222 276 329
#     4  10  21  36  55  79 107 142 182 223 271 326
#     4   9  18  33  52  74 101 134 173 216 260 308
#     4  10  21  37  58  83 110 144 186 228 271 321
#
# _framework density 18.786975999999999
#
# number of rings (size 3 to 8) (size 9 to 14) (size 15 to 20)
#    0.000    2.200    0.000    2.400    0.000    6.400 
#    0.000    4.000    0.000    0.000    0.000    0.000 
#    0.000    0.000    0.000    0.000    0.000    0.000 
#
# Total GULP energy -496196.369111 kJ/mol
# GULP energy per Si atom -12404.909228 kJ/mol
# Density = 1.874422 g / cm^3
# Si number density = 18.786976 Si / 1000 Ang^3
#
#
#
# Elastic Constant Matrix: (Units=GPa)
#
#
# Indices 1 2 3 4 5 6 
#
# 1 74.4631 55.9052 42.6908 0.0000 0.0000 0.0000
# 2 55.9052 142.1377 70.5880 0.0000 0.0000 0.0000
# 3 42.6908 70.5880 71.5739 0.0000 0.0000 0.0000
# 4 0.0000 0.0000 0.0000 38.6003 0.0000 0.0000
# 5 0.0000 0.0000 0.0000 0.0000 26.3569 0.0000
# 6 0.0000 0.0000 0.0000 0.0000 0.0000 -12.0703
#
#
#
# Elastic Compliance Matrix: (Units=1/GPa)
#
#
# Indices 1 2 3 4 5 6 
#
# 1 0.021564 -0.004104 -0.008815 0.000000 0.000000 0.000000
# 2 -0.004104 0.014570 -0.011921 0.000000 0.000000 0.000000
# 3 -0.008815 -0.011921 0.030986 0.000000 0.000000 0.000000
# 4 0.000000 0.000000 0.000000 0.025907 0.000000 0.000000
# 5 0.000000 0.000000 0.000000 0.000000 0.037941 0.000000
# 6 0.000000 0.000000 0.000000 0.000000 0.000000 -0.082848
#
#
# Mechanical properties :
#
#
# Convention : Reuss Voigt Hill
#
# Bulk Modulus (GPa) = 57.33822 69.61585 63.47703
# Shear Modulus (GPa) = 48.25645 18.51013 33.38329
#
# Velocity S-wave (km/s) = 5.07365 3.14230 4.21995
# Velocity P-wave (km/s) = 8.05661 7.09233 7.58980
#
# Compressibility (1/GPa) = 0.01744038
#
# Stress axis : x y z
#
# Youngs Moduli (GPa) = 46.37298 68.63417 32.27238
#
# Poissons Ratio (x) = 0.28168 0.28447
# Poissons Ratio (y) = 0.19032 0.38473
# Poissons Ratio (z) = 0.40876 0.81821
#
# Static dielectric constant tensor:
#      x y z
#    x 3.505530 0.000000 0.000000 
#    y 0.000000 3.531590 0.000000 
#    z 0.000000 0.000000 3.410740 
# 
# 
# High freq. dielectric constant tensor:
#      x y z
#    x 1.734940 0.000000 0.000000 
#    y 0.000000 1.742000 0.000000 
#    z 0.000000 0.000000 1.724530 
# 
# From -- ./inp_files/6391.got.cif
#   From: 2010.03.12/outbox.cif.g09.slc.cpg/sg63_4_cif.got.tgz:6391.got - 2010.04.10 19:34:48.
