data_PCOD8260895
_publ_section_title
;
Structure prediction by ZEFSAII (Michael W. Deem and Ramdas Pophale) SiO2 
 PCOD8260895
Probable space group: C M C M
;
_chemical_formula_sum "Si O2"
_cell_formula_units_Z 96
_cell_length_a 20.756083
_cell_length_b 16.984837
_cell_length_c 16.711530
_cell_angle_alpha 90.000000
_cell_angle_beta 90.000000
_cell_angle_gamma 90.000000
_cell_volume 5891.460836
_symmetry_space_group_name_H-M "C M C M"
_symmetry_group_IT_number 63
_symmetry_cell_setting 'orthorhombic'
loop_
_space_group_symop_operation_xyz
x,y,z
-x,-y,1/2+z
x,-y,-z
-x,y,1/2-z
-x,-y,-z
x,y,1/2-z
-x,y,z
x,-y,1/2+z
1/2+x,1/2+y,z
1/2-x,1/2-y,1/2+z
1/2+x,1/2-y,-z
1/2-x,1/2+y,1/2-z
1/2-x,1/2-y,-z
1/2+x,1/2+y,1/2-z
1/2-x,1/2+y,z
1/2+x,1/2-y,1/2+z
loop_
_atom_site_type_symbol
_atom_site_label
_atom_site_fract_x
_atom_site_fract_y
_atom_site_fract_z
Si Si1 0.266020 0.053158 0.922383
Si Si2 0.072202 0.191892 0.011880
Si Si3 0.688839 0.805716 0.988244
Si Si4 0.375320 0.447002 0.077704
Si Si5 0.619829 0.402622 0.840199
Si Si6 0.227722 0.402725 0.659778
O O1 0.195287 0.086232 0.898372
O O2 0.293429 0.994543 0.853696
O O3 0.311150 0.127808 0.941699
O O4 0.258557 0.000000 0.000000
O O5 0.083576 0.155349 0.099562
O O6 0.000000 0.225922 0.008266
O O7 0.121498 0.261919 0.996117
O O8 0.078658 0.126519 0.941521
O O9 0.691098 0.844458 0.900276
O O10 0.750000 0.750000 0.000000
O O11 0.402110 0.505941 0.146472
O O12 0.368330 0.500000 0.000000
O O13 0.601982 0.377854 0.750000
O O14 0.696037 0.395905 0.856877
O O15 0.209753 0.378248 0.750000
#
# Coordination Sequence:
#
# PCOD8260895 Si02
#       6
#    16  16  16  16  16  16
#     4   8  14  27  49  70  90 121 155 197 243 285
#     4  11  21  31  46  71 102 136 170 201 238 292
#     4  11  17  31  53  72  98 135 164 199 247 295
#     4   8  14  27  45  66  92 124 162 189 223 284
#     4   9  17  30  48  72 100 130 163 201 246 295
#     4   9  17  31  52  77  98 121 164 214 253 290
#
# _framework density 16.294768999999999
#
# number of rings (size 3 to 8) (size 9 to 14) (size 15 to 20)
#    0.000    2.667    3.333    2.000    0.000    3.333 
#    0.000    2.500    0.000    6.000    0.000    0.000 
#    0.000    0.000    0.000    0.000    0.000    0.000 
#
# Total GULP energy -594740.840259 kJ/mol
# GULP energy per Si atom -12390.434172 kJ/mol
# Density = 1.625768 g / cm^3
# Si number density = 16.294769 Si / 1000 Ang^3
#
#
#
# Elastic Constant Matrix: (Units=GPa)
#
#
# Indices 1 2 3 4 5 6 
#
# 1 96.0133 56.9369 33.0745 0.0000 0.0000 0.0000
# 2 56.9369 91.4579 36.9785 0.0000 0.0000 0.0000
# 3 33.0745 36.9785 78.8638 0.0000 0.0000 0.0000
# 4 0.0000 0.0000 0.0000 20.3818 0.0000 0.0000
# 5 0.0000 0.0000 0.0000 0.0000 10.1590 0.0000
# 6 0.0000 0.0000 0.0000 0.0000 0.0000 19.3664
#
#
#
# Elastic Compliance Matrix: (Units=1/GPa)
#
#
# Indices 1 2 3 4 5 6 
#
# 1 0.016953 -0.009476 -0.002667 0.000000 0.000000 0.000000
# 2 -0.009476 0.018788 -0.004836 0.000000 0.000000 0.000000
# 3 -0.002667 -0.004836 0.016066 0.000000 0.000000 0.000000
# 4 0.000000 0.000000 0.000000 0.049063 0.000000 0.000000
# 5 0.000000 0.000000 0.000000 0.000000 0.098435 0.000000
# 6 0.000000 0.000000 0.000000 0.000000 0.000000 0.051636
#
#
# Mechanical properties :
#
#
# Convention : Reuss Voigt Hill
#
# Bulk Modulus (GPa) = 56.01990 57.81275 56.91633
# Shear Modulus (GPa) = 17.19110 19.27112 18.23111
#
# Velocity S-wave (km/s) = 3.25161 3.44271 3.34852
# Velocity P-wave (km/s) = 6.96786 7.16654 7.06790
#
# Compressibility (1/GPa) = 0.01785080
#
# Stress axis : x y z
#
# Youngs Moduli (GPa) = 58.98587 53.22446 62.24376
#
# Poissons Ratio (x) = 0.50435 0.16599
# Poissons Ratio (y) = 0.55895 0.30099
# Poissons Ratio (z) = 0.15730 0.25737
#
# Static dielectric constant tensor:
#      x y z
#    x 2.734150 0.000000 0.000000 
#    y 0.000000 3.215990 0.000000 
#    z 0.000000 0.000000 3.310740 
# 
# 
# High freq. dielectric constant tensor:
#      x y z
#    x 1.585770 0.000000 0.000000 
#    y 0.000000 1.618110 0.000000 
#    z 0.000000 0.000000 1.614650 
# 
# From -- ./inp_files/47236.got.cif
#   From: 2010.03.12/outbox.cif.g09.slc.cpg/sg63_24_cif.got.tgz:47236.got - 2010.04.10 19:34:48.
