data_PCOD8260613
_publ_section_title
;
Structure prediction by ZEFSAII (Michael W. Deem and Ramdas Pophale) SiO2 
 PCOD8260613
Probable space group: C M C M
;
_chemical_formula_sum "Si O2"
_cell_formula_units_Z 64
_cell_length_a 13.614612
_cell_length_b 26.420968
_cell_length_c 9.999813
_cell_angle_alpha 90.000000
_cell_angle_beta 90.000000
_cell_angle_gamma 90.000000
_cell_volume 3597.045014
_symmetry_space_group_name_H-M "C M C M"
_symmetry_group_IT_number 63
_symmetry_cell_setting 'orthorhombic'
loop_
_space_group_symop_operation_xyz
x,y,z
-x,-y,1/2+z
x,-y,-z
-x,y,1/2-z
-x,-y,-z
x,y,1/2-z
-x,y,z
x,-y,1/2+z
1/2+x,1/2+y,z
1/2-x,1/2-y,1/2+z
1/2+x,1/2-y,-z
1/2-x,1/2+y,1/2-z
1/2-x,1/2-y,-z
1/2+x,1/2+y,1/2-z
1/2-x,1/2+y,z
1/2+x,1/2-y,1/2+z
loop_
_atom_site_type_symbol
_atom_site_label
_atom_site_fract_x
_atom_site_fract_y
_atom_site_fract_z
Si Si1 0.500000 0.281457 0.250000
Si Si2 0.214390 0.203690 0.750000
Si Si3 0.206192 0.186887 0.250000
Si Si4 0.500000 0.259820 0.750000
Si Si5 0.500000 0.798291 0.522224
Si Si6 0.386903 0.046622 0.903829
Si Si7 0.802891 0.351740 0.000931
O O1 0.399719 0.314399 0.250000
O O2 0.500000 0.249909 0.384544
O O3 0.221017 0.264669 0.750000
O O4 0.268566 0.184090 0.619781
O O5 0.225227 0.152137 0.119874
O O6 0.093824 0.203996 0.250000
O O7 0.500000 0.221221 0.871851
O O8 0.593328 0.832699 0.553869
O O9 0.366156 0.031182 0.750000
O O10 0.500000 0.064313 0.920005
O O11 0.313273 0.091168 0.946600
O O12 0.363311 0.000000 0.000000
#
# Coordination Sequence:
#
# PCOD8260613 Si02
#       7
#     4   8   8   4   8  16  16
#     4  12  24  36  52  82 118 152 200 246 268 320
#     4  12  22  38  55  81 115 157 199 233 278 337
#     4  12  24  36  55  85 117 157 199 235 278 339
#     4  12  24  36  56  78 118 162 198 236 274 324
#     4  12  20  34  57  80 119 158 190 233 276 337
#     4  10  22  39  60  87 117 149 189 237 288 347
#     4  12  22  37  58  85 117 159 193 227 287 350
#
# _framework density 17.792382
#
# number of rings (size 3 to 8) (size 9 to 14) (size 15 to 20)
#    0.000    0.500    7.500    2.250    1.750    0.000 
#    0.000    0.000    0.000    0.000    0.000    5.250 
#    0.000    0.000    0.000    0.000    0.000    0.000 
#
# Total GULP energy -396926.351240 kJ/mol
# GULP energy per Si atom -12403.948476 kJ/mol
# Density = 1.775189 g / cm^3
# Si number density = 17.792382 Si / 1000 Ang^3
#
#
#
# Elastic Constant Matrix: (Units=GPa)
#
#
# Indices 1 2 3 4 5 6 
#
# 1 85.2922 14.1247 1.2264 0.0000 0.0000 0.0000
# 2 14.1247 78.8349 34.3525 0.0000 0.0000 0.0000
# 3 1.2264 34.3525 111.5077 0.0000 0.0000 0.0000
# 4 0.0000 0.0000 0.0000 30.0323 0.0000 0.0000
# 5 0.0000 0.0000 0.0000 0.0000 37.4721 0.0000
# 6 0.0000 0.0000 0.0000 0.0000 0.0000 24.4417
#
#
#
# Elastic Compliance Matrix: (Units=1/GPa)
#
#
# Indices 1 2 3 4 5 6 
#
# 1 0.012120 -0.002441 0.000619 0.000000 0.000000 0.000000
# 2 -0.002441 0.015143 -0.004638 0.000000 0.000000 0.000000
# 3 0.000619 -0.004638 0.010390 0.000000 0.000000 0.000000
# 4 0.000000 0.000000 0.000000 0.033297 0.000000 0.000000
# 5 0.000000 0.000000 0.000000 0.000000 0.026687 0.000000
# 6 0.000000 0.000000 0.000000 0.000000 0.000000 0.040914
#
#
# Mechanical properties :
#
#
# Convention : Reuss Voigt Hill
#
# Bulk Modulus (GPa) = 40.43391 41.67133 41.05262
# Shear Modulus (GPa) = 31.30549 33.45128 32.37839
#
# Velocity S-wave (km/s) = 4.19918 4.34070 4.27053
# Velocity P-wave (km/s) = 6.80335 6.97094 6.88765
#
# Compressibility (1/GPa) = 0.02473172
#
# Stress axis : x y z
#
# Youngs Moduli (GPa) = 82.50986 66.03579 96.24500
#
# Poissons Ratio (x) = 0.16120 -0.05955
# Poissons Ratio (y) = 0.20141 0.44642
# Poissons Ratio (z) = -0.05105 0.30630
#
# Static dielectric constant tensor:
#      x y z
#    x 3.382960 0.000000 0.000000 
#    y 0.000000 3.040940 0.000000 
#    z 0.000000 0.000000 3.590530 
# 
# 
# High freq. dielectric constant tensor:
#      x y z
#    x 1.677830 0.000000 0.000000 
#    y 0.000000 1.657230 0.000000 
#    z 0.000000 0.000000 1.713410 
# 
# From -- ./inp_files/4569.got.cif
#   From: 2010.03.12/outbox.cif.g09.slc.cpg/sg63_3_cif.got.tgz:4569.got - 2010.04.10 19:34:48.
