data_PCOD8260749
_publ_section_title
;
Structure prediction by ZEFSAII (Michael W. Deem and Ramdas Pophale) SiO2 
 PCOD8260749
Probable space group: C M C M
;
_chemical_formula_sum "Si O2"
_cell_formula_units_Z 64
_cell_length_a 11.319299
_cell_length_b 14.170599
_cell_length_c 19.228874
_cell_angle_alpha 90.000000
_cell_angle_beta 90.000000
_cell_angle_gamma 90.000000
_cell_volume 3084.335370
_symmetry_space_group_name_H-M "C M C M"
_symmetry_group_IT_number 63
_symmetry_cell_setting 'orthorhombic'
loop_
_space_group_symop_operation_xyz
x,y,z
-x,-y,1/2+z
x,-y,-z
-x,y,1/2-z
-x,-y,-z
x,y,1/2-z
-x,y,z
x,-y,1/2+z
1/2+x,1/2+y,z
1/2-x,1/2-y,1/2+z
1/2+x,1/2-y,-z
1/2-x,1/2+y,1/2-z
1/2-x,1/2-y,-z
1/2+x,1/2+y,1/2-z
1/2-x,1/2+y,z
1/2+x,1/2-y,1/2+z
loop_
_atom_site_type_symbol
_atom_site_label
_atom_site_fract_x
_atom_site_fract_y
_atom_site_fract_z
Si Si1 0.500000 0.903632 0.330044
Si Si2 0.740762 0.611126 0.070471
Si Si3 0.362134 0.407462 0.075806
Si Si4 0.500000 0.065941 0.434413
Si Si5 0.777155 0.278721 0.168089
O O1 0.500000 0.927628 0.250000
O O2 0.613340 0.844002 0.351525
O O3 0.500000 0.004826 0.364974
O O4 0.710671 0.503338 0.090585
O O5 0.881770 0.628588 0.063437
O O6 0.696832 0.678225 0.132392
O O7 0.678113 0.637425 0.997759
O O8 0.500000 0.432128 0.074001
O O9 0.337274 0.331179 0.136129
O O10 0.500000 0.000000 0.500000
O O11 0.759517 0.262913 0.250000
#
# Coordination Sequence:
#
# PCOD8260749 Si02
#       5
#     8  16  16   8  16
#     4  10  22  42  64  88 126 168 206 254 312 374
#     4  11  23  41  66  95 124 165 214 258 313 373
#     4  11  24  43  65  93 130 166 206 262 314 371
#     4  12  20  40  68  91 122 159 210 267 312 356
#     4  11  25  43  64  94 128 167 209 256 315 376
#
# _framework density 20.750012000000002
#
# number of rings (size 3 to 8) (size 9 to 14) (size 15 to 20)
#    0.000    1.000    5.000    2.250    5.250    2.500 
#    0.000    0.000    0.000    0.000    0.000    0.000 
#    0.000    0.000    0.000    0.000    0.000    0.000 
#
# Total GULP energy -396904.560233 kJ/mol
# GULP energy per Si atom -12403.267507 kJ/mol
# Density = 2.070278 g / cm^3
# Si number density = 20.750012 Si / 1000 Ang^3
#
#
#
# Elastic Constant Matrix: (Units=GPa)
#
#
# Indices 1 2 3 4 5 6 
#
# 1 119.6507 7.2353 23.5179 0.0000 0.0000 0.0000
# 2 7.2353 54.7786 49.9427 0.0000 0.0000 0.0000
# 3 23.5179 49.9427 108.3367 0.0000 0.0000 0.0000
# 4 0.0000 0.0000 0.0000 45.9895 0.0000 0.0000
# 5 0.0000 0.0000 0.0000 0.0000 27.4395 0.0000
# 6 0.0000 0.0000 0.0000 0.0000 0.0000 80.6636
#
#
#
# Elastic Compliance Matrix: (Units=1/GPa)
#
#
# Indices 1 2 3 4 5 6 
#
# 1 0.008761 0.000995 -0.002361 0.000000 0.000000 0.000000
# 2 0.000995 0.031604 -0.014785 0.000000 0.000000 0.000000
# 3 -0.002361 -0.014785 0.016559 0.000000 0.000000 0.000000
# 4 0.000000 0.000000 0.000000 0.021744 0.000000 0.000000
# 5 0.000000 0.000000 0.000000 0.000000 0.036444 0.000000
# 6 0.000000 0.000000 0.000000 0.000000 0.000000 0.012397
#
#
# Mechanical properties :
#
#
# Convention : Reuss Voigt Hill
#
# Bulk Modulus (GPa) = 40.61334 49.35087 44.98210
# Shear Modulus (GPa) = 29.75865 44.28986 37.02426
#
# Velocity S-wave (km/s) = 3.79113 4.62502 4.22868
# Velocity P-wave (km/s) = 6.22725 7.23576 6.75037
#
# Compressibility (1/GPa) = 0.02462245
#
# Stress axis : x y z
#
# Youngs Moduli (GPa) = 114.13584 31.64175 60.39070
#
# Poissons Ratio (x) = -0.03148 0.14256
# Poissons Ratio (y) = -0.11356 0.89289
# Poissons Ratio (z) = 0.26943 0.46783
#
# Static dielectric constant tensor:
#      x y z
#    x 3.963220 0.000000 0.000000 
#    y 0.000000 2.987260 0.000000 
#    z 0.000000 0.000000 3.647950 
# 
# 
# High freq. dielectric constant tensor:
#      x y z
#    x 1.821750 0.000000 0.000000 
#    y 0.000000 1.808380 0.000000 
#    z 0.000000 0.000000 1.811150 
# 
# From -- ./inp_files/41542.got.cif
#   From: 2010.03.12/outbox.cif.g09.slc.cpg/sg63_21_cif.got.tgz:41542.got - 2010.04.10 19:34:48.
