data_PCOD8260907
_publ_section_title
;
Structure prediction by ZEFSAII (Michael W. Deem and Ramdas Pophale) SiO2 
 PCOD8260907
Probable space group: C M C M
;
_chemical_formula_sum "Si O2"
_cell_formula_units_Z 96
_cell_length_a 13.533608
_cell_length_b 30.978354
_cell_length_c 14.301698
_cell_angle_alpha 90.000000
_cell_angle_beta 90.000000
_cell_angle_gamma 90.000000
_cell_volume 5995.971148
_symmetry_space_group_name_H-M "C M C M"
_symmetry_group_IT_number 63
_symmetry_cell_setting 'orthorhombic'
loop_
_space_group_symop_operation_xyz
x,y,z
-x,-y,1/2+z
x,-y,-z
-x,y,1/2-z
-x,-y,-z
x,y,1/2-z
-x,y,z
x,-y,1/2+z
1/2+x,1/2+y,z
1/2-x,1/2-y,1/2+z
1/2+x,1/2-y,-z
1/2-x,1/2+y,1/2-z
1/2-x,1/2-y,-z
1/2+x,1/2+y,1/2-z
1/2-x,1/2+y,z
1/2+x,1/2-y,1/2+z
loop_
_atom_site_type_symbol
_atom_site_label
_atom_site_fract_x
_atom_site_fract_y
_atom_site_fract_z
Si Si1 0.748971 0.845779 0.500000
Si Si2 0.113329 0.810638 0.856883
Si Si3 0.116848 0.500000 0.853561
Si Si4 0.613329 0.310638 0.143117
Si Si5 0.883102 0.570202 1.000000
Si Si6 0.890053 0.736015 0.500000
O O1 0.818127 0.846332 0.592281
O O2 0.818127 0.846332 0.407719
O O3 0.676165 0.885740 0.500000
O O4 0.687127 0.802027 0.500000
O O5 0.147137 0.805677 0.750000
O O6 0.126347 0.764672 0.907510
O O7 0.000000 0.826263 0.864609
O O8 0.164853 0.500000 0.750000
O O9 0.149127 0.456968 0.908682
O O10 0.000000 0.500000 0.846832
O O11 0.149128 0.543031 0.908682
O O12 0.647137 0.305677 0.250000
O O13 0.500000 0.326263 0.135391
O O14 0.626347 0.264672 0.092490
O O15 0.000000 0.579983 0.999999
O O16 0.000000 0.716259 0.500000
#
# Coordination Sequence:
#
# PCOD8260907 Si02
#       6
#    16  16  16  16  16  16
#     4  11  19  27  45  70  92 113 144 188 228 259
#     4   9  18  32  46  60  84 121 160 190 217 254
#     4   8  15  31  50  63  85 122 150 168 204 264
#     4   9  18  32  46  60  84 121 160 190 217 254
#     4   9  18  30  45  69  96 118 142 174 214 262
#     4   9  18  30  43  62  90 122 151 181 220 262
#
# _framework density 16.010750000000002
#
# number of rings (size 3 to 8) (size 9 to 14) (size 15 to 20)
#    0.000    2.833    0.000    5.000    0.000    4.000 
#    0.000    0.000    0.000   10.000    0.000    9.333 
#    0.000   16.000    0.000    0.000    0.000    0.000 
#
# Total GULP energy -594975.682775 kJ/mol
# GULP energy per Si atom -12395.326724 kJ/mol
# Density = 1.597431 g / cm^3
# Si number density = 16.010750 Si / 1000 Ang^3
#
#
#
# Elastic Constant Matrix: (Units=GPa)
#
#
# Indices 1 2 3 4 5 6 
#
# 1 78.5311 43.8969 46.3469 0.0000 0.0000 0.0000
# 2 43.8969 80.7895 49.6739 0.0000 0.0000 0.0000
# 3 46.3469 49.6739 163.6116 0.0000 0.0000 0.0000
# 4 0.0000 0.0000 0.0000 8.5837 0.0000 0.0000
# 5 0.0000 0.0000 0.0000 0.0000 18.9068 0.0000
# 6 0.0000 0.0000 0.0000 0.0000 0.0000 22.4754
#
#
#
# Elastic Compliance Matrix: (Units=1/GPa)
#
#
# Indices 1 2 3 4 5 6 
#
# 1 0.019281 -0.008752 -0.002805 0.000000 0.000000 0.000000
# 2 -0.008752 0.019191 -0.003347 0.000000 0.000000 0.000000
# 3 -0.002805 -0.003347 0.007923 0.000000 0.000000 0.000000
# 4 0.000000 0.000000 0.000000 0.116500 0.000000 0.000000
# 5 0.000000 0.000000 0.000000 0.000000 0.052891 0.000000
# 6 0.000000 0.000000 0.000000 0.000000 0.000000 0.044493
#
#
# Mechanical properties :
#
#
# Convention : Reuss Voigt Hill
#
# Bulk Modulus (GPa) = 60.28733 66.97419 63.63076
# Shear Modulus (GPa) = 16.91376 22.19412 19.55394
#
# Velocity S-wave (km/s) = 3.25376 3.72721 3.49850
# Velocity P-wave (km/s) = 7.20083 7.77460 7.49321
#
# Compressibility (1/GPa) = 0.01658723
#
# Stress axis : x y z
#
# Youngs Moduli (GPa) = 51.86411 52.10662 126.21702
#
# Poissons Ratio (x) = 0.45603 0.35400
# Poissons Ratio (y) = 0.45391 0.42251
# Poissons Ratio (z) = 0.14546 0.17443
#
# Static dielectric constant tensor:
#      x y z
#    x 3.111420 0.000000 0.000000 
#    y 0.000000 2.716460 0.000000 
#    z 0.000000 0.000000 3.539280 
# 
# 
# High freq. dielectric constant tensor:
#      x y z
#    x 1.610130 0.000000 0.000000 
#    y 0.000000 1.581040 0.000000 
#    z 0.000000 0.000000 1.626300 
# 
# From -- ./inp_files/32649.got.cif
#   From: 2010.03.12/outbox.cif.g09.slc.cpg/sg63_17_cif.got.tgz:32649.got - 2010.04.10 19:34:48.
