data_PCOD8260628
_publ_section_title
;
Structure prediction by ZEFSAII (Michael W. Deem and Ramdas Pophale) SiO2 
 PCOD8260628
Probable space group: C M C M
;
_chemical_formula_sum "Si O2"
_cell_formula_units_Z 72
_cell_length_a 14.112577
_cell_length_b 10.284907
_cell_length_c 25.133542
_cell_angle_alpha 90.000000
_cell_angle_beta 90.000000
_cell_angle_gamma 90.000000
_cell_volume 3648.046709
_symmetry_space_group_name_H-M "C M C M"
_symmetry_group_IT_number 63
_symmetry_cell_setting 'orthorhombic'
loop_
_space_group_symop_operation_xyz
x,y,z
-x,-y,1/2+z
x,-y,-z
-x,y,1/2-z
-x,-y,-z
x,y,1/2-z
-x,y,z
x,-y,1/2+z
1/2+x,1/2+y,z
1/2-x,1/2-y,1/2+z
1/2+x,1/2-y,-z
1/2-x,1/2+y,1/2-z
1/2-x,1/2-y,-z
1/2+x,1/2+y,1/2-z
1/2-x,1/2+y,z
1/2+x,1/2-y,1/2+z
loop_
_atom_site_type_symbol
_atom_site_label
_atom_site_fract_x
_atom_site_fract_y
_atom_site_fract_z
Si Si1 0.500000 0.297433 0.522399
Si Si2 0.698927 0.821545 0.637034
Si Si3 0.500000 0.872829 0.124023
Si Si4 0.206588 0.873576 0.528040
Si Si5 0.000000 0.657735 0.412718
Si Si6 0.186972 0.404569 0.312224
O O1 0.500000 0.237577 0.580600
O O2 0.594054 0.383980 0.519064
O O3 0.500000 0.193646 0.474643
O O4 0.767139 0.867767 0.589616
O O5 0.593270 0.788472 0.616761
O O6 0.730994 0.687126 0.663950
O O7 0.703321 0.941980 0.677992
O O8 0.409896 0.858376 0.161435
O O9 0.500000 0.003533 0.090036
O O10 0.250000 0.750000 0.500000
O O11 0.252643 0.000000 0.500000
O O12 0.181151 0.379998 0.250000
#
# Coordination Sequence:
#
# PCOD8260628 Si02
#       6
#     8  16   8  16   8  16
#     4  12  22  39  61  96 134 169 195 258 313 386
#     4  11  23  42  63  95 125 164 213 261 313 373
#     4  10  22  39  63  96 122 163 212 258 316 375
#     4  12  25  40  63  95 131 173 207 247 311 385
#     4  10  23  36  64  92 131 164 205 252 312 389
#     4  11  23  43  67  90 122 164 217 272 315 360
#
# _framework density 19.736588999999999
#
# number of rings (size 3 to 8) (size 9 to 14) (size 15 to 20)
#    0.000    0.889    4.444    3.000    3.111    0.000 
#    0.000    2.778    0.000    0.000    0.000    0.000 
#    0.000    0.000    0.000    0.000    0.000    0.000 
#
# Total GULP energy -446436.656088 kJ/mol
# GULP energy per Si atom -12401.018225 kJ/mol
# Density = 1.969167 g / cm^3
# Si number density = 19.736589 Si / 1000 Ang^3
#
#
#
# Elastic Constant Matrix: (Units=GPa)
#
#
# Indices 1 2 3 4 5 6 
#
# 1 127.4681 42.4500 35.3020 0.0000 0.0000 0.0000
# 2 42.4500 73.4050 33.6844 0.0000 0.0000 0.0000
# 3 35.3020 33.6844 129.8299 0.0000 0.0000 0.0000
# 4 0.0000 0.0000 0.0000 35.0283 0.0000 0.0000
# 5 0.0000 0.0000 0.0000 0.0000 31.7122 0.0000
# 6 0.0000 0.0000 0.0000 0.0000 0.0000 32.9007
#
#
#
# Elastic Compliance Matrix: (Units=1/GPa)
#
#
# Indices 1 2 3 4 5 6 
#
# 1 0.009927 -0.005111 -0.001373 0.000000 0.000000 0.000000
# 2 -0.005111 0.018095 -0.003305 0.000000 0.000000 0.000000
# 3 -0.001373 -0.003305 0.008933 0.000000 0.000000 0.000000
# 4 0.000000 0.000000 0.000000 0.028548 0.000000 0.000000
# 5 0.000000 0.000000 0.000000 0.000000 0.031534 0.000000
# 6 0.000000 0.000000 0.000000 0.000000 0.000000 0.030394
#
#
# Mechanical properties :
#
#
# Convention : Reuss Voigt Hill
#
# Bulk Modulus (GPa) = 57.54588 61.50843 59.52716
# Shear Modulus (GPa) = 32.72172 34.54603 33.63387
#
# Velocity S-wave (km/s) = 4.07618 4.18826 4.13260
# Velocity P-wave (km/s) = 7.16756 7.39061 7.27994
#
# Compressibility (1/GPa) = 0.01737744
#
# Stress axis : x y z
#
# Youngs Moduli (GPa) = 100.73046 55.26288 111.94019
#
# Poissons Ratio (x) = 0.28244 0.15374
# Poissons Ratio (y) = 0.51482 0.36998
# Poissons Ratio (z) = 0.13834 0.18265
#
# Static dielectric constant tensor:
#      x y z
#    x 3.708920 0.000000 0.000000 
#    y 0.000000 3.472850 0.000000 
#    z 0.000000 0.000000 3.433290 
# 
# 
# High freq. dielectric constant tensor:
#      x y z
#    x 1.781710 0.000000 0.000000 
#    y 0.000000 1.770270 0.000000 
#    z 0.000000 0.000000 1.773200 
# 
# From -- ./inp_files/69079.got.cif
#   From: 2010.03.12/outbox.cif.g09.slc.cpg/sg63_35_cif.got.tgz:69079.got - 2010.04.10 19:34:48.
