data_PCOD8260728
_publ_section_title
;
Structure prediction by ZEFSAII (Michael W. Deem and Ramdas Pophale) SiO2 
 PCOD8260728
Probable space group: C M C M
;
_chemical_formula_sum "Si O2"
_cell_formula_units_Z 80
_cell_length_a 12.626778
_cell_length_b 13.696529
_cell_length_c 21.599866
_cell_angle_alpha 90.000000
_cell_angle_beta 90.000000
_cell_angle_gamma 90.000000
_cell_volume 3735.546296
_symmetry_space_group_name_H-M "C M C M"
_symmetry_group_IT_number 63
_symmetry_cell_setting 'orthorhombic'
loop_
_space_group_symop_operation_xyz
x,y,z
-x,-y,1/2+z
x,-y,-z
-x,y,1/2-z
-x,-y,-z
x,y,1/2-z
-x,y,z
x,-y,1/2+z
1/2+x,1/2+y,z
1/2-x,1/2-y,1/2+z
1/2+x,1/2-y,-z
1/2-x,1/2+y,1/2-z
1/2-x,1/2-y,-z
1/2+x,1/2+y,1/2-z
1/2-x,1/2+y,z
1/2+x,1/2-y,1/2+z
loop_
_atom_site_type_symbol
_atom_site_label
_atom_site_fract_x
_atom_site_fract_y
_atom_site_fract_z
Si Si1 0.118868 0.572795 0.321816
Si Si2 0.500000 0.426681 0.058075
Si Si3 0.621940 0.887620 0.404079
Si Si4 0.707270 0.642544 0.507204
Si Si5 0.684354 0.668629 0.127408
Si Si6 0.000000 0.051348 0.180299
O O1 0.138623 0.557677 0.250000
O O2 0.139858 0.466962 0.351180
O O3 0.196616 0.655825 0.347736
O O4 0.000000 0.608991 0.336403
O O5 0.395050 0.360508 0.051547
O O6 0.500000 0.469603 0.127289
O O7 0.500000 0.500000 0.000000
O O8 0.500000 0.882064 0.426068
O O9 0.696073 0.918709 0.462376
O O10 0.659108 0.782869 0.378202
O O11 0.750000 0.750000 0.500000
O O12 0.674954 0.608672 0.437975
O O13 0.602850 0.619551 0.174415
O O14 0.000000 0.005908 0.250000
#
# Coordination Sequence:
#
# PCOD8260728 Si02
#       6
#    16   8  16  16  16   8
#     4  10  23  41  61  87 124 169 213 260 324 395
#     4  12  22  42  70  96 134 171 216 278 334 389
#     4  10  22  41  64  94 127 163 220 274 328 392
#     4  10  23  38  65  95 127 166 215 265 335 388
#     4  11  21  41  63  94 129 167 219 270 331 391
#     4  12  24  36  66 104 131 168 226 275 329 391
#
# _framework density 21.415876000000001
#
# number of rings (size 3 to 8) (size 9 to 14) (size 15 to 20)
#    0.000    1.400    3.000    1.800    4.200    2.400 
#    5.400    2.000    0.000    2.400    0.000    0.000 
#    0.000    0.000    0.000    0.000    0.000    0.000 
#
# Total GULP energy -495868.243827 kJ/mol
# GULP energy per Si atom -12396.706096 kJ/mol
# Density = 2.136713 g / cm^3
# Si number density = 21.415876 Si / 1000 Ang^3
#
#
#
# Elastic Constant Matrix: (Units=GPa)
#
#
# Indices 1 2 3 4 5 6 
#
# 1 161.9702 34.8288 45.3988 0.0000 0.0000 0.0000
# 2 34.8288 54.1998 14.8098 0.0000 0.0000 0.0000
# 3 45.3988 14.8098 121.6242 0.0000 0.0000 0.0000
# 4 0.0000 0.0000 0.0000 21.7575 0.0000 0.0000
# 5 0.0000 0.0000 0.0000 0.0000 38.9619 0.0000
# 6 0.0000 0.0000 0.0000 0.0000 0.0000 29.6466
#
#
#
# Elastic Compliance Matrix: (Units=1/GPa)
#
#
# Indices 1 2 3 4 5 6 
#
# 1 0.007774 -0.004347 -0.002372 0.000000 0.000000 0.000000
# 2 -0.004347 0.021516 -0.000997 0.000000 0.000000 0.000000
# 3 -0.002372 -0.000997 0.009229 0.000000 0.000000 0.000000
# 4 0.000000 0.000000 0.000000 0.045961 0.000000 0.000000
# 5 0.000000 0.000000 0.000000 0.000000 0.025666 0.000000
# 6 0.000000 0.000000 0.000000 0.000000 0.000000 0.033731
#
#
# Mechanical properties :
#
#
# Convention : Reuss Voigt Hill
#
# Bulk Modulus (GPa) = 43.31754 58.65213 50.98484
# Shear Modulus (GPa) = 29.93913 34.25700 32.09807
#
# Velocity S-wave (km/s) = 3.74302 4.00385 3.87563
# Velocity P-wave (km/s) = 6.24108 6.98721 6.62466
#
# Compressibility (1/GPa) = 0.02308534
#
# Stress axis : x y z
#
# Youngs Moduli (GPa) = 128.63877 46.47652 108.35388
#
# Poissons Ratio (x) = 0.20204 0.25705
# Poissons Ratio (y) = 0.55921 0.10806
# Poissons Ratio (z) = 0.30518 0.04635
#
# Static dielectric constant tensor:
#      x y z
#    x 4.658210 0.000000 0.000000 
#    y 0.000000 3.574890 0.000000 
#    z 0.000000 0.000000 4.402200 
# 
# 
# High freq. dielectric constant tensor:
#      x y z
#    x 1.864950 0.000000 0.000000 
#    y 0.000000 1.823580 0.000000 
#    z 0.000000 0.000000 1.839050 
# 
# From -- ./inp_files/61186.got.cif
#   From: 2010.03.12/outbox.cif.g09.slc.cpg/sg63_31_cif.got.tgz:61186.got - 2010.04.10 19:34:48.
