data_PCOD8260490
_publ_section_title
;
Structure prediction by ZEFSAII (Michael W. Deem and Ramdas Pophale) SiO2 
 PCOD8260490
Probable space group: C M C M
;
_chemical_formula_sum "Si O2"
_cell_formula_units_Z 84
_cell_length_a 11.915032
_cell_length_b 14.891604
_cell_length_c 22.683534
_cell_angle_alpha 90.000000
_cell_angle_beta 90.000000
_cell_angle_gamma 90.000000
_cell_volume 4024.828770
_symmetry_space_group_name_H-M "C M C M"
_symmetry_group_IT_number 63
_symmetry_cell_setting 'orthorhombic'
loop_
_space_group_symop_operation_xyz
x,y,z
-x,-y,1/2+z
x,-y,-z
-x,y,1/2-z
-x,-y,-z
x,y,1/2-z
-x,y,z
x,-y,1/2+z
1/2+x,1/2+y,z
1/2-x,1/2-y,1/2+z
1/2+x,1/2-y,-z
1/2-x,1/2+y,1/2-z
1/2-x,1/2-y,-z
1/2+x,1/2+y,1/2-z
1/2-x,1/2+y,z
1/2+x,1/2-y,1/2+z
loop_
_atom_site_type_symbol
_atom_site_label
_atom_site_fract_x
_atom_site_fract_y
_atom_site_fract_z
Si Si1 0.787397 0.685919 0.871908
Si Si2 0.743218 0.391620 0.250000
Si Si3 0.500000 0.730723 0.177796
Si Si4 0.000000 0.085436 0.750000
Si Si5 0.627664 0.929186 0.750000
Si Si6 0.228851 0.996936 0.068885
Si Si7 0.370557 0.847924 0.875383
Si Si8 0.500000 0.466073 0.637690
O O1 0.796181 0.649446 0.806551
O O2 0.902341 0.739608 0.867628
O O3 0.779529 0.601016 0.915474
O O4 0.686908 0.752747 0.889413
O O5 0.614040 0.359485 0.250000
O O6 0.772719 0.497738 0.250000
O O7 0.500000 0.757320 0.250000
O O8 0.500000 0.624330 0.175114
O O9 0.000000 0.037187 0.688440
O O10 0.500000 0.970995 0.750000
O O11 0.645581 0.866620 0.693745
O O12 0.319220 0.071676 0.086593
O O13 0.110951 0.018220 0.099469
O O14 0.207674 0.000000 0.000000
O O15 0.500000 0.839166 0.893261
#
# Coordination Sequence:
#
# PCOD8260490 Si02
#       8
#    16   8   8   4   8  16  16   8
#     4  12  26  44  69 103 141 179 230 283 349 417
#     4  12  23  36  69 100 141 178 222 274 355 418
#     4  12  26  41  74 111 143 173 223 288 357 415
#     4  12  22  36  74 102 134 180 210 280 354 424
#     4  10  21  40  67  99 137 175 214 279 353 415
#     4  12  28  49  70  95 138 192 239 287 336 403
#     4  11  25  45  70 101 139 178 228 286 350 420
#     4  12  23  48  69 106 141 177 225 288 354 411
#
# _framework density 20.870453000000001
#
# number of rings (size 3 to 8) (size 9 to 14) (size 15 to 20)
#    0.000    0.381    7.143    0.857    5.333    1.143 
#    0.000    0.000    0.000    0.000    0.000    0.000 
#    0.000    0.000    0.000    0.000    0.000    0.000 
#
# Total GULP energy -520356.046695 kJ/mol
# GULP energy per Si atom -12389.429683 kJ/mol
# Density = 2.082295 g / cm^3
# Si number density = 20.870453 Si / 1000 Ang^3
#
#
#
# Elastic Constant Matrix: (Units=GPa)
#
#
# Indices 1 2 3 4 5 6 
#
# 1 94.2667 12.9895 27.9752 0.0000 0.0000 0.0000
# 2 12.9895 101.9797 26.6240 0.0000 0.0000 0.0000
# 3 27.9752 26.6240 114.2788 0.0000 0.0000 0.0000
# 4 0.0000 0.0000 0.0000 26.6720 0.0000 0.0000
# 5 0.0000 0.0000 0.0000 0.0000 -16.4939 0.0000
# 6 0.0000 0.0000 0.0000 0.0000 0.0000 52.8257
#
#
#
# Elastic Compliance Matrix: (Units=1/GPa)
#
#
# Indices 1 2 3 4 5 6 
#
# 1 0.011497 -0.000777 -0.002633 0.000000 0.000000 0.000000
# 2 -0.000777 0.010493 -0.002255 0.000000 0.000000 0.000000
# 3 -0.002633 -0.002255 0.009920 0.000000 0.000000 0.000000
# 4 0.000000 0.000000 0.000000 0.037492 0.000000 0.000000
# 5 0.000000 0.000000 0.000000 0.000000 -0.060628 0.000000
# 6 0.000000 0.000000 0.000000 0.000000 0.000000 0.018930
#
#
# Mechanical properties :
#
#
# Convention : Reuss Voigt Hill
#
# Bulk Modulus (GPa) = 48.58842 49.52249 49.05545
# Shear Modulus (GPa) = 108.94475 28.79653 68.87064
#
# Velocity S-wave (km/s) = 7.23283 3.71856 5.75072
# Velocity P-wave (km/s) = 9.64796 6.49746 8.22497
#
# Compressibility (1/GPa) = 0.02058104
#
# Stress axis : x y z
#
# Youngs Moduli (GPa) = 86.98112 95.29784 100.80223
#
# Poissons Ratio (x) = 0.07403 0.26545
# Poissons Ratio (y) = 0.06757 0.22726
# Poissons Ratio (z) = 0.22905 0.21485
#
# Static dielectric constant tensor:
#      x y z
#    x 5.128800 0.000000 0.000000 
#    y 0.000000 3.905080 0.000000 
#    z 0.000000 0.000000 3.689420 
# 
# 
# High freq. dielectric constant tensor:
#      x y z
#    x 1.835810 0.000000 0.000000 
#    y 0.000000 1.825140 0.000000 
#    z 0.000000 0.000000 1.804640 
# 
# From -- ./inp_files/61340.got.cif
#   From: 2010.03.12/outbox.cif.g09.slc.cpg/sg63_31_cif.got.tgz:61340.got - 2010.04.10 19:34:48.
