data_PCOD8260621
_publ_section_title
;
Structure prediction by ZEFSAII (Michael W. Deem and Ramdas Pophale) SiO2 
 PCOD8260621
Probable space group: C M C M
;
_chemical_formula_sum "Si O2"
_cell_formula_units_Z 88
_cell_length_a 18.002155
_cell_length_b 28.800326
_cell_length_c 8.651995
_cell_angle_alpha 90.000000
_cell_angle_beta 90.000000
_cell_angle_gamma 90.000000
_cell_volume 4485.781961
_symmetry_space_group_name_H-M "C M C M"
_symmetry_group_IT_number 63
_symmetry_cell_setting 'orthorhombic'
loop_
_space_group_symop_operation_xyz
x,y,z
-x,-y,1/2+z
x,-y,-z
-x,y,1/2-z
-x,-y,-z
x,y,1/2-z
-x,y,z
x,-y,1/2+z
1/2+x,1/2+y,z
1/2-x,1/2-y,1/2+z
1/2+x,1/2-y,-z
1/2-x,1/2+y,1/2-z
1/2-x,1/2-y,-z
1/2+x,1/2+y,1/2-z
1/2-x,1/2+y,z
1/2+x,1/2-y,1/2+z
loop_
_atom_site_type_symbol
_atom_site_label
_atom_site_fract_x
_atom_site_fract_y
_atom_site_fract_z
Si Si1 0.500000 0.551645 0.066890
Si Si2 0.087125 0.794406 0.575143
Si Si3 0.817749 0.278218 0.932506
Si Si4 0.583062 0.951288 0.932527
Si Si5 0.789518 0.382951 0.567197
Si Si6 0.633537 0.388816 0.431525
O O1 0.500000 0.548843 0.250000
O O2 0.500000 0.500000 0.000000
O O3 0.426455 0.578807 0.014869
O O4 0.117944 0.798377 0.750000
O O5 0.107824 0.744404 0.503777
O O6 0.123450 0.835034 0.474896
O O7 0.000000 0.800349 0.571592
O O8 0.821179 0.274063 0.750000
O O9 0.809147 0.331032 0.986277
O O10 0.750000 0.250000 0.000000
O O11 0.583840 0.954735 0.750000
O O12 0.500000 0.938589 0.991836
O O13 0.640629 0.912813 0.990650
O O14 0.609763 0.000000 0.000000
O O15 0.776762 0.386127 0.750000
O O16 0.716237 0.402966 0.483886
O O17 0.623830 0.395631 0.250000
#
# Coordination Sequence:
#
# PCOD8260621 Si02
#       6
#     8  16  16  16  16  16
#     4  12  26  46  68  92 126 162 206 264 319 372
#     4  11  23  39  60  85 119 162 206 252 304 363
#     4  11  22  36  58  86 120 159 202 251 303 360
#     4   9  19  38  63  89 118 155 198 245 302 366
#     4  10  22  39  61  89 125 164 203 252 310 369
#     4  12  24  39  63  91 120 161 209 253 307 372
#
# _framework density 19.617538
#
# number of rings (size 3 to 8) (size 9 to 14) (size 15 to 20)
#    0.000    1.273    2.727    3.545    0.000    4.000 
#    0.000    3.636    0.000    2.182    0.000    0.000 
#    0.000    0.000    0.000    0.000    0.000    0.000 
#
# Total GULP energy -545740.658634 kJ/mol
# GULP energy per Si atom -12403.196787 kJ/mol
# Density = 1.957289 g / cm^3
# Si number density = 19.617538 Si / 1000 Ang^3
#
#
#
# Elastic Constant Matrix: (Units=GPa)
#
#
# Indices 1 2 3 4 5 6 
#
# 1 124.6989 80.8139 46.2391 0.0000 0.0000 0.0000
# 2 80.8139 142.6921 45.3827 0.0000 0.0000 0.0000
# 3 46.2391 45.3827 96.6630 0.0000 0.0000 0.0000
# 4 0.0000 0.0000 0.0000 32.3881 0.0000 0.0000
# 5 0.0000 0.0000 0.0000 0.0000 31.1848 0.0000
# 6 0.0000 0.0000 0.0000 0.0000 0.0000 30.3105
#
#
#
# Elastic Compliance Matrix: (Units=1/GPa)
#
#
# Indices 1 2 3 4 5 6 
#
# 1 0.013550 -0.006598 -0.003384 0.000000 0.000000 0.000000
# 2 -0.006598 0.011451 -0.002220 0.000000 0.000000 0.000000
# 3 -0.003384 -0.002220 0.013006 0.000000 0.000000 0.000000
# 4 0.000000 0.000000 0.000000 0.030876 0.000000 0.000000
# 5 0.000000 0.000000 0.000000 0.000000 0.032067 0.000000
# 6 0.000000 0.000000 0.000000 0.000000 0.000000 0.032992
#
#
# Mechanical properties :
#
#
# Convention : Reuss Voigt Hill
#
# Bulk Modulus (GPa) = 73.51118 78.76948 76.14033
# Shear Modulus (GPa) = 30.69754 31.55125 31.12439
#
# Velocity S-wave (km/s) = 3.96005 4.01474 3.98749
# Velocity P-wave (km/s) = 7.64610 7.85688 7.75221
#
# Compressibility (1/GPa) = 0.01360337
#
# Stress axis : x y z
#
# Youngs Moduli (GPa) = 73.80089 87.33001 76.88584
#
# Poissons Ratio (x) = 0.57618 0.26019
# Poissons Ratio (y) = 0.48692 0.17069
# Poissons Ratio (z) = 0.24975 0.19388
#
# Static dielectric constant tensor:
#      x y z
#    x 3.899450 0.000000 0.000000 
#    y 0.000000 4.115120 0.000000 
#    z 0.000000 0.000000 3.731830 
# 
# 
# High freq. dielectric constant tensor:
#      x y z
#    x 1.776830 0.000000 0.000000 
#    y 0.000000 1.763710 0.000000 
#    z 0.000000 0.000000 1.768310 
# 
# From -- ./inp_files/6890.got.cif
#   From: 2010.03.12/outbox.cif.g09.slc.cpg/sg63_4_cif.got.tgz:6890.got - 2010.04.10 19:34:48.
