data_PCOD8260966
_publ_section_title
;
Structure prediction by ZEFSAII (Michael W. Deem and Ramdas Pophale) SiO2 
 PCOD8260966
Probable space group: C M C M
;
_chemical_formula_sum "Si O2"
_cell_formula_units_Z 80
_cell_length_a 11.652448
_cell_length_b 19.835573
_cell_length_c 17.724446
_cell_angle_alpha 90.000000
_cell_angle_beta 90.000000
_cell_angle_gamma 90.000000
_cell_volume 4096.704075
_symmetry_space_group_name_H-M "C M C M"
_symmetry_group_IT_number 63
_symmetry_cell_setting 'orthorhombic'
loop_
_space_group_symop_operation_xyz
x,y,z
-x,-y,1/2+z
x,-y,-z
-x,y,1/2-z
-x,-y,-z
x,y,1/2-z
-x,y,z
x,-y,1/2+z
1/2+x,1/2+y,z
1/2-x,1/2-y,1/2+z
1/2+x,1/2-y,-z
1/2-x,1/2+y,1/2-z
1/2-x,1/2-y,-z
1/2+x,1/2+y,1/2-z
1/2-x,1/2+y,z
1/2+x,1/2-y,1/2+z
loop_
_atom_site_type_symbol
_atom_site_label
_atom_site_fract_x
_atom_site_fract_y
_atom_site_fract_z
Si Si1 0.627817 0.007075 0.589379
Si Si2 0.500000 0.460762 0.422130
Si Si3 0.242640 0.874430 0.898449
Si Si4 0.868220 0.751383 0.337681
Si Si5 0.000000 0.906057 0.838241
Si Si6 0.224136 0.127342 0.926799
O O1 0.500000 0.999893 0.623207
O O2 0.676008 0.081192 0.610128
O O3 0.626589 0.000000 0.500000
O O4 0.709662 0.948728 0.622133
O O5 0.500000 0.500000 0.500000
O O6 0.500000 0.514043 0.354149
O O7 0.391230 0.414023 0.417647
O O8 0.319845 0.822909 0.851539
O O9 0.110402 0.869968 0.874307
O O10 0.253067 0.856699 0.986543
O O11 0.861503 0.769358 0.250000
O O12 0.786763 0.802974 0.382434
O O13 0.000000 0.755273 0.366141
O O14 0.000000 0.893407 0.750000
#
# Coordination Sequence:
#
# PCOD8260966 Si02
#       6
#    16   8  16  16   8  16
#     4   9  18  34  61  92 118 147 194 250 300 352
#     4  12  18  38  64  94 122 149 197 258 302 361
#     4  11  21  40  62  88 122 159 206 253 298 363
#     4  11  25  42  59  85 124 164 205 251 306 369
#     4  12  24  36  62  94 124 161 199 251 313 363
#     4  11  20  38  65  90 120 158 203 257 302 360
#
# _framework density 19.527892999999999
#
# number of rings (size 3 to 8) (size 9 to 14) (size 15 to 20)
#    0.000    1.200    5.000    2.400    0.000    1.600 
#    1.800    0.000    0.000    2.400    0.000    0.000 
#    0.000    0.000    0.000    0.000    0.000    0.000 
#
# Total GULP energy -496113.397949 kJ/mol
# GULP energy per Si atom -12402.834949 kJ/mol
# Density = 1.948345 g / cm^3
# Si number density = 19.527893 Si / 1000 Ang^3
#
#
#
# Elastic Constant Matrix: (Units=GPa)
#
#
# Indices 1 2 3 4 5 6 
#
# 1 122.5640 36.5565 22.9427 0.0000 0.0000 0.0000
# 2 36.5565 94.1548 28.7322 0.0000 0.0000 0.0000
# 3 22.9427 28.7322 60.0022 0.0000 0.0000 0.0000
# 4 0.0000 0.0000 0.0000 23.7951 0.0000 0.0000
# 5 0.0000 0.0000 0.0000 0.0000 -15.1017 0.0000
# 6 0.0000 0.0000 0.0000 0.0000 0.0000 30.3907
#
#
#
# Elastic Compliance Matrix: (Units=1/GPa)
#
#
# Indices 1 2 3 4 5 6 
#
# 1 0.009464 -0.003010 -0.002177 0.000000 0.000000 0.000000
# 2 -0.003010 0.013396 -0.005264 0.000000 0.000000 0.000000
# 3 -0.002177 -0.005264 0.020019 0.000000 0.000000 0.000000
# 4 0.000000 0.000000 0.000000 0.042025 0.000000 0.000000
# 5 0.000000 0.000000 0.000000 0.000000 -0.066218 0.000000
# 6 0.000000 0.000000 0.000000 0.000000 0.000000 0.032905
#
#
# Mechanical properties :
#
#
# Convention : Reuss Voigt Hill
#
# Bulk Modulus (GPa) = 45.50240 50.35378 47.92809
# Shear Modulus (GPa) = 62.64083 20.38278 41.51180
#
# Velocity S-wave (km/s) = 5.66985 3.23426 4.61561
# Velocity P-wave (km/s) = 8.13725 6.30784 7.28023
#
# Compressibility (1/GPa) = 0.02197686
#
# Stress axis : x y z
#
# Youngs Moduli (GPa) = 105.65879 74.65033 49.95228
#
# Poissons Ratio (x) = 0.22471 0.10877
# Poissons Ratio (y) = 0.31805 0.26293
# Poissons Ratio (z) = 0.23006 0.39293
#
# Static dielectric constant tensor:
#      x y z
#    x 1.218750 0.000000 0.000000 
#    y 0.000000 4.882070 0.000000 
#    z 0.000000 0.000000 3.307500 
# 
# 
# High freq. dielectric constant tensor:
#      x y z
#    x 1.772860 0.000000 0.000000 
#    y 0.000000 1.762050 0.000000 
#    z 0.000000 0.000000 1.736180 
# 
# From -- ./inp_files/42154.got.cif
#   From: 2010.03.12/outbox.cif.g09.slc.cpg/sg63_22_cif.got.tgz:42154.got - 2010.04.10 19:34:48.
