data_PCOD8260872
_publ_section_title
;
Structure prediction by ZEFSAII (Michael W. Deem and Ramdas Pophale) SiO2 
 PCOD8260872
Probable space group: C M C M
;
_chemical_formula_sum "Si O2"
_cell_formula_units_Z 72
_cell_length_a 16.657398
_cell_length_b 24.673905
_cell_length_c 8.671522
_cell_angle_alpha 90.000000
_cell_angle_beta 90.000000
_cell_angle_gamma 90.000000
_cell_volume 3564.022040
_symmetry_space_group_name_H-M "C M C M"
_symmetry_group_IT_number 63
_symmetry_cell_setting 'orthorhombic'
loop_
_space_group_symop_operation_xyz
x,y,z
-x,-y,1/2+z
x,-y,-z
-x,y,1/2-z
-x,-y,-z
x,y,1/2-z
-x,y,z
x,-y,1/2+z
1/2+x,1/2+y,z
1/2-x,1/2-y,1/2+z
1/2+x,1/2-y,-z
1/2-x,1/2+y,1/2-z
1/2-x,1/2-y,-z
1/2+x,1/2+y,1/2-z
1/2-x,1/2+y,z
1/2+x,1/2-y,1/2+z
loop_
_atom_site_type_symbol
_atom_site_label
_atom_site_fract_x
_atom_site_fract_y
_atom_site_fract_z
Si Si1 0.500000 0.940287 0.569778
Si Si2 0.090070 0.945190 0.431857
Si Si3 0.872938 0.647998 0.068792
Si Si4 0.089728 0.239904 0.071535
Si Si5 0.699858 0.347423 0.431404
O O1 0.500000 0.949024 0.750000
O O2 0.579382 0.906499 0.519378
O O3 0.500000 0.000000 0.500000
O O4 0.090417 0.949192 0.250000
O O5 0.141444 0.894723 0.488849
O O6 0.000000 0.937483 0.496459
O O7 0.128394 0.000000 0.500000
O O8 0.882973 0.658705 0.250000
O O9 0.911282 0.697739 0.977212
O O10 0.780304 0.642788 0.025592
O O11 0.113906 0.235170 0.250000
O O12 0.000000 0.216308 0.042559
O O13 0.156643 0.209009 0.971630
O O14 0.718238 0.348778 0.250000
#
# Coordination Sequence:
#
# PCOD8260872 Si02
#       5
#     8  16  16  16  16
#     4  10  24  44  68  92 118 160 207 256 313 368
#     4   9  19  36  57  81 113 154 196 239 291 349
#     4  11  23  42  63  87 120 157 200 250 306 362
#     4  11  23  39  62  91 122 159 201 247 302 362
#     4  11  23  38  59  89 123 160 201 247 302 363
#
# _framework density 20.201895
#
# number of rings (size 3 to 8) (size 9 to 14) (size 15 to 20)
#    0.000    1.556    1.111    3.333    0.000    6.667 
#    0.000    6.667    0.000    0.000    0.000    0.000 
#    0.000    0.000    0.000    0.000    0.000    0.000 
#
# Total GULP energy -446488.197387 kJ/mol
# GULP energy per Si atom -12402.449927 kJ/mol
# Density = 2.015591 g / cm^3
# Si number density = 20.201895 Si / 1000 Ang^3
#
#
#
# Elastic Constant Matrix: (Units=GPa)
#
#
# Indices 1 2 3 4 5 6 
#
# 1 120.7964 54.0266 24.2488 0.0000 0.0000 0.0000
# 2 54.0266 131.4171 18.4342 0.0000 0.0000 0.0000
# 3 24.2488 18.4342 38.2658 0.0000 0.0000 0.0000
# 4 0.0000 0.0000 0.0000 37.7508 0.0000 0.0000
# 5 0.0000 0.0000 0.0000 0.0000 15.7124 0.0000
# 6 0.0000 0.0000 0.0000 0.0000 0.0000 17.8060
#
#
#
# Elastic Compliance Matrix: (Units=1/GPa)
#
#
# Indices 1 2 3 4 5 6 
#
# 1 0.011014 -0.003806 -0.005146 0.000000 0.000000 0.000000
# 2 -0.003806 0.009476 -0.002153 0.000000 0.000000 0.000000
# 3 -0.005146 -0.002153 0.030431 0.000000 0.000000 0.000000
# 4 0.000000 0.000000 0.000000 0.026489 0.000000 0.000000
# 5 0.000000 0.000000 0.000000 0.000000 0.063644 0.000000
# 6 0.000000 0.000000 0.000000 0.000000 0.000000 0.056161
#
#
# Mechanical properties :
#
#
# Convention : Reuss Voigt Hill
#
# Bulk Modulus (GPa) = 34.82993 53.76649 44.29821
# Shear Modulus (GPa) = 21.83449 27.17181 24.50315
#
# Velocity S-wave (km/s) = 3.29114 3.67142 3.48647
# Velocity P-wave (km/s) = 5.63209 6.68168 6.17921
#
# Compressibility (1/GPa) = 0.02871094
#
# Stress axis : x y z
#
# Youngs Moduli (GPa) = 90.79692 105.52915 32.86111
#
# Poissons Ratio (x) = 0.40164 0.16910
# Poissons Ratio (y) = 0.34557 0.07076
# Poissons Ratio (z) = 0.46722 0.22722
#
# Static dielectric constant tensor:
#      x y z
#    x 3.886550 0.000000 0.000000 
#    y 0.000000 3.766350 0.000000 
#    z 0.000000 0.000000 3.634170 
# 
# 
# High freq. dielectric constant tensor:
#      x y z
#    x 1.798370 0.000000 0.000000 
#    y 0.000000 1.792750 0.000000 
#    z 0.000000 0.000000 1.789120 
# 
# From -- ./inp_files/4604.got.cif
#   From: 2010.03.12/outbox.cif.g09.slc.cpg/sg63_3_cif.got.tgz:4604.got - 2010.04.10 19:34:48.
