data_PCOD8260773
_publ_section_title
;
Structure prediction by ZEFSAII (Michael W. Deem and Ramdas Pophale) SiO2 
 PCOD8260773
Probable space group: C M C M
;
_chemical_formula_sum "Si O2"
_cell_formula_units_Z 96
_cell_length_a 16.824918
_cell_length_b 15.441622
_cell_length_c 18.155272
_cell_angle_alpha 90.000000
_cell_angle_beta 90.000000
_cell_angle_gamma 90.000000
_cell_volume 4716.812721
_symmetry_space_group_name_H-M "C M C M"
_symmetry_group_IT_number 63
_symmetry_cell_setting 'orthorhombic'
loop_
_space_group_symop_operation_xyz
x,y,z
-x,-y,1/2+z
x,-y,-z
-x,y,1/2-z
-x,-y,-z
x,y,1/2-z
-x,y,z
x,-y,1/2+z
1/2+x,1/2+y,z
1/2-x,1/2-y,1/2+z
1/2+x,1/2-y,-z
1/2-x,1/2+y,1/2-z
1/2-x,1/2-y,-z
1/2+x,1/2+y,1/2-z
1/2-x,1/2+y,z
1/2+x,1/2-y,1/2+z
loop_
_atom_site_type_symbol
_atom_site_label
_atom_site_fract_x
_atom_site_fract_y
_atom_site_fract_z
Si Si1 0.336164 0.544669 0.392357
Si Si2 0.362487 0.885715 0.422533
Si Si3 0.591340 0.188217 0.428527
Si Si4 0.812205 0.862239 0.456490
Si Si5 0.000000 0.300604 0.336698
Si Si6 0.327631 0.054143 0.333336
Si Si7 0.500000 0.610419 0.163732
O O1 0.343053 0.443540 0.410626
O O2 0.311997 0.608196 0.458817
O O3 0.268085 0.561712 0.331687
O O4 0.422472 0.561760 0.361976
O O5 0.403872 0.877595 0.502127
O O6 0.277018 0.838148 0.429774
O O7 0.418316 0.843659 0.361632
O O8 0.351546 0.984251 0.395798
O O9 0.500000 0.206574 0.409727
O O10 0.632365 0.279729 0.445406
O O11 0.631983 0.144247 0.357438
O O12 0.000000 0.301480 0.250000
O O13 0.000000 0.205396 0.371804
O O14 0.355750 0.030922 0.250000
O O15 0.500000 0.618016 0.250000
#
# Coordination Sequence:
#
# PCOD8260773 Si02
#       7
#    16  16  16  16   8  16   8
#     4  10  22  42  68  94 126 167 217 266 326 384
#     4  11  22  43  66  93 128 167 213 269 322 379
#     4  12  25  40  67  98 128 166 217 268 321 380
#     4  10  23  41  69  97 124 165 215 272 321 380
#     4  11  24  38  64 101 132 166 215 271 325 381
#     4  11  25  44  65  91 130 175 216 262 322 389
#     4  11  24  39  61  93 133 171 209 264 325 385
#
# _framework density 20.352726000000001
#
# number of rings (size 3 to 8) (size 9 to 14) (size 15 to 20)
#    0.000    1.167    2.500    3.000    5.833    1.667 
#    0.000    4.167    0.000    0.000    0.000    0.000 
#    0.000    0.000    0.000    0.000    0.000    0.000 
#
# Total GULP energy -595104.345461 kJ/mol
# GULP energy per Si atom -12398.007197 kJ/mol
# Density = 2.030640 g / cm^3
# Si number density = 20.352726 Si / 1000 Ang^3
#
#
#
# Elastic Constant Matrix: (Units=GPa)
#
#
# Indices 1 2 3 4 5 6 
#
# 1 149.3031 61.9721 34.5906 0.0000 0.0000 0.0000
# 2 61.9721 101.0048 37.7688 0.0000 0.0000 0.0000
# 3 34.5906 37.7688 78.8563 0.0000 0.0000 0.0000
# 4 0.0000 0.0000 0.0000 19.3301 0.0000 0.0000
# 5 0.0000 0.0000 0.0000 0.0000 27.0517 0.0000
# 6 0.0000 0.0000 0.0000 0.0000 0.0000 28.8700
#
#
#
# Elastic Compliance Matrix: (Units=1/GPa)
#
#
# Indices 1 2 3 4 5 6 
#
# 1 0.009152 -0.005012 -0.001614 0.000000 0.000000 0.000000
# 2 -0.005012 0.014805 -0.004893 0.000000 0.000000 0.000000
# 3 -0.001614 -0.004893 0.015733 0.000000 0.000000 0.000000
# 4 0.000000 0.000000 0.000000 0.051733 0.000000 0.000000
# 5 0.000000 0.000000 0.000000 0.000000 0.036966 0.000000
# 6 0.000000 0.000000 0.000000 0.000000 0.000000 0.034638
#
#
# Mechanical properties :
#
#
# Convention : Reuss Voigt Hill
#
# Bulk Modulus (GPa) = 60.04988 66.42524 63.23756
# Shear Modulus (GPa) = 26.09408 28.03921 27.06664
#
# Velocity S-wave (km/s) = 3.58452 3.71572 3.65071
# Velocity P-wave (km/s) = 6.83376 7.14959 6.99346
#
# Compressibility (1/GPa) = 0.01665282
#
# Stress axis : x y z
#
# Youngs Moduli (GPa) = 109.26608 67.54514 63.56194
#
# Poissons Ratio (x) = 0.33851 0.10260
# Poissons Ratio (y) = 0.54760 0.31098
# Poissons Ratio (z) = 0.17638 0.33047
#
# Static dielectric constant tensor:
#      x y z
#    x 3.836270 0.000000 0.000000 
#    y 0.000000 3.820190 0.000000 
#    z 0.000000 0.000000 3.623200 
# 
# 
# High freq. dielectric constant tensor:
#      x y z
#    x 1.810510 0.000000 0.000000 
#    y 0.000000 1.798090 0.000000 
#    z 0.000000 0.000000 1.785710 
# 
# From -- ./inp_files/54274.got.cif
#   From: 2010.03.12/outbox.cif.g09.slc.cpg/sg63_28_cif.got.tgz:54274.got - 2010.04.10 19:34:48.
