data_PCOD8260820
_publ_section_title
;
Structure prediction by ZEFSAII (Michael W. Deem and Ramdas Pophale) SiO2 
 PCOD8260820
Probable space group: C M C M
;
_chemical_formula_sum "Si O2"
_cell_formula_units_Z 64
_cell_length_a 13.926410
_cell_length_b 13.352498
_cell_length_c 17.695201
_cell_angle_alpha 90.000000
_cell_angle_beta 90.000000
_cell_angle_gamma 90.000000
_cell_volume 3290.464416
_symmetry_space_group_name_H-M "C M C M"
_symmetry_group_IT_number 63
_symmetry_cell_setting 'orthorhombic'
loop_
_space_group_symop_operation_xyz
x,y,z
-x,-y,1/2+z
x,-y,-z
-x,y,1/2-z
-x,-y,-z
x,y,1/2-z
-x,y,z
x,-y,1/2+z
1/2+x,1/2+y,z
1/2-x,1/2-y,1/2+z
1/2+x,1/2-y,-z
1/2-x,1/2+y,1/2-z
1/2-x,1/2-y,-z
1/2+x,1/2+y,1/2-z
1/2-x,1/2+y,z
1/2+x,1/2-y,1/2+z
loop_
_atom_site_type_symbol
_atom_site_label
_atom_site_fract_x
_atom_site_fract_y
_atom_site_fract_z
Si Si1 0.649796 0.565492 0.075045
Si Si2 0.000000 0.277807 0.612421
Si Si3 0.000000 0.764296 0.947043
Si Si4 0.157418 0.579084 0.163139
Si Si5 0.000000 0.943925 0.162133
Si Si6 0.500000 0.081412 0.662117
O O1 0.595833 0.668753 0.056693
O O2 0.754534 0.589009 0.106319
O O3 0.594150 0.505531 0.139893
O O4 0.656382 0.500000 0.000000
O O5 0.000000 0.302034 0.523125
O O6 0.093816 0.321646 0.653004
O O7 0.000000 0.159026 0.617402
O O8 0.000000 0.687420 0.878310
O O9 0.192038 0.573086 0.250000
O O10 0.094734 0.481938 0.140561
O O11 0.000000 0.921865 0.250000
O O12 0.500000 0.105675 0.750000
#
# Coordination Sequence:
#
# PCOD8260820 Si02
#       6
#    16   8   8  16   8   8
#     4  11  23  41  59  90 124 156 198 250 296 357
#     4  11  22  40  64  90 121 157 201 250 296 358
#     4  11  23  40  63  90 124 159 201 244 302 356
#     4  10  23  41  62  89 121 157 203 249 298 354
#     4  11  21  40  64  85 119 162 198 242 303 354
#     4   9  22  42  61  87 123 159 200 250 297 352
#
# _framework density 19.450143000000001
#
# number of rings (size 3 to 8) (size 9 to 14) (size 15 to 20)
#    0.000    1.500    2.500    3.375    3.500    7.000 
#    0.000    2.500    0.000    0.000    0.000    0.000 
#    0.000    0.000    0.000    0.000    0.000    0.000 
#
# Total GULP energy -396946.043321 kJ/mol
# GULP energy per Si atom -12404.563854 kJ/mol
# Density = 1.940587 g / cm^3
# Si number density = 19.450143 Si / 1000 Ang^3
#
#
#
# Elastic Constant Matrix: (Units=GPa)
#
#
# Indices 1 2 3 4 5 6 
#
# 1 121.7962 22.6516 40.6302 0.0000 0.0000 0.0000
# 2 22.6516 80.5207 20.2144 0.0000 0.0000 0.0000
# 3 40.6302 20.2144 87.6702 0.0000 0.0000 0.0000
# 4 0.0000 0.0000 0.0000 39.4342 0.0000 0.0000
# 5 0.0000 0.0000 0.0000 0.0000 27.2525 0.0000
# 6 0.0000 0.0000 0.0000 0.0000 0.0000 9.1900
#
#
#
# Elastic Compliance Matrix: (Units=1/GPa)
#
#
# Indices 1 2 3 4 5 6 
#
# 1 0.009936 -0.001740 -0.004204 0.000000 0.000000 0.000000
# 2 -0.001740 0.013487 -0.002303 0.000000 0.000000 0.000000
# 3 -0.004204 -0.002303 0.013886 0.000000 0.000000 0.000000
# 4 0.000000 0.000000 0.000000 0.025359 0.000000 0.000000
# 5 0.000000 0.000000 0.000000 0.000000 0.036694 0.000000
# 6 0.000000 0.000000 0.000000 0.000000 0.000000 0.108813
#
#
# Mechanical properties :
#
#
# Convention : Reuss Voigt Hill
#
# Bulk Modulus (GPa) = 48.04261 50.77550 49.40905
# Shear Modulus (GPa) = 21.58827 28.94141 25.26484
#
# Velocity S-wave (km/s) = 3.33517 3.86162 3.60801
# Velocity P-wave (km/s) = 6.29168 6.78564 6.54332
#
# Compressibility (1/GPa) = 0.02081486
#
# Stress axis : x y z
#
# Youngs Moduli (GPa) = 100.64039 74.14621 72.01658
#
# Poissons Ratio (x) = 0.12901 0.30274
# Poissons Ratio (y) = 0.17510 0.16588
# Poissons Ratio (z) = 0.42307 0.17079
#
# Static dielectric constant tensor:
#      x y z
#    x 3.570840 0.000000 0.000000 
#    y 0.000000 3.477940 0.000000 
#    z 0.000000 0.000000 3.546670 
# 
# 
# High freq. dielectric constant tensor:
#      x y z
#    x 1.757340 0.000000 0.000000 
#    y 0.000000 1.757940 0.000000 
#    z 0.000000 0.000000 1.772480 
# 
# From -- ./inp_files/43508.got.cif
#   From: 2010.03.12/outbox.cif.g09.slc.cpg/sg63_22_cif.got.tgz:43508.got - 2010.04.10 19:34:48.
