data_PCOD8260882
_publ_section_title
;
Structure prediction by ZEFSAII (Michael W. Deem and Ramdas Pophale) SiO2 
 PCOD8260882
Probable space group: C M C M
;
_chemical_formula_sum "Si O2"
_cell_formula_units_Z 64
_cell_length_a 14.217823
_cell_length_b 11.544123
_cell_length_c 18.813872
_cell_angle_alpha 90.000000
_cell_angle_beta 90.000000
_cell_angle_gamma 90.000000
_cell_volume 3087.964036
_symmetry_space_group_name_H-M "C M C M"
_symmetry_group_IT_number 63
_symmetry_cell_setting 'orthorhombic'
loop_
_space_group_symop_operation_xyz
x,y,z
-x,-y,1/2+z
x,-y,-z
-x,y,1/2-z
-x,-y,-z
x,y,1/2-z
-x,y,z
x,-y,1/2+z
1/2+x,1/2+y,z
1/2-x,1/2-y,1/2+z
1/2+x,1/2-y,-z
1/2-x,1/2+y,1/2-z
1/2-x,1/2-y,-z
1/2+x,1/2+y,1/2-z
1/2-x,1/2+y,z
1/2+x,1/2-y,1/2+z
loop_
_atom_site_type_symbol
_atom_site_label
_atom_site_fract_x
_atom_site_fract_y
_atom_site_fract_z
Si Si1 0.000000 0.130104 0.166874
Si Si2 0.647017 0.176680 0.833938
Si Si3 0.000000 0.917098 0.434206
Si Si4 0.604046 0.035498 0.424318
Si Si5 0.311009 0.267061 0.071426
O O1 0.908363 0.205835 0.144728
O O2 0.000000 0.108843 0.250000
O O3 0.000000 0.002033 0.133822
O O4 0.651714 0.160589 0.750000
O O5 0.595336 0.065960 0.866885
O O6 0.750583 0.173157 0.867139
O O7 0.906090 0.839958 0.439495
O O8 0.000000 0.000000 0.500000
O O9 0.500000 0.082743 0.440619
O O10 0.650271 0.000000 0.500000
O O11 0.664676 0.142038 0.395413
O O12 0.250000 0.250000 0.000000
#
# Coordination Sequence:
#
# PCOD8260882 Si02
#       5
#     8  16   8  16  16
#     4  10  24  47  69  97 141 181 220 271 337 408
#     4  11  25  44  70 100 135 182 226 275 342 407
#     4  12  28  43  67 100 137 177 219 277 340 406
#     4  11  23  42  71  99 135 176 227 287 332 394
#     4  12  26  44  68 103 134 175 225 282 340 403
#
# _framework density 20.725629999999999
#
# number of rings (size 3 to 8) (size 9 to 14) (size 15 to 20)
#    0.000    0.750    5.000    1.500    7.000    2.000 
#    0.000    0.000    0.000    0.000    0.000    0.000 
#    0.000    0.000    0.000    0.000    0.000    0.000 
#
# Total GULP energy -396686.026578 kJ/mol
# GULP energy per Si atom -12396.438331 kJ/mol
# Density = 2.067846 g / cm^3
# Si number density = 20.725630 Si / 1000 Ang^3
#
#
#
# Elastic Constant Matrix: (Units=GPa)
#
#
# Indices 1 2 3 4 5 6 
#
# 1 139.8905 56.7951 47.2991 0.0000 0.0000 0.0000
# 2 56.7951 125.7342 47.6833 0.0000 0.0000 0.0000
# 3 47.2991 47.6833 112.4406 0.0000 0.0000 0.0000
# 4 0.0000 0.0000 0.0000 38.1110 0.0000 0.0000
# 5 0.0000 0.0000 0.0000 0.0000 26.6913 0.0000
# 6 0.0000 0.0000 0.0000 0.0000 0.0000 34.2322
#
#
#
# Elastic Compliance Matrix: (Units=1/GPa)
#
#
# Indices 1 2 3 4 5 6 
#
# 1 0.009328 -0.003248 -0.002547 0.000000 0.000000 0.000000
# 2 -0.003248 0.010608 -0.003133 0.000000 0.000000 0.000000
# 3 -0.002547 -0.003133 0.011293 0.000000 0.000000 0.000000
# 4 0.000000 0.000000 0.000000 0.026239 0.000000 0.000000
# 5 0.000000 0.000000 0.000000 0.000000 0.037465 0.000000
# 6 0.000000 0.000000 0.000000 0.000000 0.000000 0.029212
#
#
# Mechanical properties :
#
#
# Convention : Reuss Voigt Hill
#
# Bulk Modulus (GPa) = 74.76190 75.73559 75.24875
# Shear Modulus (GPa) = 34.13928 34.89277 34.51602
#
# Velocity S-wave (km/s) = 4.06298 4.10757 4.08533
# Velocity P-wave (km/s) = 7.62633 7.68879 7.65762
#
# Compressibility (1/GPa) = 0.01337580
#
# Stress axis : x y z
#
# Youngs Moduli (GPa) = 107.20298 94.26575 88.54833
#
# Poissons Ratio (x) = 0.30616 0.22550
# Poissons Ratio (y) = 0.34817 0.27738
# Poissons Ratio (z) = 0.27301 0.29529
#
# Static dielectric constant tensor:
#      x y z
#    x 3.918760 0.000000 0.000000 
#    y 0.000000 3.501460 0.000000 
#    z 0.000000 0.000000 2.886620 
# 
# 
# High freq. dielectric constant tensor:
#      x y z
#    x 1.824370 0.000000 0.000000 
#    y 0.000000 1.821290 0.000000 
#    z 0.000000 0.000000 1.801500 
# 
# From -- ./inp_files/43491.got.cif
#   From: 2010.03.12/outbox.cif.g09.slc.cpg/sg63_22_cif.got.tgz:43491.got - 2010.04.10 19:34:48.
