data_PCOD8260893
_publ_section_title
;
Structure prediction by ZEFSAII (Michael W. Deem and Ramdas Pophale) SiO2 
 PCOD8260893
Probable space group: C M C M
;
_chemical_formula_sum "Si O2"
_cell_formula_units_Z 96
_cell_length_a 18.554430
_cell_length_b 16.147642
_cell_length_c 19.358302
_cell_angle_alpha 90.000000
_cell_angle_beta 90.000000
_cell_angle_gamma 90.000000
_cell_volume 5799.946537
_symmetry_space_group_name_H-M "C M C M"
_symmetry_group_IT_number 63
_symmetry_cell_setting 'orthorhombic'
loop_
_space_group_symop_operation_xyz
x,y,z
-x,-y,1/2+z
x,-y,-z
-x,y,1/2-z
-x,-y,-z
x,y,1/2-z
-x,y,z
x,-y,1/2+z
1/2+x,1/2+y,z
1/2-x,1/2-y,1/2+z
1/2+x,1/2-y,-z
1/2-x,1/2+y,1/2-z
1/2-x,1/2-y,-z
1/2+x,1/2+y,1/2-z
1/2-x,1/2+y,z
1/2+x,1/2-y,1/2+z
loop_
_atom_site_type_symbol
_atom_site_label
_atom_site_fract_x
_atom_site_fract_y
_atom_site_fract_z
Si Si1 0.829941 0.032345 0.923615
Si Si2 0.294629 0.856756 0.051863
Si Si3 0.829457 0.875884 0.669701
Si Si4 0.794766 0.302889 0.593551
Si Si5 0.417537 0.248175 0.584128
Si Si6 0.082405 0.194507 0.928028
O O1 0.746981 0.064609 0.916189
O O2 0.886331 0.105404 0.907618
O O3 0.844208 0.962505 0.867449
O O4 0.845822 0.000000 0.000000
O O5 0.249657 0.774964 0.066906
O O6 0.374291 0.839970 0.083740
O O7 0.298910 0.869664 0.968866
O O8 0.842259 0.888798 0.750000
O O9 0.746893 0.845727 0.657032
O O10 0.886435 0.808810 0.642318
O O11 0.874420 0.268085 0.612388
O O12 0.500000 0.227790 0.601260
O O13 0.407907 0.292533 0.510169
O O14 0.000000 0.199958 0.904434
#
# Coordination Sequence:
#
# PCOD8260893 Si02
#       6
#    16  16  16  16  16  16
#     4  11  17  29  48  71 101 133 159 197 242 287
#     4   8  14  27  49  69  88 121 163 201 236 272
#     4  11  21  31  46  71  99 129 162 198 244 297
#     4   8  14  29  47  67  90 119 162 204 232 271
#     4   9  17  31  50  73  97 122 157 203 246 288
#     4   9  17  29  51  77  97 121 160 202 241 285
#
# _framework density 16.551877000000001
#
# number of rings (size 3 to 8) (size 9 to 14) (size 15 to 20)
#    0.000    2.667    3.333    2.000    0.000    1.333 
#    0.000    7.500    0.000    3.000    0.000    0.000 
#    0.000    0.000    0.000    0.000    0.000    0.000 
#
# Total GULP energy -594811.257170 kJ/mol
# GULP energy per Si atom -12391.901191 kJ/mol
# Density = 1.651420 g / cm^3
# Si number density = 16.551877 Si / 1000 Ang^3
#
#
#
# Elastic Constant Matrix: (Units=GPa)
#
#
# Indices 1 2 3 4 5 6 
#
# 1 129.7624 19.3416 20.2422 0.0000 0.0000 0.0000
# 2 19.3416 7.9446 1.9203 0.0000 0.0000 0.0000
# 3 20.2422 1.9203 54.9297 0.0000 0.0000 0.0000
# 4 0.0000 0.0000 0.0000 15.9481 0.0000 0.0000
# 5 0.0000 0.0000 0.0000 0.0000 13.3805 0.0000
# 6 0.0000 0.0000 0.0000 0.0000 0.0000 20.1418
#
#
#
# Elastic Compliance Matrix: (Units=1/GPa)
#
#
# Indices 1 2 3 4 5 6 
#
# 1 0.012784 -0.030239 -0.003654 0.000000 0.000000 0.000000
# 2 -0.030239 0.198474 0.004205 0.000000 0.000000 0.000000
# 3 -0.003654 0.004205 0.019405 0.000000 0.000000 0.000000
# 4 0.000000 0.000000 0.000000 0.062703 0.000000 0.000000
# 5 0.000000 0.000000 0.000000 0.000000 0.074736 0.000000
# 6 0.000000 0.000000 0.000000 0.000000 0.000000 0.049648
#
#
# Mechanical properties :
#
#
# Convention : Reuss Voigt Hill
#
# Bulk Modulus (GPa) = 5.83818 30.62720 18.23269
# Shear Modulus (GPa) = 9.35942 19.96960 14.66451
#
# Velocity S-wave (km/s) = 2.38052 3.47722 2.97976
# Velocity P-wave (km/s) = 3.33027 5.88773 4.78310
#
# Compressibility (1/GPa) = 0.17128627
#
# Stress axis : x y z
#
# Youngs Moduli (GPa) = 78.22507 5.03844 51.53436
#
# Poissons Ratio (x) = 0.15236 0.18829
# Poissons Ratio (y) = 2.36547 -0.21670
# Poissons Ratio (z) = 0.28581 -0.02119
#
# Static dielectric constant tensor:
#      x y z
#    x 3.538140 0.000000 0.000000 
#    y 0.000000 3.101760 0.000000 
#    z 0.000000 0.000000 2.728060 
# 
# 
# High freq. dielectric constant tensor:
#      x y z
#    x 1.638520 0.000000 0.000000 
#    y 0.000000 1.622570 0.000000 
#    z 0.000000 0.000000 1.593160 
# 
# From -- ./inp_files/45760.got.cif
#   From: 2010.03.12/outbox.cif.g09.slc.cpg/sg63_23_cif.got.tgz:45760.got - 2010.04.10 19:34:48.
