data_PCOD8260631
_publ_section_title
;
Structure prediction by ZEFSAII (Michael W. Deem and Ramdas Pophale) SiO2 
 PCOD8260631
Probable space group: C M C M
;
_chemical_formula_sum "Si O2"
_cell_formula_units_Z 116
_cell_length_a 19.367730
_cell_length_b 16.505610
_cell_length_c 17.712412
_cell_angle_alpha 90.000000
_cell_angle_beta 90.000000
_cell_angle_gamma 90.000000
_cell_volume 5662.236525
_symmetry_space_group_name_H-M "C M C M"
_symmetry_group_IT_number 63
_symmetry_cell_setting 'orthorhombic'
loop_
_space_group_symop_operation_xyz
x,y,z
-x,-y,1/2+z
x,-y,-z
-x,y,1/2-z
-x,-y,-z
x,y,1/2-z
-x,y,z
x,-y,1/2+z
1/2+x,1/2+y,z
1/2-x,1/2-y,1/2+z
1/2+x,1/2-y,-z
1/2-x,1/2+y,1/2-z
1/2-x,1/2-y,-z
1/2+x,1/2+y,1/2-z
1/2-x,1/2+y,z
1/2+x,1/2-y,1/2+z
loop_
_atom_site_type_symbol
_atom_site_label
_atom_site_fract_x
_atom_site_fract_y
_atom_site_fract_z
Si Si1 0.420768 0.675235 0.525660
Si Si2 0.167067 0.039041 0.918426
Si Si3 0.141653 0.665070 0.428793
Si Si4 0.580823 0.982377 0.661322
Si Si5 0.237080 0.761428 0.833949
Si Si6 0.000000 0.118836 0.250000
Si Si7 0.815496 0.604984 0.588741
Si Si8 0.878810 0.121950 0.137768
O O1 0.500000 0.647427 0.529673
O O2 0.377610 0.621598 0.586141
O O3 0.415507 0.770566 0.543821
O O4 0.387986 0.659282 0.444825
O O5 0.246162 0.054253 0.896276
O O6 0.133258 0.975393 0.860738
O O7 0.161805 0.000000 0.000000
O O8 0.106580 0.602642 0.371820
O O9 0.199560 0.718205 0.387941
O O10 0.174379 0.616866 0.499154
O O11 0.596570 0.982279 0.750000
O O12 0.500000 0.993189 0.644270
O O13 0.619490 0.057271 0.622403
O O14 0.263392 0.737160 0.750000
O O15 0.190787 0.690239 0.869287
O O16 0.189341 0.839793 0.826324
O O17 0.054776 0.138852 0.314305
#
# Coordination Sequence:
#
# PCOD8260631 Si02
#       8
#    16  16  16  16  16   4  16  16
#     4  11  22  39  66  98 129 170 221 279 330 385
#     4  10  22  39  65  94 126 166 215 273 330 380
#     4  12  23  42  72  98 133 172 233 283 332 398
#     4  11  26  47  68  98 139 180 221 277 353 419
#     4  12  24  42  65  99 136 177 220 276 341 404
#     4  12  24  44  62  92 136 178 210 268 330 416
#     4  12  23  44  70  99 133 172 229 287 328 399
#     4  11  23  41  64  92 130 174 217 265 330 399
#
# _framework density 20.486604
#
# number of rings (size 3 to 8) (size 9 to 14) (size 15 to 20)
#    0.000    0.690    4.138    5.379    0.966    2.483 
#    3.724    0.000    0.000    0.000    0.000    0.000 
#    0.000    0.000    0.000    0.000    0.000    0.000 
#
# Total GULP energy -718573.888018 kJ/mol
# GULP energy per Si atom -12389.204966 kJ/mol
# Density = 2.043998 g / cm^3
# Si number density = 20.486604 Si / 1000 Ang^3
#
#
#
# Elastic Constant Matrix: (Units=GPa)
#
#
# Indices 1 2 3 4 5 6 
#
# 1 104.7729 36.5599 28.7567 0.0000 0.0000 0.0000
# 2 36.5599 109.0907 37.4454 0.0000 0.0000 0.0000
# 3 28.7567 37.4454 94.6757 0.0000 0.0000 0.0000
# 4 0.0000 0.0000 0.0000 83.9631 0.0000 0.0000
# 5 0.0000 0.0000 0.0000 0.0000 19.9346 0.0000
# 6 0.0000 0.0000 0.0000 0.0000 0.0000 18.6971
#
#
#
# Elastic Compliance Matrix: (Units=1/GPa)
#
#
# Indices 1 2 3 4 5 6 
#
# 1 0.011197 -0.002991 -0.002218 0.000000 0.000000 0.000000
# 2 -0.002991 0.011406 -0.003603 0.000000 0.000000 0.000000
# 3 -0.002218 -0.003603 0.012661 0.000000 0.000000 0.000000
# 4 0.000000 0.000000 0.000000 0.011910 0.000000 0.000000
# 5 0.000000 0.000000 0.000000 0.000000 0.050164 0.000000
# 6 0.000000 0.000000 0.000000 0.000000 0.000000 0.053484
#
#
# Mechanical properties :
#
#
# Convention : Reuss Voigt Hill
#
# Bulk Modulus (GPa) = 56.68847 57.11814 56.90331
# Shear Modulus (GPa) = 28.68201 38.23743 33.45972
#
# Velocity S-wave (km/s) = 3.74577 4.32494 4.04573
# Velocity P-wave (km/s) = 6.81460 7.27196 7.04699
#
# Compressibility (1/GPa) = 0.01764027
#
# Stress axis : x y z
#
# Youngs Moduli (GPa) = 89.31006 87.67549 78.98334
#
# Poissons Ratio (x) = 0.26225 0.17518
# Poissons Ratio (y) = 0.26714 0.28454
# Poissons Ratio (z) = 0.19808 0.31586
#
# Static dielectric constant tensor:
#      x y z
#    x 4.188370 0.000000 0.000000 
#    y 0.000000 3.872440 0.000000 
#    z 0.000000 0.000000 2.222720 
# 
# 
# High freq. dielectric constant tensor:
#      x y z
#    x 1.814660 0.000000 0.000000 
#    y 0.000000 1.802290 0.000000 
#    z 0.000000 0.000000 1.804550 
# 
# From -- ./inp_files/45910.got.cif
#   From: 2010.03.12/outbox.cif.g09.slc.cpg/sg63_23_cif.got.tgz:45910.got - 2010.04.10 19:34:48.
