data_PCOD8260847
_publ_section_title
;
Structure prediction by ZEFSAII (Michael W. Deem and Ramdas Pophale) SiO2 
 PCOD8260847
Probable space group: C M C M
;
_chemical_formula_sum "Si O2"
_cell_formula_units_Z 48
_cell_length_a 17.965777
_cell_length_b 7.357280
_cell_length_c 15.800898
_cell_angle_alpha 90.000000
_cell_angle_beta 90.000000
_cell_angle_gamma 90.000000
_cell_volume 2088.550876
_symmetry_space_group_name_H-M "C M C M"
_symmetry_group_IT_number 63
_symmetry_cell_setting 'orthorhombic'
loop_
_space_group_symop_operation_xyz
x,y,z
-x,-y,1/2+z
x,-y,-z
-x,y,1/2-z
-x,-y,-z
x,y,1/2-z
-x,y,z
x,-y,1/2+z
1/2+x,1/2+y,z
1/2-x,1/2-y,1/2+z
1/2+x,1/2-y,-z
1/2-x,1/2+y,1/2-z
1/2-x,1/2-y,-z
1/2+x,1/2+y,1/2-z
1/2-x,1/2+y,z
1/2+x,1/2-y,1/2+z
loop_
_atom_site_type_symbol
_atom_site_label
_atom_site_fract_x
_atom_site_fract_y
_atom_site_fract_z
Si Si1 0.338389 0.632286 0.343348
Si Si2 0.414699 0.008734 0.650916
Si Si3 0.699662 0.265426 0.416239
O O1 0.358059 0.559097 0.250000
O O2 0.399487 0.780274 0.372633
O O3 0.337557 0.464053 0.408445
O O4 0.257905 0.731969 0.340098
O O5 0.395642 0.974648 0.750000
O O6 0.500000 0.963050 0.631516
O O7 0.365202 0.884092 0.589087
O O8 0.750000 0.250000 0.500000
#
# Coordination Sequence:
#
# PCOD8260847 Si02
#       3
#    16  16  16
#     4  11  22  39  67  97 127 176 234 282 331 406
#     4  10  23  43  68 101 139 180 232 292 348 407
#     4  12  24  39  66 101 136 177 224 283 344 410
#
# _framework density 22.982443
#
# number of rings (size 3 to 8) (size 9 to 14) (size 15 to 20)
#    0.000    1.000    3.333    4.000    0.000    1.333 
#    0.000    6.667    0.000    4.000    0.000    0.000 
#    0.000    0.000    0.000    0.000    0.000    0.000 
#
# Total GULP energy -297530.761882 kJ/mol
# GULP energy per Si atom -12397.115078 kJ/mol
# Density = 2.293013 g / cm^3
# Si number density = 22.982443 Si / 1000 Ang^3
#
#
#
# Elastic Constant Matrix: (Units=GPa)
#
#
# Indices 1 2 3 4 5 6 
#
# 1 127.6746 64.6189 57.2930 0.0000 0.0000 0.0000
# 2 64.6189 157.6739 76.1896 0.0000 0.0000 0.0000
# 3 57.2930 76.1896 108.3971 0.0000 0.0000 0.0000
# 4 0.0000 0.0000 0.0000 28.1697 0.0000 0.0000
# 5 0.0000 0.0000 0.0000 0.0000 33.2320 0.0000
# 6 0.0000 0.0000 0.0000 0.0000 0.0000 42.2916
#
#
#
# Elastic Compliance Matrix: (Units=1/GPa)
#
#
# Indices 1 2 3 4 5 6 
#
# 1 0.010905 -0.002550 -0.003971 0.000000 0.000000 0.000000
# 2 -0.002550 0.010200 -0.005822 0.000000 0.000000 0.000000
# 3 -0.003971 -0.005822 0.015416 0.000000 0.000000 0.000000
# 4 0.000000 0.000000 0.000000 0.035499 0.000000 0.000000
# 5 0.000000 0.000000 0.000000 0.000000 0.030091 0.000000
# 6 0.000000 0.000000 0.000000 0.000000 0.000000 0.023645
#
#
# Mechanical properties :
#
#
# Convention : Reuss Voigt Hill
#
# Bulk Modulus (GPa) = 84.49302 87.77207 86.13255
# Shear Modulus (GPa) = 32.38547 33.78160 33.08353
#
# Velocity S-wave (km/s) = 3.75792 3.83807 3.79821
# Velocity P-wave (km/s) = 7.46145 7.61018 7.53618
#
# Compressibility (1/GPa) = 0.01183530
#
# Stress axis : x y z
#
# Youngs Moduli (GPa) = 91.69847 98.03466 64.86586
#
# Poissons Ratio (x) = 0.25001 0.25761
# Poissons Ratio (y) = 0.23385 0.37763
# Poissons Ratio (z) = 0.36418 0.57073
#
# Static dielectric constant tensor:
#      x y z
#    x 4.046250 0.000000 0.000000 
#    y 0.000000 4.218600 0.000000 
#    z 0.000000 0.000000 4.095080 
# 
# 
# High freq. dielectric constant tensor:
#      x y z
#    x 1.885000 0.000000 0.000000 
#    y 0.000000 1.916120 0.000000 
#    z 0.000000 0.000000 1.905390 
# 
# From -- ./inp_files/33061.got.cif
#   From: 2010.03.12/outbox.cif.g09.slc.cpg/sg63_17_cif.got.tgz:33061.got - 2010.04.10 19:34:48.
