data_PCOD8260934
_publ_section_title
;
Structure prediction by ZEFSAII (Michael W. Deem and Ramdas Pophale) SiO2 
 PCOD8260934
Probable space group: C M C M
;
_chemical_formula_sum "Si O2"
_cell_formula_units_Z 80
_cell_length_a 7.945771
_cell_length_b 19.431393
_cell_length_c 29.048285
_cell_angle_alpha 90.000000
_cell_angle_beta 90.000000
_cell_angle_gamma 90.000000
_cell_volume 4484.979649
_symmetry_space_group_name_H-M "C M C M"
_symmetry_group_IT_number 63
_symmetry_cell_setting 'orthorhombic'
loop_
_space_group_symop_operation_xyz
x,y,z
-x,-y,1/2+z
x,-y,-z
-x,y,1/2-z
-x,-y,-z
x,y,1/2-z
-x,y,z
x,-y,1/2+z
1/2+x,1/2+y,z
1/2-x,1/2-y,1/2+z
1/2+x,1/2-y,-z
1/2-x,1/2+y,1/2-z
1/2-x,1/2-y,-z
1/2+x,1/2+y,1/2-z
1/2-x,1/2+y,z
1/2+x,1/2-y,1/2+z
loop_
_atom_site_type_symbol
_atom_site_label
_atom_site_fract_x
_atom_site_fract_y
_atom_site_fract_z
Si Si1 0.000000 0.458613 0.697810
Si Si2 0.690860 0.205326 0.042450
Si Si3 0.816306 0.205566 0.359129
Si Si4 0.186381 0.957723 0.640343
Si Si5 0.000000 0.294152 0.802290
Si Si6 0.304134 0.445642 0.962835
O O1 0.167973 0.488483 0.673134
O O2 0.000000 0.485290 0.750000
O O3 0.000000 0.376399 0.695473
O O4 0.500000 0.222575 0.054324
O O5 0.796037 0.226455 0.087560
O O6 0.705088 0.125041 0.030137
O O7 0.750000 0.250000 0.000000
O O8 0.812680 0.123892 0.355555
O O9 0.667102 0.235799 0.327281
O O10 0.000000 0.232896 0.342404
O O11 0.227541 0.977926 0.587679
O O12 0.000000 0.985687 0.654666
O O13 0.000000 0.267648 0.750000
O O14 0.500000 0.429297 0.970322
O O15 0.235951 0.500000 0.000000
#
# Coordination Sequence:
#
# PCOD8260934 Si02
#       6
#     8  16  16  16   8  16
#     4   9  16  24  37  57  83 115 152 189 223 273
#     4  11  20  31  47  69  96 131 167 198 240 290
#     4   9  16  28  42  60  88 121 155 190 234 283
#     4   8  15  26  40  58  84 118 149 181 230 276
#     4   9  16  26  40  61  87 119 154 191 235 283
#     4   9  18  32  48  68  95 128 160 195 237 285
#
# _framework density 17.837316000000001
#
# number of rings (size 3 to 8) (size 9 to 14) (size 15 to 20)
#    0.000    2.800    1.000    3.000    4.200    1.200 
#    0.000    4.000    0.000    0.000    0.000    0.000 
#    0.000    1.600    0.800    0.000    0.000    0.000 
#
# Total GULP energy -495798.607791 kJ/mol
# GULP energy per Si atom -12394.965195 kJ/mol
# Density = 1.779672 g / cm^3
# Si number density = 17.837316 Si / 1000 Ang^3
#
#
#
# Elastic Constant Matrix: (Units=GPa)
#
#
# Indices 1 2 3 4 5 6 
#
# 1 154.6294 15.2195 80.0353 0.0000 0.0000 0.0000
# 2 15.2195 16.9670 25.9048 0.0000 0.0000 0.0000
# 3 80.0353 25.9048 140.6982 0.0000 0.0000 0.0000
# 4 0.0000 0.0000 0.0000 17.3667 0.0000 0.0000
# 5 0.0000 0.0000 0.0000 0.0000 31.5011 0.0000
# 6 0.0000 0.0000 0.0000 0.0000 0.0000 11.6040
#
#
#
# Elastic Compliance Matrix: (Units=1/GPa)
#
#
# Indices 1 2 3 4 5 6 
#
# 1 0.009167 -0.000364 -0.005148 0.000000 0.000000 0.000000
# 2 -0.000364 0.081999 -0.014890 0.000000 0.000000 0.000000
# 3 -0.005148 -0.014890 0.012777 0.000000 0.000000 0.000000
# 4 0.000000 0.000000 0.000000 0.057581 0.000000 0.000000
# 5 0.000000 0.000000 0.000000 0.000000 0.031745 0.000000
# 6 0.000000 0.000000 0.000000 0.000000 0.000000 0.086177
#
#
# Mechanical properties :
#
#
# Convention : Reuss Voigt Hill
#
# Bulk Modulus (GPa) = 15.83795 61.62376 38.73086
# Shear Modulus (GPa) = 14.65001 24.83670 19.74336
#
# Velocity S-wave (km/s) = 2.86896 3.73554 3.33056
# Velocity P-wave (km/s) = 4.45791 7.29577 6.04571
#
# Compressibility (1/GPa) = 0.06313950
#
# Stress axis : x y z
#
# Youngs Moduli (GPa) = 109.08267 12.19534 78.26364
#
# Poissons Ratio (x) = 0.00443 0.40289
# Poissons Ratio (y) = 0.03965 1.16538
# Poissons Ratio (z) = 0.56154 0.18159
#
# Static dielectric constant tensor:
#      x y z
#    x 3.701630 0.000000 0.000000 
#    y 0.000000 2.634930 0.000000 
#    z 0.000000 0.000000 3.395160 
# 
# 
# High freq. dielectric constant tensor:
#      x y z
#    x 1.711530 0.000000 0.000000 
#    y 0.000000 1.604240 0.000000 
#    z 0.000000 0.000000 1.691970 
# 
# From -- ./inp_files/59798.got.cif
#   From: 2010.03.12/outbox.cif.g09.slc.cpg/sg63_30_cif.got.tgz:59798.got - 2010.04.10 19:34:48.
