data_PCOD8260203
_publ_section_title
;
Structure prediction by ZEFSAII (Michael W. Deem and Ramdas Pophale) SiO2 
 PCOD8260203
Probable space group: C M C M
;
_chemical_formula_sum "Si O2"
_cell_formula_units_Z 80
_cell_length_a 8.751412
_cell_length_b 15.651365
_cell_length_c 29.476049
_cell_angle_alpha 90.000000
_cell_angle_beta 90.000000
_cell_angle_gamma 90.000000
_cell_volume 4037.379927
_symmetry_space_group_name_H-M "C M C M"
_symmetry_group_IT_number 63
_symmetry_cell_setting 'orthorhombic'
loop_
_space_group_symop_operation_xyz
x,y,z
-x,-y,1/2+z
x,-y,-z
-x,y,1/2-z
-x,-y,-z
x,y,1/2-z
-x,y,z
x,-y,1/2+z
1/2+x,1/2+y,z
1/2-x,1/2-y,1/2+z
1/2+x,1/2-y,-z
1/2-x,1/2+y,1/2-z
1/2-x,1/2-y,-z
1/2+x,1/2+y,1/2-z
1/2-x,1/2+y,z
1/2+x,1/2-y,1/2+z
loop_
_atom_site_type_symbol
_atom_site_label
_atom_site_fract_x
_atom_site_fract_y
_atom_site_fract_z
Si Si1 0.179374 0.371244 0.302812
Si Si2 0.324578 0.277285 0.953265
Si Si3 0.827036 0.531406 0.356572
Si Si4 0.818594 0.275157 0.860444
Si Si5 0.827714 0.552380 0.044301
O O1 0.214152 0.378572 0.250000
O O2 0.250603 0.457155 0.326121
O O3 0.262499 0.286427 0.320659
O O4 0.000000 0.362355 0.313453
O O5 0.500000 0.249531 0.952592
O O6 0.244040 0.238464 0.908472
O O7 0.304159 0.378394 0.951397
O O8 0.250000 0.250000 0.000000
O O9 0.756496 0.627444 0.351293
O O10 0.818631 0.498663 0.408995
O O11 0.000000 0.538547 0.339503
O O12 0.000000 0.276017 0.863254
O O13 0.000000 0.591896 0.040164
O O14 0.787412 0.500000 0.000000
#
# Coordination Sequence:
#
# PCOD8260203 Si02
#       5
#    16  16  16  16  16
#     4  10  21  37  59  87 115 151 197 241 291 353
#     4  11  22  36  55  82 116 154 195 238 291 348
#     4   8  17  35  56  79 112 152 192 232 283 349
#     4  10  21  39  60  85 116 153 196 244 298 351
#     4   9  18  33  54  81 112 151 195 236 284 343
#
# _framework density 19.814831000000002
#
# number of rings (size 3 to 8) (size 9 to 14) (size 15 to 20)
#    0.000    2.400    0.000    3.600    2.800    1.600 
#    0.000    7.000    0.000    0.000    0.000    0.000 
#    0.000    0.000    0.000    0.000    0.000    0.000 
#
# Total GULP energy -495636.905684 kJ/mol
# GULP energy per Si atom -12390.922642 kJ/mol
# Density = 1.976973 g / cm^3
# Si number density = 19.814831 Si / 1000 Ang^3
#
#
#
# Elastic Constant Matrix: (Units=GPa)
#
#
# Indices 1 2 3 4 5 6 
#
# 1 69.5974 24.2344 35.8723 0.0000 0.0000 0.0000
# 2 24.2344 105.7340 69.6628 0.0000 0.0000 0.0000
# 3 35.8723 69.6628 141.9006 0.0000 0.0000 0.0000
# 4 0.0000 0.0000 0.0000 38.0897 0.0000 0.0000
# 5 0.0000 0.0000 0.0000 0.0000 26.9277 0.0000
# 6 0.0000 0.0000 0.0000 0.0000 0.0000 26.0948
#
#
#
# Elastic Compliance Matrix: (Units=1/GPa)
#
#
# Indices 1 2 3 4 5 6 
#
# 1 0.016690 -0.001545 -0.003461 0.000000 0.000000 0.000000
# 2 -0.001545 0.014122 -0.006542 0.000000 0.000000 0.000000
# 3 -0.003461 -0.006542 0.011134 0.000000 0.000000 0.000000
# 4 0.000000 0.000000 0.000000 0.026254 0.000000 0.000000
# 5 0.000000 0.000000 0.000000 0.000000 0.037136 0.000000
# 6 0.000000 0.000000 0.000000 0.000000 0.000000 0.038322
#
#
# Mechanical properties :
#
#
# Convention : Reuss Voigt Hill
#
# Bulk Modulus (GPa) = 53.05138 64.08565 58.56852
# Shear Modulus (GPa) = 28.89534 30.71994 29.80764
#
# Velocity S-wave (km/s) = 3.82287 3.94172 3.88275
# Velocity P-wave (km/s) = 6.80570 7.28894 7.05146
#
# Compressibility (1/GPa) = 0.01884965
#
# Stress axis : x y z
#
# Youngs Moduli (GPa) = 59.91560 70.80977 89.81634
#
# Poissons Ratio (x) = 0.10943 0.31081
# Poissons Ratio (y) = 0.09259 0.58761
# Poissons Ratio (z) = 0.20734 0.46326
#
# Static dielectric constant tensor:
#      x y z
#    x 3.730610 0.000000 0.000000 
#    y 0.000000 3.882750 0.000000 
#    z 0.000000 0.000000 3.929770 
# 
# 
# High freq. dielectric constant tensor:
#      x y z
#    x 1.743530 0.000000 0.000000 
#    y 0.000000 1.764760 0.000000 
#    z 0.000000 0.000000 1.783150 
# 
# From -- ./inp_files/66636.got.cif
#   From: 2010.03.12/outbox.cif.g09.slc.cpg/sg63_34_cif.got.tgz:66636.got - 2010.04.10 19:34:48.
