data_PCOD8260640
_publ_section_title
;
Structure prediction by ZEFSAII (Michael W. Deem and Ramdas Pophale) SiO2 
 PCOD8260640
Probable space group: C M C M
;
_chemical_formula_sum "Si O2"
_cell_formula_units_Z 64
_cell_length_a 8.554414
_cell_length_b 19.991819
_cell_length_c 19.819909
_cell_angle_alpha 90.000000
_cell_angle_beta 90.000000
_cell_angle_gamma 90.000000
_cell_volume 3389.567071
_symmetry_space_group_name_H-M "C M C M"
_symmetry_group_IT_number 63
_symmetry_cell_setting 'orthorhombic'
loop_
_space_group_symop_operation_xyz
x,y,z
-x,-y,1/2+z
x,-y,-z
-x,y,1/2-z
-x,-y,-z
x,y,1/2-z
-x,y,z
x,-y,1/2+z
1/2+x,1/2+y,z
1/2-x,1/2-y,1/2+z
1/2+x,1/2-y,-z
1/2-x,1/2+y,1/2-z
1/2-x,1/2-y,-z
1/2+x,1/2+y,1/2-z
1/2-x,1/2+y,z
1/2+x,1/2-y,1/2+z
loop_
_atom_site_type_symbol
_atom_site_label
_atom_site_fract_x
_atom_site_fract_y
_atom_site_fract_z
Si Si1 0.683201 0.084079 0.058066
Si Si2 0.181894 0.946768 0.416112
Si Si3 0.684198 0.275874 0.570222
Si Si4 0.682061 0.161132 0.672960
O O1 0.500000 0.075598 0.068573
O O2 0.740168 0.153384 0.090206
O O3 0.770451 0.023672 0.096371
O O4 0.721469 0.083559 0.978562
O O5 0.221614 0.903979 0.350038
O O6 0.000000 0.942377 0.433605
O O7 0.500000 0.284251 0.563591
O O8 0.750000 0.250000 0.500000
O O9 0.732419 0.225027 0.629160
O O10 0.725219 0.176831 0.750000
O O11 0.500000 0.145234 0.663684
#
# Coordination Sequence:
#
# PCOD8260640 Si02
#       4
#    16  16  16  16
#     4  11  21  35  57  84 116 150 190 240 290 342
#     4  11  21  35  57  85 115 147 190 241 290 346
#     4  11  21  35  58  87 118 152 193 243 292 345
#     4  10  22  40  60  83 116 157 195 234 290 355
#
# _framework density 18.881468000000002
#
# number of rings (size 3 to 8) (size 9 to 14) (size 15 to 20)
#    0.000    1.250    2.500    6.750    0.000    1.500 
#    0.000    1.250    0.000    4.500    0.000    0.000 
#    0.000    0.000    0.000    0.000    0.000    0.000 
#
# Total GULP energy -396976.713131 kJ/mol
# GULP energy per Si atom -12405.522285 kJ/mol
# Density = 1.883849 g / cm^3
# Si number density = 18.881468 Si / 1000 Ang^3
#
#
#
# Elastic Constant Matrix: (Units=GPa)
#
#
# Indices 1 2 3 4 5 6 
#
# 1 82.8446 38.0405 33.2349 0.0000 0.0000 0.0000
# 2 38.0405 154.5138 65.4646 0.0000 0.0000 0.0000
# 3 33.2349 65.4646 106.9353 0.0000 0.0000 0.0000
# 4 0.0000 0.0000 0.0000 29.0015 0.0000 0.0000
# 5 0.0000 0.0000 0.0000 0.0000 21.3622 0.0000
# 6 0.0000 0.0000 0.0000 0.0000 0.0000 36.4607
#
#
#
# Elastic Compliance Matrix: (Units=1/GPa)
#
#
# Indices 1 2 3 4 5 6 
#
# 1 0.014331 -0.002216 -0.003097 0.000000 0.000000 0.000000
# 2 -0.002216 0.009081 -0.004871 0.000000 0.000000 0.000000
# 3 -0.003097 -0.004871 0.013296 0.000000 0.000000 0.000000
# 4 0.000000 0.000000 0.000000 0.034481 0.000000 0.000000
# 5 0.000000 0.000000 0.000000 0.000000 0.046812 0.000000
# 6 0.000000 0.000000 0.000000 0.000000 0.000000 0.027427
#
#
# Mechanical properties :
#
#
# Convention : Reuss Voigt Hill
#
# Bulk Modulus (GPa) = 61.19980 68.64152 64.92066
# Shear Modulus (GPa) = 29.19851 31.20181 30.20016
#
# Velocity S-wave (km/s) = 3.93671 4.06952 4.00366
# Velocity P-wave (km/s) = 7.29017 7.64945 7.47197
#
# Compressibility (1/GPa) = 0.01633992
#
# Stress axis : x y z
#
# Youngs Moduli (GPa) = 69.77944 110.11950 75.21140
#
# Poissons Ratio (x) = 0.24401 0.23296
# Poissons Ratio (y) = 0.15462 0.36633
# Poissons Ratio (z) = 0.21614 0.53635
#
# Static dielectric constant tensor:
#      x y z
#    x 3.508710 0.000000 0.000000 
#    y 0.000000 3.789910 0.000000 
#    z 0.000000 0.000000 3.206030 
# 
# 
# High freq. dielectric constant tensor:
#      x y z
#    x 1.745840 0.000000 0.000000 
#    y 0.000000 1.751480 0.000000 
#    z 0.000000 0.000000 1.698550 
# 
# From -- ./inp_files/39816.got.cif
#   From: 2010.03.12/outbox.cif.g09.slc.cpg/sg63_20_cif.got.tgz:39816.got - 2010.04.10 19:34:48.
