data_PCOD8260789
_publ_section_title
;
Structure prediction by ZEFSAII (Michael W. Deem and Ramdas Pophale) SiO2 
 PCOD8260789
Probable space group: C M C M
;
_chemical_formula_sum "Si O2"
_cell_formula_units_Z 112
_cell_length_a 26.454643
_cell_length_b 14.694009
_cell_length_c 13.607506
_cell_angle_alpha 90.000000
_cell_angle_beta 90.000000
_cell_angle_gamma 90.000000
_cell_volume 5289.574536
_symmetry_space_group_name_H-M "C M C M"
_symmetry_group_IT_number 63
_symmetry_cell_setting 'orthorhombic'
loop_
_space_group_symop_operation_xyz
x,y,z
-x,-y,1/2+z
x,-y,-z
-x,y,1/2-z
-x,-y,-z
x,y,1/2-z
-x,y,z
x,-y,1/2+z
1/2+x,1/2+y,z
1/2-x,1/2-y,1/2+z
1/2+x,1/2-y,-z
1/2-x,1/2+y,1/2-z
1/2-x,1/2-y,-z
1/2+x,1/2+y,1/2-z
1/2-x,1/2+y,z
1/2+x,1/2-y,1/2+z
loop_
_atom_site_type_symbol
_atom_site_label
_atom_site_fract_x
_atom_site_fract_y
_atom_site_fract_z
Si Si1 0.387421 0.095359 0.474639
Si Si2 0.212498 0.397029 0.866074
Si Si3 0.442726 0.255476 0.366680
Si Si4 0.273470 0.306579 0.365095
Si Si5 0.368201 0.589819 0.866920
Si Si6 0.338829 0.793536 0.364763
Si Si7 0.676009 0.590585 0.133599
O O1 0.335575 0.061466 0.421939
O O2 0.419550 0.160819 0.404236
O O3 0.379782 0.149351 0.576150
O O4 0.416116 0.000000 0.500000
O O5 0.202672 0.405209 0.750000
O O6 0.215932 0.293671 0.905937
O O7 0.266740 0.440919 0.895777
O O8 0.439417 0.251581 0.250000
O O9 0.500000 0.264336 0.404223
O O10 0.413711 0.346551 0.406189
O O11 0.283018 0.302033 0.250000
O O12 0.315126 0.373388 0.411705
O O13 0.216274 0.338418 0.385536
O O14 0.368781 0.592515 0.750000
O O15 0.366539 0.483494 0.901495
O O16 0.352740 0.798241 0.250000
O O17 0.339067 0.689975 0.406131
O O18 0.676919 0.599608 0.250000
#
# Coordination Sequence:
#
# PCOD8260789 Si02
#       7
#    16  16  16  16  16  16  16
#     4  12  25  36  55  85 115 152 198 247 283 341
#     4   9  17  33  52  76 115 155 191 234 285 337
#     4  10  22  43  68  89 111 141 186 250 309 340
#     4   8  14  27  50  76 110 152 189 224 270 334
#     4   9  15  29  57  88 112 146 188 233 288 341
#     4   9  20  37  52  77 122 168 194 223 278 346
#     4   8  16  30  53  82 118 160 195 226 274 349
#
# _framework density 21.173725000000001
#
# number of rings (size 3 to 8) (size 9 to 14) (size 15 to 20)
#    0.000    2.714    1.429    2.143    2.000    3.714 
#    0.000    0.714    0.000    2.143    0.000    2.000 
#    0.000    0.000    0.000    0.000    0.000    0.000 
#
# Total GULP energy -693816.189542 kJ/mol
# GULP energy per Si atom -12389.574813 kJ/mol
# Density = 2.112553 g / cm^3
# Si number density = 21.173725 Si / 1000 Ang^3
#
#
#
# Elastic Constant Matrix: (Units=GPa)
#
#
# Indices 1 2 3 4 5 6 
#
# 1 93.8376 62.8629 21.4512 0.0000 0.0000 0.0000
# 2 62.8629 129.1295 13.4095 0.0000 0.0000 0.0000
# 3 21.4512 13.4095 45.4250 0.0000 0.0000 0.0000
# 4 0.0000 0.0000 0.0000 19.6935 0.0000 0.0000
# 5 0.0000 0.0000 0.0000 0.0000 15.1716 0.0000
# 6 0.0000 0.0000 0.0000 0.0000 0.0000 19.7698
#
#
#
# Elastic Compliance Matrix: (Units=1/GPa)
#
#
# Indices 1 2 3 4 5 6 
#
# 1 0.017189 -0.007763 -0.005826 0.000000 0.000000 0.000000
# 2 -0.007763 0.011495 0.000273 0.000000 0.000000 0.000000
# 3 -0.005826 0.000273 0.024685 0.000000 0.000000 0.000000
# 4 0.000000 0.000000 0.000000 0.050778 0.000000 0.000000
# 5 0.000000 0.000000 0.000000 0.000000 0.065913 0.000000
# 6 0.000000 0.000000 0.000000 0.000000 0.000000 0.050582
#
#
# Mechanical properties :
#
#
# Convention : Reuss Voigt Hill
#
# Bulk Modulus (GPa) = 37.40139 51.53768 44.46953
# Shear Modulus (GPa) = 19.51706 22.30488 20.91097
#
# Velocity S-wave (km/s) = 3.03934 3.24917 3.14600
# Velocity P-wave (km/s) = 5.47898 6.20237 5.85186
#
# Compressibility (1/GPa) = 0.02673698
#
# Stress axis : x y z
#
# Youngs Moduli (GPa) = 58.17697 86.99411 40.51062
#
# Poissons Ratio (x) = 0.67533 0.23600
# Poissons Ratio (y) = 0.45163 -0.01104
# Poissons Ratio (z) = 0.33891 -0.02371
#
# Static dielectric constant tensor:
#      x y z
#    x 3.604890 0.000000 0.000000 
#    y 0.000000 4.115650 0.000000 
#    z 0.000000 0.000000 3.683120 
# 
# 
# High freq. dielectric constant tensor:
#      x y z
#    x 1.769730 0.000000 0.000000 
#    y 0.000000 1.835410 0.000000 
#    z 0.000000 0.000000 1.835320 
# 
# From -- ./inp_files/37983.got.cif
#   From: 2010.03.12/outbox.cif.g09.slc.cpg/sg63_19_cif.got.tgz:37983.got - 2010.04.10 19:34:48.
