data_PCOD8260712
_publ_section_title
;
Structure prediction by ZEFSAII (Michael W. Deem and Ramdas Pophale) SiO2 
 PCOD8260712
Probable space group: C M C M
;
_chemical_formula_sum "Si O2"
_cell_formula_units_Z 64
_cell_length_a 8.987021
_cell_length_b 26.790636
_cell_length_c 13.378814
_cell_angle_alpha 90.000000
_cell_angle_beta 90.000000
_cell_angle_gamma 90.000000
_cell_volume 3221.190401
_symmetry_space_group_name_H-M "C M C M"
_symmetry_group_IT_number 63
_symmetry_cell_setting 'orthorhombic'
loop_
_space_group_symop_operation_xyz
x,y,z
-x,-y,1/2+z
x,-y,-z
-x,y,1/2-z
-x,-y,-z
x,y,1/2-z
-x,y,z
x,-y,1/2+z
1/2+x,1/2+y,z
1/2-x,1/2-y,1/2+z
1/2+x,1/2-y,-z
1/2-x,1/2+y,1/2-z
1/2-x,1/2-y,-z
1/2+x,1/2+y,1/2-z
1/2-x,1/2+y,z
1/2+x,1/2-y,1/2+z
loop_
_atom_site_type_symbol
_atom_site_label
_atom_site_fract_x
_atom_site_fract_y
_atom_site_fract_z
Si Si1 0.673743 0.054565 0.470933
Si Si2 0.174944 0.877604 0.138090
Si Si3 0.672696 0.908308 0.750000
Si Si4 0.175723 0.235569 0.599657
Si Si5 0.324553 0.694484 0.250000
O O1 0.500000 0.059205 0.492008
O O2 0.748704 0.094087 0.546000
O O3 0.708300 0.061655 0.352660
O O4 0.734202 0.000000 0.500000
O O5 0.219646 0.897614 0.250000
O O6 0.221902 0.819514 0.135446
O O7 0.000000 0.883200 0.121697
O O8 0.500000 0.891225 0.750000
O O9 0.787442 0.863501 0.750000
O O10 0.250000 0.250000 0.500000
O O11 0.248124 0.280017 0.658410
O O12 0.000000 0.241350 0.599525
O O13 0.500000 0.702117 0.250000
#
# Coordination Sequence:
#
# PCOD8260712 Si02
#       5
#    16  16   8  16   8
#     4  10  23  41  65  94 122 159 205 258 316 372
#     4  10  22  41  62  89 126 165 204 252 310 367
#     4  10  22  42  63  88 127 165 202 257 321 374
#     4  11  22  39  61  89 127 166 205 254 306 364
#     4  12  24  38  59  90 123 165 212 249 299 368
#
# _framework density 19.86843
#
# number of rings (size 3 to 8) (size 9 to 14) (size 15 to 20)
#    0.000    1.500    1.250    3.375    1.750    8.000 
#    0.000    0.000    0.000    0.000    0.000    0.000 
#    0.000    0.000    0.000    0.000    0.000    0.000 
#
# Total GULP energy -396444.709572 kJ/mol
# GULP energy per Si atom -12388.897174 kJ/mol
# Density = 1.982321 g / cm^3
# Si number density = 19.868430 Si / 1000 Ang^3
#
#
#
# Elastic Constant Matrix: (Units=GPa)
#
#
# Indices 1 2 3 4 5 6 
#
# 1 72.8699 47.6185 48.6504 0.0000 0.0000 0.0000
# 2 47.6185 109.9467 57.6913 0.0000 0.0000 0.0000
# 3 48.6504 57.6913 185.5672 0.0000 0.0000 0.0000
# 4 0.0000 0.0000 0.0000 39.7922 0.0000 0.0000
# 5 0.0000 0.0000 0.0000 0.0000 38.6102 0.0000
# 6 0.0000 0.0000 0.0000 0.0000 0.0000 32.1020
#
#
#
# Elastic Compliance Matrix: (Units=1/GPa)
#
#
# Indices 1 2 3 4 5 6 
#
# 1 0.020559 -0.007260 -0.003133 0.000000 0.000000 0.000000
# 2 -0.007260 0.013432 -0.002273 0.000000 0.000000 0.000000
# 3 -0.003133 -0.002273 0.006917 0.000000 0.000000 0.000000
# 4 0.000000 0.000000 0.000000 0.025131 0.000000 0.000000
# 5 0.000000 0.000000 0.000000 0.000000 0.025900 0.000000
# 6 0.000000 0.000000 0.000000 0.000000 0.000000 0.031151
#
#
# Mechanical properties :
#
#
# Convention : Reuss Voigt Hill
#
# Bulk Modulus (GPa) = 64.19864 75.14491 69.67178
# Shear Modulus (GPa) = 32.54933 36.39581 34.47257
#
# Velocity S-wave (km/s) = 4.05191 4.28464 4.16990
# Velocity P-wave (km/s) = 7.36700 7.89816 7.63720
#
# Compressibility (1/GPa) = 0.01557665
#
# Stress axis : x y z
#
# Youngs Moduli (GPa) = 48.64008 74.44745 144.57720
#
# Poissons Ratio (x) = 0.54052 0.45293
# Poissons Ratio (y) = 0.35315 0.32855
# Poissons Ratio (z) = 0.15238 0.16918
#
# Static dielectric constant tensor:
#      x y z
#    x 3.633830 0.000000 0.000000 
#    y 0.000000 3.544090 0.000000 
#    z 0.000000 0.000000 3.832370 
# 
# 
# High freq. dielectric constant tensor:
#      x y z
#    x 1.769140 0.000000 0.000000 
#    y 0.000000 1.775790 0.000000 
#    z 0.000000 0.000000 1.805240 
# 
# From -- ./inp_files/27740.got.cif
#   From: 2010.03.12/outbox.cif.g09.slc.cpg/sg63_14_cif.got.tgz:27740.got - 2010.04.10 19:34:48.
