data_PCOD8260449
_publ_section_title
;
Structure prediction by ZEFSAII (Michael W. Deem and Ramdas Pophale) SiO2 
 PCOD8260449
Probable space group: C M C M
;
_chemical_formula_sum "Si O2"
_cell_formula_units_Z 96
_cell_length_a 22.709913
_cell_length_b 14.192749
_cell_length_c 14.620659
_cell_angle_alpha 90.000000
_cell_angle_beta 90.000000
_cell_angle_gamma 90.000000
_cell_volume 4712.473716
_symmetry_space_group_name_H-M "C M C M"
_symmetry_group_IT_number 63
_symmetry_cell_setting 'orthorhombic'
loop_
_space_group_symop_operation_xyz
x,y,z
-x,-y,1/2+z
x,-y,-z
-x,y,1/2-z
-x,-y,-z
x,y,1/2-z
-x,y,z
x,-y,1/2+z
1/2+x,1/2+y,z
1/2-x,1/2-y,1/2+z
1/2+x,1/2-y,-z
1/2-x,1/2+y,1/2-z
1/2-x,1/2-y,-z
1/2+x,1/2+y,1/2-z
1/2-x,1/2+y,z
1/2+x,1/2-y,1/2+z
loop_
_atom_site_type_symbol
_atom_site_label
_atom_site_fract_x
_atom_site_fract_y
_atom_site_fract_z
Si Si1 0.570045 0.922424 0.250000
Si Si2 0.932878 0.768593 0.411325
Si Si3 0.314778 0.624649 0.147971
Si Si4 0.930495 0.635022 0.250000
Si Si5 0.766996 0.392257 0.485435
Si Si6 0.661618 0.586551 0.856588
Si Si7 0.118571 0.297730 0.088909
O O1 0.500000 0.916646 0.250000
O O2 0.594209 0.874457 0.158622
O O3 0.595163 0.029019 0.250000
O O4 0.908995 0.690607 0.339889
O O5 0.893385 0.862246 0.404293
O O6 0.930431 0.725403 0.512940
O O7 0.000000 0.796693 0.388523
O O8 0.287703 0.621398 0.250000
O O9 0.345258 0.524795 0.123870
O O10 0.365507 0.703010 0.143577
O O11 0.262279 0.648296 0.077953
O O12 0.000000 0.625727 0.250000
O O13 0.784889 0.500000 0.500000
O O14 0.722323 0.378233 0.401067
O O15 0.824809 0.333861 0.465403
O O16 0.663470 0.611117 0.750000
#
# Coordination Sequence:
#
# PCOD8260449 Si02
#       7
#     8  16  16   8  16  16  16
#     4  11  26  46  64  89 133 171 211 267 317 378
#     4  11  23  41  67  96 125 165 219 267 318 381
#     4  10  21  41  62  91 132 171 201 264 322 378
#     4   9  22  44  64  89 123 161 210 271 317 364
#     4  10  23  41  62  95 130 165 213 265 315 381
#     4  10  21  39  66  91 130 165 207 263 328 370
#     4  12  24  41  65  95 128 169 218 256 320 382
#
# _framework density 20.371466000000002
#
# number of rings (size 3 to 8) (size 9 to 14) (size 15 to 20)
#    0.000    1.500    3.333    1.000    3.500    0.000 
#    1.500    5.000    0.000    0.000    0.000    0.000 
#    0.000    0.000    0.000    0.000    0.000    0.000 
#
# Total GULP energy -595382.146551 kJ/mol
# GULP energy per Si atom -12403.794720 kJ/mol
# Density = 2.032510 g / cm^3
# Si number density = 20.371466 Si / 1000 Ang^3
#
#
#
# Elastic Constant Matrix: (Units=GPa)
#
#
# Indices 1 2 3 4 5 6 
#
# 1 79.8621 43.1426 28.3815 0.0000 0.0000 0.0000
# 2 43.1426 98.8498 33.8307 0.0000 0.0000 0.0000
# 3 28.3815 33.8307 110.1969 0.0000 0.0000 0.0000
# 4 0.0000 0.0000 0.0000 31.7786 0.0000 0.0000
# 5 0.0000 0.0000 0.0000 0.0000 28.0955 0.0000
# 6 0.0000 0.0000 0.0000 0.0000 0.0000 29.4431
#
#
#
# Elastic Compliance Matrix: (Units=1/GPa)
#
#
# Indices 1 2 3 4 5 6 
#
# 1 0.016905 -0.006579 -0.002334 0.000000 0.000000 0.000000
# 2 -0.006579 0.013865 -0.002562 0.000000 0.000000 0.000000
# 3 -0.002334 -0.002562 0.010462 0.000000 0.000000 0.000000
# 4 0.000000 0.000000 0.000000 0.031468 0.000000 0.000000
# 5 0.000000 0.000000 0.000000 0.000000 0.035593 0.000000
# 6 0.000000 0.000000 0.000000 0.000000 0.000000 0.033964
#
#
# Mechanical properties :
#
#
# Convention : Reuss Voigt Hill
#
# Bulk Modulus (GPa) = 54.70030 55.51316 55.10673
# Shear Modulus (GPa) = 29.18825 30.10037 29.64431
#
# Velocity S-wave (km/s) = 3.78934 3.84809 3.81883
# Velocity P-wave (km/s) = 6.78640 6.85955 6.82307
#
# Compressibility (1/GPa) = 0.01828143
#
# Stress axis : x y z
#
# Youngs Moduli (GPa) = 59.15272 72.12537 95.58080
#
# Poissons Ratio (x) = 0.47455 0.22310
# Poissons Ratio (y) = 0.38919 0.24487
# Poissons Ratio (z) = 0.13807 0.18478
#
# Static dielectric constant tensor:
#      x y z
#    x 3.402540 0.000000 0.000000 
#    y 0.000000 3.895220 0.000000 
#    z 0.000000 0.000000 3.894470 
# 
# 
# High freq. dielectric constant tensor:
#      x y z
#    x 1.773230 0.000000 0.000000 
#    y 0.000000 1.808950 0.000000 
#    z 0.000000 0.000000 1.813480 
# 
# From -- ./inp_files/35416.got.cif
#   From: 2010.03.12/outbox.cif.g09.slc.cpg/sg63_18_cif.got.tgz:35416.got - 2010.04.10 19:34:48.
