data_PCOD8260606
_publ_section_title
;
Structure prediction by ZEFSAII (Michael W. Deem and Ramdas Pophale) SiO2 
 PCOD8260606
Probable space group: C M C M
;
_chemical_formula_sum "Si O2"
_cell_formula_units_Z 104
_cell_length_a 27.418419
_cell_length_b 20.811757
_cell_length_c 9.189783
_cell_angle_alpha 90.000000
_cell_angle_beta 90.000000
_cell_angle_gamma 90.000000
_cell_volume 5243.924276
_symmetry_space_group_name_H-M "C M C M"
_symmetry_group_IT_number 63
_symmetry_cell_setting 'orthorhombic'
loop_
_space_group_symop_operation_xyz
x,y,z
-x,-y,1/2+z
x,-y,-z
-x,y,1/2-z
-x,-y,-z
x,y,1/2-z
-x,y,z
x,-y,1/2+z
1/2+x,1/2+y,z
1/2-x,1/2-y,1/2+z
1/2+x,1/2-y,-z
1/2-x,1/2+y,1/2-z
1/2-x,1/2-y,-z
1/2+x,1/2+y,1/2-z
1/2-x,1/2+y,z
1/2+x,1/2-y,1/2+z
loop_
_atom_site_type_symbol
_atom_site_label
_atom_site_fract_x
_atom_site_fract_y
_atom_site_fract_z
Si Si1 0.139400 0.315644 0.581310
Si Si2 0.555037 0.391844 0.913461
Si Si3 0.207526 0.094218 0.591233
Si Si4 0.628021 0.500000 0.500000
Si Si5 0.796233 0.780969 0.923242
Si Si6 0.946016 0.769277 0.083832
Si Si7 0.181522 0.562500 0.918642
O O1 0.157061 0.319639 0.750000
O O2 0.158895 0.254137 0.495818
O O3 0.082109 0.299002 0.569538
O O4 0.154897 0.378740 0.496882
O O5 0.551794 0.367471 0.750000
O O6 0.500000 0.410897 0.968791
O O7 0.592100 0.451776 0.916182
O O8 0.576677 0.331391 0.002455
O O9 0.208389 0.128690 0.750000
O O10 0.164942 0.040898 0.600599
O O11 0.198783 0.143922 0.460561
O O12 0.260328 0.063388 0.562839
O O13 0.794188 0.771421 0.750000
O O14 0.750000 0.750000 0.000000
O O15 0.946535 0.791294 0.250000
O O16 0.000000 0.755792 0.022648
O O17 0.166049 0.561569 0.750000
O O18 0.161097 0.500000 0.000000
#
# Coordination Sequence:
#
# PCOD8260606 Si02
#       7
#    16  16  16   8  16  16  16
#     4  11  22  38  63  90 119 154 195 242 298 359
#     4  10  22  39  59  85 116 153 200 252 301 349
#     4  11  24  39  56  81 115 155 200 248 294 347
#     4  12  23  38  58  82 116 162 209 248 294 348
#     4  12  24  38  58  83 115 153 198 249 301 354
#     4   9  20  40  65  92 121 154 193 242 300 360
#     4  11  23  40  60  84 118 158 199 239 289 351
#
# _framework density 19.832474999999999
#
# number of rings (size 3 to 8) (size 9 to 14) (size 15 to 20)
#    0.000    1.231    2.308    3.923    0.000    6.769 
#    0.000    1.538    0.000    0.462    0.000    0.000 
#    0.000    0.000    0.000    0.000    0.000    0.000 
#
# Total GULP energy -644422.860528 kJ/mol
# GULP energy per Si atom -12392.747318 kJ/mol
# Density = 1.978734 g / cm^3
# Si number density = 19.832475 Si / 1000 Ang^3
#
#
#
# Elastic Constant Matrix: (Units=GPa)
#
#
# Indices 1 2 3 4 5 6 
#
# 1 87.6880 56.8023 39.0002 0.0000 0.0000 0.0000
# 2 56.8023 113.9486 60.8147 0.0000 0.0000 0.0000
# 3 39.0002 60.8147 144.0371 0.0000 0.0000 0.0000
# 4 0.0000 0.0000 0.0000 30.2361 0.0000 0.0000
# 5 0.0000 0.0000 0.0000 0.0000 3.5542 0.0000
# 6 0.0000 0.0000 0.0000 0.0000 0.0000 35.2951
#
#
#
# Elastic Compliance Matrix: (Units=1/GPa)
#
#
# Indices 1 2 3 4 5 6 
#
# 1 0.017037 -0.007785 -0.001326 0.000000 0.000000 0.000000
# 2 -0.007785 0.014886 -0.004177 0.000000 0.000000 0.000000
# 3 -0.001326 -0.004177 0.009065 0.000000 0.000000 0.000000
# 4 0.000000 0.000000 0.000000 0.033073 0.000000 0.000000
# 5 0.000000 0.000000 0.000000 0.000000 0.281361 0.000000
# 6 0.000000 0.000000 0.000000 0.000000 0.000000 0.028333
#
#
# Mechanical properties :
#
#
# Convention : Reuss Voigt Hill
#
# Bulk Modulus (GPa) = 69.38781 73.21202 71.29991
# Shear Modulus (GPa) = 12.04428 26.42083 19.23255
#
# Velocity S-wave (km/s) = 2.46702 3.65389 3.11746
# Velocity P-wave (km/s) = 6.57098 7.40247 6.99909
#
# Compressibility (1/GPa) = 0.01441175
#
# Stress axis : x y z
#
# Youngs Moduli (GPa) = 58.69664 67.17718 110.30979
#
# Poissons Ratio (x) = 0.52297 0.14627
# Poissons Ratio (y) = 0.45695 0.46079
# Poissons Ratio (z) = 0.07783 0.28061
#
# Static dielectric constant tensor:
#      x y z
#    x 4.009920 0.000000 0.000000 
#    y 0.000000 3.408700 0.000000 
#    z 0.000000 0.000000 3.656850 
# 
# 
# High freq. dielectric constant tensor:
#      x y z
#    x 1.769990 0.000000 0.000000 
#    y 0.000000 1.764150 0.000000 
#    z 0.000000 0.000000 1.781010 
# 
# From -- ./inp_files/12608.got.cif
#   From: 2010.03.12/outbox.cif.g09.slc.cpg/sg63_7_cif.got.tgz:12608.got - 2010.04.10 19:34:48.
