data_PCOD8260179
_publ_section_title
;
Structure prediction by ZEFSAII (Michael W. Deem and Ramdas Pophale) SiO2 
 PCOD8260179
Probable space group: C M C M
;
_chemical_formula_sum "Si O2"
_cell_formula_units_Z 96
_cell_length_a 8.821032
_cell_length_b 22.874700
_cell_length_c 23.341536
_cell_angle_alpha 90.000000
_cell_angle_beta 90.000000
_cell_angle_gamma 90.000000
_cell_volume 4709.819204
_symmetry_space_group_name_H-M "C M C M"
_symmetry_group_IT_number 63
_symmetry_cell_setting 'orthorhombic'
loop_
_space_group_symop_operation_xyz
x,y,z
-x,-y,1/2+z
x,-y,-z
-x,y,1/2-z
-x,-y,-z
x,y,1/2-z
-x,y,z
x,-y,1/2+z
1/2+x,1/2+y,z
1/2-x,1/2-y,1/2+z
1/2+x,1/2-y,-z
1/2-x,1/2+y,1/2-z
1/2-x,1/2-y,-z
1/2+x,1/2+y,1/2-z
1/2-x,1/2+y,z
1/2+x,1/2-y,1/2+z
loop_
_atom_site_type_symbol
_atom_site_label
_atom_site_fract_x
_atom_site_fract_y
_atom_site_fract_z
Si Si1 0.321020 0.393339 0.594289
Si Si2 0.823812 0.704442 0.872375
Si Si3 0.329496 0.603171 0.686382
Si Si4 0.178311 0.630214 0.980994
Si Si5 0.679185 0.815210 0.684101
Si Si6 0.674007 0.525859 0.918005
O O1 0.500000 0.387029 0.599491
O O2 0.260431 0.354482 0.540923
O O3 0.248357 0.372691 0.654209
O O4 0.268734 0.459500 0.581505
O O5 0.790188 0.653968 0.826482
O O6 0.773820 0.679818 0.934839
O O7 0.729489 0.760889 0.854888
O O8 0.000000 0.720659 0.871070
O O9 0.301559 0.580026 0.750000
O O10 0.500000 0.628764 0.678610
O O11 0.304672 0.547293 0.646766
O O12 0.228201 0.565683 0.960454
O O13 0.000000 0.630015 0.990489
O O14 0.737728 0.810048 0.750000
O O15 0.500000 0.819591 0.683394
O O16 0.500000 0.530383 0.938564
#
# Coordination Sequence:
#
# PCOD8260179 Si02
#       6
#    16  16  16  16  16  16
#     4  11  23  38  59  85 114 151 191 231 276 329
#     4  10  21  37  58  84 112 144 184 231 282 333
#     4   9  17  31  53  80 110 145 184 229 281 332
#     4  10  21  37  59  87 117 148 184 230 284 336
#     4  11  25  43  61  82 111 149 189 229 278 335
#     4   9  19  35  55  82 115 150 190 233 278 331
#
# _framework density 20.382947000000001
#
# number of rings (size 3 to 8) (size 9 to 14) (size 15 to 20)
#    0.000    2.000    0.000    3.000    0.000   10.333 
#    0.000    1.667    0.000    0.000    0.000    0.000 
#    0.000    0.000    0.000    0.000    0.000    0.000 
#
# Total GULP energy -595232.456516 kJ/mol
# GULP energy per Si atom -12400.676177 kJ/mol
# Density = 2.033655 g / cm^3
# Si number density = 20.382947 Si / 1000 Ang^3
#
#
#
# Elastic Constant Matrix: (Units=GPa)
#
#
# Indices 1 2 3 4 5 6 
#
# 1 71.1306 29.2870 39.3330 0.0000 0.0000 0.0000
# 2 29.2870 65.6314 38.4266 0.0000 0.0000 0.0000
# 3 39.3330 38.4266 122.7321 0.0000 0.0000 0.0000
# 4 0.0000 0.0000 0.0000 17.2574 0.0000 0.0000
# 5 0.0000 0.0000 0.0000 0.0000 31.1378 0.0000
# 6 0.0000 0.0000 0.0000 0.0000 0.0000 31.4974
#
#
#
# Elastic Compliance Matrix: (Units=1/GPa)
#
#
# Indices 1 2 3 4 5 6 
#
# 1 0.018814 -0.005957 -0.004164 0.000000 0.000000 0.000000
# 2 -0.005957 0.020543 -0.004523 0.000000 0.000000 0.000000
# 3 -0.004164 -0.004523 0.010898 0.000000 0.000000 0.000000
# 4 0.000000 0.000000 0.000000 0.057946 0.000000 0.000000
# 5 0.000000 0.000000 0.000000 0.000000 0.032115 0.000000
# 6 0.000000 0.000000 0.000000 0.000000 0.000000 0.031749
#
#
# Mechanical properties :
#
#
# Convention : Reuss Voigt Hill
#
# Bulk Modulus (GPa) = 47.69424 52.62081 50.15753
# Shear Modulus (GPa) = 23.99881 26.14167 25.07024
#
# Velocity S-wave (km/s) = 3.43504 3.58512 3.51089
# Velocity P-wave (km/s) = 6.25960 6.55817 6.41062
#
# Compressibility (1/GPa) = 0.02096689
#
# Stress axis : x y z
#
# Youngs Moduli (GPa) = 53.15108 48.67844 91.75636
#
# Poissons Ratio (x) = 0.29000 0.38211
# Poissons Ratio (y) = 0.31664 0.41498
# Poissons Ratio (z) = 0.22134 0.22016
#
# Static dielectric constant tensor:
#      x y z
#    x 3.651730 0.000000 0.000000 
#    y 0.000000 3.616840 0.000000 
#    z 0.000000 0.000000 3.944200 
# 
# 
# High freq. dielectric constant tensor:
#      x y z
#    x 1.793810 0.000000 0.000000 
#    y 0.000000 1.785120 0.000000 
#    z 0.000000 0.000000 1.809900 
# 
# From -- ./inp_files/59910.got.cif
#   From: 2010.03.12/outbox.cif.g09.slc.cpg/sg63_30_cif.got.tgz:59910.got - 2010.04.10 19:34:48.
