data_PCOD8260869
_publ_section_title
;
Structure prediction by ZEFSAII (Michael W. Deem and Ramdas Pophale) SiO2 
 PCOD8260869
Probable space group: C M C M
;
_chemical_formula_sum "Si O2"
_cell_formula_units_Z 96
_cell_length_a 16.777708
_cell_length_b 14.759778
_cell_length_c 18.568162
_cell_angle_alpha 90.000000
_cell_angle_beta 90.000000
_cell_angle_gamma 90.000000
_cell_volume 4598.131354
_symmetry_space_group_name_H-M "C M C M"
_symmetry_group_IT_number 63
_symmetry_cell_setting 'orthorhombic'
loop_
_space_group_symop_operation_xyz
x,y,z
-x,-y,1/2+z
x,-y,-z
-x,y,1/2-z
-x,-y,-z
x,y,1/2-z
-x,y,z
x,-y,1/2+z
1/2+x,1/2+y,z
1/2-x,1/2-y,1/2+z
1/2+x,1/2-y,-z
1/2-x,1/2+y,1/2-z
1/2-x,1/2-y,-z
1/2+x,1/2+y,1/2-z
1/2-x,1/2+y,z
1/2+x,1/2-y,1/2+z
loop_
_atom_site_type_symbol
_atom_site_label
_atom_site_fract_x
_atom_site_fract_y
_atom_site_fract_z
Si Si1 0.824003 0.529197 0.076553
Si Si2 0.090785 0.782440 0.916823
Si Si3 0.142926 0.980662 0.580304
Si Si4 0.905656 0.387715 0.330672
Si Si5 0.827823 0.264454 0.551817
Si Si6 0.091270 0.143046 0.834081
O O1 0.734953 0.490517 0.082760
O O2 0.876050 0.482559 0.137807
O O3 0.828063 0.636542 0.085914
O O4 0.860687 0.500000 0.000000
O O5 0.137375 0.874815 0.899865
O O6 0.129746 0.700526 0.871027
O O7 0.000000 0.798851 0.895507
O O8 0.096801 0.753955 0.000341
O O9 0.108396 0.000000 0.500000
O O10 0.094772 0.038956 0.638840
O O11 0.874413 0.382019 0.250000
O O12 0.000000 0.386469 0.336512
O O13 0.750000 0.250000 0.500000
O O14 0.842049 0.197714 0.619556
O O15 0.115155 0.148032 0.750000
O O16 0.000000 0.178204 0.844440
#
# Coordination Sequence:
#
# PCOD8260869 Si02
#       6
#    16  16  16  16  16  16
#     4  11  22  39  65  93 125 163 214 270 325 393
#     4  11  22  38  66  95 124 171 221 268 329 395
#     4  11  22  39  66  97 129 169 218 275 332 399
#     4  10  24  43  61  89 130 170 215 274 330 389
#     4  12  22  42  67  96 134 171 220 274 325 398
#     4  11  26  45  66  99 140 177 220 281 348 407
#
# _framework density 20.878046000000001
#
# number of rings (size 3 to 8) (size 9 to 14) (size 15 to 20)
#    0.000    1.000    5.000    2.000    0.000    4.333 
#    0.000    3.333    0.000    0.000    0.000    0.000 
#    0.000    0.000    0.000    0.000    0.000    0.000 
#
# Total GULP energy -595144.671217 kJ/mol
# GULP energy per Si atom -12398.847317 kJ/mol
# Density = 2.083053 g / cm^3
# Si number density = 20.878046 Si / 1000 Ang^3
#
#
#
# Elastic Constant Matrix: (Units=GPa)
#
#
# Indices 1 2 3 4 5 6 
#
# 1 45.2102 25.3864 39.7285 0.0000 0.0000 0.0000
# 2 25.3864 160.0528 72.6838 0.0000 0.0000 0.0000
# 3 39.7285 72.6838 160.6748 0.0000 0.0000 0.0000
# 4 0.0000 0.0000 0.0000 35.4859 0.0000 0.0000
# 5 0.0000 0.0000 0.0000 0.0000 31.4117 0.0000
# 6 0.0000 0.0000 0.0000 0.0000 0.0000 31.2187
#
#
#
# Elastic Compliance Matrix: (Units=1/GPa)
#
#
# Indices 1 2 3 4 5 6 
#
# 1 0.028609 -0.001668 -0.006319 0.000000 0.000000 0.000000
# 2 -0.001668 0.007961 -0.003189 0.000000 0.000000 0.000000
# 3 -0.006319 -0.003189 0.009229 0.000000 0.000000 0.000000
# 4 0.000000 0.000000 0.000000 0.028180 0.000000 0.000000
# 5 0.000000 0.000000 0.000000 0.000000 0.031835 0.000000
# 6 0.000000 0.000000 0.000000 0.000000 0.000000 0.032032
#
#
# Mechanical properties :
#
#
# Convention : Reuss Voigt Hill
#
# Bulk Modulus (GPa) = 42.65107 71.28168 56.96638
# Shear Modulus (GPa) = 29.75971 34.83252 32.29611
#
# Velocity S-wave (km/s) = 3.77955 4.08901 3.93732
# Velocity P-wave (km/s) = 6.28647 7.51727 6.92925
#
# Compressibility (1/GPa) = 0.02344607
#
# Stress axis : x y z
#
# Youngs Moduli (GPa) = 34.95461 125.61959 108.35777
#
# Poissons Ratio (x) = 0.20953 0.68474
# Poissons Ratio (y) = 0.05830 0.34552
# Poissons Ratio (z) = 0.22089 0.40056
#
# Static dielectric constant tensor:
#      x y z
#    x 3.688580 0.000000 0.000000 
#    y 0.000000 3.839560 0.000000 
#    z 0.000000 0.000000 3.851320 
# 
# 
# High freq. dielectric constant tensor:
#      x y z
#    x 1.813010 0.000000 0.000000 
#    y 0.000000 1.827500 0.000000 
#    z 0.000000 0.000000 1.807140 
# 
# From -- ./inp_files/54204.got.cif
#   From: 2010.03.12/outbox.cif.g09.slc.cpg/sg63_28_cif.got.tgz:54204.got - 2010.04.10 19:34:48.
