data_PCOD8260130
_publ_section_title
;
Structure prediction by ZEFSAII (Michael W. Deem and Ramdas Pophale) SiO2 
 PCOD8260130
Probable space group: C M C M
;
_chemical_formula_sum "Si O2"
_cell_formula_units_Z 96
_cell_length_a 8.713241
_cell_length_b 23.795481
_cell_length_c 25.204072
_cell_angle_alpha 90.000000
_cell_angle_beta 90.000000
_cell_angle_gamma 90.000000
_cell_volume 5225.705440
_symmetry_space_group_name_H-M "C M C M"
_symmetry_group_IT_number 63
_symmetry_cell_setting 'orthorhombic'
loop_
_space_group_symop_operation_xyz
x,y,z
-x,-y,1/2+z
x,-y,-z
-x,y,1/2-z
-x,-y,-z
x,y,1/2-z
-x,y,z
x,-y,1/2+z
1/2+x,1/2+y,z
1/2-x,1/2-y,1/2+z
1/2+x,1/2-y,-z
1/2-x,1/2+y,1/2-z
1/2-x,1/2-y,-z
1/2+x,1/2+y,1/2-z
1/2-x,1/2+y,z
1/2+x,1/2-y,1/2+z
loop_
_atom_site_type_symbol
_atom_site_label
_atom_site_fract_x
_atom_site_fract_y
_atom_site_fract_z
Si Si1 0.818255 0.366947 0.403129
Si Si2 0.819453 0.444851 0.310186
Si Si3 0.681787 0.252196 0.558597
Si Si4 0.181020 0.635634 0.399454
Si Si5 0.817328 0.437184 0.501662
Si Si6 0.678682 0.562942 0.188438
O O1 0.762515 0.393700 0.347430
O O2 0.762419 0.302845 0.408847
O O3 0.749864 0.403295 0.451627
O O4 0.000000 0.369281 0.406284
O O5 0.774785 0.428883 0.250000
O O6 0.736099 0.501475 0.329001
O O7 0.000000 0.455652 0.316248
O O8 0.500000 0.253986 0.553144
O O9 0.750000 0.250000 0.500000
O O10 0.740039 0.304582 0.592214
O O11 0.238815 0.593079 0.444893
O O12 0.230680 0.610970 0.342992
O O13 0.000000 0.644306 0.401529
O O14 0.749340 0.500000 0.500000
O O15 0.000000 0.438855 0.499700
O O16 0.715209 0.573005 0.250000
O O17 0.500000 0.567884 0.175677
#
# Coordination Sequence:
#
# PCOD8260130 Si02
#       6
#    16  16  16  16  16  16
#     4   9  17  31  51  77 108 142 181 222 266 319
#     4   9  17  32  57  84 106 136 180 223 263 316
#     4  11  21  36  55  76 108 149 189 229 276 327
#     4  11  21  35  56  80 106 141 186 229 272 325
#     4   9  16  27  48  76 103 134 172 216 267 320
#     4  10  21  37  56  80 112 146 176 215 273 330
#
# _framework density 18.370725
#
# number of rings (size 3 to 8) (size 9 to 14) (size 15 to 20)
#    0.000    2.167    1.667    2.500    0.000    3.667 
#    0.000    2.500    0.000    5.000    0.000    0.000 
#    0.000    0.000    0.000    0.000    0.000    0.000 
#
# Total GULP energy -595240.740838 kJ/mol
# GULP energy per Si atom -12400.848767 kJ/mol
# Density = 1.832891 g / cm^3
# Si number density = 18.370725 Si / 1000 Ang^3
#
#
#
# Elastic Constant Matrix: (Units=GPa)
#
#
# Indices 1 2 3 4 5 6 
#
# 1 43.9829 35.4525 27.6825 0.0000 0.0000 0.0000
# 2 35.4525 177.5933 79.6531 0.0000 0.0000 0.0000
# 3 27.6825 79.6531 109.2864 0.0000 0.0000 0.0000
# 4 0.0000 0.0000 0.0000 33.5720 0.0000 0.0000
# 5 0.0000 0.0000 0.0000 0.0000 22.6894 0.0000
# 6 0.0000 0.0000 0.0000 0.0000 0.0000 27.7902
#
#
#
# Elastic Compliance Matrix: (Units=1/GPa)
#
#
# Indices 1 2 3 4 5 6 
#
# 1 0.028556 -0.003649 -0.004574 0.000000 0.000000 0.000000
# 2 -0.003649 0.008832 -0.005513 0.000000 0.000000 0.000000
# 3 -0.004574 -0.005513 0.014327 0.000000 0.000000 0.000000
# 4 0.000000 0.000000 0.000000 0.029787 0.000000 0.000000
# 5 0.000000 0.000000 0.000000 0.000000 0.044074 0.000000
# 6 0.000000 0.000000 0.000000 0.000000 0.000000 0.035984
#
#
# Mechanical properties :
#
#
# Convention : Reuss Voigt Hill
#
# Bulk Modulus (GPa) = 41.24799 68.49319 54.87059
# Shear Modulus (GPa) = 25.36640 29.34863 27.35751
#
# Velocity S-wave (km/s) = 3.71995 4.00130 3.86319
# Velocity P-wave (km/s) = 6.39942 7.66238 7.05920
#
# Compressibility (1/GPa) = 0.02424360
#
# Stress axis : x y z
#
# Youngs Moduli (GPa) = 35.01869 113.22631 69.79987
#
# Poissons Ratio (x) = 0.41320 0.31923
# Poissons Ratio (y) = 0.12779 0.38479
# Poissons Ratio (z) = 0.16016 0.62418
#
# Static dielectric constant tensor:
#      x y z
#    x 3.139360 0.000000 0.000000 
#    y 0.000000 3.663190 0.000000 
#    z 0.000000 0.000000 3.502540 
# 
# 
# High freq. dielectric constant tensor:
#      x y z
#    x 1.686680 0.000000 0.000000 
#    y 0.000000 1.717960 0.000000 
#    z 0.000000 0.000000 1.714080 
# 
# From -- ./inp_files/59890.got.cif
#   From: 2010.03.12/outbox.cif.g09.slc.cpg/sg63_30_cif.got.tgz:59890.got - 2010.04.10 19:34:48.
