data_PCOD8260326
_publ_section_title
;
Structure prediction by ZEFSAII (Michael W. Deem and Ramdas Pophale) SiO2 
 PCOD8260326
Probable space group: C M C M
;
_chemical_formula_sum "Si O2"
_cell_formula_units_Z 96
_cell_length_a 8.576594
_cell_length_b 25.098172
_cell_length_c 23.107212
_cell_angle_alpha 90.000000
_cell_angle_beta 90.000000
_cell_angle_gamma 90.000000
_cell_volume 4973.985237
_symmetry_space_group_name_H-M "C M C M"
_symmetry_group_IT_number 63
_symmetry_cell_setting 'orthorhombic'
loop_
_space_group_symop_operation_xyz
x,y,z
-x,-y,1/2+z
x,-y,-z
-x,y,1/2-z
-x,-y,-z
x,y,1/2-z
-x,y,z
x,-y,1/2+z
1/2+x,1/2+y,z
1/2-x,1/2-y,1/2+z
1/2+x,1/2-y,-z
1/2-x,1/2+y,1/2-z
1/2-x,1/2-y,-z
1/2+x,1/2+y,1/2-z
1/2-x,1/2+y,z
1/2+x,1/2-y,1/2+z
loop_
_atom_site_type_symbol
_atom_site_label
_atom_site_fract_x
_atom_site_fract_y
_atom_site_fract_z
Si Si1 0.180962 0.554370 0.816835
Si Si2 0.818948 0.651923 0.113587
Si Si3 0.319915 0.745612 0.183354
Si Si4 0.680592 0.556672 0.315946
Si Si5 0.820122 0.845186 0.371501
Si Si6 0.817460 0.808924 0.499348
O O1 0.228124 0.562516 0.750000
O O2 0.221127 0.494431 0.836320
O O3 0.280433 0.594279 0.855926
O O4 0.000000 0.565263 0.827285
O O5 0.787339 0.708438 0.143903
O O6 0.720146 0.606285 0.144069
O O7 0.000000 0.638029 0.118043
O O8 0.768023 0.655104 0.047021
O O9 0.280524 0.734702 0.250000
O O10 0.500000 0.733282 0.170167
O O11 0.283825 0.806732 0.168346
O O12 0.722702 0.572210 0.250000
O O13 0.500000 0.542376 0.322248
O O14 0.780802 0.836482 0.438530
O O15 0.000000 0.833124 0.358569
O O16 0.750000 0.750000 0.500000
O O17 0.000000 0.806231 0.513076
#
# Coordination Sequence:
#
# PCOD8260326 Si02
#       6
#    16  16  16  16  16  16
#     4  10  21  38  61  89 121 157 195 238 292 352
#     4  12  24  38  59  87 118 155 197 243 295 352
#     4  11  23  37  56  84 118 154 192 240 296 352
#     4  10  21  39  63  89 119 156 196 242 296 351
#     4  11  23  38  59  87 117 153 197 243 294 350
#     4  11  23  40  61  85 116 157 201 245 295 351
#
# _framework density 19.300419000000002
#
# number of rings (size 3 to 8) (size 9 to 14) (size 15 to 20)
#    0.000    1.167    1.667    5.000    0.000    9.333 
#    0.000    0.833    0.000    5.000    0.000    0.000 
#    0.000    0.000    0.000    0.000    0.000    0.000 
#
# Total GULP energy -595583.716332 kJ/mol
# GULP energy per Si atom -12407.994090 kJ/mol
# Density = 1.925649 g / cm^3
# Si number density = 19.300419 Si / 1000 Ang^3
#
#
#
# Elastic Constant Matrix: (Units=GPa)
#
#
# Indices 1 2 3 4 5 6 
#
# 1 69.2183 12.2473 37.7044 0.0000 0.0000 0.0000
# 2 12.2473 98.7723 41.7030 0.0000 0.0000 0.0000
# 3 37.7044 41.7030 89.0665 0.0000 0.0000 0.0000
# 4 0.0000 0.0000 0.0000 26.0645 0.0000 0.0000
# 5 0.0000 0.0000 0.0000 0.0000 29.8805 0.0000
# 6 0.0000 0.0000 0.0000 0.0000 0.0000 38.6527
#
#
#
# Elastic Compliance Matrix: (Units=1/GPa)
#
#
# Indices 1 2 3 4 5 6 
#
# 1 0.018908 0.001290 -0.008608 0.000000 0.000000 0.000000
# 2 0.001290 0.012707 -0.006496 0.000000 0.000000 0.000000
# 3 -0.008608 -0.006496 0.017913 0.000000 0.000000 0.000000
# 4 0.000000 0.000000 0.000000 0.038366 0.000000 0.000000
# 5 0.000000 0.000000 0.000000 0.000000 0.033467 0.000000
# 6 0.000000 0.000000 0.000000 0.000000 0.000000 0.025871
#
#
# Mechanical properties :
#
#
# Convention : Reuss Voigt Hill
#
# Bulk Modulus (GPa) = 45.66223 48.92961 47.29592
# Shear Modulus (GPa) = 27.44835 29.94638 28.69737
#
# Velocity S-wave (km/s) = 3.77525 3.94330 3.86019
# Velocity P-wave (km/s) = 6.53555 6.79260 6.66531
#
# Compressibility (1/GPa) = 0.02189994
#
# Stress axis : x y z
#
# Youngs Moduli (GPa) = 52.88811 78.69708 55.82488
#
# Poissons Ratio (x) = -0.10152 0.48055
# Poissons Ratio (y) = -0.06823 0.36263
# Poissons Ratio (z) = 0.45527 0.51120
#
# Static dielectric constant tensor:
#      x y z
#    x 3.608710 0.000000 0.000000 
#    y 0.000000 3.405270 0.000000 
#    z 0.000000 0.000000 4.012880 
# 
# 
# High freq. dielectric constant tensor:
#      x y z
#    x 1.765560 0.000000 0.000000 
#    y 0.000000 1.750500 0.000000 
#    z 0.000000 0.000000 1.750120 
# 
# From -- ./inp_files/59915.got.cif
#   From: 2010.03.12/outbox.cif.g09.slc.cpg/sg63_30_cif.got.tgz:59915.got - 2010.04.10 19:34:48.
