data_PCOD8260059
_publ_section_title
;
Structure prediction by ZEFSAII (Michael W. Deem and Ramdas Pophale) SiO2 
 PCOD8260059
Probable space group: C M C M
;
_chemical_formula_sum "Si O2"
_cell_formula_units_Z 96
_cell_length_a 14.966829
_cell_length_b 23.870423
_cell_length_c 14.046573
_cell_angle_alpha 90.000000
_cell_angle_beta 90.000000
_cell_angle_gamma 90.000000
_cell_volume 5018.342430
_symmetry_space_group_name_H-M "C M C M"
_symmetry_group_IT_number 63
_symmetry_cell_setting 'orthorhombic'
loop_
_space_group_symop_operation_xyz
x,y,z
-x,-y,1/2+z
x,-y,-z
-x,y,1/2-z
-x,-y,-z
x,y,1/2-z
-x,y,z
x,-y,1/2+z
1/2+x,1/2+y,z
1/2-x,1/2-y,1/2+z
1/2+x,1/2-y,-z
1/2-x,1/2+y,1/2-z
1/2-x,1/2-y,-z
1/2+x,1/2+y,1/2-z
1/2-x,1/2+y,z
1/2+x,1/2-y,1/2+z
loop_
_atom_site_type_symbol
_atom_site_label
_atom_site_fract_x
_atom_site_fract_y
_atom_site_fract_z
Si Si1 0.808831 0.603992 0.138696
Si Si2 0.000000 0.280718 0.004579
Si Si3 0.500000 0.873135 0.643784
Si Si4 0.801543 0.307086 0.020630
Si Si5 0.500000 0.565040 0.138791
Si Si6 0.000000 0.150100 0.971644
Si Si7 0.316713 0.492456 0.639057
Si Si8 0.177632 0.882604 0.363168
O O1 0.785982 0.616128 0.250000
O O2 0.753245 0.552031 0.096039
O O3 0.913232 0.588896 0.122681
O O4 0.787932 0.659224 0.077909
O O5 0.094691 0.298152 0.053948
O O6 0.000000 0.313130 0.905756
O O7 0.000000 0.215308 0.990577
O O8 0.500000 0.851655 0.750000
O O9 0.756760 0.340923 0.107131
O O10 0.750000 0.250000 0.000000
O O11 0.500000 0.583525 0.250000
O O12 0.583877 0.526553 0.112789
O O13 0.500000 0.620523 0.074771
O O14 0.914232 0.135125 0.910706
O O15 0.300749 0.493573 0.750000
O O16 0.299673 0.554653 0.599076
O O17 0.165738 0.881034 0.250000
#
# Coordination Sequence:
#
# PCOD8260059 Si02
#       8
#    16   8   8  16   8   8  16  16
#     4   9  18  34  58  84 112 147 189 241 296 345
#     4  10  22  39  55  83 120 146 195 246 281 344
#     4   8  16  32  56  83 109 143 187 242 300 337
#     4  11  22  39  58  83 118 153 196 248 291 356
#     4  10  21  36  56  86 125 161 192 241 301 355
#     4  12  22  37  61  88 122 155 203 246 290 354
#     4   9  19  36  56  84 119 152 197 242 287 361
#     4  11  24  40  60  87 119 157 197 244 300 351
#
# _framework density 19.129822999999998
#
# number of rings (size 3 to 8) (size 9 to 14) (size 15 to 20)
#    0.000    2.000    1.667    1.750    0.000    6.000 
#    0.000    2.083    0.000    5.000    0.000    0.000 
#    0.000    0.000    0.000    0.000    0.000    0.000 
#
# Total GULP energy -594880.637637 kJ/mol
# GULP energy per Si atom -12393.346617 kJ/mol
# Density = 1.908628 g / cm^3
# Si number density = 19.129823 Si / 1000 Ang^3
#
#
#
# Elastic Constant Matrix: (Units=GPa)
#
#
# Indices 1 2 3 4 5 6 
#
# 1 150.5371 88.6662 43.6119 0.0000 0.0000 0.0000
# 2 88.6662 156.5525 39.0241 0.0000 0.0000 0.0000
# 3 43.6119 39.0241 77.3007 0.0000 0.0000 0.0000
# 4 0.0000 0.0000 0.0000 22.4846 0.0000 0.0000
# 5 0.0000 0.0000 0.0000 0.0000 33.1842 0.0000
# 6 0.0000 0.0000 0.0000 0.0000 0.0000 31.1519
#
#
#
# Elastic Compliance Matrix: (Units=1/GPa)
#
#
# Indices 1 2 3 4 5 6 
#
# 1 0.010698 -0.005210 -0.003406 0.000000 0.000000 0.000000
# 2 -0.005210 0.009845 -0.002030 0.000000 0.000000 0.000000
# 3 -0.003406 -0.002030 0.015883 0.000000 0.000000 0.000000
# 4 0.000000 0.000000 0.000000 0.044475 0.000000 0.000000
# 5 0.000000 0.000000 0.000000 0.000000 0.030135 0.000000
# 6 0.000000 0.000000 0.000000 0.000000 0.000000 0.032101
#
#
# Mechanical properties :
#
#
# Convention : Reuss Voigt Hill
#
# Bulk Modulus (GPa) = 66.07852 80.77720 73.42786
# Shear Modulus (GPa) = 29.50319 31.57002 30.53661
#
# Velocity S-wave (km/s) = 3.93142 4.06680 3.99969
# Velocity P-wave (km/s) = 7.43137 8.02305 7.73287
#
# Compressibility (1/GPa) = 0.01513351
#
# Stress axis : x y z
#
# Youngs Moduli (GPa) = 93.47244 101.57766 62.96105
#
# Poissons Ratio (x) = 0.52925 0.21441
# Poissons Ratio (y) = 0.48702 0.12783
# Poissons Ratio (z) = 0.31832 0.20624
#
# Static dielectric constant tensor:
#      x y z
#    x 3.870440 0.000000 0.000000 
#    y 0.000000 3.750910 0.000000 
#    z 0.000000 0.000000 3.476450 
# 
# 
# High freq. dielectric constant tensor:
#      x y z
#    x 1.758680 0.000000 0.000000 
#    y 0.000000 1.744450 0.000000 
#    z 0.000000 0.000000 1.734930 
# 
# From -- ./inp_files/32029.got.cif
#   From: 2010.03.12/outbox.cif.g09.slc.cpg/sg63_17_cif.got.tgz:32029.got - 2010.04.10 19:34:48.
