data_PCOD8260973
_publ_section_title
;
Structure prediction by ZEFSAII (Michael W. Deem and Ramdas Pophale) SiO2 
 PCOD8260973
Probable space group: C M C M
;
_chemical_formula_sum "Si O2"
_cell_formula_units_Z 96
_cell_length_a 24.226693
_cell_length_b 13.612550
_cell_length_c 17.311658
_cell_angle_alpha 90.000000
_cell_angle_beta 90.000000
_cell_angle_gamma 90.000000
_cell_volume 5709.160965
_symmetry_space_group_name_H-M "C M C M"
_symmetry_group_IT_number 63
_symmetry_cell_setting 'orthorhombic'
loop_
_space_group_symop_operation_xyz
x,y,z
-x,-y,1/2+z
x,-y,-z
-x,y,1/2-z
-x,-y,-z
x,y,1/2-z
-x,y,z
x,-y,1/2+z
1/2+x,1/2+y,z
1/2-x,1/2-y,1/2+z
1/2+x,1/2-y,-z
1/2-x,1/2+y,1/2-z
1/2-x,1/2-y,-z
1/2+x,1/2+y,1/2-z
1/2-x,1/2+y,z
1/2+x,1/2-y,1/2+z
loop_
_atom_site_type_symbol
_atom_site_label
_atom_site_fract_x
_atom_site_fract_y
_atom_site_fract_z
Si Si1 0.226644 0.037585 0.160683
Si Si2 0.265058 0.742238 0.411245
Si Si3 0.939268 0.260303 0.841992
Si Si4 0.834337 0.848111 0.159001
Si Si5 0.332166 0.908815 0.160271
Si Si6 0.938882 0.519259 0.341683
O O1 0.215513 0.063977 0.250000
O O2 0.216597 0.131950 0.107982
O O3 0.183406 0.955680 0.128982
O O4 0.288463 0.996753 0.150000
O O5 0.250000 0.750000 0.500000
O O6 0.211586 0.767638 0.360936
O O7 0.315436 0.814810 0.390499
O O8 0.935635 0.261952 0.750000
O O9 0.893160 0.186142 0.876347
O O10 0.928638 0.370534 0.873457
O O11 0.000000 0.223758 0.868399
O O12 0.837746 0.852802 0.250000
O O13 0.335126 0.877057 0.250000
O O14 0.391268 0.946327 0.127734
O O15 0.935464 0.522482 0.250000
O O16 0.000000 0.482374 0.367920
#
# Coordination Sequence:
#
# PCOD8260973 Si02
#       6
#    16  16  16  16  16  16
#     4   9  17  30  47  65  86 113 145 182 224 267
#     4  11  21  30  43  64  90 121 152 186 222 263
#     4   8  13  23  43  71  96 114 140 183 228 265
#     4   9  17  29  46  67  89 115 147 184 226 269
#     4   9  17  29  46  66  88 116 149 184 223 268
#     4   8  13  22  40  66  91 114 142 180 225 268
#
# _framework density 16.815080999999999
#
# number of rings (size 3 to 8) (size 9 to 14) (size 15 to 20)
#    0.000    3.000    0.000    4.500    0.000    5.333 
#    0.000    0.000    0.000    2.000    0.000    9.333 
#    0.000    0.000    0.000    0.000    0.000    0.000 
#
# Total GULP energy -594917.694289 kJ/mol
# GULP energy per Si atom -12394.118631 kJ/mol
# Density = 1.677681 g / cm^3
# Si number density = 16.815081 Si / 1000 Ang^3
#
#
#
# Elastic Constant Matrix: (Units=GPa)
#
#
# Indices 1 2 3 4 5 6 
#
# 1 152.9928 79.0757 19.5288 0.0000 0.0000 0.0000
# 2 79.0757 121.4900 32.6889 0.0000 0.0000 0.0000
# 3 19.5288 32.6889 27.1147 0.0000 0.0000 0.0000
# 4 0.0000 0.0000 0.0000 7.0088 0.0000 0.0000
# 5 0.0000 0.0000 0.0000 0.0000 7.5358 0.0000
# 6 0.0000 0.0000 0.0000 0.0000 0.0000 30.5921
#
#
#
# Elastic Compliance Matrix: (Units=1/GPa)
#
#
# Indices 1 2 3 4 5 6 
#
# 1 0.009866 -0.006675 0.000941 0.000000 0.000000 0.000000
# 2 -0.006675 0.016699 -0.015325 0.000000 0.000000 0.000000
# 3 0.000941 -0.015325 0.054677 0.000000 0.000000 0.000000
# 4 0.000000 0.000000 0.000000 0.142678 0.000000 0.000000
# 5 0.000000 0.000000 0.000000 0.000000 0.132700 0.000000
# 6 0.000000 0.000000 0.000000 0.000000 0.000000 0.032688
#
#
# Mechanical properties :
#
#
# Convention : Reuss Voigt Hill
#
# Bulk Modulus (GPa) = 25.55831 62.68714 44.12272
# Shear Modulus (GPa) = 11.24945 20.38095 15.81520
#
# Velocity S-wave (km/s) = 2.58933 3.48525 3.07014
# Velocity P-wave (km/s) = 4.91652 7.31828 6.23415
#
# Compressibility (1/GPa) = 0.03912622
#
# Stress axis : x y z
#
# Youngs Moduli (GPa) = 101.35713 59.88361 18.28908
#
# Poissons Ratio (x) = 0.39972 -0.01722
# Poissons Ratio (y) = 0.67655 0.28027
# Poissons Ratio (z) = -0.09541 0.91769
#
# Static dielectric constant tensor:
#      x y z
#    x 3.534340 0.000000 0.000000 
#    y 0.000000 3.114840 0.000000 
#    z 0.000000 0.000000 2.718470 
# 
# 
# High freq. dielectric constant tensor:
#      x y z
#    x 1.646160 0.000000 0.000000 
#    y 0.000000 1.640030 0.000000 
#    z 0.000000 0.000000 1.603420 
# 
# From -- ./inp_files/47979.got.cif
#   From: 2010.03.12/outbox.cif.g09.slc.cpg/sg63_24_cif.got.tgz:47979.got - 2010.04.10 19:34:48.
