data_PCOD8260463
_publ_section_title
;
Structure prediction by ZEFSAII (Michael W. Deem and Ramdas Pophale) SiO2 
 PCOD8260463
Probable space group: C M C M
;
_chemical_formula_sum "Si O2"
_cell_formula_units_Z 104
_cell_length_a 26.007159
_cell_length_b 21.408139
_cell_length_c 8.736049
_cell_angle_alpha 90.000000
_cell_angle_beta 90.000000
_cell_angle_gamma 90.000000
_cell_volume 4863.925228
_symmetry_space_group_name_H-M "C M C M"
_symmetry_group_IT_number 63
_symmetry_cell_setting 'orthorhombic'
loop_
_space_group_symop_operation_xyz
x,y,z
-x,-y,1/2+z
x,-y,-z
-x,y,1/2-z
-x,-y,-z
x,y,1/2-z
-x,y,z
x,-y,1/2+z
1/2+x,1/2+y,z
1/2-x,1/2-y,1/2+z
1/2+x,1/2-y,-z
1/2-x,1/2+y,1/2-z
1/2-x,1/2-y,-z
1/2+x,1/2+y,1/2-z
1/2-x,1/2+y,z
1/2+x,1/2-y,1/2+z
loop_
_atom_site_type_symbol
_atom_site_label
_atom_site_fract_x
_atom_site_fract_y
_atom_site_fract_z
Si Si1 0.787659 0.645489 0.430740
Si Si2 0.442629 0.840891 0.920877
Si Si3 0.643773 0.258803 0.076970
Si Si4 0.875739 0.565429 0.927853
Si Si5 0.000000 0.931305 0.930353
Si Si6 0.294697 0.436236 0.070409
Si Si7 0.610364 0.383507 0.928859
O O1 0.780888 0.642591 0.250000
O O2 0.808361 0.714709 0.478648
O O3 0.827751 0.593208 0.481493
O O4 0.733935 0.626870 0.510435
O O5 0.438821 0.870418 0.750000
O O6 0.500000 0.819657 0.961200
O O7 0.408253 0.779935 0.927893
O O8 0.425258 0.891096 0.046533
O O9 0.654193 0.283491 0.250000
O O10 0.633278 0.315206 0.962627
O O11 0.862051 0.560206 0.750000
O O12 0.890143 0.500000 0.000000
O O13 0.051100 0.893042 0.982828
O O14 0.000000 0.939181 0.750000
O O15 0.000000 0.000000 0.000000
O O16 0.288833 0.439981 0.250000
O O17 0.270727 0.500000 0.000000
O O18 0.354286 0.432576 0.020545
O O19 0.615975 0.397105 0.750000
#
# Coordination Sequence:
#
# PCOD8260463 Si02
#       7
#    16  16  16  16   8  16  16
#     4  10  21  40  63  88 122 161 203 250 302 362
#     4   9  19  36  56  79 111 151 198 253 306 364
#     4   9  20  38  61  90 121 158 204 250 304 364
#     4  11  21  34  53  79 112 152 199 249 305 366
#     4  10  24  44  66  94 126 164 207 256 309 366
#     4  12  25  42  65  94 126 161 206 253 308 369
#     4  11  24  42  64  93 128 164 206 254 309 367
#
# _framework density 21.381907999999999
#
# number of rings (size 3 to 8) (size 9 to 14) (size 15 to 20)
#    0.000    1.692    0.000    5.538    1.077    6.769 
#    0.000    0.000    0.000    0.000    0.000    0.000 
#    0.000    0.000    0.000    0.000    0.000    0.000 
#
# Total GULP energy -644749.882395 kJ/mol
# GULP energy per Si atom -12399.036200 kJ/mol
# Density = 2.133324 g / cm^3
# Si number density = 21.381908 Si / 1000 Ang^3
#
#
#
# Elastic Constant Matrix: (Units=GPa)
#
#
# Indices 1 2 3 4 5 6 
#
# 1 123.4171 31.5329 37.3179 0.0000 0.0000 0.0000
# 2 31.5329 97.3795 38.9967 0.0000 0.0000 0.0000
# 3 37.3179 38.9967 105.6526 0.0000 0.0000 0.0000
# 4 0.0000 0.0000 0.0000 37.5956 0.0000 0.0000
# 5 0.0000 0.0000 0.0000 0.0000 28.3818 0.0000
# 6 0.0000 0.0000 0.0000 0.0000 0.0000 20.1073
#
#
#
# Elastic Compliance Matrix: (Units=1/GPa)
#
#
# Indices 1 2 3 4 5 6 
#
# 1 0.009395 -0.002011 -0.002576 0.000000 0.000000 0.000000
# 2 -0.002011 0.012481 -0.003896 0.000000 0.000000 0.000000
# 3 -0.002576 -0.003896 0.011813 0.000000 0.000000 0.000000
# 4 0.000000 0.000000 0.000000 0.026599 0.000000 0.000000
# 5 0.000000 0.000000 0.000000 0.000000 0.035234 0.000000
# 6 0.000000 0.000000 0.000000 0.000000 0.000000 0.049733
#
#
# Mechanical properties :
#
#
# Convention : Reuss Voigt Hill
#
# Bulk Modulus (GPa) = 59.80095 60.23825 60.01960
# Shear Modulus (GPa) = 29.79810 31.79039 30.79424
#
# Velocity S-wave (km/s) = 3.73716 3.86007 3.79912
# Velocity P-wave (km/s) = 6.83012 6.93546 6.88299
#
# Compressibility (1/GPa) = 0.01672214
#
# Stress axis : x y z
#
# Youngs Moduli (GPa) = 106.43555 80.12479 84.65101
#
# Poissons Ratio (x) = 0.16110 0.21810
# Poissons Ratio (y) = 0.21400 0.32984
# Poissons Ratio (z) = 0.27423 0.31220
#
# Static dielectric constant tensor:
#      x y z
#    x 4.171190 0.000000 0.000000 
#    y 0.000000 3.841170 0.000000 
#    z 0.000000 0.000000 3.856920 
# 
# 
# High freq. dielectric constant tensor:
#      x y z
#    x 1.847800 0.000000 0.000000 
#    y 0.000000 1.838000 0.000000 
#    z 0.000000 0.000000 1.834900 
# 
# From -- ./inp_files/12612.got.cif
#   From: 2010.03.12/outbox.cif.g09.slc.cpg/sg63_7_cif.got.tgz:12612.got - 2010.04.10 19:34:48.
