data_PCOD8260442
_publ_section_title
;
Structure prediction by ZEFSAII (Michael W. Deem and Ramdas Pophale) SiO2 
 PCOD8260442
Probable space group: C M C M
;
_chemical_formula_sum "Si O2"
_cell_formula_units_Z 64
_cell_length_a 7.646634
_cell_length_b 27.103158
_cell_length_c 14.759830
_cell_angle_alpha 90.000000
_cell_angle_beta 90.000000
_cell_angle_gamma 90.000000
_cell_volume 3058.944207
_symmetry_space_group_name_H-M "C M C M"
_symmetry_group_IT_number 63
_symmetry_cell_setting 'orthorhombic'
loop_
_space_group_symop_operation_xyz
x,y,z
-x,-y,1/2+z
x,-y,-z
-x,y,1/2-z
-x,-y,-z
x,y,1/2-z
-x,y,z
x,-y,1/2+z
1/2+x,1/2+y,z
1/2-x,1/2-y,1/2+z
1/2+x,1/2-y,-z
1/2-x,1/2+y,1/2-z
1/2-x,1/2-y,-z
1/2+x,1/2+y,1/2-z
1/2-x,1/2+y,z
1/2+x,1/2-y,1/2+z
loop_
_atom_site_type_symbol
_atom_site_label
_atom_site_fract_x
_atom_site_fract_y
_atom_site_fract_z
Si Si1 0.500000 0.594378 0.640894
Si Si2 0.804289 0.235886 0.399999
Si Si3 0.799687 0.557553 0.983754
Si Si4 0.204572 0.372210 0.852808
Si Si5 0.000000 0.199889 0.844390
O O1 0.500000 0.586575 0.750000
O O2 0.323911 0.570515 0.600662
O O3 0.500000 0.650511 0.595238
O O4 0.750000 0.250000 0.500000
O O5 0.800285 0.177940 0.381217
O O6 0.670112 0.266090 0.340257
O O7 0.000000 0.254829 0.380982
O O8 0.000000 0.571748 0.958829
O O9 0.781112 0.500000 0.000000
O O10 0.740959 0.585120 0.076639
O O11 0.259766 0.387444 0.750000
O O12 0.000000 0.361690 0.857425
O O13 0.000000 0.171186 0.750000
#
# Coordination Sequence:
#
# PCOD8260442 Si02
#       5
#     8  16  16  16   8
#     4  11  25  43  66  94 129 174 222 272 324 389
#     4  12  23  38  61  89 125 172 215 261 319 381
#     4  10  23  44  69  96 130 170 215 273 337 398
#     4  10  21  39  64  96 133 170 216 274 332 394
#     4  11  24  41  59  88 129 164 208 262 308 377
#
# _framework density 20.922249999999998
#
# number of rings (size 3 to 8) (size 9 to 14) (size 15 to 20)
#    0.000    1.250    2.500    2.625    1.750    6.500 
#    0.000    5.000    0.000    0.000    0.000    0.000 
#    0.000    0.000    0.000    0.000    0.000    0.000 
#
# Total GULP energy -396472.262871 kJ/mol
# GULP energy per Si atom -12389.758215 kJ/mol
# Density = 2.087463 g / cm^3
# Si number density = 20.922250 Si / 1000 Ang^3
#
#
#
# Elastic Constant Matrix: (Units=GPa)
#
#
# Indices 1 2 3 4 5 6 
#
# 1 155.9197 58.0991 55.7183 0.0000 0.0000 0.0000
# 2 58.0991 124.9066 47.0399 0.0000 0.0000 0.0000
# 3 55.7183 47.0399 150.7388 0.0000 0.0000 0.0000
# 4 0.0000 0.0000 0.0000 22.7866 0.0000 0.0000
# 5 0.0000 0.0000 0.0000 0.0000 14.0353 0.0000
# 6 0.0000 0.0000 0.0000 0.0000 0.0000 16.9480
#
#
#
# Elastic Compliance Matrix: (Units=1/GPa)
#
#
# Indices 1 2 3 4 5 6 
#
# 1 0.008313 -0.003070 -0.002115 0.000000 0.000000 0.000000
# 2 -0.003070 0.010206 -0.002050 0.000000 0.000000 0.000000
# 3 -0.002115 -0.002050 0.008055 0.000000 0.000000 0.000000
# 4 0.000000 0.000000 0.000000 0.043885 0.000000 0.000000
# 5 0.000000 0.000000 0.000000 0.000000 0.071249 0.000000
# 6 0.000000 0.000000 0.000000 0.000000 0.000000 0.059004
#
#
# Mechanical properties :
#
#
# Convention : Reuss Voigt Hill
#
# Bulk Modulus (GPa) = 82.61359 83.69773 83.15566
# Shear Modulus (GPa) = 22.80828 28.80118 25.80473
#
# Velocity S-wave (km/s) = 3.30532 3.71426 3.51574
# Velocity P-wave (km/s) = 7.35789 7.64757 7.50413
#
# Compressibility (1/GPa) = 0.01210455
#
# Stress axis : x y z
#
# Youngs Moduli (GPa) = 120.28785 97.97942 124.14030
#
# Poissons Ratio (x) = 0.30084 0.26252
# Poissons Ratio (y) = 0.36934 0.25449
# Poissons Ratio (z) = 0.25438 0.20086
#
# Static dielectric constant tensor:
#      x y z
#    x 3.733930 0.000000 0.000000 
#    y 0.000000 4.468530 0.000000 
#    z 0.000000 0.000000 3.875200 
# 
# 
# High freq. dielectric constant tensor:
#      x y z
#    x 1.827190 0.000000 0.000000 
#    y 0.000000 1.822810 0.000000 
#    z 0.000000 0.000000 1.826090 
# 
# From -- ./inp_files/27591.got.cif
#   From: 2010.03.12/outbox.cif.g09.slc.cpg/sg63_14_cif.got.tgz:27591.got - 2010.04.10 19:34:48.
