data_PCOD8260114
_publ_section_title
;
Structure prediction by ZEFSAII (Michael W. Deem and Ramdas Pophale) SiO2 
 PCOD8260114
Probable space group: C M C M
;
_chemical_formula_sum "Si O2"
_cell_formula_units_Z 96
_cell_length_a 8.962896
_cell_length_b 20.020545
_cell_length_c 29.586789
_cell_angle_alpha 90.000000
_cell_angle_beta 90.000000
_cell_angle_gamma 90.000000
_cell_volume 5309.114447
_symmetry_space_group_name_H-M "C M C M"
_symmetry_group_IT_number 63
_symmetry_cell_setting 'orthorhombic'
loop_
_space_group_symop_operation_xyz
x,y,z
-x,-y,1/2+z
x,-y,-z
-x,y,1/2-z
-x,-y,-z
x,y,1/2-z
-x,y,z
x,-y,1/2+z
1/2+x,1/2+y,z
1/2-x,1/2-y,1/2+z
1/2+x,1/2-y,-z
1/2-x,1/2+y,1/2-z
1/2-x,1/2-y,-z
1/2+x,1/2+y,1/2-z
1/2-x,1/2+y,z
1/2+x,1/2-y,1/2+z
loop_
_atom_site_type_symbol
_atom_site_label
_atom_site_fract_x
_atom_site_fract_y
_atom_site_fract_z
Si Si1 0.829062 0.199537 0.532879
Si Si2 0.672002 0.451257 0.696941
Si Si3 0.173084 0.194358 0.864640
Si Si4 0.823366 0.445296 0.367161
Si Si5 0.672479 0.184654 0.197803
Si Si6 0.176585 0.049838 0.960646
O O1 0.750000 0.250000 0.500000
O O2 0.800653 0.220900 0.584590
O O3 0.770461 0.124041 0.525354
O O4 0.000000 0.202920 0.519656
O O5 0.694714 0.462283 0.750000
O O6 0.500000 0.457931 0.682605
O O7 0.770001 0.506515 0.672437
O O8 0.729323 0.378199 0.682609
O O9 0.269550 0.128936 0.854994
O O10 0.226866 0.251827 0.830780
O O11 0.000000 0.175526 0.857175
O O12 0.756123 0.471577 0.414392
O O13 0.000000 0.446386 0.370324
O O14 0.698488 0.202479 0.250000
O O15 0.500000 0.168002 0.187794
O O16 0.000000 0.047945 0.951942
O O17 0.227144 0.000000 0.000000
#
# Coordination Sequence:
#
# PCOD8260114 Si02
#       6
#    16  16  16  16  16  16
#     4   9  18  32  50  72 100 132 167 209 253 302
#     4  10  21  37  56  77 105 142 180 218 263 317
#     4   9  19  36  54  75 106 141 175 213 262 316
#     4  11  22  35  54  80 109 140 177 223 267 310
#     4   9  18  34  56  80 105 133 169 216 266 314
#     4   9  19  37  57  76 102 138 178 218 262 313
#
# _framework density 18.082111000000001
#
# number of rings (size 3 to 8) (size 9 to 14) (size 15 to 20)
#    0.000    2.500    0.000    3.000    0.000    6.667 
#    0.000    5.000    0.000    0.000    0.000    0.000 
#    0.000    0.000    0.000    0.000    0.000    0.000 
#
# Total GULP energy -595303.035132 kJ/mol
# GULP energy per Si atom -12402.146565 kJ/mol
# Density = 1.804096 g / cm^3
# Si number density = 18.082111 Si / 1000 Ang^3
#
#
#
# Elastic Constant Matrix: (Units=GPa)
#
#
# Indices 1 2 3 4 5 6 
#
# 1 77.4430 46.4708 42.6344 0.0000 0.0000 0.0000
# 2 46.4708 102.2124 67.8460 0.0000 0.0000 0.0000
# 3 42.6344 67.8460 83.2922 0.0000 0.0000 0.0000
# 4 0.0000 0.0000 0.0000 42.7091 0.0000 0.0000
# 5 0.0000 0.0000 0.0000 0.0000 28.2794 0.0000
# 6 0.0000 0.0000 0.0000 0.0000 0.0000 32.8915
#
#
#
# Elastic Compliance Matrix: (Units=1/GPa)
#
#
# Indices 1 2 3 4 5 6 
#
# 1 0.018982 -0.004748 -0.005849 0.000000 0.000000 0.000000
# 2 -0.004748 0.022488 -0.015887 0.000000 0.000000 0.000000
# 3 -0.005849 -0.015887 0.027941 0.000000 0.000000 0.000000
# 4 0.000000 0.000000 0.000000 0.023414 0.000000 0.000000
# 5 0.000000 0.000000 0.000000 0.000000 0.035361 0.000000
# 6 0.000000 0.000000 0.000000 0.000000 0.000000 0.030403
#
#
# Mechanical properties :
#
#
# Convention : Reuss Voigt Hill
#
# Bulk Modulus (GPa) = 60.81778 64.09445 62.45612
# Shear Modulus (GPa) = 23.03763 27.84245 25.44004
#
# Velocity S-wave (km/s) = 3.57327 3.92826 3.75496
# Velocity P-wave (km/s) = 7.12261 7.48988 7.30855
#
# Compressibility (1/GPa) = 0.01644256
#
# Stress axis : x y z
#
# Youngs Moduli (GPa) = 52.68285 44.46898 35.79024
#
# Poissons Ratio (x) = 0.21113 0.20933
# Poissons Ratio (y) = 0.25012 0.56860
# Poissons Ratio (z) = 0.30813 0.70648
#
# Static dielectric constant tensor:
#      x y z
#    x 3.296290 0.000000 0.000000 
#    y 0.000000 3.441670 0.000000 
#    z 0.000000 0.000000 3.352300 
# 
# 
# High freq. dielectric constant tensor:
#      x y z
#    x 1.696570 0.000000 0.000000 
#    y 0.000000 1.703770 0.000000 
#    z 0.000000 0.000000 1.701890 
# 
# From -- ./inp_files/66997.got.cif
#   From: 2010.03.12/outbox.cif.g09.slc.cpg/sg63_34_cif.got.tgz:66997.got - 2010.04.10 19:34:48.
