data_PCOD8260327
_publ_section_title
;
Structure prediction by ZEFSAII (Michael W. Deem and Ramdas Pophale) SiO2 
 PCOD8260327
Probable space group: C M C M
;
_chemical_formula_sum "Si O2"
_cell_formula_units_Z 96
_cell_length_a 24.912269
_cell_length_b 23.410024
_cell_length_c 8.720939
_cell_angle_alpha 90.000000
_cell_angle_beta 90.000000
_cell_angle_gamma 90.000000
_cell_volume 5086.023850
_symmetry_space_group_name_H-M "C M C M"
_symmetry_group_IT_number 63
_symmetry_cell_setting 'orthorhombic'
loop_
_space_group_symop_operation_xyz
x,y,z
-x,-y,1/2+z
x,-y,-z
-x,y,1/2-z
-x,-y,-z
x,y,1/2-z
-x,y,z
x,-y,1/2+z
1/2+x,1/2+y,z
1/2-x,1/2-y,1/2+z
1/2+x,1/2-y,-z
1/2-x,1/2+y,1/2-z
1/2-x,1/2-y,-z
1/2+x,1/2+y,1/2-z
1/2-x,1/2+y,z
1/2+x,1/2-y,1/2+z
loop_
_atom_site_type_symbol
_atom_site_label
_atom_site_fract_x
_atom_site_fract_y
_atom_site_fract_z
Si Si1 0.062397 0.560492 0.573053
Si Si2 0.744736 0.438146 0.927691
Si Si3 0.060320 0.059640 0.930756
Si Si4 0.650819 0.132663 0.426827
Si Si5 0.691253 0.246611 0.569797
Si Si6 0.845130 0.859605 0.068548
O O1 0.077004 0.500000 0.500000
O O2 0.080030 0.559376 0.750000
O O3 0.093757 0.609390 0.482362
O O4 0.000000 0.574738 0.554069
O O5 0.728723 0.440868 0.750000
O O6 0.805309 0.416807 0.951342
O O7 0.738072 0.500000 0.000000
O O8 0.706401 0.394030 0.012582
O O9 0.062072 0.052983 0.750000
O O10 0.100315 0.109265 0.985965
O O11 0.000000 0.074270 0.988029
O O12 0.080579 0.000000 0.000000
O O13 0.647689 0.151470 0.250000
O O14 0.664038 0.187082 0.529347
O O15 0.696588 0.253565 0.750000
O O16 0.750000 0.250000 0.500000
O O17 0.654077 0.297061 0.504960
O O18 0.842166 0.853852 0.250000
#
# Coordination Sequence:
#
# PCOD8260327 Si02
#       6
#    16  16  16  16  16  16
#     4  10  21  38  61  89 121 157 197 243 294 348
#     4  11  23  36  54  82 117 150 187 237 291 348
#     4   9  19  36  58  85 116 151 191 235 284 339
#     4  11  23  39  60  86 116 153 197 241 291 349
#     4  12  24  40  61  84 115 154 196 241 291 349
#     4  11  22  37  59  84 114 152 195 239 289 347
#
# _framework density 18.875256
#
# number of rings (size 3 to 8) (size 9 to 14) (size 15 to 20)
#    0.000    1.333    1.667    4.500    0.000    7.000 
#    0.000    0.833    0.000    3.000    0.000    0.000 
#    0.000    0.000    0.000    0.000    0.000    0.000 
#
# Total GULP energy -595478.869465 kJ/mol
# GULP energy per Si atom -12405.809781 kJ/mol
# Density = 1.883230 g / cm^3
# Si number density = 18.875256 Si / 1000 Ang^3
#
#
#
# Elastic Constant Matrix: (Units=GPa)
#
#
# Indices 1 2 3 4 5 6 
#
# 1 87.4195 40.2100 37.4729 0.0000 0.0000 0.0000
# 2 40.2100 98.8261 33.9635 0.0000 0.0000 0.0000
# 3 37.4729 33.9635 98.9082 0.0000 0.0000 0.0000
# 4 0.0000 0.0000 0.0000 37.2813 0.0000 0.0000
# 5 0.0000 0.0000 0.0000 0.0000 26.8795 0.0000
# 6 0.0000 0.0000 0.0000 0.0000 0.0000 21.9011
#
#
#
# Elastic Compliance Matrix: (Units=1/GPa)
#
#
# Indices 1 2 3 4 5 6 
#
# 1 0.015469 -0.004852 -0.004194 0.000000 0.000000 0.000000
# 2 -0.004852 0.012995 -0.002624 0.000000 0.000000 0.000000
# 3 -0.004194 -0.002624 0.012600 0.000000 0.000000 0.000000
# 4 0.000000 0.000000 0.000000 0.026823 0.000000 0.000000
# 5 0.000000 0.000000 0.000000 0.000000 0.037203 0.000000
# 6 0.000000 0.000000 0.000000 0.000000 0.000000 0.045660
#
#
# Mechanical properties :
#
#
# Convention : Reuss Voigt Hill
#
# Bulk Modulus (GPa) = 56.42391 56.49406 56.45898
# Shear Modulus (GPa) = 27.77787 28.77955 28.27871
#
# Velocity S-wave (km/s) = 3.84038 3.90901 3.87484
# Velocity P-wave (km/s) = 7.04433 7.09711 7.07077
#
# Compressibility (1/GPa) = 0.01772298
#
# Stress axis : x y z
#
# Youngs Moduli (GPa) = 64.64529 76.95347 79.36214
#
# Poissons Ratio (x) = 0.37342 0.33288
# Poissons Ratio (y) = 0.31369 0.20823
# Poissons Ratio (z) = 0.27115 0.20191
#
# Static dielectric constant tensor:
#      x y z
#    x 3.580020 0.000000 0.000000 
#    y 0.000000 2.729010 0.000000 
#    z 0.000000 0.000000 3.755380 
# 
# 
# High freq. dielectric constant tensor:
#      x y z
#    x 1.732900 0.000000 0.000000 
#    y 0.000000 1.736110 0.000000 
#    z 0.000000 0.000000 1.748270 
# 
# From -- ./inp_files/12397.got.cif
#   From: 2010.03.12/outbox.cif.g09.slc.cpg/sg63_7_cif.got.tgz:12397.got - 2010.04.10 19:34:48.
