data_PCOD8260354
_publ_section_title
;
Structure prediction by ZEFSAII (Michael W. Deem and Ramdas Pophale) SiO2 
 PCOD8260354
Probable space group: C M C M
;
_chemical_formula_sum "Si O2"
_cell_formula_units_Z 72
_cell_length_a 22.357490
_cell_length_b 18.974642
_cell_length_c 8.742710
_cell_angle_alpha 90.000000
_cell_angle_beta 90.000000
_cell_angle_gamma 90.000000
_cell_volume 3708.879374
_symmetry_space_group_name_H-M "C M C M"
_symmetry_group_IT_number 63
_symmetry_cell_setting 'orthorhombic'
loop_
_space_group_symop_operation_xyz
x,y,z
-x,-y,1/2+z
x,-y,-z
-x,y,1/2-z
-x,-y,-z
x,y,1/2-z
-x,y,z
x,-y,1/2+z
1/2+x,1/2+y,z
1/2-x,1/2-y,1/2+z
1/2+x,1/2-y,-z
1/2-x,1/2+y,1/2-z
1/2-x,1/2-y,-z
1/2+x,1/2+y,1/2-z
1/2-x,1/2+y,z
1/2+x,1/2-y,1/2+z
loop_
_atom_site_type_symbol
_atom_site_label
_atom_site_fract_x
_atom_site_fract_y
_atom_site_fract_z
Si Si1 0.260274 0.325467 0.426178
Si Si2 0.603606 0.320456 0.074391
Si Si3 0.931163 0.323102 0.071153
Si Si4 0.162939 0.423213 0.569560
Si Si5 0.500000 0.423518 0.070637
O O1 0.240230 0.321822 0.250000
O O2 0.250000 0.250000 0.500000
O O3 0.329148 0.348909 0.442101
O O4 0.221629 0.383275 0.512346
O O5 0.589359 0.299461 0.250000
O O6 0.558854 0.381196 0.016320
O O7 0.596098 0.252441 0.969252
O O8 0.922606 0.336694 0.250000
O O9 0.000000 0.325997 0.021448
O O10 0.897153 0.383395 0.979030
O O11 0.161941 0.500000 0.500000
O O12 0.165575 0.428464 0.750000
O O13 0.500000 0.433403 0.250000
O O14 0.500000 0.500000 0.000000
#
# Coordination Sequence:
#
# PCOD8260354 Si02
#       5
#    16  16  16  16   8
#     4  11  22  38  63  96 127 164 211 258 310 371
#     4  10  21  38  63  91 124 165 208 254 308 372
#     4  11  23  39  64  96 126 160 207 259 311 378
#     4  12  26  44  65  91 127 169 208 263 320 373
#     4  10  22  40  60  88 125 164 205 254 308 366
#
# _framework density 19.412873000000001
#
# number of rings (size 3 to 8) (size 9 to 14) (size 15 to 20)
#    0.000    1.111    3.333    3.333    0.000    4.444 
#    0.000    2.222    0.000    0.000    0.000    0.000 
#    0.000    0.000    0.000    0.000    0.000    0.000 
#
# Total GULP energy -446606.846022 kJ/mol
# GULP energy per Si atom -12405.745723 kJ/mol
# Density = 1.936869 g / cm^3
# Si number density = 19.412873 Si / 1000 Ang^3
#
#
#
# Elastic Constant Matrix: (Units=GPa)
#
#
# Indices 1 2 3 4 5 6 
#
# 1 115.1855 40.6936 40.2468 0.0000 0.0000 0.0000
# 2 40.6936 141.3826 48.7281 0.0000 0.0000 0.0000
# 3 40.2468 48.7281 121.0142 0.0000 0.0000 0.0000
# 4 0.0000 0.0000 0.0000 40.0460 0.0000 0.0000
# 5 0.0000 0.0000 0.0000 0.0000 31.9278 0.0000
# 6 0.0000 0.0000 0.0000 0.0000 0.0000 33.0366
#
#
#
# Elastic Compliance Matrix: (Units=1/GPa)
#
#
# Indices 1 2 3 4 5 6 
#
# 1 0.010323 -0.002076 -0.002597 0.000000 0.000000 0.000000
# 2 -0.002076 0.008630 -0.002785 0.000000 0.000000 0.000000
# 3 -0.002597 -0.002785 0.010249 0.000000 0.000000 0.000000
# 4 0.000000 0.000000 0.000000 0.024971 0.000000 0.000000
# 5 0.000000 0.000000 0.000000 0.000000 0.031321 0.000000
# 6 0.000000 0.000000 0.000000 0.000000 0.000000 0.030269
#
#
# Mechanical properties :
#
#
# Convention : Reuss Voigt Hill
#
# Bulk Modulus (GPa) = 69.99978 70.76881 70.38430
# Shear Modulus (GPa) = 36.91666 37.52967 37.22317
#
# Velocity S-wave (km/s) = 4.36553 4.40163 4.38362
# Velocity P-wave (km/s) = 7.84520 7.89723 7.87126
#
# Compressibility (1/GPa) = 0.01428576
#
# Stress axis : x y z
#
# Youngs Moduli (GPa) = 96.87548 115.87112 97.57492
#
# Poissons Ratio (x) = 0.24055 0.25342
# Poissons Ratio (y) = 0.20111 0.27171
# Poissons Ratio (z) = 0.25160 0.32266
#
# Static dielectric constant tensor:
#      x y z
#    x 4.171740 0.000000 0.000000 
#    y 0.000000 3.537240 0.000000 
#    z 0.000000 0.000000 3.651900 
# 
# 
# High freq. dielectric constant tensor:
#      x y z
#    x 1.776410 0.000000 0.000000 
#    y 0.000000 1.751660 0.000000 
#    z 0.000000 0.000000 1.765370 
# 
# From -- ./inp_files/9855.got.cif
#   From: 2010.03.12/outbox.cif.g09.slc.cpg/sg63_5_cif.got.tgz:9855.got - 2010.04.10 19:34:48.
