data_PCOD8260746
_publ_section_title
;
Structure prediction by ZEFSAII (Michael W. Deem and Ramdas Pophale) SiO2 
 PCOD8260746
Probable space group: C M C M
;
_chemical_formula_sum "Si O2"
_cell_formula_units_Z 88
_cell_length_a 15.107145
_cell_length_b 10.924302
_cell_length_c 26.136336
_cell_angle_alpha 90.000000
_cell_angle_beta 90.000000
_cell_angle_gamma 90.000000
_cell_volume 4313.410586
_symmetry_space_group_name_H-M "C M C M"
_symmetry_group_IT_number 63
_symmetry_cell_setting 'orthorhombic'
loop_
_space_group_symop_operation_xyz
x,y,z
-x,-y,1/2+z
x,-y,-z
-x,y,1/2-z
-x,-y,-z
x,y,1/2-z
-x,y,z
x,-y,1/2+z
1/2+x,1/2+y,z
1/2-x,1/2-y,1/2+z
1/2+x,1/2-y,-z
1/2-x,1/2+y,1/2-z
1/2-x,1/2-y,-z
1/2+x,1/2+y,1/2-z
1/2-x,1/2+y,z
1/2+x,1/2-y,1/2+z
loop_
_atom_site_type_symbol
_atom_site_label
_atom_site_fract_x
_atom_site_fract_y
_atom_site_fract_z
Si Si1 0.000000 0.921926 0.692634
Si Si2 0.400046 0.806545 0.620305
Si Si3 0.858203 0.481997 0.191751
Si Si4 0.500000 0.174321 0.648964
Si Si5 0.000000 0.375504 0.467365
Si Si6 0.820796 0.644099 0.487126
Si Si7 0.835665 0.903344 0.191503
O O1 0.000000 0.821338 0.647696
O O2 0.000000 0.865060 0.750000
O O3 0.086538 0.001507 0.684703
O O4 0.500000 0.767312 0.604005
O O5 0.341314 0.848994 0.572718
O O6 0.348549 0.701301 0.650066
O O7 0.408298 0.918344 0.658587
O O8 0.868735 0.521417 0.250000
O O9 0.911003 0.357548 0.180264
O O10 0.755663 0.469246 0.177261
O O11 0.500000 0.109111 0.593592
O O12 0.000000 0.500000 0.500000
O O13 0.091705 0.309937 0.482317
O O14 0.794027 0.500000 0.500000
O O15 0.750000 0.750000 0.500000
O O16 0.832802 0.851528 0.250000
#
# Coordination Sequence:
#
# PCOD8260746 Si02
#       7
#     8  16  16   8   8  16  16
#     4  10  22  42  62  90 139 180 212 264 332 390
#     4  12  24  43  72  95 128 175 228 276 330 399
#     4  11  24  39  63  99 133 172 224 269 318 394
#     4  12  24  39  65  94 130 177 215 272 330 398
#     4  10  22  45  66  94 129 173 220 274 348 398
#     4  11  26  47  71  98 133 172 222 285 348 406
#     4  10  24  42  63  96 139 180 218 268 329 395
#
# _framework density 20.401489000000002
#
# number of rings (size 3 to 8) (size 9 to 14) (size 15 to 20)
#    0.000    1.091    2.727    3.545    7.636    0.727 
#    0.000    0.455    0.000    0.000    0.000    0.000 
#    0.000    0.000    0.000    0.000    0.000    0.000 
#
# Total GULP energy -545387.924080 kJ/mol
# GULP energy per Si atom -12395.180093 kJ/mol
# Density = 2.035505 g / cm^3
# Si number density = 20.401489 Si / 1000 Ang^3
#
#
#
# Elastic Constant Matrix: (Units=GPa)
#
#
# Indices 1 2 3 4 5 6 
#
# 1 151.8529 38.7466 43.9771 0.0000 0.0000 0.0000
# 2 38.7466 85.4014 47.5581 0.0000 0.0000 0.0000
# 3 43.9771 47.5581 115.6907 0.0000 0.0000 0.0000
# 4 0.0000 0.0000 0.0000 22.8911 0.0000 0.0000
# 5 0.0000 0.0000 0.0000 0.0000 30.9561 0.0000
# 6 0.0000 0.0000 0.0000 0.0000 0.0000 27.6442
#
#
#
# Elastic Compliance Matrix: (Units=1/GPa)
#
#
# Indices 1 2 3 4 5 6 
#
# 1 0.007773 -0.002440 -0.001952 0.000000 0.000000 0.000000
# 2 -0.002440 0.015951 -0.005630 0.000000 0.000000 0.000000
# 3 -0.001952 -0.005630 0.011700 0.000000 0.000000 0.000000
# 4 0.000000 0.000000 0.000000 0.043685 0.000000 0.000000
# 5 0.000000 0.000000 0.000000 0.000000 0.032304 0.000000
# 6 0.000000 0.000000 0.000000 0.000000 0.000000 0.036174
#
#
# Mechanical properties :
#
#
# Convention : Reuss Voigt Hill
#
# Bulk Modulus (GPa) = 65.01259 68.16763 66.59011
# Shear Modulus (GPa) = 28.94226 31.14248 30.04237
#
# Velocity S-wave (km/s) = 3.77056 3.91126 3.84156
# Velocity P-wave (km/s) = 7.13386 7.34050 7.23792
#
# Compressibility (1/GPa) = 0.01538164
#
# Stress axis : x y z
#
# Youngs Moduli (GPa) = 128.64885 62.69007 85.46981
#
# Poissons Ratio (x) = 0.15295 0.16682
# Poissons Ratio (y) = 0.31387 0.48119
# Poissons Ratio (z) = 0.25110 0.35294
#
# Static dielectric constant tensor:
#      x y z
#    x 3.993410 0.000000 0.000000 
#    y 0.000000 3.586470 0.000000 
#    z 0.000000 0.000000 3.770280 
# 
# 
# High freq. dielectric constant tensor:
#      x y z
#    x 1.815110 0.000000 0.000000 
#    y 0.000000 1.782240 0.000000 
#    z 0.000000 0.000000 1.804280 
# 
# From -- ./inp_files/62736.got.cif
#   From: 2010.03.12/outbox.cif.g09.slc.cpg/sg63_32_cif.got.tgz:62736.got - 2010.04.10 19:34:48.
