data_PCOD8260617
_publ_section_title
;
Structure prediction by ZEFSAII (Michael W. Deem and Ramdas Pophale) SiO2 
 PCOD8260617
Probable space group: C M C M
;
_chemical_formula_sum "Si O2"
_cell_formula_units_Z 96
_cell_length_a 23.591655
_cell_length_b 11.579557
_cell_length_c 17.000667
_cell_angle_alpha 90.000000
_cell_angle_beta 90.000000
_cell_angle_gamma 90.000000
_cell_volume 4644.257746
_symmetry_space_group_name_H-M "C M C M"
_symmetry_group_IT_number 63
_symmetry_cell_setting 'orthorhombic'
loop_
_space_group_symop_operation_xyz
x,y,z
-x,-y,1/2+z
x,-y,-z
-x,y,1/2-z
-x,-y,-z
x,y,1/2-z
-x,y,z
x,-y,1/2+z
1/2+x,1/2+y,z
1/2-x,1/2-y,1/2+z
1/2+x,1/2-y,-z
1/2-x,1/2+y,1/2-z
1/2-x,1/2-y,-z
1/2+x,1/2+y,1/2-z
1/2-x,1/2+y,z
1/2+x,1/2-y,1/2+z
loop_
_atom_site_type_symbol
_atom_site_label
_atom_site_fract_x
_atom_site_fract_y
_atom_site_fract_z
Si Si1 0.223239 0.492006 0.092646
Si Si2 0.656659 0.225045 0.659503
Si Si3 0.366073 0.146472 0.343385
Si Si4 0.564714 0.365705 0.342229
Si Si5 0.060859 0.439210 0.340354
Si Si6 0.150908 0.969077 0.910860
O O1 0.196348 0.378312 0.130427
O O2 0.197314 0.613100 0.126958
O O3 0.289181 0.476636 0.115136
O O4 0.214635 0.500000 0.000000
O O5 0.672078 0.256888 0.750000
O O6 0.592018 0.182760 0.652892
O O7 0.659610 0.332975 0.601557
O O8 0.363636 0.150937 0.250000
O O9 0.394586 0.263816 0.377069
O O10 0.404195 0.043271 0.379363
O O11 0.558844 0.349282 0.250000
O O12 0.500000 0.364247 0.377557
O O13 0.597768 0.484662 0.360008
O O14 0.053076 0.474283 0.250000
O O15 0.000000 0.428165 0.382408
O O16 0.136385 0.000000 0.000000
#
# Coordination Sequence:
#
# PCOD8260617 Si02
#       6
#    16  16  16  16  16  16
#     4  10  23  39  63  89 124 161 201 253 317 374
#     4  10  22  39  60  90 121 155 206 260 310 368
#     4   9  18  34  60  91 120 155 199 252 306 366
#     4  10  22  40  63  91 123 163 209 255 306 368
#     4   8  14  29  55  84 113 147 190 243 301 356
#     4  11  26  41  61  86 124 170 209 250 309 371
#
# _framework density 20.670686
#
# number of rings (size 3 to 8) (size 9 to 14) (size 15 to 20)
#    0.000    2.333    0.000    2.500    4.667    7.000 
#    0.000    1.667    0.000    2.500    0.000    0.000 
#    0.000    0.000    0.000    0.000    0.000    0.000 
#
# Total GULP energy -594801.958365 kJ/mol
# GULP energy per Si atom -12391.707466 kJ/mol
# Density = 2.062364 g / cm^3
# Si number density = 20.670686 Si / 1000 Ang^3
#
#
#
# Elastic Constant Matrix: (Units=GPa)
#
#
# Indices 1 2 3 4 5 6 
#
# 1 119.7350 26.9132 25.4309 0.0000 0.0000 0.0000
# 2 26.9132 88.0485 14.2803 0.0000 0.0000 0.0000
# 3 25.4309 14.2803 44.0278 0.0000 0.0000 0.0000
# 4 0.0000 0.0000 0.0000 28.4018 0.0000 0.0000
# 5 0.0000 0.0000 0.0000 0.0000 -171.0252 0.0000
# 6 0.0000 0.0000 0.0000 0.0000 0.0000 23.3254
#
#
#
# Elastic Compliance Matrix: (Units=1/GPa)
#
#
# Indices 1 2 3 4 5 6 
#
# 1 0.009914 -0.002218 -0.005007 0.000000 0.000000 0.000000
# 2 -0.002218 0.012484 -0.002768 0.000000 0.000000 0.000000
# 3 -0.005007 -0.002768 0.026503 0.000000 0.000000 0.000000
# 4 0.000000 0.000000 0.000000 0.035209 0.000000 0.000000
# 5 0.000000 0.000000 0.000000 0.000000 -0.005847 0.000000
# 6 0.000000 0.000000 0.000000 0.000000 0.000000 0.042872
#
#
# Mechanical properties :
#
#
# Convention : Reuss Voigt Hill
#
# Bulk Modulus (GPa) = 34.58442 42.78444 38.68443
# Shear Modulus (GPa) = 33.16556 -11.51380 10.82588
#
# Velocity S-wave (km/s) = 4.00993 -2.36267 2.29100
# Velocity P-wave (km/s) = 6.18117 3.64693 5.07479
#
# Compressibility (1/GPa) = 0.02891475
#
# Stress axis : x y z
#
# Youngs Moduli (GPa) = 100.86953 80.10031 37.73201
#
# Poissons Ratio (x) = 0.17768 0.18892
# Poissons Ratio (y) = 0.22375 0.10444
# Poissons Ratio (z) = 0.50504 0.22172
#
# Static dielectric constant tensor:
#      x y z
#    x 4.203800 0.000000 0.000000 
#    y 0.000000 3.701740 0.000000 
#    z 0.000000 0.000000 3.397950 
# 
# 
# High freq. dielectric constant tensor:
#      x y z
#    x 1.822520 0.000000 0.000000 
#    y 0.000000 1.805100 0.000000 
#    z 0.000000 0.000000 1.778170 
# 
# From -- ./inp_files/48062.got.cif
#   From: 2010.03.12/outbox.cif.g09.slc.cpg/sg63_25_cif.got.tgz:48062.got - 2010.04.10 19:34:48.
