data_PCOD8260082
_publ_section_title
;
Structure prediction by ZEFSAII (Michael W. Deem and Ramdas Pophale) SiO2 
 PCOD8260082
Probable space group: C M C M
;
_chemical_formula_sum "Si O2"
_cell_formula_units_Z 96
_cell_length_a 23.206961
_cell_length_b 11.672265
_cell_length_c 16.832260
_cell_angle_alpha 90.000000
_cell_angle_beta 90.000000
_cell_angle_gamma 90.000000
_cell_volume 4559.485535
_symmetry_space_group_name_H-M "C M C M"
_symmetry_group_IT_number 63
_symmetry_cell_setting 'orthorhombic'
loop_
_space_group_symop_operation_xyz
x,y,z
-x,-y,1/2+z
x,-y,-z
-x,y,1/2-z
-x,-y,-z
x,y,1/2-z
-x,y,z
x,-y,1/2+z
1/2+x,1/2+y,z
1/2-x,1/2-y,1/2+z
1/2+x,1/2-y,-z
1/2-x,1/2+y,1/2-z
1/2-x,1/2-y,-z
1/2+x,1/2+y,1/2-z
1/2-x,1/2+y,z
1/2+x,1/2-y,1/2+z
loop_
_atom_site_type_symbol
_atom_site_label
_atom_site_fract_x
_atom_site_fract_y
_atom_site_fract_z
Si Si1 0.770213 0.474446 0.340755
Si Si2 0.933701 0.556406 0.919333
Si Si3 0.855777 0.269526 0.341725
Si Si4 0.434820 0.350111 0.156639
Si Si5 0.628388 0.130288 0.341149
Si Si6 0.651661 0.520484 0.091172
O O1 0.754192 0.504662 0.250000
O O2 0.800524 0.351438 0.345292
O O3 0.812198 0.575219 0.376419
O O4 0.712217 0.459427 0.390621
O O5 0.906098 0.677325 0.895817
O O6 0.921466 0.465690 0.849075
O O7 0.000000 0.581850 0.931051
O O8 0.907483 0.500000 0.000000
O O9 0.875462 0.252671 0.250000
O O10 0.840045 0.150889 0.382988
O O11 0.439912 0.330672 0.250000
O O12 0.500000 0.350699 0.120521
O O13 0.395658 0.247104 0.118315
O O14 0.402166 0.468343 0.139487
O O15 0.640441 0.155516 0.250000
O O16 0.636724 0.500000 0.000000
#
# Coordination Sequence:
#
# PCOD8260082 Si02
#       6
#    16  16  16  16  16  16
#     4   9  20  40  65  91 122 161 211 270 323 382
#     4  10  21  36  61  94 128 163 202 263 330 382
#     4  10  23  43  65  90 124 171 223 267 317 388
#     4  10  22  41  65  91 123 167 218 264 308 377
#     4   9  19  37  64  93 120 161 210 261 317 380
#     4  12  27  41  61  95 132 174 209 263 327 388
#
# _framework density 21.055005999999999
#
# number of rings (size 3 to 8) (size 9 to 14) (size 15 to 20)
#    0.000    2.000    0.000    3.500    4.667    6.333 
#    0.000    0.000    0.000    0.000    0.000    0.000 
#    0.000    0.000    0.000    0.000    0.000    0.000 
#
# Total GULP energy -594992.343511 kJ/mol
# GULP energy per Si atom -12395.673823 kJ/mol
# Density = 2.100708 g / cm^3
# Si number density = 21.055006 Si / 1000 Ang^3
#
#
#
# Elastic Constant Matrix: (Units=GPa)
#
#
# Indices 1 2 3 4 5 6 
#
# 1 117.7193 48.1105 27.2425 0.0000 0.0000 0.0000
# 2 48.1105 109.8950 27.4387 0.0000 0.0000 0.0000
# 3 27.2425 27.4387 55.5180 0.0000 0.0000 0.0000
# 4 0.0000 0.0000 0.0000 31.8954 0.0000 0.0000
# 5 0.0000 0.0000 0.0000 0.0000 24.2789 0.0000
# 6 0.0000 0.0000 0.0000 0.0000 0.0000 27.7320
#
#
#
# Elastic Compliance Matrix: (Units=1/GPa)
#
#
# Indices 1 2 3 4 5 6 
#
# 1 0.010882 -0.003914 -0.003406 0.000000 0.000000 0.000000
# 2 -0.003914 0.011788 -0.003906 0.000000 0.000000 0.000000
# 3 -0.003406 -0.003906 0.021614 0.000000 0.000000 0.000000
# 4 0.000000 0.000000 0.000000 0.031352 0.000000 0.000000
# 5 0.000000 0.000000 0.000000 0.000000 0.041188 0.000000
# 6 0.000000 0.000000 0.000000 0.000000 0.000000 0.036059
#
#
# Mechanical properties :
#
#
# Convention : Reuss Voigt Hill
#
# Bulk Modulus (GPa) = 45.79996 54.30174 50.05085
# Shear Modulus (GPa) = 27.38040 28.80395 28.09218
#
# Velocity S-wave (km/s) = 3.61005 3.70271 3.65667
# Velocity P-wave (km/s) = 6.25910 6.64277 6.45379
#
# Compressibility (1/GPa) = 0.02183408
#
# Stress axis : x y z
#
# Youngs Moduli (GPa) = 91.89087 84.83073 46.26724
#
# Poissons Ratio (x) = 0.33202 0.15757
# Poissons Ratio (y) = 0.35965 0.18070
# Poissons Ratio (z) = 0.31295 0.33131
#
# Static dielectric constant tensor:
#      x y z
#    x 3.833380 0.000000 0.000000 
#    y 0.000000 3.832160 0.000000 
#    z 0.000000 0.000000 3.731530 
# 
# 
# High freq. dielectric constant tensor:
#      x y z
#    x 1.824170 0.000000 0.000000 
#    y 0.000000 1.826130 0.000000 
#    z 0.000000 0.000000 1.807240 
# 
# From -- ./inp_files/47967.got.cif
#   From: 2010.03.12/outbox.cif.g09.slc.cpg/sg63_24_cif.got.tgz:47967.got - 2010.04.10 19:34:48.
