data_PCOD8260453
_publ_section_title
;
Structure prediction by ZEFSAII (Michael W. Deem and Ramdas Pophale) SiO2 
 PCOD8260453
Probable space group: C M C M
;
_chemical_formula_sum "Si O2"
_cell_formula_units_Z 96
_cell_length_a 14.398869
_cell_length_b 20.107484
_cell_length_c 15.986207
_cell_angle_alpha 90.000000
_cell_angle_beta 90.000000
_cell_angle_gamma 90.000000
_cell_volume 4628.407030
_symmetry_space_group_name_H-M "C M C M"
_symmetry_group_IT_number 63
_symmetry_cell_setting 'orthorhombic'
loop_
_space_group_symop_operation_xyz
x,y,z
-x,-y,1/2+z
x,-y,-z
-x,y,1/2-z
-x,-y,-z
x,y,1/2-z
-x,y,z
x,-y,1/2+z
1/2+x,1/2+y,z
1/2-x,1/2-y,1/2+z
1/2+x,1/2-y,-z
1/2-x,1/2+y,1/2-z
1/2-x,1/2-y,-z
1/2+x,1/2+y,1/2-z
1/2-x,1/2+y,z
1/2+x,1/2-y,1/2+z
loop_
_atom_site_type_symbol
_atom_site_label
_atom_site_fract_x
_atom_site_fract_y
_atom_site_fract_z
Si Si1 0.683742 0.583038 0.344194
Si Si2 0.000000 0.936424 0.556134
Si Si3 0.311004 0.026636 0.593404
Si Si4 0.500000 0.088587 0.848030
Si Si5 0.694296 0.352178 0.348047
Si Si6 0.500000 0.676966 0.574579
Si Si7 0.500000 0.772491 0.436859
Si Si8 0.181770 0.770206 0.652867
O O1 0.649648 0.585249 0.250000
O O2 0.593960 0.557828 0.392180
O O3 0.769812 0.533664 0.353499
O O4 0.719637 0.656535 0.370351
O O5 0.000000 0.867912 0.507224
O O6 0.000000 0.000000 0.500000
O O7 0.409058 0.045186 0.634543
O O8 0.239664 0.088850 0.596990
O O9 0.324563 0.000000 0.500000
O O10 0.500000 0.112045 0.750000
O O11 0.500000 0.149348 0.914342
O O12 0.707325 0.368880 0.250000
O O13 0.587045 0.341025 0.367788
O O14 0.743284 0.283899 0.375046
O O15 0.500000 0.753165 0.536978
O O16 0.588827 0.738448 0.397963
O O17 0.158346 0.761526 0.750000
#
# Coordination Sequence:
#
# PCOD8260453 Si02
#       8
#    16   8  16   8  16   8   8  16
#     4  11  22  40  65  95 128 171 220 277 344 406
#     4  12  23  39  56  87 128 169 208 269 328 408
#     4  12  26  43  68  99 137 174 229 288 342 400
#     4  12  25  47  73 101 138 186 238 278 336 421
#     4  11  24  45  69  94 133 186 234 276 339 426
#     4  12  25  39  60 100 134 169 214 279 347 395
#     4  12  22  39  69 102 134 168 226 290 343 386
#     4  10  21  39  67  96 127 170 228 280 334 402
#
# _framework density 20.741478000000001
#
# number of rings (size 3 to 8) (size 9 to 14) (size 15 to 20)
#    0.000    0.667    3.333    5.500    0.000    3.333 
#    0.000    3.333    0.000    2.000    0.000    0.000 
#    0.000    0.000    0.000    0.000    0.000    0.000 
#
# Total GULP energy -595204.598608 kJ/mol
# GULP energy per Si atom -12400.095804 kJ/mol
# Density = 2.069427 g / cm^3
# Si number density = 20.741478 Si / 1000 Ang^3
#
#
#
# Elastic Constant Matrix: (Units=GPa)
#
#
# Indices 1 2 3 4 5 6 
#
# 1 128.7287 62.3576 38.1636 0.0000 0.0000 0.0000
# 2 62.3576 148.2763 48.3469 0.0000 0.0000 0.0000
# 3 38.1636 48.3469 57.9838 0.0000 0.0000 0.0000
# 4 0.0000 0.0000 0.0000 36.9509 0.0000 0.0000
# 5 0.0000 0.0000 0.0000 0.0000 30.3051 0.0000
# 6 0.0000 0.0000 0.0000 0.0000 0.0000 37.9357
#
#
#
# Elastic Compliance Matrix: (Units=1/GPa)
#
#
# Indices 1 2 3 4 5 6 
#
# 1 0.010529 -0.002978 -0.004447 0.000000 0.000000 0.000000
# 2 -0.002978 0.010105 -0.006465 0.000000 0.000000 0.000000
# 3 -0.004447 -0.006465 0.025564 0.000000 0.000000 0.000000
# 4 0.000000 0.000000 0.000000 0.027063 0.000000 0.000000
# 5 0.000000 0.000000 0.000000 0.000000 0.032998 0.000000
# 6 0.000000 0.000000 0.000000 0.000000 0.000000 0.026360
#
#
# Mechanical properties :
#
#
# Convention : Reuss Voigt Hill
#
# Bulk Modulus (GPa) = 54.29705 70.30278 62.29992
# Shear Modulus (GPa) = 30.02316 33.44641 31.73478
#
# Velocity S-wave (km/s) = 3.80872 4.02000 3.91578
# Velocity P-wave (km/s) = 6.75105 7.45087 7.10958
#
# Compressibility (1/GPa) = 0.01841721
#
# Stress axis : x y z
#
# Youngs Moduli (GPa) = 94.97332 98.96462 39.11794
#
# Poissons Ratio (x) = 0.29473 0.17396
# Poissons Ratio (y) = 0.28284 0.25290
# Poissons Ratio (z) = 0.42234 0.63982
#
# Static dielectric constant tensor:
#      x y z
#    x 3.814330 0.000000 0.000000 
#    y 0.000000 3.996820 0.000000 
#    z 0.000000 0.000000 3.771980 
# 
# 
# High freq. dielectric constant tensor:
#      x y z
#    x 1.816520 0.000000 0.000000 
#    y 0.000000 1.826540 0.000000 
#    z 0.000000 0.000000 1.812470 
# 
# From -- ./inp_files/32022.got.cif
#   From: 2010.03.12/outbox.cif.g09.slc.cpg/sg63_17_cif.got.tgz:32022.got - 2010.04.10 19:34:48.
