data_PCOD8260009
_publ_section_title
;
Structure prediction by ZEFSAII (Michael W. Deem and Ramdas Pophale) SiO2 
 PCOD8260009
Probable space group: C M C M
;
_chemical_formula_sum "Si O2"
_cell_formula_units_Z 88
_cell_length_a 32.245539
_cell_length_b 12.797223
_cell_length_c 10.450570
_cell_angle_alpha 90.000000
_cell_angle_beta 90.000000
_cell_angle_gamma 90.000000
_cell_volume 4312.462755
_symmetry_space_group_name_H-M "C M C M"
_symmetry_group_IT_number 63
_symmetry_cell_setting 'orthorhombic'
loop_
_space_group_symop_operation_xyz
x,y,z
-x,-y,1/2+z
x,-y,-z
-x,y,1/2-z
-x,-y,-z
x,y,1/2-z
-x,y,z
x,-y,1/2+z
1/2+x,1/2+y,z
1/2-x,1/2-y,1/2+z
1/2+x,1/2-y,-z
1/2-x,1/2+y,1/2-z
1/2-x,1/2-y,-z
1/2+x,1/2+y,1/2-z
1/2-x,1/2+y,z
1/2+x,1/2-y,1/2+z
loop_
_atom_site_type_symbol
_atom_site_label
_atom_site_fract_x
_atom_site_fract_y
_atom_site_fract_z
Si Si1 0.242101 0.421722 0.393567
Si Si2 0.586241 0.086638 0.604324
Si Si3 0.399414 0.500000 0.500000
Si Si4 0.164229 0.136383 0.890556
Si Si5 0.546748 0.690744 0.400071
Si Si6 0.164436 0.707290 0.890834
O O1 0.225010 0.500000 0.500000
O O2 0.238416 0.469493 0.250000
O O3 0.289276 0.395973 0.425759
O O4 0.212944 0.320018 0.405142
O O5 0.573100 0.053146 0.750000
O O6 0.564972 0.195897 0.564703
O O7 0.635998 0.103405 0.599202
O O8 0.572690 0.000000 0.500000
O O9 0.367653 0.461134 0.388748
O O10 0.427632 0.403143 0.538666
O O11 0.163550 0.189228 0.750000
O O12 0.149063 0.214980 0.999767
O O13 0.547667 0.673635 0.250000
O O14 0.500000 0.685363 0.453785
O O15 0.156877 0.758795 0.750000
#
# Coordination Sequence:
#
# PCOD8260009 Si02
#       6
#    16  16   8  16  16  16
#     4  10  21  36  54  83 119 161 208 256 305 359
#     4  10  21  39  63  92 123 164 206 251 307 368
#     4  12  21  40  64  90 126 162 206 254 311 372
#     4  11  23  36  57  88 121 160 207 254 305 365
#     4  10  22  41  65  92 123 161 204 254 317 382
#     4  10  21  38  59  83 119 164 208 253 309 361
#
# _framework density 20.405972999999999
#
# number of rings (size 3 to 8) (size 9 to 14) (size 15 to 20)
#    0.000    1.636    2.727    1.909    0.000    3.273 
#    0.000    0.000    0.000    2.182    0.000    0.000 
#    0.000    0.000    0.000    0.000    0.000    0.000 
#
# Total GULP energy -545325.100959 kJ/mol
# GULP energy per Si atom -12393.752295 kJ/mol
# Density = 2.035953 g / cm^3
# Si number density = 20.405973 Si / 1000 Ang^3
#
#
#
# Elastic Constant Matrix: (Units=GPa)
#
#
# Indices 1 2 3 4 5 6 
#
# 1 133.6768 50.0965 25.2936 0.0000 0.0000 0.0000
# 2 50.0965 114.6743 72.0967 0.0000 0.0000 0.0000
# 3 25.2936 72.0967 127.6780 0.0000 0.0000 0.0000
# 4 0.0000 0.0000 0.0000 35.0424 0.0000 0.0000
# 5 0.0000 0.0000 0.0000 0.0000 19.9261 0.0000
# 6 0.0000 0.0000 0.0000 0.0000 0.0000 22.4242
#
#
#
# Elastic Compliance Matrix: (Units=1/GPa)
#
#
# Indices 1 2 3 4 5 6 
#
# 1 0.008983 -0.004350 0.000677 0.000000 0.000000 0.000000
# 2 -0.004350 0.015626 -0.007962 0.000000 0.000000 0.000000
# 3 0.000677 -0.007962 0.012194 0.000000 0.000000 0.000000
# 4 0.000000 0.000000 0.000000 0.028537 0.000000 0.000000
# 5 0.000000 0.000000 0.000000 0.000000 0.050185 0.000000
# 6 0.000000 0.000000 0.000000 0.000000 0.000000 0.044595
#
#
# Mechanical properties :
#
#
# Convention : Reuss Voigt Hill
#
# Bulk Modulus (GPa) = 73.89336 74.55587 74.22461
# Shear Modulus (GPa) = 26.60965 30.71468 28.66216
#
# Velocity S-wave (km/s) = 3.61503 3.88387 3.75186
# Velocity P-wave (km/s) = 7.32904 7.53182 7.43112
#
# Compressibility (1/GPa) = 0.01353302
#
# Stress axis : x y z
#
# Youngs Moduli (GPa) = 111.32447 63.99428 82.00600
#
# Poissons Ratio (x) = 0.27835 -0.05548
# Poissons Ratio (y) = 0.48421 0.65295
# Poissons Ratio (z) = -0.07532 0.50953
#
# Static dielectric constant tensor:
#      x y z
#    x 3.913120 0.000000 0.000000 
#    y 0.000000 3.444960 0.000000 
#    z 0.000000 0.000000 3.802870 
# 
# 
# High freq. dielectric constant tensor:
#      x y z
#    x 1.811280 0.000000 0.000000 
#    y 0.000000 1.773130 0.000000 
#    z 0.000000 0.000000 1.796300 
# 
# From -- ./inp_files/25751.got.cif
#   From: 2010.03.12/outbox.cif.g09.slc.cpg/sg63_13_cif.got.tgz:25751.got - 2010.04.10 19:34:48.
