data_PCOD8260646
_publ_section_title
;
Structure prediction by ZEFSAII (Michael W. Deem and Ramdas Pophale) SiO2 
 PCOD8260646
Probable space group: C M C M
;
_chemical_formula_sum "Si O2"
_cell_formula_units_Z 112
_cell_length_a 15.148586
_cell_length_b 24.426870
_cell_length_c 14.244407
_cell_angle_alpha 90.000000
_cell_angle_beta 90.000000
_cell_angle_gamma 90.000000
_cell_volume 5270.894116
_symmetry_space_group_name_H-M "C M C M"
_symmetry_group_IT_number 63
_symmetry_cell_setting 'orthorhombic'
loop_
_space_group_symop_operation_xyz
x,y,z
-x,-y,1/2+z
x,-y,-z
-x,y,1/2-z
-x,-y,-z
x,y,1/2-z
-x,y,z
x,-y,1/2+z
1/2+x,1/2+y,z
1/2-x,1/2-y,1/2+z
1/2+x,1/2-y,-z
1/2-x,1/2+y,1/2-z
1/2-x,1/2-y,-z
1/2+x,1/2+y,1/2-z
1/2-x,1/2+y,z
1/2+x,1/2-y,1/2+z
loop_
_atom_site_type_symbol
_atom_site_label
_atom_site_fract_x
_atom_site_fract_y
_atom_site_fract_z
Si Si1 0.102346 0.870626 0.861316
Si Si2 0.729207 0.465948 0.858512
Si Si3 0.243722 0.913495 0.138805
Si Si4 0.651094 0.264825 0.524259
Si Si5 0.401883 0.327789 0.145157
Si Si6 0.902117 0.351452 0.453850
Si Si7 0.598989 0.099382 0.145833
O O1 0.112752 0.865163 0.750000
O O2 0.159702 0.921957 0.901229
O O3 0.142362 0.815701 0.905608
O O4 0.000000 0.878431 0.890665
O O5 0.704584 0.471490 0.750000
O O6 0.722027 0.526503 0.904606
O O7 0.830415 0.448128 0.873389
O O8 0.254095 0.916749 0.250000
O O9 0.163949 0.874405 0.108060
O O10 0.334764 0.891004 0.098180
O O11 0.750000 0.250000 0.500000
O O12 0.602148 0.277065 0.425903
O O13 0.608596 0.212034 0.574523
O O14 0.375729 0.307931 0.250000
O O15 0.500000 0.352944 0.145211
O O16 0.888339 0.354294 0.566825
O O17 0.000000 0.370984 0.424748
O O18 0.614997 0.125109 0.250000
O O19 0.500000 0.074099 0.139683
#
# Coordination Sequence:
#
# PCOD8260646 Si02
#       7
#    16  16  16  16  16  16  16
#     4  10  22  40  63  94 128 163 207 258 313 370
#     4   9  19  37  61  86 117 159 205 254 307 365
#     4  10  22  40  60  88 123 160 205 253 308 373
#     4  12  23  40  64  88 125 168 203 256 306 367
#     4  10  22  41  63  87 119 160 205 252 303 359
#     4  11  23  38  59  90 125 164 206 251 310 374
#     4   9  19  37  59  85 118 156 204 260 311 361
#
# _framework density 21.248767000000001
#
# number of rings (size 3 to 8) (size 9 to 14) (size 15 to 20)
#    0.000    1.857    1.429    2.143    0.000    3.714 
#    0.000    7.143    0.000    1.714    0.000    0.000 
#    0.000    0.000    0.000    0.000    0.000    0.000 
#
# Total GULP energy -694243.138959 kJ/mol
# GULP energy per Si atom -12397.198910 kJ/mol
# Density = 2.120040 g / cm^3
# Si number density = 21.248767 Si / 1000 Ang^3
#
#
#
# Elastic Constant Matrix: (Units=GPa)
#
#
# Indices 1 2 3 4 5 6 
#
# 1 151.9691 56.2547 21.4461 0.0000 0.0000 0.0000
# 2 56.2547 143.1613 29.2338 0.0000 0.0000 0.0000
# 3 21.4461 29.2338 39.1207 0.0000 0.0000 0.0000
# 4 0.0000 0.0000 0.0000 31.1418 0.0000 0.0000
# 5 0.0000 0.0000 0.0000 0.0000 27.7236 0.0000
# 6 0.0000 0.0000 0.0000 0.0000 0.0000 19.1275
#
#
#
# Elastic Compliance Matrix: (Units=1/GPa)
#
#
# Indices 1 2 3 4 5 6 
#
# 1 0.007882 -0.002614 -0.002368 0.000000 0.000000 0.000000
# 2 -0.002614 0.009110 -0.005375 0.000000 0.000000 0.000000
# 3 -0.002368 -0.005375 0.030876 0.000000 0.000000 0.000000
# 4 0.000000 0.000000 0.000000 0.032111 0.000000 0.000000
# 5 0.000000 0.000000 0.000000 0.000000 0.036070 0.000000
# 6 0.000000 0.000000 0.000000 0.000000 0.000000 0.052281
#
#
# Mechanical properties :
#
#
# Convention : Reuss Voigt Hill
#
# Bulk Modulus (GPa) = 36.82463 60.90227 48.86345
# Shear Modulus (GPa) = 25.24053 30.75300 27.99677
#
# Velocity S-wave (km/s) = 3.45027 3.80845 3.63377
# Velocity P-wave (km/s) = 5.76545 6.93273 6.37586
#
# Compressibility (1/GPa) = 0.02715574
#
# Stress axis : x y z
#
# Youngs Moduli (GPa) = 126.87231 109.77366 32.38745
#
# Poissons Ratio (x) = 0.28691 0.07669
# Poissons Ratio (y) = 0.33160 0.17407
# Poissons Ratio (z) = 0.30041 0.58998
#
# Static dielectric constant tensor:
#      x y z
#    x 4.043510 0.000000 0.000000 
#    y 0.000000 3.939010 0.000000 
#    z 0.000000 0.000000 3.897230 
# 
# 
# High freq. dielectric constant tensor:
#      x y z
#    x 1.846940 0.000000 0.000000 
#    y 0.000000 1.819240 0.000000 
#    z 0.000000 0.000000 1.834760 
# 
# From -- ./inp_files/32357.got.cif
#   From: 2010.03.12/outbox.cif.g09.slc.cpg/sg63_17_cif.got.tgz:32357.got - 2010.04.10 19:34:48.
