data_PCOD8260316
_publ_section_title
;
Structure prediction by ZEFSAII (Michael W. Deem and Ramdas Pophale) SiO2 
 PCOD8260316
Probable space group: C M C M
;
_chemical_formula_sum "Si O2"
_cell_formula_units_Z 96
_cell_length_a 23.418873
_cell_length_b 11.613286
_cell_length_c 17.788115
_cell_angle_alpha 90.000000
_cell_angle_beta 90.000000
_cell_angle_gamma 90.000000
_cell_volume 4837.834881
_symmetry_space_group_name_H-M "C M C M"
_symmetry_group_IT_number 63
_symmetry_cell_setting 'orthorhombic'
loop_
_space_group_symop_operation_xyz
x,y,z
-x,-y,1/2+z
x,-y,-z
-x,y,1/2-z
-x,-y,-z
x,y,1/2-z
-x,y,z
x,-y,1/2+z
1/2+x,1/2+y,z
1/2-x,1/2-y,1/2+z
1/2+x,1/2-y,-z
1/2-x,1/2+y,1/2-z
1/2-x,1/2-y,-z
1/2+x,1/2+y,1/2-z
1/2-x,1/2+y,z
1/2+x,1/2-y,1/2+z
loop_
_atom_site_type_symbol
_atom_site_label
_atom_site_fract_x
_atom_site_fract_y
_atom_site_fract_z
Si Si1 0.234232 0.467519 0.162754
Si Si2 0.656154 0.252135 0.664519
Si Si3 0.366959 0.122401 0.339273
Si Si4 0.566613 0.347685 0.339331
Si Si5 0.061414 0.414461 0.338034
Si Si6 0.152209 0.988244 0.912234
O O1 0.251370 0.477283 0.250000
O O2 0.198190 0.353085 0.147766
O O3 0.198291 0.584004 0.139110
O O4 0.290802 0.446439 0.114201
O O5 0.664102 0.296109 0.750000
O O6 0.592649 0.206243 0.649319
O O7 0.664761 0.356177 0.607996
O O8 0.370737 0.122976 0.250000
O O9 0.392250 0.243541 0.369585
O O10 0.406640 0.023060 0.374702
O O11 0.568121 0.354020 0.250000
O O12 0.500000 0.334562 0.365724
O O13 0.595017 0.463578 0.372131
O O14 0.056571 0.439928 0.250000
O O15 0.000000 0.403709 0.376753
O O16 0.143162 0.000000 0.000000
#
# Coordination Sequence:
#
# PCOD8260316 Si02
#       6
#    16  16  16  16  16  16
#     4   9  19  37  61  86 112 143 188 243 293 341
#     4   9  19  36  57  82 109 143 192 240 285 339
#     4   8  15  30  56  89 115 139 175 233 294 337
#     4  10  21  38  61  87 114 149 196 241 284 341
#     4   8  13  25  51  85 113 135 170 229 292 338
#     4  12  26  39  54  81 117 161 193 231 285 351
#
# _framework density 19.843588
#
# number of rings (size 3 to 8) (size 9 to 14) (size 15 to 20)
#    0.000    2.667    0.000    4.000    2.333    3.667 
#    0.000    1.667    0.000    0.000    0.000    3.500 
#    0.000    0.000    0.000    0.000    0.000    0.000 
#
# Total GULP energy -594707.524436 kJ/mol
# GULP energy per Si atom -12389.740092 kJ/mol
# Density = 1.979842 g / cm^3
# Si number density = 19.843588 Si / 1000 Ang^3
#
#
#
# Elastic Constant Matrix: (Units=GPa)
#
#
# Indices 1 2 3 4 5 6 
#
# 1 114.9571 33.9635 31.9909 0.0000 0.0000 0.0000
# 2 33.9635 85.3488 23.9122 0.0000 0.0000 0.0000
# 3 31.9909 23.9122 41.6912 0.0000 0.0000 0.0000
# 4 0.0000 0.0000 0.0000 6.9587 0.0000 0.0000
# 5 0.0000 0.0000 0.0000 0.0000 68.0167 0.0000
# 6 0.0000 0.0000 0.0000 0.0000 0.0000 19.2677
#
#
#
# Elastic Compliance Matrix: (Units=1/GPa)
#
#
# Indices 1 2 3 4 5 6 
#
# 1 0.011493 -0.002505 -0.007382 0.000000 0.000000 0.000000
# 2 -0.002505 0.014506 -0.006398 0.000000 0.000000 0.000000
# 3 -0.007382 -0.006398 0.033320 0.000000 0.000000 0.000000
# 4 0.000000 0.000000 0.000000 0.143705 0.000000 0.000000
# 5 0.000000 0.000000 0.000000 0.000000 0.014702 0.000000
# 6 0.000000 0.000000 0.000000 0.000000 0.000000 0.051900
#
#
# Mechanical properties :
#
#
# Convention : Reuss Voigt Hill
#
# Bulk Modulus (GPa) = 37.38469 46.85891 42.12180
# Shear Modulus (GPa) = 16.07130 28.99065 22.53098
#
# Velocity S-wave (km/s) = 2.84896 3.82639 3.37327
# Velocity P-wave (km/s) = 5.45002 6.57169 6.03696
#
# Compressibility (1/GPa) = 0.02674892
#
# Stress axis : x y z
#
# Youngs Moduli (GPa) = 87.00574 68.93696 30.01207
#
# Poissons Ratio (x) = 0.17271 0.22156
# Poissons Ratio (y) = 0.21798 0.19200
# Poissons Ratio (z) = 0.64230 0.44103
#
# Static dielectric constant tensor:
#      x y z
#    x 4.454230 0.000000 0.000000 
#    y 0.000000 3.700340 0.000000 
#    z 0.000000 0.000000 3.039150 
# 
# 
# High freq. dielectric constant tensor:
#      x y z
#    x 1.788640 0.000000 0.000000 
#    y 0.000000 1.777010 0.000000 
#    z 0.000000 0.000000 1.710090 
# 
# From -- ./inp_files/47992.got.cif
#   From: 2010.03.12/outbox.cif.g09.slc.cpg/sg63_24_cif.got.tgz:47992.got - 2010.04.10 19:34:48.
