data_PCOD8260459
_publ_section_title
;
Structure prediction by ZEFSAII (Michael W. Deem and Ramdas Pophale) SiO2 
 PCOD8260459
Probable space group: C M C M
;
_chemical_formula_sum "Si O2"
_cell_formula_units_Z 60
_cell_length_a 25.457072
_cell_length_b 20.845409
_cell_length_c 5.261278
_cell_angle_alpha 90.000000
_cell_angle_beta 90.000000
_cell_angle_gamma 90.000000
_cell_volume 2791.965977
_symmetry_space_group_name_H-M "C M C M"
_symmetry_group_IT_number 63
_symmetry_cell_setting 'orthorhombic'
loop_
_space_group_symop_operation_xyz
x,y,z
-x,-y,1/2+z
x,-y,-z
-x,y,1/2-z
-x,-y,-z
x,y,1/2-z
-x,y,z
x,-y,1/2+z
1/2+x,1/2+y,z
1/2-x,1/2-y,1/2+z
1/2+x,1/2-y,-z
1/2-x,1/2+y,1/2-z
1/2-x,1/2-y,-z
1/2+x,1/2+y,1/2-z
1/2-x,1/2+y,z
1/2+x,1/2-y,1/2+z
loop_
_atom_site_type_symbol
_atom_site_label
_atom_site_fract_x
_atom_site_fract_y
_atom_site_fract_z
Si Si1 0.392362 0.684276 0.250000
Si Si2 0.395031 0.882033 0.750000
Si Si3 0.061519 0.242583 0.750000
Si Si4 0.722393 0.562959 0.750000
Si Si5 0.000000 0.458053 0.750000
Si Si6 0.783899 0.739026 0.750000
Si Si7 0.321117 0.422522 0.750000
Si Si8 0.668650 0.099673 0.750000
O O1 0.425832 0.701970 0.498333
O O2 0.335410 0.716851 0.250000
O O3 0.380369 0.606910 0.250000
O O4 0.401268 0.805240 0.750000
O O5 0.451651 0.911313 0.750000
O O6 0.366232 0.907961 0.500124
O O7 0.000000 0.260822 0.750000
O O8 0.708361 0.604511 0.500748
O O9 0.685005 0.499758 0.750000
O O10 0.784696 0.546017 0.750000
O O11 0.000000 0.500000 0.500000
O O12 0.750000 0.750000 0.500000
O O13 0.801581 0.666190 0.750000
#
# Coordination Sequence:
#
# PCOD8260459 Si02
#       8
#     8   8   8   8   4   8   8   8
#     4  12  23  40  65  99 134 172 226 264 347 397
#     4  12  24  46  68  91 127 169 216 285 331 389
#     4  12  24  44  69  99 130 174 218 285 341 397
#     4  10  21  40  61  90 129 175 219 256 318 383
#     4  12  28  52  70  96 120 172 234 282 348 392
#     4  12  22  34  58  91 138 177 210 262 321 396
#     4  10  21  40  62  90 131 172 218 265 312 394
#     4  12  23  40  63  96 128 171 223 265 322 385
#
# _framework density 21.490234999999998
#
# number of rings (size 3 to 8) (size 9 to 14) (size 15 to 20)
#    0.000    0.533    3.333    6.000    0.000    0.000 
#   14.400    0.000    0.000    0.000    0.000   37.333 
#    0.000    0.000    0.000    0.000    0.000    0.000 
#
# Total GULP energy -371850.231257 kJ/mol
# GULP energy per Si atom -12395.007709 kJ/mol
# Density = 2.144132 g / cm^3
# Si number density = 21.490235 Si / 1000 Ang^3
#
#
#
# Elastic Constant Matrix: (Units=GPa)
#
#
# Indices 1 2 3 4 5 6 
#
# 1 74.2812 15.0935 46.0749 0.0000 0.0000 0.0000
# 2 15.0935 67.8919 12.4601 0.0000 0.0000 0.0000
# 3 46.0749 12.4601 227.9296 0.0000 0.0000 0.0000
# 4 0.0000 0.0000 0.0000 31.2693 0.0000 0.0000
# 5 0.0000 0.0000 0.0000 0.0000 46.8774 0.0000
# 6 0.0000 0.0000 0.0000 0.0000 0.0000 23.9512
#
#
#
# Elastic Compliance Matrix: (Units=1/GPa)
#
#
# Indices 1 2 3 4 5 6 
#
# 1 0.015971 -0.002988 -0.003065 0.000000 0.000000 0.000000
# 2 -0.002988 0.015438 -0.000240 0.000000 0.000000 0.000000
# 3 -0.003065 -0.000240 0.005020 0.000000 0.000000 0.000000
# 4 0.000000 0.000000 0.000000 0.031980 0.000000 0.000000
# 5 0.000000 0.000000 0.000000 0.000000 0.021332 0.000000
# 6 0.000000 0.000000 0.000000 0.000000 0.000000 0.041752
#
#
# Mechanical properties :
#
#
# Convention : Reuss Voigt Hill
#
# Bulk Modulus (GPa) = 41.94217 57.48443 49.71330
# Shear Modulus (GPa) = 32.88914 40.18452 36.53683
#
# Velocity S-wave (km/s) = 3.91631 4.32892 4.12777
# Velocity P-wave (km/s) = 6.32528 7.19675 6.77504
#
# Compressibility (1/GPa) = 0.02384235
#
# Stress axis : x y z
#
# Youngs Moduli (GPa) = 62.61474 64.77680 199.20238
#
# Poissons Ratio (x) = 0.19355 0.61057
# Poissons Ratio (y) = 0.18709 0.04779
# Poissons Ratio (z) = 0.19192 0.01554
#
# Static dielectric constant tensor:
#      x y z
#    x 3.944160 0.000000 0.000000 
#    y 0.000000 4.002610 0.000000 
#    z 0.000000 0.000000 3.062220 
# 
# 
# High freq. dielectric constant tensor:
#      x y z
#    x 1.832990 0.000000 0.000000 
#    y 0.000000 1.835780 0.000000 
#    z 0.000000 0.000000 1.880620 
# 
# From -- ./inp_files/989.got.cif
#   From: 2010.03.12/outbox.cif.g09.slc.cpg/sg63_1_cif.got.tgz:989.got - 2010.04.10 19:34:48.
