data_PCOD8260256
_publ_section_title
;
Structure prediction by ZEFSAII (Michael W. Deem and Ramdas Pophale) SiO2 
 PCOD8260256
Probable space group: C M C M
;
_chemical_formula_sum "Si O2"
_cell_formula_units_Z 96
_cell_length_a 23.124462
_cell_length_b 25.374408
_cell_length_c 8.763266
_cell_angle_alpha 90.000000
_cell_angle_beta 90.000000
_cell_angle_gamma 90.000000
_cell_volume 5142.017503
_symmetry_space_group_name_H-M "C M C M"
_symmetry_group_IT_number 63
_symmetry_cell_setting 'orthorhombic'
loop_
_space_group_symop_operation_xyz
x,y,z
-x,-y,1/2+z
x,-y,-z
-x,y,1/2-z
-x,-y,-z
x,y,1/2-z
-x,y,z
x,-y,1/2+z
1/2+x,1/2+y,z
1/2-x,1/2-y,1/2+z
1/2+x,1/2-y,-z
1/2-x,1/2+y,1/2-z
1/2-x,1/2-y,-z
1/2+x,1/2+y,1/2-z
1/2-x,1/2+y,z
1/2+x,1/2-y,1/2+z
loop_
_atom_site_type_symbol
_atom_site_label
_atom_site_fract_x
_atom_site_fract_y
_atom_site_fract_z
Si Si1 0.304948 0.054286 0.569580
Si Si2 0.892285 0.156573 0.576140
Si Si3 0.118489 0.348065 0.069179
Si Si4 0.500000 0.292895 0.572653
Si Si5 0.500000 0.178421 0.430632
Si Si6 0.311768 0.754668 0.575786
Si Si7 0.326014 0.445898 0.430305
O O1 0.307371 0.050044 0.750000
O O2 0.344605 0.102119 0.511114
O O3 0.239480 0.064534 0.511676
O O4 0.329247 0.000000 0.500000
O O5 0.915213 0.152159 0.750000
O O6 0.944025 0.172742 0.465863
O O7 0.840095 0.197538 0.567983
O O8 0.867404 0.101199 0.515112
O O9 0.112209 0.347249 0.250000
O O10 0.055519 0.351881 0.994854
O O11 0.148993 0.294672 0.017873
O O12 0.500000 0.277967 0.750000
O O13 0.500000 0.239520 0.476406
O O14 0.500000 0.175535 0.250000
O O15 0.306000 0.774119 0.750000
O O16 0.250000 0.750000 0.500000
O O17 0.350493 0.500000 0.500000
O O18 0.326386 0.450251 0.250000
#
# Coordination Sequence:
#
# PCOD8260256 Si02
#       7
#    16  16  16   8   8  16  16
#     4   9  19  36  59  86 117 150 187 233 286 343
#     4  10  21  38  58  80 113 152 190 232 286 342
#     4  11  22  38  59  85 115 149 193 241 287 339
#     4  12  24  38  59  84 111 148 193 239 285 337
#     4  12  24  40  59  82 113 154 195 233 289 349
#     4  11  22  35  55  83 116 151 187 234 290 347
#     4   9  18  35  58  84 114 150 186 230 283 338
#
# _framework density 18.669713999999999
#
# number of rings (size 3 to 8) (size 9 to 14) (size 15 to 20)
#    0.000    1.667    1.667    3.500    0.000    5.333 
#    0.000    4.167    0.000    0.000    0.000    0.000 
#    0.000    0.000    0.000    0.000    0.000    0.000 
#
# Total GULP energy -595400.034429 kJ/mol
# GULP energy per Si atom -12404.167384 kJ/mol
# Density = 1.862722 g / cm^3
# Si number density = 18.669714 Si / 1000 Ang^3
#
#
#
# Elastic Constant Matrix: (Units=GPa)
#
#
# Indices 1 2 3 4 5 6 
#
# 1 83.3812 19.7115 27.0121 0.0000 0.0000 0.0000
# 2 19.7115 99.9450 20.9512 0.0000 0.0000 0.0000
# 3 27.0121 20.9512 71.0832 0.0000 0.0000 0.0000
# 4 0.0000 0.0000 0.0000 31.6298 0.0000 0.0000
# 5 0.0000 0.0000 0.0000 0.0000 29.9080 0.0000
# 6 0.0000 0.0000 0.0000 0.0000 0.0000 28.2042
#
#
#
# Elastic Compliance Matrix: (Units=1/GPa)
#
#
# Indices 1 2 3 4 5 6 
#
# 1 0.013958 -0.001749 -0.004789 0.000000 0.000000 0.000000
# 2 -0.001749 0.010884 -0.002543 0.000000 0.000000 0.000000
# 3 -0.004789 -0.002543 0.016637 0.000000 0.000000 0.000000
# 4 0.000000 0.000000 0.000000 0.031616 0.000000 0.000000
# 5 0.000000 0.000000 0.000000 0.000000 0.033436 0.000000
# 6 0.000000 0.000000 0.000000 0.000000 0.000000 0.035456
#
#
# Mechanical properties :
#
#
# Convention : Reuss Voigt Hill
#
# Bulk Modulus (GPa) = 42.88687 43.30655 43.09671
# Shear Modulus (GPa) = 29.77606 30.39737 30.08672
#
# Velocity S-wave (km/s) = 3.99793 4.03943 4.01874
# Velocity P-wave (km/s) = 6.65827 6.70839 6.68338
#
# Compressibility (1/GPa) = 0.02331716
#
# Stress axis : x y z
#
# Youngs Moduli (GPa) = 71.64407 91.88164 60.10588
#
# Poissons Ratio (x) = 0.16070 0.28782
# Poissons Ratio (y) = 0.12531 0.15286
# Poissons Ratio (z) = 0.34307 0.23367
#
# Static dielectric constant tensor:
#      x y z
#    x 3.613930 0.000000 0.000000 
#    y 0.000000 3.535170 0.000000 
#    z 0.000000 0.000000 3.440790 
# 
# 
# High freq. dielectric constant tensor:
#      x y z
#    x 1.725810 0.000000 0.000000 
#    y 0.000000 1.726070 0.000000 
#    z 0.000000 0.000000 1.726380 
# 
# From -- ./inp_files/10577.got.cif
#   From: 2010.03.12/outbox.cif.g09.slc.cpg/sg63_6_cif.got.tgz:10577.got - 2010.04.10 19:34:48.
