data_PCOD8260906
_publ_section_title
;
Structure prediction by ZEFSAII (Michael W. Deem and Ramdas Pophale) SiO2 
 PCOD8260906
Probable space group: C M C M
;
_chemical_formula_sum "Si O2"
_cell_formula_units_Z 96
_cell_length_a 13.658966
_cell_length_b 31.217866
_cell_length_c 14.205834
_cell_angle_alpha 90.000000
_cell_angle_beta 90.000000
_cell_angle_gamma 90.000000
_cell_volume 6057.421178
_symmetry_space_group_name_H-M "C M C M"
_symmetry_group_IT_number 63
_symmetry_cell_setting 'orthorhombic'
loop_
_space_group_symop_operation_xyz
x,y,z
-x,-y,1/2+z
x,-y,-z
-x,y,1/2-z
-x,-y,-z
x,y,1/2-z
-x,y,z
x,-y,1/2+z
1/2+x,1/2+y,z
1/2-x,1/2-y,1/2+z
1/2+x,1/2-y,-z
1/2-x,1/2+y,1/2-z
1/2-x,1/2-y,-z
1/2+x,1/2+y,1/2-z
1/2-x,1/2+y,z
1/2+x,1/2-y,1/2+z
loop_
_atom_site_type_symbol
_atom_site_label
_atom_site_fract_x
_atom_site_fract_y
_atom_site_fract_z
Si Si1 0.615490 0.989970 0.353891
Si Si2 0.709932 0.159411 0.467729
Si Si3 0.786876 0.285489 0.358039
Si Si4 0.112449 0.197837 0.140340
Si Si5 0.608204 0.770502 0.641671
Si Si6 0.615884 0.930800 0.521010
O O1 0.663322 0.985065 0.250000
O O2 0.500000 0.988637 0.346381
O O3 0.648062 0.950817 0.420611
O O4 0.644904 0.035593 0.397905
O O5 0.698756 0.173259 0.576874
O O6 0.817569 0.168198 0.423905
O O7 0.628127 0.185605 0.411809
O O8 0.683533 0.109924 0.460060
O O9 0.790562 0.300881 0.250000
O O10 0.866582 0.248279 0.377717
O O11 0.681540 0.266831 0.388728
O O12 0.133454 0.187477 0.250000
O O13 0.000000 0.188273 0.113677
O O14 0.624347 0.781667 0.750000
O O15 0.500000 0.753642 0.619245
O O16 0.500000 0.919700 0.522763
#
# Coordination Sequence:
#
# PCOD8260906 Si02
#       6
#    16  16  16  16  16  16
#     4   8  15  30  48  62  84 118 143 162 202 261
#     4  11  19  27  44  67  90 113 143 184 222 254
#     4   9  19  31  41  59  86 118 155 186 213 251
#     4   9  18  32  46  60  84 119 156 188 215 248
#     4   9  17  29  44  62  86 115 146 181 221 261
#     4   9  18  29  42  67  94 111 137 173 208 257
#
# _framework density 15.848328
#
# number of rings (size 3 to 8) (size 9 to 14) (size 15 to 20)
#    0.000    2.833    0.000    5.000    0.000    5.333 
#    0.000    1.667    0.000    0.000    0.000    2.333 
#    0.000    1.333    0.000    0.000    0.000    0.000 
#
# Total GULP energy -594976.558127 kJ/mol
# GULP energy per Si atom -12395.344961 kJ/mol
# Density = 1.581226 g / cm^3
# Si number density = 15.848328 Si / 1000 Ang^3
#
#
#
# Elastic Constant Matrix: (Units=GPa)
#
#
# Indices 1 2 3 4 5 6 
#
# 1 66.5818 17.6496 17.5891 0.0000 0.0000 0.0000
# 2 17.6496 51.2708 20.2003 0.0000 0.0000 0.0000
# 3 17.5891 20.2003 75.3155 0.0000 0.0000 0.0000
# 4 0.0000 0.0000 0.0000 13.0627 0.0000 0.0000
# 5 0.0000 0.0000 0.0000 0.0000 14.5445 0.0000
# 6 0.0000 0.0000 0.0000 0.0000 0.0000 14.9099
#
#
#
# Elastic Compliance Matrix: (Units=1/GPa)
#
#
# Indices 1 2 3 4 5 6 
#
# 1 0.016999 -0.004794 -0.002684 0.000000 0.000000 0.000000
# 2 -0.004794 0.023161 -0.005092 0.000000 0.000000 0.000000
# 3 -0.002684 -0.005092 0.015270 0.000000 0.000000 0.000000
# 4 0.000000 0.000000 0.000000 0.076554 0.000000 0.000000
# 5 0.000000 0.000000 0.000000 0.000000 0.068754 0.000000
# 6 0.000000 0.000000 0.000000 0.000000 0.000000 0.067070
#
#
# Mechanical properties :
#
#
# Convention : Reuss Voigt Hill
#
# Bulk Modulus (GPa) = 33.01553 33.78292 33.39922
# Shear Modulus (GPa) = 16.49915 17.68535 17.09225
#
# Velocity S-wave (km/s) = 3.23006 3.34415 3.28760
# Velocity P-wave (km/s) = 5.89817 6.02277 5.96080
#
# Compressibility (1/GPa) = 0.03028878
#
# Stress axis : x y z
#
# Youngs Moduli (GPa) = 58.82680 43.17595 65.48730
#
# Poissons Ratio (x) = 0.20700 0.17577
# Poissons Ratio (y) = 0.28203 0.33348
# Poissons Ratio (z) = 0.15790 0.21987
#
# Static dielectric constant tensor:
#      x y z
#    x 3.045980 0.000000 0.000000 
#    y 0.000000 2.714870 0.000000 
#    z 0.000000 0.000000 3.478710 
# 
# 
# High freq. dielectric constant tensor:
#      x y z
#    x 1.583100 0.000000 0.000000 
#    y 0.000000 1.577400 0.000000 
#    z 0.000000 0.000000 1.628050 
# 
# From -- ./inp_files/32688.got.cif
#   From: 2010.03.12/outbox.cif.g09.slc.cpg/sg63_17_cif.got.tgz:32688.got - 2010.04.10 19:34:48.
