data_PCOD8260762
_publ_section_title
;
Structure prediction by ZEFSAII (Michael W. Deem and Ramdas Pophale) SiO2 
 PCOD8260762
Probable space group: C M C M
;
_chemical_formula_sum "Si O2"
_cell_formula_units_Z 104
_cell_length_a 21.946582
_cell_length_b 9.314009
_cell_length_c 25.372796
_cell_angle_alpha 90.000000
_cell_angle_beta 90.000000
_cell_angle_gamma 90.000000
_cell_volume 5186.470034
_symmetry_space_group_name_H-M "C M C M"
_symmetry_group_IT_number 63
_symmetry_cell_setting 'orthorhombic'
loop_
_space_group_symop_operation_xyz
x,y,z
-x,-y,1/2+z
x,-y,-z
-x,y,1/2-z
-x,-y,-z
x,y,1/2-z
-x,y,z
x,-y,1/2+z
1/2+x,1/2+y,z
1/2-x,1/2-y,1/2+z
1/2+x,1/2-y,-z
1/2-x,1/2+y,1/2-z
1/2-x,1/2-y,-z
1/2+x,1/2+y,1/2-z
1/2-x,1/2+y,z
1/2+x,1/2-y,1/2+z
loop_
_atom_site_type_symbol
_atom_site_label
_atom_site_fract_x
_atom_site_fract_y
_atom_site_fract_z
Si Si1 0.233953 0.500000 0.500000
Si Si2 0.432360 0.665214 0.049035
Si Si3 0.869296 0.320769 0.957715
Si Si4 0.288598 0.392916 0.810992
Si Si5 0.430846 0.053913 0.611063
Si Si6 0.667306 0.455644 0.411481
Si Si7 0.173210 0.575844 0.809586
O O1 0.190910 0.638625 0.491321
O O2 0.272085 0.520879 0.553573
O O3 0.500000 0.600088 0.045403
O O4 0.429167 0.779842 0.096007
O O5 0.386948 0.536181 0.059136
O O6 0.417278 0.741345 0.994378
O O7 0.901936 0.461972 0.935992
O O8 0.849019 0.213245 0.910661
O O9 0.309601 0.419637 0.750000
O O10 0.327652 0.489518 0.851418
O O11 0.218901 0.442871 0.817904
O O12 0.294816 0.225760 0.827855
O O13 0.500000 0.003003 0.623027
O O14 0.389191 0.036628 0.661974
O O15 0.153542 0.594654 0.750000
#
# Coordination Sequence:
#
# PCOD8260762 Si02
#       7
#     8  16  16  16  16  16  16
#     4  12  24  38  60  96 128 162 212 250 318 378
#     4  11  23  43  62  87 126 168 213 252 302 377
#     4  12  24  40  61  92 129 168 204 260 310 375
#     4  10  23  41  65  95 127 162 206 257 320 377
#     4  11  23  41  64  90 123 168 212 253 307 374
#     4  12  25  38  64  93 128 165 207 264 312 375
#     4  10  22  42  66  93 123 161 207 261 314 371
#
# _framework density 20.052174000000001
#
# number of rings (size 3 to 8) (size 9 to 14) (size 15 to 20)
#    0.000    0.923    4.615    1.846    4.308    3.385 
#    0.000    0.000    0.000    0.462    0.000    0.000 
#    0.000    0.000    0.000    0.000    0.000    0.000 
#
# Total GULP energy -644807.859389 kJ/mol
# GULP energy per Si atom -12400.151142 kJ/mol
# Density = 2.000653 g / cm^3
# Si number density = 20.052174 Si / 1000 Ang^3
#
#
#
# Elastic Constant Matrix: (Units=GPa)
#
#
# Indices 1 2 3 4 5 6 
#
# 1 141.7379 46.6158 45.2684 0.0000 0.0000 0.0000
# 2 46.6158 75.7119 22.8724 0.0000 0.0000 0.0000
# 3 45.2684 22.8724 81.6014 0.0000 0.0000 0.0000
# 4 0.0000 0.0000 0.0000 31.5691 0.0000 0.0000
# 5 0.0000 0.0000 0.0000 0.0000 23.7966 0.0000
# 6 0.0000 0.0000 0.0000 0.0000 0.0000 6.1083
#
#
#
# Elastic Compliance Matrix: (Units=1/GPa)
#
#
# Indices 1 2 3 4 5 6 
#
# 1 0.009998 -0.004895 -0.004175 0.000000 0.000000 0.000000
# 2 -0.004895 0.016826 -0.002001 0.000000 0.000000 0.000000
# 3 -0.004175 -0.002001 0.015131 0.000000 0.000000 0.000000
# 4 0.000000 0.000000 0.000000 0.031677 0.000000 0.000000
# 5 0.000000 0.000000 0.000000 0.000000 0.042023 0.000000
# 6 0.000000 0.000000 0.000000 0.000000 0.000000 0.163712
#
#
# Mechanical properties :
#
#
# Convention : Reuss Voigt Hill
#
# Bulk Modulus (GPa) = 50.46602 58.72937 54.59770
# Shear Modulus (GPa) = 16.22779 24.58111 20.40445
#
# Velocity S-wave (km/s) = 2.84787 3.50502 3.19339
# Velocity P-wave (km/s) = 6.00298 6.76255 6.39406
#
# Compressibility (1/GPa) = 0.01981531
#
# Stress axis : x y z
#
# Youngs Moduli (GPa) = 100.01562 59.43111 66.08784
#
# Poissons Ratio (x) = 0.29091 0.27589
# Poissons Ratio (y) = 0.48957 0.13223
# Poissons Ratio (z) = 0.41753 0.11891
#
# Static dielectric constant tensor:
#      x y z
#    x 3.671800 0.000000 0.000000 
#    y 0.000000 3.877510 0.000000 
#    z 0.000000 0.000000 3.595640 
# 
# 
# High freq. dielectric constant tensor:
#      x y z
#    x 1.779890 0.000000 0.000000 
#    y 0.000000 1.792690 0.000000 
#    z 0.000000 0.000000 1.775040 
# 
# From -- ./inp_files/70386.got.cif
#   From: 2010.03.12/outbox.cif.g09.slc.cpg/sg63_36_cif.got.tgz:70386.got - 2010.04.10 19:34:48.
