data_PCOD8260339
_publ_section_title
;
Structure prediction by ZEFSAII (Michael W. Deem and Ramdas Pophale) SiO2 
 PCOD8260339
Probable space group: C M C M
;
_chemical_formula_sum "Si O2"
_cell_formula_units_Z 64
_cell_length_a 7.596329
_cell_length_b 23.130329
_cell_length_c 18.387002
_cell_angle_alpha 90.000000
_cell_angle_beta 90.000000
_cell_angle_gamma 90.000000
_cell_volume 3230.699016
_symmetry_space_group_name_H-M "C M C M"
_symmetry_group_IT_number 63
_symmetry_cell_setting 'orthorhombic'
loop_
_space_group_symop_operation_xyz
x,y,z
-x,-y,1/2+z
x,-y,-z
-x,y,1/2-z
-x,-y,-z
x,y,1/2-z
-x,y,z
x,-y,1/2+z
1/2+x,1/2+y,z
1/2-x,1/2-y,1/2+z
1/2+x,1/2-y,-z
1/2-x,1/2+y,1/2-z
1/2-x,1/2-y,-z
1/2+x,1/2+y,1/2-z
1/2-x,1/2+y,z
1/2+x,1/2-y,1/2+z
loop_
_atom_site_type_symbol
_atom_site_label
_atom_site_fract_x
_atom_site_fract_y
_atom_site_fract_z
Si Si1 0.500000 0.966836 0.075875
Si Si2 0.203935 0.873921 0.430057
Si Si3 0.000000 0.421680 0.664498
Si Si4 0.804137 0.150826 0.093484
Si Si5 0.293786 0.266201 0.333047
O O1 0.676855 0.929701 0.082950
O O2 0.500000 0.011682 0.141935
O O3 0.500000 0.000000 0.000000
O O4 0.246147 0.846609 0.508604
O O5 0.255662 0.826750 0.369884
O O6 0.000000 0.892499 0.422763
O O7 0.826130 0.391129 0.635235
O O8 0.000000 0.416246 0.750000
O O9 0.803234 0.215286 0.124703
O O10 0.000000 0.125228 0.103323
O O11 0.228414 0.268258 0.250000
O O12 0.500000 0.253617 0.337958
#
# Coordination Sequence:
#
# PCOD8260339 Si02
#       5
#     8  16   8  16  16
#     4  12  24  44  68  90 122 172 217 263 312 372
#     4  10  23  41  65  94 124 167 215 265 314 375
#     4  12  26  44  64  94 132 166 212 270 320 370
#     4  11  22  39  65  94 126 169 212 257 317 383
#     4  10  21  38  61  93 135 168 203 262 324 378
#
# _framework density 19.809954000000001
#
# number of rings (size 3 to 8) (size 9 to 14) (size 15 to 20)
#    0.000    1.250    3.750    1.500    1.750    4.500 
#    0.000    0.000    0.000    0.000    0.000    0.000 
#    0.000    0.000    0.000    0.000    0.000    0.000 
#
# Total GULP energy -396965.330764 kJ/mol
# GULP energy per Si atom -12405.166586 kJ/mol
# Density = 1.976487 g / cm^3
# Si number density = 19.809954 Si / 1000 Ang^3
#
#
#
# Elastic Constant Matrix: (Units=GPa)
#
#
# Indices 1 2 3 4 5 6 
#
# 1 103.2847 61.3062 38.4604 0.0000 0.0000 0.0000
# 2 61.3062 129.4985 43.2743 0.0000 0.0000 0.0000
# 3 38.4604 43.2743 92.5490 0.0000 0.0000 0.0000
# 4 0.0000 0.0000 0.0000 32.0818 0.0000 0.0000
# 5 0.0000 0.0000 0.0000 0.0000 21.1490 0.0000
# 6 0.0000 0.0000 0.0000 0.0000 0.0000 31.9373
#
#
#
# Elastic Compliance Matrix: (Units=1/GPa)
#
#
# Indices 1 2 3 4 5 6 
#
# 1 0.014260 -0.005654 -0.003282 0.000000 0.000000 0.000000
# 2 -0.005654 0.011394 -0.002978 0.000000 0.000000 0.000000
# 3 -0.003282 -0.002978 0.013562 0.000000 0.000000 0.000000
# 4 0.000000 0.000000 0.000000 0.031170 0.000000 0.000000
# 5 0.000000 0.000000 0.000000 0.000000 0.047284 0.000000
# 6 0.000000 0.000000 0.000000 0.000000 0.000000 0.031311
#
#
# Mechanical properties :
#
#
# Convention : Reuss Voigt Hill
#
# Bulk Modulus (GPa) = 64.99004 67.93489 66.46246
# Shear Modulus (GPa) = 28.09949 29.18636 28.64293
#
# Velocity S-wave (km/s) = 3.77032 3.84255 3.80661
# Velocity P-wave (km/s) = 7.19943 7.35219 7.27621
#
# Compressibility (1/GPa) = 0.01538697
#
# Stress axis : x y z
#
# Youngs Moduli (GPa) = 70.12443 87.76561 73.73780
#
# Poissons Ratio (x) = 0.49624 0.24203
# Poissons Ratio (y) = 0.39650 0.21959
# Poissons Ratio (z) = 0.23017 0.26136
#
# Static dielectric constant tensor:
#      x y z
#    x 4.133700 0.000000 0.000000 
#    y 0.000000 3.627820 0.000000 
#    z 0.000000 0.000000 3.786910 
# 
# 
# High freq. dielectric constant tensor:
#      x y z
#    x 1.785010 0.000000 0.000000 
#    y 0.000000 1.767830 0.000000 
#    z 0.000000 0.000000 1.780880 
# 
# From -- ./inp_files/39865.got.cif
#   From: 2010.03.12/outbox.cif.g09.slc.cpg/sg63_20_cif.got.tgz:39865.got - 2010.04.10 19:34:48.
