data_PCOD8260233
_publ_section_title
;
Structure prediction by ZEFSAII (Michael W. Deem and Ramdas Pophale) SiO2 
 PCOD8260233
Probable space group: C M C M
;
_chemical_formula_sum "Si O2"
_cell_formula_units_Z 80
_cell_length_a 25.493257
_cell_length_b 9.917800
_cell_length_c 16.151303
_cell_angle_alpha 90.000000
_cell_angle_beta 90.000000
_cell_angle_gamma 90.000000
_cell_volume 4083.647389
_symmetry_space_group_name_H-M "C M C M"
_symmetry_group_IT_number 63
_symmetry_cell_setting 'orthorhombic'
loop_
_space_group_symop_operation_xyz
x,y,z
-x,-y,1/2+z
x,-y,-z
-x,y,1/2-z
-x,-y,-z
x,y,1/2-z
-x,y,z
x,-y,1/2+z
1/2+x,1/2+y,z
1/2-x,1/2-y,1/2+z
1/2+x,1/2-y,-z
1/2-x,1/2+y,1/2-z
1/2-x,1/2-y,-z
1/2+x,1/2+y,1/2-z
1/2-x,1/2+y,z
1/2+x,1/2-y,1/2+z
loop_
_atom_site_type_symbol
_atom_site_label
_atom_site_fract_x
_atom_site_fract_y
_atom_site_fract_z
Si Si1 0.112765 0.655147 0.027952
Si Si2 0.000000 0.655204 0.007561
Si Si3 0.897336 0.907506 0.574924
Si Si4 0.500000 0.322063 0.654806
Si Si5 0.296549 0.195274 0.345361
Si Si6 0.792372 0.999504 0.844494
O O1 0.149649 0.679305 0.105554
O O2 0.117548 0.500000 0.000000
O O3 0.124045 0.758839 0.952410
O O4 0.053125 0.696973 0.055475
O O5 0.000000 0.702906 0.912029
O O6 0.000000 0.500000 0.000000
O O7 0.945962 0.904429 0.639254
O O8 0.917702 0.000000 0.500000
O O9 0.848054 0.983456 0.613139
O O10 0.500000 0.270412 0.750000
O O11 0.308916 0.159607 0.250000
O O12 0.274155 0.346155 0.354323
O O13 0.252886 0.094853 0.383850
O O14 0.799204 0.955551 0.750000
#
# Coordination Sequence:
#
# PCOD8260233 Si02
#       6
#    16   8  16   8  16  16
#     4  10  21  38  60  86 115 154 195 241 292 350
#     4   8  18  39  60  83 122 152 190 245 289 339
#     4  11  21  38  60  88 119 154 194 246 299 348
#     4  10  21  37  62  91 119 156 198 242 297 363
#     4  10  22  40  58  82 118 155 195 243 296 350
#     4  10  22  39  58  83 117 155 197 244 293 352
#
# _framework density 19.590330000000002
#
# number of rings (size 3 to 8) (size 9 to 14) (size 15 to 20)
#    0.000    2.000    2.000    0.900    2.800    1.600 
#    0.000    9.500    0.000    0.000    0.000    0.000 
#    0.000    0.000    0.000    0.000    0.000    0.000 
#
# Total GULP energy -495703.258298 kJ/mol
# GULP energy per Si atom -12392.581457 kJ/mol
# Density = 1.954574 g / cm^3
# Si number density = 19.590330 Si / 1000 Ang^3
#
#
#
# Elastic Constant Matrix: (Units=GPa)
#
#
# Indices 1 2 3 4 5 6 
#
# 1 145.5140 31.5503 56.8728 0.0000 0.0000 0.0000
# 2 31.5503 102.5966 27.4452 0.0000 0.0000 0.0000
# 3 56.8728 27.4452 66.0518 0.0000 0.0000 0.0000
# 4 0.0000 0.0000 0.0000 23.1493 0.0000 0.0000
# 5 0.0000 0.0000 0.0000 0.0000 33.5650 0.0000
# 6 0.0000 0.0000 0.0000 0.0000 0.0000 28.2427
#
#
#
# Elastic Compliance Matrix: (Units=1/GPa)
#
#
# Indices 1 2 3 4 5 6 
#
# 1 0.010432 -0.000906 -0.008606 0.000000 0.000000 0.000000
# 2 -0.000906 0.011044 -0.003809 0.000000 0.000000 0.000000
# 3 -0.008606 -0.003809 0.024132 0.000000 0.000000 0.000000
# 4 0.000000 0.000000 0.000000 0.043198 0.000000 0.000000
# 5 0.000000 0.000000 0.000000 0.000000 0.029793 0.000000
# 6 0.000000 0.000000 0.000000 0.000000 0.000000 0.035407
#
#
# Mechanical properties :
#
#
# Convention : Reuss Voigt Hill
#
# Bulk Modulus (GPa) = 52.72308 60.65546 56.68927
# Shear Modulus (GPa) = 26.74202 30.21102 28.47652
#
# Velocity S-wave (km/s) = 3.69868 3.93127 3.81675
# Velocity P-wave (km/s) = 6.72396 7.18580 6.95871
#
# Compressibility (1/GPa) = 0.01896702
#
# Stress axis : x y z
#
# Youngs Moduli (GPa) = 95.85689 90.54324 41.43793
#
# Poissons Ratio (x) = 0.08202 0.35662
# Poissons Ratio (y) = 0.08684 0.15784
# Poissons Ratio (z) = 0.82495 0.34489
#
# Static dielectric constant tensor:
#      x y z
#    x 2.422630 0.000000 0.000000 
#    y 0.000000 3.813840 0.000000 
#    z 0.000000 0.000000 3.351630 
# 
# 
# High freq. dielectric constant tensor:
#      x y z
#    x 1.777670 0.000000 0.000000 
#    y 0.000000 1.775570 0.000000 
#    z 0.000000 0.000000 1.737080 
# 
# From -- ./inp_files/47922.got.cif
#   From: 2010.03.12/outbox.cif.g09.slc.cpg/sg63_24_cif.got.tgz:47922.got - 2010.04.10 19:34:48.
