data_PCOD8260431
_publ_section_title
;
Structure prediction by ZEFSAII (Michael W. Deem and Ramdas Pophale) SiO2 
 PCOD8260431
Probable space group: C M C M
;
_chemical_formula_sum "Si O2"
_cell_formula_units_Z 96
_cell_length_a 14.475884
_cell_length_b 18.295008
_cell_length_c 18.183879
_cell_angle_alpha 90.000000
_cell_angle_beta 90.000000
_cell_angle_gamma 90.000000
_cell_volume 4815.753299
_symmetry_space_group_name_H-M "C M C M"
_symmetry_group_IT_number 63
_symmetry_cell_setting 'orthorhombic'
loop_
_space_group_symop_operation_xyz
x,y,z
-x,-y,1/2+z
x,-y,-z
-x,y,1/2-z
-x,-y,-z
x,y,1/2-z
-x,y,z
x,-y,1/2+z
1/2+x,1/2+y,z
1/2-x,1/2-y,1/2+z
1/2+x,1/2-y,-z
1/2-x,1/2+y,1/2-z
1/2-x,1/2-y,-z
1/2+x,1/2+y,1/2-z
1/2-x,1/2+y,z
1/2+x,1/2-y,1/2+z
loop_
_atom_site_type_symbol
_atom_site_label
_atom_site_fract_x
_atom_site_fract_y
_atom_site_fract_z
Si Si1 0.607969 0.123935 0.664205
Si Si2 0.107836 0.160499 0.554813
Si Si3 0.605118 0.211882 0.335410
Si Si4 0.893151 0.780199 0.895466
Si Si5 0.749278 0.030960 0.576683
Si Si6 0.236630 0.106650 0.333078
O O1 0.634807 0.129146 0.750000
O O2 0.500000 0.106651 0.654893
O O3 0.636931 0.197765 0.622307
O O4 0.664387 0.059995 0.624850
O O5 0.133161 0.215673 0.620322
O O6 0.133471 0.201226 0.479162
O O7 0.168778 0.088444 0.564182
O O8 0.000000 0.137971 0.556780
O O9 0.621171 0.230440 0.250000
O O10 0.500000 0.189515 0.352602
O O11 0.667230 0.143312 0.360435
O O12 0.842703 0.833040 0.838731
O O13 0.000000 0.790795 0.879613
O O14 0.710229 0.000000 0.500000
O O15 0.792912 0.962413 0.619024
O O16 0.246653 0.079900 0.250000
#
# Coordination Sequence:
#
# PCOD8260431 Si02
#       6
#    16  16  16  16  16  16
#     4  10  23  43  65  89 120 157 199 250 303 354
#     4  10  22  40  63  88 121 159 200 250 301 353
#     4   9  20  39  63  89 117 154 201 251 302 355
#     4  10  21  39  64  90 115 152 200 252 304 352
#     4  12  25  39  59  89 126 166 200 241 293 362
#     4  11  23  38  59  88 121 158 199 245 297 356
#
# _framework density 19.934576
#
# number of rings (size 3 to 8) (size 9 to 14) (size 15 to 20)
#    0.000    1.667    1.667    2.000    2.333    7.000 
#    0.000    1.667    0.000    0.000    0.000    0.000 
#    0.000    0.000    0.000    0.000    0.000    0.000 
#
# Total GULP energy -595382.896947 kJ/mol
# GULP energy per Si atom -12403.810353 kJ/mol
# Density = 1.988920 g / cm^3
# Si number density = 19.934576 Si / 1000 Ang^3
#
#
#
# Elastic Constant Matrix: (Units=GPa)
#
#
# Indices 1 2 3 4 5 6 
#
# 1 59.7319 35.9308 45.8255 0.0000 0.0000 0.0000
# 2 35.9308 83.8268 53.3693 0.0000 0.0000 0.0000
# 3 45.8255 53.3693 105.2899 0.0000 0.0000 0.0000
# 4 0.0000 0.0000 0.0000 40.2221 0.0000 0.0000
# 5 0.0000 0.0000 0.0000 0.0000 30.6477 0.0000
# 6 0.0000 0.0000 0.0000 0.0000 0.0000 22.8509
#
#
#
# Elastic Compliance Matrix: (Units=1/GPa)
#
#
# Indices 1 2 3 4 5 6 
#
# 1 0.027067 -0.006056 -0.008711 0.000000 0.000000 0.000000
# 2 -0.006056 0.018968 -0.006979 0.000000 0.000000 0.000000
# 3 -0.008711 -0.006979 0.016826 0.000000 0.000000 0.000000
# 4 0.000000 0.000000 0.000000 0.024862 0.000000 0.000000
# 5 0.000000 0.000000 0.000000 0.000000 0.032629 0.000000
# 6 0.000000 0.000000 0.000000 0.000000 0.000000 0.043762
#
#
# Mechanical properties :
#
#
# Convention : Reuss Voigt Hill
#
# Bulk Modulus (GPa) = 51.62528 57.67774 54.65151
# Shear Modulus (GPa) = 23.35763 26.32569 24.84166
#
# Velocity S-wave (km/s) = 3.42674 3.63795 3.53393
# Velocity P-wave (km/s) = 6.45061 6.82954 6.64278
#
# Compressibility (1/GPa) = 0.01937035
#
# Stress axis : x y z
#
# Youngs Moduli (GPa) = 36.94505 52.71941 59.43086
#
# Poissons Ratio (x) = 0.31927 0.51769
# Poissons Ratio (y) = 0.22374 0.41476
# Poissons Ratio (z) = 0.32182 0.36792
#
# Static dielectric constant tensor:
#      x y z
#    x 3.615040 0.000000 0.000000 
#    y 0.000000 3.589990 0.000000 
#    z 0.000000 0.000000 3.759290 
# 
# 
# High freq. dielectric constant tensor:
#      x y z
#    x 1.781320 0.000000 0.000000 
#    y 0.000000 1.776790 0.000000 
#    z 0.000000 0.000000 1.790360 
# 
# From -- ./inp_files/31943.got.cif
#   From: 2010.03.12/outbox.cif.g09.slc.cpg/sg63_16_cif.got.tgz:31943.got - 2010.04.10 19:34:48.
