data_PCOD8260570
_publ_section_title
;
Structure prediction by ZEFSAII (Michael W. Deem and Ramdas Pophale) SiO2 
 PCOD8260570
Probable space group: C M C M
;
_chemical_formula_sum "Si O2"
_cell_formula_units_Z 80
_cell_length_a 26.297198
_cell_length_b 8.006274
_cell_length_c 17.691005
_cell_angle_alpha 90.000000
_cell_angle_beta 90.000000
_cell_angle_gamma 90.000000
_cell_volume 3724.709705
_symmetry_space_group_name_H-M "C M C M"
_symmetry_group_IT_number 63
_symmetry_cell_setting 'orthorhombic'
loop_
_space_group_symop_operation_xyz
x,y,z
-x,-y,1/2+z
x,-y,-z
-x,y,1/2-z
-x,-y,-z
x,y,1/2-z
-x,y,z
x,-y,1/2+z
1/2+x,1/2+y,z
1/2-x,1/2-y,1/2+z
1/2+x,1/2-y,-z
1/2-x,1/2+y,1/2-z
1/2-x,1/2-y,-z
1/2+x,1/2+y,1/2-z
1/2-x,1/2+y,z
1/2+x,1/2-y,1/2+z
loop_
_atom_site_type_symbol
_atom_site_label
_atom_site_fract_x
_atom_site_fract_y
_atom_site_fract_z
Si Si1 0.784952 0.681558 0.433944
Si Si2 0.600149 0.188252 0.431382
Si Si3 0.109842 0.021196 0.336112
Si Si4 0.441302 0.158549 0.907109
Si Si5 0.723659 0.530403 0.834577
O O1 0.750000 0.750000 0.500000
O O2 0.842412 0.667130 0.463069
O O3 0.761897 0.508805 0.403935
O O4 0.785655 0.776317 0.352851
O O5 0.593070 0.358408 0.384089
O O6 0.564202 0.199817 0.504243
O O7 0.585183 0.019516 0.385351
O O8 0.096094 0.978154 0.250000
O O9 0.081499 0.188691 0.360019
O O10 0.169794 0.063550 0.344143
O O11 0.500000 0.143320 0.885864
O O12 0.745943 0.510437 0.750000
#
# Coordination Sequence:
#
# PCOD8260570 Si02
#       5
#    16  16  16  16  16
#     4  11  22  35  60  91 122 160 211 257 305 372
#     4  10  23  41  64  91 129 164 209 264 325 377
#     4  10  23  43  63  90 130 168 208 262 320 384
#     4  11  24  42  67  95 121 165 219 269 325 383
#     4  10  22  38  56  86 125 166 202 244 313 382
#
# _framework density 21.478183000000001
#
# number of rings (size 3 to 8) (size 9 to 14) (size 15 to 20)
#    0.000    1.600    0.000    4.200    8.400    7.600 
#    0.000    0.000    0.000    0.000    0.000    0.000 
#    0.000    0.000    0.000    0.000    0.000    0.000 
#
# Total GULP energy -495655.544131 kJ/mol
# GULP energy per Si atom -12391.388603 kJ/mol
# Density = 2.142930 g / cm^3
# Si number density = 21.478183 Si / 1000 Ang^3
#
#
#
# Elastic Constant Matrix: (Units=GPa)
#
#
# Indices 1 2 3 4 5 6 
#
# 1 92.7096 32.9231 13.6547 0.0000 0.0000 0.0000
# 2 32.9231 108.2120 25.8705 0.0000 0.0000 0.0000
# 3 13.6547 25.8705 67.1835 0.0000 0.0000 0.0000
# 4 0.0000 0.0000 0.0000 31.2127 0.0000 0.0000
# 5 0.0000 0.0000 0.0000 0.0000 24.6442 0.0000
# 6 0.0000 0.0000 0.0000 0.0000 0.0000 28.2557
#
#
#
# Elastic Compliance Matrix: (Units=1/GPa)
#
#
# Indices 1 2 3 4 5 6 
#
# 1 0.012174 -0.003428 -0.001154 0.000000 0.000000 0.000000
# 2 -0.003428 0.011143 -0.003594 0.000000 0.000000 0.000000
# 3 -0.001154 -0.003594 0.016503 0.000000 0.000000 0.000000
# 4 0.000000 0.000000 0.000000 0.032038 0.000000 0.000000
# 5 0.000000 0.000000 0.000000 0.000000 0.040577 0.000000
# 6 0.000000 0.000000 0.000000 0.000000 0.000000 0.035391
#
#
# Mechanical properties :
#
#
# Convention : Reuss Voigt Hill
#
# Bulk Modulus (GPa) = 42.61221 45.88909 44.25065
# Shear Modulus (GPa) = 29.06937 29.86631 29.46784
#
# Velocity S-wave (km/s) = 3.68290 3.73304 3.70806
# Velocity P-wave (km/s) = 6.16180 6.32397 6.24342
#
# Compressibility (1/GPa) = 0.02346745
#
# Stress axis : x y z
#
# Youngs Moduli (GPa) = 82.14449 89.73986 60.59409
#
# Poissons Ratio (x) = 0.30761 0.06994
# Poissons Ratio (y) = 0.28158 0.21779
# Poissons Ratio (z) = 0.09482 0.32255
#
# Static dielectric constant tensor:
#      x y z
#    x 3.901520 0.000000 0.000000 
#    y 0.000000 4.108160 0.000000 
#    z 0.000000 0.000000 3.677380 
# 
# 
# High freq. dielectric constant tensor:
#      x y z
#    x 1.836130 0.000000 0.000000 
#    y 0.000000 1.857990 0.000000 
#    z 0.000000 0.000000 1.838370 
# 
# From -- ./inp_files/48738.got.cif
#   From: 2010.03.12/outbox.cif.g09.slc.cpg/sg63_25_cif.got.tgz:48738.got - 2010.04.10 19:34:48.
