data_PCOD8260980
_publ_section_title
;
Structure prediction by ZEFSAII (Michael W. Deem and Ramdas Pophale) SiO2 
 PCOD8260980
Probable space group: C M C M
;
_chemical_formula_sum "Si O2"
_cell_formula_units_Z 80
_cell_length_a 25.958859
_cell_length_b 21.673122
_cell_length_c 9.463080
_cell_angle_alpha 90.000000
_cell_angle_beta 90.000000
_cell_angle_gamma 90.000000
_cell_volume 5324.018878
_symmetry_space_group_name_H-M "C M C M"
_symmetry_group_IT_number 63
_symmetry_cell_setting 'orthorhombic'
loop_
_space_group_symop_operation_xyz
x,y,z
-x,-y,1/2+z
x,-y,-z
-x,y,1/2-z
-x,-y,-z
x,y,1/2-z
-x,y,z
x,-y,1/2+z
1/2+x,1/2+y,z
1/2-x,1/2-y,1/2+z
1/2+x,1/2-y,-z
1/2-x,1/2+y,1/2-z
1/2-x,1/2-y,-z
1/2+x,1/2+y,1/2-z
1/2-x,1/2+y,z
1/2+x,1/2-y,1/2+z
loop_
_atom_site_type_symbol
_atom_site_label
_atom_site_fract_x
_atom_site_fract_y
_atom_site_fract_z
Si Si1 0.729694 0.936629 0.080069
Si Si2 0.558768 0.903079 0.250000
Si Si3 0.121031 0.618673 0.010293
Si Si4 0.218895 0.166398 0.090585
Si Si5 0.174601 0.737886 0.096420
Si Si6 0.560775 0.048933 0.250000
O O1 0.735943 0.942574 0.250000
O O2 0.672870 0.913902 0.041882
O O3 0.772402 0.890651 0.015523
O O4 0.739893 0.000000 0.000000
O O5 0.500000 0.885777 0.250000
O O6 0.583538 0.869594 0.381937
O O7 0.568268 0.976048 0.250000
O O8 0.131407 0.685965 0.073835
O O9 0.090273 0.574653 0.115395
O O10 0.203184 0.145225 0.250000
O O11 0.270310 0.205743 0.098283
O O12 0.173618 0.209235 0.024033
O O13 0.164664 0.768426 0.250000
O O14 0.500000 0.066738 0.250000
#
# Coordination Sequence:
#
# PCOD8260980 Si02
#       6
#    16   8  16  16  16   8
#     4  11  21  31  46  66  92 119 150 184 220 262
#     4  11  22  34  46  63  86 114 151 196 241 279
#     4  11  21  32  48  65  84 114 153 194 232 271
#     4   9  18  29  46  66  87 111 140 178 222 262
#     4   9  17  30  45  62  85 109 143 183 222 266
#     4  11  22  36  48  61  84 116 151 194 241 281
#
# _framework density 15.026242999999999
#
# number of rings (size 3 to 8) (size 9 to 14) (size 15 to 20)
#    0.000    1.800    2.000    3.600    4.200    4.000 
#    0.000    0.000    0.000    0.000    0.000    0.000 
#    0.000    0.000    0.000    0.000    0.000    6.000 
#
# Total GULP energy -495784.523835 kJ/mol
# GULP energy per Si atom -12394.613096 kJ/mol
# Density = 1.499204 g / cm^3
# Si number density = 15.026243 Si / 1000 Ang^3
#
#
#
# Elastic Constant Matrix: (Units=GPa)
#
#
# Indices 1 2 3 4 5 6 
#
# 1 37.6279 27.3272 22.1240 0.0000 0.0000 0.0000
# 2 27.3272 62.4004 40.4048 0.0000 0.0000 0.0000
# 3 22.1240 40.4048 136.5619 0.0000 0.0000 0.0000
# 4 0.0000 0.0000 0.0000 27.3967 0.0000 0.0000
# 5 0.0000 0.0000 0.0000 0.0000 19.8336 0.0000
# 6 0.0000 0.0000 0.0000 0.0000 0.0000 13.4246
#
#
#
# Elastic Compliance Matrix: (Units=1/GPa)
#
#
# Indices 1 2 3 4 5 6 
#
# 1 0.039242 -0.016166 -0.001574 0.000000 0.000000 0.000000
# 2 -0.016166 0.026483 -0.005217 0.000000 0.000000 0.000000
# 3 -0.001574 -0.005217 0.009121 0.000000 0.000000 0.000000
# 4 0.000000 0.000000 0.000000 0.036501 0.000000 0.000000
# 5 0.000000 0.000000 0.000000 0.000000 0.050420 0.000000
# 6 0.000000 0.000000 0.000000 0.000000 0.000000 0.074490
#
#
# Mechanical properties :
#
#
# Convention : Reuss Voigt Hill
#
# Bulk Modulus (GPa) = 34.56334 46.25578 40.40956
# Shear Modulus (GPa) = 17.13416 21.91327 19.52371
#
# Velocity S-wave (km/s) = 3.38047 3.82296 3.60850
# Velocity P-wave (km/s) = 6.18779 7.09484 6.65678
#
# Compressibility (1/GPa) = 0.02893239
#
# Stress axis : x y z
#
# Youngs Moduli (GPa) = 25.48271 37.76015 109.63482
#
# Poissons Ratio (x) = 0.61043 0.17262
# Poissons Ratio (y) = 0.41195 0.57192
# Poissons Ratio (z) = 0.04012 0.19698
#
# Static dielectric constant tensor:
#      x y z
#    x 2.670900 0.000000 0.000000 
#    y 0.000000 2.880100 0.000000 
#    z 0.000000 0.000000 3.233980 
# 
# 
# High freq. dielectric constant tensor:
#      x y z
#    x 1.526360 0.000000 0.000000 
#    y 0.000000 1.558560 0.000000 
#    z 0.000000 0.000000 1.604320 
# 
# From -- ./inp_files/8078.got.cif
#   From: 2010.03.12/outbox.cif.g09.slc.cpg/sg63_5_cif.got.tgz:8078.got - 2010.04.10 19:34:48.
