data_PCOD8260767
_publ_section_title
;
Structure prediction by ZEFSAII (Michael W. Deem and Ramdas Pophale) SiO2 
 PCOD8260767
Probable space group: C M C M
;
_chemical_formula_sum "Si O2"
_cell_formula_units_Z 72
_cell_length_a 25.142528
_cell_length_b 9.824807
_cell_length_c 13.965412
_cell_angle_alpha 90.000000
_cell_angle_beta 90.000000
_cell_angle_gamma 90.000000
_cell_volume 3449.742847
_symmetry_space_group_name_H-M "C M C M"
_symmetry_group_IT_number 63
_symmetry_cell_setting 'orthorhombic'
loop_
_space_group_symop_operation_xyz
x,y,z
-x,-y,1/2+z
x,-y,-z
-x,y,1/2-z
-x,-y,-z
x,y,1/2-z
-x,y,z
x,-y,1/2+z
1/2+x,1/2+y,z
1/2-x,1/2-y,1/2+z
1/2+x,1/2-y,-z
1/2-x,1/2+y,1/2-z
1/2-x,1/2-y,-z
1/2+x,1/2+y,1/2-z
1/2-x,1/2+y,z
1/2+x,1/2-y,1/2+z
loop_
_atom_site_type_symbol
_atom_site_label
_atom_site_fract_x
_atom_site_fract_y
_atom_site_fract_z
Si Si1 0.716413 0.000000 0.500000
Si Si2 0.935778 0.547309 0.250000
Si Si3 0.633319 0.808695 0.906536
Si Si4 0.893733 0.119399 0.434221
Si Si5 0.060356 0.758327 0.750000
Si Si6 0.197310 0.947216 0.357266
O O1 0.681316 0.091835 0.430872
O O2 0.752755 0.086216 0.574314
O O3 0.912297 0.619524 0.344317
O O4 0.912957 0.391699 0.250000
O O5 0.000000 0.560851 0.250000
O O6 0.657364 0.679981 0.850583
O O7 0.607423 0.759140 0.006036
O O8 0.927780 0.147591 0.340711
O O9 0.919690 0.000000 0.500000
O O10 0.834106 0.075918 0.402572
O O11 0.000000 0.719367 0.750000
O O12 0.216670 0.983358 0.250000
#
# Coordination Sequence:
#
# PCOD8260767 Si02
#       6
#     8   8  16  16   8  16
#     4  12  24  40  63 102 137 180 208 274 330 400
#     4  11  26  47  72  96 129 179 227 287 337 395
#     4  11  23  44  64  98 133 172 229 266 334 402
#     4  10  22  42  67  92 136 176 217 282 330 397
#     4  11  24  43  66  98 127 167 231 285 347 395
#     4  11  22  39  64  96 136 173 219 265 323 399
#
# _framework density 20.871120999999999
#
# number of rings (size 3 to 8) (size 9 to 14) (size 15 to 20)
#    0.000    1.111    5.556    2.000    1.556    1.333 
#    2.000   10.556    0.000    0.000    0.000    0.000 
#    0.000    0.000    0.000    0.000    0.000    0.000 
#
# Total GULP energy -446313.793946 kJ/mol
# GULP energy per Si atom -12397.605387 kJ/mol
# Density = 2.082362 g / cm^3
# Si number density = 20.871121 Si / 1000 Ang^3
#
#
#
# Elastic Constant Matrix: (Units=GPa)
#
#
# Indices 1 2 3 4 5 6 
#
# 1 94.8823 43.4946 56.1204 0.0000 0.0000 0.0000
# 2 43.4946 89.6253 54.1535 0.0000 0.0000 0.0000
# 3 56.1204 54.1535 170.5057 0.0000 0.0000 0.0000
# 4 0.0000 0.0000 0.0000 52.3626 0.0000 0.0000
# 5 0.0000 0.0000 0.0000 0.0000 28.8320 0.0000
# 6 0.0000 0.0000 0.0000 0.0000 0.0000 19.3110
#
#
#
# Elastic Compliance Matrix: (Units=1/GPa)
#
#
# Indices 1 2 3 4 5 6 
#
# 1 0.014856 -0.005266 -0.003217 0.000000 0.000000 0.000000
# 2 -0.005266 0.015674 -0.003245 0.000000 0.000000 0.000000
# 3 -0.003217 -0.003245 0.007954 0.000000 0.000000 0.000000
# 4 0.000000 0.000000 0.000000 0.019098 0.000000 0.000000
# 5 0.000000 0.000000 0.000000 0.000000 0.034684 0.000000
# 6 0.000000 0.000000 0.000000 0.000000 0.000000 0.051784
#
#
# Mechanical properties :
#
#
# Convention : Reuss Voigt Hill
#
# Bulk Modulus (GPa) = 66.54039 73.61667 70.07853
# Shear Modulus (GPa) = 28.98307 33.51744 31.25026
#
# Velocity S-wave (km/s) = 3.73053 4.01175 3.87369
# Velocity P-wave (km/s) = 7.10680 7.53707 7.32509
#
# Compressibility (1/GPa) = 0.01502847
#
# Stress axis : x y z
#
# Youngs Moduli (GPa) = 67.31219 63.80183 125.71545
#
# Poissons Ratio (x) = 0.33595 0.40448
# Poissons Ratio (y) = 0.35444 0.40793
# Poissons Ratio (z) = 0.21657 0.20703
#
# Static dielectric constant tensor:
#      x y z
#    x 3.506170 0.000000 0.000000 
#    y 0.000000 3.848900 0.000000 
#    z 0.000000 0.000000 3.907130 
# 
# 
# High freq. dielectric constant tensor:
#      x y z
#    x 1.793400 0.000000 0.000000 
#    y 0.000000 1.816830 0.000000 
#    z 0.000000 0.000000 1.839060 
# 
# From -- ./inp_files/37583.got.cif
#   From: 2010.03.12/outbox.cif.g09.slc.cpg/sg63_19_cif.got.tgz:37583.got - 2010.04.10 19:34:48.
