data_PCOD8260108
_publ_section_title
;
Structure prediction by ZEFSAII (Michael W. Deem and Ramdas Pophale) SiO2 
 PCOD8260108
Probable space group: C M C M
;
_chemical_formula_sum "Si O2"
_cell_formula_units_Z 80
_cell_length_a 16.672193
_cell_length_b 9.520264
_cell_length_c 25.700217
_cell_angle_alpha 90.000000
_cell_angle_beta 90.000000
_cell_angle_gamma 90.000000
_cell_volume 4079.232989
_symmetry_space_group_name_H-M "C M C M"
_symmetry_group_IT_number 63
_symmetry_cell_setting 'orthorhombic'
loop_
_space_group_symop_operation_xyz
x,y,z
-x,-y,1/2+z
x,-y,-z
-x,y,1/2-z
-x,-y,-z
x,y,1/2-z
-x,y,z
x,-y,1/2+z
1/2+x,1/2+y,z
1/2-x,1/2-y,1/2+z
1/2+x,1/2-y,-z
1/2-x,1/2+y,1/2-z
1/2-x,1/2-y,-z
1/2+x,1/2+y,1/2-z
1/2-x,1/2+y,z
1/2+x,1/2-y,1/2+z
loop_
_atom_site_type_symbol
_atom_site_label
_atom_site_fract_x
_atom_site_fract_y
_atom_site_fract_z
Si Si1 0.405862 0.253607 0.810644
Si Si2 0.849905 0.020290 0.387904
Si Si3 0.095546 0.747084 0.964307
Si Si4 0.666473 0.036963 0.885853
Si Si5 0.409846 0.765061 0.582632
O O1 0.387138 0.256789 0.750000
O O2 0.500000 0.249432 0.823100
O O3 0.367879 0.393422 0.835535
O O4 0.365205 0.114947 0.834391
O O5 0.863319 0.118494 0.437860
O O6 0.761758 0.954286 0.387783
O O7 0.908565 0.887000 0.390451
O O8 0.127376 0.605958 0.937140
O O9 0.000000 0.758501 0.958187
O O10 0.123583 0.745420 0.023879
O O11 0.642465 0.873675 0.883898
O O12 0.500000 0.822278 0.581728
#
# Coordination Sequence:
#
# PCOD8260108 Si02
#       5
#    16  16  16  16  16
#     4  10  22  43  65  79 103 148 189 223 279 350
#     4  11  22  36  56  84 115 144 182 232 279 325
#     4  10  21  37  55  78 116 162 192 212 260 334
#     4  11  22  36  56  84 115 144 182 232 279 325
#     4  11  21  34  56  84 114 149 190 233 266 308
#
# _framework density 19.611530999999999
#
# number of rings (size 3 to 8) (size 9 to 14) (size 15 to 20)
#    0.000    1.400    0.000    8.400    0.000    8.800 
#    0.000    1.000    0.000    3.600    0.000    0.000 
#    0.000    0.000    0.000    0.000    0.000    0.000 
#
# Total GULP energy -496206.745286 kJ/mol
# GULP energy per Si atom -12405.168632 kJ/mol
# Density = 1.956689 g / cm^3
# Si number density = 19.611531 Si / 1000 Ang^3
#
#
#
# Elastic Constant Matrix: (Units=GPa)
#
#
# Indices 1 2 3 4 5 6 
#
# 1 94.1897 21.2382 39.3302 0.0000 0.0000 0.0000
# 2 21.2382 125.7081 51.8341 0.0000 0.0000 0.0000
# 3 39.3302 51.8341 120.6501 0.0000 0.0000 0.0000
# 4 0.0000 0.0000 0.0000 19.1702 0.0000 0.0000
# 5 0.0000 0.0000 0.0000 0.0000 9.5125 0.0000
# 6 0.0000 0.0000 0.0000 0.0000 0.0000 38.2598
#
#
#
# Elastic Compliance Matrix: (Units=1/GPa)
#
#
# Indices 1 2 3 4 5 6 
#
# 1 0.012317 -0.000517 -0.003793 0.000000 0.000000 0.000000
# 2 -0.000517 0.009689 -0.003994 0.000000 0.000000 0.000000
# 3 -0.003793 -0.003994 0.011241 0.000000 0.000000 0.000000
# 4 0.000000 0.000000 0.000000 0.052164 0.000000 0.000000
# 5 0.000000 0.000000 0.000000 0.000000 0.105125 0.000000
# 6 0.000000 0.000000 0.000000 0.000000 0.000000 0.026137
#
#
# Mechanical properties :
#
#
# Convention : Reuss Voigt Hill
#
# Bulk Modulus (GPa) = 60.10020 62.81698 61.45859
# Shear Modulus (GPa) = 20.93548 28.59819 24.76683
#
# Velocity S-wave (km/s) = 3.27082 3.82283 3.55754
# Velocity P-wave (km/s) = 6.70643 7.18230 6.94844
#
# Compressibility (1/GPa) = 0.01663888
#
# Stress axis : x y z
#
# Youngs Moduli (GPa) = 81.18642 103.20734 88.96041
#
# Poissons Ratio (x) = 0.05335 0.33744
# Poissons Ratio (y) = 0.04197 0.35533
# Poissons Ratio (z) = 0.30795 0.41223
#
# Static dielectric constant tensor:
#      x y z
#    x 3.603270 0.000000 0.000000 
#    y 0.000000 3.589750 0.000000 
#    z 0.000000 0.000000 3.420080 
# 
# 
# High freq. dielectric constant tensor:
#      x y z
#    x 1.774690 0.000000 0.000000 
#    y 0.000000 1.776900 0.000000 
#    z 0.000000 0.000000 1.743930 
# 
# From -- ./inp_files/48818.got.cif
#   From: 2010.03.12/outbox.cif.g09.slc.cpg/sg63_25_cif.got.tgz:48818.got - 2010.04.10 19:34:48.
