data_PCOD8260370
_publ_section_title
;
Structure prediction by ZEFSAII (Michael W. Deem and Ramdas Pophale) SiO2 
 PCOD8260370
Probable space group: C M C M
;
_chemical_formula_sum "Si O2"
_cell_formula_units_Z 72
_cell_length_a 13.772817
_cell_length_b 16.437320
_cell_length_c 14.526650
_cell_angle_alpha 90.000000
_cell_angle_beta 90.000000
_cell_angle_gamma 90.000000
_cell_volume 3288.662150
_symmetry_space_group_name_H-M "C M C M"
_symmetry_group_IT_number 63
_symmetry_cell_setting 'orthorhombic'
loop_
_space_group_symop_operation_xyz
x,y,z
-x,-y,1/2+z
x,-y,-z
-x,y,1/2-z
-x,-y,-z
x,y,1/2-z
-x,y,z
x,-y,1/2+z
1/2+x,1/2+y,z
1/2-x,1/2-y,1/2+z
1/2+x,1/2-y,-z
1/2-x,1/2+y,1/2-z
1/2-x,1/2-y,-z
1/2+x,1/2+y,1/2-z
1/2-x,1/2+y,z
1/2+x,1/2-y,1/2+z
loop_
_atom_site_type_symbol
_atom_site_label
_atom_site_fract_x
_atom_site_fract_y
_atom_site_fract_z
Si Si1 0.393893 0.293566 0.443945
Si Si2 0.886464 0.990954 0.750000
Si Si3 0.111215 0.315615 0.393034
Si Si4 0.234192 0.061946 0.919486
Si Si5 0.393466 0.783373 0.750000
Si Si6 0.817263 0.813073 0.750000
O O1 0.500000 0.327604 0.469569
O O2 0.376782 0.210065 0.500219
O O3 0.319291 0.363715 0.470643
O O4 0.385994 0.276144 0.336220
O O5 0.833748 0.023838 0.658822
O O6 0.000000 0.017233 0.750000
O O7 0.882049 0.893364 0.750000
O O8 0.166828 0.400938 0.375748
O O9 0.159329 0.241320 0.338360
O O10 0.000000 0.328666 0.362715
O O11 0.262101 0.000000 0.000000
O O12 0.500000 0.829246 0.750000
O O13 0.297589 0.840635 0.750000
#
# Coordination Sequence:
#
# PCOD8260370 Si02
#       6
#    16   8  16  16   8   8
#     4  10  21  40  67  94 126 169 217 266 313 382
#     4  12  28  45  65  99 133 169 212 268 334 391
#     4  11  24  43  67  95 127 174 227 266 313 380
#     4  12  25  41  65  96 137 172 207 266 332 387
#     4  10  21  38  67  98 124 159 215 269 316 372
#     4  12  23  43  72  93 127 170 217 271 318 377
#
# _framework density 21.893402999999999
#
# number of rings (size 3 to 8) (size 9 to 14) (size 15 to 20)
#    0.000    0.889    2.222    5.000    3.111    4.889 
#    0.000    1.111    0.000    0.000    0.000    0.000 
#    0.000    0.000    0.000    0.000    0.000    0.000 
#
# Total GULP energy -446309.144931 kJ/mol
# GULP energy per Si atom -12397.476248 kJ/mol
# Density = 2.184357 g / cm^3
# Si number density = 21.893403 Si / 1000 Ang^3
#
#
#
# Elastic Constant Matrix: (Units=GPa)
#
#
# Indices 1 2 3 4 5 6 
#
# 1 178.1192 47.9065 34.3883 0.0000 0.0000 0.0000
# 2 47.9065 84.7300 39.3455 0.0000 0.0000 0.0000
# 3 34.3883 39.3455 100.9755 0.0000 0.0000 0.0000
# 4 0.0000 0.0000 0.0000 26.4846 0.0000 0.0000
# 5 0.0000 0.0000 0.0000 0.0000 24.9534 0.0000
# 6 0.0000 0.0000 0.0000 0.0000 0.0000 32.5263
#
#
#
# Elastic Compliance Matrix: (Units=1/GPa)
#
#
# Indices 1 2 3 4 5 6 
#
# 1 0.006700 -0.003332 -0.000984 0.000000 0.000000 0.000000
# 2 -0.003332 0.016066 -0.005126 0.000000 0.000000 0.000000
# 3 -0.000984 -0.005126 0.012236 0.000000 0.000000 0.000000
# 4 0.000000 0.000000 0.000000 0.037758 0.000000 0.000000
# 5 0.000000 0.000000 0.000000 0.000000 0.040075 0.000000
# 6 0.000000 0.000000 0.000000 0.000000 0.000000 0.030744
#
#
# Mechanical properties :
#
#
# Convention : Reuss Voigt Hill
#
# Bulk Modulus (GPa) = 62.03401 67.45615 64.74508
# Shear Modulus (GPa) = 29.79141 32.93847 31.36494
#
# Velocity S-wave (km/s) = 3.69283 3.88299 3.78910
# Velocity P-wave (km/s) = 6.82486 7.14013 6.98428
#
# Compressibility (1/GPa) = 0.01612019
#
# Stress axis : x y z
#
# Youngs Moduli (GPa) = 149.25010 62.24335 81.72865
#
# Poissons Ratio (x) = 0.20736 0.08039
# Poissons Ratio (y) = 0.49723 0.41891
# Poissons Ratio (z) = 0.14681 0.31903
#
# Static dielectric constant tensor:
#      x y z
#    x 4.443200 0.000000 0.000000 
#    y 0.000000 3.699070 0.000000 
#    z 0.000000 0.000000 4.035030 
# 
# 
# High freq. dielectric constant tensor:
#      x y z
#    x 1.883430 0.000000 0.000000 
#    y 0.000000 1.829390 0.000000 
#    z 0.000000 0.000000 1.870530 
# 
# From -- ./inp_files/31499.got.cif
#   From: 2010.03.12/outbox.cif.g09.slc.cpg/sg63_16_cif.got.tgz:31499.got - 2010.04.10 19:34:48.
