data_PCOD8260902
_publ_section_title
;
Structure prediction by ZEFSAII (Michael W. Deem and Ramdas Pophale) SiO2 
 PCOD8260902
Probable space group: C M C M
;
_chemical_formula_sum "Si O2"
_cell_formula_units_Z 64
_cell_length_a 10.287157
_cell_length_b 18.779291
_cell_length_c 17.733216
_cell_angle_alpha 90.000000
_cell_angle_beta 90.000000
_cell_angle_gamma 90.000000
_cell_volume 3425.800463
_symmetry_space_group_name_H-M "C M C M"
_symmetry_group_IT_number 63
_symmetry_cell_setting 'orthorhombic'
loop_
_space_group_symop_operation_xyz
x,y,z
-x,-y,1/2+z
x,-y,-z
-x,y,1/2-z
-x,-y,-z
x,y,1/2-z
-x,y,z
x,-y,1/2+z
1/2+x,1/2+y,z
1/2-x,1/2-y,1/2+z
1/2+x,1/2-y,-z
1/2-x,1/2+y,1/2-z
1/2-x,1/2-y,-z
1/2+x,1/2+y,1/2-z
1/2-x,1/2+y,z
1/2+x,1/2-y,1/2+z
loop_
_atom_site_type_symbol
_atom_site_label
_atom_site_fract_x
_atom_site_fract_y
_atom_site_fract_z
Si Si1 0.645927 0.218360 0.750000
Si Si2 0.209127 0.351501 0.750000
Si Si3 0.500000 0.815050 0.868581
Si Si4 0.352614 0.998901 0.250000
Si Si5 0.500000 0.914297 0.486038
Si Si6 0.000000 0.151602 0.656317
Si Si7 0.777980 0.387537 0.129577
O O1 0.500000 0.193122 0.750000
O O2 0.661238 0.303517 0.750000
O O3 0.708599 0.186616 0.674540
O O4 0.129921 0.333501 0.675557
O O5 0.246499 0.434624 0.750000
O O6 0.500000 0.729941 0.881351
O O7 0.500000 0.865738 0.940646
O O8 0.500000 0.029317 0.250000
O O9 0.330997 0.953844 0.175968
O O10 0.634050 0.889793 0.445089
O O11 0.500000 0.000000 0.500000
O O12 0.878106 0.107522 0.620935
O O13 0.000000 0.154048 0.750000
#
# Coordination Sequence:
#
# PCOD8260902 Si02
#       7
#     8   8   8   8   8   8  16
#     4  11  19  37  64  89 122 155 202 266 290 357
#     4  11  20  37  59  91 120 149 204 262 304 356
#     4  11  20  36  64  82 117 157 200 247 315 359
#     4  11  18  32  63  88 117 157 202 258 296 357
#     4  12  25  40  61  90 123 162 206 259 302 367
#     4  12  20  40  65  91 120 161 203 257 306 367
#     4  11  21  38  62  90 121 159 210 246 303 361
#
# _framework density 18.681766
#
# number of rings (size 3 to 8) (size 9 to 14) (size 15 to 20)
#    0.000    0.750   10.000    2.250    0.000    1.000 
#    2.250    0.625    0.000    0.000    0.000    0.000 
#    0.000    0.000    0.000    0.000    0.000    0.000 
#
# Total GULP energy -396507.846539 kJ/mol
# GULP energy per Si atom -12390.870204 kJ/mol
# Density = 1.863925 g / cm^3
# Si number density = 18.681766 Si / 1000 Ang^3
#
#
#
# Elastic Constant Matrix: (Units=GPa)
#
#
# Indices 1 2 3 4 5 6 
#
# 1 119.8865 18.5388 38.2453 0.0000 0.0000 0.0000
# 2 18.5388 108.7769 28.7300 0.0000 0.0000 0.0000
# 3 38.2453 28.7300 95.6072 0.0000 0.0000 0.0000
# 4 0.0000 0.0000 0.0000 -33.6731 0.0000 0.0000
# 5 0.0000 0.0000 0.0000 0.0000 -64.3379 0.0000
# 6 0.0000 0.0000 0.0000 0.0000 0.0000 29.9901
#
#
#
# Elastic Compliance Matrix: (Units=1/GPa)
#
#
# Indices 1 2 3 4 5 6 
#
# 1 0.009607 -0.000676 -0.003640 0.000000 0.000000 0.000000
# 2 -0.000676 0.010033 -0.002745 0.000000 0.000000 0.000000
# 3 -0.003640 -0.002745 0.012740 0.000000 0.000000 0.000000
# 4 0.000000 0.000000 0.000000 -0.029697 0.000000 0.000000
# 5 0.000000 0.000000 0.000000 0.000000 -0.015543 0.000000
# 6 0.000000 0.000000 0.000000 0.000000 0.000000 0.033344
#
#
# Mechanical properties :
#
#
# Convention : Reuss Voigt Hill
#
# Bulk Modulus (GPa) = 54.76583 55.03319 54.89951
# Shear Modulus (GPa) = 122.87446 2.31291 62.59368
#
# Velocity S-wave (km/s) = 8.11882 1.11389 5.79465
# Velocity P-wave (km/s) = 10.82893 5.58359 8.61517
#
# Compressibility (1/GPa) = 0.01825956
#
# Stress axis : x y z
#
# Youngs Moduli (GPa) = 104.09157 99.66882 78.49127
#
# Poissons Ratio (x) = 0.06737 0.28570
# Poissons Ratio (y) = 0.07036 0.21543
# Poissons Ratio (z) = 0.37888 0.27355
#
# Static dielectric constant tensor:
#      x y z
#    x 3.520720 0.000000 0.000000 
#    y 0.000000 3.540900 0.000000 
#    z 0.000000 0.000000 3.393810 
# 
# 
# High freq. dielectric constant tensor:
#      x y z
#    x 1.724340 0.000000 0.000000 
#    y 0.000000 1.733050 0.000000 
#    z 0.000000 0.000000 1.699360 
# 
# From -- ./inp_files/41813.got.cif
#   From: 2010.03.12/outbox.cif.g09.slc.cpg/sg63_21_cif.got.tgz:41813.got - 2010.04.10 19:34:48.
