data_PCOD8260815
_publ_section_title
;
Structure prediction by ZEFSAII (Michael W. Deem and Ramdas Pophale) SiO2 
 PCOD8260815
Probable space group: C M C M
;
_chemical_formula_sum "Si O2"
_cell_formula_units_Z 72
_cell_length_a 15.329327
_cell_length_b 26.394858
_cell_length_c 8.514097
_cell_angle_alpha 90.000000
_cell_angle_beta 90.000000
_cell_angle_gamma 90.000000
_cell_volume 3444.934843
_symmetry_space_group_name_H-M "C M C M"
_symmetry_group_IT_number 63
_symmetry_cell_setting 'orthorhombic'
loop_
_space_group_symop_operation_xyz
x,y,z
-x,-y,1/2+z
x,-y,-z
-x,y,1/2-z
-x,-y,-z
x,y,1/2-z
-x,y,z
x,-y,1/2+z
1/2+x,1/2+y,z
1/2-x,1/2-y,1/2+z
1/2+x,1/2-y,-z
1/2-x,1/2+y,1/2-z
1/2-x,1/2-y,-z
1/2+x,1/2+y,1/2-z
1/2-x,1/2+y,z
1/2+x,1/2-y,1/2+z
loop_
_atom_site_type_symbol
_atom_site_label
_atom_site_fract_x
_atom_site_fract_y
_atom_site_fract_z
Si Si1 0.673765 0.284021 0.566266
Si Si2 0.000000 0.262099 0.935197
Si Si3 0.500000 0.444104 0.065161
Si Si4 0.500000 0.875858 0.936059
Si Si5 0.842304 0.554144 0.436975
Si Si6 0.322264 0.392846 0.435292
O O1 0.666480 0.275648 0.750000
O O2 0.750000 0.250000 0.500000
O O3 0.583375 0.269194 0.487526
O O4 0.697468 0.341645 0.528361
O O5 0.000000 0.318989 0.007277
O O6 0.000000 0.265817 0.750000
O O7 0.500000 0.448263 0.250000
O O8 0.585042 0.414212 0.006117
O O9 0.500000 0.500000 0.000000
O O10 0.500000 0.873835 0.750000
O O11 0.586405 0.904863 0.993865
O O12 0.874155 0.500000 0.500000
O O13 0.832069 0.553281 0.250000
O O14 0.750765 0.566587 0.518613
O O15 0.321767 0.382462 0.250000
#
# Coordination Sequence:
#
# PCOD8260815 Si02
#       6
#    16   8   8   8  16  16
#     4  12  25  42  64  93 126 165 209 258 313 374
#     4  11  22  41  66  93 125 164 209 261 312 368
#     4  10  23  40  61  87 120 158 199 246 301 360
#     4   9  21  39  61  86 118 158 201 247 301 358
#     4  11  22  39  61  89 122 160 203 251 305 366
#     4  11  23  41  63  90 121 159 204 255 310 368
#
# _framework density 20.90025
#
# number of rings (size 3 to 8) (size 9 to 14) (size 15 to 20)
#    0.000    1.111    0.000    6.667    0.000    6.222 
#    0.000    5.000    0.000    0.000    0.000    0.000 
#    0.000    0.000    0.000    0.000    0.000    0.000 
#
# Total GULP energy -446653.925394 kJ/mol
# GULP energy per Si atom -12407.053483 kJ/mol
# Density = 2.085268 g / cm^3
# Si number density = 20.900250 Si / 1000 Ang^3
#
#
#
# Elastic Constant Matrix: (Units=GPa)
#
#
# Indices 1 2 3 4 5 6 
#
# 1 114.3833 10.9688 26.1835 0.0000 0.0000 0.0000
# 2 10.9688 103.4054 18.0864 0.0000 0.0000 0.0000
# 3 26.1835 18.0864 71.7876 0.0000 0.0000 0.0000
# 4 0.0000 0.0000 0.0000 38.8940 0.0000 0.0000
# 5 0.0000 0.0000 0.0000 0.0000 26.6177 0.0000
# 6 0.0000 0.0000 0.0000 0.0000 0.0000 -21.3347
#
#
#
# Elastic Compliance Matrix: (Units=1/GPa)
#
#
# Indices 1 2 3 4 5 6 
#
# 1 0.009557 -0.000423 -0.003379 0.000000 0.000000 0.000000
# 2 -0.000423 0.010135 -0.002399 0.000000 0.000000 0.000000
# 3 -0.003379 -0.002399 0.015767 0.000000 0.000000 0.000000
# 4 0.000000 0.000000 0.000000 0.025711 0.000000 0.000000
# 5 0.000000 0.000000 0.000000 0.000000 0.037569 0.000000
# 6 0.000000 0.000000 0.000000 0.000000 0.000000 -0.046872
#
#
# Mechanical properties :
#
#
# Convention : Reuss Voigt Hill
#
# Bulk Modulus (GPa) = 43.37182 44.45040 43.91111
# Shear Modulus (GPa) = 69.48844 24.45791 46.97317
#
# Velocity S-wave (km/s) = 5.77233 3.42456 4.74592
# Velocity P-wave (km/s) = 8.07610 6.07872 7.14752
#
# Compressibility (1/GPa) = 0.02305645
#
# Stress axis : x y z
#
# Youngs Moduli (GPa) = 104.63987 98.66629 63.42378
#
# Poissons Ratio (x) = 0.04170 0.21432
# Poissons Ratio (y) = 0.04423 0.15217
# Poissons Ratio (z) = 0.35359 0.23673
#
# Static dielectric constant tensor:
#      x y z
#    x 3.806180 0.000000 0.000000 
#    y 0.000000 3.899730 0.000000 
#    z 0.000000 0.000000 3.710180 
# 
# 
# High freq. dielectric constant tensor:
#      x y z
#    x 1.836300 0.000000 0.000000 
#    y 0.000000 1.836260 0.000000 
#    z 0.000000 0.000000 1.815160 
# 
# From -- ./inp_files/4744.got.cif
#   From: 2010.03.12/outbox.cif.g09.slc.cpg/sg63_3_cif.got.tgz:4744.got - 2010.04.10 19:34:48.
