data_PCOD8260249
_publ_section_title
;
Structure prediction by ZEFSAII (Michael W. Deem and Ramdas Pophale) SiO2 
 PCOD8260249
Probable space group: C M C M
;
_chemical_formula_sum "Si O2"
_cell_formula_units_Z 80
_cell_length_a 17.970568
_cell_length_b 27.661434
_cell_length_c 8.683563
_cell_angle_alpha 90.000000
_cell_angle_beta 90.000000
_cell_angle_gamma 90.000000
_cell_volume 4316.526926
_symmetry_space_group_name_H-M "C M C M"
_symmetry_group_IT_number 63
_symmetry_cell_setting 'orthorhombic'
loop_
_space_group_symop_operation_xyz
x,y,z
-x,-y,1/2+z
x,-y,-z
-x,y,1/2-z
-x,-y,-z
x,y,1/2-z
-x,y,z
x,-y,1/2+z
1/2+x,1/2+y,z
1/2-x,1/2-y,1/2+z
1/2+x,1/2-y,-z
1/2-x,1/2+y,1/2-z
1/2-x,1/2-y,-z
1/2+x,1/2+y,1/2-z
1/2-x,1/2+y,z
1/2+x,1/2-y,1/2+z
loop_
_atom_site_type_symbol
_atom_site_label
_atom_site_fract_x
_atom_site_fract_y
_atom_site_fract_z
Si Si1 0.200942 0.149022 0.568570
Si Si2 0.227806 0.550145 0.929718
Si Si3 0.845155 0.308492 0.570216
Si Si4 0.916964 0.397649 0.070934
Si Si5 0.586280 0.285487 0.929016
O O1 0.187215 0.152570 0.750000
O O2 0.219345 0.094110 0.516418
O O3 0.269498 0.183821 0.524898
O O4 0.127343 0.164975 0.477077
O O5 0.232534 0.543829 0.750000
O O6 0.142713 0.561904 0.981029
O O7 0.255536 0.500000 0.000000
O O8 0.826630 0.311105 0.750000
O O9 0.905734 0.348935 0.525924
O O10 0.879283 0.256871 0.530992
O O11 0.904466 0.384368 0.250000
O O12 0.000000 0.417682 0.040431
O O13 0.598781 0.274041 0.750000
O O14 0.500000 0.291885 0.968531
#
# Coordination Sequence:
#
# PCOD8260249 Si02
#       5
#    16  16  16  16  16
#     4  10  21  38  57  77 104 137 174 214 256 303
#     4   9  19  34  53  76 100 131 170 214 263 310
#     4  11  21  33  52  78 108 142 179 213 248 297
#     4   9  18  33  50  71 105 144 178 214 256 300
#     4  11  23  37  54  78 108 139 170 209 258 307
#
# _framework density 18.533417
#
# number of rings (size 3 to 8) (size 9 to 14) (size 15 to 20)
#    0.000    2.000    0.000    5.400    0.000    8.800 
#    0.000    0.000    0.000    0.600    0.000    0.000 
#    0.000    0.000    0.000    0.000    0.000    0.000 
#
# Total GULP energy -496069.609183 kJ/mol
# GULP energy per Si atom -12401.740230 kJ/mol
# Density = 1.849123 g / cm^3
# Si number density = 18.533417 Si / 1000 Ang^3
#
#
#
# Elastic Constant Matrix: (Units=GPa)
#
#
# Indices 1 2 3 4 5 6 
#
# 1 86.8318 50.7195 17.8716 0.0000 0.0000 0.0000
# 2 50.7195 119.8818 24.9583 0.0000 0.0000 0.0000
# 3 17.8716 24.9583 45.3174 0.0000 0.0000 0.0000
# 4 0.0000 0.0000 0.0000 30.7157 0.0000 0.0000
# 5 0.0000 0.0000 0.0000 0.0000 26.6973 0.0000
# 6 0.0000 0.0000 0.0000 0.0000 0.0000 13.5528
#
#
#
# Elastic Compliance Matrix: (Units=1/GPa)
#
#
# Indices 1 2 3 4 5 6 
#
# 1 0.015615 -0.006014 -0.002846 0.000000 0.000000 0.000000
# 2 -0.006014 0.011738 -0.004093 0.000000 0.000000 0.000000
# 3 -0.002846 -0.004093 0.025443 0.000000 0.000000 0.000000
# 4 0.000000 0.000000 0.000000 0.032557 0.000000 0.000000
# 5 0.000000 0.000000 0.000000 0.000000 0.037457 0.000000
# 6 0.000000 0.000000 0.000000 0.000000 0.000000 0.073786
#
#
# Mechanical properties :
#
#
# Convention : Reuss Voigt Hill
#
# Bulk Modulus (GPa) = 37.18775 48.79220 42.98997
# Shear Modulus (GPa) = 21.60158 24.75859 23.18008
#
# Velocity S-wave (km/s) = 3.41772 3.65895 3.54039
# Velocity P-wave (km/s) = 5.97354 6.65089 6.32129
#
# Compressibility (1/GPa) = 0.02689058
#
# Stress axis : x y z
#
# Youngs Moduli (GPa) = 64.04070 85.19309 39.30342
#
# Poissons Ratio (x) = 0.51234 0.11185
# Poissons Ratio (y) = 0.38514 0.16087
# Poissons Ratio (z) = 0.18225 0.34869
#
# Static dielectric constant tensor:
#      x y z
#    x 3.429330 0.000000 0.000000 
#    y 0.000000 3.514050 0.000000 
#    z 0.000000 0.000000 3.384700 
# 
# 
# High freq. dielectric constant tensor:
#      x y z
#    x 1.707760 0.000000 0.000000 
#    y 0.000000 1.707520 0.000000 
#    z 0.000000 0.000000 1.722290 
# 
# From -- ./inp_files/6343.got.cif
#   From: 2010.03.12/outbox.cif.g09.slc.cpg/sg63_4_cif.got.tgz:6343.got - 2010.04.10 19:34:48.
