data_PCOD8260053
_publ_section_title
;
Structure prediction by ZEFSAII (Michael W. Deem and Ramdas Pophale) SiO2 
 PCOD8260053
Probable space group: C M C M
;
_chemical_formula_sum "Si O2"
_cell_formula_units_Z 96
_cell_length_a 15.571358
_cell_length_b 22.688645
_cell_length_c 13.919360
_cell_angle_alpha 90.000000
_cell_angle_beta 90.000000
_cell_angle_gamma 90.000000
_cell_volume 4917.612645
_symmetry_space_group_name_H-M "C M C M"
_symmetry_group_IT_number 63
_symmetry_cell_setting 'orthorhombic'
loop_
_space_group_symop_operation_xyz
x,y,z
-x,-y,1/2+z
x,-y,-z
-x,y,1/2-z
-x,-y,-z
x,y,1/2-z
-x,y,z
x,-y,1/2+z
1/2+x,1/2+y,z
1/2-x,1/2-y,1/2+z
1/2+x,1/2-y,-z
1/2-x,1/2+y,1/2-z
1/2-x,1/2-y,-z
1/2+x,1/2+y,1/2-z
1/2-x,1/2+y,z
1/2+x,1/2-y,1/2+z
loop_
_atom_site_type_symbol
_atom_site_label
_atom_site_fract_x
_atom_site_fract_y
_atom_site_fract_z
Si Si1 0.405965 0.024990 0.394679
Si Si2 0.403076 0.279545 0.358042
Si Si3 0.762739 0.040160 0.854707
Si Si4 0.597283 0.443178 0.859908
Si Si5 0.842401 0.347687 0.639770
Si Si6 0.691239 0.637001 0.498090
O O1 0.500000 0.011864 0.347437
O O2 0.393782 0.095245 0.395561
O O3 0.405387 0.000000 0.500000
O O4 0.327759 0.993431 0.340635
O O5 0.371091 0.294937 0.250000
O O6 0.500000 0.301866 0.372034
O O7 0.402081 0.209271 0.373337
O O8 0.343684 0.311245 0.435344
O O9 0.785167 0.067459 0.750000
O O10 0.759009 0.089839 0.935441
O O11 0.837386 0.995290 0.885703
O O12 0.611631 0.421532 0.750000
O O13 0.500000 0.465945 0.873998
O O14 0.614315 0.390788 0.935279
O O15 0.813807 0.356601 0.750000
O O16 0.758287 0.336263 0.576506
#
# Coordination Sequence:
#
# PCOD8260053 Si02
#       6
#    16  16  16  16  16  16
#     4  11  21  37  61  89 118 154 195 241 293 346
#     4  10  23  41  60  85 114 150 200 247 292 348
#     4  11  22  37  56  83 120 158 195 237 291 350
#     4  10  21  36  56  84 118 158 202 241 286 348
#     4  11  22  39  62  86 115 154 197 244 291 346
#     4  12  21  37  58  87 117 153 189 247 295 352
#
# _framework density 19.521667999999998
#
# number of rings (size 3 to 8) (size 9 to 14) (size 15 to 20)
#    0.000    1.167    3.333    3.500    0.000    4.000 
#    0.000    1.667    0.000    0.000    0.000    0.000 
#    0.000    0.000    0.000    0.000    0.000    0.000 
#
# Total GULP energy -595089.597860 kJ/mol
# GULP energy per Si atom -12397.699955 kJ/mol
# Density = 1.947724 g / cm^3
# Si number density = 19.521668 Si / 1000 Ang^3
#
#
#
# Elastic Constant Matrix: (Units=GPa)
#
#
# Indices 1 2 3 4 5 6 
#
# 1 120.7190 33.9492 37.7955 0.0000 0.0000 0.0000
# 2 33.9492 92.2333 49.8553 0.0000 0.0000 0.0000
# 3 37.7955 49.8553 118.2890 0.0000 0.0000 0.0000
# 4 0.0000 0.0000 0.0000 30.9607 0.0000 0.0000
# 5 0.0000 0.0000 0.0000 0.0000 33.2881 0.0000
# 6 0.0000 0.0000 0.0000 0.0000 0.0000 95.8014
#
#
#
# Elastic Compliance Matrix: (Units=1/GPa)
#
#
# Indices 1 2 3 4 5 6 
#
# 1 0.009608 -0.002431 -0.002045 0.000000 0.000000 0.000000
# 2 -0.002431 0.014656 -0.005400 0.000000 0.000000 0.000000
# 3 -0.002045 -0.005400 0.011383 0.000000 0.000000 0.000000
# 4 0.000000 0.000000 0.000000 0.032299 0.000000 0.000000
# 5 0.000000 0.000000 0.000000 0.000000 0.030041 0.000000
# 6 0.000000 0.000000 0.000000 0.000000 0.000000 0.010438
#
#
# Mechanical properties :
#
#
# Convention : Reuss Voigt Hill
#
# Bulk Modulus (GPa) = 62.91644 63.82679 63.37161
# Shear Modulus (GPa) = 37.45993 45.98613 41.72303
#
# Velocity S-wave (km/s) = 4.38527 4.85876 4.62807
# Velocity P-wave (km/s) = 7.61182 8.01518 7.81610
#
# Compressibility (1/GPa) = 0.01589410
#
# Stress axis : x y z
#
# Youngs Moduli (GPa) = 104.08353 68.23205 87.84681
#
# Poissons Ratio (x) = 0.16586 0.17967
# Poissons Ratio (y) = 0.25301 0.47440
# Poissons Ratio (z) = 0.21288 0.36847
#
# Static dielectric constant tensor:
#      x y z
#    x 3.758870 0.000000 0.000000 
#    y 0.000000 3.420230 0.000000 
#    z 0.000000 0.000000 3.718400 
# 
# 
# High freq. dielectric constant tensor:
#      x y z
#    x 1.764960 0.000000 0.000000 
#    y 0.000000 1.740330 0.000000 
#    z 0.000000 0.000000 1.780360 
# 
# From -- ./inp_files/31900.got.cif
#   From: 2010.03.12/outbox.cif.g09.slc.cpg/sg63_16_cif.got.tgz:31900.got - 2010.04.10 19:34:48.
