data_PCOD8260911
_publ_section_title
;
Structure prediction by ZEFSAII (Michael W. Deem and Ramdas Pophale) SiO2 
 PCOD8260911
Probable space group: C M C M
;
_chemical_formula_sum "Si O2"
_cell_formula_units_Z 80
_cell_length_a 13.428286
_cell_length_b 19.686187
_cell_length_c 18.060661
_cell_angle_alpha 90.000000
_cell_angle_beta 90.000000
_cell_angle_gamma 90.000000
_cell_volume 4774.367329
_symmetry_space_group_name_H-M "C M C M"
_symmetry_group_IT_number 63
_symmetry_cell_setting 'orthorhombic'
loop_
_space_group_symop_operation_xyz
x,y,z
-x,-y,1/2+z
x,-y,-z
-x,y,1/2-z
-x,-y,-z
x,y,1/2-z
-x,y,z
x,-y,1/2+z
1/2+x,1/2+y,z
1/2-x,1/2-y,1/2+z
1/2+x,1/2-y,-z
1/2-x,1/2+y,1/2-z
1/2-x,1/2-y,-z
1/2+x,1/2+y,1/2-z
1/2-x,1/2+y,z
1/2+x,1/2-y,1/2+z
loop_
_atom_site_type_symbol
_atom_site_label
_atom_site_fract_x
_atom_site_fract_y
_atom_site_fract_z
Si Si1 0.612934 0.284908 0.665693
Si Si2 0.781618 0.304652 0.560829
Si Si3 0.616163 0.075082 0.974859
Si Si4 0.193267 0.634997 0.667204
Si Si5 0.111522 0.208664 0.665229
O O1 0.631899 0.308545 0.750000
O O2 0.500000 0.299758 0.641461
O O3 0.685854 0.325358 0.610560
O O4 0.633716 0.205025 0.657680
O O5 0.750000 0.250000 0.500000
O O6 0.822201 0.372217 0.523730
O O7 0.866879 0.273081 0.613197
O O8 0.500000 0.090424 0.984395
O O9 0.648192 0.080539 0.889102
O O10 0.644341 0.000000 0.000000
O O11 0.179561 0.605815 0.750000
O O12 0.310181 0.648126 0.649344
O O13 0.124567 0.233331 0.750000
O O14 0.000000 0.181510 0.650073
#
# Coordination Sequence:
#
# PCOD8260911 Si02
#       5
#    16  16  16  16  16
#     4   9  17  30  52  80 104 130 173 223 263 302
#     4  11  19  31  51  78 106 136 170 217 262 308
#     4  11  23  37  51  75 111 142 172 214 261 311
#     4   9  17  32  52  75 101 136 178 215 253 306
#     4   9  17  30  51  79 106 132 169 217 265 309
#
# _framework density 16.756146000000001
#
# number of rings (size 3 to 8) (size 9 to 14) (size 15 to 20)
#    0.000    2.200    4.000    3.000    0.000    2.000 
#    0.000    2.000    0.000    4.800    0.000    2.800 
#    0.000    0.000    0.000    0.000    0.000    0.000 
#
# Total GULP energy -495928.389349 kJ/mol
# GULP energy per Si atom -12398.209734 kJ/mol
# Density = 1.671801 g / cm^3
# Si number density = 16.756146 Si / 1000 Ang^3
#
#
#
# Elastic Constant Matrix: (Units=GPa)
#
#
# Indices 1 2 3 4 5 6 
#
# 1 120.0948 47.7269 56.0214 0.0000 0.0000 0.0000
# 2 47.7269 84.4094 56.5195 0.0000 0.0000 0.0000
# 3 56.0214 56.5195 113.1459 0.0000 0.0000 0.0000
# 4 0.0000 0.0000 0.0000 22.9433 0.0000 0.0000
# 5 0.0000 0.0000 0.0000 0.0000 30.2667 0.0000
# 6 0.0000 0.0000 0.0000 0.0000 0.0000 20.0429
#
#
#
# Elastic Compliance Matrix: (Units=1/GPa)
#
#
# Indices 1 2 3 4 5 6 
#
# 1 0.011707 -0.004114 -0.003741 0.000000 0.000000 0.000000
# 2 -0.004114 0.019247 -0.007577 0.000000 0.000000 0.000000
# 3 -0.003741 -0.007577 0.014476 0.000000 0.000000 0.000000
# 4 0.000000 0.000000 0.000000 0.043586 0.000000 0.000000
# 5 0.000000 0.000000 0.000000 0.000000 0.033040 0.000000
# 6 0.000000 0.000000 0.000000 0.000000 0.000000 0.049893
#
#
# Mechanical properties :
#
#
# Convention : Reuss Voigt Hill
#
# Bulk Modulus (GPa) = 68.66285 70.90954 69.78620
# Shear Modulus (GPa) = 24.07687 25.14274 24.60980
#
# Velocity S-wave (km/s) = 3.79476 3.87784 3.83652
# Velocity P-wave (km/s) = 7.76318 7.90320 7.83350
#
# Compressibility (1/GPa) = 0.01456392
#
# Stress axis : x y z
#
# Youngs Moduli (GPa) = 85.41878 51.95611 69.08183
#
# Poissons Ratio (x) = 0.21376 0.25845
# Poissons Ratio (y) = 0.35144 0.52345
# Poissons Ratio (z) = 0.31957 0.39369
#
# Static dielectric constant tensor:
#      x y z
#    x 3.476680 0.000000 0.000000 
#    y 0.000000 2.705050 0.000000 
#    z 0.000000 0.000000 3.521090 
# 
# 
# High freq. dielectric constant tensor:
#      x y z
#    x 1.661200 0.000000 0.000000 
#    y 0.000000 1.581820 0.000000 
#    z 0.000000 0.000000 1.666920 
# 
# From -- ./inp_files/44230.got.cif
#   From: 2010.03.12/outbox.cif.g09.slc.cpg/sg63_23_cif.got.tgz:44230.got - 2010.04.10 19:34:48.
