data_PCOD8260854
_publ_section_title
;
Structure prediction by ZEFSAII (Michael W. Deem and Ramdas Pophale) SiO2 
 PCOD8260854
Probable space group: C M C M
;
_chemical_formula_sum "Si O2"
_cell_formula_units_Z 96
_cell_length_a 8.571616
_cell_length_b 20.450404
_cell_length_c 24.401071
_cell_angle_alpha 90.000000
_cell_angle_beta 90.000000
_cell_angle_gamma 90.000000
_cell_volume 4277.337186
_symmetry_space_group_name_H-M "C M C M"
_symmetry_group_IT_number 63
_symmetry_cell_setting 'orthorhombic'
loop_
_space_group_symop_operation_xyz
x,y,z
-x,-y,1/2+z
x,-y,-z
-x,y,1/2-z
-x,-y,-z
x,y,1/2-z
-x,y,z
x,-y,1/2+z
1/2+x,1/2+y,z
1/2-x,1/2-y,1/2+z
1/2+x,1/2-y,-z
1/2-x,1/2+y,1/2-z
1/2-x,1/2-y,-z
1/2+x,1/2+y,1/2-z
1/2-x,1/2+y,z
1/2+x,1/2-y,1/2+z
loop_
_atom_site_type_symbol
_atom_site_label
_atom_site_fract_x
_atom_site_fract_y
_atom_site_fract_z
Si Si1 0.821637 0.204553 0.455766
Si Si2 0.316463 0.469675 0.607839
Si Si3 0.178559 0.232384 0.857116
Si Si4 0.814825 0.399033 0.380609
Si Si5 0.678896 0.132147 0.189354
Si Si6 0.319174 0.080971 0.003867
O O1 0.750000 0.250000 0.500000
O O2 0.805558 0.244771 0.400745
O O3 0.719308 0.139294 0.453843
O O4 0.000000 0.186108 0.467468
O O5 0.500000 0.475675 0.602782
O O6 0.242934 0.530466 0.641916
O O7 0.278549 0.403597 0.641966
O O8 0.249314 0.477040 0.543931
O O9 0.233350 0.157986 0.843747
O O10 0.194504 0.288060 0.810550
O O11 0.000000 0.230048 0.878493
O O12 0.752321 0.397976 0.444201
O O13 0.000000 0.392178 0.375857
O O14 0.733918 0.109666 0.250000
O O15 0.500000 0.112345 0.179035
O O16 0.500000 0.067339 0.997704
#
# Coordination Sequence:
#
# PCOD8260854 Si02
#       6
#    16  16  16  16  16  16
#     4  12  22  33  54  86 125 167 208 250 299 358
#     4  12  25  40  62  92 128 167 211 259 310 371
#     4  11  22  38  63  91 123 159 204 258 312 367
#     4  11  24  40  61  89 129 172 211 252 304 368
#     4  10  23  45  71  94 119 156 204 259 319 377
#     4  11  22  37  58  87 125 170 215 255 299 363
#
# _framework density 22.443871000000001
#
# number of rings (size 3 to 8) (size 9 to 14) (size 15 to 20)
#    0.000    0.833    3.333    5.000    0.000    5.000 
#    0.000    0.833    0.000    3.000    0.000    0.000 
#    0.000    0.000    0.000    0.000    0.000    0.000 
#
# Total GULP energy -594647.084541 kJ/mol
# GULP energy per Si atom -12388.480928 kJ/mol
# Density = 2.239279 g / cm^3
# Si number density = 22.443871 Si / 1000 Ang^3
#
#
#
# Elastic Constant Matrix: (Units=GPa)
#
#
# Indices 1 2 3 4 5 6 
#
# 1 102.6278 24.0864 20.5522 0.0000 0.0000 0.0000
# 2 24.0864 105.1115 -0.2699 0.0000 0.0000 0.0000
# 3 20.5522 -0.2699 69.0232 0.0000 0.0000 0.0000
# 4 0.0000 0.0000 0.0000 21.0472 0.0000 0.0000
# 5 0.0000 0.0000 0.0000 0.0000 18.3903 0.0000
# 6 0.0000 0.0000 0.0000 0.0000 0.0000 36.4019
#
#
#
# Elastic Compliance Matrix: (Units=1/GPa)
#
#
# Indices 1 2 3 4 5 6 
#
# 1 0.010995 -0.002528 -0.003284 0.000000 0.000000 0.000000
# 2 -0.002528 0.010095 0.000792 0.000000 0.000000 0.000000
# 3 -0.003284 0.000792 0.015469 0.000000 0.000000 0.000000
# 4 0.000000 0.000000 0.000000 0.047512 0.000000 0.000000
# 5 0.000000 0.000000 0.000000 0.000000 0.054377 0.000000
# 6 0.000000 0.000000 0.000000 0.000000 0.000000 0.027471
#
#
# Mechanical properties :
#
#
# Convention : Reuss Voigt Hill
#
# Bulk Modulus (GPa) = 37.70776 40.61109 39.15942
# Shear Modulus (GPa) = 27.05670 30.66081 28.85875
#
# Velocity S-wave (km/s) = 3.47584 3.70010 3.58972
# Velocity P-wave (km/s) = 5.73986 6.03226 5.88787
#
# Compressibility (1/GPa) = 0.02651974
#
# Stress axis : x y z
#
# Youngs Moduli (GPa) = 90.95182 99.05882 64.64661
#
# Poissons Ratio (x) = 0.25041 0.21228
# Poissons Ratio (y) = 0.22992 -0.05121
# Poissons Ratio (z) = 0.29866 -0.07847
#
# Static dielectric constant tensor:
#      x y z
#    x 3.601700 0.000000 0.000000 
#    y 0.000000 4.515520 0.000000 
#    z 0.000000 0.000000 3.701340 
# 
# 
# High freq. dielectric constant tensor:
#      x y z
#    x 1.878220 0.000000 0.000000 
#    y 0.000000 1.915910 0.000000 
#    z 0.000000 0.000000 1.844430 
# 
# From -- ./inp_files/66995.got.cif
#   From: 2010.03.12/outbox.cif.g09.slc.cpg/sg63_34_cif.got.tgz:66995.got - 2010.04.10 19:34:48.
