data_PCOD8260822
_publ_section_title
;
Structure prediction by ZEFSAII (Michael W. Deem and Ramdas Pophale) SiO2 
 PCOD8260822
Probable space group: C M C M
;
_chemical_formula_sum "Si O2"
_cell_formula_units_Z 88
_cell_length_a 11.582539
_cell_length_b 15.212040
_cell_length_c 23.574097
_cell_angle_alpha 90.000000
_cell_angle_beta 90.000000
_cell_angle_gamma 90.000000
_cell_volume 4153.615545
_symmetry_space_group_name_H-M "C M C M"
_symmetry_group_IT_number 63
_symmetry_cell_setting 'orthorhombic'
loop_
_space_group_symop_operation_xyz
x,y,z
-x,-y,1/2+z
x,-y,-z
-x,y,1/2-z
-x,-y,-z
x,y,1/2-z
-x,y,z
x,-y,1/2+z
1/2+x,1/2+y,z
1/2-x,1/2-y,1/2+z
1/2+x,1/2-y,-z
1/2-x,1/2+y,1/2-z
1/2-x,1/2-y,-z
1/2+x,1/2+y,1/2-z
1/2-x,1/2+y,z
1/2+x,1/2-y,1/2+z
loop_
_atom_site_type_symbol
_atom_site_label
_atom_site_fract_x
_atom_site_fract_y
_atom_site_fract_z
Si Si1 0.235589 0.523890 0.811962
Si Si2 0.768635 0.146024 0.378084
Si Si3 0.500000 0.698088 0.318354
Si Si4 0.363841 0.666854 0.615994
Si Si5 0.500000 0.099124 0.834790
Si Si6 0.000000 0.416294 0.462596
Si Si7 0.245666 0.649085 0.504658
O O1 0.285857 0.499521 0.750000
O O2 0.207583 0.435407 0.846977
O O3 0.323696 0.594242 0.838955
O O4 0.113228 0.570201 0.801850
O O5 0.890245 0.152072 0.346480
O O6 0.697841 0.237974 0.374019
O O7 0.781492 0.110848 0.443253
O O8 0.500000 0.689049 0.250000
O O9 0.500000 0.796736 0.339629
O O10 0.500000 0.682489 0.621038
O O11 0.332598 0.622214 0.555173
O O12 0.500000 0.057644 0.897254
O O13 0.000000 0.500000 0.500000
O O14 0.114264 0.364625 0.477999
O O15 0.250000 0.750000 0.500000
#
# Coordination Sequence:
#
# PCOD8260822 Si02
#       7
#    16  16   8  16   8   8  16
#     4  12  26  45  68  99 134 180 232 284 339 401
#     4  11  26  44  71 102 135 177 228 281 341 407
#     4  12  24  46  72  95 134 185 235 286 331 399
#     4  11  26  46  68  99 142 181 222 278 350 415
#     4  12  22  44  70  99 129 178 235 282 331 401
#     4  12  22  40  70 101 136 172 219 283 345 401
#     4  10  23  41  68 100 137 174 219 275 344 409
#
# _framework density 21.186361000000002
#
# number of rings (size 3 to 8) (size 9 to 14) (size 15 to 20)
#    0.000    0.727    3.636    3.545    8.909    1.091 
#    0.000    0.909    0.000    0.000    0.000    0.000 
#    0.000    0.000    0.000    0.000    0.000    0.000 
#
# Total GULP energy -545255.956005 kJ/mol
# GULP energy per Si atom -12392.180818 kJ/mol
# Density = 2.113814 g / cm^3
# Si number density = 21.186361 Si / 1000 Ang^3
#
#
#
# Elastic Constant Matrix: (Units=GPa)
#
#
# Indices 1 2 3 4 5 6 
#
# 1 143.9103 20.0771 38.1649 0.0000 0.0000 0.0000
# 2 20.0771 82.9610 26.4343 0.0000 0.0000 0.0000
# 3 38.1649 26.4343 175.4251 0.0000 0.0000 0.0000
# 4 0.0000 0.0000 0.0000 33.1417 0.0000 0.0000
# 5 0.0000 0.0000 0.0000 0.0000 21.6664 0.0000
# 6 0.0000 0.0000 0.0000 0.0000 0.0000 35.9701
#
#
#
# Elastic Compliance Matrix: (Units=1/GPa)
#
#
# Indices 1 2 3 4 5 6 
#
# 1 0.007518 -0.001364 -0.001430 0.000000 0.000000 0.000000
# 2 -0.001364 0.012909 -0.001649 0.000000 0.000000 0.000000
# 3 -0.001430 -0.001649 0.006260 0.000000 0.000000 0.000000
# 4 0.000000 0.000000 0.000000 0.030173 0.000000 0.000000
# 5 0.000000 0.000000 0.000000 0.000000 0.046154 0.000000
# 6 0.000000 0.000000 0.000000 0.000000 0.000000 0.027801
#
#
# Mechanical properties :
#
#
# Convention : Reuss Voigt Hill
#
# Bulk Modulus (GPa) = 56.17180 63.51655 59.84417
# Shear Modulus (GPa) = 34.33233 39.33031 36.83132
#
# Velocity S-wave (km/s) = 4.02990 4.31327 4.17399
# Velocity P-wave (km/s) = 6.94437 7.40613 7.17896
#
# Compressibility (1/GPa) = 0.01780253
#
# Stress axis : x y z
#
# Youngs Moduli (GPa) = 133.00856 77.46419 159.74458
#
# Poissons Ratio (x) = 0.10564 0.22846
# Poissons Ratio (y) = 0.18139 0.26335
# Poissons Ratio (z) = 0.19022 0.12770
#
# Static dielectric constant tensor:
#      x y z
#    x 3.897190 0.000000 0.000000 
#    y 0.000000 3.838010 0.000000 
#    z 0.000000 0.000000 4.275910 
# 
# 
# High freq. dielectric constant tensor:
#      x y z
#    x 1.830160 0.000000 0.000000 
#    y 0.000000 1.835080 0.000000 
#    z 0.000000 0.000000 1.852610 
# 
# From -- ./inp_files/61286.got.cif
#   From: 2010.03.12/outbox.cif.g09.slc.cpg/sg63_31_cif.got.tgz:61286.got - 2010.04.10 19:34:48.
