data_PCOD8260311
_publ_section_title
;
Structure prediction by ZEFSAII (Michael W. Deem and Ramdas Pophale) SiO2 
 PCOD8260311
Probable space group: C M C M
;
_chemical_formula_sum "Si O2"
_cell_formula_units_Z 64
_cell_length_a 8.850460
_cell_length_b 20.116503
_cell_length_c 17.487410
_cell_angle_alpha 90.000000
_cell_angle_beta 90.000000
_cell_angle_gamma 90.000000
_cell_volume 3113.463813
_symmetry_space_group_name_H-M "C M C M"
_symmetry_group_IT_number 63
_symmetry_cell_setting 'orthorhombic'
loop_
_space_group_symop_operation_xyz
x,y,z
-x,-y,1/2+z
x,-y,-z
-x,y,1/2-z
-x,-y,-z
x,y,1/2-z
-x,y,z
x,-y,1/2+z
1/2+x,1/2+y,z
1/2-x,1/2-y,1/2+z
1/2+x,1/2-y,-z
1/2-x,1/2+y,1/2-z
1/2-x,1/2-y,-z
1/2+x,1/2+y,1/2-z
1/2-x,1/2+y,z
1/2+x,1/2-y,1/2+z
loop_
_atom_site_type_symbol
_atom_site_label
_atom_site_fract_x
_atom_site_fract_y
_atom_site_fract_z
Si Si1 0.322564 0.265054 0.419088
Si Si2 0.324085 0.509456 0.412074
Si Si3 0.673135 0.352978 0.837682
Si Si4 0.824018 0.612995 0.838410
O O1 0.500000 0.267228 0.429594
O O2 0.250000 0.250000 0.500000
O O3 0.277966 0.208949 0.358239
O O4 0.269471 0.336481 0.390093
O O5 0.280075 0.500000 0.500000
O O6 0.500000 0.494680 0.396814
O O7 0.281977 0.584524 0.389686
O O8 0.225152 0.461269 0.359722
O O9 0.699982 0.372731 0.750000
O O10 0.500000 0.331871 0.852308
O O11 0.787157 0.626383 0.750000
O O12 0.000000 0.622450 0.855522
#
# Coordination Sequence:
#
# PCOD8260311 Si02
#       4
#    16  16  16  16
#     4  12  25  41  63  89 119 156 200 249 301 359
#     4  10  21  38  62  91 122 159 202 246 295 353
#     4  10  21  38  60  88 124 162 200 246 299 354
#     4  11  24  41  62  90 124 160 200 248 299 354
#
# _framework density 20.555883000000001
#
# number of rings (size 3 to 8) (size 9 to 14) (size 15 to 20)
#    0.000    1.250    0.000    6.000    0.000   10.000 
#    0.000    0.000    0.000    0.000    0.000    0.000 
#    0.000    0.000    0.000    0.000    0.000    0.000 
#
# Total GULP energy -397073.569965 kJ/mol
# GULP energy per Si atom -12408.549061 kJ/mol
# Density = 2.050910 g / cm^3
# Si number density = 20.555883 Si / 1000 Ang^3
#
#
#
# Elastic Constant Matrix: (Units=GPa)
#
#
# Indices 1 2 3 4 5 6 
#
# 1 112.6656 34.7519 38.8087 0.0000 0.0000 0.0000
# 2 34.7519 81.9211 13.8120 0.0000 0.0000 0.0000
# 3 38.8087 13.8120 75.5410 0.0000 0.0000 0.0000
# 4 0.0000 0.0000 0.0000 43.6469 0.0000 0.0000
# 5 0.0000 0.0000 0.0000 0.0000 32.1836 0.0000
# 6 0.0000 0.0000 0.0000 0.0000 0.0000 37.7680
#
#
#
# Elastic Compliance Matrix: (Units=1/GPa)
#
#
# Indices 1 2 3 4 5 6 
#
# 1 0.012035 -0.004192 -0.005416 0.000000 0.000000 0.000000
# 2 -0.004192 0.014055 -0.000416 0.000000 0.000000 0.000000
# 3 -0.005416 -0.000416 0.016096 0.000000 0.000000 0.000000
# 4 0.000000 0.000000 0.000000 0.022911 0.000000 0.000000
# 5 0.000000 0.000000 0.000000 0.000000 0.031072 0.000000
# 6 0.000000 0.000000 0.000000 0.000000 0.000000 0.026477
#
#
# Mechanical properties :
#
#
# Convention : Reuss Voigt Hill
#
# Bulk Modulus (GPa) = 45.17239 49.43031 47.30135
# Shear Modulus (GPa) = 33.31674 34.90338 34.11006
#
# Velocity S-wave (km/s) = 4.03027 4.12512 4.07797
# Velocity P-wave (km/s) = 6.60913 6.84016 6.72564
#
# Compressibility (1/GPa) = 0.02213742
#
# Stress axis : x y z
#
# Youngs Moduli (GPa) = 83.09443 71.14725 62.12542
#
# Poissons Ratio (x) = 0.29825 0.33648
# Poissons Ratio (y) = 0.34833 0.02586
# Poissons Ratio (z) = 0.45005 0.02962
#
# Static dielectric constant tensor:
#      x y z
#    x 3.771850 0.000000 0.000000 
#    y 0.000000 3.797720 0.000000 
#    z 0.000000 0.000000 3.834890 
# 
# 
# High freq. dielectric constant tensor:
#      x y z
#    x 1.800300 0.000000 0.000000 
#    y 0.000000 1.816630 0.000000 
#    z 0.000000 0.000000 1.819850 
# 
# From -- ./inp_files/39840.got.cif
#   From: 2010.03.12/outbox.cif.g09.slc.cpg/sg63_20_cif.got.tgz:39840.got - 2010.04.10 19:34:48.
