data_PCOD8260345
_publ_section_title
;
Structure prediction by ZEFSAII (Michael W. Deem and Ramdas Pophale) SiO2 
 PCOD8260345
Probable space group: C M C M
;
_chemical_formula_sum "Si O2"
_cell_formula_units_Z 64
_cell_length_a 20.509762
_cell_length_b 10.989478
_cell_length_c 14.049296
_cell_angle_alpha 90.000000
_cell_angle_beta 90.000000
_cell_angle_gamma 90.000000
_cell_volume 3166.592999
_symmetry_space_group_name_H-M "C M C M"
_symmetry_group_IT_number 63
_symmetry_cell_setting 'orthorhombic'
loop_
_space_group_symop_operation_xyz
x,y,z
-x,-y,1/2+z
x,-y,-z
-x,y,1/2-z
-x,-y,-z
x,y,1/2-z
-x,y,z
x,-y,1/2+z
1/2+x,1/2+y,z
1/2-x,1/2-y,1/2+z
1/2+x,1/2-y,-z
1/2-x,1/2+y,1/2-z
1/2-x,1/2-y,-z
1/2+x,1/2+y,1/2-z
1/2-x,1/2+y,z
1/2+x,1/2-y,1/2+z
loop_
_atom_site_type_symbol
_atom_site_label
_atom_site_fract_x
_atom_site_fract_y
_atom_site_fract_z
Si Si1 0.000000 0.040739 0.638287
Si Si2 0.249011 0.877907 0.444641
Si Si3 0.108817 0.627350 0.530027
Si Si4 0.123555 0.802698 0.358131
Si Si5 0.000000 0.230489 0.136714
O O1 0.065517 0.109322 0.606435
O O2 0.000000 0.094258 0.406894
O O3 0.000000 0.023504 0.750000
O O4 0.250000 0.750000 0.500000
O O5 0.323842 0.896372 0.411021
O O6 0.194495 0.868359 0.361827
O O7 0.227528 0.000000 0.500000
O O8 0.075730 0.500000 0.500000
O O9 0.123211 0.689980 0.429058
O O10 0.063933 0.703201 0.599588
O O11 0.111016 0.758703 0.250000
O O12 0.000000 0.233466 0.250000
#
# Coordination Sequence:
#
# PCOD8260345 Si02
#       5
#     8  16  16  16   8
#     4   9  21  37  56  91 117 148 206 250 302 362
#     4   9  20  37  58  86 120 160 203 247 304 362
#     4  10  22  40  60  88 123 161 207 249 311 374
#     4  10  21  38  62  90 120 161 209 255 308 366
#     4  11  24  39  60  91 124 161 204 256 315 366
#
# _framework density 20.210996000000002
#
# number of rings (size 3 to 8) (size 9 to 14) (size 15 to 20)
#    0.000    2.250    0.000    1.125    7.000    3.000 
#    0.000   11.250    0.000    0.000    0.000    0.000 
#    0.000    0.000    0.000    0.000    0.000    0.000 
#
# Total GULP energy -396476.527241 kJ/mol
# GULP energy per Si atom -12389.891476 kJ/mol
# Density = 2.016500 g / cm^3
# Si number density = 20.210996 Si / 1000 Ang^3
#
#
#
# Elastic Constant Matrix: (Units=GPa)
#
#
# Indices 1 2 3 4 5 6 
#
# 1 142.4304 41.3858 42.6899 0.0000 0.0000 0.0000
# 2 41.3858 135.2684 30.8947 0.0000 0.0000 0.0000
# 3 42.6899 30.8947 76.7617 0.0000 0.0000 0.0000
# 4 0.0000 0.0000 0.0000 24.9070 0.0000 0.0000
# 5 0.0000 0.0000 0.0000 0.0000 28.5643 0.0000
# 6 0.0000 0.0000 0.0000 0.0000 0.0000 28.0575
#
#
#
# Elastic Compliance Matrix: (Units=1/GPa)
#
#
# Indices 1 2 3 4 5 6 
#
# 1 0.008778 -0.001730 -0.004186 0.000000 0.000000 0.000000
# 2 -0.001730 0.008482 -0.002452 0.000000 0.000000 0.000000
# 3 -0.004186 -0.002452 0.016342 0.000000 0.000000 0.000000
# 4 0.000000 0.000000 0.000000 0.040149 0.000000 0.000000
# 5 0.000000 0.000000 0.000000 0.000000 0.035009 0.000000
# 6 0.000000 0.000000 0.000000 0.000000 0.000000 0.035641
#
#
# Mechanical properties :
#
#
# Convention : Reuss Voigt Hill
#
# Bulk Modulus (GPa) = 59.28530 64.93349 62.10940
# Shear Modulus (GPa) = 29.98357 32.27177 31.12767
#
# Velocity S-wave (km/s) = 3.85584 4.00026 3.92871
# Velocity P-wave (km/s) = 7.01571 7.31667 7.16777
#
# Compressibility (1/GPa) = 0.01686759
#
# Stress axis : x y z
#
# Youngs Moduli (GPa) = 113.91969 117.89811 61.19235
#
# Poissons Ratio (x) = 0.20393 0.25613
# Poissons Ratio (y) = 0.19705 0.15003
# Poissons Ratio (z) = 0.47683 0.28906
#
# Static dielectric constant tensor:
#      x y z
#    x 4.186700 0.000000 0.000000 
#    y 0.000000 3.539280 0.000000 
#    z 0.000000 0.000000 3.212380 
# 
# 
# High freq. dielectric constant tensor:
#      x y z
#    x 1.811890 0.000000 0.000000 
#    y 0.000000 1.800850 0.000000 
#    z 0.000000 0.000000 1.758350 
# 
# From -- ./inp_files/23502.got.cif
#   From: 2010.03.12/outbox.cif.g09.slc.cpg/sg63_12_cif.got.tgz:23502.got - 2010.04.10 19:34:48.
