data_PCOD8260216
_publ_section_title
;
Structure prediction by ZEFSAII (Michael W. Deem and Ramdas Pophale) SiO2 
 PCOD8260216
Probable space group: C M C M
;
_chemical_formula_sum "Si O2"
_cell_formula_units_Z 80
_cell_length_a 8.731068
_cell_length_b 28.951838
_cell_length_c 15.863792
_cell_angle_alpha 90.000000
_cell_angle_beta 90.000000
_cell_angle_gamma 90.000000
_cell_volume 4010.056739
_symmetry_space_group_name_H-M "C M C M"
_symmetry_group_IT_number 63
_symmetry_cell_setting 'orthorhombic'
loop_
_space_group_symop_operation_xyz
x,y,z
-x,-y,1/2+z
x,-y,-z
-x,y,1/2-z
-x,-y,-z
x,y,1/2-z
-x,y,z
x,-y,1/2+z
1/2+x,1/2+y,z
1/2-x,1/2-y,1/2+z
1/2+x,1/2-y,-z
1/2-x,1/2+y,1/2-z
1/2-x,1/2-y,-z
1/2+x,1/2+y,1/2-z
1/2-x,1/2+y,z
1/2+x,1/2-y,1/2+z
loop_
_atom_site_type_symbol
_atom_site_label
_atom_site_fract_x
_atom_site_fract_y
_atom_site_fract_z
Si Si1 0.179743 0.049892 0.083087
Si Si2 0.675425 0.352940 0.653004
Si Si3 0.679283 0.765358 0.912690
Si Si4 0.821015 0.389926 0.250000
Si Si5 0.318576 0.289583 0.250000
Si Si6 0.680075 0.044972 0.595954
O O1 0.225618 0.094514 0.137010
O O2 0.000000 0.039284 0.087366
O O3 0.270555 0.006695 0.122914
O O4 0.227732 0.059359 0.987009
O O5 0.699987 0.341087 0.750000
O O6 0.500000 0.345654 0.624902
O O7 0.781754 0.319118 0.599298
O O8 0.500000 0.758527 0.918851
O O9 0.746665 0.735506 0.834168
O O10 0.750000 0.750000 0.000000
O O11 0.728976 0.342641 0.250000
O O12 0.773859 0.419262 0.168361
O O13 0.000000 0.378556 0.250000
O O14 0.500000 0.285673 0.250000
O O15 0.500000 0.045647 0.577502
#
# Coordination Sequence:
#
# PCOD8260216 Si02
#       6
#    16  16  16   8   8  16
#     4  10  21  37  60  88 118 153 196 241 291 349
#     4  10  22  40  62  90 122 156 197 246 299 357
#     4  11  24  43  65  92 122 158 202 250 303 362
#     4  10  24  40  59  86 117 155 198 239 289 350
#     4  10  24  44  63  88 121 155 200 251 297 356
#     4  10  21  39  58  84 119 155 197 241 288 347
#
# _framework density 19.949842
#
# number of rings (size 3 to 8) (size 9 to 14) (size 15 to 20)
#    0.000    1.800    1.000    3.000    4.200    4.800 
#    0.000    0.000    0.000    0.000    0.000    0.000 
#    0.000    0.000    0.000    0.000    0.000    0.000 
#
# Total GULP energy -496120.559517 kJ/mol
# GULP energy per Si atom -12403.013988 kJ/mol
# Density = 1.990444 g / cm^3
# Si number density = 19.949842 Si / 1000 Ang^3
#
#
#
# Elastic Constant Matrix: (Units=GPa)
#
#
# Indices 1 2 3 4 5 6 
#
# 1 39.7993 28.9398 25.2811 0.0000 0.0000 0.0000
# 2 28.9398 114.4934 50.7491 0.0000 0.0000 0.0000
# 3 25.2811 50.7491 99.2869 0.0000 0.0000 0.0000
# 4 0.0000 0.0000 0.0000 39.7222 0.0000 0.0000
# 5 0.0000 0.0000 0.0000 0.0000 26.4293 0.0000
# 6 0.0000 0.0000 0.0000 0.0000 0.0000 38.5308
#
#
#
# Elastic Compliance Matrix: (Units=1/GPa)
#
#
# Indices 1 2 3 4 5 6 
#
# 1 0.032825 -0.005937 -0.005323 0.000000 0.000000 0.000000
# 2 -0.005937 0.012367 -0.004809 0.000000 0.000000 0.000000
# 3 -0.005323 -0.004809 0.013885 0.000000 0.000000 0.000000
# 4 0.000000 0.000000 0.000000 0.025175 0.000000 0.000000
# 5 0.000000 0.000000 0.000000 0.000000 0.037837 0.000000
# 6 0.000000 0.000000 0.000000 0.000000 0.000000 0.025953
#
#
# Mechanical properties :
#
#
# Convention : Reuss Voigt Hill
#
# Bulk Modulus (GPa) = 37.12346 51.50217 44.31282
# Shear Modulus (GPa) = 26.43259 30.84377 28.63818
#
# Velocity S-wave (km/s) = 3.64394 3.93627 3.79292
# Velocity P-wave (km/s) = 6.02936 6.82135 6.43755
#
# Compressibility (1/GPa) = 0.02693714
#
# Stress axis : x y z
#
# Youngs Moduli (GPa) = 30.46472 80.86325 72.01803
#
# Poissons Ratio (x) = 0.48012 0.38337
# Poissons Ratio (y) = 0.18088 0.34635
# Poissons Ratio (z) = 0.16217 0.38889
#
# Static dielectric constant tensor:
#      x y z
#    x 3.565180 0.000000 0.000000 
#    y 0.000000 3.738150 0.000000 
#    z 0.000000 0.000000 3.744300 
# 
# 
# High freq. dielectric constant tensor:
#      x y z
#    x 1.776380 0.000000 0.000000 
#    y 0.000000 1.789140 0.000000 
#    z 0.000000 0.000000 1.783310 
# 
# From -- ./inp_files/40744.got.cif
#   From: 2010.03.12/outbox.cif.g09.slc.cpg/sg63_21_cif.got.tgz:40744.got - 2010.04.10 19:34:48.
