data_PCOD8260795
_publ_section_title
;
Structure prediction by ZEFSAII (Michael W. Deem and Ramdas Pophale) SiO2 
 PCOD8260795
Probable space group: C M C M
;
_chemical_formula_sum "Si O2"
_cell_formula_units_Z 72
_cell_length_a 13.202614
_cell_length_b 9.403914
_cell_length_c 26.895691
_cell_angle_alpha 90.000000
_cell_angle_beta 90.000000
_cell_angle_gamma 90.000000
_cell_volume 3339.268045
_symmetry_space_group_name_H-M "C M C M"
_symmetry_group_IT_number 63
_symmetry_cell_setting 'orthorhombic'
loop_
_space_group_symop_operation_xyz
x,y,z
-x,-y,1/2+z
x,-y,-z
-x,y,1/2-z
-x,-y,-z
x,y,1/2-z
-x,y,z
x,-y,1/2+z
1/2+x,1/2+y,z
1/2-x,1/2-y,1/2+z
1/2+x,1/2-y,-z
1/2-x,1/2+y,1/2-z
1/2-x,1/2-y,-z
1/2+x,1/2+y,1/2-z
1/2-x,1/2+y,z
1/2+x,1/2-y,1/2+z
loop_
_atom_site_type_symbol
_atom_site_label
_atom_site_fract_x
_atom_site_fract_y
_atom_site_fract_z
Si Si1 0.884449 0.161623 0.503115
Si Si2 0.835434 0.511350 0.750000
Si Si3 0.729044 0.776306 0.082867
Si Si4 0.278032 0.479353 0.647508
Si Si5 0.000000 0.241929 0.250000
Si Si6 0.500000 0.233111 0.250000
Si Si7 0.000000 0.014266 0.674017
O O1 0.823833 0.244116 0.545875
O O2 0.870090 0.235894 0.449210
O O3 0.000000 0.168164 0.518912
O O4 0.844679 0.000000 0.500000
O O5 0.761634 0.510464 0.797310
O O6 0.901240 0.656387 0.750000
O O7 0.902299 0.368973 0.750000
O O8 0.742439 0.682288 0.132475
O O9 0.718493 0.933316 0.105150
O O10 0.397597 0.515714 0.641808
O O11 0.000000 0.135884 0.296577
O O12 0.500000 0.337374 0.203322
#
# Coordination Sequence:
#
# PCOD8260795 Si02
#       7
#    16   8  16  16   4   4   8
#     4  10  22  45  72  97 130 169 217 274 332 398
#     4  11  24  45  62  96 144 173 208 281 326 366
#     4  11  24  41  68 102 130 171 218 273 326 390
#     4  12  25  42  67  97 136 176 222 266 320 388
#     4  10  22  44  64  90 124 180 224 266 320 372
#     4  10  22  44  64  90 124 180 224 266 320 372
#     4  11  24  38  68  93 120 178 234 255 310 391
#
# _framework density 21.561612
#
# number of rings (size 3 to 8) (size 9 to 14) (size 15 to 20)
#    0.000    1.111    2.222    4.000    3.111    2.667 
#    8.000    1.111    0.000    0.000    0.000    0.000 
#    0.000    0.000    0.000    0.000    0.000    0.000 
#
# Total GULP energy -446373.418938 kJ/mol
# GULP energy per Si atom -12399.261637 kJ/mol
# Density = 2.151254 g / cm^3
# Si number density = 21.561612 Si / 1000 Ang^3
#
#
#
# Elastic Constant Matrix: (Units=GPa)
#
#
# Indices 1 2 3 4 5 6 
#
# 1 94.7819 30.6350 26.4299 0.0000 0.0000 0.0000
# 2 30.6350 88.6674 12.5939 0.0000 0.0000 0.0000
# 3 26.4299 12.5939 99.9193 0.0000 0.0000 0.0000
# 4 0.0000 0.0000 0.0000 34.0390 0.0000 0.0000
# 5 0.0000 0.0000 0.0000 0.0000 22.9545 0.0000
# 6 0.0000 0.0000 0.0000 0.0000 0.0000 25.0731
#
#
#
# Elastic Compliance Matrix: (Units=1/GPa)
#
#
# Indices 1 2 3 4 5 6 
#
# 1 0.012622 -0.003957 -0.002840 0.000000 0.000000 0.000000
# 2 -0.003957 0.012725 -0.000557 0.000000 0.000000 0.000000
# 3 -0.002840 -0.000557 0.010829 0.000000 0.000000 0.000000
# 4 0.000000 0.000000 0.000000 0.029378 0.000000 0.000000
# 5 0.000000 0.000000 0.000000 0.000000 0.043564 0.000000
# 6 0.000000 0.000000 0.000000 0.000000 0.000000 0.039883
#
#
# Mechanical properties :
#
#
# Convention : Reuss Voigt Hill
#
# Bulk Modulus (GPa) = 46.58301 46.96515 46.77408
# Shear Modulus (GPa) = 29.26279 30.66064 29.96171
#
# Velocity S-wave (km/s) = 3.68798 3.77503 3.73176
# Velocity P-wave (km/s) = 6.30765 6.38986 6.34889
#
# Compressibility (1/GPa) = 0.02146705
#
# Stress axis : x y z
#
# Youngs Moduli (GPa) = 79.22983 78.58833 92.34099
#
# Poissons Ratio (x) = 0.31101 0.26223
# Poissons Ratio (y) = 0.31355 0.05143
# Poissons Ratio (z) = 0.22499 0.04377
#
# Static dielectric constant tensor:
#      x y z
#    x 3.825830 0.000000 0.000000 
#    y 0.000000 4.041260 0.000000 
#    z 0.000000 0.000000 3.854270 
# 
# 
# High freq. dielectric constant tensor:
#      x y z
#    x 1.838610 0.000000 0.000000 
#    y 0.000000 1.857620 0.000000 
#    z 0.000000 0.000000 1.853990 
# 
# From -- ./inp_files/69124.got.cif
#   From: 2010.03.12/outbox.cif.g09.slc.cpg/sg63_35_cif.got.tgz:69124.got - 2010.04.10 19:34:48.
