data_PCOD8260878
_publ_section_title
;
Structure prediction by ZEFSAII (Michael W. Deem and Ramdas Pophale) SiO2 
 PCOD8260878
Probable space group: C M C M
;
_chemical_formula_sum "Si O2"
_cell_formula_units_Z 72
_cell_length_a 14.348913
_cell_length_b 24.756064
_cell_length_c 10.338145
_cell_angle_alpha 90.000000
_cell_angle_beta 90.000000
_cell_angle_gamma 90.000000
_cell_volume 3672.342835
_symmetry_space_group_name_H-M "C M C M"
_symmetry_group_IT_number 63
_symmetry_cell_setting 'orthorhombic'
loop_
_space_group_symop_operation_xyz
x,y,z
-x,-y,1/2+z
x,-y,-z
-x,y,1/2-z
-x,-y,-z
x,y,1/2-z
-x,y,z
x,-y,1/2+z
1/2+x,1/2+y,z
1/2-x,1/2-y,1/2+z
1/2+x,1/2-y,-z
1/2-x,1/2+y,1/2-z
1/2-x,1/2-y,-z
1/2+x,1/2+y,1/2-z
1/2-x,1/2+y,z
1/2+x,1/2-y,1/2+z
loop_
_atom_site_type_symbol
_atom_site_label
_atom_site_fract_x
_atom_site_fract_y
_atom_site_fract_z
Si Si1 0.282324 0.500000 0.500000
Si Si2 0.000000 0.655993 0.099075
Si Si3 0.393211 0.527097 0.750000
Si Si4 0.392458 0.654737 0.750000
Si Si5 0.315765 0.698620 0.013436
Si Si6 0.807225 0.397892 0.896943
Si Si7 0.500000 0.748567 0.105532
O O1 0.347263 0.501196 0.624627
O O2 0.218177 0.553164 0.492595
O O3 0.089548 0.620597 0.064572
O O4 0.000000 0.674605 0.250000
O O5 0.000000 0.707897 0.008160
O O6 0.500000 0.509277 0.750000
O O7 0.381714 0.590913 0.750000
O O8 0.500000 0.672596 0.750000
O O9 0.340462 0.678977 0.871558
O O10 0.250000 0.750000 0.000000
O O11 0.263415 0.651723 0.090193
O O12 0.408778 0.711599 0.093036
O O13 0.804990 0.418883 0.750000
O O14 0.500000 0.774627 0.250000
#
# Coordination Sequence:
#
# PCOD8260878 Si02
#       7
#     8   8   8   8  16  16   8
#     4  12  23  45  68  96 136 170 220 276 328 386
#     4  10  24  45  69  95 127 175 226 263 324 396
#     4  11  24  44  67  98 130 176 220 273 326 391
#     4  11  24  42  65  92 128 174 228 257 314 403
#     4  12  25  40  65  94 132 171 213 270 326 384
#     4  11  24  44  68  96 131 175 219 272 328 390
#     4  12  26  42  61 100 137 167 216 274 328 383
#
# _framework density 19.606012
#
# number of rings (size 3 to 8) (size 9 to 14) (size 15 to 20)
#    0.000    0.667    6.667    1.000    4.667    0.444 
#    4.000    0.000    0.000    0.000    0.000    0.000 
#    0.000    0.000    0.000    0.000    0.000    0.000 
#
# Total GULP energy -446613.189549 kJ/mol
# GULP energy per Si atom -12405.921932 kJ/mol
# Density = 1.956139 g / cm^3
# Si number density = 19.606012 Si / 1000 Ang^3
#
#
#
# Elastic Constant Matrix: (Units=GPa)
#
#
# Indices 1 2 3 4 5 6 
#
# 1 161.5313 63.5321 47.0964 0.0000 0.0000 0.0000
# 2 63.5321 111.0987 27.0564 0.0000 0.0000 0.0000
# 3 47.0964 27.0564 112.5542 0.0000 0.0000 0.0000
# 4 0.0000 0.0000 0.0000 24.2609 0.0000 0.0000
# 5 0.0000 0.0000 0.0000 0.0000 8.1665 0.0000
# 6 0.0000 0.0000 0.0000 0.0000 0.0000 32.9092
#
#
#
# Elastic Compliance Matrix: (Units=1/GPa)
#
#
# Indices 1 2 3 4 5 6 
#
# 1 0.008638 -0.004312 -0.002578 0.000000 0.000000 0.000000
# 2 -0.004312 0.011713 -0.001011 0.000000 0.000000 0.000000
# 3 -0.002578 -0.001011 0.010206 0.000000 0.000000 0.000000
# 4 0.000000 0.000000 0.000000 0.041219 0.000000 0.000000
# 5 0.000000 0.000000 0.000000 0.000000 0.122452 0.000000
# 6 0.000000 0.000000 0.000000 0.000000 0.000000 0.030387
#
#
# Mechanical properties :
#
#
# Convention : Reuss Voigt Hill
#
# Bulk Modulus (GPa) = 67.77314 73.39492 70.58403
# Shear Modulus (GPa) = 20.38019 29.56728 24.97373
#
# Velocity S-wave (km/s) = 3.22760 3.88760 3.57288
# Velocity P-wave (km/s) = 6.96653 7.59391 7.28697
#
# Compressibility (1/GPa) = 0.01475511
#
# Stress axis : x y z
#
# Youngs Moduli (GPa) = 115.76240 85.37407 97.97716
#
# Poissons Ratio (x) = 0.36814 0.25259
# Poissons Ratio (y) = 0.49917 0.09909
# Poissons Ratio (z) = 0.29844 0.08634
#
# Static dielectric constant tensor:
#      x y z
#    x 3.825680 0.000000 0.000000 
#    y 0.000000 3.491200 0.000000 
#    z 0.000000 0.000000 12.736260 
# 
# 
# High freq. dielectric constant tensor:
#      x y z
#    x 1.780460 0.000000 0.000000 
#    y 0.000000 1.764840 0.000000 
#    z 0.000000 0.000000 1.773640 
# 
# From -- ./inp_files/4754.got.cif
#   From: 2010.03.12/outbox.cif.g09.slc.cpg/sg63_3_cif.got.tgz:4754.got - 2010.04.10 19:34:48.
