data_PCOD8260663
_publ_section_title
;
Structure prediction by ZEFSAII (Michael W. Deem and Ramdas Pophale) SiO2 
 PCOD8260663
Probable space group: C M C M
;
_chemical_formula_sum "Si O2"
_cell_formula_units_Z 80
_cell_length_a 18.483771
_cell_length_b 8.634416
_cell_length_c 23.780101
_cell_angle_alpha 90.000000
_cell_angle_beta 90.000000
_cell_angle_gamma 90.000000
_cell_volume 3795.222508
_symmetry_space_group_name_H-M "C M C M"
_symmetry_group_IT_number 63
_symmetry_cell_setting 'orthorhombic'
loop_
_space_group_symop_operation_xyz
x,y,z
-x,-y,1/2+z
x,-y,-z
-x,y,1/2-z
-x,-y,-z
x,y,1/2-z
-x,y,z
x,-y,1/2+z
1/2+x,1/2+y,z
1/2-x,1/2-y,1/2+z
1/2+x,1/2-y,-z
1/2-x,1/2+y,1/2-z
1/2-x,1/2-y,-z
1/2+x,1/2+y,1/2-z
1/2-x,1/2+y,z
1/2+x,1/2-y,1/2+z
loop_
_atom_site_type_symbol
_atom_site_label
_atom_site_fract_x
_atom_site_fract_y
_atom_site_fract_z
Si Si1 0.312159 0.987671 0.364463
Si Si2 0.321560 0.333253 0.685566
Si Si3 0.083017 0.947912 0.595139
Si Si4 0.325757 0.790112 0.473589
Si Si5 0.083209 0.309784 0.921339
O O1 0.320602 0.853725 0.317842
O O2 0.305219 0.911875 0.425649
O O3 0.243922 0.094629 0.350299
O O4 0.382328 0.099489 0.367891
O O5 0.316835 0.385389 0.750000
O O6 0.395662 0.397840 0.658577
O O7 0.133603 0.859793 0.551021
O O8 0.000000 0.901232 0.583903
O O9 0.095223 0.128929 0.588202
O O10 0.250000 0.750000 0.500000
O O11 0.377673 0.862482 0.521196
O O12 0.000000 0.357175 0.925122
#
# Coordination Sequence:
#
# PCOD8260663 Si02
#       5
#    16  16  16  16  16
#     4  11  24  38  60  91 119 152 200 250 299 360
#     4  11  23  42  66  87 114 154 202 259 314 362
#     4  10  22  40  62  90 123 161 206 250 295 358
#     4  11  22  37  61  92 125 162 200 240 294 358
#     4  11  23  39  60  89 128 167 199 240 297 363
#
# _framework density 21.079132000000001
#
# number of rings (size 3 to 8) (size 9 to 14) (size 15 to 20)
#    0.000    1.200    0.000    7.200    0.000   10.000 
#    0.000    1.000    0.000    4.200    0.000    0.000 
#    0.000    0.000    0.000    0.000    0.000    0.000 
#
# Total GULP energy -495989.502118 kJ/mol
# GULP energy per Si atom -12399.737553 kJ/mol
# Density = 2.103116 g / cm^3
# Si number density = 21.079132 Si / 1000 Ang^3
#
#
#
# Elastic Constant Matrix: (Units=GPa)
#
#
# Indices 1 2 3 4 5 6 
#
# 1 153.2455 63.1242 53.8931 0.0000 0.0000 0.0000
# 2 63.1242 100.3604 47.0044 0.0000 0.0000 0.0000
# 3 53.8931 47.0044 92.5341 0.0000 0.0000 0.0000
# 4 0.0000 0.0000 0.0000 23.0964 0.0000 0.0000
# 5 0.0000 0.0000 0.0000 0.0000 22.8681 0.0000
# 6 0.0000 0.0000 0.0000 0.0000 0.0000 35.8907
#
#
#
# Elastic Compliance Matrix: (Units=1/GPa)
#
#
# Indices 1 2 3 4 5 6 
#
# 1 0.009510 -0.004445 -0.003281 0.000000 0.000000 0.000000
# 2 -0.004445 0.015152 -0.005108 0.000000 0.000000 0.000000
# 3 -0.003281 -0.005108 0.015312 0.000000 0.000000 0.000000
# 4 0.000000 0.000000 0.000000 0.043297 0.000000 0.000000
# 5 0.000000 0.000000 0.000000 0.000000 0.043729 0.000000
# 6 0.000000 0.000000 0.000000 0.000000 0.000000 0.027862
#
#
# Mechanical properties :
#
#
# Convention : Reuss Voigt Hill
#
# Bulk Modulus (GPa) = 69.89639 74.90928 72.40283
# Shear Modulus (GPa) = 26.98321 28.51226 27.74774
#
# Velocity S-wave (km/s) = 3.58172 3.68180 3.63210
# Velocity P-wave (km/s) = 7.09478 7.32725 7.21195
#
# Compressibility (1/GPa) = 0.01430689
#
# Stress axis : x y z
#
# Youngs Moduli (GPa) = 105.14887 65.99653 65.30649
#
# Poissons Ratio (x) = 0.29336 0.21427
# Poissons Ratio (y) = 0.46740 0.33359
# Poissons Ratio (z) = 0.34499 0.33711
#
# Static dielectric constant tensor:
#      x y z
#    x 3.948510 0.000000 0.000000 
#    y 0.000000 4.188400 0.000000 
#    z 0.000000 0.000000 3.785010 
# 
# 
# High freq. dielectric constant tensor:
#      x y z
#    x 1.830390 0.000000 0.000000 
#    y 0.000000 1.847580 0.000000 
#    z 0.000000 0.000000 1.809560 
# 
# From -- ./inp_files/69723.got.cif
#   From: 2010.03.12/outbox.cif.g09.slc.cpg/sg63_35_cif.got.tgz:69723.got - 2010.04.10 19:34:48.
