data_PCOD8260568
_publ_section_title
;
Structure prediction by ZEFSAII (Michael W. Deem and Ramdas Pophale) SiO2 
 PCOD8260568
Probable space group: C M C M
;
_chemical_formula_sum "Si O2"
_cell_formula_units_Z 88
_cell_length_a 10.909046
_cell_length_b 26.843505
_cell_length_c 15.558693
_cell_angle_alpha 90.000000
_cell_angle_beta 90.000000
_cell_angle_gamma 90.000000
_cell_volume 4556.161462
_symmetry_space_group_name_H-M "C M C M"
_symmetry_group_IT_number 63
_symmetry_cell_setting 'orthorhombic'
loop_
_space_group_symop_operation_xyz
x,y,z
-x,-y,1/2+z
x,-y,-z
-x,y,1/2-z
-x,-y,-z
x,y,1/2-z
-x,y,z
x,-y,1/2+z
1/2+x,1/2+y,z
1/2-x,1/2-y,1/2+z
1/2+x,1/2-y,-z
1/2-x,1/2+y,1/2-z
1/2-x,1/2-y,-z
1/2+x,1/2+y,1/2-z
1/2-x,1/2+y,z
1/2+x,1/2-y,1/2+z
loop_
_atom_site_type_symbol
_atom_site_label
_atom_site_fract_x
_atom_site_fract_y
_atom_site_fract_z
Si Si1 0.637625 0.778901 0.957923
Si Si2 0.500000 0.717213 0.845501
Si Si3 0.000000 0.012658 0.599285
Si Si4 0.740604 0.114832 0.479616
Si Si5 0.000000 0.879911 0.040597
Si Si6 0.256376 0.029661 0.153739
Si Si7 0.140588 0.575514 0.846254
O O1 0.500000 0.774046 0.003532
O O2 0.620286 0.751449 0.865609
O O3 0.670021 0.836589 0.946775
O O4 0.750000 0.750000 0.000000
O O5 0.500000 0.698013 0.750000
O O6 0.500000 0.669106 0.903978
O O7 0.000000 0.072722 0.605309
O O8 0.000000 0.000000 0.500000
O O9 0.881943 0.989678 0.644152
O O10 0.886313 0.120882 0.474787
O O11 0.702588 0.070088 0.416667
O O12 0.712974 0.104987 0.580187
O O13 0.271202 0.051837 0.250000
O O14 0.346976 0.983477 0.139514
O O15 0.189219 0.589926 0.750000
O O16 0.000000 0.590675 0.855043
#
# Coordination Sequence:
#
# PCOD8260568 Si02
#       7
#    16   8   8  16   8  16  16
#     4  10  22  42  67  95 124 167 211 268 333 396
#     4  10  24  44  67  98 128 159 215 284 329 383
#     4  12  19  37  58  88 125 168 211 256 322 379
#     4  12  21  39  63  90 125 167 214 255 330 390
#     4  12  22  35  68  96 119 166 214 266 326 390
#     4  11  23  36  56  87 128 169 211 260 311 383
#     4  10  22  38  56  84 120 159 210 266 315 380
#
# _framework density 19.314503999999999
#
# number of rings (size 3 to 8) (size 9 to 14) (size 15 to 20)
#    0.545    0.545    5.455    1.364    0.000    4.364 
#    0.000    0.000    0.000    0.545    0.000    0.000 
#    0.000    0.000    0.000    0.000    0.000    0.000 
#
# Total GULP energy -545228.367448 kJ/mol
# GULP energy per Si atom -12391.553806 kJ/mol
# Density = 1.927054 g / cm^3
# Si number density = 19.314504 Si / 1000 Ang^3
#
#
#
# Elastic Constant Matrix: (Units=GPa)
#
#
# Indices 1 2 3 4 5 6 
#
# 1 83.5183 7.4460 -1.5410 0.0000 0.0000 0.0000
# 2 7.4460 105.1746 21.5822 0.0000 0.0000 0.0000
# 3 -1.5410 21.5822 76.8563 0.0000 0.0000 0.0000
# 4 0.0000 0.0000 0.0000 21.8460 0.0000 0.0000
# 5 0.0000 0.0000 0.0000 0.0000 19.8609 0.0000
# 6 0.0000 0.0000 0.0000 0.0000 0.0000 32.0409
#
#
#
# Elastic Compliance Matrix: (Units=1/GPa)
#
#
# Indices 1 2 3 4 5 6 
#
# 1 0.012068 -0.000959 0.000511 0.000000 0.000000 0.000000
# 2 -0.000959 0.010166 -0.002874 0.000000 0.000000 0.000000
# 3 0.000511 -0.002874 0.013829 0.000000 0.000000 0.000000
# 4 0.000000 0.000000 0.000000 0.045775 0.000000 0.000000
# 5 0.000000 0.000000 0.000000 0.000000 0.050350 0.000000
# 6 0.000000 0.000000 0.000000 0.000000 0.000000 0.031210
#
#
# Mechanical properties :
#
#
# Convention : Reuss Voigt Hill
#
# Bulk Modulus (GPa) = 33.99174 35.61374 34.80274
# Shear Modulus (GPa) = 27.80129 30.62036 29.21083
#
# Velocity S-wave (km/s) = 3.79806 3.98597 3.89315
# Velocity P-wave (km/s) = 6.07214 6.29784 6.18602
#
# Compressibility (1/GPa) = 0.02941891
#
# Stress axis : x y z
#
# Youngs Moduli (GPa) = 82.86107 98.37047 72.31405
#
# Poissons Ratio (x) = 0.09437 -0.03698
# Poissons Ratio (y) = 0.07949 0.20782
# Poissons Ratio (z) = -0.04237 0.28270
#
# Static dielectric constant tensor:
#      x y z
#    x 3.790500 0.000000 0.000000 
#    y 0.000000 3.693320 0.000000 
#    z 0.000000 0.000000 3.542000 
# 
# 
# High freq. dielectric constant tensor:
#      x y z
#    x 1.761080 0.000000 0.000000 
#    y 0.000000 1.752890 0.000000 
#    z 0.000000 0.000000 1.731210 
# 
# From -- ./inp_files/30162.got.cif
#   From: 2010.03.12/outbox.cif.g09.slc.cpg/sg63_16_cif.got.tgz:30162.got - 2010.04.10 19:34:48.
