data_PCOD8260336
_publ_section_title
;
Structure prediction by ZEFSAII (Michael W. Deem and Ramdas Pophale) SiO2 
 PCOD8260336
Probable space group: C M C M
;
_chemical_formula_sum "Si O2"
_cell_formula_units_Z 112
_cell_length_a 17.603877
_cell_length_b 13.245082
_cell_length_c 21.623145
_cell_angle_alpha 90.000000
_cell_angle_beta 90.000000
_cell_angle_gamma 90.000000
_cell_volume 5041.756158
_symmetry_space_group_name_H-M "C M C M"
_symmetry_group_IT_number 63
_symmetry_cell_setting 'orthorhombic'
loop_
_space_group_symop_operation_xyz
x,y,z
-x,-y,1/2+z
x,-y,-z
-x,y,1/2-z
-x,-y,-z
x,y,1/2-z
-x,y,z
x,-y,1/2+z
1/2+x,1/2+y,z
1/2-x,1/2-y,1/2+z
1/2+x,1/2-y,-z
1/2-x,1/2+y,1/2-z
1/2-x,1/2-y,-z
1/2+x,1/2+y,1/2-z
1/2-x,1/2+y,z
1/2+x,1/2-y,1/2+z
loop_
_atom_site_type_symbol
_atom_site_label
_atom_site_fract_x
_atom_site_fract_y
_atom_site_fract_z
Si Si1 0.713690 0.943038 0.318686
Si Si2 0.085434 0.930937 0.059372
Si Si3 0.084566 0.618339 0.964802
Si Si4 0.413847 0.059196 0.375840
Si Si5 0.672847 0.223492 0.067034
Si Si6 0.637737 0.457587 0.676076
Si Si7 0.829008 0.249110 0.377542
O O1 0.739401 0.955535 0.250000
O O2 0.718273 0.825746 0.334851
O O3 0.630414 0.988836 0.328176
O O4 0.780608 0.005713 0.351224
O O5 0.143864 0.837594 0.060094
O O6 0.000000 0.890023 0.048141
O O7 0.082407 0.988744 0.126114
O O8 0.108603 0.000000 0.000000
O O9 0.088995 0.499906 0.943000
O O10 0.099406 0.691655 0.906199
O O11 0.000000 0.642072 0.991023
O O12 0.151603 0.651449 0.009958
O O13 0.500000 0.071869 0.352999
O O14 0.373000 0.168381 0.376947
O O15 0.764234 0.213731 0.073226
O O16 0.618973 0.479127 0.750000
O O17 0.635719 0.337908 0.664958
#
# Coordination Sequence:
#
# PCOD8260336 Si02
#       7
#    16  16  16  16  16  16  16
#     4  10  21  40  61  86 123 161 205 261 316 375
#     4  11  25  44  66  94 133 175 218 269 326 384
#     4  10  22  38  59  89 129 166 206 263 324 381
#     4  10  21  38  61  91 124 159 206 261 326 387
#     4  12  21  38  62  91 125 169 212 263 319 390
#     4  11  23  42  65  91 128 170 214 265 321 383
#     4  11  22  39  63  94 117 165 215 265 316 389
#
# _framework density 22.214483000000001
#
# number of rings (size 3 to 8) (size 9 to 14) (size 15 to 20)
#    0.000    1.286    2.857    3.429    0.000    3.429 
#    0.000    0.714    0.000    4.286    0.000    0.000 
#    0.000    0.000    0.000    0.000    0.000    0.000 
#
# Total GULP energy -693764.810287 kJ/mol
# GULP energy per Si atom -12388.657327 kJ/mol
# Density = 2.216392 g / cm^3
# Si number density = 22.214483 Si / 1000 Ang^3
#
#
#
# Elastic Constant Matrix: (Units=GPa)
#
#
# Indices 1 2 3 4 5 6 
#
# 1 76.0105 11.0498 7.8338 0.0000 0.0000 0.0000
# 2 11.0498 111.7975 20.7205 0.0000 0.0000 0.0000
# 3 7.8338 20.7205 80.1295 0.0000 0.0000 0.0000
# 4 0.0000 0.0000 0.0000 23.7527 0.0000 0.0000
# 5 0.0000 0.0000 0.0000 0.0000 20.8355 0.0000
# 6 0.0000 0.0000 0.0000 0.0000 0.0000 28.8888
#
#
#
# Elastic Compliance Matrix: (Units=1/GPa)
#
#
# Indices 1 2 3 4 5 6 
#
# 1 0.013426 -0.001138 -0.001018 0.000000 0.000000 0.000000
# 2 -0.001138 0.009492 -0.002343 0.000000 0.000000 0.000000
# 3 -0.001018 -0.002343 0.013185 0.000000 0.000000 0.000000
# 4 0.000000 0.000000 0.000000 0.042100 0.000000 0.000000
# 5 0.000000 0.000000 0.000000 0.000000 0.047995 0.000000
# 6 0.000000 0.000000 0.000000 0.000000 0.000000 0.034615
#
#
# Mechanical properties :
#
#
# Convention : Reuss Voigt Hill
#
# Bulk Modulus (GPa) = 36.89510 38.57175 37.73342
# Shear Modulus (GPa) = 27.95667 29.91763 28.93715
#
# Velocity S-wave (km/s) = 3.55137 3.67381 3.61311
# Velocity P-wave (km/s) = 5.78454 5.94952 5.86761
#
# Compressibility (1/GPa) = 0.02710387
#
# Stress axis : x y z
#
# Youngs Moduli (GPa) = 74.47960 105.35713 75.84233
#
# Poissons Ratio (x) = 0.11993 0.07723
# Poissons Ratio (y) = 0.08478 0.17771
# Poissons Ratio (z) = 0.07584 0.24686
#
# Static dielectric constant tensor:
#      x y z
#    x 3.902160 0.000000 0.000000 
#    y 0.000000 4.181020 0.000000 
#    z 0.000000 0.000000 3.918120 
# 
# 
# High freq. dielectric constant tensor:
#      x y z
#    x 1.872200 0.000000 0.000000 
#    y 0.000000 1.884940 0.000000 
#    z 0.000000 0.000000 1.859280 
# 
# From -- ./inp_files/64624.got.cif
#   From: 2010.03.12/outbox.cif.g09.slc.cpg/sg63_33_cif.got.tgz:64624.got - 2010.04.10 19:34:48.
