data_PCOD8260026
_publ_section_title
;
Structure prediction by ZEFSAII (Michael W. Deem and Ramdas Pophale) SiO2 
 PCOD8260026
Probable space group: C M C M
;
_chemical_formula_sum "Si O2"
_cell_formula_units_Z 112
_cell_length_a 15.484992
_cell_length_b 13.973805
_cell_length_c 25.542887
_cell_angle_alpha 90.000000
_cell_angle_beta 90.000000
_cell_angle_gamma 90.000000
_cell_volume 5527.078667
_symmetry_space_group_name_H-M "C M C M"
_symmetry_group_IT_number 63
_symmetry_cell_setting 'orthorhombic'
loop_
_space_group_symop_operation_xyz
x,y,z
-x,-y,1/2+z
x,-y,-z
-x,y,1/2-z
-x,-y,-z
x,y,1/2-z
-x,y,z
x,-y,1/2+z
1/2+x,1/2+y,z
1/2-x,1/2-y,1/2+z
1/2+x,1/2-y,-z
1/2-x,1/2+y,1/2-z
1/2-x,1/2-y,-z
1/2+x,1/2+y,1/2-z
1/2-x,1/2+y,z
1/2+x,1/2-y,1/2+z
loop_
_atom_site_type_symbol
_atom_site_label
_atom_site_fract_x
_atom_site_fract_y
_atom_site_fract_z
Si Si1 0.594018 0.686775 0.339408
Si Si2 0.597310 0.722080 0.867232
Si Si3 0.226305 0.352591 0.692020
Si Si4 0.330982 0.200103 0.472689
Si Si5 0.595304 0.847523 0.077390
Si Si6 0.092307 0.014149 0.891841
Si Si7 0.224198 0.479800 0.908956
O O1 0.500000 0.715846 0.313970
O O2 0.678373 0.696780 0.303033
O O3 0.613541 0.751573 0.390011
O O4 0.587961 0.576400 0.354350
O O5 0.500000 0.763489 0.862567
O O6 0.657006 0.773242 0.824794
O O7 0.631584 0.735144 0.926520
O O8 0.599604 0.608947 0.855753
O O9 0.201595 0.390524 0.750000
O O10 0.224681 0.438702 0.650248
O O11 0.250000 0.250000 0.500000
O O12 0.402573 0.182876 0.516810
O O13 0.308292 0.095956 0.450625
O O14 0.500000 0.888793 0.089605
O O15 0.665312 0.926840 0.091712
O O16 0.178385 0.007462 0.927300
O O17 0.000000 0.019461 0.923705
#
# Coordination Sequence:
#
# PCOD8260026 Si02
#       7
#    16  16  16  16  16  16  16
#     4   9  19  37  59  83 112 144 184 234 285 339
#     4  10  21  36  55  82 114 146 184 230 278 334
#     4  10  21  38  60  83 110 146 186 234 290 342
#     4  11  21  35  57  83 114 151 190 234 283 335
#     4  11  22  37  58  83 115 155 192 229 280 339
#     4   9  17  34  57  77 105 143 178 223 281 332
#     4  10  21  36  56  83 114 147 189 235 279 333
#
# _framework density 20.263869
#
# number of rings (size 3 to 8) (size 9 to 14) (size 15 to 20)
#    0.000    2.000    0.000    5.143    0.000    4.000 
#    0.000    9.286    0.000   18.000    0.000    0.000 
#    0.000    0.000    0.000    0.000    0.000    0.000 
#
# Total GULP energy -693861.371874 kJ/mol
# GULP energy per Si atom -12390.381641 kJ/mol
# Density = 2.021775 g / cm^3
# Si number density = 20.263869 Si / 1000 Ang^3
#
#
#
# Elastic Constant Matrix: (Units=GPa)
#
#
# Indices 1 2 3 4 5 6 
#
# 1 148.6187 54.1180 29.6291 0.0000 0.0000 0.0000
# 2 54.1180 105.0997 32.0123 0.0000 0.0000 0.0000
# 3 29.6291 32.0123 99.3953 0.0000 0.0000 0.0000
# 4 0.0000 0.0000 0.0000 10.5012 0.0000 0.0000
# 5 0.0000 0.0000 0.0000 0.0000 9.0576 0.0000
# 6 0.0000 0.0000 0.0000 0.0000 0.0000 30.6726
#
#
#
# Elastic Compliance Matrix: (Units=1/GPa)
#
#
# Indices 1 2 3 4 5 6 
#
# 1 0.008416 -0.003958 -0.001234 0.000000 0.000000 0.000000
# 2 -0.003958 0.012411 -0.002817 0.000000 0.000000 0.000000
# 3 -0.001234 -0.002817 0.011336 0.000000 0.000000 0.000000
# 4 0.000000 0.000000 0.000000 0.095228 0.000000 0.000000
# 5 0.000000 0.000000 0.000000 0.000000 0.110405 0.000000
# 6 0.000000 0.000000 0.000000 0.000000 0.000000 0.032602
#
#
# Mechanical properties :
#
#
# Convention : Reuss Voigt Hill
#
# Bulk Modulus (GPa) = 61.94048 64.95919 63.44983
# Shear Modulus (GPa) = 17.13520 25.86988 21.50254
#
# Velocity S-wave (km/s) = 2.91108 3.57690 3.26103
# Velocity P-wave (km/s) = 6.47553 7.01322 6.74973
#
# Compressibility (1/GPa) = 0.01614453
#
# Stress axis : x y z
#
# Youngs Moduli (GPa) = 118.82461 80.57523 88.21366
#
# Poissons Ratio (x) = 0.31888 0.10886
# Poissons Ratio (y) = 0.47026 0.24853
# Poissons Ratio (z) = 0.14664 0.22701
#
# Static dielectric constant tensor:
#      x y z
#    x 4.399520 0.000000 0.000000 
#    y 0.000000 3.684640 0.000000 
#    z 0.000000 0.000000 3.354340 
# 
# 
# High freq. dielectric constant tensor:
#      x y z
#    x 1.822200 0.000000 0.000000 
#    y 0.000000 1.793900 0.000000 
#    z 0.000000 0.000000 1.749760 
# 
# From -- ./inp_files/63000.got.cif
#   From: 2010.03.12/outbox.cif.g09.slc.cpg/sg63_32_cif.got.tgz:63000.got - 2010.04.10 19:34:48.
