data_PCOD8260690
_publ_section_title
;
Structure prediction by ZEFSAII (Michael W. Deem and Ramdas Pophale) SiO2 
 PCOD8260690
Probable space group: C M C M
;
_chemical_formula_sum "Si O2"
_cell_formula_units_Z 80
_cell_length_a 15.356529
_cell_length_b 11.454719
_cell_length_c 23.266095
_cell_angle_alpha 90.000000
_cell_angle_beta 90.000000
_cell_angle_gamma 90.000000
_cell_volume 4092.616031
_symmetry_space_group_name_H-M "C M C M"
_symmetry_group_IT_number 63
_symmetry_cell_setting 'orthorhombic'
loop_
_space_group_symop_operation_xyz
x,y,z
-x,-y,1/2+z
x,-y,-z
-x,y,1/2-z
-x,-y,-z
x,y,1/2-z
-x,y,z
x,-y,1/2+z
1/2+x,1/2+y,z
1/2-x,1/2-y,1/2+z
1/2+x,1/2-y,-z
1/2-x,1/2+y,1/2-z
1/2-x,1/2-y,-z
1/2+x,1/2+y,1/2-z
1/2-x,1/2+y,z
1/2+x,1/2-y,1/2+z
loop_
_atom_site_type_symbol
_atom_site_label
_atom_site_fract_x
_atom_site_fract_y
_atom_site_fract_z
Si Si1 0.828241 0.158726 0.681722
Si Si2 0.500000 0.476049 0.181890
Si Si3 0.000000 0.235041 0.182422
Si Si4 0.902703 0.357865 0.613132
Si Si5 0.145353 0.609148 0.631421
Si Si6 0.806796 0.367738 0.004048
O O1 0.824866 0.174721 0.750000
O O2 0.911642 0.085282 0.660422
O O3 0.835291 0.283582 0.650925
O O4 0.741179 0.098255 0.658744
O O5 0.500000 0.476041 0.250000
O O6 0.500000 0.605562 0.155922
O O7 0.911030 0.294842 0.163454
O O8 0.000000 0.228673 0.250000
O O9 0.901181 0.486013 0.640265
O O10 0.877157 0.360273 0.546389
O O11 0.000000 0.306899 0.618872
O O12 0.145649 0.642342 0.564650
O O13 0.761367 0.500000 0.000000
O O14 0.750000 0.250000 0.000000
#
# Coordination Sequence:
#
# PCOD8260690 Si02
#       6
#    16   8   8  16  16  16
#     4  11  23  40  63  91 124 165 208 258 315 376
#     4   9  22  41  60  85 124 167 207 254 311 374
#     4  11  24  41  59  89 129 165 206 258 311 378
#     4  11  23  42  66  93 125 164 212 265 316 378
#     4  11  24  41  64  91 123 167 210 258 317 378
#     4  10  22  40  66  92 125 163 212 263 321 376
#
# _framework density 19.5474
#
# number of rings (size 3 to 8) (size 9 to 14) (size 15 to 20)
#    0.000    1.400    4.000    0.600    4.200    2.800 
#    0.000    0.000    0.000    1.800    0.000    0.000 
#    0.000    0.000    0.000    0.000    0.000    0.000 
#
# Total GULP energy -495829.939679 kJ/mol
# GULP energy per Si atom -12395.748492 kJ/mol
# Density = 1.950291 g / cm^3
# Si number density = 19.547400 Si / 1000 Ang^3
#
#
#
# Elastic Constant Matrix: (Units=GPa)
#
#
# Indices 1 2 3 4 5 6 
#
# 1 117.5928 34.2121 32.9143 0.0000 0.0000 0.0000
# 2 34.2121 119.4571 30.7590 0.0000 0.0000 0.0000
# 3 32.9143 30.7590 100.0585 0.0000 0.0000 0.0000
# 4 0.0000 0.0000 0.0000 29.4672 0.0000 0.0000
# 5 0.0000 0.0000 0.0000 0.0000 26.7203 0.0000
# 6 0.0000 0.0000 0.0000 0.0000 0.0000 28.2383
#
#
#
# Elastic Compliance Matrix: (Units=1/GPa)
#
#
# Indices 1 2 3 4 5 6 
#
# 1 0.009853 -0.002158 -0.002578 0.000000 0.000000 0.000000
# 2 -0.002158 0.009564 -0.002230 0.000000 0.000000 0.000000
# 3 -0.002578 -0.002230 0.011528 0.000000 0.000000 0.000000
# 4 0.000000 0.000000 0.000000 0.033936 0.000000 0.000000
# 5 0.000000 0.000000 0.000000 0.000000 0.037425 0.000000
# 6 0.000000 0.000000 0.000000 0.000000 0.000000 0.035413
#
#
# Mechanical properties :
#
#
# Convention : Reuss Voigt Hill
#
# Bulk Modulus (GPa) = 58.78027 59.20881 58.99454
# Shear Modulus (GPa) = 31.78214 32.83335 32.30774
#
# Velocity S-wave (km/s) = 4.03662 4.10283 4.06986
# Velocity P-wave (km/s) = 7.20150 7.26636 7.23400
#
# Compressibility (1/GPa) = 0.01701251
#
# Stress axis : x y z
#
# Youngs Moduli (GPa) = 101.48823 104.56421 86.74799
#
# Poissons Ratio (x) = 0.22567 0.22362
# Poissons Ratio (y) = 0.21903 0.19345
# Poissons Ratio (z) = 0.26162 0.23318
#
# Static dielectric constant tensor:
#      x y z
#    x 3.458780 0.000000 0.000000 
#    y 0.000000 3.894600 0.000000 
#    z 0.000000 0.000000 3.596210 
# 
# 
# High freq. dielectric constant tensor:
#      x y z
#    x 1.756240 0.000000 0.000000 
#    y 0.000000 1.775970 0.000000 
#    z 0.000000 0.000000 1.765160 
# 
# From -- ./inp_files/62592.got.cif
#   From: 2010.03.12/outbox.cif.g09.slc.cpg/sg63_32_cif.got.tgz:62592.got - 2010.04.10 19:34:48.
