data_PCOD8260519
_publ_section_title
;
Structure prediction by ZEFSAII (Michael W. Deem and Ramdas Pophale) SiO2 
 PCOD8260519
Probable space group: C M C M
;
_chemical_formula_sum "Si O2"
_cell_formula_units_Z 72
_cell_length_a 24.609262
_cell_length_b 9.541180
_cell_length_c 14.612751
_cell_angle_alpha 90.000000
_cell_angle_beta 90.000000
_cell_angle_gamma 90.000000
_cell_volume 3431.094369
_symmetry_space_group_name_H-M "C M C M"
_symmetry_group_IT_number 63
_symmetry_cell_setting 'orthorhombic'
loop_
_space_group_symop_operation_xyz
x,y,z
-x,-y,1/2+z
x,-y,-z
-x,y,1/2-z
-x,-y,-z
x,y,1/2-z
-x,y,z
x,-y,1/2+z
1/2+x,1/2+y,z
1/2-x,1/2-y,1/2+z
1/2+x,1/2-y,-z
1/2-x,1/2+y,1/2-z
1/2-x,1/2-y,-z
1/2+x,1/2+y,1/2-z
1/2-x,1/2+y,z
1/2+x,1/2-y,1/2+z
loop_
_atom_site_type_symbol
_atom_site_label
_atom_site_fract_x
_atom_site_fract_y
_atom_site_fract_z
Si Si1 0.749711 0.296057 0.250000
Si Si2 0.561970 0.347626 0.894315
Si Si3 0.225452 0.125391 0.945349
Si Si4 0.627983 0.183057 0.750000
Si Si5 0.896660 0.850115 0.088568
Si Si6 0.363495 0.152841 0.250000
O O1 0.742357 0.390088 0.160122
O O2 0.812090 0.243731 0.250000
O O3 0.702076 0.178061 0.250000
O O4 0.500000 0.333281 0.862339
O O5 0.597470 0.233710 0.840627
O O6 0.582261 0.504288 0.867621
O O7 0.564790 0.312594 0.002746
O O8 0.161352 0.124467 0.956559
O O9 0.250000 0.250000 0.000000
O O10 0.252539 0.000000 0.000000
O O11 0.628755 0.013682 0.750000
O O12 0.892806 0.724491 0.162336
#
# Coordination Sequence:
#
# PCOD8260519 Si02
#       6
#     8  16  16   8  16   8
#     4  10  26  39  63  94 139 181 216 260 338 410
#     4  11  23  44  71  95 123 172 231 283 335 391
#     4  11  23  39  62  98 135 180 223 269 329 407
#     4  12  26  43  64  99 135 170 219 281 329 399
#     4  10  21  44  66  96 131 171 224 273 329 395
#     4  10  25  42  65  99 138 175 212 263 345 409
#
# _framework density 20.984558
#
# number of rings (size 3 to 8) (size 9 to 14) (size 15 to 20)
#    0.000    1.333    2.222    3.667    6.222    2.667 
#    0.000    7.222    0.000    0.000    0.000    0.000 
#    0.000    0.000    0.000    0.000    0.000    0.000 
#
# Total GULP energy -446189.572682 kJ/mol
# GULP energy per Si atom -12394.154797 kJ/mol
# Density = 2.093680 g / cm^3
# Si number density = 20.984558 Si / 1000 Ang^3
#
#
#
# Elastic Constant Matrix: (Units=GPa)
#
#
# Indices 1 2 3 4 5 6 
#
# 1 139.0100 54.4973 30.5759 0.0000 0.0000 0.0000
# 2 54.4973 164.9329 76.0983 0.0000 0.0000 0.0000
# 3 30.5759 76.0983 138.1261 0.0000 0.0000 0.0000
# 4 0.0000 0.0000 0.0000 40.9330 0.0000 0.0000
# 5 0.0000 0.0000 0.0000 0.0000 24.7671 0.0000
# 6 0.0000 0.0000 0.0000 0.0000 0.0000 24.8586
#
#
#
# Elastic Compliance Matrix: (Units=1/GPa)
#
#
# Indices 1 2 3 4 5 6 
#
# 1 0.008284 -0.002536 -0.000437 0.000000 0.000000 0.000000
# 2 -0.002536 0.008906 -0.004345 0.000000 0.000000 0.000000
# 3 -0.000437 -0.004345 0.009730 0.000000 0.000000 0.000000
# 4 0.000000 0.000000 0.000000 0.024430 0.000000 0.000000
# 5 0.000000 0.000000 0.000000 0.000000 0.040376 0.000000
# 6 0.000000 0.000000 0.000000 0.000000 0.000000 0.040228
#
#
# Mechanical properties :
#
#
# Convention : Reuss Voigt Hill
#
# Bulk Modulus (GPa) = 81.40152 84.93466 83.16809
# Shear Modulus (GPa) = 33.18206 36.83824 35.01015
#
# Velocity S-wave (km/s) = 3.98082 4.19441 4.08901
# Velocity P-wave (km/s) = 7.74626 8.00126 7.87479
#
# Compressibility (1/GPa) = 0.01228478
#
# Stress axis : x y z
#
# Youngs Moduli (GPa) = 120.71658 112.28739 102.77129
#
# Poissons Ratio (x) = 0.28472 0.04489
# Poissons Ratio (y) = 0.30609 0.44656
# Poissons Ratio (z) = 0.05272 0.48791
#
# Static dielectric constant tensor:
#      x y z
#    x 3.843690 0.000000 0.000000 
#    y 0.000000 3.519850 0.000000 
#    z 0.000000 0.000000 3.896180 
# 
# 
# High freq. dielectric constant tensor:
#      x y z
#    x 1.823970 0.000000 0.000000 
#    y 0.000000 1.806550 0.000000 
#    z 0.000000 0.000000 1.840360 
# 
# From -- ./inp_files/37597.got.cif
#   From: 2010.03.12/outbox.cif.g09.slc.cpg/sg63_19_cif.got.tgz:37597.got - 2010.04.10 19:34:48.
