data_PCOD8260968
_publ_section_title
;
Structure prediction by ZEFSAII (Michael W. Deem and Ramdas Pophale) SiO2 
 PCOD8260968
Probable space group: C M C M
;
_chemical_formula_sum "Si O2"
_cell_formula_units_Z 64
_cell_length_a 11.649482
_cell_length_b 20.009460
_cell_length_c 13.856435
_cell_angle_alpha 90.000000
_cell_angle_beta 90.000000
_cell_angle_gamma 90.000000
_cell_volume 3229.932838
_symmetry_space_group_name_H-M "C M C M"
_symmetry_group_IT_number 63
_symmetry_cell_setting 'orthorhombic'
loop_
_space_group_symop_operation_xyz
x,y,z
-x,-y,1/2+z
x,-y,-z
-x,y,1/2-z
-x,-y,-z
x,y,1/2-z
-x,y,z
x,-y,1/2+z
1/2+x,1/2+y,z
1/2-x,1/2-y,1/2+z
1/2+x,1/2-y,-z
1/2-x,1/2+y,1/2-z
1/2-x,1/2-y,-z
1/2+x,1/2+y,1/2-z
1/2-x,1/2+y,z
1/2+x,1/2-y,1/2+z
loop_
_atom_site_type_symbol
_atom_site_label
_atom_site_fract_x
_atom_site_fract_y
_atom_site_fract_z
Si Si1 0.500000 0.132550 0.634932
Si Si2 0.256309 0.940189 0.931253
Si Si3 0.000000 0.521789 0.363942
Si Si4 0.865219 0.991794 0.750000
Si Si5 0.363411 0.355511 0.250000
Si Si6 0.738825 0.182668 0.940205
O O1 0.500000 0.136370 0.750000
O O2 0.390820 0.170506 0.593107
O O3 0.500000 0.055185 0.599890
O O4 0.390108 0.939351 0.903399
O O5 0.176829 0.948617 0.839206
O O6 0.219812 0.873264 0.985129
O O7 0.224262 0.000000 0.000000
O O8 0.000000 0.523697 0.250000
O O9 0.000000 0.996808 0.750000
O O10 0.814462 0.067820 0.750000
O O11 0.500000 0.353897 0.250000
O O12 0.319100 0.317417 0.154647
O O13 0.750000 0.250000 0.000000
#
# Coordination Sequence:
#
# PCOD8260968 Si02
#       6
#     8  16   8   8   8  16
#     4  11  21  43  73  97 131 172 221 274 337 400
#     4  12  22  41  68  99 129 166 222 276 331 384
#     4  11  20  38  74 106 132 160 212 293 344 379
#     4  11  24  42  67  97 131 175 224 271 314 389
#     4  11  24  46  67  93 133 175 220 271 330 395
#     4  12  27  44  67  99 135 179 219 269 336 400
#
# _framework density 19.814653
#
# number of rings (size 3 to 8) (size 9 to 14) (size 15 to 20)
#    0.000    0.500    7.500    1.125    1.750    2.500 
#    0.000    0.000    0.000    0.000    0.000    0.000 
#    0.000    0.000    0.000    0.000    0.000    0.000 
#
# Total GULP energy -396928.964720 kJ/mol
# GULP energy per Si atom -12404.030147 kJ/mol
# Density = 1.976955 g / cm^3
# Si number density = 19.814653 Si / 1000 Ang^3
#
#
#
# Elastic Constant Matrix: (Units=GPa)
#
#
# Indices 1 2 3 4 5 6 
#
# 1 85.7339 25.1975 42.9204 0.0000 0.0000 0.0000
# 2 25.1975 128.1708 62.7435 0.0000 0.0000 0.0000
# 3 42.9204 62.7435 144.9954 0.0000 0.0000 0.0000
# 4 0.0000 0.0000 0.0000 47.3066 0.0000 0.0000
# 5 0.0000 0.0000 0.0000 0.0000 63.8747 0.0000
# 6 0.0000 0.0000 0.0000 0.0000 0.0000 14.8613
#
#
#
# Elastic Compliance Matrix: (Units=1/GPa)
#
#
# Indices 1 2 3 4 5 6 
#
# 1 0.013775 -0.000903 -0.003687 0.000000 0.000000 0.000000
# 2 -0.000903 0.009958 -0.004042 0.000000 0.000000 0.000000
# 3 -0.003687 -0.004042 0.009737 0.000000 0.000000 0.000000
# 4 0.000000 0.000000 0.000000 0.021139 0.000000 0.000000
# 5 0.000000 0.000000 0.000000 0.000000 0.015656 0.000000
# 6 0.000000 0.000000 0.000000 0.000000 0.000000 0.067289
#
#
# Mechanical properties :
#
#
# Convention : Reuss Voigt Hill
#
# Bulk Modulus (GPa) = 61.70261 68.95808 65.33034
# Shear Modulus (GPa) = 31.20711 40.41110 35.80910
#
# Velocity S-wave (km/s) = 3.97287 4.52093 4.25573
# Velocity P-wave (km/s) = 7.22858 7.88219 7.56245
#
# Compressibility (1/GPa) = 0.01620677
#
# Stress axis : x y z
#
# Youngs Moduli (GPa) = 72.59451 100.41905 102.70009
#
# Poissons Ratio (x) = 0.09071 0.37863
# Poissons Ratio (y) = 0.06558 0.41510
# Poissons Ratio (z) = 0.26763 0.40588
#
# Static dielectric constant tensor:
#      x y z
#    x 3.605680 0.000000 0.000000 
#    y 0.000000 3.404680 0.000000 
#    z 0.000000 0.000000 3.911900 
# 
# 
# High freq. dielectric constant tensor:
#      x y z
#    x 1.777330 0.000000 0.000000 
#    y 0.000000 1.750150 0.000000 
#    z 0.000000 0.000000 1.803310 
# 
# From -- ./inp_files/29195.got.cif
#   From: 2010.03.12/outbox.cif.g09.slc.cpg/sg63_15_cif.got.tgz:29195.got - 2010.04.10 19:34:48.
