data_PCOD8260699
_publ_section_title
;
Structure prediction by ZEFSAII (Michael W. Deem and Ramdas Pophale) SiO2 
 PCOD8260699
Probable space group: C M C M
;
_chemical_formula_sum "Si O2"
_cell_formula_units_Z 72
_cell_length_a 13.747867
_cell_length_b 14.648613
_cell_length_c 16.095843
_cell_angle_alpha 90.000000
_cell_angle_beta 90.000000
_cell_angle_gamma 90.000000
_cell_volume 3241.496484
_symmetry_space_group_name_H-M "C M C M"
_symmetry_group_IT_number 63
_symmetry_cell_setting 'orthorhombic'
loop_
_space_group_symop_operation_xyz
x,y,z
-x,-y,1/2+z
x,-y,-z
-x,y,1/2-z
-x,-y,-z
x,y,1/2-z
-x,y,z
x,-y,1/2+z
1/2+x,1/2+y,z
1/2-x,1/2-y,1/2+z
1/2+x,1/2-y,-z
1/2-x,1/2+y,1/2-z
1/2-x,1/2-y,-z
1/2+x,1/2+y,1/2-z
1/2-x,1/2+y,z
1/2+x,1/2-y,1/2+z
loop_
_atom_site_type_symbol
_atom_site_label
_atom_site_fract_x
_atom_site_fract_y
_atom_site_fract_z
Si Si1 0.701585 0.137783 0.159690
Si Si2 0.313602 0.516985 0.910176
Si Si3 0.704539 0.205290 0.580288
Si Si4 0.000000 0.936153 0.842858
Si Si5 0.500000 0.263737 0.966002
Si Si6 0.500000 0.230136 0.346117
O O1 0.714395 0.094013 0.250000
O O2 0.773812 0.224757 0.154992
O O3 0.591720 0.165781 0.143669
O O4 0.729956 0.059866 0.095170
O O5 0.259581 0.612470 0.895529
O O6 0.404030 0.500660 0.848309
O O7 0.359840 0.500000 0.000000
O O8 0.750000 0.250000 0.500000
O O9 0.589882 0.199118 0.561486
O O10 0.000000 0.893145 0.750000
O O11 0.000000 0.857726 0.913605
O O12 0.500000 0.290898 0.066900
O O13 0.500000 0.275358 0.250000
#
# Coordination Sequence:
#
# PCOD8260699 Si02
#       6
#    16  16  16   8   8   8
#     4  11  24  44  67 100 145 186 240 300 359 430
#     4  12  24  43  72 100 141 190 245 300 364 438
#     4  12  24  43  71 105 142 191 240 296 367 424
#     4  12  27  46  73 108 148 194 245 307 370 430
#     4  12  22  44  78 108 147 194 251 300 363 438
#     4  10  22  40  69 103 144 192 238 298 362 431
#
# _framework density 22.211963000000001
#
# number of rings (size 3 to 8) (size 9 to 14) (size 15 to 20)
#    0.000    0.444    6.667    1.000    0.000    4.444 
#    0.000    3.333    0.000    0.000    0.000    0.000 
#    0.000    0.000    0.000    0.000    0.000    0.000 
#
# Total GULP energy -445982.234956 kJ/mol
# GULP energy per Si atom -12388.395415 kJ/mol
# Density = 2.216141 g / cm^3
# Si number density = 22.211963 Si / 1000 Ang^3
#
#
#
# Elastic Constant Matrix: (Units=GPa)
#
#
# Indices 1 2 3 4 5 6 
#
# 1 162.3484 43.1783 37.9426 0.0000 0.0000 0.0000
# 2 43.1783 137.8062 37.9978 0.0000 0.0000 0.0000
# 3 37.9426 37.9978 125.5357 0.0000 0.0000 0.0000
# 4 0.0000 0.0000 0.0000 22.4980 0.0000 0.0000
# 5 0.0000 0.0000 0.0000 0.0000 10.3485 0.0000
# 6 0.0000 0.0000 0.0000 0.0000 0.0000 6.3862
#
#
#
# Elastic Compliance Matrix: (Units=1/GPa)
#
#
# Indices 1 2 3 4 5 6 
#
# 1 0.006997 -0.001756 -0.001583 0.000000 0.000000 0.000000
# 2 -0.001756 0.008358 -0.001999 0.000000 0.000000 0.000000
# 3 -0.001583 -0.001999 0.009050 0.000000 0.000000 0.000000
# 4 0.000000 0.000000 0.000000 0.044448 0.000000 0.000000
# 5 0.000000 0.000000 0.000000 0.000000 0.096633 0.000000
# 6 0.000000 0.000000 0.000000 0.000000 0.000000 0.156588
#
#
# Mechanical properties :
#
#
# Convention : Reuss Voigt Hill
#
# Bulk Modulus (GPa) = 72.84493 73.76974 73.30734
# Shear Modulus (GPa) = 14.82250 28.28464 21.55357
#
# Velocity S-wave (km/s) = 2.58606 3.57234 3.11844
# Velocity P-wave (km/s) = 6.46401 7.09220 6.78538
#
# Compressibility (1/GPa) = 0.01372779
#
# Stress axis : x y z
#
# Youngs Moduli (GPa) = 142.92751 119.64734 110.50313
#
# Poissons Ratio (x) = 0.21006 0.17496
# Poissons Ratio (y) = 0.25093 0.22092
# Poissons Ratio (z) = 0.22629 0.23920
#
# Static dielectric constant tensor:
#      x y z
#    x 4.893410 0.000000 0.000000 
#    y 0.000000 4.219950 0.000000 
#    z 0.000000 0.000000 4.726550 
# 
# 
# High freq. dielectric constant tensor:
#      x y z
#    x 1.894050 0.000000 0.000000 
#    y 0.000000 1.848160 0.000000 
#    z 0.000000 0.000000 1.888010 
# 
# From -- ./inp_files/43801.got.cif
#   From: 2010.03.12/outbox.cif.g09.slc.cpg/sg63_22_cif.got.tgz:43801.got - 2010.04.10 19:34:48.
