data_PCOD8260722
_publ_section_title
;
Structure prediction by ZEFSAII (Michael W. Deem and Ramdas Pophale) SiO2 
 PCOD8260722
Probable space group: C M C M
;
_chemical_formula_sum "Si O2"
_cell_formula_units_Z 112
_cell_length_a 13.545549
_cell_length_b 13.718241
_cell_length_c 28.841248
_cell_angle_alpha 90.000000
_cell_angle_beta 90.000000
_cell_angle_gamma 90.000000
_cell_volume 5359.312592
_symmetry_space_group_name_H-M "C M C M"
_symmetry_group_IT_number 63
_symmetry_cell_setting 'orthorhombic'
loop_
_space_group_symop_operation_xyz
x,y,z
-x,-y,1/2+z
x,-y,-z
-x,y,1/2-z
-x,-y,-z
x,y,1/2-z
-x,y,z
x,-y,1/2+z
1/2+x,1/2+y,z
1/2-x,1/2-y,1/2+z
1/2+x,1/2-y,-z
1/2-x,1/2+y,1/2-z
1/2-x,1/2-y,-z
1/2+x,1/2+y,1/2-z
1/2-x,1/2+y,z
1/2+x,1/2-y,1/2+z
loop_
_atom_site_type_symbol
_atom_site_label
_atom_site_fract_x
_atom_site_fract_y
_atom_site_fract_z
Si Si1 0.386901 0.549989 0.861373
Si Si2 0.888183 0.263432 0.052568
Si Si3 0.606887 0.903787 0.529418
Si Si4 0.294118 0.615408 0.303975
Si Si5 0.791519 0.318523 0.354818
Si Si6 0.686797 0.552565 0.450748
Si Si7 0.610736 0.988421 0.302775
O O1 0.500000 0.583653 0.859167
O O2 0.371129 0.460294 0.826292
O O3 0.319897 0.642518 0.847297
O O4 0.358363 0.519281 0.913210
O O5 0.813129 0.303691 0.090993
O O6 0.879736 0.148043 0.046143
O O7 0.000000 0.288176 0.067713
O O8 0.862907 0.314409 0.003939
O O9 0.500000 0.882673 0.554398
O O10 0.699694 0.918456 0.564217
O O11 0.592154 0.000000 0.500000
O O12 0.318927 0.625035 0.250000
O O13 0.307643 0.718943 0.327700
O O14 0.183126 0.578380 0.313413
O O15 0.868381 0.397205 0.335634
O O16 0.687898 0.500000 0.500000
O O17 0.625832 0.952858 0.250000
O O18 0.500000 0.025959 0.311783
#
# Coordination Sequence:
#
# PCOD8260722 Si02
#       7
#    16  16  16  16  16  16  16
#     4  11  25  43  63  94 132 169 213 264 321 383
#     4  11  22  37  61  89 120 163 210 256 312 378
#     4   9  19  36  58  86 118 155 201 253 309 366
#     4  10  22  41  64  90 125 165 205 255 314 377
#     4  11  21  38  63  90 123 160 206 260 308 370
#     4  11  22  40  62  87 125 170 211 262 316 377
#     4   9  19  36  59  88 118 151 195 247 304 366
#
# _framework density 20.898204
#
# number of rings (size 3 to 8) (size 9 to 14) (size 15 to 20)
#    0.000    1.714    1.429    3.429    0.000    3.143 
#    0.000    5.000    0.000    0.000    0.000    0.000 
#    0.000    0.000    0.000    0.000    0.000    0.000 
#
# Total GULP energy -694426.282321 kJ/mol
# GULP energy per Si atom -12400.469327 kJ/mol
# Density = 2.085064 g / cm^3
# Si number density = 20.898204 Si / 1000 Ang^3
#
#
#
# Elastic Constant Matrix: (Units=GPa)
#
#
# Indices 1 2 3 4 5 6 
#
# 1 112.5115 -0.9780 18.1622 0.0000 0.0000 0.0000
# 2 -0.9780 54.4688 -3.5686 0.0000 0.0000 0.0000
# 3 18.1622 -3.5686 31.3186 0.0000 0.0000 0.0000
# 4 0.0000 0.0000 0.0000 17.2315 0.0000 0.0000
# 5 0.0000 0.0000 0.0000 0.0000 29.5695 0.0000
# 6 0.0000 0.0000 0.0000 0.0000 0.0000 14.4786
#
#
#
# Elastic Compliance Matrix: (Units=1/GPa)
#
#
# Indices 1 2 3 4 5 6 
#
# 1 0.009808 -0.000198 -0.005710 0.000000 0.000000 0.000000
# 2 -0.000198 0.018501 0.002223 0.000000 0.000000 0.000000
# 3 -0.005710 0.002223 0.035495 0.000000 0.000000 0.000000
# 4 0.000000 0.000000 0.000000 0.058033 0.000000 0.000000
# 5 0.000000 0.000000 0.000000 0.000000 0.033819 0.000000
# 6 0.000000 0.000000 0.000000 0.000000 0.000000 0.069068
#
#
# Mechanical properties :
#
#
# Convention : Reuss Voigt Hill
#
# Bulk Modulus (GPa) = 17.72011 25.05890 21.38951
# Shear Modulus (GPa) = 19.92781 24.56813 22.24797
#
# Velocity S-wave (km/s) = 3.09134 3.43244 3.26634
# Velocity P-wave (km/s) = 4.60863 5.26553 4.94799
#
# Compressibility (1/GPa) = 0.05643307
#
# Stress axis : x y z
#
# Youngs Moduli (GPa) = 101.95679 54.05054 28.17311
#
# Poissons Ratio (x) = 0.01070 0.16088
# Poissons Ratio (y) = 0.02019 -0.06263
# Poissons Ratio (z) = 0.58222 -0.12015
#
# Static dielectric constant tensor:
#      x y z
#    x 4.106670 0.000000 0.000000 
#    y 0.000000 3.864210 0.000000 
#    z 0.000000 0.000000 3.687670 
# 
# 
# High freq. dielectric constant tensor:
#      x y z
#    x 1.827320 0.000000 0.000000 
#    y 0.000000 1.819220 0.000000 
#    z 0.000000 0.000000 1.805130 
# 
# From -- ./inp_files/69418.got.cif
#   From: 2010.03.12/outbox.cif.g09.slc.cpg/sg63_35_cif.got.tgz:69418.got - 2010.04.10 19:34:48.
