data_PCOD8260760
_publ_section_title
;
Structure prediction by ZEFSAII (Michael W. Deem and Ramdas Pophale) SiO2 
 PCOD8260760
Probable space group: C M C M
;
_chemical_formula_sum "Si O2"
_cell_formula_units_Z 64
_cell_length_a 13.450689
_cell_length_b 26.683753
_cell_length_c 8.762275
_cell_angle_alpha 90.000000
_cell_angle_beta 90.000000
_cell_angle_gamma 90.000000
_cell_volume 3144.910731
_symmetry_space_group_name_H-M "C M C M"
_symmetry_group_IT_number 63
_symmetry_cell_setting 'orthorhombic'
loop_
_space_group_symop_operation_xyz
x,y,z
-x,-y,1/2+z
x,-y,-z
-x,y,1/2-z
-x,-y,-z
x,y,1/2-z
-x,y,z
x,-y,1/2+z
1/2+x,1/2+y,z
1/2-x,1/2-y,1/2+z
1/2+x,1/2-y,-z
1/2-x,1/2+y,1/2-z
1/2-x,1/2-y,-z
1/2+x,1/2+y,1/2-z
1/2-x,1/2+y,z
1/2+x,1/2-y,1/2+z
loop_
_atom_site_type_symbol
_atom_site_label
_atom_site_fract_x
_atom_site_fract_y
_atom_site_fract_z
Si Si1 0.500000 0.201331 0.077285
Si Si2 0.210229 0.552916 0.931770
Si Si3 0.500000 0.083328 0.422995
Si Si4 0.388802 0.625762 0.572334
Si Si5 0.151605 0.231675 0.428931
O O1 0.500000 0.222950 0.250000
O O2 0.500000 0.142324 0.080966
O O3 0.410178 0.220699 0.978660
O O4 0.205698 0.550533 0.750000
O O5 0.297717 0.591016 0.987427
O O6 0.243318 0.500000 0.000000
O O7 0.100298 0.565987 0.992841
O O8 0.500000 0.061594 0.250000
O O9 0.373039 0.635360 0.750000
O O10 0.500000 0.602389 0.541779
O O11 0.386914 0.679090 0.490771
O O12 0.157783 0.226444 0.250000
O O13 0.250000 0.250000 0.500000
#
# Coordination Sequence:
#
# PCOD8260760 Si02
#       5
#     8  16   8  16  16
#     4  11  23  40  62  91 126 163 204 254 311 374
#     4  11  24  42  66  94 125 166 212 266 325 384
#     4  11  24  42  65  93 126 165 211 268 323 382
#     4  10  22  42  66  92 128 169 212 263 319 379
#     4  12  24  38  60  91 126 168 211 256 310 371
#
# _framework density 20.350341
#
# number of rings (size 3 to 8) (size 9 to 14) (size 15 to 20)
#    0.000    1.000    1.250    5.625    0.000    8.500 
#    0.000    0.000    0.000    0.000    0.000    0.000 
#    0.000    0.000    0.000    0.000    0.000    0.000 
#
# Total GULP energy -396518.114311 kJ/mol
# GULP energy per Si atom -12391.191072 kJ/mol
# Density = 2.030402 g / cm^3
# Si number density = 20.350341 Si / 1000 Ang^3
#
#
#
# Elastic Constant Matrix: (Units=GPa)
#
#
# Indices 1 2 3 4 5 6 
#
# 1 155.7312 33.1711 46.3529 0.0000 0.0000 0.0000
# 2 33.1711 86.7678 38.6613 0.0000 0.0000 0.0000
# 3 46.3529 38.6613 91.8330 0.0000 0.0000 0.0000
# 4 0.0000 0.0000 0.0000 34.1701 0.0000 0.0000
# 5 0.0000 0.0000 0.0000 0.0000 29.5083 0.0000
# 6 0.0000 0.0000 0.0000 0.0000 0.0000 43.5895
#
#
#
# Elastic Compliance Matrix: (Units=1/GPa)
#
#
# Indices 1 2 3 4 5 6 
#
# 1 0.007711 -0.001494 -0.003263 0.000000 0.000000 0.000000
# 2 -0.001494 0.014475 -0.005340 0.000000 0.000000 0.000000
# 3 -0.003263 -0.005340 0.014785 0.000000 0.000000 0.000000
# 4 0.000000 0.000000 0.000000 0.029265 0.000000 0.000000
# 5 0.000000 0.000000 0.000000 0.000000 0.033889 0.000000
# 6 0.000000 0.000000 0.000000 0.000000 0.000000 0.022941
#
#
# Mechanical properties :
#
#
# Convention : Reuss Voigt Hill
#
# Bulk Modulus (GPa) = 59.60652 63.41139 61.50896
# Shear Modulus (GPa) = 33.59028 35.86337 34.72682
#
# Velocity S-wave (km/s) = 4.06717 4.20253 4.13540
# Velocity P-wave (km/s) = 7.17005 7.40107 7.28647
#
# Compressibility (1/GPa) = 0.01677669
#
# Stress axis : x y z
#
# Youngs Moduli (GPa) = 129.68865 69.08225 67.63815
#
# Poissons Ratio (x) = 0.10320 0.22071
# Poissons Ratio (y) = 0.19374 0.36119
# Poissons Ratio (z) = 0.42319 0.36891
#
# Static dielectric constant tensor:
#      x y z
#    x 4.185240 0.000000 0.000000 
#    y 0.000000 3.653260 0.000000 
#    z 0.000000 0.000000 3.974080 
# 
# 
# High freq. dielectric constant tensor:
#      x y z
#    x 1.822650 0.000000 0.000000 
#    y 0.000000 1.797230 0.000000 
#    z 0.000000 0.000000 1.804080 
# 
# From -- ./inp_files/4327.got.cif
#   From: 2010.03.12/outbox.cif.g09.slc.cpg/sg63_3_cif.got.tgz:4327.got - 2010.04.10 19:34:48.
