data_PCOD8260207
_publ_section_title
;
Structure prediction by ZEFSAII (Michael W. Deem and Ramdas Pophale) SiO2 
 PCOD8260207
Probable space group: C M C M
;
_chemical_formula_sum "Si O2"
_cell_formula_units_Z 96
_cell_length_a 8.824563
_cell_length_b 23.427881
_cell_length_c 24.995881
_cell_angle_alpha 90.000000
_cell_angle_beta 90.000000
_cell_angle_gamma 90.000000
_cell_volume 5167.668731
_symmetry_space_group_name_H-M "C M C M"
_symmetry_group_IT_number 63
_symmetry_cell_setting 'orthorhombic'
loop_
_space_group_symop_operation_xyz
x,y,z
-x,-y,1/2+z
x,-y,-z
-x,y,1/2-z
-x,-y,-z
x,y,1/2-z
-x,y,z
x,-y,1/2+z
1/2+x,1/2+y,z
1/2-x,1/2-y,1/2+z
1/2+x,1/2-y,-z
1/2-x,1/2+y,1/2-z
1/2-x,1/2-y,-z
1/2+x,1/2+y,1/2-z
1/2-x,1/2+y,z
1/2+x,1/2-y,1/2+z
loop_
_atom_site_type_symbol
_atom_site_label
_atom_site_fract_x
_atom_site_fract_y
_atom_site_fract_z
Si Si1 0.823627 0.566312 0.999338
Si Si2 0.677169 0.364173 0.095006
Si Si3 0.175790 0.435702 0.811969
Si Si4 0.175315 0.053725 0.810895
Si Si5 0.175689 0.127729 0.096527
Si Si6 0.324492 0.752534 0.442212
O O1 0.778193 0.592007 0.056090
O O2 0.000000 0.577490 0.988557
O O3 0.783560 0.500000 0.000000
O O4 0.727288 0.595864 0.953375
O O5 0.500000 0.353370 0.089238
O O6 0.719847 0.393580 0.151225
O O7 0.758443 0.303331 0.093522
O O8 0.210018 0.424436 0.750000
O O9 0.225189 0.499531 0.828077
O O10 0.273691 0.389376 0.843986
O O11 0.000000 0.428585 0.826005
O O12 0.210210 0.072273 0.750000
O O13 0.000000 0.036768 0.818347
O O14 0.207045 0.194639 0.089779
O O15 0.000000 0.113069 0.086934
O O16 0.500000 0.763803 0.451640
O O17 0.250000 0.750000 0.500000
#
# Coordination Sequence:
#
# PCOD8260207 Si02
#       6
#    16  16  16  16  16  16
#     4  11  23  36  54  82 115 148 184 232 287 340
#     4  11  22  36  57  84 114 150 191 233 283 341
#     4  10  21  37  59  87 117 150 188 232 285 340
#     4   9  19  37  60  85 115 152 191 232 281 338
#     4  11  23  38  58  83 111 148 192 234 283 340
#     4  11  23  39  59  82 111 150 193 236 286 339
#
# _framework density 18.577043
#
# number of rings (size 3 to 8) (size 9 to 14) (size 15 to 20)
#    0.000    1.500    1.667    3.500    0.000    8.333 
#    0.000    0.833    0.000    3.000    0.000    0.000 
#    0.000    0.000    0.000    0.000    0.000    0.000 
#
# Total GULP energy -595480.220319 kJ/mol
# GULP energy per Si atom -12405.837923 kJ/mol
# Density = 1.853476 g / cm^3
# Si number density = 18.577043 Si / 1000 Ang^3
#
#
#
# Elastic Constant Matrix: (Units=GPa)
#
#
# Indices 1 2 3 4 5 6 
#
# 1 76.7185 63.1402 39.7386 0.0000 0.0000 0.0000
# 2 63.1402 141.1767 66.8525 0.0000 0.0000 0.0000
# 3 39.7386 66.8525 100.7820 0.0000 0.0000 0.0000
# 4 0.0000 0.0000 0.0000 27.3070 0.0000 0.0000
# 5 0.0000 0.0000 0.0000 0.0000 28.3056 0.0000
# 6 0.0000 0.0000 0.0000 0.0000 0.0000 33.0939
#
#
#
# Elastic Compliance Matrix: (Units=1/GPa)
#
#
# Indices 1 2 3 4 5 6 
#
# 1 0.021241 -0.008068 -0.003023 0.000000 0.000000 0.000000
# 2 -0.008068 0.013392 -0.005702 0.000000 0.000000 0.000000
# 3 -0.003023 -0.005702 0.014897 0.000000 0.000000 0.000000
# 4 0.000000 0.000000 0.000000 0.036621 0.000000 0.000000
# 5 0.000000 0.000000 0.000000 0.000000 0.035329 0.000000
# 6 0.000000 0.000000 0.000000 0.000000 0.000000 0.030217
#
#
# Mechanical properties :
#
#
# Convention : Reuss Voigt Hill
#
# Bulk Modulus (GPa) = 62.72554 73.12667 67.92610
# Shear Modulus (GPa) = 26.23327 27.67101 26.95214
#
# Velocity S-wave (km/s) = 3.76191 3.86363 3.81311
# Velocity P-wave (km/s) = 7.26001 7.70409 7.48534
#
# Compressibility (1/GPa) = 0.01594247
#
# Stress axis : x y z
#
# Youngs Moduli (GPa) = 47.07891 74.67224 67.12783
#
# Poissons Ratio (x) = 0.60246 0.20296
# Poissons Ratio (y) = 0.37984 0.38277
# Poissons Ratio (z) = 0.14234 0.42578
#
# Static dielectric constant tensor:
#      x y z
#    x 3.554260 0.000000 0.000000 
#    y 0.000000 5.394970 0.000000 
#    z 0.000000 0.000000 3.487940 
# 
# 
# High freq. dielectric constant tensor:
#      x y z
#    x 1.735520 0.000000 0.000000 
#    y 0.000000 1.722190 0.000000 
#    z 0.000000 0.000000 1.721110 
# 
# From -- ./inp_files/66862.got.cif
#   From: 2010.03.12/outbox.cif.g09.slc.cpg/sg63_34_cif.got.tgz:66862.got - 2010.04.10 19:34:48.
