data_PCOD8260703
_publ_section_title
;
Structure prediction by ZEFSAII (Michael W. Deem and Ramdas Pophale) SiO2 
 PCOD8260703
Probable space group: C M C M
;
_chemical_formula_sum "Si O2"
_cell_formula_units_Z 96
_cell_length_a 23.737458
_cell_length_b 24.255203
_cell_length_c 8.783367
_cell_angle_alpha 90.000000
_cell_angle_beta 90.000000
_cell_angle_gamma 90.000000
_cell_volume 5057.083826
_symmetry_space_group_name_H-M "C M C M"
_symmetry_group_IT_number 63
_symmetry_cell_setting 'orthorhombic'
loop_
_space_group_symop_operation_xyz
x,y,z
-x,-y,1/2+z
x,-y,-z
-x,y,1/2-z
-x,-y,-z
x,y,1/2-z
-x,y,z
x,-y,1/2+z
1/2+x,1/2+y,z
1/2-x,1/2-y,1/2+z
1/2+x,1/2-y,-z
1/2-x,1/2+y,1/2-z
1/2-x,1/2-y,-z
1/2+x,1/2+y,1/2-z
1/2-x,1/2+y,z
1/2+x,1/2-y,1/2+z
loop_
_atom_site_type_symbol
_atom_site_label
_atom_site_fract_x
_atom_site_fract_y
_atom_site_fract_z
Si Si1 0.234957 0.840993 0.569434
Si Si2 0.866889 0.231041 0.070054
Si Si3 0.336730 0.557519 0.429893
Si Si4 0.938175 0.126828 0.069499
Si Si5 0.435062 0.058495 0.929474
Si Si6 0.862202 0.656417 0.069676
O O1 0.235598 0.841398 0.750000
O O2 0.196099 0.788932 0.517827
O O3 0.207401 0.897451 0.509304
O O4 0.298231 0.840233 0.505187
O O5 0.868717 0.242096 0.250000
O O6 0.910990 0.184481 0.019103
O O7 0.888039 0.285303 0.981707
O O8 0.319176 0.500000 0.500000
O O9 0.334150 0.553059 0.250000
O O10 0.399150 0.575999 0.484785
O O11 0.941956 0.126277 0.250000
O O12 0.000000 0.120411 0.995327
O O13 0.426401 0.055202 0.750000
O O14 0.500000 0.071542 0.972043
O O15 0.395736 0.106203 0.995618
O O16 0.416559 0.000000 0.000000
O O17 0.864890 0.649246 0.250000
#
# Coordination Sequence:
#
# PCOD8260703 Si02
#       6
#    16  16  16  16  16  16
#     4   8  17  33  50  70 101 140 175 210 252 299
#     4   9  17  32  52  73 101 137 177 216 252 293
#     4   9  17  31  49  69  96 129 166 206 248 293
#     4   8  15  29  49  70  94 129 169 206 246 293
#     4  10  22  41  61  79 102 132 166 206 253 305
#     4  11  21  33  53  80 107 134 167 206 252 307
#
# _framework density 18.983270999999998
#
# number of rings (size 3 to 8) (size 9 to 14) (size 15 to 20)
#    0.000    2.833    0.000    3.500    0.000    2.667 
#    0.000    9.167    0.000    1.000    0.000    0.000 
#    0.000    0.000    0.000    0.000    0.000    0.000 
#
# Total GULP energy -594941.808179 kJ/mol
# GULP energy per Si atom -12394.621004 kJ/mol
# Density = 1.894006 g / cm^3
# Si number density = 18.983271 Si / 1000 Ang^3
#
#
#
# Elastic Constant Matrix: (Units=GPa)
#
#
# Indices 1 2 3 4 5 6 
#
# 1 55.3056 18.9525 15.2409 0.0000 0.0000 0.0000
# 2 18.9525 125.4681 28.9438 0.0000 0.0000 0.0000
# 3 15.2409 28.9438 43.2298 0.0000 0.0000 0.0000
# 4 0.0000 0.0000 0.0000 35.1867 0.0000 0.0000
# 5 0.0000 0.0000 0.0000 0.0000 20.3834 0.0000
# 6 0.0000 0.0000 0.0000 0.0000 0.0000 24.2310
#
#
#
# Elastic Compliance Matrix: (Units=1/GPa)
#
#
# Indices 1 2 3 4 5 6 
#
# 1 0.020321 -0.001676 -0.006042 0.000000 0.000000 0.000000
# 2 -0.001676 0.009564 -0.005813 0.000000 0.000000 0.000000
# 3 -0.006042 -0.005813 0.029154 0.000000 0.000000 0.000000
# 4 0.000000 0.000000 0.000000 0.028420 0.000000 0.000000
# 5 0.000000 0.000000 0.000000 0.000000 0.049059 0.000000
# 6 0.000000 0.000000 0.000000 0.000000 0.000000 0.041269
#
#
# Mechanical properties :
#
#
# Convention : Reuss Voigt Hill
#
# Bulk Modulus (GPa) = 31.27174 38.91976 35.09575
# Shear Modulus (GPa) = 23.20094 26.68466 24.94280
#
# Velocity S-wave (km/s) = 3.49976 3.75333 3.62876
# Velocity P-wave (km/s) = 5.73063 6.27136 6.00708
#
# Compressibility (1/GPa) = 0.03197775
#
# Stress axis : x y z
#
# Youngs Moduli (GPa) = 49.21100 104.55656 34.30026
#
# Poissons Ratio (x) = 0.17520 0.20725
# Poissons Ratio (y) = 0.08246 0.19938
# Poissons Ratio (z) = 0.29735 0.60777
#
# Static dielectric constant tensor:
#      x y z
#    x 3.917500 0.000000 0.000000 
#    y 0.000000 3.602470 0.000000 
#    z 0.000000 0.000000 2.996350 
# 
# 
# High freq. dielectric constant tensor:
#      x y z
#    x 1.739400 0.000000 0.000000 
#    y 0.000000 1.745970 0.000000 
#    z 0.000000 0.000000 1.704880 
# 
# From -- ./inp_files/10482.got.cif
#   From: 2010.03.12/outbox.cif.g09.slc.cpg/sg63_6_cif.got.tgz:10482.got - 2010.04.10 19:34:48.
