data_PCOD8260932
_publ_section_title
;
Structure prediction by ZEFSAII (Michael W. Deem and Ramdas Pophale) SiO2 
 PCOD8260932
Probable space group: C M C M
;
_chemical_formula_sum "Si O2"
_cell_formula_units_Z 80
_cell_length_a 8.921667
_cell_length_b 25.299853
_cell_length_c 19.758439
_cell_angle_alpha 90.000000
_cell_angle_beta 90.000000
_cell_angle_gamma 90.000000
_cell_volume 4459.812881
_symmetry_space_group_name_H-M "C M C M"
_symmetry_group_IT_number 63
_symmetry_cell_setting 'orthorhombic'
loop_
_space_group_symop_operation_xyz
x,y,z
-x,-y,1/2+z
x,-y,-z
-x,y,1/2-z
-x,-y,-z
x,y,1/2-z
-x,y,z
x,-y,1/2+z
1/2+x,1/2+y,z
1/2-x,1/2-y,1/2+z
1/2+x,1/2-y,-z
1/2-x,1/2+y,1/2-z
1/2-x,1/2-y,-z
1/2+x,1/2+y,1/2-z
1/2-x,1/2+y,z
1/2+x,1/2-y,1/2+z
loop_
_atom_site_type_symbol
_atom_site_label
_atom_site_fract_x
_atom_site_fract_y
_atom_site_fract_z
Si Si1 0.672362 0.189003 0.171389
Si Si2 0.334291 0.007037 0.919888
Si Si3 0.674016 0.233942 0.930392
Si Si4 0.176192 0.096468 0.400709
Si Si5 0.326582 0.116973 0.541250
O O1 0.689496 0.201681 0.250000
O O2 0.500000 0.185892 0.148652
O O3 0.750957 0.236533 0.131929
O O4 0.749260 0.132984 0.156066
O O5 0.500000 0.997682 0.889208
O O6 0.281435 0.068092 0.908790
O O7 0.222783 0.964502 0.886742
O O8 0.336576 0.000000 0.000000
O O9 0.500000 0.249420 0.933872
O O10 0.696981 0.171308 0.918372
O O11 0.750000 0.250000 0.000000
O O12 0.226710 0.117333 0.473922
O O13 0.000000 0.101178 0.394682
O O14 0.500000 0.109942 0.518508
#
# Coordination Sequence:
#
# PCOD8260932 Si02
#       5
#    16  16  16  16  16
#     4  11  24  40  56  75 105 146 187 228 277 332
#     4   8  15  29  48  71 103 140 172 207 253 311
#     4  11  21  34  56  83 111 143 181 226 272 324
#     4  11  20  30  50  78 107 137 172 222 273 320
#     4   9  18  32  51  76 108 143 176 213 263 321
#
# _framework density 17.937973
#
# number of rings (size 3 to 8) (size 9 to 14) (size 15 to 20)
#    0.000    2.000    2.000    4.200    0.000    6.000 
#    0.000    0.000    0.000    1.200    0.000    2.800 
#    0.000    0.000    0.000    0.000    0.000    0.000 
#
# Total GULP energy -495916.970303 kJ/mol
# GULP energy per Si atom -12397.924258 kJ/mol
# Density = 1.789715 g / cm^3
# Si number density = 17.937973 Si / 1000 Ang^3
#
#
#
# Elastic Constant Matrix: (Units=GPa)
#
#
# Indices 1 2 3 4 5 6 
#
# 1 139.4484 68.2959 45.7132 0.0000 0.0000 0.0000
# 2 68.2959 160.7764 45.3031 0.0000 0.0000 0.0000
# 3 45.7132 45.3031 57.4517 0.0000 0.0000 0.0000
# 4 0.0000 0.0000 0.0000 21.4189 0.0000 0.0000
# 5 0.0000 0.0000 0.0000 0.0000 20.8997 0.0000
# 6 0.0000 0.0000 0.0000 0.0000 0.0000 31.5572
#
#
#
# Elastic Compliance Matrix: (Units=1/GPa)
#
#
# Indices 1 2 3 4 5 6 
#
# 1 0.010553 -0.002721 -0.006251 0.000000 0.000000 0.000000
# 2 -0.002721 0.008698 -0.004694 0.000000 0.000000 0.000000
# 3 -0.006251 -0.004694 0.026081 0.000000 0.000000 0.000000
# 4 0.000000 0.000000 0.000000 0.046688 0.000000 0.000000
# 5 0.000000 0.000000 0.000000 0.000000 0.047847 0.000000
# 6 0.000000 0.000000 0.000000 0.000000 0.000000 0.031689
#
#
# Mechanical properties :
#
#
# Convention : Reuss Voigt Hill
#
# Bulk Modulus (GPa) = 55.55476 75.14455 65.34966
# Shear Modulus (GPa) = 24.40354 27.99944 26.20149
#
# Velocity S-wave (km/s) = 3.69242 3.95511 3.82602
# Velocity P-wave (km/s) = 7.01543 7.92714 7.48518
#
# Compressibility (1/GPa) = 0.01800026
#
# Stress axis : x y z
#
# Youngs Moduli (GPa) = 94.75882 114.96322 38.34238
#
# Poissons Ratio (x) = 0.31287 0.23967
# Poissons Ratio (y) = 0.25788 0.17997
# Poissons Ratio (z) = 0.59233 0.53960
#
# Static dielectric constant tensor:
#      x y z
#    x 3.399630 0.000000 0.000000 
#    y 0.000000 4.120320 0.000000 
#    z 0.000000 0.000000 2.980530 
# 
# 
# High freq. dielectric constant tensor:
#      x y z
#    x 1.700910 0.000000 0.000000 
#    y 0.000000 1.719810 0.000000 
#    z 0.000000 0.000000 1.635730 
# 
# From -- ./inp_files/40506.got.cif
#   From: 2010.03.12/outbox.cif.g09.slc.cpg/sg63_21_cif.got.tgz:40506.got - 2010.04.10 19:34:48.
