data_PCOD8260248
_publ_section_title
;
Structure prediction by ZEFSAII (Michael W. Deem and Ramdas Pophale) SiO2 
 PCOD8260248
Probable space group: C M C M
;
_chemical_formula_sum "Si O2"
_cell_formula_units_Z 64
_cell_length_a 14.354319
_cell_length_b 14.357022
_cell_length_c 16.246590
_cell_angle_alpha 90.000000
_cell_angle_beta 90.000000
_cell_angle_gamma 90.000000
_cell_volume 3348.182946
_symmetry_space_group_name_H-M "C M C M"
_symmetry_group_IT_number 63
_symmetry_cell_setting 'orthorhombic'
loop_
_space_group_symop_operation_xyz
x,y,z
-x,-y,1/2+z
x,-y,-z
-x,y,1/2-z
-x,-y,-z
x,y,1/2-z
-x,y,z
x,-y,1/2+z
1/2+x,1/2+y,z
1/2-x,1/2-y,1/2+z
1/2+x,1/2-y,-z
1/2-x,1/2+y,1/2-z
1/2-x,1/2-y,-z
1/2+x,1/2+y,1/2-z
1/2-x,1/2+y,z
1/2+x,1/2-y,1/2+z
loop_
_atom_site_type_symbol
_atom_site_label
_atom_site_fract_x
_atom_site_fract_y
_atom_site_fract_z
Si Si1 0.393231 0.907710 0.949605
Si Si2 0.720009 0.399274 0.655902
Si Si3 0.602681 0.446284 0.085591
Si Si4 0.391953 0.286552 0.524950
O O1 0.500000 0.905251 0.919123
O O2 0.327986 0.904793 0.869842
O O3 0.370931 0.821678 0.010208
O O4 0.369711 0.000000 0.000000
O O5 0.714330 0.367768 0.750000
O O6 0.674221 0.502116 0.646182
O O7 0.667459 0.321505 0.602266
O O8 0.500000 0.445157 0.127039
O O9 0.599386 0.500000 0.000000
O O10 0.634572 0.341646 0.060022
O O11 0.500000 0.305007 0.546100
#
# Coordination Sequence:
#
# PCOD8260248 Si02
#       4
#    16  16  16  16
#     4  10  21  38  57  73  97 142 191 220 241 289
#     4  11  21  32  52  82 112 134 160 213 273 317
#     4   8  15  30  52  76 102 131 163 203 254 312
#     4   9  18  35  58  79 101 135 177 215 254 309
#
# _framework density 19.114844999999999
#
# number of rings (size 3 to 8) (size 9 to 14) (size 15 to 20)
#    0.000    2.500    0.000    5.250    0.000    2.500 
#    0.000    5.000    0.000    9.000    0.000    0.000 
#    0.000    0.000    0.000    0.000    0.000    0.000 
#
# Total GULP energy -396692.441360 kJ/mol
# GULP energy per Si atom -12396.638792 kJ/mol
# Density = 1.907134 g / cm^3
# Si number density = 19.114845 Si / 1000 Ang^3
#
#
#
# Elastic Constant Matrix: (Units=GPa)
#
#
# Indices 1 2 3 4 5 6 
#
# 1 114.2002 41.4228 64.2471 0.0000 0.0000 0.0000
# 2 41.4228 135.3046 38.8811 0.0000 0.0000 0.0000
# 3 64.2471 38.8811 95.2956 0.0000 0.0000 0.0000
# 4 0.0000 0.0000 0.0000 10.3528 0.0000 0.0000
# 5 0.0000 0.0000 0.0000 0.0000 13.0746 0.0000
# 6 0.0000 0.0000 0.0000 0.0000 0.0000 12.8775
#
#
#
# Elastic Compliance Matrix: (Units=1/GPa)
#
#
# Indices 1 2 3 4 5 6 
#
# 1 0.014504 -0.001847 -0.009025 0.000000 0.000000 0.000000
# 2 -0.001847 0.008608 -0.002267 0.000000 0.000000 0.000000
# 3 -0.009025 -0.002267 0.017503 0.000000 0.000000 0.000000
# 4 0.000000 0.000000 0.000000 0.096592 0.000000 0.000000
# 5 0.000000 0.000000 0.000000 0.000000 0.076484 0.000000
# 6 0.000000 0.000000 0.000000 0.000000 0.000000 0.077655
#
#
# Mechanical properties :
#
#
# Convention : Reuss Voigt Hill
#
# Bulk Modulus (GPa) = 69.74768 70.43358 70.09063
# Shear Modulus (GPa) = 15.50865 20.61093 18.05979
#
# Velocity S-wave (km/s) = 2.85149 3.28726 3.07710
# Velocity P-wave (km/s) = 6.88544 7.16489 7.02656
#
# Compressibility (1/GPa) = 0.01433739
#
# Stress axis : x y z
#
# Youngs Moduli (GPa) = 68.94872 116.17744 57.13381
#
# Poissons Ratio (x) = 0.21457 0.51561
# Poissons Ratio (y) = 0.12734 0.12951
# Poissons Ratio (z) = 0.62223 0.26335
#
# Static dielectric constant tensor:
#      x y z
#    x 3.732100 0.000000 0.000000 
#    y 0.000000 4.027750 0.000000 
#    z 0.000000 0.000000 2.980300 
# 
# 
# High freq. dielectric constant tensor:
#      x y z
#    x 1.759700 0.000000 0.000000 
#    y 0.000000 1.751120 0.000000 
#    z 0.000000 0.000000 1.688700 
# 
# From -- ./inp_files/31106.got.cif
#   From: 2010.03.12/outbox.cif.g09.slc.cpg/sg63_16_cif.got.tgz:31106.got - 2010.04.10 19:34:48.
