data_PCOD8260688
_publ_section_title
;
Structure prediction by ZEFSAII (Michael W. Deem and Ramdas Pophale) SiO2 
 PCOD8260688
Probable space group: C M C M
;
_chemical_formula_sum "Si O2"
_cell_formula_units_Z 64
_cell_length_a 7.589500
_cell_length_b 27.508164
_cell_length_c 14.657970
_cell_angle_alpha 90.000000
_cell_angle_beta 90.000000
_cell_angle_gamma 90.000000
_cell_volume 3060.191459
_symmetry_space_group_name_H-M "C M C M"
_symmetry_group_IT_number 63
_symmetry_cell_setting 'orthorhombic'
loop_
_space_group_symop_operation_xyz
x,y,z
-x,-y,1/2+z
x,-y,-z
-x,y,1/2-z
-x,-y,-z
x,y,1/2-z
-x,y,z
x,-y,1/2+z
1/2+x,1/2+y,z
1/2-x,1/2-y,1/2+z
1/2+x,1/2-y,-z
1/2-x,1/2+y,1/2-z
1/2-x,1/2-y,-z
1/2+x,1/2+y,1/2-z
1/2-x,1/2+y,z
1/2+x,1/2-y,1/2+z
loop_
_atom_site_type_symbol
_atom_site_label
_atom_site_fract_x
_atom_site_fract_y
_atom_site_fract_z
Si Si1 0.000000 0.200770 0.655160
Si Si2 0.707411 0.377455 0.853768
Si Si3 0.300653 0.944943 0.481552
Si Si4 0.500000 0.596980 0.859761
Si Si5 0.294982 0.732083 0.400202
O O1 0.000000 0.152270 0.593437
O O2 0.174632 0.233135 0.659340
O O3 0.000000 0.172067 0.750000
O O4 0.775298 0.386684 0.750000
O O5 0.500000 0.383612 0.857712
O O6 0.762302 0.323241 0.884479
O O7 0.791495 0.415483 0.923373
O O8 0.500000 0.941717 0.444707
O O9 0.175894 0.926105 0.401201
O O10 0.243925 0.000000 0.500000
O O11 0.500000 0.589188 0.750000
O O12 0.500000 0.739866 0.376252
O O13 0.250000 0.750000 0.500000
#
# Coordination Sequence:
#
# PCOD8260688 Si02
#       5
#     8  16  16   8  16
#     4  11  24  39  59  90 125 166 214 256 308 379
#     4  10  22  40  65  97 133 173 220 274 335 400
#     4  11  25  45  69  97 131 170 218 278 342 403
#     4  11  25  45  68  94 131 176 224 274 326 395
#     4  11  22  38  60  90 129 171 212 263 318 381
#
# _framework density 20.913723000000001
#
# number of rings (size 3 to 8) (size 9 to 14) (size 15 to 20)
#    0.000    1.250    2.500    2.625    1.750    6.500 
#    0.000    5.000    0.000    0.000    0.000    0.000 
#    0.000    0.000    0.000    0.000    0.000    0.000 
#
# Total GULP energy -396468.890477 kJ/mol
# GULP energy per Si atom -12389.652827 kJ/mol
# Density = 2.086612 g / cm^3
# Si number density = 20.913723 Si / 1000 Ang^3
#
#
#
# Elastic Constant Matrix: (Units=GPa)
#
#
# Indices 1 2 3 4 5 6 
#
# 1 122.2619 73.0988 37.1757 0.0000 0.0000 0.0000
# 2 73.0988 178.4957 54.7565 0.0000 0.0000 0.0000
# 3 37.1757 54.7565 131.8181 0.0000 0.0000 0.0000
# 4 0.0000 0.0000 0.0000 18.0468 0.0000 0.0000
# 5 0.0000 0.0000 0.0000 0.0000 -4.2650 0.0000
# 6 0.0000 0.0000 0.0000 0.0000 0.0000 33.8052
#
#
#
# Elastic Compliance Matrix: (Units=1/GPa)
#
#
# Indices 1 2 3 4 5 6 
#
# 1 0.011058 -0.004093 -0.001418 0.000000 0.000000 0.000000
# 2 -0.004093 0.007936 -0.002142 0.000000 0.000000 0.000000
# 3 -0.001418 -0.002142 0.008876 0.000000 0.000000 0.000000
# 4 0.000000 0.000000 0.000000 0.055411 0.000000 0.000000
# 5 0.000000 0.000000 0.000000 0.000000 -0.234466 0.000000
# 6 0.000000 0.000000 0.000000 0.000000 0.000000 0.029581
#
#
# Mechanical properties :
#
#
# Convention : Reuss Voigt Hill
#
# Bulk Modulus (GPa) = 79.60327 84.73755 82.17041
# Shear Modulus (GPa) = -48.96737 27.35372 -10.80683
#
# Velocity S-wave (km/s) = -4.84405 3.62046 -2.27564
# Velocity P-wave (km/s) = 2.61895 7.62119 5.69831
#
# Compressibility (1/GPa) = 0.01256230
#
# Stress axis : x y z
#
# Youngs Moduli (GPa) = 90.43412 126.01039 112.66376
#
# Poissons Ratio (x) = 0.51581 0.15978
# Poissons Ratio (y) = 0.37018 0.24133
# Poissons Ratio (z) = 0.12825 0.26992
#
# Static dielectric constant tensor:
#      x y z
#    x 3.447000 0.000000 0.000000 
#    y 0.000000 3.809820 0.000000 
#    z 0.000000 0.000000 3.848980 
# 
# 
# High freq. dielectric constant tensor:
#      x y z
#    x 1.825510 0.000000 0.000000 
#    y 0.000000 1.830930 0.000000 
#    z 0.000000 0.000000 1.827150 
# 
# From -- ./inp_files/27556.got.cif
#   From: 2010.03.12/outbox.cif.g09.slc.cpg/sg63_14_cif.got.tgz:27556.got - 2010.04.10 19:34:48.
