data_PCOD8260926
_publ_section_title
;
Structure prediction by ZEFSAII (Michael W. Deem and Ramdas Pophale) SiO2 
 PCOD8260926
Probable space group: C M C M
;
_chemical_formula_sum "Si O2"
_cell_formula_units_Z 80
_cell_length_a 21.323348
_cell_length_b 12.471122
_cell_length_c 18.080472
_cell_angle_alpha 90.000000
_cell_angle_beta 90.000000
_cell_angle_gamma 90.000000
_cell_volume 4808.068941
_symmetry_space_group_name_H-M "C M C M"
_symmetry_group_IT_number 63
_symmetry_cell_setting 'orthorhombic'
loop_
_space_group_symop_operation_xyz
x,y,z
-x,-y,1/2+z
x,-y,-z
-x,y,1/2-z
-x,-y,-z
x,y,1/2-z
-x,y,z
x,-y,1/2+z
1/2+x,1/2+y,z
1/2-x,1/2-y,1/2+z
1/2+x,1/2-y,-z
1/2-x,1/2+y,1/2-z
1/2-x,1/2-y,-z
1/2+x,1/2+y,1/2-z
1/2-x,1/2+y,z
1/2+x,1/2-y,1/2+z
loop_
_atom_site_type_symbol
_atom_site_label
_atom_site_fract_x
_atom_site_fract_y
_atom_site_fract_z
Si Si1 0.169228 0.552041 0.336283
Si Si2 0.838681 0.801040 0.663787
Si Si3 0.569725 0.117468 0.837701
Si Si4 0.202761 0.995527 0.412708
Si Si5 0.298832 0.715118 0.665661
O O1 0.184563 0.530050 0.250000
O O2 0.106943 0.489602 0.362370
O O3 0.227213 0.507777 0.382423
O O4 0.159506 0.678808 0.350247
O O5 0.845260 0.828738 0.750000
O O6 0.894188 0.723945 0.635027
O O7 0.773423 0.741401 0.648108
O O8 0.842494 0.911696 0.618620
O O9 0.565714 0.120185 0.750000
O O10 0.500000 0.114813 0.872628
O O11 0.176729 0.879823 0.386915
O O12 0.203014 0.000000 0.500000
O O13 0.306483 0.677399 0.750000
#
# Coordination Sequence:
#
# PCOD8260926 Si02
#       5
#    16  16  16  16  16
#     4   9  17  30  47  70  96 124 154 189 239 287
#     4   9  17  29  47  70  96 124 156 192 234 281
#     4   9  16  29  51  74  93 116 154 200 235 270
#     4  11  20  28  44  71  99 129 153 193 235 278
#     4   9  16  29  48  67  93 124 150 187 237 283
#
# _framework density 16.638697000000001
#
# number of rings (size 3 to 8) (size 9 to 14) (size 15 to 20)
#    0.000    2.600    2.000    3.000    0.000    3.200 
#    0.000    0.000    0.000    2.400    0.000    5.600 
#    0.000    0.000    0.000    0.000    0.000    0.000 
#
# Total GULP energy -495901.908002 kJ/mol
# GULP energy per Si atom -12397.547700 kJ/mol
# Density = 1.660083 g / cm^3
# Si number density = 16.638697 Si / 1000 Ang^3
#
#
#
# Elastic Constant Matrix: (Units=GPa)
#
#
# Indices 1 2 3 4 5 6 
#
# 1 97.2196 65.9884 22.7493 0.0000 0.0000 0.0000
# 2 65.9884 157.4285 57.4840 0.0000 0.0000 0.0000
# 3 22.7493 57.4840 69.1862 0.0000 0.0000 0.0000
# 4 0.0000 0.0000 0.0000 9.3100 0.0000 0.0000
# 5 0.0000 0.0000 0.0000 0.0000 5.7700 0.0000
# 6 0.0000 0.0000 0.0000 0.0000 0.0000 23.8177
#
#
#
# Elastic Compliance Matrix: (Units=1/GPa)
#
#
# Indices 1 2 3 4 5 6 
#
# 1 0.014384 -0.006176 0.000402 0.000000 0.000000 0.000000
# 2 -0.006176 0.011770 -0.007749 0.000000 0.000000 0.000000
# 3 0.000402 -0.007749 0.020760 0.000000 0.000000 0.000000
# 4 0.000000 0.000000 0.000000 0.107412 0.000000 0.000000
# 5 0.000000 0.000000 0.000000 0.000000 0.173309 0.000000
# 6 0.000000 0.000000 0.000000 0.000000 0.000000 0.041986
#
#
# Mechanical properties :
#
#
# Convention : Reuss Voigt Hill
#
# Bulk Modulus (GPa) = 50.33195 68.47529 59.40362
# Shear Modulus (GPa) = 12.39806 19.62039 16.00923
#
# Velocity S-wave (km/s) = 2.73268 3.43768 3.10525
# Velocity P-wave (km/s) = 6.34605 7.54986 6.97398
#
# Compressibility (1/GPa) = 0.01986810
#
# Stress axis : x y z
#
# Youngs Moduli (GPa) = 69.52200 84.96053 48.17026
#
# Poissons Ratio (x) = 0.52471 -0.01935
# Poissons Ratio (y) = 0.42936 0.37325
# Poissons Ratio (z) = -0.02793 0.65833
#
# Static dielectric constant tensor:
#      x y z
#    x 3.030610 0.000000 0.000000 
#    y 0.000000 3.434630 0.000000 
#    z 0.000000 0.000000 2.836250 
# 
# 
# High freq. dielectric constant tensor:
#      x y z
#    x 1.596340 0.000000 0.000000 
#    y 0.000000 1.659710 0.000000 
#    z 0.000000 0.000000 1.610790 
# 
# From -- ./inp_files/36444.got.cif
#   From: 2010.03.12/outbox.cif.g09.slc.cpg/sg63_19_cif.got.tgz:36444.got - 2010.04.10 19:34:48.
