data_PCOD8260595
_publ_section_title
;
Structure prediction by ZEFSAII (Michael W. Deem and Ramdas Pophale) SiO2 
 PCOD8260595
Probable space group: C M C M
;
_chemical_formula_sum "Si O2"
_cell_formula_units_Z 80
_cell_length_a 9.361394
_cell_length_b 14.569734
_cell_length_c 29.594542
_cell_angle_alpha 90.000000
_cell_angle_beta 90.000000
_cell_angle_gamma 90.000000
_cell_volume 4036.488972
_symmetry_space_group_name_H-M "C M C M"
_symmetry_group_IT_number 63
_symmetry_cell_setting 'orthorhombic'
loop_
_space_group_symop_operation_xyz
x,y,z
-x,-y,1/2+z
x,-y,-z
-x,y,1/2-z
-x,-y,-z
x,y,1/2-z
-x,y,z
x,-y,1/2+z
1/2+x,1/2+y,z
1/2-x,1/2-y,1/2+z
1/2+x,1/2-y,-z
1/2-x,1/2+y,1/2-z
1/2-x,1/2-y,-z
1/2+x,1/2+y,1/2-z
1/2-x,1/2+y,z
1/2+x,1/2-y,1/2+z
loop_
_atom_site_type_symbol
_atom_site_label
_atom_site_fract_x
_atom_site_fract_y
_atom_site_fract_z
Si Si1 0.832398 0.450376 0.801073
Si Si2 0.162383 0.183097 0.450394
Si Si3 0.332847 0.098801 0.627292
Si Si4 0.663936 0.634889 0.955589
Si Si5 0.161520 0.192275 0.351915
O O1 0.788790 0.475689 0.750000
O O2 0.776929 0.531601 0.833476
O O3 0.761211 0.354395 0.814858
O O4 0.000000 0.436765 0.805722
O O5 0.282804 0.260315 0.454769
O O6 0.180903 0.107166 0.490787
O O7 0.179060 0.139598 0.400330
O O8 0.000000 0.225227 0.453661
O O9 0.500000 0.086819 0.619038
O O10 0.255433 0.074407 0.579644
O O11 0.293153 0.201722 0.642361
O O12 0.500000 0.629243 0.940132
O O13 0.000000 0.185847 0.334081
#
# Coordination Sequence:
#
# PCOD8260595 Si02
#       5
#    16  16  16  16  16
#     4  10  22  39  56  75 101 133 171 217 266 312
#     4   8  15  28  46  72 107 142 170 200 247 304
#     4   9  19  36  55  75 104 140 172 205 254 313
#     4   9  15  25  47  77 105 135 172 210 245 289
#     4   9  18  34  56  79 103 134 172 210 250 302
#
# _framework density 19.819205
#
# number of rings (size 3 to 8) (size 9 to 14) (size 15 to 20)
#    0.000    3.000    0.000    1.800    0.000    6.000 
#    0.000    3.000    0.000    6.000    0.000    0.000 
#    0.000    0.000    0.000    0.000    0.000    0.000 
#
# Total GULP energy -495611.597458 kJ/mol
# GULP energy per Si atom -12390.289936 kJ/mol
# Density = 1.977410 g / cm^3
# Si number density = 19.819205 Si / 1000 Ang^3
#
#
#
# Elastic Constant Matrix: (Units=GPa)
#
#
# Indices 1 2 3 4 5 6 
#
# 1 44.9414 9.5067 29.0706 0.0000 0.0000 0.0000
# 2 9.5067 28.0743 13.4897 0.0000 0.0000 0.0000
# 3 29.0706 13.4897 90.3144 0.0000 0.0000 0.0000
# 4 0.0000 0.0000 0.0000 30.4111 0.0000 0.0000
# 5 0.0000 0.0000 0.0000 0.0000 33.7418 0.0000
# 6 0.0000 0.0000 0.0000 0.0000 0.0000 21.0082
#
#
#
# Elastic Compliance Matrix: (Units=1/GPa)
#
#
# Indices 1 2 3 4 5 6 
#
# 1 0.028935 -0.005734 -0.008457 0.000000 0.000000 0.000000
# 2 -0.005734 0.039510 -0.004056 0.000000 0.000000 0.000000
# 3 -0.008457 -0.004056 0.014400 0.000000 0.000000 0.000000
# 4 0.000000 0.000000 0.000000 0.032883 0.000000 0.000000
# 5 0.000000 0.000000 0.000000 0.000000 0.029637 0.000000
# 6 0.000000 0.000000 0.000000 0.000000 0.000000 0.047600
#
#
# Mechanical properties :
#
#
# Convention : Reuss Voigt Hill
#
# Bulk Modulus (GPa) = 21.57442 29.71824 25.64633
# Shear Modulus (GPa) = 20.41566 24.44976 22.43271
#
# Velocity S-wave (km/s) = 3.21299 3.51613 3.36797
# Velocity P-wave (km/s) = 4.96726 5.61351 5.30024
#
# Compressibility (1/GPa) = 0.04635118
#
# Stress axis : x y z
#
# Youngs Moduli (GPa) = 34.56049 25.30989 69.44260
#
# Poissons Ratio (x) = 0.14514 0.58728
# Poissons Ratio (y) = 0.19818 0.28163
# Poissons Ratio (z) = 0.29228 0.10265
#
# Static dielectric constant tensor:
#      x y z
#    x 3.518840 0.000000 0.000000 
#    y 0.000000 3.152230 0.000000 
#    z 0.000000 0.000000 4.047800 
# 
# 
# High freq. dielectric constant tensor:
#      x y z
#    x 1.766950 0.000000 0.000000 
#    y 0.000000 1.732150 0.000000 
#    z 0.000000 0.000000 1.784930 
# 
# From -- ./inp_files/71585.got.cif
#   From: 2010.03.12/outbox.cif.g09.slc.cpg/sg63_36_cif.got.tgz:71585.got - 2010.04.10 19:34:48.
