data_PCOD8260949
_publ_section_title
;
Structure prediction by ZEFSAII (Michael W. Deem and Ramdas Pophale) SiO2 
 PCOD8260949
Probable space group: C M C M
;
_chemical_formula_sum "Si O2"
_cell_formula_units_Z 56
_cell_length_a 12.303587
_cell_length_b 27.096351
_cell_length_c 8.632535
_cell_angle_alpha 90.000000
_cell_angle_beta 90.000000
_cell_angle_gamma 90.000000
_cell_volume 2877.934476
_symmetry_space_group_name_H-M "C M C M"
_symmetry_group_IT_number 63
_symmetry_cell_setting 'orthorhombic'
loop_
_space_group_symop_operation_xyz
x,y,z
-x,-y,1/2+z
x,-y,-z
-x,y,1/2-z
-x,-y,-z
x,y,1/2-z
-x,y,z
x,-y,1/2+z
1/2+x,1/2+y,z
1/2-x,1/2-y,1/2+z
1/2+x,1/2-y,-z
1/2-x,1/2+y,1/2-z
1/2-x,1/2-y,-z
1/2+x,1/2+y,1/2-z
1/2-x,1/2+y,z
1/2+x,1/2-y,1/2+z
loop_
_atom_site_type_symbol
_atom_site_label
_atom_site_fract_x
_atom_site_fract_y
_atom_site_fract_z
Si Si1 0.500000 0.945863 0.067638
Si Si2 0.873947 0.270530 0.579929
Si Si3 0.123462 0.835974 0.435004
Si Si4 0.177488 0.376098 0.933430
O O1 0.500000 0.948829 0.250000
O O2 0.609171 0.918982 0.012217
O O3 0.500000 0.000000 0.000000
O O4 0.822036 0.277346 0.750000
O O5 0.828637 0.218577 0.505324
O O6 0.862346 0.323269 0.494526
O O7 0.000000 0.256924 0.595992
O O8 0.132820 0.838508 0.250000
O O9 0.195653 0.878779 0.516101
O O10 0.000000 0.845070 0.489697
O O11 0.160648 0.380709 0.750000
#
# Coordination Sequence:
#
# PCOD8260949 Si02
#       4
#     8  16  16  16
#     4  12  26  44  64  86 110 140 186 238 293 348
#     4   8  14  27  48  75 112 153 190 228 273 326
#     4   9  18  32  51  78 116 159 197 230 269 325
#     4  11  20  34  57  82 113 148 187 236 288 336
#
# _framework density 19.458402
#
# number of rings (size 3 to 8) (size 9 to 14) (size 15 to 20)
#    0.000    2.286    1.429    4.714    0.000    0.571 
#    0.000    1.429    0.000    0.857    0.000    0.000 
#    0.000    0.000    0.000    0.000    0.000    0.000 
#
# Total GULP energy -346869.728292 kJ/mol
# GULP energy per Si atom -12388.204582 kJ/mol
# Density = 1.941411 g / cm^3
# Si number density = 19.458402 Si / 1000 Ang^3
#
#
#
# Elastic Constant Matrix: (Units=GPa)
#
#
# Indices 1 2 3 4 5 6 
#
# 1 95.7480 78.6311 40.5330 0.0000 0.0000 0.0000
# 2 78.6311 129.0829 48.6790 0.0000 0.0000 0.0000
# 3 40.5330 48.6790 84.6765 0.0000 0.0000 0.0000
# 4 0.0000 0.0000 0.0000 25.2044 0.0000 0.0000
# 5 0.0000 0.0000 0.0000 0.0000 24.5440 0.0000
# 6 0.0000 0.0000 0.0000 0.0000 0.0000 19.4144
#
#
#
# Elastic Compliance Matrix: (Units=1/GPa)
#
#
# Indices 1 2 3 4 5 6 
#
# 1 0.021709 -0.011881 -0.003561 0.000000 0.000000 0.000000
# 2 -0.011881 0.016394 -0.003737 0.000000 0.000000 0.000000
# 3 -0.003561 -0.003737 0.015663 0.000000 0.000000 0.000000
# 4 0.000000 0.000000 0.000000 0.039676 0.000000 0.000000
# 5 0.000000 0.000000 0.000000 0.000000 0.040743 0.000000
# 6 0.000000 0.000000 0.000000 0.000000 0.000000 0.051508
#
#
# Mechanical properties :
#
#
# Convention : Reuss Voigt Hill
#
# Bulk Modulus (GPa) = 64.90926 71.68818 68.29872
# Shear Modulus (GPa) = 21.81633 23.27686 22.54659
#
# Velocity S-wave (km/s) = 3.35203 3.46242 3.40767
# Velocity P-wave (km/s) = 6.95786 7.27366 7.11752
#
# Compressibility (1/GPa) = 0.01540612
#
# Stress axis : x y z
#
# Youngs Moduli (GPa) = 46.06475 60.99972 63.84506
#
# Poissons Ratio (x) = 0.72472 0.22738
# Poissons Ratio (y) = 0.54728 0.23861
# Poissons Ratio (z) = 0.16406 0.22797
#
# Static dielectric constant tensor:
#      x y z
#    x 3.781430 0.000000 0.000000 
#    y 0.000000 3.353070 0.000000 
#    z 0.000000 0.000000 3.303910 
# 
# 
# High freq. dielectric constant tensor:
#      x y z
#    x 1.778890 0.000000 0.000000 
#    y 0.000000 1.722680 0.000000 
#    z 0.000000 0.000000 1.736870 
# 
# From -- ./inp_files/3008.got.cif
#   From: 2010.03.12/outbox.cif.g09.slc.cpg/sg63_2_cif.got.tgz:3008.got - 2010.04.10 19:34:48.
