data_PCOD8260362
_publ_section_title
;
Structure prediction by ZEFSAII (Michael W. Deem and Ramdas Pophale) SiO2 
 PCOD8260362
Probable space group: C M C M
;
_chemical_formula_sum "Si O2"
_cell_formula_units_Z 80
_cell_length_a 7.867797
_cell_length_b 27.993123
_cell_length_c 17.943145
_cell_angle_alpha 90.000000
_cell_angle_beta 90.000000
_cell_angle_gamma 90.000000
_cell_volume 3951.873780
_symmetry_space_group_name_H-M "C M C M"
_symmetry_group_IT_number 63
_symmetry_cell_setting 'orthorhombic'
loop_
_space_group_symop_operation_xyz
x,y,z
-x,-y,1/2+z
x,-y,-z
-x,y,1/2-z
-x,-y,-z
x,y,1/2-z
-x,y,z
x,-y,1/2+z
1/2+x,1/2+y,z
1/2-x,1/2-y,1/2+z
1/2+x,1/2-y,-z
1/2-x,1/2+y,1/2-z
1/2-x,1/2-y,-z
1/2+x,1/2+y,1/2-z
1/2-x,1/2+y,z
1/2+x,1/2-y,1/2+z
loop_
_atom_site_type_symbol
_atom_site_label
_atom_site_fract_x
_atom_site_fract_y
_atom_site_fract_z
Si Si1 0.000000 0.961303 0.335021
Si Si2 0.000000 0.850126 0.165014
Si Si3 0.303791 0.197409 0.414013
Si Si4 0.810702 0.302020 0.413905
Si Si5 0.302319 0.397796 0.835580
Si Si6 0.691560 0.989534 0.914259
O O1 0.000000 0.905748 0.348966
O O2 0.000000 0.976656 0.250000
O O3 0.826233 0.981126 0.367612
O O4 0.172225 0.830270 0.131556
O O5 0.000000 0.835258 0.250000
O O6 0.500000 0.206036 0.394531
O O7 0.202441 0.245757 0.397216
O O8 0.278255 0.184693 0.500266
O O9 0.229024 0.155942 0.362584
O O10 0.000000 0.318445 0.390062
O O11 0.238032 0.403035 0.750000
O O12 0.500000 0.410443 0.840329
O O13 0.204223 0.433686 0.891289
O O14 0.500000 0.007120 0.896636
O O15 0.734494 0.000000 0.000000
#
# Coordination Sequence:
#
# PCOD8260362 Si02
#       6
#     8   8  16  16  16  16
#     4  11  25  45  67  93 126 174 220 263 326 382
#     4  11  26  43  65  93 125 172 217 265 324 372
#     4  10  21  38  64  96 128 170 215 257 319 387
#     4  10  22  41  65  94 128 168 216 267 314 379
#     4  11  24  40  63  98 135 172 211 264 331 391
#     4  11  25  43  67  98 130 169 217 267 324 383
#
# _framework density 20.243563000000002
#
# number of rings (size 3 to 8) (size 9 to 14) (size 15 to 20)
#    0.000    1.400    2.000    2.100    5.600    4.800 
#    0.000    2.000    0.000    0.000    0.000    0.000 
#    0.000    0.000    0.000    0.000    0.000    0.000 
#
# Total GULP energy -496078.699749 kJ/mol
# GULP energy per Si atom -12401.967494 kJ/mol
# Density = 2.019749 g / cm^3
# Si number density = 20.243563 Si / 1000 Ang^3
#
#
#
# Elastic Constant Matrix: (Units=GPa)
#
#
# Indices 1 2 3 4 5 6 
#
# 1 150.6793 46.2885 71.1441 0.0000 0.0000 0.0000
# 2 46.2885 107.4656 59.5042 0.0000 0.0000 0.0000
# 3 71.1441 59.5042 132.8424 0.0000 0.0000 0.0000
# 4 0.0000 0.0000 0.0000 34.3623 0.0000 0.0000
# 5 0.0000 0.0000 0.0000 0.0000 23.9877 0.0000
# 6 0.0000 0.0000 0.0000 0.0000 0.0000 36.2456
#
#
#
# Elastic Compliance Matrix: (Units=1/GPa)
#
#
# Indices 1 2 3 4 5 6 
#
# 1 0.009091 -0.001622 -0.004142 0.000000 0.000000 0.000000
# 2 -0.001622 0.012664 -0.004804 0.000000 0.000000 0.000000
# 3 -0.004142 -0.004804 0.011898 0.000000 0.000000 0.000000
# 4 0.000000 0.000000 0.000000 0.029102 0.000000 0.000000
# 5 0.000000 0.000000 0.000000 0.000000 0.041688 0.000000
# 6 0.000000 0.000000 0.000000 0.000000 0.000000 0.027590
#
#
# Mechanical properties :
#
#
# Convention : Reuss Voigt Hill
#
# Bulk Modulus (GPa) = 79.89472 82.76232 81.32852
# Shear Modulus (GPa) = 31.77850 33.18916 32.48383
#
# Velocity S-wave (km/s) = 3.96638 4.05346 4.01015
# Velocity P-wave (km/s) = 7.78001 7.92965 7.85519
#
# Compressibility (1/GPa) = 0.01251647
#
# Stress axis : x y z
#
# Youngs Moduli (GPa) = 110.00447 78.96461 84.05029
#
# Poissons Ratio (x) = 0.12810 0.34812
# Poissons Ratio (y) = 0.17845 0.40376
# Poissons Ratio (z) = 0.45562 0.37933
#
# Static dielectric constant tensor:
#      x y z
#    x 3.820650 0.000000 0.000000 
#    y 0.000000 3.719080 0.000000 
#    z 0.000000 0.000000 4.591850 
# 
# 
# High freq. dielectric constant tensor:
#      x y z
#    x 1.809960 0.000000 0.000000 
#    y 0.000000 1.794040 0.000000 
#    z 0.000000 0.000000 1.789680 
# 
# From -- ./inp_files/40594.got.cif
#   From: 2010.03.12/outbox.cif.g09.slc.cpg/sg63_21_cif.got.tgz:40594.got - 2010.04.10 19:34:48.
