data_PCOD8260705
_publ_section_title
;
Structure prediction by ZEFSAII (Michael W. Deem and Ramdas Pophale) SiO2 
 PCOD8260705
Probable space group: C M C M
;
_chemical_formula_sum "Si O2"
_cell_formula_units_Z 112
_cell_length_a 23.645537
_cell_length_b 13.473587
_cell_length_c 17.859884
_cell_angle_alpha 90.000000
_cell_angle_beta 90.000000
_cell_angle_gamma 90.000000
_cell_volume 5689.984014
_symmetry_space_group_name_H-M "C M C M"
_symmetry_group_IT_number 63
_symmetry_cell_setting 'orthorhombic'
loop_
_space_group_symop_operation_xyz
x,y,z
-x,-y,1/2+z
x,-y,-z
-x,y,1/2-z
-x,-y,-z
x,y,1/2-z
-x,y,z
x,-y,1/2+z
1/2+x,1/2+y,z
1/2-x,1/2-y,1/2+z
1/2+x,1/2-y,-z
1/2-x,1/2+y,1/2-z
1/2-x,1/2-y,-z
1/2+x,1/2+y,1/2-z
1/2-x,1/2+y,z
1/2+x,1/2-y,1/2+z
loop_
_atom_site_type_symbol
_atom_site_label
_atom_site_fract_x
_atom_site_fract_y
_atom_site_fract_z
Si Si1 0.229954 0.091402 0.837598
Si Si2 0.125470 0.993802 0.587937
Si Si3 0.934809 0.179833 0.336312
Si Si4 0.935269 0.591103 0.836621
Si Si5 0.331426 0.207042 0.335918
Si Si6 0.936175 0.165924 0.836129
Si Si7 0.167355 0.504151 0.412047
O O1 0.233830 0.069635 0.750000
O O2 0.184682 0.015669 0.872033
O O3 0.212064 0.204482 0.853703
O O4 0.290630 0.075298 0.874949
O O5 0.077379 0.071268 0.612996
O O6 0.134795 0.000000 0.500000
O O7 0.105433 0.883944 0.610191
O O8 0.921320 0.155162 0.250000
O O9 0.921964 0.294309 0.353800
O O10 0.000000 0.155181 0.353754
O O11 0.923306 0.567291 0.750000
O O12 0.896202 0.521284 0.887115
O O13 0.000000 0.566339 0.856720
O O14 0.326971 0.173448 0.250000
O O15 0.395085 0.242723 0.355256
O O16 0.315528 0.114599 0.387176
O O17 0.926835 0.133047 0.750000
O O18 0.000000 0.201294 0.851461
O O19 0.172969 0.500000 0.500000
#
# Coordination Sequence:
#
# PCOD8260705 Si02
#       7
#    16  16  16  16  16  16  16
#     4  10  22  41  61  80 107 146 193 238 273 321
#     4  11  21  32  51  83 120 152 184 231 290 342
#     4   9  18  34  56  81 111 151 197 238 275 323
#     4   9  20  39  60  82 110 147 194 239 271 316
#     4   9  20  39  60  82 109 145 192 238 273 319
#     4   9  18  34  56  81 111 151 197 238 275 323
#     4  12  25  39  60  89 119 148 176 221 287 344
#
# _framework density 19.683710999999999
#
# number of rings (size 3 to 8) (size 9 to 14) (size 15 to 20)
#    0.000    2.143    0.000    5.143    0.000    7.143 
#    0.000    4.286    0.000    0.000    0.000    0.000 
#    0.000    0.000    0.000    0.000    0.000    0.000 
#
# Total GULP energy -694633.722889 kJ/mol
# GULP energy per Si atom -12404.173623 kJ/mol
# Density = 1.963891 g / cm^3
# Si number density = 19.683711 Si / 1000 Ang^3
#
#
#
# Elastic Constant Matrix: (Units=GPa)
#
#
# Indices 1 2 3 4 5 6 
#
# 1 108.1533 47.4562 55.8743 0.0000 0.0000 0.0000
# 2 47.4562 94.3450 57.8624 0.0000 0.0000 0.0000
# 3 55.8743 57.8624 129.7778 0.0000 0.0000 0.0000
# 4 0.0000 0.0000 0.0000 14.5103 0.0000 0.0000
# 5 0.0000 0.0000 0.0000 0.0000 22.1574 0.0000
# 6 0.0000 0.0000 0.0000 0.0000 0.0000 40.9811
#
#
#
# Elastic Compliance Matrix: (Units=1/GPa)
#
#
# Indices 1 2 3 4 5 6 
#
# 1 0.013041 -0.004289 -0.003702 0.000000 0.000000 0.000000
# 2 -0.004289 0.015999 -0.005287 0.000000 0.000000 0.000000
# 3 -0.003702 -0.005287 0.011657 0.000000 0.000000 0.000000
# 4 0.000000 0.000000 0.000000 0.068917 0.000000 0.000000
# 5 0.000000 0.000000 0.000000 0.000000 0.045132 0.000000
# 6 0.000000 0.000000 0.000000 0.000000 0.000000 0.024401
#
#
# Mechanical properties :
#
#
# Convention : Reuss Voigt Hill
#
# Bulk Modulus (GPa) = 70.71893 72.74021 71.72957
# Shear Modulus (GPa) = 23.76247 26.93532 25.34889
#
# Velocity S-wave (km/s) = 3.47827 3.70321 3.59250
# Velocity P-wave (km/s) = 7.22058 7.43773 7.32996
#
# Compressibility (1/GPa) = 0.01414049
#
# Stress axis : x y z
#
# Youngs Moduli (GPa) = 76.68266 62.50316 85.78825
#
# Poissons Ratio (x) = 0.26807 0.31761
# Poissons Ratio (y) = 0.32889 0.45354
# Poissons Ratio (z) = 0.28390 0.33044
#
# Static dielectric constant tensor:
#      x y z
#    x 3.622090 0.000000 0.000000 
#    y 0.000000 3.453880 0.000000 
#    z 0.000000 0.000000 3.451490 
# 
# 
# High freq. dielectric constant tensor:
#      x y z
#    x 1.771310 0.000000 0.000000 
#    y 0.000000 1.763590 0.000000 
#    z 0.000000 0.000000 1.756580 
# 
# From -- ./inp_files/36891.got.cif
#   From: 2010.03.12/outbox.cif.g09.slc.cpg/sg63_19_cif.got.tgz:36891.got - 2010.04.10 19:34:48.
