data_PCOD8260851
_publ_section_title
;
Structure prediction by ZEFSAII (Michael W. Deem and Ramdas Pophale) SiO2 
 PCOD8260851
Probable space group: C M C M
;
_chemical_formula_sum "Si O2"
_cell_formula_units_Z 64
_cell_length_a 16.912061
_cell_length_b 9.968428
_cell_length_c 17.247866
_cell_angle_alpha 90.000000
_cell_angle_beta 90.000000
_cell_angle_gamma 90.000000
_cell_volume 2907.760163
_symmetry_space_group_name_H-M "C M C M"
_symmetry_group_IT_number 63
_symmetry_cell_setting 'orthorhombic'
loop_
_space_group_symop_operation_xyz
x,y,z
-x,-y,1/2+z
x,-y,-z
-x,y,1/2-z
-x,-y,-z
x,y,1/2-z
-x,y,z
x,-y,1/2+z
1/2+x,1/2+y,z
1/2-x,1/2-y,1/2+z
1/2+x,1/2-y,-z
1/2-x,1/2+y,1/2-z
1/2-x,1/2-y,-z
1/2+x,1/2+y,1/2-z
1/2-x,1/2+y,z
1/2+x,1/2-y,1/2+z
loop_
_atom_site_type_symbol
_atom_site_label
_atom_site_fract_x
_atom_site_fract_y
_atom_site_fract_z
Si Si1 0.909705 0.054315 0.159453
Si Si2 0.083790 0.512771 0.911160
Si Si3 0.793470 0.257206 0.415352
Si Si4 0.865564 0.241948 0.662018
O O1 0.885092 0.075055 0.250000
O O2 0.902851 0.898873 0.135346
O O3 0.000000 0.101324 0.146433
O O4 0.852621 0.133408 0.099952
O O5 0.158269 0.607638 0.896877
O O6 0.097558 0.361567 0.885584
O O7 0.000000 0.565436 0.873757
O O8 0.069194 0.500000 0.000000
O O9 0.750000 0.250000 0.500000
O O10 0.728303 0.259112 0.349051
O O11 0.886599 0.270395 0.750000
#
# Coordination Sequence:
#
# PCOD8260851 Si02
#       4
#    16  16  16  16
#     4  10  23  44  68  97 134 178 229 280 335 401
#     4  11  24  44  67  97 136 177 225 277 337 403
#     4  12  24  42  66 100 136 179 221 278 337 404
#     4  11  24  43  70 101 135 177 225 278 337 403
#
# _framework density 22.010069000000001
#
# number of rings (size 3 to 8) (size 9 to 14) (size 15 to 20)
#    0.000    1.000    2.500    3.750    0.000    5.500 
#    0.000    1.250    0.000    0.000    0.000    0.000 
#    0.000    0.000    0.000    0.000    0.000    0.000 
#
# Total GULP energy -396582.831629 kJ/mol
# GULP energy per Si atom -12393.213488 kJ/mol
# Density = 2.195997 g / cm^3
# Si number density = 22.010069 Si / 1000 Ang^3
#
#
#
# Elastic Constant Matrix: (Units=GPa)
#
#
# Indices 1 2 3 4 5 6 
#
# 1 145.5992 53.8739 41.4768 0.0000 0.0000 0.0000
# 2 53.8739 140.5787 69.0630 0.0000 0.0000 0.0000
# 3 41.4768 69.0630 85.2476 0.0000 0.0000 0.0000
# 4 0.0000 0.0000 0.0000 41.1121 0.0000 0.0000
# 5 0.0000 0.0000 0.0000 0.0000 49.2292 0.0000
# 6 0.0000 0.0000 0.0000 0.0000 0.0000 72.1929
#
#
#
# Elastic Compliance Matrix: (Units=1/GPa)
#
#
# Indices 1 2 3 4 5 6 
#
# 1 0.008294 -0.001987 -0.002426 0.000000 0.000000 0.000000
# 2 -0.001987 0.012292 -0.008992 0.000000 0.000000 0.000000
# 3 -0.002426 -0.008992 0.020196 0.000000 0.000000 0.000000
# 4 0.000000 0.000000 0.000000 0.024324 0.000000 0.000000
# 5 0.000000 0.000000 0.000000 0.000000 0.020313 0.000000
# 6 0.000000 0.000000 0.000000 0.000000 0.000000 0.013852
#
#
# Mechanical properties :
#
#
# Convention : Reuss Voigt Hill
#
# Bulk Modulus (GPa) = 71.56680 77.80588 74.68634
# Shear Modulus (GPa) = 38.24431 46.30764 42.27597
#
# Velocity S-wave (km/s) = 4.17295 4.59184 4.38740
# Velocity P-wave (km/s) = 7.47022 7.97121 7.72477
#
# Compressibility (1/GPa) = 0.01397296
#
# Stress axis : x y z
#
# Youngs Moduli (GPa) = 120.56301 81.35095 49.51549
#
# Poissons Ratio (x) = 0.16163 0.12012
# Poissons Ratio (y) = 0.23954 0.44524
# Poissons Ratio (z) = 0.29248 0.73151
#
# Static dielectric constant tensor:
#      x y z
#    x 3.454100 0.000000 0.000000 
#    y 0.000000 3.920260 0.000000 
#    z 0.000000 0.000000 3.834970 
# 
# 
# High freq. dielectric constant tensor:
#      x y z
#    x 1.892600 0.000000 0.000000 
#    y 0.000000 1.872930 0.000000 
#    z 0.000000 0.000000 1.853270 
# 
# From -- ./inp_files/54996.got.cif
#   From: 2010.03.12/outbox.cif.g09.slc.cpg/sg63_28_cif.got.tgz:54996.got - 2010.04.10 19:34:48.
