data_PCOD8260465
_publ_section_title
;
Structure prediction by ZEFSAII (Michael W. Deem and Ramdas Pophale) SiO2 
 PCOD8260465
Probable space group: C M C M
;
_chemical_formula_sum "Si O2"
_cell_formula_units_Z 96
_cell_length_a 22.034209
_cell_length_b 8.954298
_cell_length_c 22.889495
_cell_angle_alpha 90.000000
_cell_angle_beta 90.000000
_cell_angle_gamma 90.000000
_cell_volume 4516.117359
_symmetry_space_group_name_H-M "C M C M"
_symmetry_group_IT_number 63
_symmetry_cell_setting 'orthorhombic'
loop_
_space_group_symop_operation_xyz
x,y,z
-x,-y,1/2+z
x,-y,-z
-x,y,1/2-z
-x,-y,-z
x,y,1/2-z
-x,y,z
x,-y,1/2+z
1/2+x,1/2+y,z
1/2-x,1/2-y,1/2+z
1/2+x,1/2-y,-z
1/2-x,1/2+y,1/2-z
1/2-x,1/2-y,-z
1/2+x,1/2+y,1/2-z
1/2-x,1/2+y,z
1/2+x,1/2-y,1/2+z
loop_
_atom_site_type_symbol
_atom_site_label
_atom_site_fract_x
_atom_site_fract_y
_atom_site_fract_z
Si Si1 0.755962 0.529263 0.585599
Si Si2 0.177251 0.726899 0.022602
Si Si3 0.068239 0.678805 0.184399
Si Si4 0.847228 0.401664 0.318900
Si Si5 0.430986 0.614784 0.919502
Si Si6 0.357099 0.663893 0.402672
O O1 0.805626 0.429792 0.551598
O O2 0.729255 0.649381 0.538013
O O3 0.784231 0.598009 0.644834
O O4 0.699631 0.440592 0.612649
O O5 0.110994 0.778264 0.042534
O O6 0.167375 0.718016 0.952061
O O7 0.081608 0.730034 0.250000
O O8 0.114063 0.547984 0.166195
O O9 0.077056 0.828146 0.146840
O O10 0.000000 0.614701 0.177356
O O11 0.835415 0.382792 0.250000
O O12 0.880529 0.254738 0.345615
O O13 0.500000 0.629743 0.941579
O O14 0.411745 0.441374 0.925062
#
# Coordination Sequence:
#
# PCOD8260465 Si02
#       6
#    16  16  16  16  16  16
#     4  11  21  40  60  88 122 158 204 243 294 364
#     4  11  23  39  65  92 121 166 201 247 299 367
#     4   9  19  39  64  86 115 162 211 249 295 362
#     4  11  24  40  60  88 122 158 202 257 307 351
#     4  10  21  40  63  93 125 156 201 252 306 359
#     4  11  25  38  60  92 121 164 198 246 307 362
#
# _framework density 21.257197000000001
#
# number of rings (size 3 to 8) (size 9 to 14) (size 15 to 20)
#    0.000    1.500    3.333    2.500    2.333    3.333 
#    0.000    2.500    0.000    2.000    0.000    0.000 
#    0.000    0.000    0.000    0.000    0.000    0.000 
#
# Total GULP energy -595080.591965 kJ/mol
# GULP energy per Si atom -12397.512333 kJ/mol
# Density = 2.120881 g / cm^3
# Si number density = 21.257197 Si / 1000 Ang^3
#
#
#
# Elastic Constant Matrix: (Units=GPa)
#
#
# Indices 1 2 3 4 5 6 
#
# 1 103.4993 27.5223 41.7761 0.0000 0.0000 0.0000
# 2 27.5223 82.6794 34.3944 0.0000 0.0000 0.0000
# 3 41.7761 34.3944 117.9914 0.0000 0.0000 0.0000
# 4 0.0000 0.0000 0.0000 40.9046 0.0000 0.0000
# 5 0.0000 0.0000 0.0000 0.0000 27.2837 0.0000
# 6 0.0000 0.0000 0.0000 0.0000 0.0000 24.5632
#
#
#
# Elastic Compliance Matrix: (Units=1/GPa)
#
#
# Indices 1 2 3 4 5 6 
#
# 1 0.011700 -0.002471 -0.003422 0.000000 0.000000 0.000000
# 2 -0.002471 0.014286 -0.003289 0.000000 0.000000 0.000000
# 3 -0.003422 -0.003289 0.010646 0.000000 0.000000 0.000000
# 4 0.000000 0.000000 0.000000 0.024447 0.000000 0.000000
# 5 0.000000 0.000000 0.000000 0.000000 0.036652 0.000000
# 6 0.000000 0.000000 0.000000 0.000000 0.000000 0.040711
#
#
# Mechanical properties :
#
#
# Convention : Reuss Voigt Hill
#
# Bulk Modulus (GPa) = 54.74551 56.83951 55.79251
# Shear Modulus (GPa) = 30.69427 31.91545 31.30486
#
# Velocity S-wave (km/s) = 3.80405 3.87899 3.84170
# Velocity P-wave (km/s) = 6.71597 6.84537 6.78098
#
# Compressibility (1/GPa) = 0.01826634
#
# Stress axis : x y z
#
# Youngs Moduli (GPa) = 85.46720 69.99916 93.93410
#
# Poissons Ratio (x) = 0.17298 0.32147
# Poissons Ratio (y) = 0.21120 0.30899
# Poissons Ratio (z) = 0.29250 0.23025
#
# Static dielectric constant tensor:
#      x y z
#    x 3.931370 0.000000 0.000000 
#    y 0.000000 3.978960 0.000000 
#    z 0.000000 0.000000 3.915270 
# 
# 
# High freq. dielectric constant tensor:
#      x y z
#    x 1.834100 0.000000 0.000000 
#    y 0.000000 1.838230 0.000000 
#    z 0.000000 0.000000 1.834550 
# 
# From -- ./inp_files/64936.got.cif
#   From: 2010.03.12/outbox.cif.g09.slc.cpg/sg63_33_cif.got.tgz:64936.got - 2010.04.10 19:34:48.
