data_PCOD8260995
_publ_section_title
;
Structure prediction by ZEFSAII (Michael W. Deem and Ramdas Pophale) SiO2 
 PCOD8260995
Probable space group: C M C M
;
_chemical_formula_sum "Si O2"
_cell_formula_units_Z 80
_cell_length_a 28.295822
_cell_length_b 20.562878
_cell_length_c 7.853782
_cell_angle_alpha 90.000000
_cell_angle_beta 90.000000
_cell_angle_gamma 90.000000
_cell_volume 4569.672287
_symmetry_space_group_name_H-M "C M C M"
_symmetry_group_IT_number 63
_symmetry_cell_setting 'orthorhombic'
loop_
_space_group_symop_operation_xyz
x,y,z
-x,-y,1/2+z
x,-y,-z
-x,y,1/2-z
-x,-y,-z
x,y,1/2-z
-x,y,z
x,-y,1/2+z
1/2+x,1/2+y,z
1/2-x,1/2-y,1/2+z
1/2+x,1/2-y,-z
1/2-x,1/2+y,1/2-z
1/2-x,1/2-y,-z
1/2+x,1/2+y,1/2-z
1/2-x,1/2+y,z
1/2+x,1/2-y,1/2+z
loop_
_atom_site_type_symbol
_atom_site_label
_atom_site_fract_x
_atom_site_fract_y
_atom_site_fract_z
Si Si1 0.947082 0.118814 0.750000
Si Si2 0.221695 0.686595 0.553043
Si Si3 0.117650 0.273397 0.442733
Si Si4 0.447087 0.773423 0.750000
Si Si5 0.618976 0.380444 0.946104
Si Si6 0.782511 0.929895 0.942733
O O1 0.948434 0.196213 0.750000
O O2 0.921678 0.095023 0.575701
O O3 0.000000 0.089986 0.750000
O O4 0.229059 0.675805 0.750000
O O5 0.250000 0.750000 0.500000
O O6 0.166913 0.693349 0.505097
O O7 0.241270 0.622395 0.463791
O O8 0.102318 0.293087 0.250000
O O9 0.078895 0.298191 0.578267
O O10 0.124929 0.196663 0.453424
O O11 0.500000 0.802388 0.750000
O O12 0.607238 0.401700 0.750000
O O13 0.667482 0.409538 0.026560
O O14 0.796877 0.934012 0.750000
O O15 0.763578 0.000000 0.000000
#
# Coordination Sequence:
#
# PCOD8260995 Si02
#       6
#     8  16  16   8  16  16
#     4   9  18  30  50  73  94 128 172 220 273 313
#     4  11  21  32  53  79 107 143 179 217 261 314
#     4   9  18  31  48  75 105 134 173 214 257 311
#     4   9  18  30  48  73 104 138 168 212 269 311
#     4   9  18  32  49  71  99 131 174 216 260 315
#     4  11  23  36  51  76 105 142 180 217 267 319
#
# _framework density 17.506726
#
# number of rings (size 3 to 8) (size 9 to 14) (size 15 to 20)
#    0.000    2.200    2.000    1.200    5.600    0.800 
#    0.000    4.000    0.000    0.600    0.000    0.000 
#    0.000    0.800    0.400    0.000    0.000    0.000 
#
# Total GULP energy -495802.223650 kJ/mol
# GULP energy per Si atom -12395.055591 kJ/mol
# Density = 1.746688 g / cm^3
# Si number density = 17.506726 Si / 1000 Ang^3
#
#
#
# Elastic Constant Matrix: (Units=GPa)
#
#
# Indices 1 2 3 4 5 6 
#
# 1 123.7647 41.9501 68.5611 0.0000 0.0000 0.0000
# 2 41.9501 64.9482 22.4520 0.0000 0.0000 0.0000
# 3 68.5611 22.4520 104.9636 0.0000 0.0000 0.0000
# 4 0.0000 0.0000 0.0000 16.0561 0.0000 0.0000
# 5 0.0000 0.0000 0.0000 0.0000 32.3865 0.0000
# 6 0.0000 0.0000 0.0000 0.0000 0.0000 13.0957
#
#
#
# Elastic Compliance Matrix: (Units=1/GPa)
#
#
# Indices 1 2 3 4 5 6 
#
# 1 0.015014 -0.006811 -0.008350 0.000000 0.000000 0.000000
# 2 -0.006811 0.019716 0.000232 0.000000 0.000000 0.000000
# 3 -0.008350 0.000232 0.014932 0.000000 0.000000 0.000000
# 4 0.000000 0.000000 0.000000 0.062282 0.000000 0.000000
# 5 0.000000 0.000000 0.000000 0.000000 0.030877 0.000000
# 6 0.000000 0.000000 0.000000 0.000000 0.000000 0.076361
#
#
# Mechanical properties :
#
#
# Convention : Reuss Voigt Hill
#
# Bulk Modulus (GPa) = 50.49802 62.17810 56.33806
# Shear Modulus (GPa) = 19.55862 23.02189 21.29026
#
# Velocity S-wave (km/s) = 3.34609 3.63027 3.49107
# Velocity P-wave (km/s) = 6.62087 7.29148 6.96425
#
# Compressibility (1/GPa) = 0.01980276
#
# Stress axis : x y z
#
# Youngs Moduli (GPa) = 66.60381 50.71992 66.97110
#
# Poissons Ratio (x) = 0.34546 0.55922
# Poissons Ratio (y) = 0.45364 -0.01551
# Poissons Ratio (z) = 0.55615 -0.01175
#
# Static dielectric constant tensor:
#      x y z
#    x 3.342020 0.000000 0.000000 
#    y 0.000000 2.789240 0.000000 
#    z 0.000000 0.000000 3.514590 
# 
# 
# High freq. dielectric constant tensor:
#      x y z
#    x 1.669240 0.000000 0.000000 
#    y 0.000000 1.627640 0.000000 
#    z 0.000000 0.000000 1.694690 
# 
# From -- ./inp_files/10110.got.cif
#   From: 2010.03.12/outbox.cif.g09.slc.cpg/sg63_6_cif.got.tgz:10110.got - 2010.04.10 19:34:48.
