data_PCOD8260704
_publ_section_title
;
Structure prediction by ZEFSAII (Michael W. Deem and Ramdas Pophale) SiO2 
 PCOD8260704
Probable space group: C M C M
;
_chemical_formula_sum "Si O2"
_cell_formula_units_Z 96
_cell_length_a 24.006984
_cell_length_b 24.156019
_cell_length_c 8.944709
_cell_angle_alpha 90.000000
_cell_angle_beta 90.000000
_cell_angle_gamma 90.000000
_cell_volume 5187.154476
_symmetry_space_group_name_H-M "C M C M"
_symmetry_group_IT_number 63
_symmetry_cell_setting 'orthorhombic'
loop_
_space_group_symop_operation_xyz
x,y,z
-x,-y,1/2+z
x,-y,-z
-x,y,1/2-z
-x,-y,-z
x,y,1/2-z
-x,y,z
x,-y,1/2+z
1/2+x,1/2+y,z
1/2-x,1/2-y,1/2+z
1/2+x,1/2-y,-z
1/2-x,1/2+y,1/2-z
1/2-x,1/2-y,-z
1/2+x,1/2+y,1/2-z
1/2-x,1/2+y,z
1/2+x,1/2-y,1/2+z
loop_
_atom_site_type_symbol
_atom_site_label
_atom_site_fract_x
_atom_site_fract_y
_atom_site_fract_z
Si Si1 0.239299 0.855741 0.580864
Si Si2 0.849280 0.230411 0.072378
Si Si3 0.356543 0.555648 0.416996
Si Si4 0.938204 0.145269 0.070986
Si Si5 0.435297 0.058235 0.074242
Si Si6 0.851318 0.643860 0.927081
O O1 0.261103 0.845721 0.750000
O O2 0.207606 0.800492 0.518386
O O3 0.197358 0.906389 0.578013
O O4 0.289669 0.874806 0.474384
O O5 0.848438 0.228337 0.250000
O O6 0.903354 0.197863 0.011546
O O7 0.855093 0.292865 0.014068
O O8 0.342839 0.500000 0.500000
O O9 0.372009 0.538879 0.250000
O O10 0.408915 0.588989 0.487156
O O11 0.938508 0.145566 0.250000
O O12 0.000000 0.148735 0.003607
O O13 0.423596 0.053882 0.250000
O O14 0.500000 0.071518 0.040692
O O15 0.398661 0.107392 0.005313
O O16 0.417979 0.000000 0.000000
O O17 0.859105 0.638776 0.750000
#
# Coordination Sequence:
#
# PCOD8260704 Si02
#       6
#    16  16  16  16  16  16
#     4   9  18  34  51  69 101 141 178 215 254 297
#     4   8  16  30  48  73 104 137 173 213 254 298
#     4   9  18  31  48  70  96 129 168 209 252 296
#     4   8  14  27  47  70  97 130 167 206 248 293
#     4  10  22  41  61  79 103 135 168 205 252 304
#     4  11  21  32  53  84 108 130 167 209 254 309
#
# _framework density 18.507256000000002
#
# number of rings (size 3 to 8) (size 9 to 14) (size 15 to 20)
#    0.000    2.833    0.000    3.500    0.000    3.333 
#    0.000    4.167    0.000    2.000    0.000    0.000 
#    0.000    0.000    0.000    0.000    0.000    0.000 
#
# Total GULP energy -594938.800687 kJ/mol
# GULP energy per Si atom -12394.558348 kJ/mol
# Density = 1.846513 g / cm^3
# Si number density = 18.507256 Si / 1000 Ang^3
#
#
#
# Elastic Constant Matrix: (Units=GPa)
#
#
# Indices 1 2 3 4 5 6 
#
# 1 110.6875 51.8327 38.8353 0.0000 0.0000 0.0000
# 2 51.8327 94.6702 35.8462 0.0000 0.0000 0.0000
# 3 38.8353 35.8462 57.3956 0.0000 0.0000 0.0000
# 4 0.0000 0.0000 0.0000 26.6485 0.0000 0.0000
# 5 0.0000 0.0000 0.0000 0.0000 14.1506 0.0000
# 6 0.0000 0.0000 0.0000 0.0000 0.0000 22.1248
#
#
#
# Elastic Compliance Matrix: (Units=1/GPa)
#
#
# Indices 1 2 3 4 5 6 
#
# 1 0.013534 -0.005164 -0.005932 0.000000 0.000000 0.000000
# 2 -0.005164 0.015805 -0.006377 0.000000 0.000000 0.000000
# 3 -0.005932 -0.006377 0.025420 0.000000 0.000000 0.000000
# 4 0.000000 0.000000 0.000000 0.037526 0.000000 0.000000
# 5 0.000000 0.000000 0.000000 0.000000 0.070668 0.000000
# 6 0.000000 0.000000 0.000000 0.000000 0.000000 0.045198
#
#
# Mechanical properties :
#
#
# Convention : Reuss Voigt Hill
#
# Bulk Modulus (GPa) = 50.47379 57.30907 53.89143
# Shear Modulus (GPa) = 20.02402 21.66741 20.84571
#
# Velocity S-wave (km/s) = 3.29288 3.42534 3.35976
# Velocity P-wave (km/s) = 6.46444 6.83205 6.65079
#
# Compressibility (1/GPa) = 0.01981226
#
# Stress axis : x y z
#
# Youngs Moduli (GPa) = 73.88851 63.27235 39.33965
#
# Poissons Ratio (x) = 0.32672 0.23338
# Poissons Ratio (y) = 0.38153 0.25086
# Poissons Ratio (z) = 0.43834 0.40348
#
# Static dielectric constant tensor:
#      x y z
#    x 3.530910 0.000000 0.000000 
#    y 0.000000 3.525800 0.000000 
#    z 0.000000 0.000000 3.140650 
# 
# 
# High freq. dielectric constant tensor:
#      x y z
#    x 1.722420 0.000000 0.000000 
#    y 0.000000 1.723140 0.000000 
#    z 0.000000 0.000000 1.686170 
# 
# From -- ./inp_files/10485.got.cif
#   From: 2010.03.12/outbox.cif.g09.slc.cpg/sg63_6_cif.got.tgz:10485.got - 2010.04.10 19:34:48.
