data_PCOD8260544
_publ_section_title
;
Structure prediction by ZEFSAII (Michael W. Deem and Ramdas Pophale) SiO2 
 PCOD8260544
Probable space group: C M C M
;
_chemical_formula_sum "Si O2"
_cell_formula_units_Z 96
_cell_length_a 8.959087
_cell_length_b 20.608013
_cell_length_c 28.242354
_cell_angle_alpha 90.000000
_cell_angle_beta 90.000000
_cell_angle_gamma 90.000000
_cell_volume 5214.357050
_symmetry_space_group_name_H-M "C M C M"
_symmetry_group_IT_number 63
_symmetry_cell_setting 'orthorhombic'
loop_
_space_group_symop_operation_xyz
x,y,z
-x,-y,1/2+z
x,-y,-z
-x,y,1/2-z
-x,-y,-z
x,y,1/2-z
-x,y,z
x,-y,1/2+z
1/2+x,1/2+y,z
1/2-x,1/2-y,1/2+z
1/2+x,1/2-y,-z
1/2-x,1/2+y,1/2-z
1/2-x,1/2-y,-z
1/2+x,1/2+y,1/2-z
1/2-x,1/2+y,z
1/2+x,1/2-y,1/2+z
loop_
_atom_site_type_symbol
_atom_site_label
_atom_site_fract_x
_atom_site_fract_y
_atom_site_fract_z
Si Si1 0.322759 0.197197 0.301383
Si Si2 0.822409 0.254612 0.899541
Si Si3 0.327325 0.951187 0.803582
Si Si4 0.673453 0.375999 0.052363
Si Si5 0.827567 0.006043 0.107728
Si Si6 0.676864 0.883008 0.952487
O O1 0.261139 0.222020 0.250000
O O2 0.500000 0.199868 0.300114
O O3 0.260850 0.239668 0.345364
O O4 0.274047 0.122988 0.309334
O O5 0.761411 0.188877 0.923047
O O6 0.764719 0.315585 0.930111
O O7 0.000000 0.253787 0.898227
O O8 0.301338 0.975347 0.750000
O O9 0.500000 0.958098 0.818025
O O10 0.226744 0.994926 0.837972
O O11 0.500000 0.367934 0.039344
O O12 0.700504 0.434368 0.088311
O O13 0.762915 0.390497 0.005093
O O14 0.732562 0.057278 0.078351
O O15 0.000000 0.025618 0.104341
O O16 0.500000 0.884990 0.953448
#
# Coordination Sequence:
#
# PCOD8260544 Si02
#       6
#    16  16  16  16  16  16
#     4   8  13  25  50  80 102 123 161 213 258 295
#     4   9  17  32  53  77 104 133 172 219 261 308
#     4   9  17  32  56  82 105 133 174 220 259 300
#     4  10  22  37  51  73 109 144 172 211 267 319
#     4  11  22  35  52  77 111 144 171 209 262 318
#     4  11  21  35  57  79  99 133 184 229 260 302
#
# _framework density 18.410706999999999
#
# number of rings (size 3 to 8) (size 9 to 14) (size 15 to 20)
#    0.000    2.333    1.667    3.000    0.000    3.667 
#    0.000    1.667    0.000    3.000    0.000    0.000 
#    0.000    0.000    0.000    0.000    0.000    0.000 
#
# Total GULP energy -595113.713892 kJ/mol
# GULP energy per Si atom -12398.202373 kJ/mol
# Density = 1.836880 g / cm^3
# Si number density = 18.410707 Si / 1000 Ang^3
#
#
#
# Elastic Constant Matrix: (Units=GPa)
#
#
# Indices 1 2 3 4 5 6 
#
# 1 43.1041 33.2132 37.1924 0.0000 0.0000 0.0000
# 2 33.2132 85.4261 35.9734 0.0000 0.0000 0.0000
# 3 37.1924 35.9734 129.9509 0.0000 0.0000 0.0000
# 4 0.0000 0.0000 0.0000 10.8575 0.0000 0.0000
# 5 0.0000 0.0000 0.0000 0.0000 22.3202 0.0000
# 6 0.0000 0.0000 0.0000 0.0000 0.0000 18.8918
#
#
#
# Elastic Compliance Matrix: (Units=1/GPa)
#
#
# Indices 1 2 3 4 5 6 
#
# 1 0.039216 -0.011909 -0.007927 0.000000 0.000000 0.000000
# 2 -0.011909 0.016867 -0.001261 0.000000 0.000000 0.000000
# 3 -0.007927 -0.001261 0.010313 0.000000 0.000000 0.000000
# 4 0.000000 0.000000 0.000000 0.092102 0.000000 0.000000
# 5 0.000000 0.000000 0.000000 0.000000 0.044802 0.000000
# 6 0.000000 0.000000 0.000000 0.000000 0.000000 0.052933
#
#
# Mechanical properties :
#
#
# Convention : Reuss Voigt Hill
#
# Bulk Modulus (GPa) = 41.31823 52.35989 46.83906
# Shear Modulus (GPa) = 16.31354 20.55404 18.43379
#
# Velocity S-wave (km/s) = 2.97996 3.34491 3.16769
# Velocity P-wave (km/s) = 5.85930 6.58935 6.23502
#
# Compressibility (1/GPa) = 0.02420239
#
# Stress axis : x y z
#
# Youngs Moduli (GPa) = 25.50010 59.28729 96.96507
#
# Poissons Ratio (x) = 0.70603 0.76864
# Poissons Ratio (y) = 0.30367 0.12226
# Poissons Ratio (z) = 0.20214 0.07475
#
# Static dielectric constant tensor:
#      x y z
#    x 3.073870 0.000000 0.000000 
#    y 0.000000 3.385610 0.000000 
#    z 0.000000 0.000000 3.820490 
# 
# 
# High freq. dielectric constant tensor:
#      x y z
#    x 1.680770 0.000000 0.000000 
#    y 0.000000 1.699070 0.000000 
#    z 0.000000 0.000000 1.734800 
# 
# From -- ./inp_files/66923.got.cif
#   From: 2010.03.12/outbox.cif.g09.slc.cpg/sg63_34_cif.got.tgz:66923.got - 2010.04.10 19:34:48.
