data_PCOD8260702
_publ_section_title
;
Structure prediction by ZEFSAII (Michael W. Deem and Ramdas Pophale) SiO2 
 PCOD8260702
Probable space group: C M C M
;
_chemical_formula_sum "Si O2"
_cell_formula_units_Z 64
_cell_length_a 9.213007
_cell_length_b 24.034468
_cell_length_c 14.869797
_cell_angle_alpha 90.000000
_cell_angle_beta 90.000000
_cell_angle_gamma 90.000000
_cell_volume 3292.615015
_symmetry_space_group_name_H-M "C M C M"
_symmetry_group_IT_number 63
_symmetry_cell_setting 'orthorhombic'
loop_
_space_group_symop_operation_xyz
x,y,z
-x,-y,1/2+z
x,-y,-z
-x,y,1/2-z
-x,-y,-z
x,y,1/2-z
-x,y,z
x,-y,1/2+z
1/2+x,1/2+y,z
1/2-x,1/2-y,1/2+z
1/2+x,1/2-y,-z
1/2-x,1/2+y,1/2-z
1/2-x,1/2-y,-z
1/2+x,1/2+y,1/2-z
1/2-x,1/2+y,z
1/2+x,1/2-y,1/2+z
loop_
_atom_site_type_symbol
_atom_site_label
_atom_site_fract_x
_atom_site_fract_y
_atom_site_fract_z
Si Si1 0.672017 0.564058 0.750000
Si Si2 0.667497 0.859795 0.603105
Si Si3 0.165588 0.366929 0.395050
Si Si4 0.832996 0.243880 0.407756
Si Si5 0.167199 0.449704 0.750000
O O1 0.500000 0.565382 0.750000
O O2 0.728638 0.593923 0.839480
O O3 0.725321 0.501076 0.750000
O O4 0.500000 0.842451 0.610592
O O5 0.710021 0.871810 0.499755
O O6 0.759440 0.807916 0.644264
O O7 0.701464 0.914164 0.661014
O O8 0.180961 0.303449 0.357876
O O9 0.000000 0.387293 0.381609
O O10 0.750000 0.250000 0.500000
O O11 0.000000 0.229411 0.425775
O O12 0.000000 0.469691 0.750000
#
# Coordination Sequence:
#
# PCOD8260702 Si02
#       5
#     8  16  16  16   8
#     4  12  26  39  54  79 107 142 192 240 275 312
#     4   9  19  36  60  87 112 143 180 219 271 330
#     4   9  19  37  58  81 112 148 181 216 269 331
#     4   9  17  31  55  85 115 145 178 219 269 326
#     4  10  22  41  60  79 109 146 184 226 273 332
#
# _framework density 19.437438
#
# number of rings (size 3 to 8) (size 9 to 14) (size 15 to 20)
#    0.000    2.500    0.000    3.375    0.000    8.000 
#    0.000    7.500    0.000    0.000    0.000    0.000 
#    0.000    0.000    0.000    0.000    0.000    0.000 
#
# Total GULP energy -396676.697495 kJ/mol
# GULP energy per Si atom -12396.146797 kJ/mol
# Density = 1.939320 g / cm^3
# Si number density = 19.437438 Si / 1000 Ang^3
#
#
#
# Elastic Constant Matrix: (Units=GPa)
#
#
# Indices 1 2 3 4 5 6 
#
# 1 134.5492 90.0870 50.4697 0.0000 0.0000 0.0000
# 2 90.0870 143.6323 61.1624 0.0000 0.0000 0.0000
# 3 50.4697 61.1624 95.0832 0.0000 0.0000 0.0000
# 4 0.0000 0.0000 0.0000 27.9475 0.0000 0.0000
# 5 0.0000 0.0000 0.0000 0.0000 20.3473 0.0000
# 6 0.0000 0.0000 0.0000 0.0000 0.0000 42.0010
#
#
#
# Elastic Compliance Matrix: (Units=1/GPa)
#
#
# Indices 1 2 3 4 5 6 
#
# 1 0.013171 -0.007277 -0.002310 0.000000 0.000000 0.000000
# 2 -0.007277 0.013610 -0.004892 0.000000 0.000000 0.000000
# 3 -0.002310 -0.004892 0.014890 0.000000 0.000000 0.000000
# 4 0.000000 0.000000 0.000000 0.035781 0.000000 0.000000
# 5 0.000000 0.000000 0.000000 0.000000 0.049147 0.000000
# 6 0.000000 0.000000 0.000000 0.000000 0.000000 0.023809
#
#
# Mechanical properties :
#
#
# Convention : Reuss Voigt Hill
#
# Bulk Modulus (GPa) = 78.66219 86.30033 82.48126
# Shear Modulus (GPa) = 27.23263 29.49555 28.36409
#
# Velocity S-wave (km/s) = 3.74711 3.89969 3.82416
# Velocity P-wave (km/s) = 7.69924 8.04811 7.87561
#
# Compressibility (1/GPa) = 0.01271259
#
# Stress axis : x y z
#
# Youngs Moduli (GPa) = 75.92248 73.47724 67.16016
#
# Poissons Ratio (x) = 0.53473 0.15514
# Poissons Ratio (y) = 0.55252 0.32852
# Poissons Ratio (z) = 0.17538 0.35942
#
# Static dielectric constant tensor:
#      x y z
#    x 3.690230 0.000000 0.000000 
#    y 0.000000 4.025530 0.000000 
#    z 0.000000 0.000000 3.539580 
# 
# 
# High freq. dielectric constant tensor:
#      x y z
#    x 1.753240 0.000000 0.000000 
#    y 0.000000 1.759820 0.000000 
#    z 0.000000 0.000000 1.746170 
# 
# From -- ./inp_files/27600.got.cif
#   From: 2010.03.12/outbox.cif.g09.slc.cpg/sg63_14_cif.got.tgz:27600.got - 2010.04.10 19:34:48.
