data_PCOD8260212
_publ_section_title
;
Structure prediction by ZEFSAII (Michael W. Deem and Ramdas Pophale) SiO2 
 PCOD8260212
Probable space group: C M C M
;
_chemical_formula_sum "Si O2"
_cell_formula_units_Z 96
_cell_length_a 19.496173
_cell_length_b 14.861302
_cell_length_c 15.341884
_cell_angle_alpha 90.000000
_cell_angle_beta 90.000000
_cell_angle_gamma 90.000000
_cell_volume 4445.134684
_symmetry_space_group_name_H-M "C M C M"
_symmetry_group_IT_number 63
_symmetry_cell_setting 'orthorhombic'
loop_
_space_group_symop_operation_xyz
x,y,z
-x,-y,1/2+z
x,-y,-z
-x,y,1/2-z
-x,-y,-z
x,y,1/2-z
-x,y,z
x,-y,1/2+z
1/2+x,1/2+y,z
1/2-x,1/2-y,1/2+z
1/2+x,1/2-y,-z
1/2-x,1/2+y,1/2-z
1/2-x,1/2-y,-z
1/2+x,1/2+y,1/2-z
1/2-x,1/2+y,z
1/2+x,1/2-y,1/2+z
loop_
_atom_site_type_symbol
_atom_site_label
_atom_site_fract_x
_atom_site_fract_y
_atom_site_fract_z
Si Si1 0.328450 0.294475 0.652537
Si Si2 0.890545 0.820635 0.154381
Si Si3 0.424523 0.885060 0.653197
Si Si4 0.220256 0.424225 0.899504
Si Si5 0.243890 0.377373 0.095838
Si Si6 0.923823 0.903211 0.980532
O O1 0.360073 0.289682 0.750000
O O2 0.256855 0.350350 0.661456
O O3 0.317525 0.192115 0.618287
O O4 0.379978 0.344472 0.586746
O O5 0.903248 0.866556 0.250000
O O6 0.915589 0.720190 0.161535
O O7 0.810729 0.827137 0.130259
O O8 0.933775 0.862234 0.076357
O O9 0.419478 0.927573 0.750000
O O10 0.500000 0.907889 0.612774
O O11 0.362519 0.922102 0.594848
O O12 0.237081 0.523673 0.861819
O O13 0.249330 0.397706 0.993775
O O14 0.000000 0.914891 0.940149
O O15 0.888171 0.000000 0.000000
#
# Coordination Sequence:
#
# PCOD8260212 Si02
#       6
#    16  16  16  16  16  16
#     4  12  24  41  66  95 132 175 220 276 337 401
#     4  11  21  38  63  92 123 161 214 275 334 387
#     4  10  21  37  59  89 123 160 208 267 326 385
#     4  11  22  40  65  92 130 174 217 272 336 397
#     4  11  23  39  63  97 129 164 219 279 327 398
#     4  11  25  43  62  90 128 170 218 270 327 398
#
# _framework density 21.596644999999999
#
# number of rings (size 3 to 8) (size 9 to 14) (size 15 to 20)
#    0.000    1.000    3.333    4.000    0.000    6.000 
#    0.000    4.167    0.000    0.000    0.000    0.000 
#    0.000    0.000    0.000    0.000    0.000    0.000 
#
# Total GULP energy -594700.554959 kJ/mol
# GULP energy per Si atom -12389.594895 kJ/mol
# Density = 2.154749 g / cm^3
# Si number density = 21.596645 Si / 1000 Ang^3
#
#
#
# Elastic Constant Matrix: (Units=GPa)
#
#
# Indices 1 2 3 4 5 6 
#
# 1 103.3195 17.1431 22.4136 0.0000 0.0000 0.0000
# 2 17.1431 108.3206 34.1387 0.0000 0.0000 0.0000
# 3 22.4136 34.1387 108.1553 0.0000 0.0000 0.0000
# 4 0.0000 0.0000 0.0000 0.6080 0.0000 0.0000
# 5 0.0000 0.0000 0.0000 0.0000 41.3675 0.0000
# 6 0.0000 0.0000 0.0000 0.0000 0.0000 26.1619
#
#
#
# Elastic Compliance Matrix: (Units=1/GPa)
#
#
# Indices 1 2 3 4 5 6 
#
# 1 0.010242 -0.001057 -0.001789 0.000000 0.000000 0.000000
# 2 -0.001057 0.010361 -0.003051 0.000000 0.000000 0.000000
# 3 -0.001789 -0.003051 0.010580 0.000000 0.000000 0.000000
# 4 0.000000 0.000000 0.000000 1.644767 0.000000 0.000000
# 5 0.000000 0.000000 0.000000 0.000000 0.024174 0.000000
# 6 0.000000 0.000000 0.000000 0.000000 0.000000 0.038224
#
#
# Mechanical properties :
#
#
# Convention : Reuss Voigt Hill
#
# Bulk Modulus (GPa) = 51.57770 51.90959 51.74365
# Shear Modulus (GPa) = 2.84640 30.03412 16.44026
#
# Velocity S-wave (km/s) = 1.14928 3.73323 2.76205
# Velocity P-wave (km/s) = 5.06905 6.53229 5.84663
#
# Compressibility (1/GPa) = 0.01938822
#
# Stress axis : x y z
#
# Youngs Moduli (GPa) = 97.63535 96.51748 94.51978
#
# Poissons Ratio (x) = 0.10204 0.16908
# Poissons Ratio (y) = 0.10322 0.28840
# Poissons Ratio (z) = 0.17466 0.29450
#
# Static dielectric constant tensor:
#      x y z
#    x 3.989630 0.000000 0.000000 
#    y 0.000000 3.973440 0.000000 
#    z 0.000000 0.000000 4.204710 
# 
# 
# High freq. dielectric constant tensor:
#      x y z
#    x 1.844790 0.000000 0.000000 
#    y 0.000000 1.842710 0.000000 
#    z 0.000000 0.000000 1.843640 
# 
# From -- ./inp_files/35331.got.cif
#   From: 2010.03.12/outbox.cif.g09.slc.cpg/sg63_18_cif.got.tgz:35331.got - 2010.04.10 19:34:48.
