data_PCOD8260081
_publ_section_title
;
Structure prediction by ZEFSAII (Michael W. Deem and Ramdas Pophale) SiO2 
 PCOD8260081
Probable space group: C M C M
;
_chemical_formula_sum "Si O2"
_cell_formula_units_Z 104
_cell_length_a 26.113029
_cell_length_b 9.251851
_cell_length_c 21.768981
_cell_angle_alpha 90.000000
_cell_angle_beta 90.000000
_cell_angle_gamma 90.000000
_cell_volume 5259.252006
_symmetry_space_group_name_H-M "C M C M"
_symmetry_group_IT_number 63
_symmetry_cell_setting 'orthorhombic'
loop_
_space_group_symop_operation_xyz
x,y,z
-x,-y,1/2+z
x,-y,-z
-x,y,1/2-z
-x,-y,-z
x,y,1/2-z
-x,y,z
x,-y,1/2+z
1/2+x,1/2+y,z
1/2-x,1/2-y,1/2+z
1/2+x,1/2-y,-z
1/2-x,1/2+y,1/2-z
1/2-x,1/2-y,-z
1/2+x,1/2+y,1/2-z
1/2-x,1/2+y,z
1/2+x,1/2-y,1/2+z
loop_
_atom_site_type_symbol
_atom_site_label
_atom_site_fract_x
_atom_site_fract_y
_atom_site_fract_z
Si Si1 0.652787 0.333682 0.510616
Si Si2 0.084418 0.696613 0.155670
Si Si3 0.557382 0.161979 0.016566
Si Si4 0.133475 0.183838 0.250000
Si Si5 0.306290 0.711737 0.880273
Si Si6 0.055379 0.072502 0.750000
Si Si7 0.296056 0.372336 0.636181
Si Si8 0.440107 0.043579 0.750000
O O1 0.641462 0.500000 0.500000
O O2 0.597291 0.262227 0.519104
O O3 0.684774 0.268420 0.453503
O O4 0.684047 0.306379 0.572312
O O5 0.060483 0.687825 0.088804
O O6 0.144643 0.729944 0.155731
O O7 0.057036 0.828002 0.189830
O O8 0.073779 0.545985 0.189252
O O9 0.500000 0.198354 0.993599
O O10 0.572634 0.000000 0.000000
O O11 0.168932 0.189907 0.190142
O O12 0.093674 0.313600 0.250000
O O13 0.101795 0.037103 0.250000
O O14 0.295107 0.545667 0.863375
O O15 0.261005 0.812716 0.855951
O O16 0.000000 0.993076 0.750000
O O17 0.500000 0.084904 0.750000
#
# Coordination Sequence:
#
# PCOD8260081 Si02
#       8
#    16  16  16   8  16   8  16   8
#     4   9  21  41  62  89 123 160 209 253 304 375
#     4  10  21  42  64  92 120 161 211 256 304 388
#     4  10  21  36  60  93 125 158 204 260 317 365
#     4  12  27  40  60  93 132 155 212 262 307 364
#     4  10  22  41  68  91 123 159 207 255 314 366
#     4  11  21  42  68  84 119 170 209 253 308 375
#     4  11  24  41  61  93 125 166 204 256 309 370
#     4  11  25  42  64  89 123 165 208 253 309 369
#
# _framework density 19.774674000000001
#
# number of rings (size 3 to 8) (size 9 to 14) (size 15 to 20)
#    0.000    1.692    1.538    2.538    4.308    3.385 
#    0.000    1.538    0.000    0.000    0.000    0.000 
#    0.000    0.000    0.000    0.000    0.000    0.000 
#
# Total GULP energy -644949.134932 kJ/mol
# GULP energy per Si atom -12402.867979 kJ/mol
# Density = 1.972967 g / cm^3
# Si number density = 19.774674 Si / 1000 Ang^3
#
#
#
# Elastic Constant Matrix: (Units=GPa)
#
#
# Indices 1 2 3 4 5 6 
#
# 1 155.8343 51.0282 39.5144 0.0000 0.0000 0.0000
# 2 51.0282 72.3737 17.9393 0.0000 0.0000 0.0000
# 3 39.5144 17.9393 58.4516 0.0000 0.0000 0.0000
# 4 0.0000 0.0000 0.0000 -37.2535 0.0000 0.0000
# 5 0.0000 0.0000 0.0000 0.0000 28.8093 0.0000
# 6 0.0000 0.0000 0.0000 0.0000 0.0000 6.2144
#
#
#
# Elastic Compliance Matrix: (Units=1/GPa)
#
#
# Indices 1 2 3 4 5 6 
#
# 1 0.009390 -0.005463 -0.004672 0.000000 0.000000 0.000000
# 2 -0.005463 0.018133 -0.001872 0.000000 0.000000 0.000000
# 3 -0.004672 -0.001872 0.020841 0.000000 0.000000 0.000000
# 4 0.000000 0.000000 0.000000 -0.026843 0.000000 0.000000
# 5 0.000000 0.000000 0.000000 0.000000 0.034711 0.000000
# 6 0.000000 0.000000 0.000000 0.000000 0.000000 0.160916
#
#
# Mechanical properties :
#
#
# Convention : Reuss Voigt Hill
#
# Bulk Modulus (GPa) = 41.06596 55.95815 48.51205
# Shear Modulus (GPa) = 20.05789 11.43256 15.74523
#
# Velocity S-wave (km/s) = 3.18830 2.40707 2.82482
# Velocity P-wave (km/s) = 5.86223 6.00705 5.93508
#
# Compressibility (1/GPa) = 0.02435107
#
# Stress axis : x y z
#
# Youngs Moduli (GPa) = 106.49092 55.14818 47.98287
#
# Poissons Ratio (x) = 0.30127 0.22415
# Poissons Ratio (y) = 0.58176 0.08983
# Poissons Ratio (z) = 0.49747 0.10324
#
# Static dielectric constant tensor:
#      x y z
#    x 3.722110 0.000000 0.000000 
#    y 0.000000 3.536710 0.000000 
#    z 0.000000 0.000000 3.590330 
# 
# 
# High freq. dielectric constant tensor:
#      x y z
#    x 1.787370 0.000000 0.000000 
#    y 0.000000 1.767940 0.000000 
#    z 0.000000 0.000000 1.774420 
# 
# From -- ./inp_files/58244.got.cif
#   From: 2010.03.12/outbox.cif.g09.slc.cpg/sg63_30_cif.got.tgz:58244.got - 2010.04.10 19:34:48.
