data_PCOD8260643
_publ_section_title
;
Structure prediction by ZEFSAII (Michael W. Deem and Ramdas Pophale) SiO2 
 PCOD8260643
Probable space group: C M C M
;
_chemical_formula_sum "Si O2"
_cell_formula_units_Z 112
_cell_length_a 28.032967
_cell_length_b 12.458817
_cell_length_c 15.277892
_cell_angle_alpha 90.000000
_cell_angle_beta 90.000000
_cell_angle_gamma 90.000000
_cell_volume 5335.919982
_symmetry_space_group_name_H-M "C M C M"
_symmetry_group_IT_number 63
_symmetry_cell_setting 'orthorhombic'
loop_
_space_group_symop_operation_xyz
x,y,z
-x,-y,1/2+z
x,-y,-z
-x,y,1/2-z
-x,-y,-z
x,y,1/2-z
-x,y,z
x,-y,1/2+z
1/2+x,1/2+y,z
1/2-x,1/2-y,1/2+z
1/2+x,1/2-y,-z
1/2-x,1/2+y,1/2-z
1/2-x,1/2-y,-z
1/2+x,1/2+y,1/2-z
1/2-x,1/2+y,z
1/2+x,1/2-y,1/2+z
loop_
_atom_site_type_symbol
_atom_site_label
_atom_site_fract_x
_atom_site_fract_y
_atom_site_fract_z
Si Si1 0.195450 0.187073 0.150596
Si Si2 0.621950 0.914928 0.848884
Si Si3 0.846404 0.967979 0.400543
Si Si4 0.054255 0.317961 0.513790
Si Si5 0.947966 0.920317 0.079740
Si Si6 0.202305 0.750991 0.146833
Si Si7 0.884727 0.657691 0.850054
O O1 0.199950 0.223787 0.250000
O O2 0.246506 0.214749 0.107049
O O3 0.154225 0.260626 0.108789
O O4 0.181917 0.061621 0.148590
O O5 0.604944 0.884682 0.750000
O O6 0.667110 0.845254 0.877631
O O7 0.637508 0.038841 0.852580
O O8 0.580180 0.896274 0.918077
O O9 0.900854 0.951244 0.361988
O O10 0.815125 0.860628 0.397465
O O11 0.853132 0.000000 0.500000
O O12 0.062884 0.196514 0.542161
O O13 0.070053 0.333742 0.413355
O O14 0.000000 0.352915 0.517978
O O15 0.000000 0.921642 0.130473
O O16 0.953431 0.000000 0.000000
O O17 0.203857 0.770573 0.250000
O O18 0.899712 0.688137 0.750000
#
# Coordination Sequence:
#
# PCOD8260643 Si02
#       7
#    16  16  16  16  16  16  16
#     4  10  23  40  62  87 119 164 207 247 302 368
#     4  10  22  40  60  86 123 161 201 250 303 365
#     4  11  21  37  61  91 126 155 199 258 307 363
#     4  11  22  40  64  90 120 158 206 253 308 373
#     4   9  18  34  59  87 120 162 200 246 309 367
#     4  10  22  40  61  85 119 164 204 246 306 365
#     4  10  22  40  60  88 124 159 202 252 301 361
#
# _framework density 20.989819000000001
#
# number of rings (size 3 to 8) (size 9 to 14) (size 15 to 20)
#    0.000    1.857    1.429    2.571    2.000    2.286 
#    0.000    1.429    0.000    2.571    0.000    4.000 
#    0.000    0.000    0.000    0.000    0.000    0.000 
#
# Total GULP energy -694139.334893 kJ/mol
# GULP energy per Si atom -12395.345266 kJ/mol
# Density = 2.094205 g / cm^3
# Si number density = 20.989819 Si / 1000 Ang^3
#
#
#
# Elastic Constant Matrix: (Units=GPa)
#
#
# Indices 1 2 3 4 5 6 
#
# 1 169.0282 58.5333 44.6059 0.0000 0.0000 0.0000
# 2 58.5333 118.7769 9.0479 0.0000 0.0000 0.0000
# 3 44.6059 9.0479 59.6179 0.0000 0.0000 0.0000
# 4 0.0000 0.0000 0.0000 23.1640 0.0000 0.0000
# 5 0.0000 0.0000 0.0000 0.0000 25.0700 0.0000
# 6 0.0000 0.0000 0.0000 0.0000 0.0000 32.1926
#
#
#
# Elastic Compliance Matrix: (Units=1/GPa)
#
#
# Indices 1 2 3 4 5 6 
#
# 1 0.008863 -0.003908 -0.006038 0.000000 0.000000 0.000000
# 2 -0.003908 0.010240 0.001370 0.000000 0.000000 0.000000
# 3 -0.006038 0.001370 0.021083 0.000000 0.000000 0.000000
# 4 0.000000 0.000000 0.000000 0.043171 0.000000 0.000000
# 5 0.000000 0.000000 0.000000 0.000000 0.039888 0.000000
# 6 0.000000 0.000000 0.000000 0.000000 0.000000 0.031063
#
#
# Mechanical properties :
#
#
# Convention : Reuss Voigt Hill
#
# Bulk Modulus (GPa) = 43.41363 63.53302 53.47333
# Shear Modulus (GPa) = 27.91131 31.76771 29.83951
#
# Velocity S-wave (km/s) = 3.65054 3.89457 3.77453
# Velocity P-wave (km/s) = 6.20457 7.11040 6.67287
#
# Compressibility (1/GPa) = 0.02303424
#
# Stress axis : x y z
#
# Youngs Moduli (GPa) = 112.83142 97.65151 47.43094
#
# Poissons Ratio (x) = 0.38159 0.28639
# Poissons Ratio (y) = 0.44090 -0.06496
# Poissons Ratio (z) = 0.68128 -0.13374
#
# Static dielectric constant tensor:
#      x y z
#    x 4.255590 0.000000 0.000000 
#    y 0.000000 3.583790 0.000000 
#    z 0.000000 0.000000 3.542920 
# 
# 
# High freq. dielectric constant tensor:
#      x y z
#    x 1.828340 0.000000 0.000000 
#    y 0.000000 1.837660 0.000000 
#    z 0.000000 0.000000 1.797980 
# 
# From -- ./inp_files/38497.got.cif
#   From: 2010.03.12/outbox.cif.g09.slc.cpg/sg63_20_cif.got.tgz:38497.got - 2010.04.10 19:34:48.
