data_PCOD8260058
_publ_section_title
;
Structure prediction by ZEFSAII (Michael W. Deem and Ramdas Pophale) SiO2 
 PCOD8260058
Probable space group: C M C M
;
_chemical_formula_sum "Si O2"
_cell_formula_units_Z 96
_cell_length_a 14.010856
_cell_length_b 14.911009
_cell_length_c 23.736991
_cell_angle_alpha 90.000000
_cell_angle_beta 90.000000
_cell_angle_gamma 90.000000
_cell_volume 4959.037210
_symmetry_space_group_name_H-M "C M C M"
_symmetry_group_IT_number 63
_symmetry_cell_setting 'orthorhombic'
loop_
_space_group_symop_operation_xyz
x,y,z
-x,-y,1/2+z
x,-y,-z
-x,y,1/2-z
-x,-y,-z
x,y,1/2-z
-x,y,z
x,-y,1/2+z
1/2+x,1/2+y,z
1/2-x,1/2-y,1/2+z
1/2+x,1/2-y,-z
1/2-x,1/2+y,1/2-z
1/2-x,1/2-y,-z
1/2+x,1/2+y,1/2-z
1/2-x,1/2+y,z
1/2+x,1/2-y,1/2+z
loop_
_atom_site_type_symbol
_atom_site_label
_atom_site_fract_x
_atom_site_fract_y
_atom_site_fract_z
Si Si1 0.388785 0.093080 0.979779
Si Si2 0.212229 0.991166 0.813498
Si Si3 0.605270 0.883088 0.812085
Si Si4 0.391981 0.230661 0.078074
Si Si5 0.732321 0.158574 0.619273
Si Si6 0.889021 0.189780 0.316984
O O1 0.500000 0.081325 0.970281
O O2 0.348686 0.116141 0.918991
O O3 0.365802 0.164105 0.028070
O O4 0.342436 0.000000 0.000000
O O5 0.178906 0.009943 0.750000
O O6 0.207174 0.085058 0.845837
O O7 0.323030 0.965090 0.817670
O O8 0.147038 0.909065 0.837630
O O9 0.617963 0.837384 0.750000
O O10 0.500000 0.925270 0.818661
O O11 0.622263 0.810368 0.859907
O O12 0.500000 0.267361 0.070829
O O13 0.312595 0.306841 0.075662
O O14 0.679989 0.234585 0.656739
O O15 0.877602 0.197101 0.250000
O O16 0.000000 0.202409 0.335236
#
# Coordination Sequence:
#
# PCOD8260058 Si02
#       6
#    16  16  16  16  16  16
#     4  10  22  39  60  85 115 150 193 249 309 357
#     4  10  21  36  56  86 122 156 192 240 299 355
#     4   9  17  32  56  83 112 145 184 236 295 349
#     4  10  21  37  56  83 117 149 189 243 295 350
#     4  12  22  36  63  88 114 157 209 246 291 361
#     4  10  22  40  60  87 125 162 198 246 302 361
#
# _framework density 19.358595999999999
#
# number of rings (size 3 to 8) (size 9 to 14) (size 15 to 20)
#    0.000    1.833    1.667    2.500    0.000    4.000 
#    0.000    1.667    0.000    0.500    0.000    0.000 
#    0.000    0.000    0.000    0.000    0.000    0.000 
#
# Total GULP energy -594869.764622 kJ/mol
# GULP energy per Si atom -12393.120096 kJ/mol
# Density = 1.931453 g / cm^3
# Si number density = 19.358596 Si / 1000 Ang^3
#
#
#
# Elastic Constant Matrix: (Units=GPa)
#
#
# Indices 1 2 3 4 5 6 
#
# 1 75.8162 44.1518 18.1406 0.0000 0.0000 0.0000
# 2 44.1518 112.3509 34.5912 0.0000 0.0000 0.0000
# 3 18.1406 34.5912 70.9943 0.0000 0.0000 0.0000
# 4 0.0000 0.0000 0.0000 23.7478 0.0000 0.0000
# 5 0.0000 0.0000 0.0000 0.0000 28.2396 0.0000
# 6 0.0000 0.0000 0.0000 0.0000 0.0000 23.2875
#
#
#
# Elastic Compliance Matrix: (Units=1/GPa)
#
#
# Indices 1 2 3 4 5 6 
#
# 1 0.017205 -0.006362 -0.001296 0.000000 0.000000 0.000000
# 2 -0.006362 0.012824 -0.004623 0.000000 0.000000 0.000000
# 3 -0.001296 -0.004623 0.016669 0.000000 0.000000 0.000000
# 4 0.000000 0.000000 0.000000 0.042109 0.000000 0.000000
# 5 0.000000 0.000000 0.000000 0.000000 0.035411 0.000000
# 6 0.000000 0.000000 0.000000 0.000000 0.000000 0.042941
#
#
# Mechanical properties :
#
#
# Convention : Reuss Voigt Hill
#
# Bulk Modulus (GPa) = 45.17549 50.32541 47.75045
# Shear Modulus (GPa) = 25.11285 25.87352 25.49318
#
# Velocity S-wave (km/s) = 3.60564 3.65984 3.63284
# Velocity P-wave (km/s) = 6.38130 6.62662 6.50511
#
# Compressibility (1/GPa) = 0.02213590
#
# Stress axis : x y z
#
# Youngs Moduli (GPa) = 58.12278 77.97792 59.99053
#
# Poissons Ratio (x) = 0.49610 0.07777
# Poissons Ratio (y) = 0.36978 0.27732
# Poissons Ratio (z) = 0.07535 0.36047
#
# Static dielectric constant tensor:
#      x y z
#    x 3.704180 0.000000 0.000000 
#    y 0.000000 3.463570 0.000000 
#    z 0.000000 0.000000 3.530220 
# 
# 
# High freq. dielectric constant tensor:
#      x y z
#    x 1.761350 0.000000 0.000000 
#    y 0.000000 1.737560 0.000000 
#    z 0.000000 0.000000 1.753920 
# 
# From -- ./inp_files/54203.got.cif
#   From: 2010.03.12/outbox.cif.g09.slc.cpg/sg63_28_cif.got.tgz:54203.got - 2010.04.10 19:34:48.
