data_PCOD8260143
_publ_section_title
;
Structure prediction by ZEFSAII (Michael W. Deem and Ramdas Pophale) SiO2 
 PCOD8260143
Probable space group: C M C M
;
_chemical_formula_sum "Si O2"
_cell_formula_units_Z 96
_cell_length_a 18.502878
_cell_length_b 29.732994
_cell_length_c 8.809061
_cell_angle_alpha 90.000000
_cell_angle_beta 90.000000
_cell_angle_gamma 90.000000
_cell_volume 4846.269325
_symmetry_space_group_name_H-M "C M C M"
_symmetry_group_IT_number 63
_symmetry_cell_setting 'orthorhombic'
loop_
_space_group_symop_operation_xyz
x,y,z
-x,-y,1/2+z
x,-y,-z
-x,y,1/2-z
-x,-y,-z
x,y,1/2-z
-x,y,z
x,-y,1/2+z
1/2+x,1/2+y,z
1/2-x,1/2-y,1/2+z
1/2+x,1/2-y,-z
1/2-x,1/2+y,1/2-z
1/2-x,1/2-y,-z
1/2+x,1/2+y,1/2-z
1/2-x,1/2+y,z
1/2+x,1/2-y,1/2+z
loop_
_atom_site_type_symbol
_atom_site_label
_atom_site_fract_x
_atom_site_fract_y
_atom_site_fract_z
Si Si1 0.917747 0.211235 0.425495
Si Si2 0.837747 0.119798 0.426254
Si Si3 0.311109 0.874148 0.071058
Si Si4 0.183382 0.276943 0.571573
Si Si5 0.417479 0.953209 0.071255
Si Si6 0.084775 0.956582 0.081453
O O1 0.912167 0.225363 0.250000
O O2 0.865783 0.169588 0.461006
O O3 0.891250 0.252345 0.528906
O O4 0.000000 0.199222 0.469266
O O5 0.819632 0.113627 0.250000
O O6 0.767940 0.108302 0.526266
O O7 0.900414 0.086248 0.476866
O O8 0.316577 0.866180 0.250000
O O9 0.368933 0.911336 0.015063
O O10 0.324681 0.827444 0.986750
O O11 0.195868 0.278114 0.750000
O O12 0.250000 0.250000 0.500000
O O13 0.410930 0.958530 0.250000
O O14 0.500000 0.943634 0.020473
O O15 0.389376 0.000000 0.000000
O O16 0.118549 0.951219 0.250000
O O17 0.000000 0.962868 0.095365
O O18 0.119736 0.000000 0.000000
#
# Coordination Sequence:
#
# PCOD8260143 Si02
#       6
#    16  16  16  16  16  16
#     4  10  22  40  62  88 119 158 201 247 302 363
#     4  11  22  37  59  86 118 157 198 243 298 361
#     4  11  23  39  62  91 123 161 203 249 304 367
#     4  12  24  40  62  88 121 162 206 254 309 365
#     4   9  20  40  65  92 123 160 202 251 309 369
#     4  10  21  37  57  81 112 151 196 246 297 350
#
# _framework density 19.809052000000001
#
# number of rings (size 3 to 8) (size 9 to 14) (size 15 to 20)
#    0.000    1.500    1.667    3.500    0.000    5.333 
#    0.000    3.333    0.000    0.000    0.000    0.000 
#    0.000    0.000    0.000    0.000    0.000    0.000 
#
# Total GULP energy -595340.249089 kJ/mol
# GULP energy per Si atom -12402.921856 kJ/mol
# Density = 1.976397 g / cm^3
# Si number density = 19.809052 Si / 1000 Ang^3
#
#
#
# Elastic Constant Matrix: (Units=GPa)
#
#
# Indices 1 2 3 4 5 6 
#
# 1 93.6722 49.4264 45.2692 0.0000 0.0000 0.0000
# 2 49.4264 142.7647 67.2317 0.0000 0.0000 0.0000
# 3 45.2692 67.2317 94.3944 0.0000 0.0000 0.0000
# 4 0.0000 0.0000 0.0000 38.1544 0.0000 0.0000
# 5 0.0000 0.0000 0.0000 0.0000 29.9211 0.0000
# 6 0.0000 0.0000 0.0000 0.0000 0.0000 36.3838
#
#
#
# Elastic Compliance Matrix: (Units=1/GPa)
#
#
# Indices 1 2 3 4 5 6 
#
# 1 0.014524 -0.002631 -0.005092 0.000000 0.000000 0.000000
# 2 -0.002631 0.011016 -0.006585 0.000000 0.000000 0.000000
# 3 -0.005092 -0.006585 0.017726 0.000000 0.000000 0.000000
# 4 0.000000 0.000000 0.000000 0.026209 0.000000 0.000000
# 5 0.000000 0.000000 0.000000 0.000000 0.033421 0.000000
# 6 0.000000 0.000000 0.000000 0.000000 0.000000 0.027485
#
#
# Mechanical properties :
#
#
# Convention : Reuss Voigt Hill
#
# Bulk Modulus (GPa) = 68.25026 72.74286 70.49656
# Shear Modulus (GPa) = 30.51023 32.15213 31.33118
#
# Velocity S-wave (km/s) = 3.92882 4.03315 3.98132
# Velocity P-wave (km/s) = 7.42359 7.64788 7.53657
#
# Compressibility (1/GPa) = 0.01465196
#
# Stress axis : x y z
#
# Youngs Moduli (GPa) = 68.85009 90.77622 56.41544
#
# Poissons Ratio (x) = 0.23879 0.28726
# Poissons Ratio (y) = 0.18111 0.37147
# Poissons Ratio (z) = 0.35058 0.59773
#
# Static dielectric constant tensor:
#      x y z
#    x 3.650080 0.000000 0.000000 
#    y 0.000000 3.696990 0.000000 
#    z 0.000000 0.000000 3.739930 
# 
# 
# High freq. dielectric constant tensor:
#      x y z
#    x 1.767750 0.000000 0.000000 
#    y 0.000000 1.780540 0.000000 
#    z 0.000000 0.000000 1.777540 
# 
# From -- ./inp_files/8619.got.cif
#   From: 2010.03.12/outbox.cif.g09.slc.cpg/sg63_5_cif.got.tgz:8619.got - 2010.04.10 19:34:48.
