data_PCOD8260288
_publ_section_title
;
Structure prediction by ZEFSAII (Michael W. Deem and Ramdas Pophale) SiO2 
 PCOD8260288
Probable space group: C M C M
;
_chemical_formula_sum "Si O2"
_cell_formula_units_Z 80
_cell_length_a 9.066754
_cell_length_b 29.556152
_cell_length_c 14.405276
_cell_angle_alpha 90.000000
_cell_angle_beta 90.000000
_cell_angle_gamma 90.000000
_cell_volume 3860.302229
_symmetry_space_group_name_H-M "C M C M"
_symmetry_group_IT_number 63
_symmetry_cell_setting 'orthorhombic'
loop_
_space_group_symop_operation_xyz
x,y,z
-x,-y,1/2+z
x,-y,-z
-x,y,1/2-z
-x,-y,-z
x,y,1/2-z
-x,y,z
x,-y,1/2+z
1/2+x,1/2+y,z
1/2-x,1/2-y,1/2+z
1/2+x,1/2-y,-z
1/2-x,1/2+y,1/2-z
1/2-x,1/2-y,-z
1/2+x,1/2+y,1/2-z
1/2-x,1/2+y,z
1/2+x,1/2-y,1/2+z
loop_
_atom_site_type_symbol
_atom_site_label
_atom_site_fract_x
_atom_site_fract_y
_atom_site_fract_z
Si Si1 0.665997 0.041876 0.860619
Si Si2 0.173096 0.797727 0.510230
Si Si3 0.830818 0.364832 0.859893
Si Si4 0.170257 0.869315 0.355539
Si Si5 0.833918 0.045652 0.360548
O O1 0.669741 0.040604 0.750000
O O2 0.500000 0.038945 0.898465
O O3 0.738398 0.088397 0.895877
O O4 0.757056 0.999386 0.900802
O O5 0.250000 0.750000 0.500000
O O6 0.243018 0.822753 0.598189
O O7 0.205752 0.825540 0.416553
O O8 0.000000 0.791313 0.527456
O O9 0.818513 0.360676 0.750000
O O10 0.757430 0.411181 0.896163
O O11 0.000000 0.364027 0.892875
O O12 0.216351 0.857694 0.250000
O O13 0.000000 0.883268 0.361191
O O14 0.834597 0.044243 0.250000
O O15 0.000000 0.048918 0.399447
#
# Coordination Sequence:
#
# PCOD8260288 Si02
#       5
#    16  16  16  16  16
#     4   9  16  27  48  80 115 149 185 225 271 325
#     4  11  24  41  61  85 113 146 187 237 290 343
#     4  10  21  38  60  85 115 151 190 234 284 336
#     4   9  19  37  59  82 111 148 187 227 276 334
#     4   9  16  28  50  80 114 151 188 226 272 329
#
# _framework density 20.723766999999999
#
# number of rings (size 3 to 8) (size 9 to 14) (size 15 to 20)
#    0.000    2.400    0.000    2.400    0.000    8.400 
#    0.000    3.000    0.000    6.000    0.000    0.000 
#    0.000    0.000    0.000    0.000    0.000    0.000 
#
# Total GULP energy -496133.672398 kJ/mol
# GULP energy per Si atom -12403.341810 kJ/mol
# Density = 2.067660 g / cm^3
# Si number density = 20.723767 Si / 1000 Ang^3
#
#
#
# Elastic Constant Matrix: (Units=GPa)
#
#
# Indices 1 2 3 4 5 6 
#
# 1 178.8779 109.7387 41.3954 0.0000 0.0000 0.0000
# 2 109.7387 194.6921 36.9841 0.0000 0.0000 0.0000
# 3 41.3954 36.9841 41.8700 0.0000 0.0000 0.0000
# 4 0.0000 0.0000 0.0000 -890.5360 0.0000 0.0000
# 5 0.0000 0.0000 0.0000 0.0000 23.0288 0.0000
# 6 0.0000 0.0000 0.0000 0.0000 0.0000 48.2108
#
#
#
# Elastic Compliance Matrix: (Units=1/GPa)
#
#
# Indices 1 2 3 4 5 6 
#
# 1 0.009532 -0.004305 -0.005622 0.000000 0.000000 0.000000
# 2 -0.004305 0.008116 -0.002913 0.000000 0.000000 0.000000
# 3 -0.005622 -0.002913 0.032014 0.000000 0.000000 0.000000
# 4 0.000000 0.000000 0.000000 -0.001123 0.000000 0.000000
# 5 0.000000 0.000000 0.000000 0.000000 0.043424 0.000000
# 6 0.000000 0.000000 0.000000 0.000000 0.000000 0.020742
#
#
# Mechanical properties :
#
#
# Convention : Reuss Voigt Hill
#
# Bulk Modulus (GPa) = 41.69476 87.96404 64.82940
# Shear Modulus (GPa) = 34.15765 -148.70448 -57.27342
#
# Velocity S-wave (km/s) = 4.06425 -8.48005 -5.26275
# Velocity P-wave (km/s) = 6.49516 7.30367 2.36183
#
# Compressibility (1/GPa) = 0.02398383
#
# Stress axis : x y z
#
# Youngs Moduli (GPa) = 104.90455 123.21008 31.23595
#
# Poissons Ratio (x) = 0.53043 0.17560
# Poissons Ratio (y) = 0.45162 0.09098
# Poissons Ratio (z) = 0.58974 0.35889
#
# Static dielectric constant tensor:
#      x y z
#    x 3.934370 0.000000 0.000000 
#    y 0.000000 3.759540 0.000000 
#    z 0.000000 0.000000 3.595140 
# 
# 
# High freq. dielectric constant tensor:
#      x y z
#    x 1.822490 0.000000 0.000000 
#    y 0.000000 1.809300 0.000000 
#    z 0.000000 0.000000 1.800090 
# 
# From -- ./inp_files/40488.got.cif
#   From: 2010.03.12/outbox.cif.g09.slc.cpg/sg63_21_cif.got.tgz:40488.got - 2010.04.10 19:34:48.
