data_PCOD8260759
_publ_section_title
;
Structure prediction by ZEFSAII (Michael W. Deem and Ramdas Pophale) SiO2 
 PCOD8260759
Probable space group: C M C M
;
_chemical_formula_sum "Si O2"
_cell_formula_units_Z 52
_cell_length_a 10.025425
_cell_length_b 23.371681
_cell_length_c 10.527994
_cell_angle_alpha 90.000000
_cell_angle_beta 90.000000
_cell_angle_gamma 90.000000
_cell_volume 2466.825171
_symmetry_space_group_name_H-M "C M C M"
_symmetry_group_IT_number 63
_symmetry_cell_setting 'orthorhombic'
loop_
_space_group_symop_operation_xyz
x,y,z
-x,-y,1/2+z
x,-y,-z
-x,y,1/2-z
-x,-y,-z
x,y,1/2-z
-x,y,z
x,-y,1/2+z
1/2+x,1/2+y,z
1/2-x,1/2-y,1/2+z
1/2+x,1/2-y,-z
1/2-x,1/2+y,1/2-z
1/2-x,1/2-y,-z
1/2+x,1/2+y,1/2-z
1/2-x,1/2+y,z
1/2+x,1/2-y,1/2+z
loop_
_atom_site_type_symbol
_atom_site_label
_atom_site_fract_x
_atom_site_fract_y
_atom_site_fract_z
Si Si1 0.145499 0.445182 0.750000
Si Si2 0.289128 0.876237 0.996065
Si Si3 0.000000 0.858008 0.250000
Si Si4 0.244282 0.434955 0.250000
Si Si5 0.500000 0.671231 0.015515
Si Si6 0.000000 0.296150 0.102285
O O1 0.152624 0.405692 0.627219
O O2 0.255214 0.495922 0.750000
O O3 0.000000 0.475109 0.750000
O O4 0.133547 0.865916 0.961960
O O5 0.323464 0.916401 0.117381
O O6 0.367446 0.817493 0.028371
O O7 0.117490 0.902797 0.250000
O O8 0.000000 0.813679 0.366077
O O9 0.500000 0.727447 0.100600
O O10 0.000000 0.315423 0.250000
#
# Coordination Sequence:
#
# PCOD8260759 Si02
#       6
#     8  16   4   8   8   8
#     4  12  26  39  65  96 131 169 210 276 317 380
#     4  11  24  44  64  98 129 166 220 265 315 388
#     4   8  20  44  66  92 126 166 212 268 316 392
#     4  10  22  42  66  91 127 170 210 258 333 378
#     4  10  24  43  69  91 129 172 213 266 325 375
#     4  12  24  42  66  95 129 176 214 265 322 381
#
# _framework density 21.079726999999998
#
# number of rings (size 3 to 8) (size 9 to 14) (size 15 to 20)
#    0.000    1.231    3.077    1.846    4.308    3.692 
#    0.000    4.615    0.000    0.000    0.000    0.000 
#    0.000    0.000    0.000    0.000    0.000    0.000 
#
# Total GULP energy -322183.369141 kJ/mol
# GULP energy per Si atom -12391.668044 kJ/mol
# Density = 2.103175 g / cm^3
# Si number density = 21.079727 Si / 1000 Ang^3
#
#
#
# Elastic Constant Matrix: (Units=GPa)
#
#
# Indices 1 2 3 4 5 6 
#
# 1 105.2942 17.9167 24.5151 0.0000 0.0000 0.0000
# 2 17.9167 92.7209 48.8220 0.0000 0.0000 0.0000
# 3 24.5151 48.8220 153.6964 0.0000 0.0000 0.0000
# 4 0.0000 0.0000 0.0000 23.6488 0.0000 0.0000
# 5 0.0000 0.0000 0.0000 0.0000 34.8354 0.0000
# 6 0.0000 0.0000 0.0000 0.0000 0.0000 88.6935
#
#
#
# Elastic Compliance Matrix: (Units=1/GPa)
#
#
# Indices 1 2 3 4 5 6 
#
# 1 0.009994 -0.001311 -0.001178 0.000000 0.000000 0.000000
# 2 -0.001311 0.013123 -0.003959 0.000000 0.000000 0.000000
# 3 -0.001178 -0.003959 0.007952 0.000000 0.000000 0.000000
# 4 0.000000 0.000000 0.000000 0.042285 0.000000 0.000000
# 5 0.000000 0.000000 0.000000 0.000000 0.028706 0.000000
# 6 0.000000 0.000000 0.000000 0.000000 0.000000 0.011275
#
#
# Mechanical properties :
#
#
# Convention : Reuss Voigt Hill
#
# Bulk Modulus (GPa) = 55.02658 59.35767 57.19213
# Shear Modulus (GPa) = 37.79557 46.79939 42.29748
#
# Velocity S-wave (km/s) = 4.23896 4.71692 4.48431
# Velocity P-wave (km/s) = 7.07948 7.60826 7.34863
#
# Compressibility (1/GPa) = 0.01817303
#
# Stress axis : x y z
#
# Youngs Moduli (GPa) = 100.05513 76.20051 125.75582
#
# Poissons Ratio (x) = 0.09991 0.14810
# Poissons Ratio (y) = 0.13119 0.49793
# Poissons Ratio (z) = 0.11783 0.30172
#
# Static dielectric constant tensor:
#      x y z
#    x 3.819690 0.000000 0.000000 
#    y 0.000000 3.411850 0.000000 
#    z 0.000000 0.000000 4.152630 
# 
# 
# High freq. dielectric constant tensor:
#      x y z
#    x 1.833690 0.000000 0.000000 
#    y 0.000000 1.806990 0.000000 
#    z 0.000000 0.000000 1.844810 
# 
# From -- ./inp_files/17107.got.cif
#   From: 2010.03.12/outbox.cif.g09.slc.cpg/sg63_9_cif.got.tgz:17107.got - 2010.04.10 19:34:48.
