data_PCOD8260771
_publ_section_title
;
Structure prediction by ZEFSAII (Michael W. Deem and Ramdas Pophale) SiO2 
 PCOD8260771
Probable space group: C M C M
;
_chemical_formula_sum "Si O2"
_cell_formula_units_Z 64
_cell_length_a 15.079408
_cell_length_b 9.979909
_cell_length_c 21.306878
_cell_angle_alpha 90.000000
_cell_angle_beta 90.000000
_cell_angle_gamma 90.000000
_cell_volume 3206.495926
_symmetry_space_group_name_H-M "C M C M"
_symmetry_group_IT_number 63
_symmetry_cell_setting 'orthorhombic'
loop_
_space_group_symop_operation_xyz
x,y,z
-x,-y,1/2+z
x,-y,-z
-x,y,1/2-z
-x,-y,-z
x,y,1/2-z
-x,y,z
x,-y,1/2+z
1/2+x,1/2+y,z
1/2-x,1/2-y,1/2+z
1/2+x,1/2-y,-z
1/2-x,1/2+y,1/2-z
1/2-x,1/2-y,-z
1/2+x,1/2+y,1/2-z
1/2-x,1/2+y,z
1/2+x,1/2-y,1/2+z
loop_
_atom_site_type_symbol
_atom_site_label
_atom_site_fract_x
_atom_site_fract_y
_atom_site_fract_z
Si Si1 0.184886 0.557216 0.818626
Si Si2 0.689538 0.350643 0.861667
Si Si3 0.000000 0.202527 0.954457
Si Si4 0.500000 0.585410 0.092116
Si Si5 0.347467 0.087896 0.437725
O O1 0.138540 0.540886 0.750000
O O2 0.276475 0.471622 0.817599
O O3 0.210654 0.710896 0.828523
O O4 0.124207 0.502288 0.876561
O O5 0.585361 0.362450 0.871351
O O6 0.746384 0.358462 0.927394
O O7 0.087734 0.287141 0.941908
O O8 0.000000 0.075505 0.908482
O O9 0.000000 0.150723 0.024524
O O10 0.353952 0.000000 0.500000
#
# Coordination Sequence:
#
# PCOD8260771 Si02
#       5
#    16  16   8   8  16
#     4  10  22  42  68  93 131 174 223 270 331 397
#     4  10  23  41  67  93 133 172 222 267 334 390
#     4  11  23  40  62  99 140 167 221 271 336 399
#     4  11  24  38  64  99 133 176 215 277 329 402
#     4  10  23  39  68  94 131 171 218 274 331 389
#
# _framework density 19.959482999999999
#
# number of rings (size 3 to 8) (size 9 to 14) (size 15 to 20)
#    1.500    0.250    0.000    4.125    3.500    3.000 
#    0.000    4.375    0.000    3.000    0.000    0.000 
#    0.000    0.000    0.000    0.000    0.000    0.000 
#
# Total GULP energy -396496.500420 kJ/mol
# GULP energy per Si atom -12390.515638 kJ/mol
# Density = 1.991405 g / cm^3
# Si number density = 19.959483 Si / 1000 Ang^3
#
#
#
# Elastic Constant Matrix: (Units=GPa)
#
#
# Indices 1 2 3 4 5 6 
#
# 1 103.8533 58.1441 28.1584 0.0000 0.0000 0.0000
# 2 58.1441 166.5415 58.3295 0.0000 0.0000 0.0000
# 3 28.1584 58.3295 138.7160 0.0000 0.0000 0.0000
# 4 0.0000 0.0000 0.0000 7.7908 0.0000 0.0000
# 5 0.0000 0.0000 0.0000 0.0000 20.4072 0.0000
# 6 0.0000 0.0000 0.0000 0.0000 0.0000 -56.4722
#
#
#
# Elastic Compliance Matrix: (Units=1/GPa)
#
#
# Indices 1 2 3 4 5 6 
#
# 1 0.012042 -0.003926 -0.000793 0.000000 0.000000 0.000000
# 2 -0.003926 0.008322 -0.002702 0.000000 0.000000 0.000000
# 3 -0.000793 -0.002702 0.008506 0.000000 0.000000 0.000000
# 4 0.000000 0.000000 0.000000 0.128357 0.000000 0.000000
# 5 0.000000 0.000000 0.000000 0.000000 0.049002 0.000000
# 6 0.000000 0.000000 0.000000 0.000000 0.000000 -0.017708
#
#
# Mechanical properties :
#
#
# Convention : Reuss Voigt Hill
#
# Bulk Modulus (GPa) = 71.29507 77.59719 74.44613
# Shear Modulus (GPa) = 24.03370 11.97708 18.00539
#
# Velocity S-wave (km/s) = 3.47381 2.45229 3.00675
# Velocity P-wave (km/s) = 7.20328 6.85420 7.03091
#
# Compressibility (1/GPa) = 0.01402621
#
# Stress axis : x y z
#
# Youngs Moduli (GPa) = 83.04013 120.16703 117.55967
#
# Poissons Ratio (x) = 0.47182 0.09328
# Poissons Ratio (y) = 0.32605 0.31767
# Poissons Ratio (z) = 0.06589 0.32472
#
# Static dielectric constant tensor:
#      x y z
#    x 3.362040 0.000000 0.000000 
#    y 0.000000 3.793590 0.000000 
#    z 0.000000 0.000000 3.580240 
# 
# 
# High freq. dielectric constant tensor:
#      x y z
#    x 1.753320 0.000000 0.000000 
#    y 0.000000 1.800080 0.000000 
#    z 0.000000 0.000000 1.771750 
# 
# From -- ./inp_files/68966.got.cif
#   From: 2010.03.12/outbox.cif.g09.slc.cpg/sg63_35_cif.got.tgz:68966.got - 2010.04.10 19:34:48.
