data_PCOD8260289
_publ_section_title
;
Structure prediction by ZEFSAII (Michael W. Deem and Ramdas Pophale) SiO2 
 PCOD8260289
Probable space group: C M C M
;
_chemical_formula_sum "Si O2"
_cell_formula_units_Z 64
_cell_length_a 9.075956
_cell_length_b 20.122121
_cell_length_c 17.307161
_cell_angle_alpha 90.000000
_cell_angle_beta 90.000000
_cell_angle_gamma 90.000000
_cell_volume 3160.763283
_symmetry_space_group_name_H-M "C M C M"
_symmetry_group_IT_number 63
_symmetry_cell_setting 'orthorhombic'
loop_
_space_group_symop_operation_xyz
x,y,z
-x,-y,1/2+z
x,-y,-z
-x,y,1/2-z
-x,-y,-z
x,y,1/2-z
-x,y,z
x,-y,1/2+z
1/2+x,1/2+y,z
1/2-x,1/2-y,1/2+z
1/2+x,1/2-y,-z
1/2-x,1/2+y,1/2-z
1/2-x,1/2-y,-z
1/2+x,1/2+y,1/2-z
1/2-x,1/2+y,z
1/2+x,1/2-y,1/2+z
loop_
_atom_site_type_symbol
_atom_site_label
_atom_site_fract_x
_atom_site_fract_y
_atom_site_fract_z
Si Si1 0.827125 0.393612 0.585581
Si Si2 0.171218 0.015105 0.661008
Si Si3 0.668202 0.274169 0.661012
Si Si4 0.328049 0.135654 0.909939
O O1 0.752539 0.462946 0.606438
O O2 0.771725 0.335735 0.641439
O O3 0.784079 0.376421 0.498254
O O4 0.000000 0.401876 0.596755
O O5 0.197937 0.995932 0.750000
O O6 0.235540 0.087850 0.645329
O O7 0.000000 0.014729 0.640183
O O8 0.689024 0.254811 0.750000
O O9 0.500000 0.294982 0.643505
O O10 0.715439 0.211034 0.610136
O O11 0.500000 0.122681 0.894411
#
# Coordination Sequence:
#
# PCOD8260289 Si02
#       4
#    16  16  16  16
#     4  11  23  38  59  87 117 151 192 236 283 338
#     4  11  24  40  59  85 116 151 192 237 286 340
#     4  10  21  38  60  85 115 152 191 233 285 341
#     4  10  22  40  61  86 116 151 191 235 286 341
#
# _framework density 20.248273999999999
#
# number of rings (size 3 to 8) (size 9 to 14) (size 15 to 20)
#    0.000    1.500    0.000    4.500    0.000   12.500 
#    0.000    0.000    0.000    0.000    0.000    0.000 
#    0.000    0.000    0.000    0.000    0.000    0.000 
#
# Total GULP energy -397060.079569 kJ/mol
# GULP energy per Si atom -12408.127487 kJ/mol
# Density = 2.020219 g / cm^3
# Si number density = 20.248274 Si / 1000 Ang^3
#
#
#
# Elastic Constant Matrix: (Units=GPa)
#
#
# Indices 1 2 3 4 5 6 
#
# 1 77.7691 34.4962 30.7916 0.0000 0.0000 0.0000
# 2 34.4962 85.7645 12.5002 0.0000 0.0000 0.0000
# 3 30.7916 12.5002 61.4547 0.0000 0.0000 0.0000
# 4 0.0000 0.0000 0.0000 43.7757 0.0000 0.0000
# 5 0.0000 0.0000 0.0000 0.0000 31.6530 0.0000
# 6 0.0000 0.0000 0.0000 0.0000 0.0000 37.6057
#
#
#
# Elastic Compliance Matrix: (Units=1/GPa)
#
#
# Indices 1 2 3 4 5 6 
#
# 1 0.018953 -0.006430 -0.008188 0.000000 0.000000 0.000000
# 2 -0.006430 0.014197 0.000334 0.000000 0.000000 0.000000
# 3 -0.008188 0.000334 0.020307 0.000000 0.000000 0.000000
# 4 0.000000 0.000000 0.000000 0.022844 0.000000 0.000000
# 5 0.000000 0.000000 0.000000 0.000000 0.031593 0.000000
# 6 0.000000 0.000000 0.000000 0.000000 0.000000 0.026592
#
#
# Mechanical properties :
#
#
# Convention : Reuss Voigt Hill
#
# Bulk Modulus (GPa) = 40.17920 42.28490 41.23205
# Shear Modulus (GPa) = 29.18009 32.42022 30.80016
#
# Velocity S-wave (km/s) = 3.80032 4.00576 3.90439
# Velocity P-wave (km/s) = 6.25643 6.50564 6.38225
#
# Compressibility (1/GPa) = 0.02488850
#
# Stress axis : x y z
#
# Youngs Moduli (GPa) = 52.76303 70.43572 49.24412
#
# Poissons Ratio (x) = 0.45288 0.40323
# Poissons Ratio (y) = 0.33925 -0.01644
# Poissons Ratio (z) = 0.43204 -0.02351
#
# Static dielectric constant tensor:
#      x y z
#    x 3.674420 0.000000 0.000000 
#    y 0.000000 3.675240 0.000000 
#    z 0.000000 0.000000 3.763970 
# 
# 
# High freq. dielectric constant tensor:
#      x y z
#    x 1.791350 0.000000 0.000000 
#    y 0.000000 1.802650 0.000000 
#    z 0.000000 0.000000 1.802650 
# 
# From -- ./inp_files/39811.got.cif
#   From: 2010.03.12/outbox.cif.g09.slc.cpg/sg63_20_cif.got.tgz:39811.got - 2010.04.10 19:34:48.
