data_PCOD8260514
_publ_section_title
;
Structure prediction by ZEFSAII (Michael W. Deem and Ramdas Pophale) SiO2 
 PCOD8260514
Probable space group: C M C M
;
_chemical_formula_sum "Si O2"
_cell_formula_units_Z 72
_cell_length_a 17.929626
_cell_length_b 8.926625
_cell_length_c 23.025153
_cell_angle_alpha 90.000000
_cell_angle_beta 90.000000
_cell_angle_gamma 90.000000
_cell_volume 3685.199861
_symmetry_space_group_name_H-M "C M C M"
_symmetry_group_IT_number 63
_symmetry_cell_setting 'orthorhombic'
loop_
_space_group_symop_operation_xyz
x,y,z
-x,-y,1/2+z
x,-y,-z
-x,y,1/2-z
-x,-y,-z
x,y,1/2-z
-x,y,z
x,-y,1/2+z
1/2+x,1/2+y,z
1/2-x,1/2-y,1/2+z
1/2+x,1/2-y,-z
1/2-x,1/2+y,1/2-z
1/2-x,1/2-y,-z
1/2+x,1/2+y,1/2-z
1/2-x,1/2+y,z
1/2+x,1/2-y,1/2+z
loop_
_atom_site_type_symbol
_atom_site_label
_atom_site_fract_x
_atom_site_fract_y
_atom_site_fract_z
Si Si1 0.704740 0.611087 0.575411
Si Si2 0.000000 0.552608 0.184956
Si Si3 0.875240 0.795996 0.315218
Si Si4 0.500000 0.789639 0.097050
Si Si5 0.000000 0.029918 0.184806
Si Si6 0.343757 0.715511 0.044013
O O1 0.689411 0.693806 0.636815
O O2 0.687034 0.433424 0.577059
O O3 0.655287 0.687732 0.525064
O O4 0.791399 0.643431 0.560842
O O5 0.924657 0.648007 0.179328
O O6 0.000000 0.478192 0.250000
O O7 0.000000 0.447640 0.129135
O O8 0.840850 0.805360 0.250000
O O9 0.926670 0.936968 0.329146
O O10 0.500000 0.676278 0.148648
O O11 0.427490 0.763290 0.058219
O O12 0.000000 0.085027 0.250000
#
# Coordination Sequence:
#
# PCOD8260514 Si02
#       6
#    16   8  16   8   8  16
#     4  10  21  43  59  87 121 160 192 250 293 366
#     4   9  21  36  56  88 129 158 189 253 305 343
#     4   9  18  37  61  83 114 162 201 236 296 357
#     4  12  21  37  58  98 110 155 203 248 280 361
#     4   9  17  32  57  84 116 151 190 242 294 343
#     4  10  24  38  65  85 126 155 195 241 314 335
#
# _framework density 19.537610999999998
#
# number of rings (size 3 to 8) (size 9 to 14) (size 15 to 20)
#    0.000    2.222    2.222    1.667    3.111    3.556 
#    0.000    4.444    0.000    0.000    0.000    0.000 
#    0.000    0.000    0.000    0.000    0.000    0.000 
#
# Total GULP energy -446196.095894 kJ/mol
# GULP energy per Si atom -12394.335997 kJ/mol
# Density = 1.949314 g / cm^3
# Si number density = 19.537611 Si / 1000 Ang^3
#
#
#
# Elastic Constant Matrix: (Units=GPa)
#
#
# Indices 1 2 3 4 5 6 
#
# 1 117.9012 37.5274 100.2982 0.0000 0.0000 0.0000
# 2 37.5274 70.9723 61.9350 0.0000 0.0000 0.0000
# 3 100.2982 61.9350 296.3157 0.0000 0.0000 0.0000
# 4 0.0000 0.0000 0.0000 27.5727 0.0000 0.0000
# 5 0.0000 0.0000 0.0000 0.0000 30.7716 0.0000
# 6 0.0000 0.0000 0.0000 0.0000 0.0000 33.7368
#
#
#
# Elastic Compliance Matrix: (Units=1/GPa)
#
#
# Indices 1 2 3 4 5 6 
#
# 1 0.012622 -0.003603 -0.003519 0.000000 0.000000 0.000000
# 2 -0.003603 0.018262 -0.002597 0.000000 0.000000 0.000000
# 3 -0.003519 -0.002597 0.005109 0.000000 0.000000 0.000000
# 4 0.000000 0.000000 0.000000 0.036268 0.000000 0.000000
# 5 0.000000 0.000000 0.000000 0.000000 0.032498 0.000000
# 6 0.000000 0.000000 0.000000 0.000000 0.000000 0.029641
#
#
# Mechanical properties :
#
#
# Convention : Reuss Voigt Hill
#
# Bulk Modulus (GPa) = 60.41022 98.30115 79.35568
# Shear Modulus (GPa) = 31.37604 37.44481 34.41042
#
# Velocity S-wave (km/s) = 4.01175 4.38259 4.20127
# Velocity P-wave (km/s) = 7.24196 8.71966 8.01494
#
# Compressibility (1/GPa) = 0.01655349
#
# Stress axis : x y z
#
# Youngs Moduli (GPa) = 79.22397 54.75896 195.73451
#
# Poissons Ratio (x) = 0.19730 0.68887
# Poissons Ratio (y) = 0.28544 0.50842
# Poissons Ratio (z) = 0.27882 0.14224
#
# Static dielectric constant tensor:
#      x y z
#    x 3.288090 0.000000 0.000000 
#    y 0.000000 3.434930 0.000000 
#    z 0.000000 0.000000 3.927400 
# 
# 
# High freq. dielectric constant tensor:
#      x y z
#    x 1.742440 0.000000 0.000000 
#    y 0.000000 1.757490 0.000000 
#    z 0.000000 0.000000 1.770500 
# 
# From -- ./inp_files/63541.got.cif
#   From: 2010.03.12/outbox.cif.g09.slc.cpg/sg63_32_cif.got.tgz:63541.got - 2010.04.10 19:34:48.
