data_PCOD8260559
_publ_section_title
;
Structure prediction by ZEFSAII (Michael W. Deem and Ramdas Pophale) SiO2 
 PCOD8260559
Probable space group: C M C M
;
_chemical_formula_sum "Si O2"
_cell_formula_units_Z 72
_cell_length_a 17.943388
_cell_length_b 23.343556
_cell_length_c 8.887285
_cell_angle_alpha 90.000000
_cell_angle_beta 90.000000
_cell_angle_gamma 90.000000
_cell_volume 3722.550259
_symmetry_space_group_name_H-M "C M C M"
_symmetry_group_IT_number 63
_symmetry_cell_setting 'orthorhombic'
loop_
_space_group_symop_operation_xyz
x,y,z
-x,-y,1/2+z
x,-y,-z
-x,y,1/2-z
-x,-y,-z
x,y,1/2-z
-x,y,z
x,-y,1/2+z
1/2+x,1/2+y,z
1/2-x,1/2-y,1/2+z
1/2+x,1/2-y,-z
1/2-x,1/2+y,1/2-z
1/2-x,1/2-y,-z
1/2+x,1/2+y,1/2-z
1/2-x,1/2+y,z
1/2+x,1/2-y,1/2+z
loop_
_atom_site_type_symbol
_atom_site_label
_atom_site_fract_x
_atom_site_fract_y
_atom_site_fract_z
Si Si1 0.500000 0.561851 0.072261
Si Si2 0.718639 0.939459 0.425578
Si Si3 0.633207 0.628553 0.924942
Si Si4 0.917615 0.366371 0.070718
Si Si5 0.086967 0.237898 0.077799
O O1 0.500000 0.555392 0.250000
O O2 0.500000 0.500000 0.000000
O O3 0.573495 0.595042 0.023380
O O4 0.709445 0.950169 0.250000
O O5 0.786087 0.896914 0.460911
O O6 0.643342 0.910818 0.492735
O O7 0.734385 0.000000 0.500000
O O8 0.612548 0.622796 0.750000
O O9 0.634018 0.694987 0.973355
O O10 0.917100 0.365501 0.250000
O O11 0.898473 0.302028 0.016324
O O12 0.000000 0.384620 0.012464
O O13 0.113734 0.231577 0.250000
O O14 0.000000 0.222326 0.065392
#
# Coordination Sequence:
#
# PCOD8260559 Si02
#       5
#     8  16  16  16  16
#     4  12  24  38  56  78 106 146 193 230 269 326
#     4  10  22  38  55  79 111 146 186 229 275 327
#     4  11  22  35  53  80 114 148 181 227 278 322
#     4   8  16  34  59  83 109 144 183 223 274 333
#     4   9  17  32  56  83 109 143 185 224 266 329
#
# _framework density 19.341577999999998
#
# number of rings (size 3 to 8) (size 9 to 14) (size 15 to 20)
#    0.000    2.222    1.111    3.667    0.000    4.889 
#    0.000    1.111    0.000    1.333    0.000    0.000 
#    0.000    0.000    0.000    0.000    0.000    0.000 
#
# Total GULP energy -446416.206354 kJ/mol
# GULP energy per Si atom -12400.450176 kJ/mol
# Density = 1.929756 g / cm^3
# Si number density = 19.341578 Si / 1000 Ang^3
#
#
#
# Elastic Constant Matrix: (Units=GPa)
#
#
# Indices 1 2 3 4 5 6 
#
# 1 100.6740 35.2324 39.3792 0.0000 0.0000 0.0000
# 2 35.2324 74.0912 29.2834 0.0000 0.0000 0.0000
# 3 39.3792 29.2834 66.7371 0.0000 0.0000 0.0000
# 4 0.0000 0.0000 0.0000 20.2155 0.0000 0.0000
# 5 0.0000 0.0000 0.0000 0.0000 10.6892 0.0000
# 6 0.0000 0.0000 0.0000 0.0000 0.0000 -17.7461
#
#
#
# Elastic Compliance Matrix: (Units=1/GPa)
#
#
# Indices 1 2 3 4 5 6 
#
# 1 0.013855 -0.004062 -0.006393 0.000000 0.000000 0.000000
# 2 -0.004062 0.017519 -0.005291 0.000000 0.000000 0.000000
# 3 -0.006393 -0.005291 0.021078 0.000000 0.000000 0.000000
# 4 0.000000 0.000000 0.000000 0.049467 0.000000 0.000000
# 5 0.000000 0.000000 0.000000 0.000000 0.093552 0.000000
# 6 0.000000 0.000000 0.000000 0.000000 0.000000 -0.056351
#
#
# Mechanical properties :
#
#
# Convention : Reuss Voigt Hill
#
# Bulk Modulus (GPa) = 47.70649 49.92138 48.81394
# Shear Modulus (GPa) = 28.15323 11.80556 19.97940
#
# Velocity S-wave (km/s) = 3.81935 2.47325 3.21748
# Velocity P-wave (km/s) = 6.64595 5.83287 6.25264
#
# Compressibility (1/GPa) = 0.02096151
#
# Stress axis : x y z
#
# Youngs Moduli (GPa) = 72.17467 57.07971 47.44270
#
# Poissons Ratio (x) = 0.23184 0.30331
# Poissons Ratio (y) = 0.29315 0.25100
# Poissons Ratio (z) = 0.46143 0.30199
#
# Static dielectric constant tensor:
#      x y z
#    x 3.681470 0.000000 0.000000 
#    y 0.000000 3.815760 0.000000 
#    z 0.000000 0.000000 3.493300 
# 
# 
# High freq. dielectric constant tensor:
#      x y z
#    x 1.751920 0.000000 0.000000 
#    y 0.000000 1.763470 0.000000 
#    z 0.000000 0.000000 1.726540 
# 
# From -- ./inp_files/6117.got.cif
#   From: 2010.03.12/outbox.cif.g09.slc.cpg/sg63_4_cif.got.tgz:6117.got - 2010.04.10 19:34:48.
