data_PCOD8260614
_publ_section_title
;
Structure prediction by ZEFSAII (Michael W. Deem and Ramdas Pophale) SiO2 
 PCOD8260614
Probable space group: C M C M
;
_chemical_formula_sum "Si O2"
_cell_formula_units_Z 80
_cell_length_a 13.200894
_cell_length_b 17.856454
_cell_length_c 18.283145
_cell_angle_alpha 90.000000
_cell_angle_beta 90.000000
_cell_angle_gamma 90.000000
_cell_volume 4309.724083
_symmetry_space_group_name_H-M "C M C M"
_symmetry_group_IT_number 63
_symmetry_cell_setting 'orthorhombic'
loop_
_space_group_symop_operation_xyz
x,y,z
-x,-y,1/2+z
x,-y,-z
-x,y,1/2-z
-x,-y,-z
x,y,1/2-z
-x,y,z
x,-y,1/2+z
1/2+x,1/2+y,z
1/2-x,1/2-y,1/2+z
1/2+x,1/2-y,-z
1/2-x,1/2+y,1/2-z
1/2-x,1/2-y,-z
1/2+x,1/2+y,1/2-z
1/2-x,1/2+y,z
1/2+x,1/2-y,1/2+z
loop_
_atom_site_type_symbol
_atom_site_label
_atom_site_fract_x
_atom_site_fract_y
_atom_site_fract_z
Si Si1 0.616921 0.051914 0.070004
Si Si2 0.116132 0.274587 0.164740
Si Si3 0.221699 0.180487 0.048517
Si Si4 0.383881 0.430614 0.048222
Si Si5 0.785211 0.568266 0.664308
O O1 0.500000 0.075772 0.078228
O O2 0.681916 0.127421 0.062492
O O3 0.650399 0.004427 0.140927
O O4 0.635181 0.000000 0.000000
O O5 0.130796 0.260326 0.250000
O O6 0.179343 0.209272 0.125721
O O7 0.153201 0.357297 0.142598
O O8 0.000000 0.268822 0.140496
O O9 0.250000 0.250000 0.000000
O O10 0.132821 0.140615 0.003252
O O11 0.500000 0.437286 0.071487
O O12 0.321855 0.428491 0.123300
O O13 0.346124 0.500000 0.000000
O O14 0.763228 0.563465 0.750000
#
# Coordination Sequence:
#
# PCOD8260614 Si02
#       5
#    16  16  16  16  16
#     4  11  22  39  63  89 116 151 199 250 295 345
#     4  10  22  39  60  88 121 158 198 244 300 357
#     4  12  21  38  61  90 120 157 194 243 299 356
#     4  11  22  40  61  84 115 154 200 245 291 349
#     4  11  21  40  64  87 119 157 200 248 297 353
#
# _framework density 18.562673
#
# number of rings (size 3 to 8) (size 9 to 14) (size 15 to 20)
#    0.000    1.000    6.000    1.200    0.000    5.600 
#    0.000    0.000    0.000    0.000    0.000    0.000 
#    0.000    0.000    0.000    0.000    0.000    0.000 
#
# Total GULP energy -496134.475841 kJ/mol
# GULP energy per Si atom -12403.361896 kJ/mol
# Density = 1.852042 g / cm^3
# Si number density = 18.562673 Si / 1000 Ang^3
#
#
#
# Elastic Constant Matrix: (Units=GPa)
#
#
# Indices 1 2 3 4 5 6 
#
# 1 135.7585 64.2188 62.6061 0.0000 0.0000 0.0000
# 2 64.2188 133.4394 59.2453 0.0000 0.0000 0.0000
# 3 62.6061 59.2453 103.6496 0.0000 0.0000 0.0000
# 4 0.0000 0.0000 0.0000 37.5228 0.0000 0.0000
# 5 0.0000 0.0000 0.0000 0.0000 31.4162 0.0000
# 6 0.0000 0.0000 0.0000 0.0000 0.0000 31.9114
#
#
#
# Elastic Compliance Matrix: (Units=1/GPa)
#
#
# Indices 1 2 3 4 5 6 
#
# 1 0.011133 -0.003179 -0.004907 0.000000 0.000000 0.000000
# 2 -0.003179 0.010950 -0.004339 0.000000 0.000000 0.000000
# 3 -0.004907 -0.004339 0.015092 0.000000 0.000000 0.000000
# 4 0.000000 0.000000 0.000000 0.026650 0.000000 0.000000
# 5 0.000000 0.000000 0.000000 0.000000 0.031831 0.000000
# 6 0.000000 0.000000 0.000000 0.000000 0.000000 0.031337
#
#
# Mechanical properties :
#
#
# Convention : Reuss Voigt Hill
#
# Bulk Modulus (GPa) = 81.13762 82.77642 81.95702
# Shear Modulus (GPa) = 32.06108 32.62189 32.34149
#
# Velocity S-wave (km/s) = 4.16044 4.19667 4.17860
# Velocity P-wave (km/s) = 8.17827 8.25666 8.21756
#
# Compressibility (1/GPa) = 0.01232474
#
# Stress axis : x y z
#
# Youngs Moduli (GPa) = 89.82416 91.32074 66.25961
#
# Poissons Ratio (x) = 0.29031 0.32516
# Poissons Ratio (y) = 0.28555 0.28750
# Poissons Ratio (z) = 0.44080 0.39624
#
# Static dielectric constant tensor:
#      x y z
#    x 3.795160 0.000000 0.000000 
#    y 0.000000 3.609650 0.000000 
#    z 0.000000 0.000000 3.378410 
# 
# 
# High freq. dielectric constant tensor:
#      x y z
#    x 1.728970 0.000000 0.000000 
#    y 0.000000 1.727430 0.000000 
#    z 0.000000 0.000000 1.719820 
# 
# From -- ./inp_files/43982.got.cif
#   From: 2010.03.12/outbox.cif.g09.slc.cpg/sg63_22_cif.got.tgz:43982.got - 2010.04.10 19:34:48.
