data_PCOD8260502
_publ_section_title
;
Structure prediction by ZEFSAII (Michael W. Deem and Ramdas Pophale) SiO2 
 PCOD8260502
Probable space group: C M C M
;
_chemical_formula_sum "Si O2"
_cell_formula_units_Z 96
_cell_length_a 17.463284
_cell_length_b 11.510507
_cell_length_c 21.830106
_cell_angle_alpha 90.000000
_cell_angle_beta 90.000000
_cell_angle_gamma 90.000000
_cell_volume 4388.096954
_symmetry_space_group_name_H-M "C M C M"
_symmetry_group_IT_number 63
_symmetry_cell_setting 'orthorhombic'
loop_
_space_group_symop_operation_xyz
x,y,z
-x,-y,1/2+z
x,-y,-z
-x,y,1/2-z
-x,-y,-z
x,y,1/2-z
-x,y,z
x,-y,1/2+z
1/2+x,1/2+y,z
1/2-x,1/2-y,1/2+z
1/2+x,1/2-y,-z
1/2-x,1/2+y,1/2-z
1/2-x,1/2-y,-z
1/2+x,1/2+y,1/2-z
1/2-x,1/2+y,z
1/2+x,1/2-y,1/2+z
loop_
_atom_site_type_symbol
_atom_site_label
_atom_site_fract_x
_atom_site_fract_y
_atom_site_fract_z
Si Si1 0.831334 0.007124 0.428635
Si Si2 0.084366 0.365726 0.956991
Si Si3 0.592266 0.749611 0.419472
Si Si4 0.167892 0.532544 0.622913
Si Si5 0.198142 0.455097 0.750000
Si Si6 0.197956 0.811126 0.250000
Si Si7 0.916183 0.175316 0.860411
O O1 0.862920 0.131251 0.407264
O O2 0.811101 0.000000 0.500000
O O3 0.758942 0.969683 0.387384
O O4 0.899141 0.918811 0.413142
O O5 0.132649 0.479520 0.939850
O O6 0.083922 0.297825 0.893590
O O7 0.000000 0.407358 0.975693
O O8 0.117651 0.289521 0.012384
O O9 0.500000 0.737824 0.411255
O O10 0.630011 0.839713 0.371225
O O11 0.149122 0.465697 0.687002
O O12 0.235004 0.322133 0.750000
O O13 0.248109 0.575212 0.750000
O O14 0.146402 0.824456 0.308860
O O15 0.000000 0.149374 0.832342
#
# Coordination Sequence:
#
# PCOD8260502 Si02
#       7
#    16  16  16  16   8   8  16
#     4  12  25  40  69 104 139 174 225 282 345 418
#     4  10  21  41  68  97 134 177 219 271 338 411
#     4  11  25  44  68 100 144 183 218 277 356 421
#     4  12  26  43  66  99 135 177 233 281 345 408
#     4  12  28  44  74  96 138 177 237 296 350 398
#     4  12  25  50  66 100 131 187 233 290 343 412
#     4  11  23  41  68  98 132 176 228 276 331 411
#
# _framework density 21.877365000000001
#
# number of rings (size 3 to 8) (size 9 to 14) (size 15 to 20)
#    0.000    0.667    5.000    2.750    4.667    3.333 
#    0.000    1.667    0.000    0.000    0.000    0.000 
#    0.000    0.000    0.000    0.000    0.000    0.000 
#
# Total GULP energy -594739.770719 kJ/mol
# GULP energy per Si atom -12390.411890 kJ/mol
# Density = 2.182757 g / cm^3
# Si number density = 21.877365 Si / 1000 Ang^3
#
#
#
# Elastic Constant Matrix: (Units=GPa)
#
#
# Indices 1 2 3 4 5 6 
#
# 1 79.0681 40.8069 7.3360 0.0000 0.0000 0.0000
# 2 40.8069 126.4549 10.9422 0.0000 0.0000 0.0000
# 3 7.3360 10.9422 78.0917 0.0000 0.0000 0.0000
# 4 0.0000 0.0000 0.0000 34.0725 0.0000 0.0000
# 5 0.0000 0.0000 0.0000 0.0000 -101.0183 0.0000
# 6 0.0000 0.0000 0.0000 0.0000 0.0000 14.5584
#
#
#
# Elastic Compliance Matrix: (Units=1/GPa)
#
#
# Indices 1 2 3 4 5 6 
#
# 1 0.015218 -0.004846 -0.000751 0.000000 0.000000 0.000000
# 2 -0.004846 0.009548 -0.000883 0.000000 0.000000 0.000000
# 3 -0.000751 -0.000883 0.013000 0.000000 0.000000 0.000000
# 4 0.000000 0.000000 0.000000 0.029349 0.000000 0.000000
# 5 0.000000 0.000000 0.000000 0.000000 -0.009899 0.000000
# 6 0.000000 0.000000 0.000000 0.000000 0.000000 0.068689
#
#
# Mechanical properties :
#
#
# Convention : Reuss Voigt Hill
#
# Bulk Modulus (GPa) = 40.31047 44.64277 42.47662
# Shear Modulus (GPa) = 33.98309 4.49115 19.23712
#
# Velocity S-wave (km/s) = 3.94553 1.43434 2.96854
# Velocity P-wave (km/s) = 6.26274 4.81595 5.58638
#
# Compressibility (1/GPa) = 0.02480745
#
# Stress axis : x y z
#
# Youngs Moduli (GPa) = 65.71208 104.73299 76.92512
#
# Poissons Ratio (x) = 0.50752 0.05774
# Poissons Ratio (y) = 0.31843 0.06790
# Poissons Ratio (z) = 0.04932 0.09244
#
# Static dielectric constant tensor:
#      x y z
#    x 3.890880 0.000000 0.000000 
#    y 0.000000 4.201630 0.000000 
#    z 0.000000 0.000000 4.053820 
# 
# 
# High freq. dielectric constant tensor:
#      x y z
#    x 1.844150 0.000000 0.000000 
#    y 0.000000 1.879230 0.000000 
#    z 0.000000 0.000000 1.865130 
# 
# From -- ./inp_files/63762.got.cif
#   From: 2010.03.12/outbox.cif.g09.slc.cpg/sg63_32_cif.got.tgz:63762.got - 2010.04.10 19:34:48.
