data_PCOD8260526
_publ_section_title
;
Structure prediction by ZEFSAII (Michael W. Deem and Ramdas Pophale) SiO2 
 PCOD8260526
Probable space group: C M C M
;
_chemical_formula_sum "Si O2"
_cell_formula_units_Z 112
_cell_length_a 13.256372
_cell_length_b 13.286328
_cell_length_c 31.449694
_cell_angle_alpha 90.000000
_cell_angle_beta 90.000000
_cell_angle_gamma 90.000000
_cell_volume 5539.187634
_symmetry_space_group_name_H-M "C M C M"
_symmetry_group_IT_number 63
_symmetry_cell_setting 'orthorhombic'
loop_
_space_group_symop_operation_xyz
x,y,z
-x,-y,1/2+z
x,-y,-z
-x,y,1/2-z
-x,-y,-z
x,y,1/2-z
-x,y,z
x,-y,1/2+z
1/2+x,1/2+y,z
1/2-x,1/2-y,1/2+z
1/2+x,1/2-y,-z
1/2-x,1/2+y,1/2-z
1/2-x,1/2-y,-z
1/2+x,1/2+y,1/2-z
1/2-x,1/2+y,z
1/2+x,1/2-y,1/2+z
loop_
_atom_site_type_symbol
_atom_site_label
_atom_site_fract_x
_atom_site_fract_y
_atom_site_fract_z
Si Si1 0.115007 0.669321 0.298324
Si Si2 0.617083 0.179076 0.930256
Si Si3 0.616860 0.223023 0.024558
Si Si4 0.112260 0.433684 0.298544
Si Si5 0.758512 0.190648 0.856565
Si Si6 0.296243 0.975111 0.951205
Si Si7 0.884876 0.081309 0.578959
O O1 0.138168 0.704317 0.250000
O O2 0.131620 0.551433 0.302620
O O3 0.192759 0.717744 0.331195
O O4 0.000000 0.698684 0.310084
O O5 0.500000 0.204257 0.923285
O O6 0.684344 0.232156 0.893778
O O7 0.636265 0.058178 0.926112
O O8 0.658395 0.220572 0.975900
O O9 0.500000 0.194020 0.022680
O O10 0.667230 0.139394 0.055692
O O11 0.634571 0.332921 0.043549
O O12 0.121726 0.398930 0.250000
O O13 0.195893 0.377135 0.324769
O O14 0.000000 0.407023 0.315601
O O15 0.849198 0.123270 0.875669
O O16 0.180267 0.984836 0.935593
O O17 0.309981 0.000000 0.000000
O O18 0.000000 0.046626 0.581530
#
# Coordination Sequence:
#
# PCOD8260526 Si02
#       7
#    16  16  16  16  16  16  16
#     4   9  19  37  60  83 106 137 177 214 254 314
#     4   9  18  31  49  77 109 139 176 222 270 316
#     4   9  18  36  57  74 100 142 188 230 267 307
#     4   9  19  37  60  84 108 135 170 213 262 318
#     4  11  20  31  54  83 112 138 171 217 269 316
#     4   9  18  31  53  75  97 131 180 228 266 305
#     4  10  22  36  51  75 107 143 183 223 264 313
#
# _framework density 20.219570999999998
#
# number of rings (size 3 to 8) (size 9 to 14) (size 15 to 20)
#    0.000    2.571    0.000    2.571    0.000    9.429 
#    0.000    4.286    0.000   15.429    0.000   10.000 
#    0.000    0.000    0.000    0.000    0.000    0.000 
#
# Total GULP energy -694335.832911 kJ/mol
# GULP energy per Si atom -12398.854159 kJ/mol
# Density = 2.017355 g / cm^3
# Si number density = 20.219571 Si / 1000 Ang^3
#
#
#
# Elastic Constant Matrix: (Units=GPa)
#
#
# Indices 1 2 3 4 5 6 
#
# 1 107.4549 28.0778 52.1903 0.0000 0.0000 0.0000
# 2 28.0778 39.0251 33.8328 0.0000 0.0000 0.0000
# 3 52.1903 33.8328 86.9866 0.0000 0.0000 0.0000
# 4 0.0000 0.0000 0.0000 -485.9929 0.0000 0.0000
# 5 0.0000 0.0000 0.0000 0.0000 40.4702 0.0000
# 6 0.0000 0.0000 0.0000 0.0000 0.0000 29.1106
#
#
#
# Elastic Compliance Matrix: (Units=1/GPa)
#
#
# Indices 1 2 3 4 5 6 
#
# 1 0.013550 -0.004075 -0.006545 0.000000 0.000000 0.000000
# 2 -0.004075 0.039886 -0.013069 0.000000 0.000000 0.000000
# 3 -0.006545 -0.013069 0.020506 0.000000 0.000000 0.000000
# 4 0.000000 0.000000 0.000000 -0.002058 0.000000 0.000000
# 5 0.000000 0.000000 0.000000 0.000000 0.024710 0.000000
# 6 0.000000 0.000000 0.000000 0.000000 0.000000 0.034352
#
#
# Mechanical properties :
#
#
# Convention : Reuss Voigt Hill
#
# Bulk Modulus (GPa) = 37.64319 51.29648 44.46983
# Shear Modulus (GPa) = 26.71277 -75.32471 -24.30597
#
# Velocity S-wave (km/s) = 3.63868 -6.11018 -3.47089
# Velocity P-wave (km/s) = 6.02586 4.93500 2.44508
#
# Compressibility (1/GPa) = 0.02656523
#
# Stress axis : x y z
#
# Youngs Moduli (GPa) = 73.80240 25.07140 48.76701
#
# Poissons Ratio (x) = 0.10216 0.31917
# Poissons Ratio (y) = 0.30073 0.63732
# Poissons Ratio (z) = 0.48301 0.32765
#
# Static dielectric constant tensor:
#      x y z
#    x 3.830960 0.000000 0.000000 
#    y 0.000000 3.486800 0.000000 
#    z 0.000000 0.000000 3.774690 
# 
# 
# High freq. dielectric constant tensor:
#      x y z
#    x 1.802020 0.000000 0.000000 
#    y 0.000000 1.765600 0.000000 
#    z 0.000000 0.000000 1.785800 
# 
# From -- ./inp_files/73422.got.cif
#   From: 2010.03.12/outbox.cif.g09.slc.cpg/sg63_37_cif.got.tgz:73422.got - 2010.04.10 19:34:48.
