data_PCOD8260579
_publ_section_title
;
Structure prediction by ZEFSAII (Michael W. Deem and Ramdas Pophale) SiO2 
 PCOD8260579
Probable space group: C M C M
;
_chemical_formula_sum "Si O2"
_cell_formula_units_Z 96
_cell_length_a 20.367685
_cell_length_b 15.897913
_cell_length_c 14.595555
_cell_angle_alpha 90.000000
_cell_angle_beta 90.000000
_cell_angle_gamma 90.000000
_cell_volume 4726.094481
_symmetry_space_group_name_H-M "C M C M"
_symmetry_group_IT_number 63
_symmetry_cell_setting 'orthorhombic'
loop_
_space_group_symop_operation_xyz
x,y,z
-x,-y,1/2+z
x,-y,-z
-x,y,1/2-z
-x,-y,-z
x,y,1/2-z
-x,y,z
x,-y,1/2+z
1/2+x,1/2+y,z
1/2-x,1/2-y,1/2+z
1/2+x,1/2-y,-z
1/2-x,1/2+y,1/2-z
1/2-x,1/2-y,-z
1/2+x,1/2+y,1/2-z
1/2-x,1/2+y,z
1/2+x,1/2-y,1/2+z
loop_
_atom_site_type_symbol
_atom_site_label
_atom_site_fract_x
_atom_site_fract_y
_atom_site_fract_z
Si Si1 0.500000 0.640971 0.144272
Si Si2 0.250885 0.902450 0.509054
Si Si3 0.427823 0.222643 0.150013
Si Si4 0.636261 0.567076 0.357303
Si Si5 0.397612 0.099879 0.999042
Si Si6 0.160784 0.125214 0.644428
Si Si7 0.500000 0.838135 0.357673
O O1 0.500000 0.615490 0.250000
O O2 0.432323 0.603450 0.102500
O O3 0.500000 0.739272 0.127525
O O4 0.198518 0.888460 0.591766
O O5 0.323789 0.863949 0.516910
O O6 0.225719 0.861678 0.415074
O O7 0.263318 0.000000 0.500000
O O8 0.400293 0.194172 0.250000
O O9 0.500000 0.260036 0.161438
O O10 0.433772 0.141714 0.084842
O O11 0.388051 0.302110 0.111239
O O12 0.645713 0.587005 0.250000
O O13 0.632144 0.467402 0.377148
O O14 0.433061 0.127780 0.904679
O O15 0.403186 0.000000 0.000000
O O16 0.180176 0.133871 0.750000
O O17 0.500000 0.862846 0.250000
#
# Coordination Sequence:
#
# PCOD8260579 Si02
#       7
#     8  16  16  16  16  16   8
#     4   9  20  37  57  87 123 158 196 234 279 346
#     4   9  20  37  58  87 117 153 197 240 292 355
#     4  10  22  38  59  88 120 150 192 248 299 352
#     4   9  18  35  60  89 125 162 196 234 285 357
#     4  11  24  43  64  84 113 153 201 257 310 355
#     4   9  19  36  57  87 123 157 191 231 289 355
#     4  11  25  43  61  88 117 151 199 253 308 362
#
# _framework density 20.312754999999999
#
# number of rings (size 3 to 8) (size 9 to 14) (size 15 to 20)
#    0.000    2.333    0.833    0.250    3.500    2.667 
#    0.000    4.583    0.000    0.000    0.000    0.000 
#    0.000    0.000    0.000    0.000    0.000    0.000 
#
# Total GULP energy -594687.658777 kJ/mol
# GULP energy per Si atom -12389.326225 kJ/mol
# Density = 2.026652 g / cm^3
# Si number density = 20.312755 Si / 1000 Ang^3
#
#
#
# Elastic Constant Matrix: (Units=GPa)
#
#
# Indices 1 2 3 4 5 6 
#
# 1 154.9879 37.5721 53.9420 0.0000 0.0000 0.0000
# 2 37.5721 81.4564 49.3362 0.0000 0.0000 0.0000
# 3 53.9420 49.3362 100.7016 0.0000 0.0000 0.0000
# 4 0.0000 0.0000 0.0000 28.5033 0.0000 0.0000
# 5 0.0000 0.0000 0.0000 0.0000 27.6519 0.0000
# 6 0.0000 0.0000 0.0000 0.0000 0.0000 -25.1769
#
#
#
# Elastic Compliance Matrix: (Units=1/GPa)
#
#
# Indices 1 2 3 4 5 6 
#
# 1 0.008069 -0.001570 -0.003553 0.000000 0.000000 0.000000
# 2 -0.001570 0.017762 -0.007861 0.000000 0.000000 0.000000
# 3 -0.003553 -0.007861 0.015685 0.000000 0.000000 0.000000
# 4 0.000000 0.000000 0.000000 0.035084 0.000000 0.000000
# 5 0.000000 0.000000 0.000000 0.000000 0.036164 0.000000
# 6 0.000000 0.000000 0.000000 0.000000 0.000000 -0.039719
#
#
# Mechanical properties :
#
#
# Convention : Reuss Voigt Hill
#
# Bulk Modulus (GPa) = 64.31794 68.76074 66.53934
# Shear Modulus (GPa) = 47.98647 19.28203 33.63425
#
# Velocity S-wave (km/s) = 4.86571 3.08434 4.07359
# Velocity P-wave (km/s) = 7.95609 6.82706 7.41310
#
# Compressibility (1/GPa) = 0.01554776
#
# Stress axis : x y z
#
# Youngs Moduli (GPa) = 123.92513 56.30040 63.75500
#
# Poissons Ratio (x) = 0.08838 0.22654
# Poissons Ratio (y) = 0.19454 0.50118
# Poissons Ratio (z) = 0.44035 0.44258
#
# Static dielectric constant tensor:
#      x y z
#    x 4.047530 0.000000 0.000000 
#    y 0.000000 3.497080 0.000000 
#    z 0.000000 0.000000 3.742440 
# 
# 
# High freq. dielectric constant tensor:
#      x y z
#    x 1.800860 0.000000 0.000000 
#    y 0.000000 1.784520 0.000000 
#    z 0.000000 0.000000 1.792430 
# 
# From -- ./inp_files/35421.got.cif
#   From: 2010.03.12/outbox.cif.g09.slc.cpg/sg63_18_cif.got.tgz:35421.got - 2010.04.10 19:34:48.
