data_PCOD8260302
_publ_section_title
;
Structure prediction by ZEFSAII (Michael W. Deem and Ramdas Pophale) SiO2 
 PCOD8260302
Probable space group: C M C M
;
_chemical_formula_sum "Si O2"
_cell_formula_units_Z 112
_cell_length_a 13.164704
_cell_length_b 27.759863
_cell_length_c 15.083543
_cell_angle_alpha 90.000000
_cell_angle_beta 90.000000
_cell_angle_gamma 90.000000
_cell_volume 5512.286513
_symmetry_space_group_name_H-M "C M C M"
_symmetry_group_IT_number 63
_symmetry_cell_setting 'orthorhombic'
loop_
_space_group_symop_operation_xyz
x,y,z
-x,-y,1/2+z
x,-y,-z
-x,y,1/2-z
-x,-y,-z
x,y,1/2-z
-x,y,z
x,-y,1/2+z
1/2+x,1/2+y,z
1/2-x,1/2-y,1/2+z
1/2+x,1/2-y,-z
1/2-x,1/2+y,1/2-z
1/2-x,1/2-y,-z
1/2+x,1/2+y,1/2-z
1/2-x,1/2+y,z
1/2+x,1/2-y,1/2+z
loop_
_atom_site_type_symbol
_atom_site_label
_atom_site_fract_x
_atom_site_fract_y
_atom_site_fract_z
Si Si1 0.384383 0.015390 0.601335
Si Si2 0.215092 0.213134 0.426989
Si Si3 0.250650 0.931370 0.849872
Si Si4 0.119953 0.885562 0.991185
Si Si5 0.230756 0.609588 0.855226
Si Si6 0.389134 0.846143 0.646127
Si Si7 0.110284 0.700870 0.851636
O O1 0.500000 0.007455 0.635990
O O2 0.354315 0.070400 0.619593
O O3 0.376256 0.000000 0.500000
O O4 0.300796 0.984007 0.653607
O O5 0.250000 0.250000 0.500000
O O6 0.149367 0.168248 0.460978
O O7 0.318998 0.198277 0.379739
O O8 0.147849 0.244199 0.359244
O O9 0.214015 0.918047 0.750000
O O10 0.338148 0.895689 0.886092
O O11 0.156490 0.924782 0.917397
O O12 0.167579 0.898900 0.087110
O O13 0.000000 0.889937 0.000872
O O14 0.256770 0.609030 0.750000
O O15 0.187355 0.660964 0.890918
O O16 0.402728 0.847123 0.750000
O O17 0.500000 0.841183 0.600788
O O18 0.098367 0.687304 0.750000
O O19 0.000000 0.696225 0.898439
#
# Coordination Sequence:
#
# PCOD8260302 Si02
#       7
#    16  16  16  16  16  16  16
#     4  11  22  38  66  99 129 163 201 249 312 370
#     4  11  21  37  57  85 118 154 199 248 299 359
#     4  10  21  40  64  92 125 157 196 249 309 370
#     4  11  24  43  63  90 124 161 209 260 309 363
#     4  11  23  42  63  90 126 164 210 255 304 369
#     4   9  19  35  56  83 115 150 187 235 295 357
#     4  10  21  38  60  86 119 158 199 248 305 367
#
# _framework density 20.318249000000002
#
# number of rings (size 3 to 8) (size 9 to 14) (size 15 to 20)
#    0.000    1.571    2.857    2.143    0.000    4.571 
#    0.000    1.429    0.000    1.714    0.000    0.000 
#    0.000    0.000    0.000    0.000    0.000    0.000 
#
# Total GULP energy -694243.413211 kJ/mol
# GULP energy per Si atom -12397.203807 kJ/mol
# Density = 2.027200 g / cm^3
# Si number density = 20.318249 Si / 1000 Ang^3
#
#
#
# Elastic Constant Matrix: (Units=GPa)
#
#
# Indices 1 2 3 4 5 6 
#
# 1 151.7854 31.4109 42.1500 0.0000 0.0000 0.0000
# 2 31.4109 92.6156 17.3859 0.0000 0.0000 0.0000
# 3 42.1500 17.3859 73.2135 0.0000 0.0000 0.0000
# 4 0.0000 0.0000 0.0000 29.3092 0.0000 0.0000
# 5 0.0000 0.0000 0.0000 0.0000 19.9142 0.0000
# 6 0.0000 0.0000 0.0000 0.0000 0.0000 27.6271
#
#
#
# Elastic Compliance Matrix: (Units=1/GPa)
#
#
# Indices 1 2 3 4 5 6 
#
# 1 0.008174 -0.001977 -0.004236 0.000000 0.000000 0.000000
# 2 -0.001977 0.011779 -0.001659 0.000000 0.000000 0.000000
# 3 -0.004236 -0.001659 0.016492 0.000000 0.000000 0.000000
# 4 0.000000 0.000000 0.000000 0.034119 0.000000 0.000000
# 5 0.000000 0.000000 0.000000 0.000000 0.050216 0.000000
# 6 0.000000 0.000000 0.000000 0.000000 0.000000 0.036196
#
#
# Mechanical properties :
#
#
# Convention : Reuss Voigt Hill
#
# Bulk Modulus (GPa) = 48.30915 55.50089 51.90502
# Shear Modulus (GPa) = 27.83656 30.48127 29.15892
#
# Velocity S-wave (km/s) = 3.70540 3.87743 3.79239
# Velocity P-wave (km/s) = 6.49111 6.88630 6.69162
#
# Compressibility (1/GPa) = 0.02070001
#
# Stress axis : x y z
#
# Youngs Moduli (GPa) = 122.34287 84.89515 60.63716
#
# Poissons Ratio (x) = 0.16783 0.25688
# Poissons Ratio (y) = 0.24186 0.10060
# Poissons Ratio (z) = 0.51828 0.14085
#
# Static dielectric constant tensor:
#      x y z
#    x 3.874610 0.000000 0.000000 
#    y 0.000000 3.698200 0.000000 
#    z 0.000000 0.000000 3.669310 
# 
# 
# High freq. dielectric constant tensor:
#      x y z
#    x 1.782920 0.000000 0.000000 
#    y 0.000000 1.796090 0.000000 
#    z 0.000000 0.000000 1.798230 
# 
# From -- ./inp_files/30413.got.cif
#   From: 2010.03.12/outbox.cif.g09.slc.cpg/sg63_16_cif.got.tgz:30413.got - 2010.04.10 19:34:48.
