data_PCOD8260264
_publ_section_title
;
Structure prediction by ZEFSAII (Michael W. Deem and Ramdas Pophale) SiO2 
 PCOD8260264
Probable space group: C M C M
;
_chemical_formula_sum "Si O2"
_cell_formula_units_Z 80
_cell_length_a 28.528734
_cell_length_b 9.207571
_cell_length_c 14.266525
_cell_angle_alpha 90.000000
_cell_angle_beta 90.000000
_cell_angle_gamma 90.000000
_cell_volume 3747.535692
_symmetry_space_group_name_H-M "C M C M"
_symmetry_group_IT_number 63
_symmetry_cell_setting 'orthorhombic'
loop_
_space_group_symop_operation_xyz
x,y,z
-x,-y,1/2+z
x,-y,-z
-x,y,1/2-z
-x,-y,-z
x,y,1/2-z
-x,y,z
x,-y,1/2+z
1/2+x,1/2+y,z
1/2-x,1/2-y,1/2+z
1/2+x,1/2-y,-z
1/2-x,1/2+y,1/2-z
1/2-x,1/2-y,-z
1/2+x,1/2+y,1/2-z
1/2-x,1/2+y,z
1/2+x,1/2-y,1/2+z
loop_
_atom_site_type_symbol
_atom_site_label
_atom_site_fract_x
_atom_site_fract_y
_atom_site_fract_z
Si Si1 0.805832 0.652837 0.138750
Si Si2 0.101894 0.344512 0.978355
Si Si3 0.872643 0.139544 0.145534
Si Si4 0.948428 0.921533 0.401650
Si Si5 0.782790 0.024855 0.859999
O O1 0.816023 0.644388 0.250000
O O2 0.851990 0.617728 0.080864
O O3 0.766889 0.536799 0.105925
O O4 0.786295 0.809532 0.108419
O O5 0.068316 0.244629 0.914919
O O6 0.077431 0.500000 0.000000
O O7 0.111800 0.268237 0.077798
O O8 0.863553 0.204027 0.250000
O O9 0.826173 0.068408 0.098927
O O10 0.911400 0.012364 0.159054
O O11 0.000000 0.919617 0.353739
O O12 0.951731 0.000000 0.500000
O O13 0.787348 0.009426 0.750000
#
# Coordination Sequence:
#
# PCOD8260264 Si02
#       5
#    16  16  16  16  16
#     4  10  21  38  58  84 122 165 208 254 305 363
#     4  11  24  38  57  93 126 163 203 246 311 372
#     4  10  21  40  61  86 121 160 209 260 302 360
#     4   9  19  39  65  87 113 151 199 252 304 361
#     4   9  19  35  57  83 116 159 203 252 305 353
#
# _framework density 21.347362
#
# number of rings (size 3 to 8) (size 9 to 14) (size 15 to 20)
#    0.000    2.200    2.000    0.000    2.800    2.400 
#    0.000    0.000    0.000    0.000    0.000    2.800 
#    0.000    0.000    0.000    0.000    0.000    0.000 
#
# Total GULP energy -495902.870433 kJ/mol
# GULP energy per Si atom -12397.571761 kJ/mol
# Density = 2.129877 g / cm^3
# Si number density = 21.347362 Si / 1000 Ang^3
#
#
#
# Elastic Constant Matrix: (Units=GPa)
#
#
# Indices 1 2 3 4 5 6 
#
# 1 104.0329 13.5059 4.1864 0.0000 0.0000 0.0000
# 2 13.5059 113.8381 10.2082 0.0000 0.0000 0.0000
# 3 4.1864 10.2082 61.8790 0.0000 0.0000 0.0000
# 4 0.0000 0.0000 0.0000 21.9485 0.0000 0.0000
# 5 0.0000 0.0000 0.0000 0.0000 19.0883 0.0000
# 6 0.0000 0.0000 0.0000 0.0000 0.0000 27.2864
#
#
#
# Elastic Compliance Matrix: (Units=1/GPa)
#
#
# Indices 1 2 3 4 5 6 
#
# 1 0.009777 -0.001117 -0.000477 0.000000 0.000000 0.000000
# 2 -0.001117 0.009044 -0.001416 0.000000 0.000000 0.000000
# 3 -0.000477 -0.001416 0.016427 0.000000 0.000000 0.000000
# 4 0.000000 0.000000 0.000000 0.045561 0.000000 0.000000
# 5 0.000000 0.000000 0.000000 0.000000 0.052388 0.000000
# 6 0.000000 0.000000 0.000000 0.000000 0.000000 0.036648
#
#
# Mechanical properties :
#
#
# Convention : Reuss Voigt Hill
#
# Bulk Modulus (GPa) = 34.21644 37.28344 35.74994
# Shear Modulus (GPa) = 26.93852 30.45461 28.69656
#
# Velocity S-wave (km/s) = 3.55620 3.78116 3.67040
# Velocity P-wave (km/s) = 5.73805 6.04698 5.89454
#
# Compressibility (1/GPa) = 0.02922572
#
# Stress axis : x y z
#
# Youngs Moduli (GPa) = 102.28536 110.57115 60.87718
#
# Poissons Ratio (x) = 0.12352 0.02905
# Poissons Ratio (y) = 0.11426 0.08623
# Poissons Ratio (z) = 0.04880 0.15661
#
# Static dielectric constant tensor:
#      x y z
#    x 4.149460 0.000000 0.000000 
#    y 0.000000 3.909360 0.000000 
#    z 0.000000 0.000000 3.628750 
# 
# 
# High freq. dielectric constant tensor:
#      x y z
#    x 1.827880 0.000000 0.000000 
#    y 0.000000 1.834970 0.000000 
#    z 0.000000 0.000000 1.831870 
# 
# From -- ./inp_files/48810.got.cif
#   From: 2010.03.12/outbox.cif.g09.slc.cpg/sg63_25_cif.got.tgz:48810.got - 2010.04.10 19:34:48.
