data_PCOD8260687
_publ_section_title
;
Structure prediction by ZEFSAII (Michael W. Deem and Ramdas Pophale) SiO2 
 PCOD8260687
Probable space group: C M C M
;
_chemical_formula_sum "Si O2"
_cell_formula_units_Z 112
_cell_length_a 23.212306
_cell_length_b 15.072498
_cell_length_c 14.583142
_cell_angle_alpha 90.000000
_cell_angle_beta 90.000000
_cell_angle_gamma 90.000000
_cell_volume 5102.166497
_symmetry_space_group_name_H-M "C M C M"
_symmetry_group_IT_number 63
_symmetry_cell_setting 'orthorhombic'
loop_
_space_group_symop_operation_xyz
x,y,z
-x,-y,1/2+z
x,-y,-z
-x,y,1/2-z
-x,-y,-z
x,y,1/2-z
-x,y,z
x,-y,1/2+z
1/2+x,1/2+y,z
1/2-x,1/2-y,1/2+z
1/2+x,1/2-y,-z
1/2-x,1/2+y,1/2-z
1/2-x,1/2-y,-z
1/2+x,1/2+y,1/2-z
1/2-x,1/2+y,z
1/2+x,1/2-y,1/2+z
loop_
_atom_site_type_symbol
_atom_site_label
_atom_site_fract_x
_atom_site_fract_y
_atom_site_fract_z
Si Si1 0.434614 0.025876 0.103506
Si Si2 0.845616 0.142261 0.546384
Si Si3 0.378968 0.852787 0.151734
Si Si4 0.436121 0.475882 0.354324
Si Si5 0.111414 0.159941 0.351548
Si Si6 0.656317 0.178327 0.356158
Si Si7 0.219647 0.602647 0.513419
O O1 0.500000 0.056817 0.120630
O O2 0.394145 0.105800 0.135530
O O3 0.422656 0.935063 0.157271
O O4 0.421800 0.000000 0.000000
O O5 0.887585 0.063599 0.579057
O O6 0.844561 0.149396 0.436008
O O7 0.866268 0.229333 0.601058
O O8 0.778978 0.120760 0.567073
O O9 0.346642 0.850213 0.250000
O O10 0.414560 0.759972 0.139159
O O11 0.331578 0.858167 0.073596
O O12 0.423426 0.445609 0.250000
O O13 0.500000 0.443982 0.384584
O O14 0.436418 0.583237 0.361581
O O15 0.141110 0.149076 0.250000
O O16 0.673424 0.190517 0.250000
O O17 0.713209 0.148728 0.413296
O O18 0.209653 0.500000 0.500000
#
# Coordination Sequence:
#
# PCOD8260687 Si02
#       7
#    16  16  16  16  16  16  16
#     4  11  22  42  70  99 136 179 224 275 334 402
#     4  12  25  44  67  98 136 177 227 278 336 403
#     4  11  22  40  65  96 135 174 217 273 334 395
#     4  10  23  45  70  99 136 177 226 281 337 400
#     4  10  22  40  65  96 131 174 226 277 334 397
#     4  12  25  43  66  97 137 180 226 278 339 406
#     4  12  24  44  67  97 135 177 223 281 336 401
#
# _framework density 21.951459
#
# number of rings (size 3 to 8) (size 9 to 14) (size 15 to 20)
#    0.000    0.857    4.286    2.571    0.000    5.143 
#    0.000    1.429    0.000    0.000    0.000    0.000 
#    0.000    0.000    0.000    0.000    0.000    0.000 
#
# Total GULP energy -693937.759955 kJ/mol
# GULP energy per Si atom -12391.745713 kJ/mol
# Density = 2.190150 g / cm^3
# Si number density = 21.951459 Si / 1000 Ang^3
#
#
#
# Elastic Constant Matrix: (Units=GPa)
#
#
# Indices 1 2 3 4 5 6 
#
# 1 99.1320 46.4081 35.2587 0.0000 0.0000 0.0000
# 2 46.4081 154.1911 46.6920 0.0000 0.0000 0.0000
# 3 35.2587 46.6920 149.4101 0.0000 0.0000 0.0000
# 4 0.0000 0.0000 0.0000 30.6118 0.0000 0.0000
# 5 0.0000 0.0000 0.0000 0.0000 24.2453 0.0000
# 6 0.0000 0.0000 0.0000 0.0000 0.0000 12.7446
#
#
#
# Elastic Compliance Matrix: (Units=1/GPa)
#
#
# Indices 1 2 3 4 5 6 
#
# 1 0.012219 -0.003098 -0.001915 0.000000 0.000000 0.000000
# 2 -0.003098 0.007949 -0.001753 0.000000 0.000000 0.000000
# 3 -0.001915 -0.001753 0.007693 0.000000 0.000000 0.000000
# 4 0.000000 0.000000 0.000000 0.032667 0.000000 0.000000
# 5 0.000000 0.000000 0.000000 0.000000 0.041245 0.000000
# 6 0.000000 0.000000 0.000000 0.000000 0.000000 0.078465
#
#
# Mechanical properties :
#
#
# Convention : Reuss Voigt Hill
#
# Bulk Modulus (GPa) = 69.79227 73.27232 71.53230
# Shear Modulus (GPa) = 25.18312 31.81196 28.49754
#
# Velocity S-wave (km/s) = 3.39074 3.81096 3.60697
# Velocity P-wave (km/s) = 6.86967 7.26748 7.07137
#
# Compressibility (1/GPa) = 0.01432823
#
# Stress axis : x y z
#
# Youngs Moduli (GPa) = 81.84000 125.80802 129.99084
#
# Poissons Ratio (x) = 0.38970 0.24899
# Poissons Ratio (y) = 0.25351 0.22788
# Poissons Ratio (z) = 0.15676 0.22055
#
# Static dielectric constant tensor:
#      x y z
#    x 3.568540 0.000000 0.000000 
#    y 0.000000 4.265970 0.000000 
#    z 0.000000 0.000000 4.046550 
# 
# 
# High freq. dielectric constant tensor:
#      x y z
#    x 1.826000 0.000000 0.000000 
#    y 0.000000 1.881970 0.000000 
#    z 0.000000 0.000000 1.882230 
# 
# From -- ./inp_files/36877.got.cif
#   From: 2010.03.12/outbox.cif.g09.slc.cpg/sg63_19_cif.got.tgz:36877.got - 2010.04.10 19:34:48.
