data_PCOD8260272
_publ_section_title
;
Structure prediction by ZEFSAII (Michael W. Deem and Ramdas Pophale) SiO2 
 PCOD8260272
Probable space group: C M C M
;
_chemical_formula_sum "Si O2"
_cell_formula_units_Z 96
_cell_length_a 8.435778
_cell_length_b 23.690384
_cell_length_c 25.026574
_cell_angle_alpha 90.000000
_cell_angle_beta 90.000000
_cell_angle_gamma 90.000000
_cell_volume 5001.481233
_symmetry_space_group_name_H-M "C M C M"
_symmetry_group_IT_number 63
_symmetry_cell_setting 'orthorhombic'
loop_
_space_group_symop_operation_xyz
x,y,z
-x,-y,1/2+z
x,-y,-z
-x,y,1/2-z
-x,-y,-z
x,y,1/2-z
-x,y,z
x,-y,1/2+z
1/2+x,1/2+y,z
1/2-x,1/2-y,1/2+z
1/2+x,1/2-y,-z
1/2-x,1/2+y,1/2-z
1/2-x,1/2-y,-z
1/2+x,1/2+y,1/2-z
1/2-x,1/2+y,z
1/2+x,1/2-y,1/2+z
loop_
_atom_site_type_symbol
_atom_site_label
_atom_site_fract_x
_atom_site_fract_y
_atom_site_fract_z
Si Si1 0.314466 0.381188 0.899179
Si Si2 0.812843 0.000887 0.440343
Si Si3 0.184017 0.121289 0.906021
Si Si4 0.683914 0.813972 0.188801
Si Si5 0.184789 0.312552 0.503040
Si Si6 0.816899 0.304820 0.810617
O O1 0.500000 0.380273 0.886880
O O2 0.248620 0.444668 0.908362
O O3 0.281551 0.344943 0.951745
O O4 0.223800 0.357399 0.847903
O O5 0.764206 0.944163 0.409219
O O6 0.000000 0.007278 0.445367
O O7 0.738849 0.000000 0.500000
O O8 0.215228 0.142303 0.846110
O O9 0.000000 0.128422 0.921291
O O10 0.289665 0.157581 0.946325
O O11 0.737823 0.822245 0.250000
O O12 0.500000 0.826981 0.180790
O O13 0.717784 0.749791 0.170684
O O14 0.250000 0.250000 0.500000
O O15 0.000000 0.311983 0.517731
O O16 0.773445 0.321813 0.750000
O O17 0.000000 0.288780 0.816302
#
# Coordination Sequence:
#
# PCOD8260272 Si02
#       6
#    16  16  16  16  16  16
#     4  11  21  37  60  84 112 147 189 234 279 332
#     4   9  18  36  59  82 111 149 190 229 277 332
#     4  11  21  37  60  84 112 147 189 234 279 332
#     4  10  21  38  59  84 115 150 188 232 283 338
#     4  12  24  37  54  81 115 148 184 228 283 340
#     4  10  21  38  59  84 115 150 188 232 283 338
#
# _framework density 19.194313999999999
#
# number of rings (size 3 to 8) (size 9 to 14) (size 15 to 20)
#    0.000    1.500    1.667    4.500    0.000    2.000 
#    0.000    5.000    0.000    5.000    0.000    0.000 
#    0.000    0.000    0.000    0.000    0.000    0.000 
#
# Total GULP energy -595424.926885 kJ/mol
# GULP energy per Si atom -12404.685977 kJ/mol
# Density = 1.915063 g / cm^3
# Si number density = 19.194314 Si / 1000 Ang^3
#
#
#
# Elastic Constant Matrix: (Units=GPa)
#
#
# Indices 1 2 3 4 5 6 
#
# 1 45.9202 15.4021 12.4992 0.0000 0.0000 0.0000
# 2 15.4021 158.2376 68.5633 0.0000 0.0000 0.0000
# 3 12.4992 68.5633 108.2488 0.0000 0.0000 0.0000
# 4 0.0000 0.0000 0.0000 26.8229 0.0000 0.0000
# 5 0.0000 0.0000 0.0000 0.0000 31.8031 0.0000
# 6 0.0000 0.0000 0.0000 0.0000 0.0000 25.2421
#
#
#
# Elastic Compliance Matrix: (Units=1/GPa)
#
#
# Indices 1 2 3 4 5 6 
#
# 1 0.022733 -0.001482 -0.001686 0.000000 0.000000 0.000000
# 2 -0.001482 0.008807 -0.005407 0.000000 0.000000 0.000000
# 3 -0.001686 -0.005407 0.012857 0.000000 0.000000 0.000000
# 4 0.000000 0.000000 0.000000 0.037282 0.000000 0.000000
# 5 0.000000 0.000000 0.000000 0.000000 0.031443 0.000000
# 6 0.000000 0.000000 0.000000 0.000000 0.000000 0.039616
#
#
# Mechanical properties :
#
#
# Convention : Reuss Voigt Hill
#
# Bulk Modulus (GPa) = 36.70178 56.14843 46.42511
# Shear Modulus (GPa) = 27.93750 31.16974 29.55362
#
# Velocity S-wave (km/s) = 3.81925 4.03414 3.92817
# Velocity P-wave (km/s) = 6.21382 7.14249 6.69428
#
# Compressibility (1/GPa) = 0.02724663
#
# Stress axis : x y z
#
# Youngs Moduli (GPa) = 43.98897 113.55073 77.77679
#
# Poissons Ratio (x) = 0.16830 0.13114
# Poissons Ratio (y) = 0.06520 0.42053
# Poissons Ratio (z) = 0.07417 0.61395
#
# Static dielectric constant tensor:
#      x y z
#    x 3.408420 0.000000 0.000000 
#    y 0.000000 2.995980 0.000000 
#    z 0.000000 0.000000 3.520780 
# 
# 
# High freq. dielectric constant tensor:
#      x y z
#    x 1.742490 0.000000 0.000000 
#    y 0.000000 1.748800 0.000000 
#    z 0.000000 0.000000 1.745440 
# 
# From -- ./inp_files/66974.got.cif
#   From: 2010.03.12/outbox.cif.g09.slc.cpg/sg63_34_cif.got.tgz:66974.got - 2010.04.10 19:34:48.
