data_PCOD8260042
_publ_section_title
;
Structure prediction by ZEFSAII (Michael W. Deem and Ramdas Pophale) SiO2 
 PCOD8260042
Probable space group: C M C M
;
_chemical_formula_sum "Si O2"
_cell_formula_units_Z 72
_cell_length_a 12.989749
_cell_length_b 32.238979
_cell_length_c 9.123075
_cell_angle_alpha 90.000000
_cell_angle_beta 90.000000
_cell_angle_gamma 90.000000
_cell_volume 3820.527093
_symmetry_space_group_name_H-M "C M C M"
_symmetry_group_IT_number 63
_symmetry_cell_setting 'orthorhombic'
loop_
_space_group_symop_operation_xyz
x,y,z
-x,-y,1/2+z
x,-y,-z
-x,y,1/2-z
-x,-y,-z
x,y,1/2-z
-x,y,z
x,-y,1/2+z
1/2+x,1/2+y,z
1/2-x,1/2-y,1/2+z
1/2+x,1/2-y,-z
1/2-x,1/2+y,1/2-z
1/2-x,1/2-y,-z
1/2+x,1/2+y,1/2-z
1/2-x,1/2+y,z
1/2+x,1/2-y,1/2+z
loop_
_atom_site_type_symbol
_atom_site_label
_atom_site_fract_x
_atom_site_fract_y
_atom_site_fract_z
Si Si1 0.199919 0.687012 0.577707
Si Si2 0.500000 0.043784 0.922125
Si Si3 0.205185 0.407071 0.076405
Si Si4 0.881730 0.956688 0.921936
Si Si5 0.612801 0.740849 0.583936
O O1 0.184833 0.688330 0.750000
O O2 0.189109 0.640049 0.522913
O O3 0.309673 0.705725 0.525331
O O4 0.113950 0.716335 0.506613
O O5 0.500000 0.036250 0.750000
O O6 0.602358 0.068437 0.970000
O O7 0.500000 0.000000 0.000000
O O8 0.225713 0.409940 0.250000
O O9 0.305313 0.423333 0.991878
O O10 0.858606 0.961639 0.750000
O O11 0.000000 0.942725 0.949139
O O12 0.858860 0.000000 0.000000
O O13 0.641033 0.752465 0.750000
O O14 0.500000 0.721082 0.570280
#
# Coordination Sequence:
#
# PCOD8260042 Si02
#       5
#    16   8  16  16  16
#     4   9  19  34  53  78 105 137 178 221 268 319
#     4  10  22  38  54  78 110 144 184 228 274 324
#     4  10  21  36  56  81 110 143 183 230 273 325
#     4  10  21  37  57  81 109 141 178 222 272 327
#     4   9  18  33  52  75 106 140 175 218 266 321
#
# _framework density 18.845566999999999
#
# number of rings (size 3 to 8) (size 9 to 14) (size 15 to 20)
#    0.000    2.444    0.000    1.333    1.556    6.222 
#    0.000    2.222    0.000    0.000    0.000    0.000 
#    0.000    0.000    0.000    0.000    0.000    0.000 
#
# Total GULP energy -446359.363735 kJ/mol
# GULP energy per Si atom -12398.871215 kJ/mol
# Density = 1.880267 g / cm^3
# Si number density = 18.845567 Si / 1000 Ang^3
#
#
#
# Elastic Constant Matrix: (Units=GPa)
#
#
# Indices 1 2 3 4 5 6 
#
# 1 106.4138 56.4596 33.9961 0.0000 0.0000 0.0000
# 2 56.4596 144.3716 39.2830 0.0000 0.0000 0.0000
# 3 33.9961 39.2830 46.4501 0.0000 0.0000 0.0000
# 4 0.0000 0.0000 0.0000 32.0694 0.0000 0.0000
# 5 0.0000 0.0000 0.0000 0.0000 28.7431 0.0000
# 6 0.0000 0.0000 0.0000 0.0000 0.0000 20.2806
#
#
#
# Elastic Compliance Matrix: (Units=1/GPa)
#
#
# Indices 1 2 3 4 5 6 
#
# 1 0.013400 -0.003341 -0.006982 0.000000 0.000000 0.000000
# 2 -0.003341 0.009830 -0.005868 0.000000 0.000000 0.000000
# 3 -0.006982 -0.005868 0.031601 0.000000 0.000000 0.000000
# 4 0.000000 0.000000 0.000000 0.031182 0.000000 0.000000
# 5 0.000000 0.000000 0.000000 0.000000 0.034791 0.000000
# 6 0.000000 0.000000 0.000000 0.000000 0.000000 0.049308
#
#
# Mechanical properties :
#
#
# Convention : Reuss Voigt Hill
#
# Bulk Modulus (GPa) = 44.54465 61.85700 53.20083
# Shear Modulus (GPa) = 23.81202 27.38507 25.59854
#
# Velocity S-wave (km/s) = 3.55848 3.81613 3.68955
# Velocity P-wave (km/s) = 6.36959 7.23267 6.81481
#
# Compressibility (1/GPa) = 0.02244938
#
# Stress axis : x y z
#
# Youngs Moduli (GPa) = 74.62495 101.73287 31.64424
#
# Poissons Ratio (x) = 0.33985 0.22095
# Poissons Ratio (y) = 0.24929 0.18569
# Poissons Ratio (z) = 0.52106 0.59697
#
# Static dielectric constant tensor:
#      x y z
#    x 3.553580 0.000000 0.000000 
#    y 0.000000 3.494580 0.000000 
#    z 0.000000 0.000000 3.400700 
# 
# 
# High freq. dielectric constant tensor:
#      x y z
#    x 1.742380 0.000000 0.000000 
#    y 0.000000 1.728850 0.000000 
#    z 0.000000 0.000000 1.725120 
# 
# From -- ./inp_files/4638.got.cif
#   From: 2010.03.12/outbox.cif.g09.slc.cpg/sg63_3_cif.got.tgz:4638.got - 2010.04.10 19:34:48.
