data_PCOD8260237
_publ_section_title
;
Structure prediction by ZEFSAII (Michael W. Deem and Ramdas Pophale) SiO2 
 PCOD8260237
Probable space group: C M C M
;
_chemical_formula_sum "Si O2"
_cell_formula_units_Z 96
_cell_length_a 13.269546
_cell_length_b 21.112206
_cell_length_c 15.718417
_cell_angle_alpha 90.000000
_cell_angle_beta 90.000000
_cell_angle_gamma 90.000000
_cell_volume 4403.504914
_symmetry_space_group_name_H-M "C M C M"
_symmetry_group_IT_number 63
_symmetry_cell_setting 'orthorhombic'
loop_
_space_group_symop_operation_xyz
x,y,z
-x,-y,1/2+z
x,-y,-z
-x,y,1/2-z
-x,-y,-z
x,y,1/2-z
-x,y,z
x,-y,1/2+z
1/2+x,1/2+y,z
1/2-x,1/2-y,1/2+z
1/2+x,1/2-y,-z
1/2-x,1/2+y,1/2-z
1/2-x,1/2-y,-z
1/2+x,1/2+y,1/2-z
1/2-x,1/2+y,z
1/2+x,1/2-y,1/2+z
loop_
_atom_site_type_symbol
_atom_site_label
_atom_site_fract_x
_atom_site_fract_y
_atom_site_fract_z
Si Si1 0.781879 0.999929 0.343523
Si Si2 0.500000 0.622572 0.998901
Si Si3 0.500000 0.819656 0.847804
Si Si4 0.500000 0.467079 0.658537
Si Si5 0.819816 0.733536 0.655200
Si Si6 0.786857 0.361503 0.892301
Si Si7 0.500000 0.238642 0.534131
Si Si8 0.717497 0.374520 0.426914
O O1 0.734770 0.993972 0.250000
O O2 0.901995 0.988548 0.343084
O O3 0.762392 0.070332 0.377023
O O4 0.735679 0.942580 0.398811
O O5 0.400889 0.616537 0.942093
O O6 0.500000 0.572913 0.073956
O O7 0.500000 0.687330 0.049693
O O8 0.500000 0.789946 0.750000
O O9 0.400754 0.862837 0.857099
O O10 0.500000 0.773032 0.930955
O O11 0.500000 0.428723 0.750000
O O12 0.865081 0.726033 0.750000
O O13 0.775520 0.804538 0.650150
O O14 0.731042 0.681344 0.642756
O O15 0.901556 0.714418 0.583687
O O16 0.781484 0.350689 0.992585
#
# Coordination Sequence:
#
# PCOD8260237 Si02
#       8
#    16   8   8   8  16  16   8  16
#     4  11  23  41  65  98 137 178 226 277 338 408
#     4  12  23  38  69  97 142 177 222 274 338 411
#     4  12  26  45  69  99 134 173 230 290 337 403
#     4  10  21  37  62  98 136 175 222 276 332 404
#     4  12  25  45  71 101 138 182 231 284 341 406
#     4  12  24  45  70  96 133 184 229 279 335 406
#     4  12  23  44  69 103 137 176 229 284 343 405
#     4  12  24  42  66 103 137 182 221 283 347 407
#
# _framework density 21.800816000000001
#
# number of rings (size 3 to 8) (size 9 to 14) (size 15 to 20)
#    0.000    0.333    5.000    4.750    0.000    2.667 
#    0.000    4.583    0.000    0.000    0.000    0.000 
#    0.000    0.000    0.000    0.000    0.000    0.000 
#
# Total GULP energy -594756.527079 kJ/mol
# GULP energy per Si atom -12390.760981 kJ/mol
# Density = 2.175120 g / cm^3
# Si number density = 21.800816 Si / 1000 Ang^3
#
#
#
# Elastic Constant Matrix: (Units=GPa)
#
#
# Indices 1 2 3 4 5 6 
#
# 1 97.7524 16.8103 37.9811 0.0000 0.0000 0.0000
# 2 16.8103 119.3352 45.6832 0.0000 0.0000 0.0000
# 3 37.9811 45.6832 142.5548 0.0000 0.0000 0.0000
# 4 0.0000 0.0000 0.0000 32.2338 0.0000 0.0000
# 5 0.0000 0.0000 0.0000 0.0000 25.3294 0.0000
# 6 0.0000 0.0000 0.0000 0.0000 0.0000 20.6624
#
#
#
# Elastic Compliance Matrix: (Units=1/GPa)
#
#
# Indices 1 2 3 4 5 6 
#
# 1 0.011438 -0.000507 -0.002885 0.000000 0.000000 0.000000
# 2 -0.000507 0.009574 -0.002933 0.000000 0.000000 0.000000
# 3 -0.002885 -0.002933 0.008723 0.000000 0.000000 0.000000
# 4 0.000000 0.000000 0.000000 0.031023 0.000000 0.000000
# 5 0.000000 0.000000 0.000000 0.000000 0.039480 0.000000
# 6 0.000000 0.000000 0.000000 0.000000 0.000000 0.048397
#
#
# Mechanical properties :
#
#
# Convention : Reuss Voigt Hill
#
# Bulk Modulus (GPa) = 58.52862 62.28796 60.40829
# Shear Modulus (GPa) = 29.94359 32.92298 31.43328
#
# Velocity S-wave (km/s) = 3.71011 3.89031 3.80128
# Velocity P-wave (km/s) = 6.72744 6.98661 6.85825
#
# Compressibility (1/GPa) = 0.01708566
#
# Stress axis : x y z
#
# Youngs Moduli (GPa) = 87.42748 104.45004 114.63369
#
# Poissons Ratio (x) = 0.05293 0.33072
# Poissons Ratio (y) = 0.04431 0.33623
# Poissons Ratio (z) = 0.25223 0.30636
#
# Static dielectric constant tensor:
#      x y z
#    x 3.984090 0.000000 0.000000 
#    y 0.000000 3.757540 0.000000 
#    z 0.000000 0.000000 4.261270 
# 
# 
# High freq. dielectric constant tensor:
#      x y z
#    x 1.844370 0.000000 0.000000 
#    y 0.000000 1.848490 0.000000 
#    z 0.000000 0.000000 1.876510 
# 
# From -- ./inp_files/32011.got.cif
#   From: 2010.03.12/outbox.cif.g09.slc.cpg/sg63_17_cif.got.tgz:32011.got - 2010.04.10 19:34:48.
