data_PCOD8260993
_publ_section_title
;
Structure prediction by ZEFSAII (Michael W. Deem and Ramdas Pophale) SiO2 
 PCOD8260993
Probable space group: C M C M
;
_chemical_formula_sum "Si O2"
_cell_formula_units_Z 96
_cell_length_a 22.927361
_cell_length_b 25.466913
_cell_length_c 8.584059
_cell_angle_alpha 90.000000
_cell_angle_beta 90.000000
_cell_angle_gamma 90.000000
_cell_volume 5012.138552
_symmetry_space_group_name_H-M "C M C M"
_symmetry_group_IT_number 63
_symmetry_cell_setting 'orthorhombic'
loop_
_space_group_symop_operation_xyz
x,y,z
-x,-y,1/2+z
x,-y,-z
-x,y,1/2-z
-x,-y,-z
x,y,1/2-z
-x,y,z
x,-y,1/2+z
1/2+x,1/2+y,z
1/2-x,1/2-y,1/2+z
1/2+x,1/2-y,-z
1/2-x,1/2+y,1/2-z
1/2-x,1/2-y,-z
1/2+x,1/2+y,1/2-z
1/2-x,1/2+y,z
1/2+x,1/2-y,1/2+z
loop_
_atom_site_type_symbol
_atom_site_label
_atom_site_fract_x
_atom_site_fract_y
_atom_site_fract_z
Si Si1 0.199113 0.943844 0.065974
Si Si2 0.826394 0.556321 0.065317
Si Si3 0.126391 0.345410 0.069527
Si Si4 0.566725 0.256157 0.067309
Si Si5 0.139591 0.851219 0.578011
Si Si6 0.736077 0.196389 0.421996
O O1 0.206534 0.946605 0.250000
O O2 0.261926 0.927415 0.994812
O O3 0.145378 0.904372 0.023549
O O4 0.179843 0.000000 0.000000
O O5 0.823756 0.555319 0.250000
O O6 0.845102 0.500000 0.000000
O O7 0.877318 0.597140 0.011278
O O8 0.111069 0.350393 0.250000
O O9 0.085280 0.300591 0.997867
O O10 0.193396 0.330808 0.043351
O O11 0.576117 0.255171 0.250000
O O12 0.500000 0.265676 0.020305
O O13 0.603196 0.304868 0.001233
O O14 0.112875 0.862506 0.750000
O O15 0.205739 0.835247 0.598669
O O16 0.706595 0.203131 0.250000
O O17 0.750000 0.250000 0.500000
#
# Coordination Sequence:
#
# PCOD8260993 Si02
#       6
#    16  16  16  16  16  16
#     4  11  21  34  54  82 119 157 192 231 278 338
#     4  11  21  35  54  82 119 156 192 231 278 338
#     4  12  23  36  57  84 115 153 190 232 284 340
#     4  11  25  43  62  84 111 148 193 241 291 341
#     4  11  22  36  57  84 116 153 190 233 284 341
#     4  11  21  32  51  81 115 149 185 228 281 344
#
# _framework density 19.153500999999999
#
# number of rings (size 3 to 8) (size 9 to 14) (size 15 to 20)
#    0.000    0.833    3.333    7.000    0.000    2.667 
#    0.000    0.000    0.000    1.000    0.000    0.000 
#    0.000    0.000    0.000    0.000    0.000    0.000 
#
# Total GULP energy -594853.906241 kJ/mol
# GULP energy per Si atom -12392.789713 kJ/mol
# Density = 1.910991 g / cm^3
# Si number density = 19.153501 Si / 1000 Ang^3
#
#
#
# Elastic Constant Matrix: (Units=GPa)
#
#
# Indices 1 2 3 4 5 6 
#
# 1 48.7275 19.8511 28.6426 0.0000 0.0000 0.0000
# 2 19.8511 124.4139 50.6382 0.0000 0.0000 0.0000
# 3 28.6426 50.6382 152.6421 0.0000 0.0000 0.0000
# 4 0.0000 0.0000 0.0000 33.8506 0.0000 0.0000
# 5 0.0000 0.0000 0.0000 0.0000 20.0624 0.0000
# 6 0.0000 0.0000 0.0000 0.0000 0.0000 5.5764
#
#
#
# Elastic Compliance Matrix: (Units=1/GPa)
#
#
# Indices 1 2 3 4 5 6 
#
# 1 0.023609 -0.002270 -0.003677 0.000000 0.000000 0.000000
# 2 -0.002270 0.009511 -0.002729 0.000000 0.000000 0.000000
# 3 -0.003677 -0.002729 0.008147 0.000000 0.000000 0.000000
# 4 0.000000 0.000000 0.000000 0.029542 0.000000 0.000000
# 5 0.000000 0.000000 0.000000 0.000000 0.049845 0.000000
# 6 0.000000 0.000000 0.000000 0.000000 0.000000 0.179328
#
#
# Mechanical properties :
#
#
# Convention : Reuss Voigt Hill
#
# Bulk Modulus (GPa) = 41.81797 58.22750 50.02274
# Shear Modulus (GPa) = 15.37023 27.00796 21.18910
#
# Velocity S-wave (km/s) = 2.83587 3.75918 3.32968
# Velocity P-wave (km/s) = 5.70994 7.02199 6.39968
#
# Compressibility (1/GPa) = 0.02391316
#
# Stress axis : x y z
#
# Youngs Moduli (GPa) = 42.35758 105.14444 122.75085
#
# Poissons Ratio (x) = 0.23872 0.45134
# Poissons Ratio (y) = 0.09617 0.33500
# Poissons Ratio (z) = 0.15574 0.28695
#
# Static dielectric constant tensor:
#      x y z
#    x 3.216740 0.000000 0.000000 
#    y 0.000000 3.785130 0.000000 
#    z 0.000000 0.000000 3.830110 
# 
# 
# High freq. dielectric constant tensor:
#      x y z
#    x 1.692850 0.000000 0.000000 
#    y 0.000000 1.765610 0.000000 
#    z 0.000000 0.000000 1.767570 
# 
# From -- ./inp_files/10433.got.cif
#   From: 2010.03.12/outbox.cif.g09.slc.cpg/sg63_6_cif.got.tgz:10433.got - 2010.04.10 19:34:48.
