data_PCOD8260255
_publ_section_title
;
Structure prediction by ZEFSAII (Michael W. Deem and Ramdas Pophale) SiO2 
 PCOD8260255
Probable space group: C M C M
;
_chemical_formula_sum "Si O2"
_cell_formula_units_Z 80
_cell_length_a 8.857146
_cell_length_b 27.240273
_cell_length_c 17.855679
_cell_angle_alpha 90.000000
_cell_angle_beta 90.000000
_cell_angle_gamma 90.000000
_cell_volume 4308.058868
_symmetry_space_group_name_H-M "C M C M"
_symmetry_group_IT_number 63
_symmetry_cell_setting 'orthorhombic'
loop_
_space_group_symop_operation_xyz
x,y,z
-x,-y,1/2+z
x,-y,-z
-x,y,1/2-z
-x,-y,-z
x,y,1/2-z
-x,y,z
x,-y,1/2+z
1/2+x,1/2+y,z
1/2-x,1/2-y,1/2+z
1/2+x,1/2-y,-z
1/2-x,1/2+y,1/2-z
1/2-x,1/2-y,-z
1/2+x,1/2+y,1/2-z
1/2-x,1/2+y,z
1/2+x,1/2-y,1/2+z
loop_
_atom_site_type_symbol
_atom_site_label
_atom_site_fract_x
_atom_site_fract_y
_atom_site_fract_z
Si Si1 0.674675 0.607673 0.451641
Si Si2 0.822231 0.300360 0.025189
Si Si3 0.674163 0.656989 0.664995
Si Si4 0.828252 0.947196 0.397871
Si Si5 0.823638 0.541138 0.336129
O O1 0.500000 0.621783 0.443987
O O2 0.764653 0.656760 0.471026
O O3 0.698790 0.566712 0.515656
O O4 0.735352 0.586076 0.374048
O O5 0.777701 0.310455 0.111276
O O6 0.000000 0.296583 0.018390
O O7 0.750000 0.250000 0.000000
O O8 0.710693 0.671952 0.750000
O O9 0.500000 0.667155 0.643965
O O10 0.708191 0.599471 0.654159
O O11 0.000000 0.965370 0.385595
O O12 0.715014 0.989927 0.375549
O O13 0.773219 0.539101 0.250000
O O14 0.000000 0.550885 0.345040
#
# Coordination Sequence:
#
# PCOD8260255 Si02
#       5
#    16  16  16  16  16
#     4  10  21  38  58  79 104 138 182 226 269 320
#     4  11  22  38  60  83 109 140 177 222 271 324
#     4   9  18  34  56  83 114 144 177 221 270 317
#     4   9  18  33  54  79 107 142 181 218 260 314
#     4  11  23  35  49  76 113 148 182 221 265 314
#
# _framework density 18.569846999999999
#
# number of rings (size 3 to 8) (size 9 to 14) (size 15 to 20)
#    0.000    2.000    0.000    5.400    0.000    9.200 
#    0.000    1.000    0.000    6.000    0.000    0.000 
#    0.000    0.000    0.000    0.000    0.000    0.000 
#
# Total GULP energy -496169.262651 kJ/mol
# GULP energy per Si atom -12404.231566 kJ/mol
# Density = 1.852758 g / cm^3
# Si number density = 18.569847 Si / 1000 Ang^3
#
#
#
# Elastic Constant Matrix: (Units=GPa)
#
#
# Indices 1 2 3 4 5 6 
#
# 1 122.0960 59.1226 52.5351 0.0000 0.0000 0.0000
# 2 59.1226 104.2727 57.1677 0.0000 0.0000 0.0000
# 3 52.5351 57.1677 86.2642 0.0000 0.0000 0.0000
# 4 0.0000 0.0000 0.0000 16.3527 0.0000 0.0000
# 5 0.0000 0.0000 0.0000 0.0000 32.1209 0.0000
# 6 0.0000 0.0000 0.0000 0.0000 0.0000 35.6661
#
#
#
# Elastic Compliance Matrix: (Units=1/GPa)
#
#
# Indices 1 2 3 4 5 6 
#
# 1 0.012315 -0.004509 -0.004512 0.000000 0.000000 0.000000
# 2 -0.004509 0.016714 -0.008330 0.000000 0.000000 0.000000
# 3 -0.004512 -0.008330 0.019861 0.000000 0.000000 0.000000
# 4 0.000000 0.000000 0.000000 0.061152 0.000000 0.000000
# 5 0.000000 0.000000 0.000000 0.000000 0.031132 0.000000
# 6 0.000000 0.000000 0.000000 0.000000 0.000000 0.028038
#
#
# Mechanical properties :
#
#
# Convention : Reuss Voigt Hill
#
# Bulk Modulus (GPa) = 70.48604 72.25373 71.36989
# Shear Modulus (GPa) = 23.96434 26.41510 25.18972
#
# Velocity S-wave (km/s) = 3.59625 3.77566 3.68704
# Velocity P-wave (km/s) = 7.43530 7.61585 7.52611
#
# Compressibility (1/GPa) = 0.01418721
#
# Stress axis : x y z
#
# Youngs Moduli (GPa) = 81.20199 59.82986 50.35107
#
# Poissons Ratio (x) = 0.26978 0.22717
# Poissons Ratio (y) = 0.36614 0.41945
# Poissons Ratio (z) = 0.36636 0.49841
#
# Static dielectric constant tensor:
#      x y z
#    x 3.411120 0.000000 0.000000 
#    y 0.000000 3.330290 0.000000 
#    z 0.000000 0.000000 3.964090 
# 
# 
# High freq. dielectric constant tensor:
#      x y z
#    x 1.725360 0.000000 0.000000 
#    y 0.000000 1.709390 0.000000 
#    z 0.000000 0.000000 1.722650 
# 
# From -- ./inp_files/40458.got.cif
#   From: 2010.03.12/outbox.cif.g09.slc.cpg/sg63_21_cif.got.tgz:40458.got - 2010.04.10 19:34:48.
