data_PCOD8260585
_publ_section_title
;
Structure prediction by ZEFSAII (Michael W. Deem and Ramdas Pophale) SiO2 
 PCOD8260585
Probable space group: C M C M
;
_chemical_formula_sum "Si O2"
_cell_formula_units_Z 80
_cell_length_a 20.070144
_cell_length_b 12.485611
_cell_length_c 14.309046
_cell_angle_alpha 90.000000
_cell_angle_beta 90.000000
_cell_angle_gamma 90.000000
_cell_volume 3585.675372
_symmetry_space_group_name_H-M "C M C M"
_symmetry_group_IT_number 63
_symmetry_cell_setting 'orthorhombic'
loop_
_space_group_symop_operation_xyz
x,y,z
-x,-y,1/2+z
x,-y,-z
-x,y,1/2-z
-x,-y,-z
x,y,1/2-z
-x,y,z
x,-y,1/2+z
1/2+x,1/2+y,z
1/2-x,1/2-y,1/2+z
1/2+x,1/2-y,-z
1/2-x,1/2+y,1/2-z
1/2-x,1/2-y,-z
1/2+x,1/2+y,1/2-z
1/2-x,1/2+y,z
1/2+x,1/2-y,1/2+z
loop_
_atom_site_type_symbol
_atom_site_label
_atom_site_fract_x
_atom_site_fract_y
_atom_site_fract_z
Si Si1 0.923638 0.403414 0.141049
Si Si2 0.189593 0.021975 0.395953
Si Si3 0.667988 0.089834 0.146657
Si Si4 0.926280 0.822885 0.554358
Si Si5 0.119066 0.816253 0.354460
O O1 0.909124 0.377450 0.250000
O O2 0.874467 0.494645 0.097684
O O3 0.908053 0.298606 0.079984
O O4 0.000000 0.441365 0.127256
O O5 0.253010 0.073432 0.346831
O O6 0.125942 0.100369 0.393708
O O7 0.213652 0.000000 0.500000
O O8 0.172747 0.911171 0.344473
O O9 0.637991 0.089919 0.250000
O O10 0.654779 0.208518 0.107699
O O11 0.929395 0.843566 0.441504
O O12 0.000000 0.850699 0.592760
O O13 0.085651 0.803750 0.250000
#
# Coordination Sequence:
#
# PCOD8260585 Si02
#       5
#    16  16  16  16  16
#     4   9  20  39  62  90 125 166 210 256 307 364
#     4  10  23  38  61  88 122 161 208 256 307 368
#     4  10  22  38  61  91 126 163 205 256 308 371
#     4  10  23  42  64  92 125 164 211 257 304 368
#     4  10  23  40  59  90 124 163 207 253 314 367
#
# _framework density 22.310998000000001
#
# number of rings (size 3 to 8) (size 9 to 14) (size 15 to 20)
#    0.000    2.200    0.000    0.600    5.600    8.000 
#    0.000    4.000    0.000    0.000    0.000    0.000 
#    0.000    0.000    0.000    0.000    0.000    0.000 
#
# Total GULP energy -495636.318702 kJ/mol
# GULP energy per Si atom -12390.907968 kJ/mol
# Density = 2.226022 g / cm^3
# Si number density = 22.310998 Si / 1000 Ang^3
#
#
#
# Elastic Constant Matrix: (Units=GPa)
#
#
# Indices 1 2 3 4 5 6 
#
# 1 119.2962 61.0996 11.5453 0.0000 0.0000 0.0000
# 2 61.0996 135.7644 14.9975 0.0000 0.0000 0.0000
# 3 11.5453 14.9975 74.4027 0.0000 0.0000 0.0000
# 4 0.0000 0.0000 0.0000 30.0206 0.0000 0.0000
# 5 0.0000 0.0000 0.0000 0.0000 16.6691 0.0000
# 6 0.0000 0.0000 0.0000 0.0000 0.0000 31.6253
#
#
#
# Elastic Compliance Matrix: (Units=1/GPa)
#
#
# Indices 1 2 3 4 5 6 
#
# 1 0.010931 -0.004840 -0.000721 0.000000 0.000000 0.000000
# 2 -0.004840 0.009676 -0.001199 0.000000 0.000000 0.000000
# 3 -0.000721 -0.001199 0.013794 0.000000 0.000000 0.000000
# 4 0.000000 0.000000 0.000000 0.033310 0.000000 0.000000
# 5 0.000000 0.000000 0.000000 0.000000 0.059991 0.000000
# 6 0.000000 0.000000 0.000000 0.000000 0.000000 0.031620
#
#
# Mechanical properties :
#
#
# Convention : Reuss Voigt Hill
#
# Bulk Modulus (GPa) = 47.88928 56.08314 51.98621
# Shear Modulus (GPa) = 27.80814 31.78440 29.79627
#
# Velocity S-wave (km/s) = 3.53425 3.77849 3.65841
# Velocity P-wave (km/s) = 6.17783 6.65038 6.41846
#
# Compressibility (1/GPa) = 0.02088150
#
# Stress axis : x y z
#
# Youngs Moduli (GPa) = 91.48271 103.34513 72.49540
#
# Poissons Ratio (x) = 0.50017 0.05224
# Poissons Ratio (y) = 0.44276 0.08696
# Poissons Ratio (z) = 0.06593 0.12396
#
# Static dielectric constant tensor:
#      x y z
#    x 3.664370 0.000000 0.000000 
#    y 0.000000 4.176410 0.000000 
#    z 0.000000 0.000000 3.979010 
# 
# 
# High freq. dielectric constant tensor:
#      x y z
#    x 1.858200 0.000000 0.000000 
#    y 0.000000 1.888470 0.000000 
#    z 0.000000 0.000000 1.880250 
# 
# From -- ./inp_files/36466.got.cif
#   From: 2010.03.12/outbox.cif.g09.slc.cpg/sg63_19_cif.got.tgz:36466.got - 2010.04.10 19:34:48.
