data_PCOD8260151
_publ_section_title
;
Structure prediction by ZEFSAII (Michael W. Deem and Ramdas Pophale) SiO2 
 PCOD8260151
Probable space group: C M C M
;
_chemical_formula_sum "Si O2"
_cell_formula_units_Z 96
_cell_length_a 29.956286
_cell_length_b 19.464945
_cell_length_c 8.655071
_cell_angle_alpha 90.000000
_cell_angle_beta 90.000000
_cell_angle_gamma 90.000000
_cell_volume 5046.749911
_symmetry_space_group_name_H-M "C M C M"
_symmetry_group_IT_number 63
_symmetry_cell_setting 'orthorhombic'
loop_
_space_group_symop_operation_xyz
x,y,z
-x,-y,1/2+z
x,-y,-z
-x,y,1/2-z
-x,-y,-z
x,y,1/2-z
-x,y,z
x,-y,1/2+z
1/2+x,1/2+y,z
1/2-x,1/2-y,1/2+z
1/2+x,1/2-y,-z
1/2-x,1/2+y,1/2-z
1/2-x,1/2-y,-z
1/2+x,1/2+y,1/2-z
1/2-x,1/2+y,z
1/2+x,1/2-y,1/2+z
loop_
_atom_site_type_symbol
_atom_site_label
_atom_site_fract_x
_atom_site_fract_y
_atom_site_fract_z
Si Si1 0.447954 0.290045 0.928975
Si Si2 0.375116 0.799620 0.929595
Si Si3 0.553045 0.431214 0.076971
Si Si4 0.261932 0.572385 0.066941
Si Si5 0.334969 0.071219 0.932042
Si Si6 0.290933 0.708027 0.931596
O O1 0.437010 0.280091 0.750000
O O2 0.500000 0.280717 0.965391
O O3 0.422597 0.232768 0.027663
O O4 0.431473 0.365655 0.978663
O O5 0.373685 0.818511 0.750000
O O6 0.336566 0.746057 0.974685
O O7 0.369774 0.869055 0.027804
O O8 0.572242 0.424152 0.250000
O O9 0.500000 0.436340 0.080555
O O10 0.573143 0.500000 0.000000
O O11 0.262326 0.569344 0.250000
O O12 0.279105 0.500000 0.000000
O O13 0.212122 0.589272 0.010187
O O14 0.294131 0.632640 0.007251
O O15 0.328125 0.064305 0.750000
O O16 0.353928 0.000000 0.000000
O O17 0.283913 0.700824 0.750000
O O18 0.250000 0.750000 0.000000
#
# Coordination Sequence:
#
# PCOD8260151 Si02
#       6
#    16  16  16  16  16  16
#     4  10  21  37  57  82 112 147 189 236 287 340
#     4  11  23  38  58  85 115 148 190 233 282 338
#     4   9  16  28  49  76 105 138 178 225 275 327
#     4  11  21  35  55  80 113 152 193 233 280 334
#     4  11  21  35  57  83 114 147 187 232 278 331
#     4  11  22  36  56  82 114 149 186 230 279 333
#
# _framework density 19.022141999999999
#
# number of rings (size 3 to 8) (size 9 to 14) (size 15 to 20)
#    0.000    1.500    1.667    6.000    0.000    5.000 
#    0.000    0.833    0.000    4.500    0.000    0.000 
#    0.000    0.000    0.000    0.000    0.000    0.000 
#
# Total GULP energy -595427.116351 kJ/mol
# GULP energy per Si atom -12404.731591 kJ/mol
# Density = 1.897885 g / cm^3
# Si number density = 19.022142 Si / 1000 Ang^3
#
#
#
# Elastic Constant Matrix: (Units=GPa)
#
#
# Indices 1 2 3 4 5 6 
#
# 1 48.4699 39.1204 33.6694 0.0000 0.0000 0.0000
# 2 39.1204 144.4288 53.9488 0.0000 0.0000 0.0000
# 3 33.6694 53.9488 128.0982 0.0000 0.0000 0.0000
# 4 0.0000 0.0000 0.0000 39.9329 0.0000 0.0000
# 5 0.0000 0.0000 0.0000 0.0000 23.5995 0.0000
# 6 0.0000 0.0000 0.0000 0.0000 0.0000 22.9997
#
#
#
# Elastic Compliance Matrix: (Units=1/GPa)
#
#
# Indices 1 2 3 4 5 6 
#
# 1 0.028978 -0.005938 -0.005116 0.000000 0.000000 0.000000
# 2 -0.005938 0.009433 -0.002412 0.000000 0.000000 0.000000
# 3 -0.005116 -0.002412 0.010167 0.000000 0.000000 0.000000
# 4 0.000000 0.000000 0.000000 0.025042 0.000000 0.000000
# 5 0.000000 0.000000 0.000000 0.000000 0.042374 0.000000
# 6 0.000000 0.000000 0.000000 0.000000 0.000000 0.043479
#
#
# Mechanical properties :
#
#
# Convention : Reuss Voigt Hill
#
# Bulk Modulus (GPa) = 46.19749 63.83042 55.01396
# Shear Modulus (GPa) = 25.82386 30.25697 28.04042
#
# Velocity S-wave (km/s) = 3.68852 3.99258 3.84356
# Velocity P-wave (km/s) = 6.51760 7.40831 6.97718
#
# Compressibility (1/GPa) = 0.02164620
#
# Stress axis : x y z
#
# Youngs Moduli (GPa) = 34.50942 106.00850 98.35797
#
# Poissons Ratio (x) = 0.62949 0.50316
# Poissons Ratio (y) = 0.20492 0.23724
# Poissons Ratio (z) = 0.17654 0.25570
#
# Static dielectric constant tensor:
#      x y z
#    x 3.104880 0.000000 0.000000 
#    y 0.000000 3.578010 0.000000 
#    z 0.000000 0.000000 3.624840 
# 
# 
# High freq. dielectric constant tensor:
#      x y z
#    x 1.696960 0.000000 0.000000 
#    y 0.000000 1.751350 0.000000 
#    z 0.000000 0.000000 1.759670 
# 
# From -- ./inp_files/12426.got.cif
#   From: 2010.03.12/outbox.cif.g09.slc.cpg/sg63_7_cif.got.tgz:12426.got - 2010.04.10 19:34:48.
