data_PCOD8260889
_publ_section_title
;
Structure prediction by ZEFSAII (Michael W. Deem and Ramdas Pophale) SiO2 
 PCOD8260889
Probable space group: C M C M
;
_chemical_formula_sum "Si O2"
_cell_formula_units_Z 84
_cell_length_a 7.999966
_cell_length_b 23.920741
_cell_length_c 21.804417
_cell_angle_alpha 90.000000
_cell_angle_beta 90.000000
_cell_angle_gamma 90.000000
_cell_volume 4172.604760
_symmetry_space_group_name_H-M "C M C M"
_symmetry_group_IT_number 63
_symmetry_cell_setting 'orthorhombic'
loop_
_space_group_symop_operation_xyz
x,y,z
-x,-y,1/2+z
x,-y,-z
-x,y,1/2-z
-x,-y,-z
x,y,1/2-z
-x,y,z
x,-y,1/2+z
1/2+x,1/2+y,z
1/2-x,1/2-y,1/2+z
1/2+x,1/2-y,-z
1/2-x,1/2+y,1/2-z
1/2-x,1/2-y,-z
1/2+x,1/2+y,1/2-z
1/2-x,1/2+y,z
1/2+x,1/2-y,1/2+z
loop_
_atom_site_type_symbol
_atom_site_label
_atom_site_fract_x
_atom_site_fract_y
_atom_site_fract_z
Si Si1 0.308613 0.563651 0.493671
Si Si2 0.311766 0.870394 0.617566
Si Si3 0.305780 0.910228 0.750000
Si Si4 0.500000 0.508899 0.250000
Si Si5 0.811983 0.633054 0.895761
Si Si6 0.809861 0.242367 0.431831
Si Si7 0.500000 0.403927 0.317634
O O1 0.240304 0.500000 0.500000
O O2 0.500000 0.564933 0.515611
O O3 0.297082 0.587484 0.424370
O O4 0.204447 0.605089 0.537266
O O5 0.500000 0.889923 0.606331
O O6 0.264649 0.874504 0.689267
O O7 0.295730 0.805406 0.601145
O O8 0.500000 0.931014 0.750000
O O9 0.175517 0.960101 0.750000
O O10 0.500000 0.471041 0.311350
O O11 0.785322 0.699372 0.897453
O O12 0.671244 0.610739 0.850974
O O13 0.000000 0.619839 0.871575
O O14 0.750000 0.250000 0.500000
O O15 0.000000 0.222021 0.431732
O O16 0.500000 0.375240 0.250000
#
# Coordination Sequence:
#
# PCOD8260889 Si02
#       7
#    16  16   8   4  16  16   8
#     4  11  24  38  63  96 132 171 221 280 340 399
#     4  11  24  42  64  98 133 176 226 276 343 403
#     4  10  26  46  67  99 137 181 228 277 331 408
#     4  10  26  46  74  92 136 176 236 268 344 392
#     4  11  24  43  66  97 135 172 222 277 340 404
#     4  11  23  39  64  97 129 174 220 278 337 400
#     4  10  26  46  66 101 125 181 222 270 334 403
#
# _framework density 20.131309000000002
#
# number of rings (size 3 to 8) (size 9 to 14) (size 15 to 20)
#    0.286    0.952    2.857    1.714    8.000    2.667 
#    1.714    0.000    0.000    0.000    0.000    0.000 
#    0.000    0.000    0.000    0.000    0.000    0.000 
#
# Total GULP energy -520734.032959 kJ/mol
# GULP energy per Si atom -12398.429356 kJ/mol
# Density = 2.008549 g / cm^3
# Si number density = 20.131309 Si / 1000 Ang^3
#
#
#
# Elastic Constant Matrix: (Units=GPa)
#
#
# Indices 1 2 3 4 5 6 
#
# 1 109.9939 45.6520 52.9507 0.0000 0.0000 0.0000
# 2 45.6520 131.1517 56.7945 0.0000 0.0000 0.0000
# 3 52.9507 56.7945 139.5624 0.0000 0.0000 0.0000
# 4 0.0000 0.0000 0.0000 36.6790 0.0000 0.0000
# 5 0.0000 0.0000 0.0000 0.0000 33.0589 0.0000
# 6 0.0000 0.0000 0.0000 0.0000 0.0000 33.0262
#
#
#
# Elastic Compliance Matrix: (Units=1/GPa)
#
#
# Indices 1 2 3 4 5 6 
#
# 1 0.011831 -0.002639 -0.003414 0.000000 0.000000 0.000000
# 2 -0.002639 0.009845 -0.003005 0.000000 0.000000 0.000000
# 3 -0.003414 -0.003005 0.009684 0.000000 0.000000 0.000000
# 4 0.000000 0.000000 0.000000 0.027264 0.000000 0.000000
# 5 0.000000 0.000000 0.000000 0.000000 0.030249 0.000000
# 6 0.000000 0.000000 0.000000 0.000000 0.000000 0.030279
#
#
# Mechanical properties :
#
#
# Convention : Reuss Voigt Hill
#
# Bulk Modulus (GPa) = 75.52120 76.83361 76.17741
# Shear Modulus (GPa) = 35.29031 35.57352 35.43192
#
# Velocity S-wave (km/s) = 4.19143 4.20822 4.19983
# Velocity P-wave (km/s) = 7.81152 7.86519 7.83840
#
# Compressibility (1/GPa) = 0.01324132
#
# Stress axis : x y z
#
# Youngs Moduli (GPa) = 84.52642 101.57688 103.26786
#
# Poissons Ratio (x) = 0.26811 0.35261
# Poissons Ratio (y) = 0.22310 0.31031
# Poissons Ratio (z) = 0.28861 0.30523
#
# Static dielectric constant tensor:
#      x y z
#    x 3.682650 0.000000 0.000000 
#    y 0.000000 -7.578160 0.000000 
#    z 0.000000 0.000000 3.599890 
# 
# 
# High freq. dielectric constant tensor:
#      x y z
#    x 1.801410 0.000000 0.000000 
#    y 0.000000 1.788630 0.000000 
#    z 0.000000 0.000000 1.779180 
# 
# From -- ./inp_files/50974.got.cif
#   From: 2010.03.12/outbox.cif.g09.slc.cpg/sg63_26_cif.got.tgz:50974.got - 2010.04.10 19:34:48.
