data_PCOD8260069
_publ_section_title
;
Structure prediction by ZEFSAII (Michael W. Deem and Ramdas Pophale) SiO2 
 PCOD8260069
Probable space group: C M C M
;
_chemical_formula_sum "Si O2"
_cell_formula_units_Z 72
_cell_length_a 9.748122
_cell_length_b 15.586698
_cell_length_c 23.335654
_cell_angle_alpha 90.000000
_cell_angle_beta 90.000000
_cell_angle_gamma 90.000000
_cell_volume 3545.643390
_symmetry_space_group_name_H-M "C M C M"
_symmetry_group_IT_number 63
_symmetry_cell_setting 'orthorhombic'
loop_
_space_group_symop_operation_xyz
x,y,z
-x,-y,1/2+z
x,-y,-z
-x,y,1/2-z
-x,-y,-z
x,y,1/2-z
-x,y,z
x,-y,1/2+z
1/2+x,1/2+y,z
1/2-x,1/2-y,1/2+z
1/2+x,1/2-y,-z
1/2-x,1/2+y,1/2-z
1/2-x,1/2-y,-z
1/2+x,1/2+y,1/2-z
1/2-x,1/2+y,z
1/2+x,1/2-y,1/2+z
loop_
_atom_site_type_symbol
_atom_site_label
_atom_site_fract_x
_atom_site_fract_y
_atom_site_fract_z
Si Si1 0.795507 0.554908 0.902762
Si Si2 0.000000 0.003634 0.068248
Si Si3 0.500000 0.844011 0.025407
Si Si4 0.000000 0.802075 0.888026
Si Si5 0.000000 0.405675 0.902839
Si Si6 0.793759 0.302142 0.183122
Si Si7 0.500000 0.761991 0.814509
O O1 0.632937 0.547181 0.909852
O O2 0.862114 0.461433 0.901194
O O3 0.835950 0.606960 0.844957
O O4 0.862174 0.605749 0.956000
O O5 0.000000 0.098433 0.095825
O O6 0.000000 0.000000 0.000000
O O7 0.500000 0.748678 0.051517
O O8 0.500000 0.841035 0.956885
O O9 0.868129 0.776486 0.849562
O O10 0.000000 0.350285 0.846937
O O11 0.834682 0.301763 0.250000
O O12 0.632347 0.294867 0.172167
O O13 0.500000 0.793603 0.750000
#
# Coordination Sequence:
#
# PCOD8260069 Si02
#       7
#    16   8   8   8   8  16   8
#     4  10  21  36  58  83 113 146 186 231 281 336
#     4  12  23  37  55  88 124 149 182 239 296 341
#     4   9  20  39  58  80 109 152 190 224 272 338
#     4  10  22  38  60  85 112 151 195 230 279 342
#     4  11  20  37  58  80 110 146 187 231 274 331
#     4  10  21  40  60  81 111 150 191 234 281 338
#     4  10  22  37  55  79 110 144 183 228 277 330
#
# _framework density 20.306609999999999
#
# number of rings (size 3 to 8) (size 9 to 14) (size 15 to 20)
#    0.000    1.778    0.000    5.667    0.000    2.667 
#    0.000    7.778    0.000    0.000    0.000    0.000 
#    0.000    0.000    0.000    0.000    0.000    0.000 
#
# Total GULP energy -446378.354768 kJ/mol
# GULP energy per Si atom -12399.398744 kJ/mol
# Density = 2.026039 g / cm^3
# Si number density = 20.306610 Si / 1000 Ang^3
#
#
#
# Elastic Constant Matrix: (Units=GPa)
#
#
# Indices 1 2 3 4 5 6 
#
# 1 136.4654 16.6701 31.6820 0.0000 0.0000 0.0000
# 2 16.6701 66.3563 44.1637 0.0000 0.0000 0.0000
# 3 31.6820 44.1637 110.4889 0.0000 0.0000 0.0000
# 4 0.0000 0.0000 0.0000 29.1485 0.0000 0.0000
# 5 0.0000 0.0000 0.0000 0.0000 22.8629 0.0000
# 6 0.0000 0.0000 0.0000 0.0000 0.0000 7.7435
#
#
#
# Elastic Compliance Matrix: (Units=1/GPa)
#
#
# Indices 1 2 3 4 5 6 
#
# 1 0.007871 -0.000647 -0.001998 0.000000 0.000000 0.000000
# 2 -0.000647 0.020586 -0.008043 0.000000 0.000000 0.000000
# 3 -0.001998 -0.008043 0.012838 0.000000 0.000000 0.000000
# 4 0.000000 0.000000 0.000000 0.034307 0.000000 0.000000
# 5 0.000000 0.000000 0.000000 0.000000 0.043739 0.000000
# 6 0.000000 0.000000 0.000000 0.000000 0.000000 0.129141
#
#
# Mechanical properties :
#
#
# Convention : Reuss Voigt Hill
#
# Bulk Modulus (GPa) = 50.20491 55.37136 52.78814
# Shear Modulus (GPa) = 18.08333 26.67064 22.37699
#
# Velocity S-wave (km/s) = 2.98739 3.62801 3.32317
# Velocity P-wave (km/s) = 6.05611 6.69902 6.38566
#
# Compressibility (1/GPa) = 0.01991837
#
# Stress axis : x y z
#
# Youngs Moduli (GPa) = 127.05121 48.57751 77.89145
#
# Poissons Ratio (x) = 0.03145 0.15564
# Poissons Ratio (y) = 0.08226 0.62646
# Poissons Ratio (z) = 0.25386 0.39069
#
# Static dielectric constant tensor:
#      x y z
#    x 4.052180 0.000000 0.000000 
#    y 0.000000 3.454560 0.000000 
#    z 0.000000 0.000000 3.651070 
# 
# 
# High freq. dielectric constant tensor:
#      x y z
#    x 1.812050 0.000000 0.000000 
#    y 0.000000 1.780910 0.000000 
#    z 0.000000 0.000000 1.794410 
# 
# From -- ./inp_files/66417.got.cif
#   From: 2010.03.12/outbox.cif.g09.slc.cpg/sg63_34_cif.got.tgz:66417.got - 2010.04.10 19:34:48.
