data_PCOD8260633
_publ_section_title
;
Structure prediction by ZEFSAII (Michael W. Deem and Ramdas Pophale) SiO2 
 PCOD8260633
Probable space group: C M C M
;
_chemical_formula_sum "Si O2"
_cell_formula_units_Z 64
_cell_length_a 11.558028
_cell_length_b 18.408928
_cell_length_c 14.434993
_cell_angle_alpha 90.000000
_cell_angle_beta 90.000000
_cell_angle_gamma 90.000000
_cell_volume 3071.346528
_symmetry_space_group_name_H-M "C M C M"
_symmetry_group_IT_number 63
_symmetry_cell_setting 'orthorhombic'
loop_
_space_group_symop_operation_xyz
x,y,z
-x,-y,1/2+z
x,-y,-z
-x,y,1/2-z
-x,-y,-z
x,y,1/2-z
-x,y,z
x,-y,1/2+z
1/2+x,1/2+y,z
1/2-x,1/2-y,1/2+z
1/2+x,1/2-y,-z
1/2-x,1/2+y,1/2-z
1/2-x,1/2-y,-z
1/2+x,1/2+y,1/2-z
1/2-x,1/2+y,z
1/2+x,1/2-y,1/2+z
loop_
_atom_site_type_symbol
_atom_site_label
_atom_site_fract_x
_atom_site_fract_y
_atom_site_fract_z
Si Si1 0.365316 0.085199 0.501757
Si Si2 0.000000 0.080130 0.466204
Si Si3 0.209704 0.854557 0.858797
Si Si4 0.500000 0.330453 0.148358
Si Si5 0.756066 0.305884 0.354182
O O1 0.500000 0.097842 0.521153
O O2 0.331108 0.119547 0.402938
O O3 0.292245 0.127416 0.580596
O O4 0.333842 0.000000 0.500000
O O5 0.110828 0.097569 0.404803
O O6 0.000000 0.115539 0.565211
O O7 0.000000 0.000000 0.500000
O O8 0.215650 0.868956 0.750000
O O9 0.181844 0.769848 0.881314
O O10 0.500000 0.369694 0.250000
O O11 0.380722 0.285199 0.139939
O O12 0.790538 0.329011 0.250000
#
# Coordination Sequence:
#
# PCOD8260633 Si02
#       5
#    16   8  16   8  16
#     4  11  25  43  65  95 130 176 223 267 329 390
#     4  12  25  43  66  97 133 168 216 275 332 391
#     4  11  25  42  66  97 131 173 220 271 330 393
#     4  10  22  39  66  97 126 168 218 269 328 383
#     4  10  23  42  67  98 132 172 222 276 329 390
#
# _framework density 20.837764
#
# number of rings (size 3 to 8) (size 9 to 14) (size 15 to 20)
#    0.000    1.250    2.500    1.875    3.500    3.000 
#    0.000    2.500    0.000    0.000    0.000    0.000 
#    0.000    0.000    0.000    0.000    0.000    0.000 
#
# Total GULP energy -396602.046610 kJ/mol
# GULP energy per Si atom -12393.813957 kJ/mol
# Density = 2.079034 g / cm^3
# Si number density = 20.837764 Si / 1000 Ang^3
#
#
#
# Elastic Constant Matrix: (Units=GPa)
#
#
# Indices 1 2 3 4 5 6 
#
# 1 103.6836 45.8923 47.7591 0.0000 0.0000 0.0000
# 2 45.8923 136.1964 78.3114 0.0000 0.0000 0.0000
# 3 47.7591 78.3114 153.6880 0.0000 0.0000 0.0000
# 4 0.0000 0.0000 0.0000 -0.3363 0.0000 0.0000
# 5 0.0000 0.0000 0.0000 0.0000 30.7789 0.0000
# 6 0.0000 0.0000 0.0000 0.0000 0.0000 30.6215
#
#
#
# Elastic Compliance Matrix: (Units=1/GPa)
#
#
# Indices 1 2 3 4 5 6 
#
# 1 0.011902 -0.002665 -0.002341 0.000000 0.000000 0.000000
# 2 -0.002665 0.010981 -0.004768 0.000000 0.000000 0.000000
# 3 -0.002341 -0.004768 0.009663 0.000000 0.000000 0.000000
# 4 0.000000 0.000000 0.000000 -2.973295 0.000000 0.000000
# 5 0.000000 0.000000 0.000000 0.000000 0.032490 0.000000
# 6 0.000000 0.000000 0.000000 0.000000 0.000000 0.032657
#
#
# Mechanical properties :
#
#
# Convention : Reuss Voigt Hill
#
# Bulk Modulus (GPa) = 76.91648 81.94377 79.43013
# Shear Modulus (GPa) = -1.75333 26.98649 12.61658
#
# Velocity S-wave (km/s) = -0.91828 3.60262 2.46329
# Velocity P-wave (km/s) = 5.98898 7.53095 6.80379
#
# Compressibility (1/GPa) = 0.01300111
#
# Stress axis : x y z
#
# Youngs Moduli (GPa) = 84.01647 91.06244 103.48250
#
# Poissons Ratio (x) = 0.24264 0.24225
# Poissons Ratio (y) = 0.22387 0.49336
# Poissons Ratio (z) = 0.19668 0.43415
#
# Static dielectric constant tensor:
#      x y z
#    x 4.399010 0.000000 0.000000 
#    y 0.000000 3.538210 0.000000 
#    z 0.000000 0.000000 3.958610 
# 
# 
# High freq. dielectric constant tensor:
#      x y z
#    x 1.822300 0.000000 0.000000 
#    y 0.000000 1.808990 0.000000 
#    z 0.000000 0.000000 1.834340 
# 
# From -- ./inp_files/29157.got.cif
#   From: 2010.03.12/outbox.cif.g09.slc.cpg/sg63_15_cif.got.tgz:29157.got - 2010.04.10 19:34:48.
