data_PCOD8260027
_publ_section_title
;
Structure prediction by ZEFSAII (Michael W. Deem and Ramdas Pophale) SiO2 
 PCOD8260027
Probable space group: C M C M
;
_chemical_formula_sum "Si O2"
_cell_formula_units_Z 96
_cell_length_a 9.112170
_cell_length_b 26.959145
_cell_length_c 18.888545
_cell_angle_alpha 90.000000
_cell_angle_beta 90.000000
_cell_angle_gamma 90.000000
_cell_volume 4640.090309
_symmetry_space_group_name_H-M "C M C M"
_symmetry_group_IT_number 63
_symmetry_cell_setting 'orthorhombic'
loop_
_space_group_symop_operation_xyz
x,y,z
-x,-y,1/2+z
x,-y,-z
-x,y,1/2-z
-x,-y,-z
x,y,1/2-z
-x,y,z
x,-y,1/2+z
1/2+x,1/2+y,z
1/2-x,1/2-y,1/2+z
1/2+x,1/2-y,-z
1/2-x,1/2+y,1/2-z
1/2-x,1/2-y,-z
1/2+x,1/2+y,1/2-z
1/2-x,1/2+y,z
1/2+x,1/2-y,1/2+z
loop_
_atom_site_type_symbol
_atom_site_label
_atom_site_fract_x
_atom_site_fract_y
_atom_site_fract_z
Si Si1 0.665891 0.151762 0.831365
Si Si2 0.830412 0.034786 0.169539
Si Si3 0.673442 0.292802 0.545527
Si Si4 0.829171 0.448190 0.088580
Si Si5 0.830562 0.750390 0.331965
Si Si6 0.830852 0.095188 0.036264
O O1 0.685309 0.136897 0.750000
O O2 0.500000 0.170272 0.846445
O O3 0.706153 0.104284 0.876483
O O4 0.778739 0.194570 0.853335
O O5 0.778612 0.046999 0.250000
O O6 0.803753 0.082635 0.119302
O O7 0.000000 0.019209 0.169149
O O8 0.740055 0.989252 0.138510
O O9 0.500000 0.284882 0.543816
O O10 0.750000 0.250000 0.500000
O O11 0.733502 0.289027 0.625481
O O12 0.717102 0.348092 0.520074
O O13 0.000000 0.459565 0.081256
O O14 0.760611 0.444575 0.009965
O O15 0.802741 0.739601 0.250000
O O16 0.000000 0.745517 0.353281
O O17 0.000000 0.087628 0.016343
#
# Coordination Sequence:
#
# PCOD8260027 Si02
#       6
#    16  16  16  16  16  16
#     4   9  18  33  53  79 113 152 193 237 285 339
#     4  10  22  41  63  85 112 149 192 235 279 332
#     4  11  23  39  61  87 116 152 195 243 292 344
#     4  11  22  36  58  88 119 150 186 232 288 345
#     4  10  21  36  55  82 116 152 193 241 291 346
#     4  10  23  41  60  84 114 150 193 238 283 338
#
# _framework density 20.689252
#
# number of rings (size 3 to 8) (size 9 to 14) (size 15 to 20)
#    0.000    1.833    0.000    3.500    0.000   10.667 
#    0.000    3.333    0.000    0.000    0.000    0.000 
#    0.000    0.000    0.000    0.000    0.000    0.000 
#
# Total GULP energy -595256.469451 kJ/mol
# GULP energy per Si atom -12401.176447 kJ/mol
# Density = 2.064216 g / cm^3
# Si number density = 20.689252 Si / 1000 Ang^3
#
#
#
# Elastic Constant Matrix: (Units=GPa)
#
#
# Indices 1 2 3 4 5 6 
#
# 1 90.2144 50.1790 45.1395 0.0000 0.0000 0.0000
# 2 50.1790 76.8216 47.6585 0.0000 0.0000 0.0000
# 3 45.1395 47.6585 107.1005 0.0000 0.0000 0.0000
# 4 0.0000 0.0000 0.0000 33.5544 0.0000 0.0000
# 5 0.0000 0.0000 0.0000 0.0000 33.5353 0.0000
# 6 0.0000 0.0000 0.0000 0.0000 0.0000 33.0939
#
#
#
# Elastic Compliance Matrix: (Units=1/GPa)
#
#
# Indices 1 2 3 4 5 6 
#
# 1 0.018213 -0.009855 -0.003291 0.000000 0.000000 0.000000
# 2 -0.009855 0.023313 -0.006221 0.000000 0.000000 0.000000
# 3 -0.003291 -0.006221 0.013492 0.000000 0.000000 0.000000
# 4 0.000000 0.000000 0.000000 0.029802 0.000000 0.000000
# 5 0.000000 0.000000 0.000000 0.000000 0.029819 0.000000
# 6 0.000000 0.000000 0.000000 0.000000 0.000000 0.030217
#
#
# Mechanical properties :
#
#
# Convention : Reuss Voigt Hill
#
# Bulk Modulus (GPa) = 61.40386 62.23229 61.81807
# Shear Modulus (GPa) = 26.45249 28.78071 27.61660
#
# Velocity S-wave (km/s) = 3.57958 3.73378 3.65749
# Velocity P-wave (km/s) = 6.84310 6.98090 6.91235
#
# Compressibility (1/GPa) = 0.01628562
#
# Stress axis : x y z
#
# Youngs Moduli (GPa) = 54.90672 42.89374 74.11721
#
# Poissons Ratio (x) = 0.42271 0.24390
# Poissons Ratio (y) = 0.54109 0.46106
# Poissons Ratio (z) = 0.18069 0.26683
#
# Static dielectric constant tensor:
#      x y z
#    x 3.723550 0.000000 0.000000 
#    y 0.000000 3.754180 0.000000 
#    z 0.000000 0.000000 4.019170 
# 
# 
# High freq. dielectric constant tensor:
#      x y z
#    x 1.808950 0.000000 0.000000 
#    y 0.000000 1.803510 0.000000 
#    z 0.000000 0.000000 1.824110 
# 
# From -- ./inp_files/51405.got.cif
#   From: 2010.03.12/outbox.cif.g09.slc.cpg/sg63_26_cif.got.tgz:51405.got - 2010.04.10 19:34:48.
