data_PCOD8260407
_publ_section_title
;
Structure prediction by ZEFSAII (Michael W. Deem and Ramdas Pophale) SiO2 
 PCOD8260407
Probable space group: C M C M
;
_chemical_formula_sum "Si O2"
_cell_formula_units_Z 80
_cell_length_a 15.085130
_cell_length_b 29.283024
_cell_length_c 8.810476
_cell_angle_alpha 90.000000
_cell_angle_beta 90.000000
_cell_angle_gamma 90.000000
_cell_volume 3891.924019
_symmetry_space_group_name_H-M "C M C M"
_symmetry_group_IT_number 63
_symmetry_cell_setting 'orthorhombic'
loop_
_space_group_symop_operation_xyz
x,y,z
-x,-y,1/2+z
x,-y,-z
-x,y,1/2-z
-x,-y,-z
x,y,1/2-z
-x,y,z
x,-y,1/2+z
1/2+x,1/2+y,z
1/2-x,1/2-y,1/2+z
1/2+x,1/2-y,-z
1/2-x,1/2+y,1/2-z
1/2-x,1/2-y,-z
1/2+x,1/2+y,1/2-z
1/2-x,1/2+y,z
1/2+x,1/2-y,1/2+z
loop_
_atom_site_type_symbol
_atom_site_label
_atom_site_fract_x
_atom_site_fract_y
_atom_site_fract_z
Si Si1 0.000000 0.806405 0.424548
Si Si2 0.500000 0.198416 0.076194
Si Si3 0.344581 0.639142 0.069554
Si Si4 0.345881 0.856939 0.068068
Si Si5 0.142626 0.456493 0.415764
Si Si6 0.147399 0.955269 0.419497
O O1 0.913252 0.823618 0.510744
O O2 0.000000 0.823116 0.250000
O O3 0.000000 0.752305 0.434249
O O4 0.500000 0.181490 0.250000
O O5 0.412841 0.180896 0.990908
O O6 0.339163 0.639834 0.250000
O O7 0.250131 0.653106 0.000740
O O8 0.377619 0.589338 0.015961
O O9 0.338360 0.856113 0.250000
O O10 0.380356 0.907057 0.011523
O O11 0.100274 0.500000 0.500000
O O12 0.100385 0.458257 0.250000
O O13 0.247812 0.460947 0.409480
O O14 0.107585 0.950614 0.250000
O O15 0.105963 0.000000 0.500000
#
# Coordination Sequence:
#
# PCOD8260407 Si02
#       6
#     8   8  16  16  16  16
#     4  11  25  45  64  85 116 151 193 248 306 361
#     4  11  25  43  64  89 114 147 196 252 305 357
#     4  11  22  38  62  91 121 156 199 243 292 352
#     4  10  21  39  62  88 121 159 196 239 295 354
#     4   8  15  27  48  79 113 151 191 229 274 331
#     4   9  16  29  51  82 119 158 197 237 285 341
#
# _framework density 20.555384
#
# number of rings (size 3 to 8) (size 9 to 14) (size 15 to 20)
#    0.000    2.200    0.000    4.800    0.000    8.000 
#    0.000    1.000    0.000    0.000    0.000    0.000 
#    0.000    0.000    0.000    0.000    0.000    0.000 
#
# Total GULP energy -495903.398394 kJ/mol
# GULP energy per Si atom -12397.584960 kJ/mol
# Density = 2.050860 g / cm^3
# Si number density = 20.555384 Si / 1000 Ang^3
#
#
#
# Elastic Constant Matrix: (Units=GPa)
#
#
# Indices 1 2 3 4 5 6 
#
# 1 92.5556 51.9034 51.1683 0.0000 0.0000 0.0000
# 2 51.9034 115.4010 61.9335 0.0000 0.0000 0.0000
# 3 51.1683 61.9335 158.8777 0.0000 0.0000 0.0000
# 4 0.0000 0.0000 0.0000 36.2764 0.0000 0.0000
# 5 0.0000 0.0000 0.0000 0.0000 14.8998 0.0000
# 6 0.0000 0.0000 0.0000 0.0000 0.0000 5.5658
#
#
#
# Elastic Compliance Matrix: (Units=1/GPa)
#
#
# Indices 1 2 3 4 5 6 
#
# 1 0.015412 -0.005397 -0.002860 0.000000 0.000000 0.000000
# 2 -0.005397 0.012848 -0.003270 0.000000 0.000000 0.000000
# 3 -0.002860 -0.003270 0.008490 0.000000 0.000000 0.000000
# 4 0.000000 0.000000 0.000000 0.027566 0.000000 0.000000
# 5 0.000000 0.000000 0.000000 0.000000 0.067115 0.000000
# 6 0.000000 0.000000 0.000000 0.000000 0.000000 0.179670
#
#
# Mechanical properties :
#
#
# Convention : Reuss Voigt Hill
#
# Bulk Modulus (GPa) = 73.01463 77.42719 75.22091
# Shear Modulus (GPa) = 14.76147 24.80365 19.78256
#
# Velocity S-wave (km/s) = 2.68270 3.47749 3.10563
# Velocity P-wave (km/s) = 6.72264 7.33984 7.03801
#
# Compressibility (1/GPa) = 0.01369589
#
# Stress axis : x y z
#
# Youngs Moduli (GPa) = 64.88543 77.83406 117.78660
#
# Poissons Ratio (x) = 0.42007 0.33683
# Poissons Ratio (y) = 0.35018 0.38518
# Poissons Ratio (z) = 0.18555 0.25453
#
# Static dielectric constant tensor:
#      x y z
#    x 3.141650 0.000000 0.000000 
#    y 0.000000 3.863070 0.000000 
#    z 0.000000 0.000000 3.976840 
# 
# 
# High freq. dielectric constant tensor:
#      x y z
#    x 1.787730 0.000000 0.000000 
#    y 0.000000 1.808180 0.000000 
#    z 0.000000 0.000000 1.812440 
# 
# From -- ./inp_files/6514.got.cif
#   From: 2010.03.12/outbox.cif.g09.slc.cpg/sg63_4_cif.got.tgz:6514.got - 2010.04.10 19:34:48.
