data_PCOD8260770
_publ_section_title
;
Structure prediction by ZEFSAII (Michael W. Deem and Ramdas Pophale) SiO2 
 PCOD8260770
Probable space group: C M C M
;
_chemical_formula_sum "Si O2"
_cell_formula_units_Z 112
_cell_length_a 22.372250
_cell_length_b 15.018190
_cell_length_c 15.371014
_cell_angle_alpha 90.000000
_cell_angle_beta 90.000000
_cell_angle_gamma 90.000000
_cell_volume 5164.517772
_symmetry_space_group_name_H-M "C M C M"
_symmetry_group_IT_number 63
_symmetry_cell_setting 'orthorhombic'
loop_
_space_group_symop_operation_xyz
x,y,z
-x,-y,1/2+z
x,-y,-z
-x,y,1/2-z
-x,-y,-z
x,y,1/2-z
-x,y,z
x,-y,1/2+z
1/2+x,1/2+y,z
1/2-x,1/2-y,1/2+z
1/2+x,1/2-y,-z
1/2-x,1/2+y,1/2-z
1/2-x,1/2-y,-z
1/2+x,1/2+y,1/2-z
1/2-x,1/2+y,z
1/2+x,1/2-y,1/2+z
loop_
_atom_site_type_symbol
_atom_site_label
_atom_site_fract_x
_atom_site_fract_y
_atom_site_fract_z
Si Si1 0.136213 0.150841 0.937976
Si Si2 0.159559 0.675523 0.150508
Si Si3 0.933848 0.471295 0.852204
Si Si4 0.356510 0.135982 0.650951
Si Si5 0.765292 0.395017 0.003856
Si Si6 0.567187 0.498614 0.848768
Si Si7 0.569579 0.698596 0.398007
O O1 0.145130 0.219901 0.858935
O O2 0.112657 0.056413 0.904759
O O3 0.196877 0.133089 0.989568
O O4 0.088116 0.196359 0.001288
O O5 0.179087 0.656056 0.250000
O O6 0.100953 0.619062 0.124318
O O7 0.212711 0.648327 0.086038
O O8 0.940616 0.482460 0.750000
O O9 0.897416 0.556374 0.887709
O O10 0.000000 0.467788 0.895123
O O11 0.334809 0.115729 0.750000
O O12 0.299708 0.144841 0.587596
O O13 0.394087 0.226387 0.652932
O O14 0.773599 0.500000 0.000000
O O15 0.570778 0.530926 0.750000
O O16 0.500000 0.511944 0.885439
O O17 0.585762 0.395793 0.854609
O O18 0.500000 0.721116 0.388994
#
# Coordination Sequence:
#
# PCOD8260770 Si02
#       7
#    16  16  16  16  16  16  16
#     4  12  25  44  65  96 134 176 226 280 332 400
#     4  11  24  44  67  94 133 176 222 276 334 398
#     4   9  19  38  65  97 133 173 217 268 329 396
#     4  11  23  41  66 100 138 177 219 273 334 397
#     4  12  25  46  68  96 136 178 227 280 332 399
#     4  10  22  42  67  97 133 175 225 279 338 400
#     4  11  23  41  67  99 134 173 222 281 343 400
#
# _framework density 21.686439
#
# number of rings (size 3 to 8) (size 9 to 14) (size 15 to 20)
#    0.000    1.143    2.857    3.429    0.000    4.857 
#    0.000    4.286    0.000    0.000    0.000    0.000 
#    0.000    0.000    0.000    0.000    0.000    0.000 
#
# Total GULP energy -694654.513098 kJ/mol
# GULP energy per Si atom -12404.544877 kJ/mol
# Density = 2.163708 g / cm^3
# Si number density = 21.686439 Si / 1000 Ang^3
#
#
#
# Elastic Constant Matrix: (Units=GPa)
#
#
# Indices 1 2 3 4 5 6 
#
# 1 91.0206 45.0746 34.8104 0.0000 0.0000 0.0000
# 2 45.0746 118.8719 26.3102 0.0000 0.0000 0.0000
# 3 34.8104 26.3102 101.1750 0.0000 0.0000 0.0000
# 4 0.0000 0.0000 0.0000 31.0708 0.0000 0.0000
# 5 0.0000 0.0000 0.0000 0.0000 21.4160 0.0000
# 6 0.0000 0.0000 0.0000 0.0000 0.0000 32.5440
#
#
#
# Elastic Compliance Matrix: (Units=1/GPa)
#
#
# Indices 1 2 3 4 5 6 
#
# 1 0.014823 -0.004766 -0.003861 0.000000 0.000000 0.000000
# 2 -0.004766 0.010459 -0.001080 0.000000 0.000000 0.000000
# 3 -0.003861 -0.001080 0.011493 0.000000 0.000000 0.000000
# 4 0.000000 0.000000 0.000000 0.032185 0.000000 0.000000
# 5 0.000000 0.000000 0.000000 0.000000 0.046694 0.000000
# 6 0.000000 0.000000 0.000000 0.000000 0.000000 0.030728
#
#
# Mechanical properties :
#
#
# Convention : Reuss Voigt Hill
#
# Bulk Modulus (GPa) = 57.59907 58.16198 57.88053
# Shear Modulus (GPa) = 29.14057 30.66433 29.90245
#
# Velocity S-wave (km/s) = 3.66966 3.76438 3.71732
# Velocity P-wave (km/s) = 6.67629 6.76549 6.72104
#
# Compressibility (1/GPa) = 0.01736139
#
# Stress axis : x y z
#
# Youngs Moduli (GPa) = 67.46110 95.61382 87.00959
#
# Poissons Ratio (x) = 0.45573 0.33592
# Poissons Ratio (y) = 0.32154 0.09396
# Poissons Ratio (z) = 0.26045 0.10325
#
# Static dielectric constant tensor:
#      x y z
#    x 3.969490 0.000000 0.000000 
#    y 0.000000 4.024890 0.000000 
#    z 0.000000 0.000000 3.783440 
# 
# 
# High freq. dielectric constant tensor:
#      x y z
#    x 1.848910 0.000000 0.000000 
#    y 0.000000 1.865910 0.000000 
#    z 0.000000 0.000000 1.847980 
# 
# From -- ./inp_files/36851.got.cif
#   From: 2010.03.12/outbox.cif.g09.slc.cpg/sg63_19_cif.got.tgz:36851.got - 2010.04.10 19:34:48.
