data_PCOD8260396
_publ_section_title
;
Structure prediction by ZEFSAII (Michael W. Deem and Ramdas Pophale) SiO2 
 PCOD8260396
Probable space group: C M C M
;
_chemical_formula_sum "Si O2"
_cell_formula_units_Z 72
_cell_length_a 17.615363
_cell_length_b 23.450524
_cell_length_c 9.090132
_cell_angle_alpha 90.000000
_cell_angle_beta 90.000000
_cell_angle_gamma 90.000000
_cell_volume 3755.038017
_symmetry_space_group_name_H-M "C M C M"
_symmetry_group_IT_number 63
_symmetry_cell_setting 'orthorhombic'
loop_
_space_group_symop_operation_xyz
x,y,z
-x,-y,1/2+z
x,-y,-z
-x,y,1/2-z
-x,-y,-z
x,y,1/2-z
-x,y,z
x,-y,1/2+z
1/2+x,1/2+y,z
1/2-x,1/2-y,1/2+z
1/2+x,1/2-y,-z
1/2-x,1/2+y,1/2-z
1/2-x,1/2-y,-z
1/2+x,1/2+y,1/2-z
1/2-x,1/2+y,z
1/2+x,1/2-y,1/2+z
loop_
_atom_site_type_symbol
_atom_site_label
_atom_site_fract_x
_atom_site_fract_y
_atom_site_fract_z
Si Si1 0.704641 0.939988 0.577776
Si Si2 0.363122 0.616476 0.417633
Si Si3 0.500000 0.439613 0.076460
Si Si4 0.912464 0.344964 0.579412
Si Si5 0.670730 0.746989 0.081585
O O1 0.700666 0.951086 0.750000
O O2 0.783078 0.909915 0.532734
O O3 0.636576 0.898912 0.525510
O O4 0.695389 0.000000 0.500000
O O5 0.382514 0.598328 0.250000
O O6 0.425546 0.594244 0.529393
O O7 0.362684 0.684113 0.431817
O O8 0.500000 0.447713 0.250000
O O9 0.500000 0.500000 0.000000
O O10 0.895440 0.332105 0.750000
O O11 0.890455 0.289142 0.488694
O O12 0.000000 0.359707 0.550932
O O13 0.684353 0.764202 0.250000
O O14 0.750000 0.750000 0.000000
#
# Coordination Sequence:
#
# PCOD8260396 Si02
#       5
#    16  16   8  16  16
#     4  10  21  39  61  87 117 157 202 248 300 358
#     4  10  22  41  62  87 123 161 201 250 307 362
#     4  12  26  42  62  90 124 162 207 252 305 366
#     4  10  22  41  62  88 125 164 202 249 306 361
#     4  11  22  39  64  91 122 157 199 249 302 362
#
# _framework density 19.174239
#
# number of rings (size 3 to 8) (size 9 to 14) (size 15 to 20)
#    0.000    1.556    2.222    2.333    1.556    6.222 
#    0.000    0.000    0.000    0.000    0.000    0.000 
#    0.000    0.000    0.000    0.000    0.000    0.000 
#
# Total GULP energy -446587.653021 kJ/mol
# GULP energy per Si atom -12405.212584 kJ/mol
# Density = 1.913060 g / cm^3
# Si number density = 19.174239 Si / 1000 Ang^3
#
#
#
# Elastic Constant Matrix: (Units=GPa)
#
#
# Indices 1 2 3 4 5 6 
#
# 1 148.3490 69.2994 67.5407 0.0000 0.0000 0.0000
# 2 69.2994 137.4467 62.6149 0.0000 0.0000 0.0000
# 3 67.5407 62.6149 107.2902 0.0000 0.0000 0.0000
# 4 0.0000 0.0000 0.0000 38.7144 0.0000 0.0000
# 5 0.0000 0.0000 0.0000 0.0000 23.7347 0.0000
# 6 0.0000 0.0000 0.0000 0.0000 0.0000 14.6015
#
#
#
# Elastic Compliance Matrix: (Units=1/GPa)
#
#
# Indices 1 2 3 4 5 6 
#
# 1 0.010311 -0.003054 -0.004709 0.000000 0.000000 0.000000
# 2 -0.003054 0.010815 -0.004389 0.000000 0.000000 0.000000
# 3 -0.004709 -0.004389 0.014846 0.000000 0.000000 0.000000
# 4 0.000000 0.000000 0.000000 0.025830 0.000000 0.000000
# 5 0.000000 0.000000 0.000000 0.000000 0.042132 0.000000
# 6 0.000000 0.000000 0.000000 0.000000 0.000000 0.068486
#
#
# Mechanical properties :
#
#
# Convention : Reuss Voigt Hill
#
# Bulk Modulus (GPa) = 85.69870 87.99956 86.84913
# Shear Modulus (GPa) = 24.92345 28.31885 26.62115
#
# Velocity S-wave (km/s) = 3.60924 3.84724 3.73014
# Velocity P-wave (km/s) = 7.88420 8.10736 7.99656
#
# Compressibility (1/GPa) = 0.01166879
#
# Stress axis : x y z
#
# Youngs Moduli (GPa) = 96.98163 92.46682 67.35638
#
# Poissons Ratio (x) = 0.28236 0.31718
# Poissons Ratio (y) = 0.29615 0.29564
# Poissons Ratio (z) = 0.45668 0.40585
#
# Static dielectric constant tensor:
#      x y z
#    x 3.608050 0.000000 0.000000 
#    y 0.000000 3.886160 0.000000 
#    z 0.000000 0.000000 3.599510 
# 
# 
# High freq. dielectric constant tensor:
#      x y z
#    x 1.755860 0.000000 0.000000 
#    y 0.000000 1.757200 0.000000 
#    z 0.000000 0.000000 1.744820 
# 
# From -- ./inp_files/6095.got.cif
#   From: 2010.03.12/outbox.cif.g09.slc.cpg/sg63_4_cif.got.tgz:6095.got - 2010.04.10 19:34:48.
