data_PCOD8260852
_publ_section_title
;
Structure prediction by ZEFSAII (Michael W. Deem and Ramdas Pophale) SiO2 
 PCOD8260852
Probable space group: C M C M
;
_chemical_formula_sum "Si O2"
_cell_formula_units_Z 64
_cell_length_a 17.369469
_cell_length_b 4.951990
_cell_length_c 30.205983
_cell_angle_alpha 90.000000
_cell_angle_beta 90.000000
_cell_angle_gamma 90.000000
_cell_volume 2598.120410
_symmetry_space_group_name_H-M "C M C M"
_symmetry_group_IT_number 63
_symmetry_cell_setting 'orthorhombic'
loop_
_space_group_symop_operation_xyz
x,y,z
-x,-y,1/2+z
x,-y,-z
-x,y,1/2-z
-x,-y,-z
x,y,1/2-z
-x,y,z
x,-y,1/2+z
1/2+x,1/2+y,z
1/2-x,1/2-y,1/2+z
1/2+x,1/2-y,-z
1/2-x,1/2+y,1/2-z
1/2-x,1/2-y,-z
1/2+x,1/2+y,1/2-z
1/2-x,1/2+y,z
1/2+x,1/2-y,1/2+z
loop_
_atom_site_type_symbol
_atom_site_label
_atom_site_fract_x
_atom_site_fract_y
_atom_site_fract_z
Si Si1 0.301034 0.089368 0.301106
Si Si2 0.695608 0.472427 0.407914
Si Si3 0.412939 0.179386 0.459439
Si Si4 0.086895 0.352009 0.131963
O O1 0.324957 0.062170 0.250000
O O2 0.232339 0.882264 0.313120
O O3 0.376530 0.039405 0.330097
O O4 0.767266 0.674702 0.404028
O O5 0.644195 0.439542 0.453263
O O6 0.632973 0.567164 0.371346
O O7 0.500000 0.283195 0.468244
O O8 0.382645 0.000000 0.500000
O O9 0.408988 0.005305 0.414672
O O10 0.000000 0.283379 0.145714
#
# Coordination Sequence:
#
# PCOD8260852 Si02
#       4
#    16  16  16  16
#     4  10  23  44  70 100 135 175 219 271 340 410
#     4  12  24  43  66  94 130 171 223 277 329 393
#     4  10  24  46  68  96 138 185 231 284 347 409
#     4  11  24  43  69 100 137 178 227 279 339 406
#
# _framework density 24.633194
#
# number of rings (size 3 to 8) (size 9 to 14) (size 15 to 20)
#    0.000    1.250    2.500    2.250    3.500    2.500 
#    0.000    3.750    0.000    4.500    0.000    0.000 
#    0.000    0.000    0.000    0.000    0.000    0.000 
#
# Total GULP energy -396496.284789 kJ/mol
# GULP energy per Si atom -12390.508900 kJ/mol
# Density = 2.457713 g / cm^3
# Si number density = 24.633194 Si / 1000 Ang^3
#
#
#
# Elastic Constant Matrix: (Units=GPa)
#
#
# Indices 1 2 3 4 5 6 
#
# 1 125.5219 27.4257 29.0858 0.0000 0.0000 0.0000
# 2 27.4257 98.6251 19.2696 0.0000 0.0000 0.0000
# 3 29.0858 19.2696 93.9147 0.0000 0.0000 0.0000
# 4 0.0000 0.0000 0.0000 30.6986 0.0000 0.0000
# 5 0.0000 0.0000 0.0000 0.0000 34.8433 0.0000
# 6 0.0000 0.0000 0.0000 0.0000 0.0000 18.9743
#
#
#
# Elastic Compliance Matrix: (Units=1/GPa)
#
#
# Indices 1 2 3 4 5 6 
#
# 1 0.008957 -0.002030 -0.002357 0.000000 0.000000 0.000000
# 2 -0.002030 0.011023 -0.001633 0.000000 0.000000 0.000000
# 3 -0.002357 -0.001633 0.011713 0.000000 0.000000 0.000000
# 4 0.000000 0.000000 0.000000 0.032575 0.000000 0.000000
# 5 0.000000 0.000000 0.000000 0.000000 0.028700 0.000000
# 6 0.000000 0.000000 0.000000 0.000000 0.000000 0.052703
#
#
# Mechanical properties :
#
#
# Convention : Reuss Voigt Hill
#
# Bulk Modulus (GPa) = 50.88585 52.18041 51.53313
# Shear Modulus (GPa) = 30.43927 33.05528 31.74727
#
# Velocity S-wave (km/s) = 3.51907 3.66717 3.59388
# Velocity P-wave (km/s) = 6.10033 6.25778 6.17956
#
# Compressibility (1/GPa) = 0.01965183
#
# Stress axis : x y z
#
# Youngs Moduli (GPa) = 111.65032 90.71952 85.37445
#
# Poissons Ratio (x) = 0.18417 0.20126
# Poissons Ratio (y) = 0.22666 0.13942
# Poissons Ratio (z) = 0.26320 0.14814
#
# Static dielectric constant tensor:
#      x y z
#    x 5.047890 0.000000 0.000000 
#    y 0.000000 4.514360 0.000000 
#    z 0.000000 0.000000 4.650830 
# 
# 
# High freq. dielectric constant tensor:
#      x y z
#    x 1.990970 0.000000 0.000000 
#    y 0.000000 1.986250 0.000000 
#    z 0.000000 0.000000 1.974360 
# 
# From -- ./inp_files/73668.got.cif
#   From: 2010.03.12/outbox.cif.g09.slc.cpg/sg63_37_cif.got.tgz:73668.got - 2010.04.10 19:34:48.
