data_PCOD8260954
_publ_section_title
;
Structure prediction by ZEFSAII (Michael W. Deem and Ramdas Pophale) SiO2 
 PCOD8260954
Probable space group: C M C M
;
_chemical_formula_sum "Si O2"
_cell_formula_units_Z 68
_cell_length_a 9.591037
_cell_length_b 17.150156
_cell_length_c 19.562145
_cell_angle_alpha 90.000000
_cell_angle_beta 90.000000
_cell_angle_gamma 90.000000
_cell_volume 3217.733818
_symmetry_space_group_name_H-M "C M C M"
_symmetry_group_IT_number 63
_symmetry_cell_setting 'orthorhombic'
loop_
_space_group_symop_operation_xyz
x,y,z
-x,-y,1/2+z
x,-y,-z
-x,y,1/2-z
-x,-y,-z
x,y,1/2-z
-x,y,z
x,-y,1/2+z
1/2+x,1/2+y,z
1/2-x,1/2-y,1/2+z
1/2+x,1/2-y,-z
1/2-x,1/2+y,1/2-z
1/2-x,1/2-y,-z
1/2+x,1/2+y,1/2-z
1/2-x,1/2+y,z
1/2+x,1/2-y,1/2+z
loop_
_atom_site_type_symbol
_atom_site_label
_atom_site_fract_x
_atom_site_fract_y
_atom_site_fract_z
Si Si1 0.500000 0.261824 0.897043
Si Si2 0.000000 0.681306 0.750000
Si Si3 0.000000 0.325906 0.961796
Si Si4 0.211356 0.823194 0.250000
Si Si5 0.500000 0.495991 0.078130
Si Si6 0.264326 0.613125 0.107738
Si Si7 0.662174 0.846186 0.750000
Si Si8 0.500000 0.670685 0.632397
O O1 0.500000 0.228375 0.821197
O O2 0.361203 0.312606 0.905865
O O3 0.500000 0.197884 0.958358
O O4 0.858400 0.629684 0.750000
O O5 0.862838 0.378693 0.946504
O O6 0.000000 0.250319 0.911062
O O7 0.254128 0.731965 0.250000
O O8 0.133625 0.839361 0.180075
O O9 0.357251 0.535078 0.104550
O O10 0.500000 0.403603 0.085347
O O11 0.500000 0.500000 0.000000
O O12 0.198290 0.605335 0.182949
O O13 0.500000 0.819610 0.750000
#
# Coordination Sequence:
#
# PCOD8260954 Si02
#       8
#     8   4   8   8   8  16   8   8
#     4  11  21  32  59  96 136 163 225 269 334 390
#     4  12  20  34  50  96 128 160 198 294 324 364
#     4  12  21  39  70 101 124 172 233 284 327 393
#     4  11  20  35  65  92 136 163 209 283 340 387
#     4  11  28  47  64  94 144 183 228 276 332 418
#     4  11  22  40  67 100 130 181 223 278 333 403
#     4  12  18  38  69 104 133 164 228 295 332 400
#     4  11  21  43  67  93 132 178 214 266 346 397
#
# _framework density 21.132887
#
# number of rings (size 3 to 8) (size 9 to 14) (size 15 to 20)
#    0.000    0.706    7.059    2.118    0.000    5.176 
#    0.000    1.765    2.588    0.000    0.000    0.000 
#    0.000    0.000    0.000    0.000    0.000    0.000 
#
# Total GULP energy -421287.130856 kJ/mol
# GULP energy per Si atom -12390.797966 kJ/mol
# Density = 2.108479 g / cm^3
# Si number density = 21.132887 Si / 1000 Ang^3
#
#
#
# Elastic Constant Matrix: (Units=GPa)
#
#
# Indices 1 2 3 4 5 6 
#
# 1 153.0024 7.7158 21.5405 0.0000 0.0000 0.0000
# 2 7.7158 48.9608 -3.1287 0.0000 0.0000 0.0000
# 3 21.5405 -3.1287 109.2421 0.0000 0.0000 0.0000
# 4 0.0000 0.0000 0.0000 22.3018 0.0000 0.0000
# 5 0.0000 0.0000 0.0000 0.0000 33.1933 0.0000
# 6 0.0000 0.0000 0.0000 0.0000 0.0000 12.5619
#
#
#
# Elastic Compliance Matrix: (Units=1/GPa)
#
#
# Indices 1 2 3 4 5 6 
#
# 1 0.006787 -0.001157 -0.001371 0.000000 0.000000 0.000000
# 2 -0.001157 0.020659 0.000820 0.000000 0.000000 0.000000
# 3 -0.001371 0.000820 0.009448 0.000000 0.000000 0.000000
# 4 0.000000 0.000000 0.000000 0.044839 0.000000 0.000000
# 5 0.000000 0.000000 0.000000 0.000000 0.030127 0.000000
# 6 0.000000 0.000000 0.000000 0.000000 0.000000 0.079606
#
#
# Mechanical properties :
#
#
# Convention : Reuss Voigt Hill
#
# Bulk Modulus (GPa) = 29.87148 40.38448 35.12798
# Shear Modulus (GPa) = 24.26680 32.61659 28.44170
#
# Velocity S-wave (km/s) = 3.39233 3.93288 3.67256
# Velocity P-wave (km/s) = 5.43227 6.30672 5.88576
#
# Compressibility (1/GPa) = 0.03347675
#
# Stress axis : x y z
#
# Youngs Moduli (GPa) = 147.33429 48.40445 105.84372
#
# Poissons Ratio (x) = 0.05602 0.14516
# Poissons Ratio (y) = 0.17050 -0.08678
# Poissons Ratio (z) = 0.20206 -0.03969
#
# Static dielectric constant tensor:
#      x y z
#    x 4.195570 0.000000 0.000000 
#    y 0.000000 2.921200 0.000000 
#    z 0.000000 0.000000 3.940110 
# 
# 
# High freq. dielectric constant tensor:
#      x y z
#    x 1.855070 0.000000 0.000000 
#    y 0.000000 1.779380 0.000000 
#    z 0.000000 0.000000 1.845040 
# 
# From -- ./inp_files/50562.got.cif
#   From: 2010.03.12/outbox.cif.g09.slc.cpg/sg63_26_cif.got.tgz:50562.got - 2010.04.10 19:34:48.
