data_PCOD8260263
_publ_section_title
;
Structure prediction by ZEFSAII (Michael W. Deem and Ramdas Pophale) SiO2 
 PCOD8260263
Probable space group: C M C M
;
_chemical_formula_sum "Si O2"
_cell_formula_units_Z 80
_cell_length_a 23.220272
_cell_length_b 12.610207
_cell_length_c 14.293510
_cell_angle_alpha 90.000000
_cell_angle_beta 90.000000
_cell_angle_gamma 90.000000
_cell_volume 4185.317489
_symmetry_space_group_name_H-M "C M C M"
_symmetry_group_IT_number 63
_symmetry_cell_setting 'orthorhombic'
loop_
_space_group_symop_operation_xyz
x,y,z
-x,-y,1/2+z
x,-y,-z
-x,y,1/2-z
-x,-y,-z
x,y,1/2-z
-x,y,z
x,-y,1/2+z
1/2+x,1/2+y,z
1/2-x,1/2-y,1/2+z
1/2+x,1/2-y,-z
1/2-x,1/2+y,1/2-z
1/2-x,1/2-y,-z
1/2+x,1/2+y,1/2-z
1/2-x,1/2+y,z
1/2+x,1/2-y,1/2+z
loop_
_atom_site_type_symbol
_atom_site_label
_atom_site_fract_x
_atom_site_fract_y
_atom_site_fract_z
Si Si1 0.433908 0.335201 0.250000
Si Si2 0.566543 0.391024 0.048920
Si Si3 0.652158 0.038665 0.401744
Si Si4 0.931416 0.597635 0.250000
Si Si5 0.232099 0.346492 0.359382
Si Si6 0.827693 0.760956 0.476932
O O1 0.500000 0.305822 0.250000
O O2 0.418476 0.403889 0.341088
O O3 0.406016 0.218011 0.250000
O O4 0.500000 0.359490 0.031502
O O5 0.606283 0.297323 0.008818
O O6 0.582749 0.500000 0.000000
O O7 0.595352 0.038167 0.338637
O O8 0.678862 0.155271 0.414393
O O9 0.627882 0.000000 0.500000
O O10 0.702196 0.961794 0.362594
O O11 0.000000 0.585943 0.250000
O O12 0.239812 0.313508 0.250000
O O13 0.195286 0.258487 0.417388
O O14 0.292795 0.350070 0.416705
#
# Coordination Sequence:
#
# PCOD8260263 Si02
#       6
#     8  16  16   8  16  16
#     4   9  18  34  57  84 110 148 198 233 278 347
#     4  10  21  38  60  86 118 150 192 245 293 348
#     4  10  21  38  58  84 120 152 193 246 287 344
#     4  11  20  34  61  88 114 154 199 237 290 347
#     4  10  22  38  59  85 119 154 194 243 288 346
#     4  10  22  38  61  87 117 154 197 236 297 347
#
# _framework density 19.114439999999998
#
# number of rings (size 3 to 8) (size 9 to 14) (size 15 to 20)
#    0.000    2.000    3.000    0.000    2.800    4.400 
#    1.800    3.000    0.000    0.000    0.000    0.000 
#    0.000    0.000    0.000    0.000    0.000    0.000 
#
# Total GULP energy -495673.265356 kJ/mol
# GULP energy per Si atom -12391.831634 kJ/mol
# Density = 1.907093 g / cm^3
# Si number density = 19.114440 Si / 1000 Ang^3
#
#
#
# Elastic Constant Matrix: (Units=GPa)
#
#
# Indices 1 2 3 4 5 6 
#
# 1 104.3651 53.8075 46.1058 0.0000 0.0000 0.0000
# 2 53.8075 93.2956 43.0782 0.0000 0.0000 0.0000
# 3 46.1058 43.0782 131.0300 0.0000 0.0000 0.0000
# 4 0.0000 0.0000 0.0000 26.9806 0.0000 0.0000
# 5 0.0000 0.0000 0.0000 0.0000 28.7145 0.0000
# 6 0.0000 0.0000 0.0000 0.0000 0.0000 29.4005
#
#
#
# Elastic Compliance Matrix: (Units=1/GPa)
#
#
# Indices 1 2 3 4 5 6 
#
# 1 0.014437 -0.007051 -0.002762 0.000000 0.000000 0.000000
# 2 -0.007051 0.016081 -0.002806 0.000000 0.000000 0.000000
# 3 -0.002762 -0.002806 0.009526 0.000000 0.000000 0.000000
# 4 0.000000 0.000000 0.000000 0.037064 0.000000 0.000000
# 5 0.000000 0.000000 0.000000 0.000000 0.034826 0.000000
# 6 0.000000 0.000000 0.000000 0.000000 0.000000 0.034013
#
#
# Mechanical properties :
#
#
# Convention : Reuss Voigt Hill
#
# Bulk Modulus (GPa) = 67.53768 68.29705 67.91736
# Shear Modulus (GPa) = 28.38975 29.39907 28.89441
#
# Velocity S-wave (km/s) = 3.85808 3.92606 3.89222
# Velocity P-wave (km/s) = 7.43346 7.50734 7.47049
#
# Compressibility (1/GPa) = 0.01480655
#
# Stress axis : x y z
#
# Youngs Moduli (GPa) = 69.26485 62.18545 104.97511
#
# Poissons Ratio (x) = 0.43849 0.28993
# Poissons Ratio (y) = 0.48841 0.29453
# Poissons Ratio (z) = 0.19130 0.17447
#
# Static dielectric constant tensor:
#      x y z
#    x 3.482270 0.000000 0.000000 
#    y 0.000000 3.412870 0.000000 
#    z 0.000000 0.000000 3.884840 
# 
# 
# High freq. dielectric constant tensor:
#      x y z
#    x 1.741910 0.000000 0.000000 
#    y 0.000000 1.724840 0.000000 
#    z 0.000000 0.000000 1.751100 
# 
# From -- ./inp_files/36517.got.cif
#   From: 2010.03.12/outbox.cif.g09.slc.cpg/sg63_19_cif.got.tgz:36517.got - 2010.04.10 19:34:48.
