data_PCOD8260074
_publ_section_title
;
Structure prediction by ZEFSAII (Michael W. Deem and Ramdas Pophale) SiO2 
 PCOD8260074
Probable space group: C M C M
;
_chemical_formula_sum "Si O2"
_cell_formula_units_Z 96
_cell_length_a 20.133633
_cell_length_b 14.101474
_cell_length_c 16.807157
_cell_angle_alpha 90.000000
_cell_angle_beta 90.000000
_cell_angle_gamma 90.000000
_cell_volume 4771.785530
_symmetry_space_group_name_H-M "C M C M"
_symmetry_group_IT_number 63
_symmetry_cell_setting 'orthorhombic'
loop_
_space_group_symop_operation_xyz
x,y,z
-x,-y,1/2+z
x,-y,-z
-x,y,1/2-z
-x,-y,-z
x,y,1/2-z
-x,y,z
x,-y,1/2+z
1/2+x,1/2+y,z
1/2-x,1/2-y,1/2+z
1/2+x,1/2-y,-z
1/2-x,1/2+y,1/2-z
1/2-x,1/2-y,-z
1/2+x,1/2+y,1/2-z
1/2-x,1/2+y,z
1/2+x,1/2-y,1/2+z
loop_
_atom_site_type_symbol
_atom_site_label
_atom_site_fract_x
_atom_site_fract_y
_atom_site_fract_z
Si Si1 0.723044 0.049700 0.417571
Si Si2 0.323495 0.236478 0.345141
Si Si3 0.923051 0.881533 0.085125
Si Si4 0.927321 0.266188 0.158983
Si Si5 0.200951 0.359482 0.158405
Si Si6 0.375724 0.585339 0.410093
O O1 0.675338 0.135815 0.391274
O O2 0.797127 0.089817 0.423536
O O3 0.700478 0.000000 0.500000
O O4 0.718024 0.969475 0.350489
O O5 0.322598 0.220787 0.250000
O O6 0.388501 0.294195 0.370342
O O7 0.259861 0.295288 0.377423
O O8 0.000000 0.871077 0.103964
O O9 0.896474 0.981235 0.119574
O O10 0.910831 0.881695 0.991106
O O11 0.936325 0.294782 0.250000
O O12 0.870571 0.332879 0.118317
O O13 0.900643 0.158321 0.156156
O O14 0.000000 0.278261 0.116968
O O15 0.195759 0.332944 0.250000
#
# Coordination Sequence:
#
# PCOD8260074 Si02
#       6
#    16  16  16  16  16  16
#     4  12  23  38  63  92 122 160 208 259 312 375
#     4  11  24  41  63  90 123 166 214 260 310 372
#     4  11  23  40  61  91 128 164 200 249 314 376
#     4  10  21  36  58  88 121 163 208 254 312 372
#     4  10  21  38  60  87 123 162 206 259 310 367
#     4  11  20  37  62  94 128 162 198 253 311 377
#
# _framework density 20.118255000000001
#
# number of rings (size 3 to 8) (size 9 to 14) (size 15 to 20)
#    0.000    1.167    5.000    2.500    2.333    3.000 
#    0.000    0.833    0.000    3.000    0.000    0.000 
#    0.000    0.000    0.000    0.000    0.000    0.000 
#
# Total GULP energy -595083.280823 kJ/mol
# GULP energy per Si atom -12397.568350 kJ/mol
# Density = 2.007247 g / cm^3
# Si number density = 20.118255 Si / 1000 Ang^3
#
#
#
# Elastic Constant Matrix: (Units=GPa)
#
#
# Indices 1 2 3 4 5 6 
#
# 1 90.8937 39.8068 32.8242 0.0000 0.0000 0.0000
# 2 39.8068 113.6970 29.6508 0.0000 0.0000 0.0000
# 3 32.8242 29.6508 39.2763 0.0000 0.0000 0.0000
# 4 0.0000 0.0000 0.0000 32.7091 0.0000 0.0000
# 5 0.0000 0.0000 0.0000 0.0000 21.1015 0.0000
# 6 0.0000 0.0000 0.0000 0.0000 0.0000 28.0988
#
#
#
# Elastic Compliance Matrix: (Units=1/GPa)
#
#
# Indices 1 2 3 4 5 6 
#
# 1 0.016396 -0.002698 -0.011666 0.000000 0.000000 0.000000
# 2 -0.002698 0.011395 -0.006348 0.000000 0.000000 0.000000
# 3 -0.011666 -0.006348 0.040002 0.000000 0.000000 0.000000
# 4 0.000000 0.000000 0.000000 0.030572 0.000000 0.000000
# 5 0.000000 0.000000 0.000000 0.000000 0.047390 0.000000
# 6 0.000000 0.000000 0.000000 0.000000 0.000000 0.035589
#
#
# Mechanical properties :
#
#
# Convention : Reuss Voigt Hill
#
# Bulk Modulus (GPa) = 37.92150 49.82562 43.87356
# Shear Modulus (GPa) = 21.59276 25.82091 23.70683
#
# Velocity S-wave (km/s) = 3.27967 3.58642 3.43647
# Velocity P-wave (km/s) = 5.76471 6.47843 6.13196
#
# Compressibility (1/GPa) = 0.02637027
#
# Stress axis : x y z
#
# Youngs Moduli (GPa) = 60.98880 87.75467 24.99863
#
# Poissons Ratio (x) = 0.23679 0.29163
# Poissons Ratio (y) = 0.16456 0.15868
# Poissons Ratio (z) = 0.71149 0.55704
#
# Static dielectric constant tensor:
#      x y z
#    x 3.917960 0.000000 0.000000 
#    y 0.000000 3.693420 0.000000 
#    z 0.000000 0.000000 3.427650 
# 
# 
# High freq. dielectric constant tensor:
#      x y z
#    x 1.787290 0.000000 0.000000 
#    y 0.000000 1.783840 0.000000 
#    z 0.000000 0.000000 1.765260 
# 
# From -- ./inp_files/35316.got.cif
#   From: 2010.03.12/outbox.cif.g09.slc.cpg/sg63_18_cif.got.tgz:35316.got - 2010.04.10 19:34:48.
