data_PCOD8260618
_publ_section_title
;
Structure prediction by ZEFSAII (Michael W. Deem and Ramdas Pophale) SiO2 
 PCOD8260618
Probable space group: C M C M
;
_chemical_formula_sum "Si O2"
_cell_formula_units_Z 88
_cell_length_a 22.753586
_cell_length_b 9.884874
_cell_length_c 18.275566
_cell_angle_alpha 90.000000
_cell_angle_beta 90.000000
_cell_angle_gamma 90.000000
_cell_volume 4110.473245
_symmetry_space_group_name_H-M "C M C M"
_symmetry_group_IT_number 63
_symmetry_cell_setting 'orthorhombic'
loop_
_space_group_symop_operation_xyz
x,y,z
-x,-y,1/2+z
x,-y,-z
-x,y,1/2-z
-x,-y,-z
x,y,1/2-z
-x,y,z
x,-y,1/2+z
1/2+x,1/2+y,z
1/2-x,1/2-y,1/2+z
1/2+x,1/2-y,-z
1/2-x,1/2+y,1/2-z
1/2-x,1/2-y,-z
1/2+x,1/2+y,1/2-z
1/2-x,1/2+y,z
1/2+x,1/2-y,1/2+z
loop_
_atom_site_type_symbol
_atom_site_label
_atom_site_fract_x
_atom_site_fract_y
_atom_site_fract_z
Si Si1 0.178663 0.938192 0.095440
Si Si2 0.500000 0.755525 0.336380
Si Si3 0.723473 0.496402 0.250000
Si Si4 0.717254 0.000000 0.000000
Si Si5 0.000000 0.538488 0.083060
Si Si6 0.882057 0.677242 0.450690
Si Si7 0.382172 0.712004 0.395501
Si Si8 0.317313 0.213623 0.750000
O O1 0.187256 0.941264 0.181678
O O2 0.130365 0.824980 0.080662
O O3 0.153417 0.084970 0.071148
O O4 0.240084 0.910353 0.052565
O O5 0.500000 0.756554 0.250000
O O6 0.446059 0.668593 0.367613
O O7 0.500000 0.912079 0.362302
O O8 0.728312 0.659717 0.250000
O O9 0.787727 0.432793 0.250000
O O10 0.677081 0.086685 0.056313
O O11 0.060834 0.623610 0.093361
O O12 0.000000 0.500000 0.000000
O O13 0.891606 0.680176 0.539069
O O14 0.353578 0.782592 0.324927
#
# Coordination Sequence:
#
# PCOD8260618 Si02
#       8
#    16   8   8   8   8  16  16   8
#     4  11  25  40  62  99 131 170 218 262 331 393
#     4  12  24  45  69  93 123 168 224 269 330 394
#     4  10  24  40  58  89 139 169 219 263 334 405
#     4  12  22  37  68  97 134 172 210 264 320 390
#     4  12  24  45  65  96 127 165 218 271 323 382
#     4  12  23  42  68  94 134 170 214 275 322 388
#     4  11  21  41  65  94 126 167 218 267 324 393
#     4  10  22  39  60  93 133 174 215 273 324 403
#
# _framework density 21.408728
#
# number of rings (size 3 to 8) (size 9 to 14) (size 15 to 20)
#    0.000    0.727    5.455    1.636    5.091    0.727 
#    1.636    1.818    0.000    0.000    0.000    0.000 
#    0.000    0.000    0.000    0.000    0.000    0.000 
#
# Total GULP energy -545425.411008 kJ/mol
# GULP energy per Si atom -12396.032068 kJ/mol
# Density = 2.136000 g / cm^3
# Si number density = 21.408728 Si / 1000 Ang^3
#
#
#
# Elastic Constant Matrix: (Units=GPa)
#
#
# Indices 1 2 3 4 5 6 
#
# 1 135.9493 28.7655 13.1373 0.0000 0.0000 0.0000
# 2 28.7655 30.2388 9.0229 0.0000 0.0000 0.0000
# 3 13.1373 9.0229 49.8933 0.0000 0.0000 0.0000
# 4 0.0000 0.0000 0.0000 24.4714 0.0000 0.0000
# 5 0.0000 0.0000 0.0000 0.0000 25.0285 0.0000
# 6 0.0000 0.0000 0.0000 0.0000 0.0000 21.0178
#
#
#
# Elastic Compliance Matrix: (Units=1/GPa)
#
#
# Indices 1 2 3 4 5 6 
#
# 1 0.009247 -0.008530 -0.000892 0.000000 0.000000 0.000000
# 2 -0.008530 0.042825 -0.005499 0.000000 0.000000 0.000000
# 3 -0.000892 -0.005499 0.021272 0.000000 0.000000 0.000000
# 4 0.000000 0.000000 0.000000 0.040864 0.000000 0.000000
# 5 0.000000 0.000000 0.000000 0.000000 0.039954 0.000000
# 6 0.000000 0.000000 0.000000 0.000000 0.000000 0.047579
#
#
# Mechanical properties :
#
#
# Convention : Reuss Voigt Hill
#
# Bulk Modulus (GPa) = 22.98722 35.32586 29.15654
# Shear Modulus (GPa) = 20.31829 25.11391 22.71610
#
# Velocity S-wave (km/s) = 3.08403 3.42872 3.26094
# Velocity P-wave (km/s) = 4.84173 5.67551 5.27512
#
# Compressibility (1/GPa) = 0.04350243
#
# Stress axis : x y z
#
# Youngs Moduli (GPa) = 108.14598 23.35077 47.01000
#
# Poissons Ratio (x) = 0.19918 0.04194
# Poissons Ratio (y) = 0.92249 0.25849
# Poissons Ratio (z) = 0.09648 0.12840
#
# Static dielectric constant tensor:
#      x y z
#    x 4.406480 0.000000 0.000000 
#    y 0.000000 3.844500 0.000000 
#    z 0.000000 0.000000 3.969070 
# 
# 
# High freq. dielectric constant tensor:
#      x y z
#    x 1.846730 0.000000 0.000000 
#    y 0.000000 1.826670 0.000000 
#    z 0.000000 0.000000 1.844610 
# 
# From -- ./inp_files/57439.got.cif
#   From: 2010.03.12/outbox.cif.g09.slc.cpg/sg63_29_cif.got.tgz:57439.got - 2010.04.10 19:34:48.
