data_PCOD8260112
_publ_section_title
;
Structure prediction by ZEFSAII (Michael W. Deem and Ramdas Pophale) SiO2 
 PCOD8260112
Probable space group: C M C M
;
_chemical_formula_sum "Si O2"
_cell_formula_units_Z 80
_cell_length_a 9.281018
_cell_length_b 24.887428
_cell_length_c 19.889149
_cell_angle_alpha 90.000000
_cell_angle_beta 90.000000
_cell_angle_gamma 90.000000
_cell_volume 4594.008907
_symmetry_space_group_name_H-M "C M C M"
_symmetry_group_IT_number 63
_symmetry_cell_setting 'orthorhombic'
loop_
_space_group_symop_operation_xyz
x,y,z
-x,-y,1/2+z
x,-y,-z
-x,y,1/2-z
-x,-y,-z
x,y,1/2-z
-x,y,z
x,-y,1/2+z
1/2+x,1/2+y,z
1/2-x,1/2-y,1/2+z
1/2+x,1/2-y,-z
1/2-x,1/2+y,1/2-z
1/2-x,1/2-y,-z
1/2+x,1/2+y,1/2-z
1/2-x,1/2+y,z
1/2+x,1/2-y,1/2+z
loop_
_atom_site_type_symbol
_atom_site_label
_atom_site_fract_x
_atom_site_fract_y
_atom_site_fract_z
Si Si1 0.666320 0.244824 0.569050
Si Si2 0.170173 0.976504 0.428172
Si Si3 0.334400 0.948369 0.827811
Si Si4 0.836055 0.627389 0.548911
Si Si5 0.165870 0.659492 0.102136
O O1 0.500000 0.260032 0.558348
O O2 0.750000 0.250000 0.500000
O O3 0.681117 0.182603 0.592163
O O4 0.738534 0.287671 0.620244
O O5 0.231861 0.916714 0.419073
O O6 0.000000 0.974213 0.421188
O O7 0.219047 0.000000 0.500000
O O8 0.231084 0.013309 0.369398
O O9 0.304446 0.959094 0.750000
O O10 0.500000 0.960556 0.847229
O O11 0.298810 0.886226 0.843559
O O12 0.792893 0.636990 0.471375
O O13 0.000000 0.606394 0.553015
O O14 0.000000 0.677360 0.103993
#
# Coordination Sequence:
#
# PCOD8260112 Si02
#       5
#    16  16  16  16  16
#     4   9  17  28  45  72 102 132 165 203 251 302
#     4  11  22  33  50  78 107 137 175 221 268 312
#     4  10  21  37  56  76 102 140 180 216 261 319
#     4   9  17  30  49  73 101 135 171 213 258 306
#     4   9  17  30  49  74 102 132 168 211 257 307
#
# _framework density 17.413985
#
# number of rings (size 3 to 8) (size 9 to 14) (size 15 to 20)
#    0.000    2.400    2.000    2.400    0.000    6.000 
#    0.000    0.000    0.000    1.200    0.000    5.600 
#    0.000    0.000    0.000    0.000    0.000    0.000 
#
# Total GULP energy -495900.171831 kJ/mol
# GULP energy per Si atom -12397.504296 kJ/mol
# Density = 1.737435 g / cm^3
# Si number density = 17.413985 Si / 1000 Ang^3
#
#
#
# Elastic Constant Matrix: (Units=GPa)
#
#
# Indices 1 2 3 4 5 6 
#
# 1 98.7840 73.0274 35.8720 0.0000 0.0000 0.0000
# 2 73.0274 121.7411 39.2896 0.0000 0.0000 0.0000
# 3 35.8720 39.2896 56.5093 0.0000 0.0000 0.0000
# 4 0.0000 0.0000 0.0000 20.5202 0.0000 0.0000
# 5 0.0000 0.0000 0.0000 0.0000 16.3897 0.0000
# 6 0.0000 0.0000 0.0000 0.0000 0.0000 37.6848
#
#
#
# Elastic Compliance Matrix: (Units=1/GPa)
#
#
# Indices 1 2 3 4 5 6 
#
# 1 0.019408 -0.009884 -0.005448 0.000000 0.000000 0.000000
# 2 -0.009884 0.015624 -0.004589 0.000000 0.000000 0.000000
# 3 -0.005448 -0.004589 0.024345 0.000000 0.000000 0.000000
# 4 0.000000 0.000000 0.000000 0.048732 0.000000 0.000000
# 5 0.000000 0.000000 0.000000 0.000000 0.061014 0.000000
# 6 0.000000 0.000000 0.000000 0.000000 0.000000 0.026536
#
#
# Mechanical properties :
#
#
# Convention : Reuss Voigt Hill
#
# Bulk Modulus (GPa) = 51.18846 63.71250 57.45048
# Shear Modulus (GPa) = 20.65998 23.50864 22.08431
#
# Velocity S-wave (km/s) = 3.44815 3.67820 3.56503
# Velocity P-wave (km/s) = 6.73141 7.39630 7.07167
#
# Compressibility (1/GPa) = 0.01953565
#
# Stress axis : x y z
#
# Youngs Moduli (GPa) = 51.52395 64.00388 41.07586
#
# Poissons Ratio (x) = 0.63261 0.22380
# Poissons Ratio (y) = 0.50926 0.18848
# Poissons Ratio (z) = 0.28072 0.29369
#
# Static dielectric constant tensor:
#      x y z
#    x 3.388460 0.000000 0.000000 
#    y 0.000000 3.662580 0.000000 
#    z 0.000000 0.000000 2.875220 
# 
# 
# High freq. dielectric constant tensor:
#      x y z
#    x 1.678460 0.000000 0.000000 
#    y 0.000000 1.686900 0.000000 
#    z 0.000000 0.000000 1.618880 
# 
# From -- ./inp_files/40512.got.cif
#   From: 2010.03.12/outbox.cif.g09.slc.cpg/sg63_21_cif.got.tgz:40512.got - 2010.04.10 19:34:48.
