data_PCOD8260683
_publ_section_title
;
Structure prediction by ZEFSAII (Michael W. Deem and Ramdas Pophale) SiO2 
 PCOD8260683
Probable space group: C M C M
;
_chemical_formula_sum "Si O2"
_cell_formula_units_Z 112
_cell_length_a 23.260920
_cell_length_b 16.022509
_cell_length_c 14.987823
_cell_angle_alpha 90.000000
_cell_angle_beta 90.000000
_cell_angle_gamma 90.000000
_cell_volume 5585.936154
_symmetry_space_group_name_H-M "C M C M"
_symmetry_group_IT_number 63
_symmetry_cell_setting 'orthorhombic'
loop_
_space_group_symop_operation_xyz
x,y,z
-x,-y,1/2+z
x,-y,-z
-x,y,1/2-z
-x,-y,-z
x,y,1/2-z
-x,y,z
x,-y,1/2+z
1/2+x,1/2+y,z
1/2-x,1/2-y,1/2+z
1/2+x,1/2-y,-z
1/2-x,1/2+y,1/2-z
1/2-x,1/2-y,-z
1/2+x,1/2+y,1/2-z
1/2-x,1/2+y,z
1/2+x,1/2-y,1/2+z
loop_
_atom_site_type_symbol
_atom_site_label
_atom_site_fract_x
_atom_site_fract_y
_atom_site_fract_z
Si Si1 0.067663 0.726296 0.984320
Si Si2 0.358489 0.329749 0.849590
Si Si3 0.744997 0.377967 0.147366
Si Si4 0.358370 0.513912 0.602102
Si Si5 0.065270 0.834237 0.151455
Si Si6 0.771481 0.307100 0.852963
Si Si7 0.161409 0.598410 0.504142
O O1 0.093174 0.787468 0.909813
O O2 0.097943 0.636323 0.982094
O O3 0.000000 0.714749 0.968121
O O4 0.083253 0.764925 0.080340
O O5 0.364196 0.292909 0.750000
O O6 0.368303 0.428696 0.845506
O O7 0.294514 0.312863 0.887128
O O8 0.762311 0.392541 0.250000
O O9 0.707177 0.454683 0.111425
O O10 0.710142 0.290291 0.137346
O O11 0.802698 0.373765 0.090188
O O12 0.374379 0.500000 0.500000
O O13 0.398727 0.581902 0.645957
O O14 0.074044 0.794889 0.250000
O O15 0.000000 0.861476 0.134537
O O16 0.776681 0.336961 0.750000
O O17 0.810136 0.366681 0.913589
O O18 0.155013 0.500000 0.500000
#
# Coordination Sequence:
#
# PCOD8260683 Si02
#       7
#    16  16  16  16  16  16  16
#     4  11  25  44  65  88 120 165 216 265 309 364
#     4  11  22  39  60  90 129 165 205 253 307 375
#     4  11  22  38  62  93 130 166 202 249 307 375
#     4  12  22  35  60  94 130 165 198 248 310 373
#     4  10  22  41  63  88 122 164 210 260 312 370
#     4  10  22  40  65  94 126 163 205 254 314 377
#     4  12  25  40  64  93 125 164 206 261 317 370
#
# _framework density 20.050353000000001
#
# number of rings (size 3 to 8) (size 9 to 14) (size 15 to 20)
#    0.000    1.000    2.857    4.714    0.000    4.857 
#    0.000    0.000    0.000    0.000    0.000    4.000 
#    0.000    0.000    0.000    0.000    0.000    0.000 
#
# Total GULP energy -694634.787956 kJ/mol
# GULP energy per Si atom -12404.192642 kJ/mol
# Density = 2.000472 g / cm^3
# Si number density = 20.050353 Si / 1000 Ang^3
#
#
#
# Elastic Constant Matrix: (Units=GPa)
#
#
# Indices 1 2 3 4 5 6 
#
# 1 106.9734 49.4157 43.9026 0.0000 0.0000 0.0000
# 2 49.4157 125.7108 36.9034 0.0000 0.0000 0.0000
# 3 43.9026 36.9034 103.0128 0.0000 0.0000 0.0000
# 4 0.0000 0.0000 0.0000 14.9919 0.0000 0.0000
# 5 0.0000 0.0000 0.0000 0.0000 26.2772 0.0000
# 6 0.0000 0.0000 0.0000 0.0000 0.0000 19.9317
#
#
#
# Elastic Compliance Matrix: (Units=1/GPa)
#
#
# Indices 1 2 3 4 5 6 
#
# 1 0.012792 -0.003831 -0.004079 0.000000 0.000000 0.000000
# 2 -0.003831 0.010037 -0.001963 0.000000 0.000000 0.000000
# 3 -0.004079 -0.001963 0.012149 0.000000 0.000000 0.000000
# 4 0.000000 0.000000 0.000000 0.066703 0.000000 0.000000
# 5 0.000000 0.000000 0.000000 0.000000 0.038056 0.000000
# 6 0.000000 0.000000 0.000000 0.000000 0.000000 0.050171
#
#
# Mechanical properties :
#
#
# Convention : Reuss Voigt Hill
#
# Bulk Modulus (GPa) = 65.65232 66.23782 65.94507
# Shear Modulus (GPa) = 23.28484 25.93848 24.61166
#
# Velocity S-wave (km/s) = 3.41151 3.60066 3.50736
# Velocity P-wave (km/s) = 6.95217 7.09886 7.02590
#
# Compressibility (1/GPa) = 0.01523175
#
# Stress axis : x y z
#
# Youngs Moduli (GPa) = 78.17402 99.63244 82.30910
#
# Poissons Ratio (x) = 0.38168 0.33577
# Poissons Ratio (y) = 0.29947 0.16157
# Poissons Ratio (z) = 0.31890 0.19558
#
# Static dielectric constant tensor:
#      x y z
#    x 3.598270 0.000000 0.000000 
#    y 0.000000 3.691180 0.000000 
#    z 0.000000 0.000000 3.787370 
# 
# 
# High freq. dielectric constant tensor:
#      x y z
#    x 1.771190 0.000000 0.000000 
#    y 0.000000 1.778980 0.000000 
#    z 0.000000 0.000000 1.799090 
# 
# From -- ./inp_files/36864.got.cif
#   From: 2010.03.12/outbox.cif.g09.slc.cpg/sg63_19_cif.got.tgz:36864.got - 2010.04.10 19:34:48.
