data_PCOD8260664
_publ_section_title
;
Structure prediction by ZEFSAII (Michael W. Deem and Ramdas Pophale) SiO2 
 PCOD8260664
Probable space group: C M C M
;
_chemical_formula_sum "Si O2"
_cell_formula_units_Z 96
_cell_length_a 8.509788
_cell_length_b 28.750896
_cell_length_c 20.163246
_cell_angle_alpha 90.000000
_cell_angle_beta 90.000000
_cell_angle_gamma 90.000000
_cell_volume 4933.221020
_symmetry_space_group_name_H-M "C M C M"
_symmetry_group_IT_number 63
_symmetry_cell_setting 'orthorhombic'
loop_
_space_group_symop_operation_xyz
x,y,z
-x,-y,1/2+z
x,-y,-z
-x,y,1/2-z
-x,-y,-z
x,y,1/2-z
-x,y,z
x,-y,1/2+z
1/2+x,1/2+y,z
1/2-x,1/2-y,1/2+z
1/2+x,1/2-y,-z
1/2-x,1/2+y,1/2-z
1/2-x,1/2-y,-z
1/2+x,1/2+y,1/2-z
1/2-x,1/2+y,z
1/2+x,1/2-y,1/2+z
loop_
_atom_site_type_symbol
_atom_site_label
_atom_site_fract_x
_atom_site_fract_y
_atom_site_fract_z
Si Si1 0.318337 0.376769 0.973018
Si Si2 0.682975 0.972539 0.565383
Si Si3 0.182755 0.719629 0.440427
Si Si4 0.818941 0.277045 0.174268
Si Si5 0.819933 0.624817 0.614981
Si Si6 0.819359 0.965259 0.174558
O O1 0.500000 0.387176 0.959833
O O2 0.216298 0.418191 0.942370
O O3 0.269712 0.329569 0.936473
O O4 0.290511 0.372148 0.051244
O O5 0.500000 0.981235 0.577451
O O6 0.740822 0.000000 0.500000
O O7 0.777338 0.991123 0.628590
O O8 0.250000 0.750000 0.500000
O O9 0.208197 0.745536 0.371072
O O10 0.000000 0.711323 0.453579
O O11 0.776605 0.265879 0.250000
O O12 0.784953 0.331243 0.161431
O O13 0.000000 0.265352 0.158352
O O14 0.786827 0.578850 0.656844
O O15 0.000000 0.623908 0.590581
O O16 0.785162 0.980155 0.250000
O O17 0.000000 0.951371 0.164061
#
# Coordination Sequence:
#
# PCOD8260664 Si02
#       6
#    16  16  16  16  16  16
#     4  12  24  39  63  93 124 158 201 256 307 357
#     4  11  23  40  64  91 121 160 204 252 302 362
#     4  12  24  40  63  90 123 163 207 253 302 360
#     4  10  22  40  62  90 126 165 204 251 308 364
#     4  11  21  36  61  92 126 163 202 248 304 366
#     4  11  24  40  60  90 127 165 205 251 305 364
#
# _framework density 19.459902
#
# number of rings (size 3 to 8) (size 9 to 14) (size 15 to 20)
#    0.000    0.833    3.333    5.000    0.000    3.667 
#    0.000    0.833    0.000    5.000    0.000    0.000 
#    0.000    0.000    0.000    0.000    0.000    0.000 
#
# Total GULP energy -595583.679392 kJ/mol
# GULP energy per Si atom -12407.993321 kJ/mol
# Density = 1.941561 g / cm^3
# Si number density = 19.459902 Si / 1000 Ang^3
#
#
#
# Elastic Constant Matrix: (Units=GPa)
#
#
# Indices 1 2 3 4 5 6 
#
# 1 65.0705 14.0219 26.1259 0.0000 0.0000 0.0000
# 2 14.0219 115.0088 41.5688 0.0000 0.0000 0.0000
# 3 26.1259 41.5688 114.8546 0.0000 0.0000 0.0000
# 4 0.0000 0.0000 0.0000 32.1273 0.0000 0.0000
# 5 0.0000 0.0000 0.0000 0.0000 30.2459 0.0000
# 6 0.0000 0.0000 0.0000 0.0000 0.0000 31.5519
#
#
#
# Elastic Compliance Matrix: (Units=1/GPa)
#
#
# Indices 1 2 3 4 5 6 
#
# 1 0.016972 -0.000775 -0.003580 0.000000 0.000000 0.000000
# 2 -0.000775 0.010039 -0.003457 0.000000 0.000000 0.000000
# 3 -0.003580 -0.003457 0.010772 0.000000 0.000000 0.000000
# 4 0.000000 0.000000 0.000000 0.031126 0.000000 0.000000
# 5 0.000000 0.000000 0.000000 0.000000 0.033062 0.000000
# 6 0.000000 0.000000 0.000000 0.000000 0.000000 0.031694
#
#
# Mechanical properties :
#
#
# Convention : Reuss Voigt Hill
#
# Bulk Modulus (GPa) = 45.12875 50.92968 48.02921
# Shear Modulus (GPa) = 31.91278 32.99952 32.45615
#
# Velocity S-wave (km/s) = 4.05399 4.12244 4.08836
# Velocity P-wave (km/s) = 6.71968 6.99198 6.85718
#
# Compressibility (1/GPa) = 0.02215883
#
# Stress axis : x y z
#
# Youngs Moduli (GPa) = 58.91905 99.61135 92.83138
#
# Poissons Ratio (x) = 0.07723 0.33235
# Poissons Ratio (y) = 0.04568 0.32092
# Poissons Ratio (z) = 0.21094 0.34436
#
# Static dielectric constant tensor:
#      x y z
#    x 3.656730 0.000000 0.000000 
#    y 0.000000 3.584140 0.000000 
#    z 0.000000 0.000000 2.690020 
# 
# 
# High freq. dielectric constant tensor:
#      x y z
#    x 1.767580 0.000000 0.000000 
#    y 0.000000 1.761470 0.000000 
#    z 0.000000 0.000000 1.751780 
# 
# From -- ./inp_files/51322.got.cif
#   From: 2010.03.12/outbox.cif.g09.slc.cpg/sg63_26_cif.got.tgz:51322.got - 2010.04.10 19:34:48.
