data_PCOD8260450
_publ_section_title
;
Structure prediction by ZEFSAII (Michael W. Deem and Ramdas Pophale) SiO2 
 PCOD8260450
Probable space group: C M C M
;
_chemical_formula_sum "Si O2"
_cell_formula_units_Z 64
_cell_length_a 8.444303
_cell_length_b 24.416509
_cell_length_c 15.581667
_cell_angle_alpha 90.000000
_cell_angle_beta 90.000000
_cell_angle_gamma 90.000000
_cell_volume 3212.634338
_symmetry_space_group_name_H-M "C M C M"
_symmetry_group_IT_number 63
_symmetry_cell_setting 'orthorhombic'
loop_
_space_group_symop_operation_xyz
x,y,z
-x,-y,1/2+z
x,-y,-z
-x,y,1/2-z
-x,-y,-z
x,y,1/2-z
-x,y,z
x,-y,1/2+z
1/2+x,1/2+y,z
1/2-x,1/2-y,1/2+z
1/2+x,1/2-y,-z
1/2-x,1/2+y,1/2-z
1/2-x,1/2-y,-z
1/2+x,1/2+y,1/2-z
1/2-x,1/2+y,z
1/2+x,1/2-y,1/2+z
loop_
_atom_site_type_symbol
_atom_site_label
_atom_site_fract_x
_atom_site_fract_y
_atom_site_fract_z
Si Si1 0.688005 0.126798 0.844343
Si Si2 0.313687 0.814895 0.750000
Si Si3 0.814474 0.937380 0.750000
Si Si4 0.187343 0.489132 0.096527
Si Si5 0.812098 0.742485 0.594878
O O1 0.758067 0.121601 0.750000
O O2 0.500000 0.129496 0.843895
O O3 0.755782 0.182504 0.883391
O O4 0.746713 0.073055 0.893177
O O5 0.500000 0.808717 0.750000
O O6 0.270638 0.878790 0.750000
O O7 0.249010 0.786887 0.836741
O O8 0.768767 0.970519 0.835704
O O9 0.000000 0.926721 0.750000
O O10 0.000000 0.495393 0.110256
O O11 0.241031 0.500000 0.000000
O O12 0.750000 0.750000 0.500000
O O13 0.000000 0.745075 0.597176
#
# Coordination Sequence:
#
# PCOD8260450 Si02
#       5
#    16   8   8  16  16
#     4   9  17  35  62  89 121 160 203 253 307 366
#     4  12  26  45  66  89 123 172 222 268 321 381
#     4  12  26  43  62  91 131 168 206 266 327 379
#     4  10  21  39  66  95 123 164 213 255 302 376
#     4  11  23  41  64  95 130 167 211 263 319 380
#
# _framework density 19.921347000000001
#
# number of rings (size 3 to 8) (size 9 to 14) (size 15 to 20)
#    0.000    1.500    2.500    3.000    3.500    0.500 
#    0.000    3.750    0.000    0.000    0.000    0.000 
#    0.000    0.000    0.000    0.000    0.000    0.000 
#
# Total GULP energy -396655.375280 kJ/mol
# GULP energy per Si atom -12395.480477 kJ/mol
# Density = 1.987601 g / cm^3
# Si number density = 19.921347 Si / 1000 Ang^3
#
#
#
# Elastic Constant Matrix: (Units=GPa)
#
#
# Indices 1 2 3 4 5 6 
#
# 1 63.1895 7.4904 12.4562 0.0000 0.0000 0.0000
# 2 7.4904 141.8445 49.8487 0.0000 0.0000 0.0000
# 3 12.4562 49.8487 148.1539 0.0000 0.0000 0.0000
# 4 0.0000 0.0000 0.0000 42.5570 0.0000 0.0000
# 5 0.0000 0.0000 0.0000 0.0000 31.5114 0.0000
# 6 0.0000 0.0000 0.0000 0.0000 0.0000 27.5017
#
#
#
# Elastic Compliance Matrix: (Units=1/GPa)
#
#
# Indices 1 2 3 4 5 6 
#
# 1 0.016115 -0.000425 -0.001212 0.000000 0.000000 0.000000
# 2 -0.000425 0.008007 -0.002658 0.000000 0.000000 0.000000
# 3 -0.001212 -0.002658 0.007746 0.000000 0.000000 0.000000
# 4 0.000000 0.000000 0.000000 0.023498 0.000000 0.000000
# 5 0.000000 0.000000 0.000000 0.000000 0.031735 0.000000
# 6 0.000000 0.000000 0.000000 0.000000 0.000000 0.036361
#
#
# Mechanical properties :
#
#
# Convention : Reuss Voigt Hill
#
# Bulk Modulus (GPa) = 42.96078 54.75316 48.85697
# Shear Modulus (GPa) = 35.76273 39.20688 37.48481
#
# Velocity S-wave (km/s) = 4.24157 4.44112 4.34249
# Velocity P-wave (km/s) = 6.75277 7.33774 7.05132
#
# Compressibility (1/GPa) = 0.02327704
#
# Stress axis : x y z
#
# Youngs Moduli (GPa) = 62.05522 124.89700 129.09861
#
# Poissons Ratio (x) = 0.05309 0.15644
# Poissons Ratio (y) = 0.02638 0.34317
# Poissons Ratio (z) = 0.07520 0.33200
#
# Static dielectric constant tensor:
#      x y z
#    x 3.416590 0.000000 0.000000 
#    y 0.000000 4.004600 0.000000 
#    z 0.000000 0.000000 3.733650 
# 
# 
# High freq. dielectric constant tensor:
#      x y z
#    x 1.756570 0.000000 0.000000 
#    y 0.000000 1.799190 0.000000 
#    z 0.000000 0.000000 1.793020 
# 
# From -- ./inp_files/27594.got.cif
#   From: 2010.03.12/outbox.cif.g09.slc.cpg/sg63_14_cif.got.tgz:27594.got - 2010.04.10 19:34:48.
