data_PCOD8260184
_publ_section_title
;
Structure prediction by ZEFSAII (Michael W. Deem and Ramdas Pophale) SiO2 
 PCOD8260184
Probable space group: C M C M
;
_chemical_formula_sum "Si O2"
_cell_formula_units_Z 80
_cell_length_a 25.546598
_cell_length_b 9.854605
_cell_length_c 15.744212
_cell_angle_alpha 90.000000
_cell_angle_beta 90.000000
_cell_angle_gamma 90.000000
_cell_volume 3963.631072
_symmetry_space_group_name_H-M "C M C M"
_symmetry_group_IT_number 63
_symmetry_cell_setting 'orthorhombic'
loop_
_space_group_symop_operation_xyz
x,y,z
-x,-y,1/2+z
x,-y,-z
-x,y,1/2-z
-x,-y,-z
x,y,1/2-z
-x,y,z
x,-y,1/2+z
1/2+x,1/2+y,z
1/2-x,1/2-y,1/2+z
1/2+x,1/2-y,-z
1/2-x,1/2+y,1/2-z
1/2-x,1/2-y,-z
1/2+x,1/2+y,1/2-z
1/2-x,1/2+y,z
1/2+x,1/2-y,1/2+z
loop_
_atom_site_type_symbol
_atom_site_label
_atom_site_fract_x
_atom_site_fract_y
_atom_site_fract_z
Si Si1 0.646390 0.223260 0.650010
Si Si2 0.558335 0.974023 0.351079
Si Si3 0.744807 0.877432 0.440605
Si Si4 0.150543 0.969781 0.148688
Si Si5 0.441670 0.277554 0.350964
O O1 0.640364 0.229545 0.750000
O O2 0.598609 0.135839 0.610276
O O3 0.700374 0.148870 0.628954
O O4 0.644547 0.376618 0.614001
O O5 0.560815 0.971922 0.250000
O O6 0.500000 0.934919 0.382170
O O7 0.572787 0.125774 0.383176
O O8 0.750000 0.750000 0.500000
O O9 0.798131 0.904320 0.390981
O O10 0.727349 0.000000 0.500000
O O11 0.155573 0.964919 0.250000
O O12 0.100679 0.885016 0.114681
O O13 0.441009 0.278939 0.250000
O O14 0.500000 0.318125 0.382937
#
# Coordination Sequence:
#
# PCOD8260184 Si02
#       5
#    16  16  16  16  16
#     4  10  21  37  58  85 113 144 186 231 276 328
#     4   8  15  29  52  83 114 143 179 224 272 323
#     4  12  25  42  57  78 112 150 189 231 282 334
#     4  10  21  37  58  85 113 144 187 231 275 330
#     4   8  15  29  52  83 114 143 178 223 274 325
#
# _framework density 20.183513999999999
#
# number of rings (size 3 to 8) (size 9 to 14) (size 15 to 20)
#    0.000    2.400    2.000    1.800    2.800    0.800 
#    0.000    4.000    0.000    2.400    0.000    0.000 
#    0.000    0.000    0.000    0.000    0.000    0.000 
#
# Total GULP energy -495891.617081 kJ/mol
# GULP energy per Si atom -12397.290427 kJ/mol
# Density = 2.013758 g / cm^3
# Si number density = 20.183514 Si / 1000 Ang^3
#
#
#
# Elastic Constant Matrix: (Units=GPa)
#
#
# Indices 1 2 3 4 5 6 
#
# 1 191.4560 115.0583 18.5869 0.0000 0.0000 0.0000
# 2 115.0583 174.3398 22.3105 0.0000 0.0000 0.0000
# 3 18.5869 22.3105 16.3992 0.0000 0.0000 0.0000
# 4 0.0000 0.0000 0.0000 23.7161 0.0000 0.0000
# 5 0.0000 0.0000 0.0000 0.0000 0.4579 0.0000
# 6 0.0000 0.0000 0.0000 0.0000 0.0000 45.0759
#
#
#
# Elastic Compliance Matrix: (Units=1/GPa)
#
#
# Indices 1 2 3 4 5 6 
#
# 1 0.008740 -0.005449 -0.002493 0.000000 0.000000 0.000000
# 2 -0.005449 0.010342 -0.007894 0.000000 0.000000 0.000000
# 3 -0.002493 -0.007894 0.074544 0.000000 0.000000 0.000000
# 4 0.000000 0.000000 0.000000 0.042165 0.000000 0.000000
# 5 0.000000 0.000000 0.000000 0.000000 2.184003 0.000000
# 6 0.000000 0.000000 0.000000 0.000000 0.000000 0.022185
#
#
# Mechanical properties :
#
#
# Convention : Reuss Voigt Hill
#
# Bulk Modulus (GPa) = 16.14106 77.12293 46.63200
# Shear Modulus (GPa) = 2.08829 28.93260 15.51044
#
# Velocity S-wave (km/s) = 1.01828 3.79024 2.77514
# Velocity P-wave (km/s) = 3.06546 7.57947 5.78124
#
# Compressibility (1/GPa) = 0.06195381
#
# Stress axis : x y z
#
# Youngs Moduli (GPa) = 114.41982 96.69011 13.41496
#
# Poissons Ratio (x) = 0.52686 0.03344
# Poissons Ratio (y) = 0.62347 0.10590
# Poissons Ratio (z) = 0.28519 0.76332
#
# Static dielectric constant tensor:
#      x y z
#    x 4.052210 0.000000 0.000000 
#    y 0.000000 4.210940 0.000000 
#    z 0.000000 0.000000 3.228170 
# 
# 
# High freq. dielectric constant tensor:
#      x y z
#    x 1.797380 0.000000 0.000000 
#    y 0.000000 1.799270 0.000000 
#    z 0.000000 0.000000 1.754120 
# 
# From -- ./inp_files/48751.got.cif
#   From: 2010.03.12/outbox.cif.g09.slc.cpg/sg63_25_cif.got.tgz:48751.got - 2010.04.10 19:34:48.
