data_PCOD8260493
_publ_section_title
;
Structure prediction by ZEFSAII (Michael W. Deem and Ramdas Pophale) SiO2 
 PCOD8260493
Probable space group: C M C M
;
_chemical_formula_sum "Si O2"
_cell_formula_units_Z 72
_cell_length_a 14.953064
_cell_length_b 14.581946
_cell_length_c 16.421440
_cell_angle_alpha 90.000000
_cell_angle_beta 90.000000
_cell_angle_gamma 90.000000
_cell_volume 3580.609137
_symmetry_space_group_name_H-M "C M C M"
_symmetry_group_IT_number 63
_symmetry_cell_setting 'orthorhombic'
loop_
_space_group_symop_operation_xyz
x,y,z
-x,-y,1/2+z
x,-y,-z
-x,y,1/2-z
-x,-y,-z
x,y,1/2-z
-x,y,z
x,-y,1/2+z
1/2+x,1/2+y,z
1/2-x,1/2-y,1/2+z
1/2+x,1/2-y,-z
1/2-x,1/2+y,1/2-z
1/2-x,1/2-y,-z
1/2+x,1/2+y,1/2-z
1/2-x,1/2+y,z
1/2+x,1/2-y,1/2+z
loop_
_atom_site_type_symbol
_atom_site_label
_atom_site_fract_x
_atom_site_fract_y
_atom_site_fract_z
Si Si1 0.164886 0.625861 0.657661
Si Si2 0.500000 0.712765 0.982559
Si Si3 0.000000 0.593752 0.544620
Si Si4 0.500000 0.429052 0.155748
Si Si5 0.813838 0.200580 0.065383
Si Si6 0.186455 0.980542 0.844379
O O1 0.134813 0.610467 0.750000
O O2 0.183955 0.733043 0.643555
O O3 0.252863 0.568110 0.635877
O O4 0.086649 0.594428 0.599717
O O5 0.500000 0.666523 0.893785
O O6 0.500000 0.823818 0.978319
O O7 0.412217 0.681368 0.030803
O O8 0.000000 0.500000 0.500000
O O9 0.500000 0.399425 0.250000
O O10 0.585356 0.491115 0.133750
O O11 0.779144 0.102611 0.098255
O O12 0.750000 0.250000 0.000000
O O13 0.194007 0.951148 0.750000
#
# Coordination Sequence:
#
# PCOD8260493 Si02
#       6
#    16   8   8   8  16  16
#     4  10  22  40  61  86 119 159 203 249 297 361
#     4  10  23  39  57  92 113 153 200 245 304 347
#     4  10  23  40  63  83 121 154 204 248 296 362
#     4  10  21  41  63  87 123 156 196 249 304 364
#     4  11  23  37  61  88 121 158 199 250 304 352
#     4  10  22  39  62  89 120 161 200 244 302 362
#
# _framework density 20.108311
#
# number of rings (size 3 to 8) (size 9 to 14) (size 15 to 20)
#    0.000    1.778    0.000    3.000    6.222    3.556 
#    0.000    5.556    0.000    0.000    0.000    0.000 
#    0.000    0.000    0.000    0.000    0.000    0.000 
#
# Total GULP energy -446384.957121 kJ/mol
# GULP energy per Si atom -12399.582142 kJ/mol
# Density = 2.006254 g / cm^3
# Si number density = 20.108311 Si / 1000 Ang^3
#
#
#
# Elastic Constant Matrix: (Units=GPa)
#
#
# Indices 1 2 3 4 5 6 
#
# 1 111.0084 34.2284 39.5773 0.0000 0.0000 0.0000
# 2 34.2284 126.8209 73.9635 0.0000 0.0000 0.0000
# 3 39.5773 73.9635 94.9231 0.0000 0.0000 0.0000
# 4 0.0000 0.0000 0.0000 45.9939 0.0000 0.0000
# 5 0.0000 0.0000 0.0000 0.0000 21.3412 0.0000
# 6 0.0000 0.0000 0.0000 0.0000 0.0000 20.7886
#
#
#
# Elastic Compliance Matrix: (Units=1/GPa)
#
#
# Indices 1 2 3 4 5 6 
#
# 1 0.010600 -0.000519 -0.004015 0.000000 0.000000 0.000000
# 2 -0.000519 0.014479 -0.011065 0.000000 0.000000 0.000000
# 3 -0.004015 -0.011065 0.020831 0.000000 0.000000 0.000000
# 4 0.000000 0.000000 0.000000 0.021742 0.000000 0.000000
# 5 0.000000 0.000000 0.000000 0.000000 0.046858 0.000000
# 6 0.000000 0.000000 0.000000 0.000000 0.000000 0.048103
#
#
# Mechanical properties :
#
#
# Convention : Reuss Voigt Hill
#
# Bulk Modulus (GPa) = 67.97851 69.81011 68.89431
# Shear Modulus (GPa) = 25.16174 29.95694 27.55934
#
# Velocity S-wave (km/s) = 3.54122 3.86395 3.70610
# Velocity P-wave (km/s) = 7.11336 7.39589 7.25600
#
# Compressibility (1/GPa) = 0.01471053
#
# Stress axis : x y z
#
# Youngs Moduli (GPa) = 94.34091 69.06743 48.00616
#
# Poissons Ratio (x) = 0.03587 0.19274
# Poissons Ratio (y) = 0.04900 0.53119
# Poissons Ratio (z) = 0.37876 0.76424
#
# Static dielectric constant tensor:
#      x y z
#    x 3.806620 0.000000 0.000000 
#    y 0.000000 3.742850 0.000000 
#    z 0.000000 0.000000 3.610100 
# 
# 
# High freq. dielectric constant tensor:
#      x y z
#    x 1.794300 0.000000 0.000000 
#    y 0.000000 1.790840 0.000000 
#    z 0.000000 0.000000 1.784260 
# 
# From -- ./inp_files/43792.got.cif
#   From: 2010.03.12/outbox.cif.g09.slc.cpg/sg63_22_cif.got.tgz:43792.got - 2010.04.10 19:34:48.
