data_PCOD8260341
_publ_section_title
;
Structure prediction by ZEFSAII (Michael W. Deem and Ramdas Pophale) SiO2 
 PCOD8260341
Probable space group: C M C M
;
_chemical_formula_sum "Si O2"
_cell_formula_units_Z 64
_cell_length_a 11.807506
_cell_length_b 16.862337
_cell_length_c 15.904119
_cell_angle_alpha 90.000000
_cell_angle_beta 90.000000
_cell_angle_gamma 90.000000
_cell_volume 3166.544212
_symmetry_space_group_name_H-M "C M C M"
_symmetry_group_IT_number 63
_symmetry_cell_setting 'orthorhombic'
loop_
_space_group_symop_operation_xyz
x,y,z
-x,-y,1/2+z
x,-y,-z
-x,y,1/2-z
-x,-y,-z
x,y,1/2-z
-x,y,z
x,-y,1/2+z
1/2+x,1/2+y,z
1/2-x,1/2-y,1/2+z
1/2+x,1/2-y,-z
1/2-x,1/2+y,1/2-z
1/2-x,1/2-y,-z
1/2+x,1/2+y,1/2-z
1/2-x,1/2+y,z
1/2+x,1/2-y,1/2+z
loop_
_atom_site_type_symbol
_atom_site_label
_atom_site_fract_x
_atom_site_fract_y
_atom_site_fract_z
Si Si1 0.373726 0.092768 0.994099
Si Si2 0.219074 0.863685 0.155201
Si Si3 0.500000 0.639724 0.350632
Si Si4 0.737045 0.706591 0.088764
Si Si5 0.500000 0.456900 0.349640
O O1 0.500000 0.127055 0.997382
O O2 0.324940 0.117446 0.903711
O O3 0.307466 0.125606 0.076497
O O4 0.370843 0.000000 0.000000
O O5 0.243140 0.892861 0.250000
O O6 0.206127 0.767260 0.155797
O O7 0.109666 0.909043 0.117120
O O8 0.500000 0.643316 0.250000
O O9 0.390852 0.684814 0.386423
O O10 0.500000 0.547797 0.381881
O O11 0.750000 0.750000 0.000000
O O12 0.500000 0.453988 0.250000
#
# Coordination Sequence:
#
# PCOD8260341 Si02
#       5
#    16  16   8  16   8
#     4  10  22  39  59  86 124 166 206 248 307 382
#     4  10  21  38  62  89 121 161 209 264 317 371
#     4  11  22  41  65  91 120 160 214 267 312 375
#     4  10  23  36  59  88 122 157 204 256 314 372
#     4   9  20  37  61  89 117 152 204 261 316 367
#
# _framework density 20.211307999999999
#
# number of rings (size 3 to 8) (size 9 to 14) (size 15 to 20)
#    0.000    2.000    0.000    2.250    8.750    3.500 
#    0.000    7.500    0.000    3.000    0.000    0.000 
#    0.000    0.000    0.000    0.000    0.000    0.000 
#
# Total GULP energy -396587.463694 kJ/mol
# GULP energy per Si atom -12393.358240 kJ/mol
# Density = 2.016531 g / cm^3
# Si number density = 20.211308 Si / 1000 Ang^3
#
#
#
# Elastic Constant Matrix: (Units=GPa)
#
#
# Indices 1 2 3 4 5 6 
#
# 1 152.0739 71.8951 49.0314 0.0000 0.0000 0.0000
# 2 71.8951 118.6222 27.0921 0.0000 0.0000 0.0000
# 3 49.0314 27.0921 74.4164 0.0000 0.0000 0.0000
# 4 0.0000 0.0000 0.0000 28.6127 0.0000 0.0000
# 5 0.0000 0.0000 0.0000 0.0000 22.6082 0.0000
# 6 0.0000 0.0000 0.0000 0.0000 0.0000 40.6118
#
#
#
# Elastic Compliance Matrix: (Units=1/GPa)
#
#
# Indices 1 2 3 4 5 6 
#
# 1 0.010763 -0.005348 -0.005144 0.000000 0.000000 0.000000
# 2 -0.005348 0.011852 -0.000791 0.000000 0.000000 0.000000
# 3 -0.005144 -0.000791 0.017115 0.000000 0.000000 0.000000
# 4 0.000000 0.000000 0.000000 0.034949 0.000000 0.000000
# 5 0.000000 0.000000 0.000000 0.000000 0.044232 0.000000
# 6 0.000000 0.000000 0.000000 0.000000 0.000000 0.024623
#
#
# Mechanical properties :
#
#
# Convention : Reuss Voigt Hill
#
# Bulk Modulus (GPa) = 58.26428 71.23884 64.75156
# Shear Modulus (GPa) = 29.09961 31.50614 30.30287
#
# Velocity S-wave (km/s) = 3.79854 3.95249 3.87628
# Velocity P-wave (km/s) = 6.93749 7.49354 7.22087
#
# Compressibility (1/GPa) = 0.01716318
#
# Stress axis : x y z
#
# Youngs Moduli (GPa) = 92.91222 84.37167 58.42697
#
# Poissons Ratio (x) = 0.45124 0.30057
# Poissons Ratio (y) = 0.49692 0.04622
# Poissons Ratio (z) = 0.47797 0.06675
#
# Static dielectric constant tensor:
#      x y z
#    x 4.013350 0.000000 0.000000 
#    y 0.000000 4.674080 0.000000 
#    z 0.000000 0.000000 3.655110 
# 
# 
# High freq. dielectric constant tensor:
#      x y z
#    x 1.789410 0.000000 0.000000 
#    y 0.000000 1.809360 0.000000 
#    z 0.000000 0.000000 1.774920 
# 
# From -- ./inp_files/50391.got.cif
#   From: 2010.03.12/outbox.cif.g09.slc.cpg/sg63_26_cif.got.tgz:50391.got - 2010.04.10 19:34:48.
