data_PCOD8260947
_publ_section_title
;
Structure prediction by ZEFSAII (Michael W. Deem and Ramdas Pophale) SiO2 
 PCOD8260947
Probable space group: C M C M
;
_chemical_formula_sum "Si O2"
_cell_formula_units_Z 96
_cell_length_a 11.854332
_cell_length_b 24.889866
_cell_length_c 19.168854
_cell_angle_alpha 90.000000
_cell_angle_beta 90.000000
_cell_angle_gamma 90.000000
_cell_volume 5655.822800
_symmetry_space_group_name_H-M "C M C M"
_symmetry_group_IT_number 63
_symmetry_cell_setting 'orthorhombic'
loop_
_space_group_symop_operation_xyz
x,y,z
-x,-y,1/2+z
x,-y,-z
-x,y,1/2-z
-x,-y,-z
x,y,1/2-z
-x,y,z
x,-y,1/2+z
1/2+x,1/2+y,z
1/2-x,1/2-y,1/2+z
1/2+x,1/2-y,-z
1/2-x,1/2+y,1/2-z
1/2-x,1/2-y,-z
1/2+x,1/2+y,1/2-z
1/2-x,1/2+y,z
1/2+x,1/2-y,1/2+z
loop_
_atom_site_type_symbol
_atom_site_label
_atom_site_fract_x
_atom_site_fract_y
_atom_site_fract_z
Si Si1 0.000000 0.223912 0.327540
Si Si2 0.870318 0.221817 0.578428
Si Si3 0.755705 0.367723 0.167896
Si Si4 0.694513 0.688667 0.425643
Si Si5 0.500000 0.149480 0.672661
Si Si6 0.870447 0.959688 0.100810
Si Si7 0.130816 0.925094 0.556680
O O1 0.887016 0.205127 0.363997
O O2 0.000000 0.287200 0.325927
O O3 0.000000 0.199548 0.250000
O O4 0.813950 0.178475 0.629197
O O5 0.812124 0.280270 0.584904
O O6 0.862865 0.202142 0.499269
O O7 0.000000 0.228416 0.600362
O O8 0.756991 0.353837 0.250000
O O9 0.702769 0.426390 0.155983
O O10 0.883497 0.369645 0.136200
O O11 0.711545 0.624209 0.421186
O O12 0.500000 0.124765 0.750000
O O13 0.000000 0.953699 0.122797
O O14 0.835239 0.022457 0.101702
O O15 0.850657 0.936071 0.024459
O O16 0.000000 0.909956 0.570420
#
# Coordination Sequence:
#
# PCOD8260947 Si02
#       7
#     8  16  16  16   8  16  16
#     4  11  20  34  54  77 103 139 183 221 261 310
#     4  11  22  33  51  83 112 142 173 213 276 327
#     4  11  21  35  55  79 109 142 179 223 266 320
#     4  11  20  34  55  77 109 143 178 220 261 325
#     4   9  20  36  52  75 106 143 179 217 270 317
#     4   9  18  31  51  78 104 135 172 214 268 320
#     4   9  16  31  54  75 102 139 173 213 267 312
#
# _framework density 16.973656999999999
#
# number of rings (size 3 to 8) (size 9 to 14) (size 15 to 20)
#    0.000    1.833    5.000    1.500    0.000    1.333 
#    0.000    0.833    1.833    1.000    0.000    0.000 
#    0.000    0.000    0.000    0.000    0.000    0.000 
#
# Total GULP energy -595045.788209 kJ/mol
# GULP energy per Si atom -12396.787254 kJ/mol
# Density = 1.693502 g / cm^3
# Si number density = 16.973657 Si / 1000 Ang^3
#
#
#
# Elastic Constant Matrix: (Units=GPa)
#
#
# Indices 1 2 3 4 5 6 
#
# 1 130.0397 66.2795 39.6256 0.0000 0.0000 0.0000
# 2 66.2795 135.4138 31.7807 0.0000 0.0000 0.0000
# 3 39.6256 31.7807 73.5502 0.0000 0.0000 0.0000
# 4 0.0000 0.0000 0.0000 24.1807 0.0000 0.0000
# 5 0.0000 0.0000 0.0000 0.0000 21.3138 0.0000
# 6 0.0000 0.0000 0.0000 0.0000 0.0000 30.8380
#
#
#
# Elastic Compliance Matrix: (Units=1/GPa)
#
#
# Indices 1 2 3 4 5 6 
#
# 1 0.011257 -0.004548 -0.004100 0.000000 0.000000 0.000000
# 2 -0.004548 0.010055 -0.001895 0.000000 0.000000 0.000000
# 3 -0.004100 -0.001895 0.016624 0.000000 0.000000 0.000000
# 4 0.000000 0.000000 0.000000 0.041355 0.000000 0.000000
# 5 0.000000 0.000000 0.000000 0.000000 0.046918 0.000000
# 6 0.000000 0.000000 0.000000 0.000000 0.000000 0.032428
#
#
# Mechanical properties :
#
#
# Convention : Reuss Voigt Hill
#
# Bulk Modulus (GPa) = 59.34150 68.26391 63.80270
# Shear Modulus (GPa) = 26.97764 28.68771 27.83268
#
# Velocity S-wave (km/s) = 3.99103 4.11558 4.05378
# Velocity P-wave (km/s) = 7.50164 7.93025 7.71892
#
# Compressibility (1/GPa) = 0.01685161
#
# Stress axis : x y z
#
# Youngs Moduli (GPa) = 88.83233 99.44925 60.15517
#
# Poissons Ratio (x) = 0.45227 0.24662
# Poissons Ratio (y) = 0.40398 0.11398
# Poissons Ratio (z) = 0.36420 0.18843
#
# Static dielectric constant tensor:
#      x y z
#    x 3.181160 0.000000 0.000000 
#    y 0.000000 3.383840 0.000000 
#    z 0.000000 0.000000 3.106380 
# 
# 
# High freq. dielectric constant tensor:
#      x y z
#    x 1.640550 0.000000 0.000000 
#    y 0.000000 1.657790 0.000000 
#    z 0.000000 0.000000 1.637130 
# 
# From -- ./inp_files/42550.got.cif
#   From: 2010.03.12/outbox.cif.g09.slc.cpg/sg63_22_cif.got.tgz:42550.got - 2010.04.10 19:34:48.
