data_PCOD8260658
_publ_section_title
;
Structure prediction by ZEFSAII (Michael W. Deem and Ramdas Pophale) SiO2 
 PCOD8260658
Probable space group: C M C M
;
_chemical_formula_sum "Si O2"
_cell_formula_units_Z 104
_cell_length_a 13.558581
_cell_length_b 14.135813
_cell_length_c 24.625390
_cell_angle_alpha 90.000000
_cell_angle_beta 90.000000
_cell_angle_gamma 90.000000
_cell_volume 4719.740800
_symmetry_space_group_name_H-M "C M C M"
_symmetry_group_IT_number 63
_symmetry_cell_setting 'orthorhombic'
loop_
_space_group_symop_operation_xyz
x,y,z
-x,-y,1/2+z
x,-y,-z
-x,y,1/2-z
-x,-y,-z
x,y,1/2-z
-x,y,z
x,-y,1/2+z
1/2+x,1/2+y,z
1/2-x,1/2-y,1/2+z
1/2+x,1/2-y,-z
1/2-x,1/2+y,1/2-z
1/2-x,1/2-y,-z
1/2+x,1/2+y,1/2-z
1/2-x,1/2+y,z
1/2+x,1/2-y,1/2+z
loop_
_atom_site_type_symbol
_atom_site_label
_atom_site_fract_x
_atom_site_fract_y
_atom_site_fract_z
Si Si1 0.108081 0.007589 0.084474
Si Si2 0.110439 0.464152 0.187009
Si Si3 0.760434 0.500000 0.500000
Si Si4 0.615163 0.178737 0.525610
Si Si5 0.202198 0.921197 0.687690
Si Si6 0.196878 0.724978 0.636251
Si Si7 0.891860 0.790225 0.081557
O O1 0.103236 0.899426 0.065851
O O2 0.000000 0.054158 0.074235
O O3 0.134889 0.015670 0.148085
O O4 0.192841 0.051947 0.046070
O O5 0.103300 0.441947 0.250000
O O6 0.182436 0.553612 0.176029
O O7 0.155751 0.371523 0.160099
O O8 0.000000 0.485603 0.163850
O O9 0.827621 0.420931 0.471521
O O10 0.500000 0.156313 0.527158
O O11 0.645447 0.241315 0.577874
O O12 0.645020 0.235061 0.471681
O O13 0.174685 0.944807 0.750000
O O14 0.175778 0.812164 0.676106
O O15 0.315184 0.723395 0.630296
O O16 0.000000 0.754198 0.100482
#
# Coordination Sequence:
#
# PCOD8260658 Si02
#       7
#    16  16   8  16  16  16  16
#     4  11  24  41  63  92 129 172 217 268 327 390
#     4  10  22  43  68  94 127 168 219 279 340 401
#     4  12  22  42  68  98 132 174 216 272 336 398
#     4  11  24  40  63  96 134 171 215 267 327 399
#     4  11  25  44  68  97 130 173 226 280 335 403
#     4  12  22  41  67  96 130 172 218 271 334 397
#     4  10  22  40  61  91 129 170 212 258 321 395
#
# _framework density 22.035108000000001
#
# number of rings (size 3 to 8) (size 9 to 14) (size 15 to 20)
#    0.000    1.077    3.077    2.769    2.154    2.154 
#    0.000    2.308    0.000    1.385    0.000    0.000 
#    0.000    0.000    0.000    0.000    0.000    0.000 
#
# Total GULP energy -644737.595053 kJ/mol
# GULP energy per Si atom -12398.799905 kJ/mol
# Density = 2.198496 g / cm^3
# Si number density = 22.035108 Si / 1000 Ang^3
#
#
#
# Elastic Constant Matrix: (Units=GPa)
#
#
# Indices 1 2 3 4 5 6 
#
# 1 132.5324 22.4469 51.5447 0.0000 0.0000 0.0000
# 2 22.4469 67.1208 30.2148 0.0000 0.0000 0.0000
# 3 51.5447 30.2148 87.5437 0.0000 0.0000 0.0000
# 4 0.0000 0.0000 0.0000 35.3957 0.0000 0.0000
# 5 0.0000 0.0000 0.0000 0.0000 34.2099 0.0000
# 6 0.0000 0.0000 0.0000 0.0000 0.0000 23.0241
#
#
#
# Elastic Compliance Matrix: (Units=1/GPa)
#
#
# Indices 1 2 3 4 5 6 
#
# 1 0.009823 -0.000807 -0.005505 0.000000 0.000000 0.000000
# 2 -0.000807 0.017705 -0.005636 0.000000 0.000000 0.000000
# 3 -0.005505 -0.005636 0.016609 0.000000 0.000000 0.000000
# 4 0.000000 0.000000 0.000000 0.028252 0.000000 0.000000
# 5 0.000000 0.000000 0.000000 0.000000 0.029231 0.000000
# 6 0.000000 0.000000 0.000000 0.000000 0.000000 0.043433
#
#
# Mechanical properties :
#
#
# Convention : Reuss Voigt Hill
#
# Bulk Modulus (GPa) = 49.40194 55.06774 52.23484
# Shear Modulus (GPa) = 28.45811 30.72531 29.59171
#
# Velocity S-wave (km/s) = 3.59763 3.73819 3.66858
# Velocity P-wave (km/s) = 6.30282 6.60888 6.45766
#
# Compressibility (1/GPa) = 0.02024212
#
# Stress axis : x y z
#
# Youngs Moduli (GPa) = 101.80099 56.48028 60.20687
#
# Poissons Ratio (x) = 0.04557 0.33145
# Poissons Ratio (y) = 0.08214 0.33931
# Poissons Ratio (z) = 0.56044 0.31831
#
# Static dielectric constant tensor:
#      x y z
#    x 4.456440 0.000000 0.000000 
#    y 0.000000 3.732850 0.000000 
#    z 0.000000 0.000000 3.935660 
# 
# 
# High freq. dielectric constant tensor:
#      x y z
#    x 1.885190 0.000000 0.000000 
#    y 0.000000 1.855620 0.000000 
#    z 0.000000 0.000000 1.859630 
# 
# From -- ./inp_files/54511.got.cif
#   From: 2010.03.12/outbox.cif.g09.slc.cpg/sg63_28_cif.got.tgz:54511.got - 2010.04.10 19:34:48.
