data_PCOD8260425
_publ_section_title
;
Structure prediction by ZEFSAII (Michael W. Deem and Ramdas Pophale) SiO2 
 PCOD8260425
Probable space group: C M C M
;
_chemical_formula_sum "Si O2"
_cell_formula_units_Z 64
_cell_length_a 16.544059
_cell_length_b 11.872423
_cell_length_c 15.212390
_cell_angle_alpha 90.000000
_cell_angle_beta 90.000000
_cell_angle_gamma 90.000000
_cell_volume 2987.988232
_symmetry_space_group_name_H-M "C M C M"
_symmetry_group_IT_number 63
_symmetry_cell_setting 'orthorhombic'
loop_
_space_group_symop_operation_xyz
x,y,z
-x,-y,1/2+z
x,-y,-z
-x,y,1/2-z
-x,-y,-z
x,y,1/2-z
-x,y,z
x,-y,1/2+z
1/2+x,1/2+y,z
1/2-x,1/2-y,1/2+z
1/2+x,1/2-y,-z
1/2-x,1/2+y,1/2-z
1/2-x,1/2-y,-z
1/2+x,1/2+y,1/2-z
1/2-x,1/2+y,z
1/2+x,1/2-y,1/2+z
loop_
_atom_site_type_symbol
_atom_site_label
_atom_site_fract_x
_atom_site_fract_y
_atom_site_fract_z
Si Si1 0.202889 0.277203 0.909688
Si Si2 0.090673 0.878419 0.489363
Si Si3 0.366778 0.768631 0.346858
Si Si4 0.906820 0.476148 0.646808
O O1 0.270743 0.258502 0.835834
O O2 0.157794 0.397663 0.904217
O O3 0.250000 0.250000 0.000000
O O4 0.132573 0.184144 0.907347
O O5 0.092657 0.812176 0.581826
O O6 0.000000 0.895961 0.457875
O O7 0.133187 0.000000 0.500000
O O8 0.405371 0.748932 0.250000
O O9 0.383074 0.896402 0.377232
O O10 0.897760 0.452340 0.750000
O O11 0.000000 0.453210 0.616889
#
# Coordination Sequence:
#
# PCOD8260425 Si02
#       4
#    16  16  16  16
#     4  10  22  36  59  86 123 159 199 248 307 364
#     4  10  22  39  59  86 123 163 204 246 297 367
#     4  10  22  39  64  91 121 161 206 257 310 366
#     4  10  21  39  63  91 121 156 206 262 310 361
#
# _framework density 21.419094000000001
#
# number of rings (size 3 to 8) (size 9 to 14) (size 15 to 20)
#    0.000    2.000    0.000    2.250    7.000    4.500 
#    0.000    7.500    0.000    3.000    0.000    0.000 
#    0.000    0.000    0.000    0.000    0.000    0.000 
#
# Total GULP energy -396482.529753 kJ/mol
# GULP energy per Si atom -12390.079055 kJ/mol
# Density = 2.137034 g / cm^3
# Si number density = 21.419094 Si / 1000 Ang^3
#
#
#
# Elastic Constant Matrix: (Units=GPa)
#
#
# Indices 1 2 3 4 5 6 
#
# 1 115.1098 42.9065 4.7673 0.0000 0.0000 0.0000
# 2 42.9065 147.4126 19.6321 0.0000 0.0000 0.0000
# 3 4.7673 19.6321 49.5798 0.0000 0.0000 0.0000
# 4 0.0000 0.0000 0.0000 33.4827 0.0000 0.0000
# 5 0.0000 0.0000 0.0000 0.0000 22.1566 0.0000
# 6 0.0000 0.0000 0.0000 0.0000 0.0000 35.1127
#
#
#
# Elastic Compliance Matrix: (Units=1/GPa)
#
#
# Indices 1 2 3 4 5 6 
#
# 1 0.009746 -0.002863 0.000196 0.000000 0.000000 0.000000
# 2 -0.002863 0.008002 -0.002893 0.000000 0.000000 0.000000
# 3 0.000196 -0.002893 0.021296 0.000000 0.000000 0.000000
# 4 0.000000 0.000000 0.000000 0.029866 0.000000 0.000000
# 5 0.000000 0.000000 0.000000 0.000000 0.045133 0.000000
# 6 0.000000 0.000000 0.000000 0.000000 0.000000 0.028480
#
#
# Mechanical properties :
#
#
# Convention : Reuss Voigt Hill
#
# Bulk Modulus (GPa) = 35.80988 49.63490 42.72239
# Shear Modulus (GPa) = 30.68382 34.47015 32.57699
#
# Velocity S-wave (km/s) = 3.78900 4.01598 3.90414
# Velocity P-wave (km/s) = 5.99141 6.68788 6.34920
#
# Compressibility (1/GPa) = 0.02792525
#
# Stress axis : x y z
#
# Youngs Moduli (GPa) = 102.60220 124.96363 46.95647
#
# Poissons Ratio (x) = 0.35777 -0.00923
# Poissons Ratio (y) = 0.29375 0.13586
# Poissons Ratio (z) = -0.02016 0.36157
#
# Static dielectric constant tensor:
#      x y z
#    x 4.546830 0.000000 0.000000 
#    y 0.000000 3.979740 0.000000 
#    z 0.000000 0.000000 3.809150 
# 
# 
# High freq. dielectric constant tensor:
#      x y z
#    x 1.858350 0.000000 0.000000 
#    y 0.000000 1.843640 0.000000 
#    z 0.000000 0.000000 1.821030 
# 
# From -- ./inp_files/33342.got.cif
#   From: 2010.03.12/outbox.cif.g09.slc.cpg/sg63_17_cif.got.tgz:33342.got - 2010.04.10 19:34:48.
