data_PCOD8260523
_publ_section_title
;
Structure prediction by ZEFSAII (Michael W. Deem and Ramdas Pophale) SiO2 
 PCOD8260523
Probable space group: C M C M
;
_chemical_formula_sum "Si O2"
_cell_formula_units_Z 128
_cell_length_a 18.485729
_cell_length_b 24.506340
_cell_length_c 18.684998
_cell_angle_alpha 90.000000
_cell_angle_beta 90.000000
_cell_angle_gamma 90.000000
_cell_volume 8464.632203
_symmetry_space_group_name_H-M "C M C M"
_symmetry_group_IT_number 63
_symmetry_cell_setting 'orthorhombic'
loop_
_space_group_symop_operation_xyz
x,y,z
-x,-y,1/2+z
x,-y,-z
-x,y,1/2-z
-x,-y,-z
x,y,1/2-z
-x,y,z
x,-y,1/2+z
1/2+x,1/2+y,z
1/2-x,1/2-y,1/2+z
1/2+x,1/2-y,-z
1/2-x,1/2+y,1/2-z
1/2-x,1/2-y,-z
1/2+x,1/2+y,1/2-z
1/2-x,1/2+y,z
1/2+x,1/2-y,1/2+z
loop_
_atom_site_type_symbol
_atom_site_label
_atom_site_fract_x
_atom_site_fract_y
_atom_site_fract_z
Si Si1 0.780240 0.669813 0.040288
Si Si2 0.084039 0.019042 0.167075
Si Si3 0.358559 0.309157 0.330808
Si Si4 0.081323 0.228077 0.420456
Si Si5 0.857031 0.109565 0.429236
Si Si6 0.781710 0.280610 0.396374
Si Si7 0.085139 0.089677 0.582238
Si Si8 0.918932 0.281406 0.573988
O O1 0.729647 0.620209 0.066398
O O2 0.747259 0.726229 0.066778
O O3 0.862886 0.667324 0.070672
O O4 0.781657 0.670142 0.953912
O O5 0.103532 0.011421 0.250000
O O6 0.131023 0.068516 0.136066
O O7 0.000000 0.032876 0.155874
O O8 0.105252 0.964091 0.126143
O O9 0.382357 0.321562 0.250000
O O10 0.271754 0.297742 0.332342
O O11 0.375967 0.359949 0.380561
O O12 0.402502 0.256474 0.357836
O O13 0.098866 0.164495 0.412808
O O14 0.135789 0.265737 0.372462
O O15 0.091596 0.243997 0.503629
O O16 0.000000 0.239251 0.393571
O O17 0.886105 0.082294 0.501897
O O18 0.000000 0.100899 0.581196
O O19 0.000000 0.305033 0.579616
#
# Coordination Sequence:
#
# PCOD8260523 Si02
#       8
#    16  16  16  16  16  16  16  16
#     4   8  14  26  44  62  82 110 141 178 210 245
#     4  10  22  35  43  58  87 116 143 184 229 256
#     4  11  19  27  41  61  89 123 148 177 220 261
#     4   9  15  25  46  68  84 109 148 184 211 247
#     4  11  17  29  49  65  83 112 152 184 210 254
#     4   8  14  27  39  58  88 112 140 175 214 252
#     4  11  20  31  45  63  83 111 151 187 216 255
#     4   9  16  27  42  64  92 116 140 172 213 260
#
# _framework density 15.121744
#
# number of rings (size 3 to 8) (size 9 to 14) (size 15 to 20)
#    0.000    2.375    2.500    3.750    0.000    2.500 
#    0.000    5.625    0.000    1.125    0.000    0.000 
#    0.000    3.000    0.000    1.000    0.000    0.000 
#
# Total GULP energy -793228.442963 kJ/mol
# GULP energy per Si atom -12394.194421 kJ/mol
# Density = 1.508733 g / cm^3
# Si number density = 15.121744 Si / 1000 Ang^3
#
#
#
# Elastic Constant Matrix: (Units=GPa)
#
#
# Indices 1 2 3 4 5 6 
#
# 1 121.2394 37.7293 15.6968 0.0000 0.0000 0.0000
# 2 37.7293 52.1677 20.6821 0.0000 0.0000 0.0000
# 3 15.6968 20.6821 38.6316 0.0000 0.0000 0.0000
# 4 0.0000 0.0000 0.0000 10.0993 0.0000 0.0000
# 5 0.0000 0.0000 0.0000 0.0000 13.9034 0.0000
# 6 0.0000 0.0000 0.0000 0.0000 0.0000 21.0651
#
#
#
# Elastic Compliance Matrix: (Units=1/GPa)
#
#
# Indices 1 2 3 4 5 6 
#
# 1 0.010646 -0.007597 -0.000258 0.000000 0.000000 0.000000
# 2 -0.007597 0.029755 -0.012843 0.000000 0.000000 0.000000
# 3 -0.000258 -0.012843 0.032866 0.000000 0.000000 0.000000
# 4 0.000000 0.000000 0.000000 0.099017 0.000000 0.000000
# 5 0.000000 0.000000 0.000000 0.000000 0.071925 0.000000
# 6 0.000000 0.000000 0.000000 0.000000 0.000000 0.047472
#
#
# Mechanical properties :
#
#
# Convention : Reuss Voigt Hill
#
# Bulk Modulus (GPa) = 31.37726 40.02836 35.70281
# Shear Modulus (GPa) = 14.54754 18.20892 16.37823
#
# Velocity S-wave (km/s) = 3.10502 3.47386 3.29461
# Velocity P-wave (km/s) = 5.80084 6.52828 6.17528
#
# Compressibility (1/GPa) = 0.03187021
#
# Stress axis : x y z
#
# Youngs Moduli (GPa) = 93.93449 33.60791 30.42624
#
# Poissons Ratio (x) = 0.25531 0.00786
# Poissons Ratio (y) = 0.71361 0.39077
# Poissons Ratio (z) = 0.02428 0.43163
#
# Static dielectric constant tensor:
#      x y z
#    x 3.362710 0.000000 0.000000 
#    y 0.000000 2.669280 0.000000 
#    z 0.000000 0.000000 2.726600 
# 
# 
# High freq. dielectric constant tensor:
#      x y z
#    x 1.581830 0.000000 0.000000 
#    y 0.000000 1.540550 0.000000 
#    z 0.000000 0.000000 1.561520 
# 
# From -- ./inp_files/46308.got.cif
#   From: 2010.03.12/outbox.cif.g09.slc.cpg/sg63_24_cif.got.tgz:46308.got - 2010.04.10 19:34:48.
