data_PCOD8260571
_publ_section_title
;
Structure prediction by ZEFSAII (Michael W. Deem and Ramdas Pophale) SiO2 
 PCOD8260571
Probable space group: C M C M
;
_chemical_formula_sum "Si O2"
_cell_formula_units_Z 112
_cell_length_a 31.286137
_cell_length_b 12.066339
_cell_length_c 15.052013
_cell_angle_alpha 90.000000
_cell_angle_beta 90.000000
_cell_angle_gamma 90.000000
_cell_volume 5682.272408
_symmetry_space_group_name_H-M "C M C M"
_symmetry_group_IT_number 63
_symmetry_cell_setting 'orthorhombic'
loop_
_space_group_symop_operation_xyz
x,y,z
-x,-y,1/2+z
x,-y,-z
-x,y,1/2-z
-x,-y,-z
x,y,1/2-z
-x,y,z
x,-y,1/2+z
1/2+x,1/2+y,z
1/2-x,1/2-y,1/2+z
1/2+x,1/2-y,-z
1/2-x,1/2+y,1/2-z
1/2-x,1/2-y,-z
1/2+x,1/2+y,1/2-z
1/2-x,1/2+y,z
1/2+x,1/2-y,1/2+z
loop_
_atom_site_type_symbol
_atom_site_label
_atom_site_fract_x
_atom_site_fract_y
_atom_site_fract_z
Si Si1 0.821830 0.620466 0.649251
Si Si2 0.667095 0.540634 0.850149
Si Si3 0.377445 0.680755 0.144025
Si Si4 0.594835 0.716975 0.649169
Si Si5 0.833310 0.379688 0.852584
Si Si6 0.733384 0.703670 0.591619
Si Si7 0.048662 0.870747 0.987090
O O1 0.835998 0.608120 0.750000
O O2 0.854568 0.708562 0.606465
O O3 0.826508 0.500194 0.600881
O O4 0.773873 0.665862 0.648068
O O5 0.686317 0.540277 0.750000
O O6 0.655488 0.417373 0.882557
O O7 0.623054 0.606918 0.850505
O O8 0.701777 0.597203 0.915614
O O9 0.385844 0.679689 0.250000
O O10 0.422176 0.672151 0.093399
O O11 0.577258 0.738107 0.750000
O O12 0.623914 0.818836 0.612669
O O13 0.557006 0.696421 0.578918
O O14 0.840117 0.399749 0.750000
O O15 0.791337 0.304723 0.862684
O O16 0.750000 0.750000 0.500000
O O17 0.000000 0.848227 0.959074
O O18 0.057565 0.000000 0.000000
#
# Coordination Sequence:
#
# PCOD8260571 Si02
#       7
#    16  16  16  16  16  16  16
#     4  10  22  38  57  81 110 152 202 244 286 341
#     4   9  18  36  58  77 107 155 199 235 287 348
#     4  10  22  39  60  85 117 161 199 238 297 357
#     4   9  18  37  62  84 112 154 193 233 290 354
#     4   9  20  40  60  78 108 153 200 243 288 343
#     4  11  23  34  51  82 117 150 193 247 295 339
#     4  11  23  37  60  93 124 149 185 244 303 361
#
# _framework density 19.710422999999999
#
# number of rings (size 3 to 8) (size 9 to 14) (size 15 to 20)
#    0.000    2.143    1.429    2.143    6.000    1.143 
#    0.000    1.429    0.000    1.714    0.000    4.000 
#    0.000    0.000    0.000    0.000    0.000    0.000 
#
# Total GULP energy -694055.053074 kJ/mol
# GULP energy per Si atom -12393.840233 kJ/mol
# Density = 1.966556 g / cm^3
# Si number density = 19.710423 Si / 1000 Ang^3
#
#
#
# Elastic Constant Matrix: (Units=GPa)
#
#
# Indices 1 2 3 4 5 6 
#
# 1 113.6083 66.5473 35.9081 0.0000 0.0000 0.0000
# 2 66.5473 158.9905 27.4024 0.0000 0.0000 0.0000
# 3 35.9081 27.4024 62.8265 0.0000 0.0000 0.0000
# 4 0.0000 0.0000 0.0000 12.2477 0.0000 0.0000
# 5 0.0000 0.0000 0.0000 0.0000 32.1196 0.0000
# 6 0.0000 0.0000 0.0000 0.0000 0.0000 22.0788
#
#
#
# Elastic Compliance Matrix: (Units=1/GPa)
#
#
# Indices 1 2 3 4 5 6 
#
# 1 0.013249 -0.004585 -0.005573 0.000000 0.000000 0.000000
# 2 -0.004585 0.008388 -0.001038 0.000000 0.000000 0.000000
# 3 -0.005573 -0.001038 0.019555 0.000000 0.000000 0.000000
# 4 0.000000 0.000000 0.000000 0.081648 0.000000 0.000000
# 5 0.000000 0.000000 0.000000 0.000000 0.031134 0.000000
# 6 0.000000 0.000000 0.000000 0.000000 0.000000 0.045292
#
#
# Mechanical properties :
#
#
# Convention : Reuss Voigt Hill
#
# Bulk Modulus (GPa) = 53.19066 66.12676 59.65871
# Shear Modulus (GPa) = 21.93716 26.99372 24.46544
#
# Velocity S-wave (km/s) = 3.33974 3.70471 3.52695
# Velocity P-wave (km/s) = 6.47429 7.20568 6.84976
#
# Compressibility (1/GPa) = 0.01880029
#
# Stress axis : x y z
#
# Youngs Moduli (GPa) = 75.47525 119.22178 51.13908
#
# Poissons Ratio (x) = 0.54666 0.28498
# Poissons Ratio (y) = 0.34607 0.05307
# Poissons Ratio (z) = 0.42060 0.12372
#
# Static dielectric constant tensor:
#      x y z
#    x 3.040830 0.000000 0.000000 
#    y 0.000000 4.206370 0.000000 
#    z 0.000000 0.000000 3.518920 
# 
# 
# High freq. dielectric constant tensor:
#      x y z
#    x 1.740500 0.000000 0.000000 
#    y 0.000000 1.772550 0.000000 
#    z 0.000000 0.000000 1.763250 
# 
# From -- ./inp_files/38561.got.cif
#   From: 2010.03.12/outbox.cif.g09.slc.cpg/sg63_20_cif.got.tgz:38561.got - 2010.04.10 19:34:48.
