data_PCOD8260587
_publ_section_title
;
Structure prediction by ZEFSAII (Michael W. Deem and Ramdas Pophale) SiO2 
 PCOD8260587
Probable space group: C M C M
;
_chemical_formula_sum "Si O2"
_cell_formula_units_Z 76
_cell_length_a 7.583740
_cell_length_b 26.313664
_cell_length_c 19.695436
_cell_angle_alpha 90.000000
_cell_angle_beta 90.000000
_cell_angle_gamma 90.000000
_cell_volume 3930.342155
_symmetry_space_group_name_H-M "C M C M"
_symmetry_group_IT_number 63
_symmetry_cell_setting 'orthorhombic'
loop_
_space_group_symop_operation_xyz
x,y,z
-x,-y,1/2+z
x,-y,-z
-x,y,1/2-z
-x,-y,-z
x,y,1/2-z
-x,y,z
x,-y,1/2+z
1/2+x,1/2+y,z
1/2-x,1/2-y,1/2+z
1/2+x,1/2-y,-z
1/2-x,1/2+y,1/2-z
1/2-x,1/2-y,-z
1/2+x,1/2+y,1/2-z
1/2-x,1/2+y,z
1/2+x,1/2-y,1/2+z
loop_
_atom_site_type_symbol
_atom_site_label
_atom_site_fract_x
_atom_site_fract_y
_atom_site_fract_z
Si Si1 0.206932 0.693491 0.174077
Si Si2 0.500000 0.952669 0.250000
Si Si3 0.500000 0.059321 0.014663
Si Si4 0.302334 0.592873 0.386504
Si Si5 0.795206 0.965076 0.750000
Si Si6 0.297105 0.691627 0.829581
Si Si7 0.000000 0.620585 0.876563
O O1 0.283641 0.685602 0.250000
O O2 0.295175 0.653896 0.122331
O O3 0.248433 0.750577 0.149428
O O4 0.000000 0.683868 0.174858
O O5 0.500000 0.919270 0.316563
O O6 0.321179 0.984706 0.250000
O O7 0.324905 0.073471 0.055207
O O8 0.500000 0.090717 0.946128
O O9 0.500000 0.000000 0.000000
O O10 0.500000 0.576988 0.407200
O O11 0.245021 0.567875 0.315525
O O12 0.000000 0.981236 0.750000
O O13 0.258561 0.683651 0.750000
O O14 0.500000 0.678789 0.846109
O O15 0.174792 0.654973 0.873531
#
# Coordination Sequence:
#
# PCOD8260587 Si02
#       7
#    16   4   8  16   8  16   8
#     4   9  17  32  63 100 130 164 193 249 320 376
#     4  12  24  40  66  88 120 158 220 278 312 358
#     4  12  28  47  63  84 128 175 221 268 311 370
#     4  11  22  39  65  96 126 163 208 259 324 376
#     4  10  22  38  61  97 123 153 206 272 322 371
#     4   9  19  37  62  96 131 156 200 255 313 380
#     4  12  24  42  65  91 115 179 217 251 322 376
#
# _framework density 19.336739000000001
#
# number of rings (size 3 to 8) (size 9 to 14) (size 15 to 20)
#    0.000    1.684    3.158    3.158    1.474    2.105 
#    0.000    1.053    0.000    0.000    0.000    0.000 
#    0.000    0.000    0.000    0.000    0.000    0.000 
#
# Total GULP energy -471287.562286 kJ/mol
# GULP energy per Si atom -12402.304271 kJ/mol
# Density = 1.929273 g / cm^3
# Si number density = 19.336739 Si / 1000 Ang^3
#
#
#
# Elastic Constant Matrix: (Units=GPa)
#
#
# Indices 1 2 3 4 5 6 
#
# 1 114.5907 73.7482 66.4372 0.0000 0.0000 0.0000
# 2 73.7482 147.7755 73.4375 0.0000 0.0000 0.0000
# 3 66.4372 73.4375 124.8848 0.0000 0.0000 0.0000
# 4 0.0000 0.0000 0.0000 39.0370 0.0000 0.0000
# 5 0.0000 0.0000 0.0000 0.0000 26.0571 0.0000
# 6 0.0000 0.0000 0.0000 0.0000 0.0000 30.9032
#
#
#
# Elastic Compliance Matrix: (Units=1/GPa)
#
#
# Indices 1 2 3 4 5 6 
#
# 1 0.014761 -0.004894 -0.004974 0.000000 0.000000 0.000000
# 2 -0.004894 0.011184 -0.003973 0.000000 0.000000 0.000000
# 3 -0.004974 -0.003973 0.012990 0.000000 0.000000 0.000000
# 4 0.000000 0.000000 0.000000 0.025617 0.000000 0.000000
# 5 0.000000 0.000000 0.000000 0.000000 0.038377 0.000000
# 6 0.000000 0.000000 0.000000 0.000000 0.000000 0.032359
#
#
# Mechanical properties :
#
#
# Convention : Reuss Voigt Hill
#
# Bulk Modulus (GPa) = 88.87917 90.49964 89.68941
# Shear Modulus (GPa) = 29.99017 30.77466 30.38242
#
# Velocity S-wave (km/s) = 3.94247 3.99370 3.96817
# Velocity P-wave (km/s) = 8.17238 8.25650 8.21455
#
# Compressibility (1/GPa) = 0.01125123
#
# Stress axis : x y z
#
# Youngs Moduli (GPa) = 67.74759 89.41430 76.98271
#
# Poissons Ratio (x) = 0.43762 0.38294
# Poissons Ratio (y) = 0.33158 0.30584
# Poissons Ratio (z) = 0.33701 0.35523
#
# Static dielectric constant tensor:
#      x y z
#    x 3.525840 0.000000 0.000000 
#    y 0.000000 3.678260 0.000000 
#    z 0.000000 0.000000 3.257480 
# 
# 
# High freq. dielectric constant tensor:
#      x y z
#    x 1.764840 0.000000 0.000000 
#    y 0.000000 1.763480 0.000000 
#    z 0.000000 0.000000 1.721700 
# 
# From -- ./inp_files/40646.got.cif
#   From: 2010.03.12/outbox.cif.g09.slc.cpg/sg63_21_cif.got.tgz:40646.got - 2010.04.10 19:34:48.
