data_PCOD8260318
_publ_section_title
;
Structure prediction by ZEFSAII (Michael W. Deem and Ramdas Pophale) SiO2 
 PCOD8260318
Probable space group: C M C M
;
_chemical_formula_sum "Si O2"
_cell_formula_units_Z 96
_cell_length_a 8.925496
_cell_length_b 24.929381
_cell_length_c 23.253018
_cell_angle_alpha 90.000000
_cell_angle_beta 90.000000
_cell_angle_gamma 90.000000
_cell_volume 5173.961378
_symmetry_space_group_name_H-M "C M C M"
_symmetry_group_IT_number 63
_symmetry_cell_setting 'orthorhombic'
loop_
_space_group_symop_operation_xyz
x,y,z
-x,-y,1/2+z
x,-y,-z
-x,y,1/2-z
-x,-y,-z
x,y,1/2-z
-x,y,z
x,-y,1/2+z
1/2+x,1/2+y,z
1/2-x,1/2-y,1/2+z
1/2+x,1/2-y,-z
1/2-x,1/2+y,1/2-z
1/2-x,1/2-y,-z
1/2+x,1/2+y,1/2-z
1/2-x,1/2+y,z
1/2+x,1/2-y,1/2+z
loop_
_atom_site_type_symbol
_atom_site_label
_atom_site_fract_x
_atom_site_fract_y
_atom_site_fract_z
Si Si1 0.672657 0.226172 0.555360
Si Si2 0.676619 0.144340 0.250000
Si Si3 0.829106 0.968656 0.750000
Si Si4 0.673853 0.487029 0.373236
Si Si5 0.173575 0.823460 0.635135
Si Si6 0.173192 0.606326 0.566871
Si Si7 0.673147 0.084223 0.435301
O O1 0.500000 0.220786 0.538609
O O2 0.750000 0.250000 0.500000
O O3 0.698579 0.264209 0.610001
O O4 0.734992 0.167173 0.570053
O O5 0.500000 0.148484 0.250000
O O6 0.721611 0.082304 0.250000
O O7 0.739071 0.174584 0.194616
O O8 0.000000 0.947589 0.750000
O O9 0.796114 0.004540 0.805701
O O10 0.500000 0.494309 0.388659
O O11 0.727915 0.427443 0.388555
O O12 0.769913 0.528478 0.410223
O O13 0.233694 0.866864 0.590382
O O14 0.000000 0.836194 0.646214
O O15 0.195939 0.582606 0.503367
O O16 0.000000 0.603181 0.585586
O O17 0.500000 0.092156 0.418502
#
# Coordination Sequence:
#
# PCOD8260318 Si02
#       7
#    16   8   8  16  16  16  16
#     4  10  21  38  61  87 117 155 194 240 293 348
#     4  12  24  38  61  88 117 155 198 242 296 349
#     4  10  22  40  59  82 115 151 192 246 298 347
#     4  11  23  38  58  84 117 155 198 243 296 356
#     4  11  22  37  60  89 121 154 194 243 293 345
#     4  10  22  39  57  84 122 157 193 241 293 348
#     4  11  21  35  58  87 121 154 190 241 296 349
#
# _framework density 18.554448000000001
#
# number of rings (size 3 to 8) (size 9 to 14) (size 15 to 20)
#    0.000    1.333    3.333    2.750    0.000    5.333 
#    0.000    0.833    0.000    3.000    0.000    0.000 
#    0.000    0.000    0.000    0.000    0.000    0.000 
#
# Total GULP energy -595454.769673 kJ/mol
# GULP energy per Si atom -12405.307702 kJ/mol
# Density = 1.851222 g / cm^3
# Si number density = 18.554448 Si / 1000 Ang^3
#
#
#
# Elastic Constant Matrix: (Units=GPa)
#
#
# Indices 1 2 3 4 5 6 
#
# 1 108.7827 52.3277 63.0679 0.0000 0.0000 0.0000
# 2 52.3277 137.5400 58.6543 0.0000 0.0000 0.0000
# 3 63.0679 58.6543 108.0629 0.0000 0.0000 0.0000
# 4 0.0000 0.0000 0.0000 25.2622 0.0000 0.0000
# 5 0.0000 0.0000 0.0000 0.0000 28.4810 0.0000
# 6 0.0000 0.0000 0.0000 0.0000 0.0000 30.4007
#
#
#
# Elastic Compliance Matrix: (Units=1/GPa)
#
#
# Indices 1 2 3 4 5 6 
#
# 1 0.014519 -0.002485 -0.007124 0.000000 0.000000 0.000000
# 2 -0.002485 0.009886 -0.003915 0.000000 0.000000 0.000000
# 3 -0.007124 -0.003915 0.015537 0.000000 0.000000 0.000000
# 4 0.000000 0.000000 0.000000 0.039585 0.000000 0.000000
# 5 0.000000 0.000000 0.000000 0.000000 0.035111 0.000000
# 6 0.000000 0.000000 0.000000 0.000000 0.000000 0.032894
#
#
# Mechanical properties :
#
#
# Convention : Reuss Voigt Hill
#
# Bulk Modulus (GPa) = 77.57189 78.05395 77.81292
# Shear Modulus (GPa) = 27.95190 28.85115 28.40153
#
# Velocity S-wave (km/s) = 3.88555 3.94756 3.91668
# Velocity P-wave (km/s) = 7.87582 7.93325 7.90458
#
# Compressibility (1/GPa) = 0.01289127
#
# Stress axis : x y z
#
# Youngs Moduli (GPa) = 68.87691 101.15407 64.36278
#
# Poissons Ratio (x) = 0.25142 0.45854
# Poissons Ratio (y) = 0.17119 0.25200
# Poissons Ratio (z) = 0.49070 0.39605
#
# Static dielectric constant tensor:
#      x y z
#    x 3.531570 0.000000 0.000000 
#    y 0.000000 3.540730 0.000000 
#    z 0.000000 0.000000 3.476680 
# 
# 
# High freq. dielectric constant tensor:
#      x y z
#    x 1.727990 0.000000 0.000000 
#    y 0.000000 1.722320 0.000000 
#    z 0.000000 0.000000 1.719870 
# 
# From -- ./inp_files/60035.got.cif
#   From: 2010.03.12/outbox.cif.g09.slc.cpg/sg63_31_cif.got.tgz:60035.got - 2010.04.10 19:34:48.
