data_PCOD8260390
_publ_section_title
;
Structure prediction by ZEFSAII (Michael W. Deem and Ramdas Pophale) SiO2 
 PCOD8260390
Probable space group: C M C M
;
_chemical_formula_sum "Si O2"
_cell_formula_units_Z 112
_cell_length_a 13.380159
_cell_length_b 28.003724
_cell_length_c 14.149450
_cell_angle_alpha 90.000000
_cell_angle_beta 90.000000
_cell_angle_gamma 90.000000
_cell_volume 5301.717976
_symmetry_space_group_name_H-M "C M C M"
_symmetry_group_IT_number 63
_symmetry_cell_setting 'orthorhombic'
loop_
_space_group_symop_operation_xyz
x,y,z
-x,-y,1/2+z
x,-y,-z
-x,y,1/2-z
-x,-y,-z
x,y,1/2-z
-x,y,z
x,-y,1/2+z
1/2+x,1/2+y,z
1/2-x,1/2-y,1/2+z
1/2+x,1/2-y,-z
1/2-x,1/2+y,1/2-z
1/2-x,1/2-y,-z
1/2+x,1/2+y,1/2-z
1/2-x,1/2+y,z
1/2+x,1/2-y,1/2+z
loop_
_atom_site_type_symbol
_atom_site_label
_atom_site_fract_x
_atom_site_fract_y
_atom_site_fract_z
Si Si1 0.739254 0.211627 0.863071
Si Si2 0.392165 0.076833 0.353052
Si Si3 0.190376 0.117931 0.361210
Si Si4 0.890264 0.623052 0.860103
Si Si5 0.686060 0.018270 0.902186
Si Si6 0.891153 0.014685 0.359523
Si Si7 0.617565 0.290396 0.966573
O O1 0.764016 0.213617 0.750000
O O2 0.687471 0.162388 0.896504
O O3 0.664439 0.254023 0.890827
O O4 0.839085 0.216191 0.927017
O O5 0.406769 0.099347 0.250000
O O6 0.500000 0.080236 0.407059
O O7 0.303213 0.107114 0.402700
O O8 0.355792 0.022244 0.332127
O O9 0.193287 0.132340 0.250000
O O10 0.125729 0.070686 0.375784
O O11 0.139879 0.157497 0.425545
O O12 0.901695 0.630836 0.750000
O O13 0.850730 0.570396 0.879255
O O14 0.000000 0.629762 0.907255
O O15 0.807045 0.018329 0.907780
O O16 0.639695 0.000000 0.000000
O O17 0.886789 0.002282 0.250000
O O18 0.000000 0.000929 0.401144
O O19 0.500000 0.281365 0.973037
#
# Coordination Sequence:
#
# PCOD8260390 Si02
#       7
#    16  16  16  16  16  16  16
#     4  10  24  44  65  94 128 160 204 258 308 369
#     4   9  18  34  54  78 114 156 195 242 302 362
#     4   9  18  33  57  91 123 153 198 253 306 365
#     4  10  21  39  61  82 113 161 207 247 297 359
#     4  11  22  32  49  82 117 151 198 250 297 354
#     4   9  18  34  54  76 107 150 198 249 304 358
#     4  11  23  41  68  96 123 161 205 252 307 368
#
# _framework density 21.125226999999999
#
# number of rings (size 3 to 8) (size 9 to 14) (size 15 to 20)
#    0.000    2.143    0.000    3.857    4.000    5.143 
#    0.000    3.571    0.000    4.286    0.000    0.000 
#    0.000    0.000    0.000    0.000    0.000    0.000 
#
# Total GULP energy -693846.504803 kJ/mol
# GULP energy per Si atom -12390.116157 kJ/mol
# Density = 2.107714 g / cm^3
# Si number density = 21.125227 Si / 1000 Ang^3
#
#
#
# Elastic Constant Matrix: (Units=GPa)
#
#
# Indices 1 2 3 4 5 6 
#
# 1 134.5789 1.7165 21.0322 0.0000 0.0000 0.0000
# 2 1.7165 54.8170 13.3837 0.0000 0.0000 0.0000
# 3 21.0322 13.3837 73.0007 0.0000 0.0000 0.0000
# 4 0.0000 0.0000 0.0000 20.0860 0.0000 0.0000
# 5 0.0000 0.0000 0.0000 0.0000 14.4412 0.0000
# 6 0.0000 0.0000 0.0000 0.0000 0.0000 23.7111
#
#
#
# Elastic Compliance Matrix: (Units=1/GPa)
#
#
# Indices 1 2 3 4 5 6 
#
# 1 0.007786 0.000318 -0.002302 0.000000 0.000000 0.000000
# 2 0.000318 0.019110 -0.003595 0.000000 0.000000 0.000000
# 3 -0.002302 -0.003595 0.015021 0.000000 0.000000 0.000000
# 4 0.000000 0.000000 0.000000 0.049786 0.000000 0.000000
# 5 0.000000 0.000000 0.000000 0.000000 0.069246 0.000000
# 6 0.000000 0.000000 0.000000 0.000000 0.000000 0.042174
#
#
# Mechanical properties :
#
#
# Convention : Reuss Voigt Hill
#
# Bulk Modulus (GPa) = 32.50998 37.18463 34.84730
# Shear Modulus (GPa) = 22.26828 26.73194 24.50011
#
# Velocity S-wave (km/s) = 3.25023 3.56111 3.40921
# Velocity P-wave (km/s) = 5.43211 5.87783 5.65936
#
# Compressibility (1/GPa) = 0.03075979
#
# Stress axis : x y z
#
# Youngs Moduli (GPa) = 128.43191 52.32769 66.57454
#
# Poissons Ratio (x) = -0.01665 0.15323
# Poissons Ratio (y) = -0.04086 0.23935
# Poissons Ratio (z) = 0.29560 0.18813
#
# Static dielectric constant tensor:
#      x y z
#    x 4.252970 0.000000 0.000000 
#    y 0.000000 3.571640 0.000000 
#    z 0.000000 0.000000 3.805540 
# 
# 
# High freq. dielectric constant tensor:
#      x y z
#    x 1.836470 0.000000 0.000000 
#    y 0.000000 1.810960 0.000000 
#    z 0.000000 0.000000 1.827860 
# 
# From -- ./inp_files/32758.got.cif
#   From: 2010.03.12/outbox.cif.g09.slc.cpg/sg63_17_cif.got.tgz:32758.got - 2010.04.10 19:34:48.
