data_PCOD8260945
_publ_section_title
;
Structure prediction by ZEFSAII (Michael W. Deem and Ramdas Pophale) SiO2 
 PCOD8260945
Probable space group: C M C M
;
_chemical_formula_sum "Si O2"
_cell_formula_units_Z 80
_cell_length_a 21.055894
_cell_length_b 13.008365
_cell_length_c 15.702216
_cell_angle_alpha 90.000000
_cell_angle_beta 90.000000
_cell_angle_gamma 90.000000
_cell_volume 4300.880215
_symmetry_space_group_name_H-M "C M C M"
_symmetry_group_IT_number 63
_symmetry_cell_setting 'orthorhombic'
loop_
_space_group_symop_operation_xyz
x,y,z
-x,-y,1/2+z
x,-y,-z
-x,y,1/2-z
-x,-y,-z
x,y,1/2-z
-x,y,z
x,-y,1/2+z
1/2+x,1/2+y,z
1/2-x,1/2-y,1/2+z
1/2+x,1/2-y,-z
1/2-x,1/2+y,1/2-z
1/2-x,1/2-y,-z
1/2+x,1/2+y,1/2-z
1/2-x,1/2+y,z
1/2+x,1/2-y,1/2+z
loop_
_atom_site_type_symbol
_atom_site_label
_atom_site_fract_x
_atom_site_fract_y
_atom_site_fract_z
Si Si1 0.220897 0.433460 0.415178
Si Si2 0.425264 0.583095 0.750000
Si Si3 0.774531 0.638611 0.156059
Si Si4 0.575205 0.652726 0.250000
Si Si5 0.852338 0.183065 0.597168
Si Si6 0.149586 0.773426 0.588556
O O1 0.217392 0.500000 0.500000
O O2 0.209139 0.517446 0.341119
O O3 0.289003 0.383982 0.399459
O O4 0.166137 0.347618 0.413487
O O5 0.500000 0.590423 0.750000
O O6 0.402102 0.465318 0.750000
O O7 0.402151 0.636830 0.663447
O O8 0.755925 0.677228 0.250000
O O9 0.835786 0.700478 0.123613
O O10 0.714417 0.661214 0.095750
O O11 0.500000 0.663834 0.250000
O O12 0.601281 0.706848 0.334843
O O13 0.881132 0.188912 0.501228
#
# Coordination Sequence:
#
# PCOD8260945 Si02
#       6
#    16   8  16   8  16  16
#     4  11  20  33  58  96 122 151 186 225 297 369
#     4  11  26  43  61  83 109 155 209 242 282 337
#     4  11  20  33  55  92 125 152 184 229 295 355
#     4  11  26  43  59  83 113 153 201 242 286 339
#     4  11  22  37  59  87 123 152 186 243 289 340
#     4  11  22  38  59  87 124 153 188 239 290 347
#
# _framework density 18.600843999999999
#
# number of rings (size 3 to 8) (size 9 to 14) (size 15 to 20)
#    0.000    1.000    6.000    2.400    2.800    0.800 
#    0.000    2.000    0.000    3.000    0.000    0.000 
#    0.000    0.000    0.000    0.000    0.000    0.000 
#
# Total GULP energy -495936.937624 kJ/mol
# GULP energy per Si atom -12398.423441 kJ/mol
# Density = 1.855851 g / cm^3
# Si number density = 18.600844 Si / 1000 Ang^3
#
#
#
# Elastic Constant Matrix: (Units=GPa)
#
#
# Indices 1 2 3 4 5 6 
#
# 1 55.5753 36.9490 33.7899 0.0000 0.0000 0.0000
# 2 36.9490 128.8330 46.6836 0.0000 0.0000 0.0000
# 3 33.7899 46.6836 149.0812 0.0000 0.0000 0.0000
# 4 0.0000 0.0000 0.0000 31.3441 0.0000 0.0000
# 5 0.0000 0.0000 0.0000 0.0000 16.1401 0.0000
# 6 0.0000 0.0000 0.0000 0.0000 0.0000 22.6010
#
#
#
# Elastic Compliance Matrix: (Units=1/GPa)
#
#
# Indices 1 2 3 4 5 6 
#
# 1 0.023907 -0.005519 -0.003690 0.000000 0.000000 0.000000
# 2 -0.005519 0.010030 -0.001890 0.000000 0.000000 0.000000
# 3 -0.003690 -0.001890 0.008136 0.000000 0.000000 0.000000
# 4 0.000000 0.000000 0.000000 0.031904 0.000000 0.000000
# 5 0.000000 0.000000 0.000000 0.000000 0.061958 0.000000
# 6 0.000000 0.000000 0.000000 0.000000 0.000000 0.044246
#
#
# Mechanical properties :
#
#
# Convention : Reuss Voigt Hill
#
# Bulk Modulus (GPa) = 50.31736 63.14827 56.73282
# Shear Modulus (GPa) = 23.92314 28.42151 26.17233
#
# Velocity S-wave (km/s) = 3.59016 3.91316 3.75514
# Velocity P-wave (km/s) = 6.65549 7.37835 7.02622
#
# Compressibility (1/GPa) = 0.01987386
#
# Stress axis : x y z
#
# Youngs Moduli (GPa) = 41.82924 99.70437 122.91164
#
# Poissons Ratio (x) = 0.55029 0.45358
# Poissons Ratio (y) = 0.23086 0.23227
# Poissons Ratio (z) = 0.15436 0.18842
#
# Static dielectric constant tensor:
#      x y z
#    x 2.955050 0.000000 0.000000 
#    y 0.000000 3.955330 0.000000 
#    z 0.000000 0.000000 3.736720 
# 
# 
# High freq. dielectric constant tensor:
#      x y z
#    x 1.666760 0.000000 0.000000 
#    y 0.000000 1.737950 0.000000 
#    z 0.000000 0.000000 1.748410 
# 
# From -- ./inp_files/47912.got.cif
#   From: 2010.03.12/outbox.cif.g09.slc.cpg/sg63_24_cif.got.tgz:47912.got - 2010.04.10 19:34:48.
