data_PCOD8260511
_publ_section_title
;
Structure prediction by ZEFSAII (Michael W. Deem and Ramdas Pophale) SiO2 
 PCOD8260511
Probable space group: C M C M
;
_chemical_formula_sum "Si O2"
_cell_formula_units_Z 72
_cell_length_a 26.972620
_cell_length_b 9.495442
_cell_length_c 13.967784
_cell_angle_alpha 90.000000
_cell_angle_beta 90.000000
_cell_angle_gamma 90.000000
_cell_volume 3577.386220
_symmetry_space_group_name_H-M "C M C M"
_symmetry_group_IT_number 63
_symmetry_cell_setting 'orthorhombic'
loop_
_space_group_symop_operation_xyz
x,y,z
-x,-y,1/2+z
x,-y,-z
-x,y,1/2-z
-x,-y,-z
x,y,1/2-z
-x,y,z
x,-y,1/2+z
1/2+x,1/2+y,z
1/2-x,1/2-y,1/2+z
1/2+x,1/2-y,-z
1/2-x,1/2+y,1/2-z
1/2-x,1/2-y,-z
1/2+x,1/2+y,1/2-z
1/2-x,1/2+y,z
1/2+x,1/2-y,1/2+z
loop_
_atom_site_type_symbol
_atom_site_label
_atom_site_fract_x
_atom_site_fract_y
_atom_site_fract_z
Si Si1 0.093508 0.980529 0.137728
Si Si2 0.122549 0.500000 0.000000
Si Si3 0.557100 0.728178 0.485637
Si Si4 0.203993 0.915455 0.362633
Si Si5 0.704786 0.901568 0.635916
O O1 0.084936 0.961707 0.250000
O O2 0.151422 0.982637 0.108902
O O3 0.069851 0.125865 0.102779
O O4 0.067500 0.848708 0.086385
O O5 0.088798 0.632133 0.974794
O O6 0.155850 0.472686 0.906719
O O7 0.500000 0.771152 0.480318
O O8 0.209648 0.907033 0.250000
O O9 0.209184 0.757619 0.403475
O O10 0.247150 0.015286 0.403464
O O11 0.699875 0.907631 0.750000
#
# Coordination Sequence:
#
# PCOD8260511 Si02
#       5
#    16   8  16  16  16
#     4  10  21  42  68  91 119 157 202 252 306 365
#     4  12  25  40  62  88 126 168 201 246 306 368
#     4  11  25  42  62  90 121 157 208 261 305 353
#     4   9  19  37  61  89 123 157 196 243 295 356
#     4  10  22  39  59  89 125 163 200 243 298 362
#
# _framework density 20.126425999999999
#
# number of rings (size 3 to 8) (size 9 to 14) (size 15 to 20)
#    0.000    1.778    2.222    1.667    3.111    5.333 
#    0.000    0.000    0.000    4.000    0.000    0.000 
#    0.000    0.000    0.000    0.000    0.000    0.000 
#
# Total GULP energy -446514.561900 kJ/mol
# GULP energy per Si atom -12403.182275 kJ/mol
# Density = 2.008062 g / cm^3
# Si number density = 20.126426 Si / 1000 Ang^3
#
#
#
# Elastic Constant Matrix: (Units=GPa)
#
#
# Indices 1 2 3 4 5 6 
#
# 1 146.7911 31.0437 23.7939 0.0000 0.0000 0.0000
# 2 31.0437 67.9386 24.1402 0.0000 0.0000 0.0000
# 3 23.7939 24.1402 74.7131 0.0000 0.0000 0.0000
# 4 0.0000 0.0000 0.0000 9.1857 0.0000 0.0000
# 5 0.0000 0.0000 0.0000 0.0000 26.5937 0.0000
# 6 0.0000 0.0000 0.0000 0.0000 0.0000 67.0587
#
#
#
# Elastic Compliance Matrix: (Units=1/GPa)
#
#
# Indices 1 2 3 4 5 6 
#
# 1 0.007684 -0.002984 -0.001483 0.000000 0.000000 0.000000
# 2 -0.002984 0.017787 -0.004797 0.000000 0.000000 0.000000
# 3 -0.001483 -0.004797 0.015407 0.000000 0.000000 0.000000
# 4 0.000000 0.000000 0.000000 0.108865 0.000000 0.000000
# 5 0.000000 0.000000 0.000000 0.000000 0.037603 0.000000
# 6 0.000000 0.000000 0.000000 0.000000 0.000000 0.014912
#
#
# Mechanical properties :
#
#
# Convention : Reuss Voigt Hill
#
# Bulk Modulus (GPa) = 44.74259 49.71093 47.22676
# Shear Modulus (GPa) = 21.90717 34.59861 28.25289
#
# Velocity S-wave (km/s) = 3.30279 4.15066 3.75076
# Velocity P-wave (km/s) = 6.06824 6.90822 6.50181
#
# Compressibility (1/GPa) = 0.02235007
#
# Stress axis : x y z
#
# Youngs Moduli (GPa) = 130.14285 56.22043 64.90705
#
# Poissons Ratio (x) = 0.16777 0.09625
# Poissons Ratio (y) = 0.38836 0.31134
# Poissons Ratio (z) = 0.19299 0.26968
#
# Static dielectric constant tensor:
#      x y z
#    x 3.820710 0.000000 0.000000 
#    y 0.000000 3.903910 0.000000 
#    z 0.000000 0.000000 3.495480 
# 
# 
# High freq. dielectric constant tensor:
#      x y z
#    x 1.795290 0.000000 0.000000 
#    y 0.000000 1.790400 0.000000 
#    z 0.000000 0.000000 1.783650 
# 
# From -- ./inp_files/37534.got.cif
#   From: 2010.03.12/outbox.cif.g09.slc.cpg/sg63_19_cif.got.tgz:37534.got - 2010.04.10 19:34:48.
