data_PCOD8260744
_publ_section_title
;
Structure prediction by ZEFSAII (Michael W. Deem and Ramdas Pophale) SiO2 
 PCOD8260744
Probable space group: C M C M
;
_chemical_formula_sum "Si O2"
_cell_formula_units_Z 64
_cell_length_a 12.681913
_cell_length_b 16.788736
_cell_length_c 13.997095
_cell_angle_alpha 90.000000
_cell_angle_beta 90.000000
_cell_angle_gamma 90.000000
_cell_volume 2980.167538
_symmetry_space_group_name_H-M "C M C M"
_symmetry_group_IT_number 63
_symmetry_cell_setting 'orthorhombic'
loop_
_space_group_symop_operation_xyz
x,y,z
-x,-y,1/2+z
x,-y,-z
-x,y,1/2-z
-x,-y,-z
x,y,1/2-z
-x,y,z
x,-y,1/2+z
1/2+x,1/2+y,z
1/2-x,1/2-y,1/2+z
1/2+x,1/2-y,-z
1/2-x,1/2+y,1/2-z
1/2-x,1/2-y,-z
1/2+x,1/2+y,1/2-z
1/2-x,1/2+y,z
1/2+x,1/2-y,1/2+z
loop_
_atom_site_type_symbol
_atom_site_label
_atom_site_fract_x
_atom_site_fract_y
_atom_site_fract_z
Si Si1 0.188846 0.675469 0.966172
Si Si2 0.382099 0.918864 0.855239
Si Si3 0.699181 0.459410 0.140965
Si Si4 0.500000 0.745107 0.362125
Si Si5 0.500000 0.562554 0.136383
O O1 0.278814 0.618448 0.921625
O O2 0.101766 0.703646 0.890780
O O3 0.250000 0.750000 0.000000
O O4 0.132599 0.643381 0.060821
O O5 0.360678 0.879506 0.750000
O O6 0.500000 0.953401 0.859911
O O7 0.306950 0.993090 0.869758
O O8 0.675232 0.434576 0.250000
O O9 0.602991 0.513503 0.100640
O O10 0.500000 0.737028 0.250000
O O11 0.500000 0.653708 0.404602
O O12 0.500000 0.567466 0.250000
#
# Coordination Sequence:
#
# PCOD8260744 Si02
#       5
#    16  16  16   8   8
#     4  12  25  40  64 100 135 171 217 271 336 399
#     4  10  22  42  66  92 125 170 221 272 324 385
#     4  10  22  41  69  98 128 174 224 271 322 390
#     4  11  24  43  67  99 140 176 216 276 342 399
#     4   9  20  43  69  95 134 182 224 262 321 401
#
# _framework density 21.475304000000001
#
# number of rings (size 3 to 8) (size 9 to 14) (size 15 to 20)
#    0.000    1.500    1.250    3.000    1.750    6.000 
#    0.000    3.750    0.000    0.000    0.000    0.000 
#    0.000    0.000    0.000    0.000    0.000    0.000 
#
# Total GULP energy -396694.124127 kJ/mol
# GULP energy per Si atom -12396.691379 kJ/mol
# Density = 2.142642 g / cm^3
# Si number density = 21.475304 Si / 1000 Ang^3
#
#
#
# Elastic Constant Matrix: (Units=GPa)
#
#
# Indices 1 2 3 4 5 6 
#
# 1 96.7055 42.1305 30.7866 0.0000 0.0000 0.0000
# 2 42.1305 121.6120 54.2262 0.0000 0.0000 0.0000
# 3 30.7866 54.2262 95.7543 0.0000 0.0000 0.0000
# 4 0.0000 0.0000 0.0000 34.9042 0.0000 0.0000
# 5 0.0000 0.0000 0.0000 0.0000 15.1859 0.0000
# 6 0.0000 0.0000 0.0000 0.0000 0.0000 39.2619
#
#
#
# Elastic Compliance Matrix: (Units=1/GPa)
#
#
# Indices 1 2 3 4 5 6 
#
# 1 0.012485 -0.003392 -0.002093 0.000000 0.000000 0.000000
# 2 -0.003392 0.011922 -0.005661 0.000000 0.000000 0.000000
# 3 -0.002093 -0.005661 0.014322 0.000000 0.000000 0.000000
# 4 0.000000 0.000000 0.000000 0.028650 0.000000 0.000000
# 5 0.000000 0.000000 0.000000 0.000000 0.065850 0.000000
# 6 0.000000 0.000000 0.000000 0.000000 0.000000 0.025470
#
#
# Mechanical properties :
#
#
# Convention : Reuss Voigt Hill
#
# Bulk Modulus (GPa) = 60.83843 63.15093 61.99468
# Shear Modulus (GPa) = 26.81386 30.33229 28.57308
#
# Velocity S-wave (km/s) = 3.53737 3.76230 3.65157
# Velocity P-wave (km/s) = 6.71379 6.95294 6.83441
#
# Compressibility (1/GPa) = 0.01643698
#
# Stress axis : x y z
#
# Youngs Moduli (GPa) = 80.09789 83.87760 69.82116
#
# Poissons Ratio (x) = 0.28449 0.14616
# Poissons Ratio (y) = 0.27167 0.39526
# Poissons Ratio (z) = 0.16767 0.47484
#
# Static dielectric constant tensor:
#      x y z
#    x 3.770630 0.000000 0.000000 
#    y 0.000000 3.860950 0.000000 
#    z 0.000000 0.000000 4.108110 
# 
# 
# High freq. dielectric constant tensor:
#      x y z
#    x 1.855970 0.000000 0.000000 
#    y 0.000000 1.832550 0.000000 
#    z 0.000000 0.000000 1.855560 
# 
# From -- ./inp_files/29162.got.cif
#   From: 2010.03.12/outbox.cif.g09.slc.cpg/sg63_15_cif.got.tgz:29162.got - 2010.04.10 19:34:48.
