data_PCOD8260472
_publ_section_title
;
Structure prediction by ZEFSAII (Michael W. Deem and Ramdas Pophale) SiO2 
 PCOD8260472
Probable space group: C M C M
;
_chemical_formula_sum "Si O2"
_cell_formula_units_Z 88
_cell_length_a 13.502111
_cell_length_b 13.173654
_cell_length_c 24.727847
_cell_angle_alpha 90.000000
_cell_angle_beta 90.000000
_cell_angle_gamma 90.000000
_cell_volume 4398.395028
_symmetry_space_group_name_H-M "C M C M"
_symmetry_group_IT_number 63
_symmetry_cell_setting 'orthorhombic'
loop_
_space_group_symop_operation_xyz
x,y,z
-x,-y,1/2+z
x,-y,-z
-x,y,1/2-z
-x,-y,-z
x,y,1/2-z
-x,y,z
x,-y,1/2+z
1/2+x,1/2+y,z
1/2-x,1/2-y,1/2+z
1/2+x,1/2-y,-z
1/2-x,1/2+y,1/2-z
1/2-x,1/2-y,-z
1/2+x,1/2+y,1/2-z
1/2-x,1/2+y,z
1/2+x,1/2-y,1/2+z
loop_
_atom_site_type_symbol
_atom_site_label
_atom_site_fract_x
_atom_site_fract_y
_atom_site_fract_z
Si Si1 0.108730 0.093549 0.812392
Si Si2 0.614917 0.809969 0.638654
Si Si3 0.885720 0.623143 0.587070
Si Si4 0.742011 0.000000 0.500000
Si Si5 0.312280 0.994166 0.188461
Si Si6 0.723839 0.309112 0.552905
O O1 0.104547 0.122851 0.750000
O O2 0.137144 0.196206 0.843068
O O3 0.193810 0.010865 0.824369
O O4 0.000000 0.052739 0.831101
O O5 0.500000 0.829155 0.627018
O O6 0.673623 0.829671 0.583851
O O7 0.653067 0.889755 0.683356
O O8 0.825353 0.560783 0.542594
O O9 0.869948 0.578952 0.647242
O O10 0.854328 0.743031 0.587455
O O11 0.000000 0.616124 0.571743
O O12 0.812444 0.921584 0.533610
O O13 0.333487 0.957818 0.250000
O O14 0.750000 0.250000 0.500000
#
# Coordination Sequence:
#
# PCOD8260472 Si02
#       6
#    16  16  16   8  16  16
#     4   9  19  37  60  84 114 154 196 237 284 344
#     4  11  21  37  62  88 116 155 203 245 291 353
#     4  11  22  38  61  89 121 157 199 246 302 357
#     4  10  21  40  65  82 114 158 203 250 295 360
#     4  11  22  36  61  94 126 156 197 247 295 354
#     4  10  22  38  58  87 118 150 198 250 302 349
#
# _framework density 20.007297999999999
#
# number of rings (size 3 to 8) (size 9 to 14) (size 15 to 20)
#    0.000    1.636    3.636    1.364    0.000    5.091 
#    0.000    1.364    0.000    1.091    0.000    0.000 
#    0.000    0.000    0.000    0.000    0.000    0.000 
#
# Total GULP energy -545315.846112 kJ/mol
# GULP energy per Si atom -12393.541957 kJ/mol
# Density = 1.996176 g / cm^3
# Si number density = 20.007298 Si / 1000 Ang^3
#
#
#
# Elastic Constant Matrix: (Units=GPa)
#
#
# Indices 1 2 3 4 5 6 
#
# 1 51.4450 27.7272 15.0017 0.0000 0.0000 0.0000
# 2 27.7272 80.3253 21.9659 0.0000 0.0000 0.0000
# 3 15.0017 21.9659 81.3038 0.0000 0.0000 0.0000
# 4 0.0000 0.0000 0.0000 33.2267 0.0000 0.0000
# 5 0.0000 0.0000 0.0000 0.0000 16.3140 0.0000
# 6 0.0000 0.0000 0.0000 0.0000 0.0000 29.8125
#
#
#
# Elastic Compliance Matrix: (Units=1/GPa)
#
#
# Indices 1 2 3 4 5 6 
#
# 1 0.024306 -0.007735 -0.002395 0.000000 0.000000 0.000000
# 2 -0.007735 0.015904 -0.002870 0.000000 0.000000 0.000000
# 3 -0.002395 -0.002870 0.013517 0.000000 0.000000 0.000000
# 4 0.000000 0.000000 0.000000 0.030096 0.000000 0.000000
# 5 0.000000 0.000000 0.000000 0.000000 0.061297 0.000000
# 6 0.000000 0.000000 0.000000 0.000000 0.000000 0.033543
#
#
# Mechanical properties :
#
#
# Convention : Reuss Voigt Hill
#
# Bulk Modulus (GPa) = 36.06559 38.05153 37.05856
# Shear Modulus (GPa) = 23.37493 25.76260 24.56877
#
# Velocity S-wave (km/s) = 3.42178 3.59229 3.50807
# Velocity P-wave (km/s) = 5.80317 6.02214 5.91367
#
# Compressibility (1/GPa) = 0.02772726
#
# Stress axis : x y z
#
# Youngs Moduli (GPa) = 41.14282 62.87674 73.98239
#
# Poissons Ratio (x) = 0.48635 0.17718
# Poissons Ratio (y) = 0.31824 0.21230
# Poissons Ratio (z) = 0.09854 0.18043
#
# Static dielectric constant tensor:
#      x y z
#    x 3.690110 0.000000 0.000000 
#    y 0.000000 4.145210 0.000000 
#    z 0.000000 0.000000 3.770780 
# 
# 
# High freq. dielectric constant tensor:
#      x y z
#    x 1.764210 0.000000 0.000000 
#    y 0.000000 1.781700 0.000000 
#    z 0.000000 0.000000 1.788590 
# 
# From -- ./inp_files/62679.got.cif
#   From: 2010.03.12/outbox.cif.g09.slc.cpg/sg63_32_cif.got.tgz:62679.got - 2010.04.10 19:34:48.
