data_PCOD8260645
_publ_section_title
;
Structure prediction by ZEFSAII (Michael W. Deem and Ramdas Pophale) SiO2 
 PCOD8260645
Probable space group: C M C M
;
_chemical_formula_sum "Si O2"
_cell_formula_units_Z 72
_cell_length_a 24.432552
_cell_length_b 15.931927
_cell_length_c 9.700604
_cell_angle_alpha 90.000000
_cell_angle_beta 90.000000
_cell_angle_gamma 90.000000
_cell_volume 3776.034170
_symmetry_space_group_name_H-M "C M C M"
_symmetry_group_IT_number 63
_symmetry_cell_setting 'orthorhombic'
loop_
_space_group_symop_operation_xyz
x,y,z
-x,-y,1/2+z
x,-y,-z
-x,y,1/2-z
-x,-y,-z
x,y,1/2-z
-x,y,z
x,-y,1/2+z
1/2+x,1/2+y,z
1/2-x,1/2-y,1/2+z
1/2+x,1/2-y,-z
1/2-x,1/2+y,1/2-z
1/2-x,1/2-y,-z
1/2+x,1/2+y,1/2-z
1/2-x,1/2+y,z
1/2+x,1/2-y,1/2+z
loop_
_atom_site_type_symbol
_atom_site_label
_atom_site_fract_x
_atom_site_fract_y
_atom_site_fract_z
Si Si1 0.563188 0.088870 0.250000
Si Si2 0.336544 0.395418 0.750000
Si Si3 0.225501 0.934990 0.250000
Si Si4 0.939732 0.796080 0.750000
Si Si5 0.605682 0.815169 0.013171
Si Si6 0.198481 0.806023 0.481120
Si Si7 0.147194 0.434347 0.250000
O O1 0.500000 0.056748 0.250000
O O2 0.571569 0.141415 0.390793
O O3 0.605735 0.012320 0.250000
O O4 0.318768 0.491113 0.750000
O O5 0.401897 0.379416 0.750000
O O6 0.311352 0.347919 0.624445
O O7 0.211235 0.880675 0.380334
O O8 0.289158 0.964890 0.250000
O O9 0.932894 0.738902 0.613618
O O10 0.000000 0.833761 0.750000
O O11 0.637635 0.881842 0.110030
O O12 0.648150 0.753250 0.936349
O O13 0.250000 0.750000 0.500000
#
# Coordination Sequence:
#
# PCOD8260645 Si02
#       7
#     8   8   8   8  16  16   8
#     4  12  26  39  57  87 121 157 202 249 290 334
#     4  10  24  36  57  92 120 151 197 235 302 352
#     4  12  23  38  61  89 127 154 189 242 299 358
#     4   9  19  41  67  83 111 156 204 246 284 346
#     4  10  22  40  60  88 114 154 204 241 296 348
#     4  11  21  38  61  86 120 156 192 240 292 356
#     4  11  24  38  56  85 119 162 196 234 297 358
#
# _framework density 19.067625
#
# number of rings (size 3 to 8) (size 9 to 14) (size 15 to 20)
#    0.000    1.333    2.222    4.000    3.111    5.333 
#    0.000    0.000    0.000   13.333    0.000    0.000 
#    0.000    0.000    0.000    0.000    0.000    0.000 
#
# Total GULP energy -446213.869431 kJ/mol
# GULP energy per Si atom -12394.829706 kJ/mol
# Density = 1.902423 g / cm^3
# Si number density = 19.067625 Si / 1000 Ang^3
#
#
#
# Elastic Constant Matrix: (Units=GPa)
#
#
# Indices 1 2 3 4 5 6 
#
# 1 163.8710 83.5475 59.6995 0.0000 0.0000 0.0000
# 2 83.5475 123.3551 35.8910 0.0000 0.0000 0.0000
# 3 59.6995 35.8910 100.5556 0.0000 0.0000 0.0000
# 4 0.0000 0.0000 0.0000 46.4020 0.0000 0.0000
# 5 0.0000 0.0000 0.0000 0.0000 34.4467 0.0000
# 6 0.0000 0.0000 0.0000 0.0000 0.0000 29.8415
#
#
#
# Elastic Compliance Matrix: (Units=1/GPa)
#
#
# Indices 1 2 3 4 5 6 
#
# 1 0.010708 -0.006029 -0.004206 0.000000 0.000000 0.000000
# 2 -0.006029 0.012441 -0.000861 0.000000 0.000000 0.000000
# 3 -0.004206 -0.000861 0.012749 0.000000 0.000000 0.000000
# 4 0.000000 0.000000 0.000000 0.021551 0.000000 0.000000
# 5 0.000000 0.000000 0.000000 0.000000 0.029030 0.000000
# 6 0.000000 0.000000 0.000000 0.000000 0.000000 0.033510
#
#
# Mechanical properties :
#
#
# Convention : Reuss Voigt Hill
#
# Bulk Modulus (GPa) = 72.95718 82.89528 77.92623
# Shear Modulus (GPa) = 34.07170 36.04761 35.05966
#
# Velocity S-wave (km/s) = 4.23175 4.35272 4.29266
# Velocity P-wave (km/s) = 7.88811 8.29640 8.09483
#
# Compressibility (1/GPa) = 0.01370667
#
# Stress axis : x y z
#
# Youngs Moduli (GPa) = 93.38553 80.38202 78.43825
#
# Poissons Ratio (x) = 0.48462 0.32988
# Poissons Ratio (y) = 0.56302 0.06753
# Poissons Ratio (z) = 0.39274 0.06921
#
# Static dielectric constant tensor:
#      x y z
#    x 3.592080 0.000000 0.000000 
#    y 0.000000 3.408010 0.000000 
#    z 0.000000 0.000000 3.527200 
# 
# 
# High freq. dielectric constant tensor:
#      x y z
#    x 1.743150 0.000000 0.000000 
#    y 0.000000 1.738370 0.000000 
#    z 0.000000 0.000000 1.758600 
# 
# From -- ./inp_files/11813.got.cif
#   From: 2010.03.12/outbox.cif.g09.slc.cpg/sg63_6_cif.got.tgz:11813.got - 2010.04.10 19:34:48.
