data_PCOD8260927
_publ_section_title
;
Structure prediction by ZEFSAII (Michael W. Deem and Ramdas Pophale) SiO2 
 PCOD8260927
Probable space group: C M C M
;
_chemical_formula_sum "Si O2"
_cell_formula_units_Z 96
_cell_length_a 9.151179
_cell_length_b 28.378496
_cell_length_c 20.765867
_cell_angle_alpha 90.000000
_cell_angle_beta 90.000000
_cell_angle_gamma 90.000000
_cell_volume 5392.827063
_symmetry_space_group_name_H-M "C M C M"
_symmetry_group_IT_number 63
_symmetry_cell_setting 'orthorhombic'
loop_
_space_group_symop_operation_xyz
x,y,z
-x,-y,1/2+z
x,-y,-z
-x,y,1/2-z
-x,-y,-z
x,y,1/2-z
-x,y,z
x,-y,1/2+z
1/2+x,1/2+y,z
1/2-x,1/2-y,1/2+z
1/2+x,1/2-y,-z
1/2-x,1/2+y,1/2-z
1/2-x,1/2-y,-z
1/2+x,1/2+y,1/2-z
1/2-x,1/2+y,z
1/2+x,1/2-y,1/2+z
loop_
_atom_site_type_symbol
_atom_site_label
_atom_site_fract_x
_atom_site_fract_y
_atom_site_fract_z
Si Si1 0.828647 0.243567 0.675364
Si Si2 0.160796 0.017097 0.426804
Si Si3 0.326816 0.282158 0.945829
Si Si4 0.341867 0.638839 0.675537
Si Si5 0.829753 0.111443 0.018860
Si Si6 0.670620 0.069854 0.602211
O O1 0.779074 0.251928 0.750000
O O2 0.733857 0.274684 0.626301
O O3 0.796969 0.190472 0.650244
O O4 0.000000 0.255545 0.668402
O O5 0.209219 0.072243 0.425992
O O6 0.000000 0.011360 0.395738
O O7 0.158811 0.000000 0.500000
O O8 0.272903 0.983719 0.388754
O O9 0.500000 0.272582 0.947908
O O10 0.288640 0.336599 0.958878
O O11 0.250000 0.250000 0.000000
O O12 0.364916 0.645566 0.750000
O O13 0.500000 0.623918 0.645056
O O14 0.217463 0.599903 0.664254
O O15 0.000000 0.106584 0.001725
O O16 0.738782 0.099344 0.955812
O O17 0.500000 0.067510 0.593673
#
# Coordination Sequence:
#
# PCOD8260927 Si02
#       6
#    16  16  16  16  16  16
#     4   9  19  36  55  74  99 133 171 208 249 300
#     4   8  15  30  49  65  87 124 162 191 226 280
#     4  11  22  34  51  77 106 134 168 211 254 295
#     4   9  18  33  51  68  90 126 166 196 229 285
#     4   9  19  34  49  67  95 131 167 198 231 282
#     4  11  20  28  45  74 102 123 149 195 250 293
#
# _framework density 17.801423
#
# number of rings (size 3 to 8) (size 9 to 14) (size 15 to 20)
#    0.000    2.500    0.000    5.000    0.000    9.667 
#    0.000    1.667    0.000    1.000    0.000    2.333 
#    0.000    0.000    0.000    0.000    0.000    0.000 
#
# Total GULP energy -594792.254596 kJ/mol
# GULP energy per Si atom -12391.505304 kJ/mol
# Density = 1.776091 g / cm^3
# Si number density = 17.801423 Si / 1000 Ang^3
#
#
#
# Elastic Constant Matrix: (Units=GPa)
#
#
# Indices 1 2 3 4 5 6 
#
# 1 90.0343 59.6751 27.4951 0.0000 0.0000 0.0000
# 2 59.6751 146.0472 35.6995 0.0000 0.0000 0.0000
# 3 27.4951 35.6995 50.6599 0.0000 0.0000 0.0000
# 4 0.0000 0.0000 0.0000 20.6724 0.0000 0.0000
# 5 0.0000 0.0000 0.0000 0.0000 25.0672 0.0000
# 6 0.0000 0.0000 0.0000 0.0000 0.0000 125.1818
#
#
#
# Elastic Compliance Matrix: (Units=1/GPa)
#
#
# Indices 1 2 3 4 5 6 
#
# 1 0.016213 -0.005405 -0.004991 0.000000 0.000000 0.000000
# 2 -0.005405 0.010074 -0.004165 0.000000 0.000000 0.000000
# 3 -0.004991 -0.004165 0.025384 0.000000 0.000000 0.000000
# 4 0.000000 0.000000 0.000000 0.048374 0.000000 0.000000
# 5 0.000000 0.000000 0.000000 0.000000 0.039893 0.000000
# 6 0.000000 0.000000 0.000000 0.000000 0.000000 0.007988
#
#
# Mechanical properties :
#
#
# Convention : Reuss Voigt Hill
#
# Bulk Modulus (GPa) = 44.34918 59.16453 51.75685
# Shear Modulus (GPa) = 27.09090 45.10906 36.09998
#
# Velocity S-wave (km/s) = 3.90531 5.03936 4.50814
# Velocity P-wave (km/s) = 6.73072 8.19562 7.49903
#
# Compressibility (1/GPa) = 0.02254833
#
# Stress axis : x y z
#
# Youngs Moduli (GPa) = 61.67752 99.26819 39.39563
#
# Poissons Ratio (x) = 0.53653 0.19662
# Poissons Ratio (y) = 0.33336 0.16410
# Poissons Ratio (z) = 0.30782 0.41349
#
# Static dielectric constant tensor:
#      x y z
#    x 3.294970 0.000000 0.000000 
#    y 0.000000 3.809390 0.000000 
#    z 0.000000 0.000000 3.035200 
# 
# 
# High freq. dielectric constant tensor:
#      x y z
#    x 1.683920 0.000000 0.000000 
#    y 0.000000 1.696400 0.000000 
#    z 0.000000 0.000000 1.656250 
# 
# From -- ./inp_files/51352.got.cif
#   From: 2010.03.12/outbox.cif.g09.slc.cpg/sg63_26_cif.got.tgz:51352.got - 2010.04.10 19:34:48.
