data_PCOD8260500
_publ_section_title
;
Structure prediction by ZEFSAII (Michael W. Deem and Ramdas Pophale) SiO2 
 PCOD8260500
Probable space group: C M C M
;
_chemical_formula_sum "Si O2"
_cell_formula_units_Z 88
_cell_length_a 14.887591
_cell_length_b 11.039403
_cell_length_c 25.592738
_cell_angle_alpha 90.000000
_cell_angle_beta 90.000000
_cell_angle_gamma 90.000000
_cell_volume 4206.169478
_symmetry_space_group_name_H-M "C M C M"
_symmetry_group_IT_number 63
_symmetry_cell_setting 'orthorhombic'
loop_
_space_group_symop_operation_xyz
x,y,z
-x,-y,1/2+z
x,-y,-z
-x,y,1/2-z
-x,-y,-z
x,y,1/2-z
-x,y,z
x,-y,1/2+z
1/2+x,1/2+y,z
1/2-x,1/2-y,1/2+z
1/2+x,1/2-y,-z
1/2-x,1/2+y,1/2-z
1/2-x,1/2-y,-z
1/2+x,1/2+y,1/2-z
1/2-x,1/2+y,z
1/2+x,1/2-y,1/2+z
loop_
_atom_site_type_symbol
_atom_site_label
_atom_site_fract_x
_atom_site_fract_y
_atom_site_fract_z
Si Si1 0.500000 0.115350 0.622420
Si Si2 0.095423 0.996453 0.808266
Si Si3 0.000000 0.767980 0.985220
Si Si4 0.826236 0.806268 0.369806
Si Si5 0.812419 0.135397 0.512985
Si Si6 0.500000 0.834294 0.601029
Si Si7 0.652219 0.227941 0.689819
O O1 0.500000 0.190801 0.568165
O O2 0.588783 0.136768 0.657505
O O3 0.500000 0.976798 0.606450
O O4 0.097487 0.046419 0.750000
O O5 0.101977 0.853656 0.808571
O O6 0.000000 0.029053 0.834939
O O7 0.170762 0.068877 0.838008
O O8 0.910142 0.850671 0.985623
O O9 0.000000 0.689484 0.038589
O O10 0.813096 0.860652 0.425878
O O11 0.741928 0.740747 0.343175
O O12 0.912568 0.718726 0.369397
O O13 0.750000 0.250000 0.500000
O O14 0.773961 0.000000 0.500000
O O15 0.669358 0.182251 0.750000
#
# Coordination Sequence:
#
# PCOD8260500 Si02
#       7
#     8  16   8  16  16   8  16
#     4  12  24  42  71  93 139 171 212 272 344 385
#     4  10  21  41  67  91 123 166 220 272 316 382
#     4  10  24  45  69  98 130 176 222 267 323 400
#     4  11  24  42  68  91 133 170 218 266 331 382
#     4  11  26  43  67 102 137 173 223 272 326 400
#     4  10  25  45  62 103 130 174 214 274 325 404
#     4  11  25  43  64  97 128 171 223 268 327 391
#
# _framework density 20.921648000000001
#
# number of rings (size 3 to 8) (size 9 to 14) (size 15 to 20)
#    0.000    1.273    1.818    2.455    7.636    4.364 
#    0.000    2.727    0.000    0.000    0.000    0.000 
#    0.000    0.000    0.000    0.000    0.000    0.000 
#
# Total GULP energy -545128.366016 kJ/mol
# GULP energy per Si atom -12389.281046 kJ/mol
# Density = 2.087403 g / cm^3
# Si number density = 20.921648 Si / 1000 Ang^3
#
#
#
# Elastic Constant Matrix: (Units=GPa)
#
#
# Indices 1 2 3 4 5 6 
#
# 1 122.3595 34.1612 53.8785 0.0000 0.0000 0.0000
# 2 34.1612 121.9850 41.5138 0.0000 0.0000 0.0000
# 3 53.8785 41.5138 100.4075 0.0000 0.0000 0.0000
# 4 0.0000 0.0000 0.0000 29.8473 0.0000 0.0000
# 5 0.0000 0.0000 0.0000 0.0000 34.8829 0.0000
# 6 0.0000 0.0000 0.0000 0.0000 0.0000 10.6274
#
#
#
# Elastic Compliance Matrix: (Units=1/GPa)
#
#
# Indices 1 2 3 4 5 6 
#
# 1 0.010858 -0.001231 -0.005317 0.000000 0.000000 0.000000
# 2 -0.001231 0.009680 -0.003341 0.000000 0.000000 0.000000
# 3 -0.005317 -0.003341 0.014194 0.000000 0.000000 0.000000
# 4 0.000000 0.000000 0.000000 0.033504 0.000000 0.000000
# 5 0.000000 0.000000 0.000000 0.000000 0.028667 0.000000
# 6 0.000000 0.000000 0.000000 0.000000 0.000000 0.094096
#
#
# Mechanical properties :
#
#
# Convention : Reuss Voigt Hill
#
# Bulk Modulus (GPa) = 66.88098 67.09544 66.98821
# Shear Modulus (GPa) = 23.17365 29.41808 26.29587
#
# Velocity S-wave (km/s) = 3.33173 3.75388 3.54909
# Velocity P-wave (km/s) = 6.84378 7.13641 6.99162
#
# Compressibility (1/GPa) = 0.01495193
#
# Stress axis : x y z
#
# Youngs Moduli (GPa) = 92.10089 103.30939 70.45143
#
# Poissons Ratio (x) = 0.12718 0.37460
# Poissons Ratio (y) = 0.11338 0.23541
# Poissons Ratio (z) = 0.48972 0.34521
#
# Static dielectric constant tensor:
#      x y z
#    x 3.873310 0.000000 0.000000 
#    y 0.000000 3.660980 0.000000 
#    z 0.000000 0.000000 4.066960 
# 
# 
# High freq. dielectric constant tensor:
#      x y z
#    x 1.827580 0.000000 0.000000 
#    y 0.000000 1.815200 0.000000 
#    z 0.000000 0.000000 1.835980 
# 
# From -- ./inp_files/62712.got.cif
#   From: 2010.03.12/outbox.cif.g09.slc.cpg/sg63_32_cif.got.tgz:62712.got - 2010.04.10 19:34:48.
