data_PCOD8260515
_publ_section_title
;
Structure prediction by ZEFSAII (Michael W. Deem and Ramdas Pophale) SiO2 
 PCOD8260515
Probable space group: C M C M
;
_chemical_formula_sum "Si O2"
_cell_formula_units_Z 68
_cell_length_a 25.751747
_cell_length_b 9.671636
_cell_length_c 14.162934
_cell_angle_alpha 90.000000
_cell_angle_beta 90.000000
_cell_angle_gamma 90.000000
_cell_volume 3527.441917
_symmetry_space_group_name_H-M "C M C M"
_symmetry_group_IT_number 63
_symmetry_cell_setting 'orthorhombic'
loop_
_space_group_symop_operation_xyz
x,y,z
-x,-y,1/2+z
x,-y,-z
-x,y,1/2-z
-x,-y,-z
x,y,1/2-z
-x,y,z
x,-y,1/2+z
1/2+x,1/2+y,z
1/2-x,1/2-y,1/2+z
1/2+x,1/2-y,-z
1/2-x,1/2+y,1/2-z
1/2-x,1/2-y,-z
1/2+x,1/2+y,1/2-z
1/2-x,1/2+y,z
1/2+x,1/2-y,1/2+z
loop_
_atom_site_type_symbol
_atom_site_label
_atom_site_fract_x
_atom_site_fract_y
_atom_site_fract_z
Si Si1 0.188734 0.555106 0.250000
Si Si2 0.000000 0.725867 0.750000
Si Si3 0.866221 0.090096 0.907307
Si Si4 0.057496 0.009899 0.250000
Si Si5 0.784919 0.864795 0.250000
Si Si6 0.500000 0.016568 0.110476
Si Si7 0.890650 0.599463 0.089028
O O1 0.220173 0.699078 0.250000
O O2 0.227695 0.426999 0.250000
O O3 0.152770 0.542854 0.341050
O O4 0.000000 0.634627 0.843779
O O5 0.948469 0.822802 0.750000
O O6 0.913875 0.035242 0.845234
O O7 0.814558 0.084630 0.843836
O O8 0.878358 0.244748 0.941690
O O9 0.857140 0.000000 0.000000
O O10 0.000000 0.941184 0.250000
O O11 0.447361 0.097012 0.140211
O O12 0.500000 0.000000 0.000000
O O13 0.890327 0.500000 0.000000
#
# Coordination Sequence:
#
# PCOD8260515 Si02
#       7
#     8   4  16   8   8   8  16
#     4  10  21  43  62  86 122 157 205 257 309 368
#     4  10  22  38  56  92 122 158 222 240 292 370
#     4  10  22  41  63  88 127 158 211 253 306 363
#     4   9  23  37  59  86 121 162 209 246 303 352
#     4   9  22  42  60  91 116 161 202 261 313 361
#     4  10  22  37  58  90 133 157 205 251 300 357
#     4  10  23  39  62  91 124 164 205 246 310 367
#
# _framework density 19.277425999999998
#
# number of rings (size 3 to 8) (size 9 to 14) (size 15 to 20)
#    0.353    1.882    0.000    1.412    8.235    3.294 
#    4.235    4.706    0.000    0.000    0.000    0.000 
#    0.000    0.000    0.000    0.000    0.000    0.000 
#
# Total GULP energy -421518.224590 kJ/mol
# GULP energy per Si atom -12397.594841 kJ/mol
# Density = 1.923355 g / cm^3
# Si number density = 19.277426 Si / 1000 Ang^3
#
#
#
# Elastic Constant Matrix: (Units=GPa)
#
#
# Indices 1 2 3 4 5 6 
#
# 1 139.5791 59.0874 38.8601 0.0000 0.0000 0.0000
# 2 59.0874 113.1031 62.1800 0.0000 0.0000 0.0000
# 3 38.8601 62.1800 116.8085 0.0000 0.0000 0.0000
# 4 0.0000 0.0000 0.0000 42.3028 0.0000 0.0000
# 5 0.0000 0.0000 0.0000 0.0000 23.0224 0.0000
# 6 0.0000 0.0000 0.0000 0.0000 0.0000 38.5255
#
#
#
# Elastic Compliance Matrix: (Units=1/GPa)
#
#
# Indices 1 2 3 4 5 6 
#
# 1 0.009241 -0.004435 -0.000713 0.000000 0.000000 0.000000
# 2 -0.004435 0.014628 -0.006312 0.000000 0.000000 0.000000
# 3 -0.000713 -0.006312 0.012158 0.000000 0.000000 0.000000
# 4 0.000000 0.000000 0.000000 0.023639 0.000000 0.000000
# 5 0.000000 0.000000 0.000000 0.000000 0.043436 0.000000
# 6 0.000000 0.000000 0.000000 0.000000 0.000000 0.025957
#
#
# Mechanical properties :
#
#
# Convention : Reuss Voigt Hill
#
# Bulk Modulus (GPa) = 76.29498 76.63841 76.46669
# Shear Modulus (GPa) = 31.97993 34.72768 33.35380
#
# Velocity S-wave (km/s) = 4.07742 4.24898 4.16408
# Velocity P-wave (km/s) = 7.86323 7.99460 7.92918
#
# Compressibility (1/GPa) = 0.01310702
#
# Stress axis : x y z
#
# Youngs Moduli (GPa) = 108.21852 68.35972 82.25027
#
# Poissons Ratio (x) = 0.30321 0.05865
# Poissons Ratio (y) = 0.48000 0.51912
# Poissons Ratio (z) = 0.07717 0.43145
#
# Static dielectric constant tensor:
#      x y z
#    x 3.765340 0.000000 0.000000 
#    y 0.000000 3.478130 0.000000 
#    z 0.000000 0.000000 3.432800 
# 
# 
# High freq. dielectric constant tensor:
#      x y z
#    x 1.753620 0.000000 0.000000 
#    y 0.000000 1.752260 0.000000 
#    z 0.000000 0.000000 1.754360 
# 
# From -- ./inp_files/37527.got.cif
#   From: 2010.03.12/outbox.cif.g09.slc.cpg/sg63_19_cif.got.tgz:37527.got - 2010.04.10 19:34:48.
