data_PCOD8260554
_publ_section_title
;
Structure prediction by ZEFSAII (Michael W. Deem and Ramdas Pophale) SiO2 
 PCOD8260554
Probable space group: C M C M
;
_chemical_formula_sum "Si O2"
_cell_formula_units_Z 104
_cell_length_a 24.771538
_cell_length_b 9.571619
_cell_length_c 22.974049
_cell_angle_alpha 90.000000
_cell_angle_beta 90.000000
_cell_angle_gamma 90.000000
_cell_volume 5447.232568
_symmetry_space_group_name_H-M "C M C M"
_symmetry_group_IT_number 63
_symmetry_cell_setting 'orthorhombic'
loop_
_space_group_symop_operation_xyz
x,y,z
-x,-y,1/2+z
x,-y,-z
-x,y,1/2-z
-x,-y,-z
x,y,1/2-z
-x,y,z
x,-y,1/2+z
1/2+x,1/2+y,z
1/2-x,1/2-y,1/2+z
1/2+x,1/2-y,-z
1/2-x,1/2+y,1/2-z
1/2-x,1/2-y,-z
1/2+x,1/2+y,1/2-z
1/2-x,1/2+y,z
1/2+x,1/2-y,1/2+z
loop_
_atom_site_type_symbol
_atom_site_label
_atom_site_fract_x
_atom_site_fract_y
_atom_site_fract_z
Si Si1 0.716125 0.154366 0.042565
Si Si2 0.562174 0.999030 0.620748
Si Si3 0.753822 0.098761 0.612880
Si Si4 0.852169 0.326494 0.183026
Si Si5 0.938660 0.787896 0.317183
Si Si6 0.881303 0.500000 0.500000
Si Si7 0.148851 0.990704 0.816994
O O1 0.716950 0.252445 0.100004
O O2 0.656153 0.133760 0.016513
O O3 0.740774 0.999387 0.056221
O O4 0.750000 0.250000 0.000000
O O5 0.500000 0.041794 0.625714
O O6 0.594526 0.088912 0.667413
O O7 0.581559 0.033047 0.555358
O O8 0.571333 0.838714 0.638526
O O9 0.697241 0.120927 0.644409
O O10 0.794290 0.014613 0.652766
O O11 0.836566 0.350226 0.250000
O O12 0.867664 0.167305 0.169927
O O13 0.926687 0.743866 0.250000
O O14 0.899592 0.911226 0.339205
O O15 0.000000 0.842185 0.322472
O O16 0.159377 0.019889 0.750000
#
# Coordination Sequence:
#
# PCOD8260554 Si02
#       7
#    16  16  16  16  16   8  16
#     4  12  22  38  62  85 119 157 202 243 300 358
#     4  11  23  41  63  88 118 156 206 259 311 361
#     4  12  22  40  58  89 124 159 197 246 303 366
#     4  11  23  39  59  90 127 163 201 249 309 366
#     4   9  19  38  63  89 117 156 205 253 303 360
#     4  12  23  40  62  88 120 156 205 248 300 360
#     4  10  22  37  58  88 122 159 197 239 297 365
#
# _framework density 19.092264
#
# number of rings (size 3 to 8) (size 9 to 14) (size 15 to 20)
#    0.000    1.077    4.615    2.077    0.000    1.538 
#    0.000    1.538    0.000    0.000    0.000    4.308 
#    0.000    0.000    0.000    0.000    0.000    0.000 
#
# Total GULP energy -644762.212527 kJ/mol
# GULP energy per Si atom -12399.273318 kJ/mol
# Density = 1.904881 g / cm^3
# Si number density = 19.092264 Si / 1000 Ang^3
#
#
#
# Elastic Constant Matrix: (Units=GPa)
#
#
# Indices 1 2 3 4 5 6 
#
# 1 134.6262 59.2993 51.0765 0.0000 0.0000 0.0000
# 2 59.2993 95.0097 48.2764 0.0000 0.0000 0.0000
# 3 51.0765 48.2764 59.3833 0.0000 0.0000 0.0000
# 4 0.0000 0.0000 0.0000 32.3360 0.0000 0.0000
# 5 0.0000 0.0000 0.0000 0.0000 32.9101 0.0000
# 6 0.0000 0.0000 0.0000 0.0000 0.0000 29.5431
#
#
#
# Elastic Compliance Matrix: (Units=1/GPa)
#
#
# Indices 1 2 3 4 5 6 
#
# 1 0.011761 -0.003749 -0.007068 0.000000 0.000000 0.000000
# 2 -0.003749 0.019128 -0.012326 0.000000 0.000000 0.000000
# 3 -0.007068 -0.012326 0.032939 0.000000 0.000000 0.000000
# 4 0.000000 0.000000 0.000000 0.030925 0.000000 0.000000
# 5 0.000000 0.000000 0.000000 0.000000 0.030386 0.000000
# 6 0.000000 0.000000 0.000000 0.000000 0.000000 0.033849
#
#
# Mechanical properties :
#
#
# Convention : Reuss Voigt Hill
#
# Bulk Modulus (GPa) = 57.00322 67.36928 62.18625
# Shear Modulus (GPa) = 23.68303 27.64896 25.66599
#
# Velocity S-wave (km/s) = 3.52583 3.80962 3.67047
# Velocity P-wave (km/s) = 6.81886 7.39687 7.11374
#
# Compressibility (1/GPa) = 0.01754287
#
# Stress axis : x y z
#
# Youngs Moduli (GPa) = 85.02780 52.27879 30.35882
#
# Poissons Ratio (x) = 0.19600 0.21457
# Poissons Ratio (y) = 0.31878 0.37420
# Poissons Ratio (z) = 0.60096 0.64438
#
# Static dielectric constant tensor:
#      x y z
#    x 3.878170 0.000000 0.000000 
#    y 0.000000 4.328980 0.000000 
#    z 0.000000 0.000000 3.722770 
# 
# 
# High freq. dielectric constant tensor:
#      x y z
#    x 1.742940 0.000000 0.000000 
#    y 0.000000 1.746150 0.000000 
#    z 0.000000 0.000000 1.749560 
# 
# From -- ./inp_files/65423.got.cif
#   From: 2010.03.12/outbox.cif.g09.slc.cpg/sg63_33_cif.got.tgz:65423.got - 2010.04.10 19:34:48.
