data_PCOD8260691
_publ_section_title
;
Structure prediction by ZEFSAII (Michael W. Deem and Ramdas Pophale) SiO2 
 PCOD8260691
Probable space group: C M C M
;
_chemical_formula_sum "Si O2"
_cell_formula_units_Z 96
_cell_length_a 14.446663
_cell_length_b 19.599029
_cell_length_c 16.765507
_cell_angle_alpha 90.000000
_cell_angle_beta 90.000000
_cell_angle_gamma 90.000000
_cell_volume 4746.995160
_symmetry_space_group_name_H-M "C M C M"
_symmetry_group_IT_number 63
_symmetry_cell_setting 'orthorhombic'
loop_
_space_group_symop_operation_xyz
x,y,z
-x,-y,1/2+z
x,-y,-z
-x,y,1/2-z
-x,-y,-z
x,y,1/2-z
-x,y,z
x,-y,1/2+z
1/2+x,1/2+y,z
1/2-x,1/2-y,1/2+z
1/2+x,1/2-y,-z
1/2-x,1/2+y,1/2-z
1/2-x,1/2-y,-z
1/2+x,1/2+y,1/2-z
1/2-x,1/2+y,z
1/2+x,1/2-y,1/2+z
loop_
_atom_site_type_symbol
_atom_site_label
_atom_site_fract_x
_atom_site_fract_y
_atom_site_fract_z
Si Si1 0.676169 0.589018 0.341434
Si Si2 0.000000 0.937814 0.558984
Si Si3 0.301620 0.019247 0.592433
Si Si4 0.500000 0.052994 0.929530
Si Si5 0.686031 0.357670 0.342045
Si Si6 0.500000 0.675835 0.567996
Si Si7 0.500000 0.791001 0.450613
Si Si8 0.165722 0.756165 0.659058
O O1 0.649052 0.583784 0.250000
O O2 0.591317 0.555632 0.388222
O O3 0.769747 0.546985 0.358343
O O4 0.692832 0.667245 0.366373
O O5 0.000000 0.866437 0.513623
O O6 0.000000 0.000000 0.500000
O O7 0.405659 0.040365 0.621102
O O8 0.233165 0.082078 0.608014
O O9 0.298955 0.000000 0.500000
O O10 0.500000 0.128493 0.966770
O O11 0.500000 0.000000 0.000000
O O12 0.677219 0.380617 0.250000
O O13 0.586773 0.341896 0.377862
O O14 0.742882 0.288304 0.350424
O O15 0.500000 0.754184 0.537156
O O16 0.589288 0.771645 0.400072
O O17 0.128049 0.753316 0.750000
#
# Coordination Sequence:
#
# PCOD8260691 Si02
#       8
#    16   8  16   8  16   8   8  16
#     4  11  22  40  63  92 126 167 211 267 328 383
#     4  12  23  39  58  90 126 163 207 264 319 390
#     4  11  23  41  66  92 130 172 218 267 321 387
#     4  10  24  43  63  98 134 168 214 273 325 375
#     4  11  24  43  63  92 131 173 216 267 325 391
#     4  12  25  38  63  97 125 167 216 260 330 395
#     4  12  21  42  68  99 128 168 221 273 334 372
#     4  10  22  40  66  94 127 168 219 273 324 380
#
# _framework density 20.223319
#
# number of rings (size 3 to 8) (size 9 to 14) (size 15 to 20)
#    0.000    1.000    3.333    3.750    0.000    4.667 
#    0.000    4.167    0.000    2.000    0.000    1.167 
#    0.000    0.000    0.000    0.000    0.000    0.000 
#
# Total GULP energy -595343.243467 kJ/mol
# GULP energy per Si atom -12402.984239 kJ/mol
# Density = 2.017729 g / cm^3
# Si number density = 20.223319 Si / 1000 Ang^3
#
#
#
# Elastic Constant Matrix: (Units=GPa)
#
#
# Indices 1 2 3 4 5 6 
#
# 1 159.4742 65.1010 56.8857 0.0000 0.0000 0.0000
# 2 65.1010 158.5990 45.3944 0.0000 0.0000 0.0000
# 3 56.8857 45.3944 83.0710 0.0000 0.0000 0.0000
# 4 0.0000 0.0000 0.0000 36.2599 0.0000 0.0000
# 5 0.0000 0.0000 0.0000 0.0000 10.3160 0.0000
# 6 0.0000 0.0000 0.0000 0.0000 0.0000 -1.3414
#
#
#
# Elastic Compliance Matrix: (Units=1/GPa)
#
#
# Indices 1 2 3 4 5 6 
#
# 1 0.008939 -0.002273 -0.004879 0.000000 0.000000 0.000000
# 2 -0.002273 0.008052 -0.002844 0.000000 0.000000 0.000000
# 3 -0.004879 -0.002844 0.016933 0.000000 0.000000 0.000000
# 4 0.000000 0.000000 0.000000 0.027579 0.000000 0.000000
# 5 0.000000 0.000000 0.000000 0.000000 0.096936 0.000000
# 6 0.000000 0.000000 0.000000 0.000000 0.000000 -0.745483
#
#
# Mechanical properties :
#
#
# Convention : Reuss Voigt Hill
#
# Bulk Modulus (GPa) = 71.77412 81.76736 76.77074
# Shear Modulus (GPa) = -8.89034 24.63112 7.87039
#
# Velocity S-wave (km/s) = -2.09896 3.49371 1.97489
# Velocity P-wave (km/s) = 5.44919 7.53622 6.57603
#
# Compressibility (1/GPa) = 0.01393260
#
# Stress axis : x y z
#
# Youngs Moduli (GPa) = 111.87170 124.19257 59.05580
#
# Poissons Ratio (x) = 0.28224 0.28815
# Poissons Ratio (y) = 0.25424 0.16794
# Poissons Ratio (z) = 0.54585 0.35318
#
# Static dielectric constant tensor:
#      x y z
#    x 4.219010 0.000000 0.000000 
#    y 0.000000 4.179820 0.000000 
#    z 0.000000 0.000000 3.617860 
# 
# 
# High freq. dielectric constant tensor:
#      x y z
#    x 1.797670 0.000000 0.000000 
#    y 0.000000 1.808130 0.000000 
#    z 0.000000 0.000000 1.784110 
# 
# From -- ./inp_files/32023.got.cif
#   From: 2010.03.12/outbox.cif.g09.slc.cpg/sg63_17_cif.got.tgz:32023.got - 2010.04.10 19:34:48.
