data_PCOD8260747
_publ_section_title
;
Structure prediction by ZEFSAII (Michael W. Deem and Ramdas Pophale) SiO2 
 PCOD8260747
Probable space group: C M C M
;
_chemical_formula_sum "Si O2"
_cell_formula_units_Z 96
_cell_length_a 14.057468
_cell_length_b 23.111528
_cell_length_c 14.551237
_cell_angle_alpha 90.000000
_cell_angle_beta 90.000000
_cell_angle_gamma 90.000000
_cell_volume 4727.545063
_symmetry_space_group_name_H-M "C M C M"
_symmetry_group_IT_number 63
_symmetry_cell_setting 'orthorhombic'
loop_
_space_group_symop_operation_xyz
x,y,z
-x,-y,1/2+z
x,-y,-z
-x,y,1/2-z
-x,-y,-z
x,y,1/2-z
-x,y,z
x,-y,1/2+z
1/2+x,1/2+y,z
1/2-x,1/2-y,1/2+z
1/2+x,1/2-y,-z
1/2-x,1/2+y,1/2-z
1/2-x,1/2-y,-z
1/2+x,1/2+y,1/2-z
1/2-x,1/2+y,z
1/2+x,1/2-y,1/2+z
loop_
_atom_site_type_symbol
_atom_site_label
_atom_site_fract_x
_atom_site_fract_y
_atom_site_fract_z
Si Si1 0.109215 0.479771 0.396847
Si Si2 0.607263 0.683662 0.541612
Si Si3 0.896145 0.126487 0.352842
Si Si4 0.305664 0.904889 0.848690
Si Si5 0.889118 0.687424 0.013122
Si Si6 0.218994 0.636721 0.642977
O O1 0.124344 0.500000 0.500000
O O2 0.138920 0.535101 0.338111
O O3 0.178609 0.427480 0.371795
O O4 0.000000 0.462012 0.376092
O O5 0.500000 0.671450 0.575327
O O6 0.615897 0.675001 0.431500
O O7 0.635211 0.750767 0.558000
O O8 0.674714 0.641685 0.600726
O O9 0.892331 0.154558 0.250000
O O10 0.807478 0.082390 0.365105
O O11 0.000000 0.095436 0.365719
O O12 0.319248 0.873268 0.750000
O O13 0.344691 0.863964 0.927689
O O14 0.000000 0.676325 0.006715
O O15 0.846730 0.682827 0.910583
O O16 0.220744 0.652849 0.750000
#
# Coordination Sequence:
#
# PCOD8260747 Si02
#       6
#    16  16  16  16  16  16
#     4  11  22  40  64  88 123 164 203 253 308 366
#     4  10  22  42  64  87 123 163 205 255 307 366
#     4   9  18  35  61  90 119 155 204 258 309 364
#     4  11  22  37  62  91 121 157 200 250 307 366
#     4  11  23  40  61  89 123 162 206 251 304 366
#     4  12  25  40  61  90 127 167 209 253 308 368
#
# _framework density 20.306522000000001
#
# number of rings (size 3 to 8) (size 9 to 14) (size 15 to 20)
#    0.000    1.333    3.333    2.000    0.000    5.000 
#    0.000    4.167    0.000    5.000    0.000    0.000 
#    0.000    0.000    0.000    0.000    0.000    0.000 
#
# Total GULP energy -594811.185034 kJ/mol
# GULP energy per Si atom -12391.899688 kJ/mol
# Density = 2.026030 g / cm^3
# Si number density = 20.306522 Si / 1000 Ang^3
#
#
#
# Elastic Constant Matrix: (Units=GPa)
#
#
# Indices 1 2 3 4 5 6 
#
# 1 150.1805 59.6908 67.0012 0.0000 0.0000 0.0000
# 2 59.6908 87.2254 35.0751 0.0000 0.0000 0.0000
# 3 67.0012 35.0751 126.9871 0.0000 0.0000 0.0000
# 4 0.0000 0.0000 0.0000 13.0382 0.0000 0.0000
# 5 0.0000 0.0000 0.0000 0.0000 19.5041 0.0000
# 6 0.0000 0.0000 0.0000 0.0000 0.0000 32.8114
#
#
#
# Elastic Compliance Matrix: (Units=1/GPa)
#
#
# Indices 1 2 3 4 5 6 
#
# 1 0.010758 -0.005714 -0.004098 0.000000 0.000000 0.000000
# 2 -0.005714 0.015932 -0.001386 0.000000 0.000000 0.000000
# 3 -0.004098 -0.001386 0.010420 0.000000 0.000000 0.000000
# 4 0.000000 0.000000 0.000000 0.076698 0.000000 0.000000
# 5 0.000000 0.000000 0.000000 0.000000 0.051271 0.000000
# 6 0.000000 0.000000 0.000000 0.000000 0.000000 0.030477
#
#
# Mechanical properties :
#
#
# Convention : Reuss Voigt Hill
#
# Bulk Modulus (GPa) = 67.96070 76.43634 72.19852
# Shear Modulus (GPa) = 22.43601 26.57915 24.50758
#
# Velocity S-wave (km/s) = 3.32756 3.62179 3.47779
# Velocity P-wave (km/s) = 6.95008 7.43053 7.19432
#
# Compressibility (1/GPa) = 0.01471439
#
# Stress axis : x y z
#
# Youngs Moduli (GPa) = 92.95390 62.76620 95.97228
#
# Poissons Ratio (x) = 0.35866 0.39328
# Poissons Ratio (y) = 0.53116 0.13299
# Poissons Ratio (z) = 0.38091 0.08697
#
# Static dielectric constant tensor:
#      x y z
#    x 4.098310 0.000000 0.000000 
#    y 0.000000 3.488240 0.000000 
#    z 0.000000 0.000000 3.571040 
# 
# 
# High freq. dielectric constant tensor:
#      x y z
#    x 1.816240 0.000000 0.000000 
#    y 0.000000 1.758620 0.000000 
#    z 0.000000 0.000000 1.802600 
# 
# From -- ./inp_files/31948.got.cif
#   From: 2010.03.12/outbox.cif.g09.slc.cpg/sg63_16_cif.got.tgz:31948.got - 2010.04.10 19:34:48.
