data_PCOD8260117
_publ_section_title
;
Structure prediction by ZEFSAII (Michael W. Deem and Ramdas Pophale) SiO2 
 PCOD8260117
Probable space group: C M C M
;
_chemical_formula_sum "Si O2"
_cell_formula_units_Z 96
_cell_length_a 16.433666
_cell_length_b 12.410061
_cell_length_c 24.115276
_cell_angle_alpha 90.000000
_cell_angle_beta 90.000000
_cell_angle_gamma 90.000000
_cell_volume 4918.136850
_symmetry_space_group_name_H-M "C M C M"
_symmetry_group_IT_number 63
_symmetry_cell_setting 'orthorhombic'
loop_
_space_group_symop_operation_xyz
x,y,z
-x,-y,1/2+z
x,-y,-z
-x,y,1/2-z
-x,-y,-z
x,y,1/2-z
-x,y,z
x,-y,1/2+z
1/2+x,1/2+y,z
1/2-x,1/2-y,1/2+z
1/2+x,1/2-y,-z
1/2-x,1/2+y,1/2-z
1/2-x,1/2-y,-z
1/2+x,1/2+y,1/2-z
1/2-x,1/2+y,z
1/2+x,1/2-y,1/2+z
loop_
_atom_site_type_symbol
_atom_site_label
_atom_site_fract_x
_atom_site_fract_y
_atom_site_fract_z
Si Si1 0.093814 0.840133 0.099612
Si Si2 0.904623 0.683355 0.310189
Si Si3 0.909225 0.734514 0.685158
Si Si4 0.814596 0.527276 0.685977
Si Si5 0.909514 0.878823 0.981713
Si Si6 0.158113 0.063899 0.128639
O O1 0.137513 0.757532 0.142481
O O2 0.129263 0.822592 0.037066
O O3 0.000000 0.810405 0.095043
O O4 0.099548 0.961073 0.123465
O O5 0.869164 0.719647 0.250000
O O6 0.887799 0.557702 0.319159
O O7 0.000000 0.702340 0.310842
O O8 0.916338 0.716300 0.750000
O O9 0.849168 0.640628 0.662444
O O10 0.872160 0.852762 0.674928
O O11 0.000000 0.725601 0.658772
O O12 0.783569 0.536688 0.750000
O O13 0.745652 0.482892 0.644737
O O14 0.000000 0.832544 0.965676
O O15 0.846473 0.870677 0.930186
O O16 0.923063 0.000000 0.000000
#
# Coordination Sequence:
#
# PCOD8260117 Si02
#       6
#    16  16  16  16  16  16
#     4   9  18  33  57  84 108 136 175 224 275 323
#     4   9  18  34  56  78 103 140 183 221 262 325
#     4  10  21  37  56  78 108 149 189 223 269 335
#     4  10  22  36  52  75 110 148 180 220 274 327
#     4   8  15  31  54  78 106 141 176 215 269 330
#     4  11  20  32  55  82 108 138 179 224 272 321
#
# _framework density 19.519586
#
# number of rings (size 3 to 8) (size 9 to 14) (size 15 to 20)
#    0.000    2.500    0.000    3.500    2.333    3.333 
#    0.000    2.500    3.667    0.000    0.000    4.667 
#    0.000    0.000    0.000    0.000    0.000    0.000 
#
# Total GULP energy -594628.940854 kJ/mol
# GULP energy per Si atom -12388.102934 kJ/mol
# Density = 1.947516 g / cm^3
# Si number density = 19.519586 Si / 1000 Ang^3
#
#
#
# Elastic Constant Matrix: (Units=GPa)
#
#
# Indices 1 2 3 4 5 6 
#
# 1 68.7025 24.4570 28.7515 0.0000 0.0000 0.0000
# 2 24.4570 79.9022 26.4735 0.0000 0.0000 0.0000
# 3 28.7515 26.4735 70.1899 0.0000 0.0000 0.0000
# 4 0.0000 0.0000 0.0000 13.7195 0.0000 0.0000
# 5 0.0000 0.0000 0.0000 0.0000 18.8912 0.0000
# 6 0.0000 0.0000 0.0000 0.0000 0.0000 18.3306
#
#
#
# Elastic Compliance Matrix: (Units=1/GPa)
#
#
# Indices 1 2 3 4 5 6 
#
# 1 0.018425 -0.003587 -0.006194 0.000000 0.000000 0.000000
# 2 -0.003587 0.015001 -0.004188 0.000000 0.000000 0.000000
# 3 -0.006194 -0.004188 0.018364 0.000000 0.000000 0.000000
# 4 0.000000 0.000000 0.000000 0.072889 0.000000 0.000000
# 5 0.000000 0.000000 0.000000 0.000000 0.052935 0.000000
# 6 0.000000 0.000000 0.000000 0.000000 0.000000 0.054554
#
#
# Mechanical properties :
#
#
# Convention : Reuss Voigt Hill
#
# Bulk Modulus (GPa) = 41.92879 42.01762 41.97320
# Shear Modulus (GPa) = 18.65272 19.46243 19.05758
#
# Velocity S-wave (km/s) = 3.09462 3.16107 3.12802
# Velocity P-wave (km/s) = 5.85627 5.90726 5.88182
#
# Compressibility (1/GPa) = 0.02384996
#
# Stress axis : x y z
#
# Youngs Moduli (GPa) = 54.27485 66.66195 54.45400
#
# Poissons Ratio (x) = 0.23914 0.33730
# Poissons Ratio (y) = 0.19470 0.22808
# Poissons Ratio (z) = 0.33619 0.27921
#
# Static dielectric constant tensor:
#      x y z
#    x 3.314350 0.000000 0.000000 
#    y 0.000000 3.531080 0.000000 
#    z 0.000000 0.000000 4.247870 
# 
# 
# High freq. dielectric constant tensor:
#      x y z
#    x 1.735170 0.000000 0.000000 
#    y 0.000000 1.746690 0.000000 
#    z 0.000000 0.000000 1.759090 
# 
# From -- ./inp_files/63724.got.cif
#   From: 2010.03.12/outbox.cif.g09.slc.cpg/sg63_32_cif.got.tgz:63724.got - 2010.04.10 19:34:48.
