data_PCOD8260814
_publ_section_title
;
Structure prediction by ZEFSAII (Michael W. Deem and Ramdas Pophale) SiO2 
 PCOD8260814
Probable space group: C M C M
;
_chemical_formula_sum "Si O2"
_cell_formula_units_Z 64
_cell_length_a 20.031856
_cell_length_b 11.729665
_cell_length_c 13.391240
_cell_angle_alpha 90.000000
_cell_angle_beta 90.000000
_cell_angle_gamma 90.000000
_cell_volume 3146.498956
_symmetry_space_group_name_H-M "C M C M"
_symmetry_group_IT_number 63
_symmetry_cell_setting 'orthorhombic'
loop_
_space_group_symop_operation_xyz
x,y,z
-x,-y,1/2+z
x,-y,-z
-x,y,1/2-z
-x,-y,-z
x,y,1/2-z
-x,y,z
x,-y,1/2+z
1/2+x,1/2+y,z
1/2-x,1/2-y,1/2+z
1/2+x,1/2-y,-z
1/2-x,1/2+y,1/2-z
1/2-x,1/2-y,-z
1/2+x,1/2+y,1/2-z
1/2-x,1/2+y,z
1/2+x,1/2-y,1/2+z
loop_
_atom_site_type_symbol
_atom_site_label
_atom_site_fract_x
_atom_site_fract_y
_atom_site_fract_z
Si Si1 0.302924 0.193697 0.632859
Si Si2 0.077190 0.288320 0.635928
Si Si3 0.926484 0.457532 0.368133
Si Si4 0.823091 0.125993 0.525117
O O1 0.301680 0.216882 0.750000
O O2 0.370207 0.130314 0.597720
O O3 0.239334 0.118170 0.600995
O O4 0.299390 0.315142 0.577807
O O5 0.103306 0.285705 0.750000
O O6 0.088003 0.415357 0.588370
O O7 0.116816 0.195727 0.573111
O O8 0.000000 0.254388 0.631866
O O9 0.926965 0.471515 0.250000
O O10 0.000000 0.414520 0.403918
O O11 0.848905 0.000000 0.500000
#
# Coordination Sequence:
#
# PCOD8260814 Si02
#       4
#    16  16  16  16
#     4  10  23  40  60  85 119 157 197 249 303 354
#     4   9  19  38  64  91 120 155 197 248 300 350
#     4   8  16  34  62  91 114 144 192 246 299 345
#     4  11  25  39  57  86 121 159 204 240 293 361
#
# _framework density 20.340069
#
# number of rings (size 3 to 8) (size 9 to 14) (size 15 to 20)
#    0.000    2.500    0.000    2.250    7.000    3.500 
#    0.000    2.500    0.000    3.000    0.000    0.000 
#    0.000    0.000    0.000    0.000    0.000    0.000 
#
# Total GULP energy -396823.356231 kJ/mol
# GULP energy per Si atom -12400.729882 kJ/mol
# Density = 2.029377 g / cm^3
# Si number density = 20.340069 Si / 1000 Ang^3
#
#
#
# Elastic Constant Matrix: (Units=GPa)
#
#
# Indices 1 2 3 4 5 6 
#
# 1 104.4993 47.7249 29.0122 0.0000 0.0000 0.0000
# 2 47.7249 115.0779 21.5607 0.0000 0.0000 0.0000
# 3 29.0122 21.5607 72.4845 0.0000 0.0000 0.0000
# 4 0.0000 0.0000 0.0000 16.8241 0.0000 0.0000
# 5 0.0000 0.0000 0.0000 0.0000 25.2795 0.0000
# 6 0.0000 0.0000 0.0000 0.0000 0.0000 21.4161
#
#
#
# Elastic Compliance Matrix: (Units=1/GPa)
#
#
# Indices 1 2 3 4 5 6 
#
# 1 0.012687 -0.004564 -0.003720 0.000000 0.000000 0.000000
# 2 -0.004564 0.010845 -0.001399 0.000000 0.000000 0.000000
# 3 -0.003720 -0.001399 0.015701 0.000000 0.000000 0.000000
# 4 0.000000 0.000000 0.000000 0.059439 0.000000 0.000000
# 5 0.000000 0.000000 0.000000 0.000000 0.039558 0.000000
# 6 0.000000 0.000000 0.000000 0.000000 0.000000 0.046694
#
#
# Mechanical properties :
#
#
# Convention : Reuss Voigt Hill
#
# Bulk Modulus (GPa) = 50.33803 54.29527 52.31665
# Shear Modulus (GPa) = 23.70653 25.62151 24.66402
#
# Velocity S-wave (km/s) = 3.41766 3.55302 3.48599
# Velocity P-wave (km/s) = 6.35419 6.60179 6.47917
#
# Compressibility (1/GPa) = 0.01986570
#
# Stress axis : x y z
#
# Youngs Moduli (GPa) = 78.82144 92.20994 63.68937
#
# Poissons Ratio (x) = 0.42089 0.23694
# Poissons Ratio (y) = 0.35978 0.08909
# Poissons Ratio (z) = 0.29324 0.12899
#
# Static dielectric constant tensor:
#      x y z
#    x 3.792990 0.000000 0.000000 
#    y 0.000000 3.471130 0.000000 
#    z 0.000000 0.000000 3.751520 
# 
# 
# High freq. dielectric constant tensor:
#      x y z
#    x 1.800130 0.000000 0.000000 
#    y 0.000000 1.771380 0.000000 
#    z 0.000000 0.000000 1.814260 
# 
# From -- ./inp_files/33346.got.cif
#   From: 2010.03.12/outbox.cif.g09.slc.cpg/sg63_17_cif.got.tgz:33346.got - 2010.04.10 19:34:48.
