data_PCOD8260985
_publ_section_title
;
Structure prediction by ZEFSAII (Michael W. Deem and Ramdas Pophale) SiO2 
 PCOD8260985
Probable space group: C M C M
;
_chemical_formula_sum "Si O2"
_cell_formula_units_Z 80
_cell_length_a 28.004813
_cell_length_b 18.117269
_cell_length_c 8.867246
_cell_angle_alpha 90.000000
_cell_angle_beta 90.000000
_cell_angle_gamma 90.000000
_cell_volume 4498.981080
_symmetry_space_group_name_H-M "C M C M"
_symmetry_group_IT_number 63
_symmetry_cell_setting 'orthorhombic'
loop_
_space_group_symop_operation_xyz
x,y,z
-x,-y,1/2+z
x,-y,-z
-x,y,1/2-z
-x,-y,-z
x,y,1/2-z
-x,y,z
x,-y,1/2+z
1/2+x,1/2+y,z
1/2-x,1/2-y,1/2+z
1/2+x,1/2-y,-z
1/2-x,1/2+y,1/2-z
1/2-x,1/2-y,-z
1/2+x,1/2+y,1/2-z
1/2-x,1/2+y,z
1/2+x,1/2-y,1/2+z
loop_
_atom_site_type_symbol
_atom_site_label
_atom_site_fract_x
_atom_site_fract_y
_atom_site_fract_z
Si Si1 0.052337 0.274812 0.571011
Si Si2 0.148088 0.798745 0.071029
Si Si3 0.902754 0.424470 0.928187
Si Si4 0.193206 0.647379 0.071574
Si Si5 0.791569 0.079883 0.429223
O O1 0.052634 0.276272 0.750000
O O2 0.093582 0.218212 0.518733
O O3 0.063723 0.357718 0.514522
O O4 0.000000 0.250679 0.509171
O O5 0.151374 0.811374 0.250000
O O6 0.182001 0.730880 0.018238
O O7 0.163675 0.871791 0.983250
O O8 0.905011 0.432207 0.750000
O O9 0.848711 0.407372 0.983496
O O10 0.921380 0.500000 0.000000
O O11 0.194357 0.647278 0.250000
O O12 0.243407 0.618470 0.006528
O O13 0.791150 0.073397 0.250000
O O14 0.796840 0.000000 0.500000
#
# Coordination Sequence:
#
# PCOD8260985 Si02
#       5
#    16  16  16  16  16
#     4   8  15  29  49  69  89 119 156 190 229 278
#     4   9  17  32  52  71  92 119 154 193 230 269
#     4   9  16  27  43  65  95 127 158 189 221 261
#     4   8  16  30  47  67  93 127 160 187 218 264
#     4  11  21  32  47  69  97 125 154 187 227 273
#
# _framework density 17.781804000000001
#
# number of rings (size 3 to 8) (size 9 to 14) (size 15 to 20)
#    0.000    3.000    0.000    4.200    0.000    0.400 
#    0.000    6.000    0.000    2.400    0.000    0.000 
#    0.000    0.000    0.000    0.000    0.000    0.000 
#
# Total GULP energy -495780.358396 kJ/mol
# GULP energy per Si atom -12394.508960 kJ/mol
# Density = 1.774133 g / cm^3
# Si number density = 17.781804 Si / 1000 Ang^3
#
#
#
# Elastic Constant Matrix: (Units=GPa)
#
#
# Indices 1 2 3 4 5 6 
#
# 1 143.8652 74.9723 25.8967 0.0000 0.0000 0.0000
# 2 74.9723 120.5379 30.2708 0.0000 0.0000 0.0000
# 3 25.8967 30.2708 35.4171 0.0000 0.0000 0.0000
# 4 0.0000 0.0000 0.0000 24.2646 0.0000 0.0000
# 5 0.0000 0.0000 0.0000 0.0000 14.4422 0.0000
# 6 0.0000 0.0000 0.0000 0.0000 0.0000 16.3782
#
#
#
# Elastic Compliance Matrix: (Units=1/GPa)
#
#
# Indices 1 2 3 4 5 6 
#
# 1 0.010478 -0.005848 -0.002663 0.000000 0.000000 0.000000
# 2 -0.005848 0.013828 -0.007542 0.000000 0.000000 0.000000
# 3 -0.002663 -0.007542 0.036628 0.000000 0.000000 0.000000
# 4 0.000000 0.000000 0.000000 0.041212 0.000000 0.000000
# 5 0.000000 0.000000 0.000000 0.000000 0.069242 0.000000
# 6 0.000000 0.000000 0.000000 0.000000 0.000000 0.061057
#
#
# Mechanical properties :
#
#
# Convention : Reuss Voigt Hill
#
# Bulk Modulus (GPa) = 34.68953 62.45555 48.57254
# Shear Modulus (GPa) = 18.23745 22.26235 20.24990
#
# Velocity S-wave (km/s) = 3.20601 3.54216 3.37827
# Velocity P-wave (km/s) = 5.76676 7.20616 6.52626
#
# Compressibility (1/GPa) = 0.02882715
#
# Stress axis : x y z
#
# Youngs Moduli (GPa) = 95.43742 72.31774 27.30126
#
# Poissons Ratio (x) = 0.42295 0.07270
# Poissons Ratio (y) = 0.55816 0.20591
# Poissons Ratio (z) = 0.25414 0.54544
#
# Static dielectric constant tensor:
#      x y z
#    x 3.708860 0.000000 0.000000 
#    y 0.000000 3.220320 0.000000 
#    z 0.000000 0.000000 2.842270 
# 
# 
# High freq. dielectric constant tensor:
#      x y z
#    x 1.686800 0.000000 0.000000 
#    y 0.000000 1.678440 0.000000 
#    z 0.000000 0.000000 1.648920 
# 
# From -- ./inp_files/11969.got.cif
#   From: 2010.03.12/outbox.cif.g09.slc.cpg/sg63_6_cif.got.tgz:11969.got - 2010.04.10 19:34:48.
