data_PCOD8260588
_publ_section_title
;
Structure prediction by ZEFSAII (Michael W. Deem and Ramdas Pophale) SiO2 
 PCOD8260588
Probable space group: C M C M
;
_chemical_formula_sum "Si O2"
_cell_formula_units_Z 96
_cell_length_a 22.075156
_cell_length_b 10.043845
_cell_length_c 22.828779
_cell_angle_alpha 90.000000
_cell_angle_beta 90.000000
_cell_angle_gamma 90.000000
_cell_volume 5061.584215
_symmetry_space_group_name_H-M "C M C M"
_symmetry_group_IT_number 63
_symmetry_cell_setting 'orthorhombic'
loop_
_space_group_symop_operation_xyz
x,y,z
-x,-y,1/2+z
x,-y,-z
-x,y,1/2-z
-x,-y,-z
x,y,1/2-z
-x,y,z
x,-y,1/2+z
1/2+x,1/2+y,z
1/2-x,1/2-y,1/2+z
1/2+x,1/2-y,-z
1/2-x,1/2+y,1/2-z
1/2-x,1/2-y,-z
1/2+x,1/2+y,1/2-z
1/2-x,1/2+y,z
1/2+x,1/2-y,1/2+z
loop_
_atom_site_type_symbol
_atom_site_label
_atom_site_fract_x
_atom_site_fract_y
_atom_site_fract_z
Si Si1 0.261779 0.396017 0.750000
Si Si2 0.000000 0.655053 0.515439
Si Si3 0.827571 0.837362 0.250000
Si Si4 0.500000 0.590583 0.940587
Si Si5 0.199329 0.133522 0.377042
Si Si6 0.620658 0.388448 0.125551
Si Si7 0.629598 0.853836 0.061703
Si Si8 0.170324 0.637229 0.433117
O O1 0.196305 0.317835 0.750000
O O2 0.268477 0.560004 0.750000
O O3 0.295107 0.346891 0.807826
O O4 0.000000 0.500000 0.500000
O O5 0.000000 0.753655 0.459500
O O6 0.940358 0.683194 0.553069
O O7 0.872111 0.865355 0.304798
O O8 0.556223 0.557484 0.897545
O O9 0.500000 0.500000 0.000000
O O10 0.154066 0.250581 0.392128
O O11 0.261895 0.148007 0.410552
O O12 0.171793 0.992050 0.395446
O O13 0.629493 0.250411 0.093666
O O14 0.638217 0.001264 0.087654
O O15 0.669382 0.846050 0.002792
#
# Coordination Sequence:
#
# PCOD8260588 Si02
#       8
#     8   8   8   8  16  16  16  16
#     4  10  22  38  62  84 122 156 196 244 306 366
#     4  12  20  42  59  81 121 159 204 236 293 360
#     4  10  22  41  62  90 120 161 202 256 302 366
#     4  12  24  41  63  88 123 167 205 249 299 367
#     4  11  23  38  58  90 120 154 195 248 304 364
#     4  11  23  39  62  89 121 159 210 246 302 364
#     4  11  23  37  59  87 122 159 195 246 302 358
#     4  11  21  37  58  90 122 154 192 249 301 366
#
# _framework density 18.966394000000001
#
# number of rings (size 3 to 8) (size 9 to 14) (size 15 to 20)
#    0.000    1.000    5.000    2.500    2.333    1.667 
#    0.000    0.000    0.000    1.500    0.000    0.000 
#    0.000    0.000    0.000    0.000    0.000    0.000 
#
# Total GULP energy -594907.763452 kJ/mol
# GULP energy per Si atom -12393.911739 kJ/mol
# Density = 1.892323 g / cm^3
# Si number density = 18.966394 Si / 1000 Ang^3
#
#
#
# Elastic Constant Matrix: (Units=GPa)
#
#
# Indices 1 2 3 4 5 6 
#
# 1 128.9354 22.0634 45.9864 0.0000 0.0000 0.0000
# 2 22.0634 87.6221 49.1619 0.0000 0.0000 0.0000
# 3 45.9864 49.1619 82.5955 0.0000 0.0000 0.0000
# 4 0.0000 0.0000 0.0000 13.4408 0.0000 0.0000
# 5 0.0000 0.0000 0.0000 0.0000 87.9277 0.0000
# 6 0.0000 0.0000 0.0000 0.0000 0.0000 23.4727
#
#
#
# Elastic Compliance Matrix: (Units=1/GPa)
#
#
# Indices 1 2 3 4 5 6 
#
# 1 0.009723 0.000884 -0.005940 0.000000 0.000000 0.000000
# 2 0.000884 0.017215 -0.010739 0.000000 0.000000 0.000000
# 3 -0.005940 -0.010739 0.021806 0.000000 0.000000 0.000000
# 4 0.000000 0.000000 0.000000 0.074401 0.000000 0.000000
# 5 0.000000 0.000000 0.000000 0.000000 0.011373 0.000000
# 6 0.000000 0.000000 0.000000 0.000000 0.000000 0.042603
#
#
# Mechanical properties :
#
#
# Convention : Reuss Voigt Hill
#
# Bulk Modulus (GPa) = 58.29045 59.28625 58.78835
# Shear Modulus (GPa) = 23.31777 37.09766 30.20771
#
# Velocity S-wave (km/s) = 3.51012 4.42743 3.99519
# Velocity P-wave (km/s) = 6.87228 7.58041 7.23501
#
# Compressibility (1/GPa) = 0.01715547
#
# Stress axis : x y z
#
# Youngs Moduli (GPa) = 102.84895 58.08769 45.85813
#
# Poissons Ratio (x) = -0.05137 0.27239
# Poissons Ratio (y) = -0.09096 0.49248
# Poissons Ratio (z) = 0.61090 0.62381
#
# Static dielectric constant tensor:
#      x y z
#    x 3.574660 0.000000 0.000000 
#    y 0.000000 3.818460 0.000000 
#    z 0.000000 0.000000 3.828590 
# 
# 
# High freq. dielectric constant tensor:
#      x y z
#    x 1.730070 0.000000 0.000000 
#    y 0.000000 1.756530 0.000000 
#    z 0.000000 0.000000 1.730000 
# 
# From -- ./inp_files/56624.got.cif
#   From: 2010.03.12/outbox.cif.g09.slc.cpg/sg63_29_cif.got.tgz:56624.got - 2010.04.10 19:34:48.
