data_PCOD8260111
_publ_section_title
;
Structure prediction by ZEFSAII (Michael W. Deem and Ramdas Pophale) SiO2 
 PCOD8260111
Probable space group: C M C M
;
_chemical_formula_sum "Si O2"
_cell_formula_units_Z 96
_cell_length_a 13.881904
_cell_length_b 22.550091
_cell_length_c 14.840427
_cell_angle_alpha 90.000000
_cell_angle_beta 90.000000
_cell_angle_gamma 90.000000
_cell_volume 4645.620532
_symmetry_space_group_name_H-M "C M C M"
_symmetry_group_IT_number 63
_symmetry_cell_setting 'orthorhombic'
loop_
_space_group_symop_operation_xyz
x,y,z
-x,-y,1/2+z
x,-y,-z
-x,y,1/2-z
-x,-y,-z
x,y,1/2-z
-x,y,z
x,-y,1/2+z
1/2+x,1/2+y,z
1/2-x,1/2-y,1/2+z
1/2+x,1/2-y,-z
1/2-x,1/2+y,1/2-z
1/2-x,1/2-y,-z
1/2+x,1/2+y,1/2-z
1/2-x,1/2+y,z
1/2+x,1/2-y,1/2+z
loop_
_atom_site_type_symbol
_atom_site_label
_atom_site_fract_x
_atom_site_fract_y
_atom_site_fract_z
Si Si1 0.180617 0.049477 0.750000
Si Si2 0.894639 0.678318 0.398036
Si Si3 0.296019 0.156147 0.750000
Si Si4 0.890247 0.926348 0.750000
Si Si5 0.891588 0.729038 0.904876
Si Si6 0.807007 0.142835 0.409574
Si Si7 0.110810 0.060883 0.950441
Si Si8 0.605984 0.724615 0.750000
O O1 0.284673 0.083838 0.750000
O O2 0.124127 0.062989 0.843061
O O3 0.189958 0.978175 0.750000
O O4 0.891089 0.697693 0.500310
O O5 0.805729 0.633102 0.382082
O O6 0.879470 0.736011 0.338018
O O7 0.000000 0.649143 0.376178
O O8 0.350060 0.180437 0.836760
O O9 0.182995 0.172620 0.750000
O O10 0.877142 0.887054 0.661912
O O11 0.000000 0.951565 0.750000
O O12 0.825407 0.786955 0.908272
O O13 0.000000 0.746763 0.875928
O O14 0.827749 0.115056 0.507439
O O15 0.000000 0.072311 0.973380
O O16 0.144688 0.000000 0.000000
O O17 0.500000 0.695026 0.750000
#
# Coordination Sequence:
#
# PCOD8260111 Si02
#       8
#     8  16   8   8  16  16  16   8
#     4  12  26  41  60  89 132 175 208 257 319 381
#     4  10  22  40  60  88 128 164 205 262 311 374
#     4  12  24  41  61  91 131 173 209 261 318 384
#     4  12  24  41  63  94 130 164 214 267 315 377
#     4  11  23  40  65  97 130 164 212 264 320 386
#     4  12  22  39  67  96 125 171 212 262 322 385
#     4  11  23  40  61  91 132 170 209 259 319 385
#     4  10  21  37  55  84 121 162 206 249 305 366
#
# _framework density 20.664624
#
# number of rings (size 3 to 8) (size 9 to 14) (size 15 to 20)
#    0.000    0.833    3.333    5.000    2.333    1.000 
#    0.000    0.000    0.000    2.500    0.000    0.000 
#    0.000    0.000    0.000    0.000    0.000    0.000 
#
# Total GULP energy -595042.112556 kJ/mol
# GULP energy per Si atom -12396.710678 kJ/mol
# Density = 2.061759 g / cm^3
# Si number density = 20.664624 Si / 1000 Ang^3
#
#
#
# Elastic Constant Matrix: (Units=GPa)
#
#
# Indices 1 2 3 4 5 6 
#
# 1 118.3581 26.5518 22.8148 0.0000 0.0000 0.0000
# 2 26.5518 69.9453 19.5207 0.0000 0.0000 0.0000
# 3 22.8148 19.5207 116.3403 0.0000 0.0000 0.0000
# 4 0.0000 0.0000 0.0000 23.3566 0.0000 0.0000
# 5 0.0000 0.0000 0.0000 0.0000 28.3426 0.0000
# 6 0.0000 0.0000 0.0000 0.0000 0.0000 31.3389
#
#
#
# Elastic Compliance Matrix: (Units=1/GPa)
#
#
# Indices 1 2 3 4 5 6 
#
# 1 0.009422 -0.003211 -0.001309 0.000000 0.000000 0.000000
# 2 -0.003211 0.016094 -0.002071 0.000000 0.000000 0.000000
# 3 -0.001309 -0.002071 0.009200 0.000000 0.000000 0.000000
# 4 0.000000 0.000000 0.000000 0.042814 0.000000 0.000000
# 5 0.000000 0.000000 0.000000 0.000000 0.035283 0.000000
# 6 0.000000 0.000000 0.000000 0.000000 0.000000 0.031909
#
#
# Mechanical properties :
#
#
# Convention : Reuss Voigt Hill
#
# Bulk Modulus (GPa) = 46.43907 49.15760 47.79833
# Shear Modulus (GPa) = 30.28826 32.32471 31.30649
#
# Velocity S-wave (km/s) = 3.83261 3.95936 3.89650
# Velocity P-wave (km/s) = 6.48897 6.68894 6.58971
#
# Compressibility (1/GPa) = 0.02153359
#
# Stress axis : x y z
#
# Youngs Moduli (GPa) = 106.13892 62.13576 108.70080
#
# Poissons Ratio (x) = 0.19953 0.14227
# Poissons Ratio (y) = 0.34084 0.22508
# Poissons Ratio (z) = 0.13891 0.12866
#
# Static dielectric constant tensor:
#      x y z
#    x 4.120700 0.000000 0.000000 
#    y 0.000000 3.594540 0.000000 
#    z 0.000000 0.000000 3.936960 
# 
# 
# High freq. dielectric constant tensor:
#      x y z
#    x 1.806310 0.000000 0.000000 
#    y 0.000000 1.779110 0.000000 
#    z 0.000000 0.000000 1.835040 
# 
# From -- ./inp_files/32017.got.cif
#   From: 2010.03.12/outbox.cif.g09.slc.cpg/sg63_17_cif.got.tgz:32017.got - 2010.04.10 19:34:48.
