data_PCOD8260023
_publ_section_title
;
Structure prediction by ZEFSAII (Michael W. Deem and Ramdas Pophale) SiO2 
 PCOD8260023
Probable space group: C M C M
;
_chemical_formula_sum "Si O2"
_cell_formula_units_Z 96
_cell_length_a 22.944013
_cell_length_b 11.469759
_cell_length_c 19.636783
_cell_angle_alpha 90.000000
_cell_angle_beta 90.000000
_cell_angle_gamma 90.000000
_cell_volume 5167.660971
_symmetry_space_group_name_H-M "C M C M"
_symmetry_group_IT_number 63
_symmetry_cell_setting 'orthorhombic'
loop_
_space_group_symop_operation_xyz
x,y,z
-x,-y,1/2+z
x,-y,-z
-x,y,1/2-z
-x,-y,-z
x,y,1/2-z
-x,y,z
x,-y,1/2+z
1/2+x,1/2+y,z
1/2-x,1/2-y,1/2+z
1/2+x,1/2-y,-z
1/2-x,1/2+y,1/2-z
1/2-x,1/2-y,-z
1/2+x,1/2+y,1/2-z
1/2-x,1/2+y,z
1/2+x,1/2-y,1/2+z
loop_
_atom_site_type_symbol
_atom_site_label
_atom_site_fract_x
_atom_site_fract_y
_atom_site_fract_z
Si Si1 0.722873 0.357217 0.829052
Si Si2 0.357129 0.496137 0.921822
Si Si3 0.136624 0.349739 0.173128
Si Si4 0.565749 0.275548 0.569679
Si Si5 0.568540 0.275119 0.085927
Si Si6 0.147972 0.618681 0.327493
O O1 0.719207 0.394930 0.750000
O O2 0.697346 0.466005 0.872798
O O3 0.690030 0.236342 0.844024
O O4 0.789515 0.329863 0.850357
O O5 0.402763 0.394021 0.911971
O O6 0.391456 0.612138 0.898832
O O7 0.335087 0.500000 0.000000
O O8 0.114086 0.327434 0.250000
O O9 0.085115 0.327594 0.119726
O O10 0.156352 0.481193 0.162872
O O11 0.500000 0.304802 0.584792
O O12 0.575684 0.236801 0.492142
O O13 0.500000 0.297170 0.103772
O O14 0.594360 0.168462 0.129111
O O15 0.133556 0.651429 0.250000
#
# Coordination Sequence:
#
# PCOD8260023 Si02
#       6
#    16  16  16  16  16  16
#     4   9  19  36  57  78 105 142 184 225 271 324
#     4   9  18  35  56  85 110 139 178 227 276 318
#     4   9  19  36  54  77 105 139 184 225 269 322
#     4   9  18  35  57  79 107 143 182 223 266 316
#     4  10  21  36  55  81 113 147 180 219 273 328
#     4  10  22  37  54  77 109 145 178 223 275 325
#
# _framework density 18.577069999999999
#
# number of rings (size 3 to 8) (size 9 to 14) (size 15 to 20)
#    0.000    2.667    0.000    0.500    2.333    4.667 
#    3.000    5.833    0.000    3.000    0.000    0.000 
#    0.000    0.000    0.000    0.000    0.000    0.000 
#
# Total GULP energy -595071.308185 kJ/mol
# GULP energy per Si atom -12397.318921 kJ/mol
# Density = 1.853479 g / cm^3
# Si number density = 18.577070 Si / 1000 Ang^3
#
#
#
# Elastic Constant Matrix: (Units=GPa)
#
#
# Indices 1 2 3 4 5 6 
#
# 1 81.5723 29.0725 50.2696 0.0000 0.0000 0.0000
# 2 29.0725 73.4165 40.3931 0.0000 0.0000 0.0000
# 3 50.2696 40.3931 75.6857 0.0000 0.0000 0.0000
# 4 0.0000 0.0000 0.0000 31.7929 0.0000 0.0000
# 5 0.0000 0.0000 0.0000 0.0000 30.7466 0.0000
# 6 0.0000 0.0000 0.0000 0.0000 0.0000 20.8816
#
#
#
# Elastic Compliance Matrix: (Units=1/GPa)
#
#
# Indices 1 2 3 4 5 6 
#
# 1 0.020796 -0.000900 -0.013332 0.000000 0.000000 0.000000
# 2 -0.000900 0.019322 -0.009714 0.000000 0.000000 0.000000
# 3 -0.013332 -0.009714 0.027252 0.000000 0.000000 0.000000
# 4 0.000000 0.000000 0.000000 0.031454 0.000000 0.000000
# 5 0.000000 0.000000 0.000000 0.000000 0.032524 0.000000
# 6 0.000000 0.000000 0.000000 0.000000 0.000000 0.047889
#
#
# Mechanical properties :
#
#
# Convention : Reuss Voigt Hill
#
# Bulk Modulus (GPa) = 51.34199 52.23833 51.79016
# Shear Modulus (GPa) = 21.40211 24.08016 22.74114
#
# Velocity S-wave (km/s) = 3.39790 3.60423 3.50258
# Velocity P-wave (km/s) = 6.56442 6.74547 6.65556
#
# Compressibility (1/GPa) = 0.01947724
#
# Stress axis : x y z
#
# Youngs Moduli (GPa) = 48.08665 51.75435 36.69430
#
# Poissons Ratio (x) = 0.04657 0.48921
# Poissons Ratio (y) = 0.04327 0.35647
# Poissons Ratio (z) = 0.64110 0.50277
#
# Static dielectric constant tensor:
#      x y z
#    x 3.495760 0.000000 0.000000 
#    y 0.000000 3.328160 0.000000 
#    z 0.000000 0.000000 3.556030 
# 
# 
# High freq. dielectric constant tensor:
#      x y z
#    x 1.719780 0.000000 0.000000 
#    y 0.000000 1.716930 0.000000 
#    z 0.000000 0.000000 1.719880 
# 
# From -- ./inp_files/47999.got.cif
#   From: 2010.03.12/outbox.cif.g09.slc.cpg/sg63_24_cif.got.tgz:47999.got - 2010.04.10 19:34:48.
