data_PCOD8260521
_publ_section_title
;
Structure prediction by ZEFSAII (Michael W. Deem and Ramdas Pophale) SiO2 
 PCOD8260521
Probable space group: C M C M
;
_chemical_formula_sum "Si O2"
_cell_formula_units_Z 112
_cell_length_a 13.578322
_cell_length_b 17.872580
_cell_length_c 26.647828
_cell_angle_alpha 90.000000
_cell_angle_beta 90.000000
_cell_angle_gamma 90.000000
_cell_volume 6466.885471
_symmetry_space_group_name_H-M "C M C M"
_symmetry_group_IT_number 63
_symmetry_cell_setting 'orthorhombic'
loop_
_space_group_symop_operation_xyz
x,y,z
-x,-y,1/2+z
x,-y,-z
-x,y,1/2-z
-x,-y,-z
x,y,1/2-z
-x,y,z
x,-y,1/2+z
1/2+x,1/2+y,z
1/2-x,1/2-y,1/2+z
1/2+x,1/2-y,-z
1/2-x,1/2+y,1/2-z
1/2-x,1/2-y,-z
1/2+x,1/2+y,1/2-z
1/2-x,1/2+y,z
1/2+x,1/2-y,1/2+z
loop_
_atom_site_type_symbol
_atom_site_label
_atom_site_fract_x
_atom_site_fract_y
_atom_site_fract_z
Si Si1 0.611088 0.120961 0.934062
Si Si2 0.383547 0.257166 0.194407
Si Si3 0.387438 0.172057 0.452295
Si Si4 0.807772 0.818515 0.406703
Si Si5 0.612420 0.526163 0.943105
Si Si6 0.302105 0.030236 0.400631
Si Si7 0.114141 0.586506 0.306815
O O1 0.500000 0.134870 0.914137
O O2 0.690129 0.168171 0.902233
O O3 0.637826 0.033374 0.930550
O O4 0.621450 0.147518 0.990755
O O5 0.346750 0.283207 0.250000
O O6 0.500000 0.261742 0.192902
O O7 0.341946 0.310168 0.150756
O O8 0.350022 0.171858 0.184865
O O9 0.500000 0.183878 0.435578
O O10 0.329295 0.248204 0.442005
O O11 0.338952 0.109942 0.418233
O O12 0.861730 0.886904 0.434976
O O13 0.500000 0.510701 0.926999
O O14 0.684877 0.477336 0.908330
O O15 0.630547 0.500000 0.000000
O O16 0.324051 0.028794 0.341150
O O17 0.133040 0.561377 0.250000
O O18 0.000000 0.579324 0.321078
#
# Coordination Sequence:
#
# PCOD8260521 Si02
#       7
#    16  16  16  16  16  16  16
#     4  10  22  34  46  73 112 143 170 204 252 317
#     4   9  17  31  54  83 106 125 164 226 278 305
#     4  11  20  32  54  80 102 132 177 225 261 296
#     4  11  20  35  57  77 102 138 178 219 263 304
#     4  10  22  38  53  73 107 146 181 213 255 317
#     4  11  19  33  55  77 105 138 171 215 268 313
#     4   9  17  30  52  81 107 131 166 216 271 319
#
# _framework density 17.319002000000001
#
# number of rings (size 3 to 8) (size 9 to 14) (size 15 to 20)
#    0.000    1.857    1.429    6.000    0.000    1.143 
#    0.000    5.000    0.000    2.571    0.000    2.000 
#    0.000    0.000    0.000    0.000    0.000    0.000 
#
# Total GULP energy -694260.137769 kJ/mol
# GULP energy per Si atom -12397.502460 kJ/mol
# Density = 1.727958 g / cm^3
# Si number density = 17.319002 Si / 1000 Ang^3
#
#
#
# Elastic Constant Matrix: (Units=GPa)
#
#
# Indices 1 2 3 4 5 6 
#
# 1 115.5690 34.9536 53.5622 0.0000 0.0000 0.0000
# 2 34.9536 75.2647 54.2287 0.0000 0.0000 0.0000
# 3 53.5622 54.2287 112.1606 0.0000 0.0000 0.0000
# 4 0.0000 0.0000 0.0000 20.8509 0.0000 0.0000
# 5 0.0000 0.0000 0.0000 0.0000 22.0949 0.0000
# 6 0.0000 0.0000 0.0000 0.0000 0.0000 20.3749
#
#
#
# Elastic Compliance Matrix: (Units=1/GPa)
#
#
# Indices 1 2 3 4 5 6 
#
# 1 0.011323 -0.002091 -0.004396 0.000000 0.000000 0.000000
# 2 -0.002091 0.020775 -0.009046 0.000000 0.000000 0.000000
# 3 -0.004396 -0.009046 0.015389 0.000000 0.000000 0.000000
# 4 0.000000 0.000000 0.000000 0.047960 0.000000 0.000000
# 5 0.000000 0.000000 0.000000 0.000000 0.045259 0.000000
# 6 0.000000 0.000000 0.000000 0.000000 0.000000 0.049080
#
#
# Mechanical properties :
#
#
# Convention : Reuss Voigt Hill
#
# Bulk Modulus (GPa) = 60.89988 65.38705 63.14347
# Shear Modulus (GPa) = 22.09204 23.34746 22.71975
#
# Velocity S-wave (km/s) = 3.57542 3.67561 3.62586
# Velocity P-wave (km/s) = 7.23082 7.47328 7.35305
#
# Compressibility (1/GPa) = 0.01642039
#
# Stress axis : x y z
#
# Youngs Moduli (GPa) = 88.31806 48.13410 64.98166
#
# Poissons Ratio (x) = 0.10064 0.28567
# Poissons Ratio (y) = 0.18466 0.58784
# Poissons Ratio (z) = 0.38827 0.43543
#
# Static dielectric constant tensor:
#      x y z
#    x 3.364510 0.000000 0.000000 
#    y 0.000000 3.183820 0.000000 
#    z 0.000000 0.000000 3.508360 
# 
# 
# High freq. dielectric constant tensor:
#      x y z
#    x 1.662120 0.000000 0.000000 
#    y 0.000000 1.661490 0.000000 
#    z 0.000000 0.000000 1.668970 
# 
# From -- ./inp_files/69381.got.cif
#   From: 2010.03.12/outbox.cif.g09.slc.cpg/sg63_35_cif.got.tgz:69381.got - 2010.04.10 19:34:48.
