data_PCOD8260956
_publ_section_title
;
Structure prediction by ZEFSAII (Michael W. Deem and Ramdas Pophale) SiO2 
 PCOD8260956
Probable space group: C M C M
;
_chemical_formula_sum "Si O2"
_cell_formula_units_Z 80
_cell_length_a 11.593775
_cell_length_b 22.912463
_cell_length_c 15.427982
_cell_angle_alpha 90.000000
_cell_angle_beta 90.000000
_cell_angle_gamma 90.000000
_cell_volume 4098.319080
_symmetry_space_group_name_H-M "C M C M"
_symmetry_group_IT_number 63
_symmetry_cell_setting 'orthorhombic'
loop_
_space_group_symop_operation_xyz
x,y,z
-x,-y,1/2+z
x,-y,-z
-x,y,1/2-z
-x,-y,-z
x,y,1/2-z
-x,y,z
x,-y,1/2+z
1/2+x,1/2+y,z
1/2-x,1/2-y,1/2+z
1/2+x,1/2-y,-z
1/2-x,1/2+y,1/2-z
1/2-x,1/2-y,-z
1/2+x,1/2+y,1/2-z
1/2-x,1/2+y,z
1/2+x,1/2-y,1/2+z
loop_
_atom_site_type_symbol
_atom_site_label
_atom_site_fract_x
_atom_site_fract_y
_atom_site_fract_z
Si Si1 0.714847 0.355512 0.902380
Si Si2 0.749886 0.637574 0.594071
Si Si3 0.500000 0.288294 0.652121
Si Si4 0.366876 0.246294 0.148011
Si Si5 0.862932 0.934753 0.750000
Si Si6 0.000000 0.650872 0.652651
Si Si7 0.364880 0.430032 0.250000
O O1 0.611209 0.309626 0.898730
O O2 0.830530 0.318441 0.882778
O O3 0.696079 0.407551 0.834826
O O4 0.719337 0.384101 0.997532
O O5 0.712479 0.705063 0.602892
O O6 0.886463 0.628578 0.604390
O O7 0.684006 0.598693 0.663510
O O8 0.500000 0.314261 0.750000
O O9 0.500000 0.219832 0.655155
O O10 0.346386 0.252055 0.250000
O O11 0.500000 0.255900 0.122577
O O12 0.000000 0.924468 0.750000
O O13 0.831987 0.002482 0.750000
O O14 0.000000 0.625732 0.750000
O O15 0.500000 0.418697 0.250000
#
# Coordination Sequence:
#
# PCOD8260956 Si02
#       7
#    16  16   8  16   8   8   8
#     4  12  23  38  64  95 130 160 206 256 310 374
#     4  12  25  39  65  94 128 166 206 260 307 375
#     4  11  20  36  62  94 130 168 206 247 310 376
#     4  11  22  37  60  94 134 168 195 245 320 378
#     4  11  24  45  70  90 119 165 213 262 312 368
#     4  11  22  40  64  90 126 174 214 243 306 374
#     4  11  26  46  65  91 122 159 210 265 319 365
#
# _framework density 19.520198000000001
#
# number of rings (size 3 to 8) (size 9 to 14) (size 15 to 20)
#    0.000    0.600    7.000    1.200    4.200    0.800 
#    0.000    2.000    4.400    1.200    0.000    0.000 
#    0.000    0.000    0.000    0.000    0.000    0.000 
#
# Total GULP energy -496171.722083 kJ/mol
# GULP energy per Si atom -12404.293052 kJ/mol
# Density = 1.947577 g / cm^3
# Si number density = 19.520198 Si / 1000 Ang^3
#
#
#
# Elastic Constant Matrix: (Units=GPa)
#
#
# Indices 1 2 3 4 5 6 
#
# 1 115.1285 38.0476 60.3584 0.0000 0.0000 0.0000
# 2 38.0476 102.7063 52.6554 0.0000 0.0000 0.0000
# 3 60.3584 52.6554 174.0641 0.0000 0.0000 0.0000
# 4 0.0000 0.0000 0.0000 5.8780 0.0000 0.0000
# 5 0.0000 0.0000 0.0000 0.0000 2.9671 0.0000
# 6 0.0000 0.0000 0.0000 0.0000 0.0000 34.4403
#
#
#
# Elastic Compliance Matrix: (Units=1/GPa)
#
#
# Indices 1 2 3 4 5 6 
#
# 1 0.011150 -0.002543 -0.003097 0.000000 0.000000 0.000000
# 2 -0.002543 0.012104 -0.002780 0.000000 0.000000 0.000000
# 3 -0.003097 -0.002780 0.007660 0.000000 0.000000 0.000000
# 4 0.000000 0.000000 0.000000 0.170125 0.000000 0.000000
# 5 0.000000 0.000000 0.000000 0.000000 0.337030 0.000000
# 6 0.000000 0.000000 0.000000 0.000000 0.000000 0.029036
#
#
# Mechanical properties :
#
#
# Convention : Reuss Voigt Hill
#
# Bulk Modulus (GPa) = 71.05153 77.11353 74.08253
# Shear Modulus (GPa) = 8.49423 24.71292 16.60357
#
# Velocity S-wave (km/s) = 2.08829 3.56197 2.91964
# Velocity P-wave (km/s) = 6.50328 7.51712 7.02850
#
# Compressibility (1/GPa) = 0.01407429
#
# Stress axis : x y z
#
# Youngs Moduli (GPa) = 89.68597 82.62054 130.55051
#
# Poissons Ratio (x) = 0.21008 0.40434
# Poissons Ratio (y) = 0.22804 0.36289
# Poissons Ratio (z) = 0.27778 0.22966
#
# Static dielectric constant tensor:
#      x y z
#    x 3.782810 0.000000 0.000000 
#    y 0.000000 3.336220 0.000000 
#    z 0.000000 0.000000 3.700540 
# 
# 
# High freq. dielectric constant tensor:
#      x y z
#    x 1.769740 0.000000 0.000000 
#    y 0.000000 1.731370 0.000000 
#    z 0.000000 0.000000 1.771920 
# 
# From -- ./inp_files/29807.got.cif
#   From: 2010.03.12/outbox.cif.g09.slc.cpg/sg63_15_cif.got.tgz:29807.got - 2010.04.10 19:34:48.
