data_PCOD8260785
_publ_section_title
;
Structure prediction by ZEFSAII (Michael W. Deem and Ramdas Pophale) SiO2 
 PCOD8260785
Probable space group: C M C M
;
_chemical_formula_sum "Si O2"
_cell_formula_units_Z 64
_cell_length_a 13.429790
_cell_length_b 26.748394
_cell_length_c 8.707483
_cell_angle_alpha 90.000000
_cell_angle_beta 90.000000
_cell_angle_gamma 90.000000
_cell_volume 3127.948317
_symmetry_space_group_name_H-M "C M C M"
_symmetry_group_IT_number 63
_symmetry_cell_setting 'orthorhombic'
loop_
_space_group_symop_operation_xyz
x,y,z
-x,-y,1/2+z
x,-y,-z
-x,y,1/2-z
-x,-y,-z
x,y,1/2-z
-x,y,z
x,-y,1/2+z
1/2+x,1/2+y,z
1/2-x,1/2-y,1/2+z
1/2+x,1/2-y,-z
1/2-x,1/2+y,1/2-z
1/2-x,1/2-y,-z
1/2+x,1/2+y,1/2-z
1/2-x,1/2+y,z
1/2+x,1/2-y,1/2+z
loop_
_atom_site_type_symbol
_atom_site_label
_atom_site_fract_x
_atom_site_fract_y
_atom_site_fract_z
Si Si1 0.500000 0.582164 0.575096
Si Si2 0.000000 0.800025 0.423341
Si Si3 0.112382 0.379544 0.431395
Si Si4 0.212463 0.052923 0.432737
Si Si5 0.651244 0.232102 0.929741
O O1 0.500000 0.561525 0.750000
O O2 0.500000 0.641091 0.574006
O O3 0.601003 0.564403 0.492609
O O4 0.090150 0.779301 0.517994
O O5 0.000000 0.779555 0.250000
O O6 0.132333 0.383493 0.250000
O O7 0.201619 0.408459 0.515818
O O8 0.115383 0.322008 0.489547
O O9 0.000000 0.399839 0.470159
O O10 0.209099 0.051629 0.250000
O O11 0.246761 0.000000 0.500000
O O12 0.655850 0.228842 0.750000
O O13 0.750000 0.250000 0.000000
#
# Coordination Sequence:
#
# PCOD8260785 Si02
#       5
#     8   8  16  16  16
#     4  11  24  44  67  95 132 171 213 268 325 386
#     4  11  23  38  60  91 126 167 208 250 307 374
#     4  10  22  43  66  91 129 174 217 266 322 381
#     4  12  26  44  68  97 127 166 214 271 330 391
#     4  11  22  38  60  90 127 169 210 259 313 370
#
# _framework density 20.460697
#
# number of rings (size 3 to 8) (size 9 to 14) (size 15 to 20)
#    0.000    1.000    1.250    5.625    0.000   11.000 
#    0.000    0.000    0.000    0.000    0.000    0.000 
#    0.000    0.000    0.000    0.000    0.000    0.000 
#
# Total GULP energy -396460.656746 kJ/mol
# GULP energy per Si atom -12389.395523 kJ/mol
# Density = 2.041413 g / cm^3
# Si number density = 20.460697 Si / 1000 Ang^3
#
#
#
# Elastic Constant Matrix: (Units=GPa)
#
#
# Indices 1 2 3 4 5 6 
#
# 1 153.9662 32.7325 57.6683 0.0000 0.0000 0.0000
# 2 32.7325 85.4155 50.7500 0.0000 0.0000 0.0000
# 3 57.6683 50.7500 120.8046 0.0000 0.0000 0.0000
# 4 0.0000 0.0000 0.0000 36.6190 0.0000 0.0000
# 5 0.0000 0.0000 0.0000 0.0000 45.6083 0.0000
# 6 0.0000 0.0000 0.0000 0.0000 0.0000 38.7795
#
#
#
# Elastic Compliance Matrix: (Units=1/GPa)
#
#
# Indices 1 2 3 4 5 6 
#
# 1 0.007980 -0.001059 -0.003365 0.000000 0.000000 0.000000
# 2 -0.001059 0.015742 -0.006108 0.000000 0.000000 0.000000
# 3 -0.003365 -0.006108 0.012450 0.000000 0.000000 0.000000
# 4 0.000000 0.000000 0.000000 0.027308 0.000000 0.000000
# 5 0.000000 0.000000 0.000000 0.000000 0.021926 0.000000
# 6 0.000000 0.000000 0.000000 0.000000 0.000000 0.025787
#
#
# Mechanical properties :
#
#
# Convention : Reuss Voigt Hill
#
# Bulk Modulus (GPa) = 66.18335 71.38753 68.78544
# Shear Modulus (GPa) = 36.41849 38.80371 37.61110
#
# Velocity S-wave (km/s) = 4.22349 4.35961 4.29209
# Velocity P-wave (km/s) = 7.49671 7.76578 7.63243
#
# Compressibility (1/GPa) = 0.01510954
#
# Stress axis : x y z
#
# Youngs Moduli (GPa) = 125.30834 63.52313 80.32202
#
# Poissons Ratio (x) = 0.06727 0.27025
# Poissons Ratio (y) = 0.13271 0.49059
# Poissons Ratio (z) = 0.42162 0.38799
#
# Static dielectric constant tensor:
#      x y z
#    x 3.961440 0.000000 0.000000 
#    y 0.000000 3.892780 0.000000 
#    z 0.000000 0.000000 3.959190 
# 
# 
# High freq. dielectric constant tensor:
#      x y z
#    x 1.825360 0.000000 0.000000 
#    y 0.000000 1.807840 0.000000 
#    z 0.000000 0.000000 1.805050 
# 
# From -- ./inp_files/4323.got.cif
#   From: 2010.03.12/outbox.cif.g09.slc.cpg/sg63_3_cif.got.tgz:4323.got - 2010.04.10 19:34:48.
