data_PCOD8260813
_publ_section_title
;
Structure prediction by ZEFSAII (Michael W. Deem and Ramdas Pophale) SiO2 
 PCOD8260813
Probable space group: C M C M
;
_chemical_formula_sum "Si O2"
_cell_formula_units_Z 80
_cell_length_a 13.518917
_cell_length_b 13.870534
_cell_length_c 23.071415
_cell_angle_alpha 90.000000
_cell_angle_beta 90.000000
_cell_angle_gamma 90.000000
_cell_volume 4326.227107
_symmetry_space_group_name_H-M "C M C M"
_symmetry_group_IT_number 63
_symmetry_cell_setting 'orthorhombic'
loop_
_space_group_symop_operation_xyz
x,y,z
-x,-y,1/2+z
x,-y,-z
-x,y,1/2-z
-x,-y,-z
x,y,1/2-z
-x,y,z
x,-y,1/2+z
1/2+x,1/2+y,z
1/2-x,1/2-y,1/2+z
1/2+x,1/2-y,-z
1/2-x,1/2+y,1/2-z
1/2-x,1/2-y,-z
1/2+x,1/2+y,1/2-z
1/2-x,1/2+y,z
1/2+x,1/2-y,1/2+z
loop_
_atom_site_type_symbol
_atom_site_label
_atom_site_fract_x
_atom_site_fract_y
_atom_site_fract_z
Si Si1 0.886381 0.961176 0.816098
Si Si2 0.610640 0.080330 0.458810
Si Si3 0.750515 0.672899 0.118790
Si Si4 0.891228 0.790519 0.511859
Si Si5 0.614901 0.348187 0.113947
O O1 0.866568 0.991654 0.750000
O O2 0.819621 0.867909 0.830875
O O3 0.000000 0.931319 0.825585
O O4 0.857595 0.050400 0.857119
O O5 0.500000 0.048233 0.441726
O O6 0.671641 0.089647 0.399192
O O7 0.611270 0.180671 0.492302
O O8 0.659600 0.000000 0.500000
O O9 0.688706 0.694623 0.060956
O O10 0.810990 0.767052 0.140320
O O11 0.868568 0.856540 0.455346
O O12 0.000000 0.817029 0.536439
O O13 0.500000 0.319737 0.127094
#
# Coordination Sequence:
#
# PCOD8260813 Si02
#       5
#    16  16  16  16  16
#     4  10  23  40  55  75 104 141 184 228 272 310
#     4   9  18  30  47  76 115 142 162 199 258 323
#     4  11  20  30  58  80 107 134 183 216 261 315
#     4   9  18  31  48  80 113 137 167 209 265 321
#     4   9  19  36  55  78 110 141 174 217 263 319
#
# _framework density 18.491864
#
# number of rings (size 3 to 8) (size 9 to 14) (size 15 to 20)
#    0.000    2.400    0.000    4.800    5.600    0.800 
#    0.000    3.000    0.000    1.800    0.000    0.000 
#    0.000    0.000    0.000    0.000    0.000    0.000 
#
# Total GULP energy -495838.256722 kJ/mol
# GULP energy per Si atom -12395.956418 kJ/mol
# Density = 1.844978 g / cm^3
# Si number density = 18.491864 Si / 1000 Ang^3
#
#
#
# Elastic Constant Matrix: (Units=GPa)
#
#
# Indices 1 2 3 4 5 6 
#
# 1 94.1046 36.6113 26.5038 0.0000 0.0000 0.0000
# 2 36.6113 52.3255 27.2851 0.0000 0.0000 0.0000
# 3 26.5038 27.2851 59.8120 0.0000 0.0000 0.0000
# 4 0.0000 0.0000 0.0000 19.8571 0.0000 0.0000
# 5 0.0000 0.0000 0.0000 0.0000 25.0194 0.0000
# 6 0.0000 0.0000 0.0000 0.0000 0.0000 28.6787
#
#
#
# Elastic Compliance Matrix: (Units=1/GPa)
#
#
# Indices 1 2 3 4 5 6 
#
# 1 0.014863 -0.009139 -0.002417 0.000000 0.000000 0.000000
# 2 -0.009139 0.030695 -0.009953 0.000000 0.000000 0.000000
# 3 -0.002417 -0.009953 0.022330 0.000000 0.000000 0.000000
# 4 0.000000 0.000000 0.000000 0.050360 0.000000 0.000000
# 5 0.000000 0.000000 0.000000 0.000000 0.039969 0.000000
# 6 0.000000 0.000000 0.000000 0.000000 0.000000 0.034869
#
#
# Mechanical properties :
#
#
# Convention : Reuss Voigt Hill
#
# Bulk Modulus (GPa) = 40.20779 43.00473 41.60626
# Shear Modulus (GPa) = 20.45874 22.43385 21.44629
#
# Velocity S-wave (km/s) = 3.32981 3.48684 3.40923
# Velocity P-wave (km/s) = 6.04767 6.28628 6.16813
#
# Compressibility (1/GPa) = 0.02487080
#
# Stress axis : x y z
#
# Youngs Moduli (GPa) = 67.28282 32.57810 44.78190
#
# Poissons Ratio (x) = 0.29773 0.10824
# Poissons Ratio (y) = 0.61489 0.44572
# Poissons Ratio (z) = 0.16262 0.32425
#
# Static dielectric constant tensor:
#      x y z
#    x 3.962730 0.000000 0.000000 
#    y 0.000000 3.286160 0.000000 
#    z 0.000000 0.000000 3.152040 
# 
# 
# High freq. dielectric constant tensor:
#      x y z
#    x 1.737420 0.000000 0.000000 
#    y 0.000000 1.707530 0.000000 
#    z 0.000000 0.000000 1.679190 
# 
# From -- ./inp_files/53996.got.cif
#   From: 2010.03.12/outbox.cif.g09.slc.cpg/sg63_27_cif.got.tgz:53996.got - 2010.04.10 19:34:48.
