data_PCOD8260211
_publ_section_title
;
Structure prediction by ZEFSAII (Michael W. Deem and Ramdas Pophale) SiO2 
 PCOD8260211
Probable space group: C M C M
;
_chemical_formula_sum "Si O2"
_cell_formula_units_Z 80
_cell_length_a 9.212367
_cell_length_b 25.324667
_cell_length_c 16.727171
_cell_angle_alpha 90.000000
_cell_angle_beta 90.000000
_cell_angle_gamma 90.000000
_cell_volume 3902.451111
_symmetry_space_group_name_H-M "C M C M"
_symmetry_group_IT_number 63
_symmetry_cell_setting 'orthorhombic'
loop_
_space_group_symop_operation_xyz
x,y,z
-x,-y,1/2+z
x,-y,-z
-x,y,1/2-z
-x,-y,-z
x,y,1/2-z
-x,y,z
x,-y,1/2+z
1/2+x,1/2+y,z
1/2-x,1/2-y,1/2+z
1/2+x,1/2-y,-z
1/2-x,1/2+y,1/2-z
1/2-x,1/2-y,-z
1/2+x,1/2+y,1/2-z
1/2-x,1/2+y,z
1/2+x,1/2-y,1/2+z
loop_
_atom_site_type_symbol
_atom_site_label
_atom_site_fract_x
_atom_site_fract_y
_atom_site_fract_z
Si Si1 0.659510 0.083766 0.657591
Si Si2 0.829214 0.121910 0.157934
Si Si3 0.341099 0.678128 0.842466
Si Si4 0.171638 0.233613 0.081469
Si Si5 0.330984 0.022695 0.086335
O O1 0.646233 0.097540 0.750000
O O2 0.500000 0.089430 0.616581
O O3 0.768756 0.125957 0.617209
O O4 0.713681 0.023838 0.647540
O O5 0.772708 0.124937 0.250000
O O6 0.787718 0.174896 0.109885
O O7 0.757536 0.074302 0.109596
O O8 0.000000 0.113049 0.157944
O O9 0.365529 0.667562 0.750000
O O10 0.500000 0.687257 0.883178
O O11 0.234402 0.727496 0.851488
O O12 0.000000 0.241380 0.073514
O O13 0.250000 0.250000 0.000000
O O14 0.500000 0.037421 0.091517
O O15 0.287692 0.000000 0.000000
#
# Coordination Sequence:
#
# PCOD8260211 Si02
#       5
#    16  16  16  16  16
#     4   9  18  34  56  82 115 157 199 241 294 355
#     4  10  23  43  65  90 122 163 208 252 305 369
#     4  10  21  37  59  88 119 154 199 247 296 356
#     4  11  24  41  62  89 123 160 202 253 309 367
#     4  10  22  38  59  90 125 159 201 250 302 360
#
# _framework density 20.499936000000002
#
# number of rings (size 3 to 8) (size 9 to 14) (size 15 to 20)
#    0.000    2.000    0.000    2.400    2.800    6.000 
#    0.000    2.000    0.000    0.000    0.000    0.000 
#    0.000    0.000    0.000    0.000    0.000    0.000 
#
# Total GULP energy -495861.468889 kJ/mol
# GULP energy per Si atom -12396.536722 kJ/mol
# Density = 2.045328 g / cm^3
# Si number density = 20.499936 Si / 1000 Ang^3
#
#
#
# Elastic Constant Matrix: (Units=GPa)
#
#
# Indices 1 2 3 4 5 6 
#
# 1 100.3363 88.8585 36.8996 0.0000 0.0000 0.0000
# 2 88.8585 190.4851 49.6603 0.0000 0.0000 0.0000
# 3 36.8996 49.6603 77.3796 0.0000 0.0000 0.0000
# 4 0.0000 0.0000 0.0000 34.4546 0.0000 0.0000
# 5 0.0000 0.0000 0.0000 0.0000 26.5775 0.0000
# 6 0.0000 0.0000 0.0000 0.0000 0.0000 40.2530
#
#
#
# Elastic Compliance Matrix: (Units=1/GPa)
#
#
# Indices 1 2 3 4 5 6 
#
# 1 0.017871 -0.007343 -0.003809 0.000000 0.000000 0.000000
# 2 -0.007343 0.009322 -0.002481 0.000000 0.000000 0.000000
# 3 -0.003809 -0.002481 0.016332 0.000000 0.000000 0.000000
# 4 0.000000 0.000000 0.000000 0.029024 0.000000 0.000000
# 5 0.000000 0.000000 0.000000 0.000000 0.037626 0.000000
# 6 0.000000 0.000000 0.000000 0.000000 0.000000 0.024843
#
#
# Mechanical properties :
#
#
# Convention : Reuss Voigt Hill
#
# Bulk Modulus (GPa) = 61.50839 79.89309 70.70074
# Shear Modulus (GPa) = 29.81462 33.10920 31.46191
#
# Velocity S-wave (km/s) = 3.81777 4.02318 3.92182
# Velocity P-wave (km/s) = 7.03584 7.78705 7.42096
#
# Compressibility (1/GPa) = 0.01625794
#
# Stress axis : x y z
#
# Youngs Moduli (GPa) = 55.95779 107.27204 61.22982
#
# Poissons Ratio (x) = 0.78773 0.23323
# Poissons Ratio (y) = 0.41092 0.15191
# Poissons Ratio (z) = 0.21315 0.26613
#
# Static dielectric constant tensor:
#      x y z
#    x 4.026930 0.000000 0.000000 
#    y 0.000000 3.889030 0.000000 
#    z 0.000000 0.000000 3.656070 
# 
# 
# High freq. dielectric constant tensor:
#      x y z
#    x 1.801570 0.000000 0.000000 
#    y 0.000000 1.813650 0.000000 
#    z 0.000000 0.000000 1.794020 
# 
# From -- ./inp_files/40531.got.cif
#   From: 2010.03.12/outbox.cif.g09.slc.cpg/sg63_21_cif.got.tgz:40531.got - 2010.04.10 19:34:48.
