data_PCOD8260177
_publ_section_title
;
Structure prediction by ZEFSAII (Michael W. Deem and Ramdas Pophale) SiO2 
 PCOD8260177
Probable space group: C M C M
;
_chemical_formula_sum "Si O2"
_cell_formula_units_Z 88
_cell_length_a 23.543127
_cell_length_b 20.014410
_cell_length_c 9.099194
_cell_angle_alpha 90.000000
_cell_angle_beta 90.000000
_cell_angle_gamma 90.000000
_cell_volume 4287.556559
_symmetry_space_group_name_H-M "C M C M"
_symmetry_group_IT_number 63
_symmetry_cell_setting 'orthorhombic'
loop_
_space_group_symop_operation_xyz
x,y,z
-x,-y,1/2+z
x,-y,-z
-x,y,1/2-z
-x,-y,-z
x,y,1/2-z
-x,y,z
x,-y,1/2+z
1/2+x,1/2+y,z
1/2-x,1/2-y,1/2+z
1/2+x,1/2-y,-z
1/2-x,1/2+y,1/2-z
1/2-x,1/2-y,-z
1/2+x,1/2+y,1/2-z
1/2-x,1/2+y,z
1/2+x,1/2-y,1/2+z
loop_
_atom_site_type_symbol
_atom_site_label
_atom_site_fract_x
_atom_site_fract_y
_atom_site_fract_z
Si Si1 0.935765 0.315428 0.084466
Si Si2 0.222613 0.813206 0.422693
Si Si3 0.590472 0.318167 0.421311
Si Si4 0.000000 0.071623 0.921595
Si Si5 0.261884 0.938833 0.587504
Si Si6 0.893325 0.438216 0.911529
O O1 0.911529 0.310925 0.250000
O O2 0.000000 0.341677 0.085247
O O3 0.934495 0.242873 0.012412
O O4 0.898690 0.367963 0.994228
O O5 0.232746 0.806636 0.250000
O O6 0.250000 0.750000 0.500000
O O7 0.156641 0.824675 0.460508
O O8 0.256605 0.874721 0.486706
O O9 0.581082 0.302522 0.250000
O O10 0.556334 0.385622 0.465274
O O11 0.000000 0.056197 0.750000
O O12 0.000000 0.000000 0.000000
O O13 0.233750 0.930292 0.750000
O O14 0.327631 0.954408 0.609579
O O15 0.232307 0.000000 0.500000
O O16 0.922058 0.433210 0.750000
O O17 0.921968 0.500000 0.000000
#
# Coordination Sequence:
#
# PCOD8260177 Si02
#       6
#    16  16  16   8  16  16
#     4  11  23  37  57  85 115 149 192 240 292 348
#     4  11  23  38  59  90 123 158 202 249 302 365
#     4  10  22  41  63  86 117 158 202 246 301 364
#     4  10  22  42  66  90 119 156 201 256 310 364
#     4  10  21  38  59  84 115 153 194 238 291 350
#     4  10  21  37  58  83 114 154 197 239 287 342
#
# _framework density 20.524509999999999
#
# number of rings (size 3 to 8) (size 9 to 14) (size 15 to 20)
#    0.000    1.636    0.909    3.273    0.000   10.909 
#    0.000    1.818    0.000    0.000    0.000    0.000 
#    0.000    0.000    0.000    0.000    0.000    0.000 
#
# Total GULP energy -545581.286432 kJ/mol
# GULP energy per Si atom -12399.574692 kJ/mol
# Density = 2.047780 g / cm^3
# Si number density = 20.524510 Si / 1000 Ang^3
#
#
#
# Elastic Constant Matrix: (Units=GPa)
#
#
# Indices 1 2 3 4 5 6 
#
# 1 65.6781 31.5859 39.6654 0.0000 0.0000 0.0000
# 2 31.5859 178.3045 82.4183 0.0000 0.0000 0.0000
# 3 39.6654 82.4183 142.7002 0.0000 0.0000 0.0000
# 4 0.0000 0.0000 0.0000 43.2452 0.0000 0.0000
# 5 0.0000 0.0000 0.0000 0.0000 23.7788 0.0000
# 6 0.0000 0.0000 0.0000 0.0000 0.0000 29.0746
#
#
#
# Elastic Compliance Matrix: (Units=1/GPa)
#
#
# Indices 1 2 3 4 5 6 
#
# 1 0.018492 -0.001228 -0.004431 0.000000 0.000000 0.000000
# 2 -0.001228 0.007732 -0.004125 0.000000 0.000000 0.000000
# 3 -0.004431 -0.004125 0.010622 0.000000 0.000000 0.000000
# 4 0.000000 0.000000 0.000000 0.023124 0.000000 0.000000
# 5 0.000000 0.000000 0.000000 0.000000 0.042054 0.000000
# 6 0.000000 0.000000 0.000000 0.000000 0.000000 0.034394
#
#
# Mechanical properties :
#
#
# Convention : Reuss Voigt Hill
#
# Bulk Modulus (GPa) = 57.87227 77.11352 67.49290
# Shear Modulus (GPa) = 30.91271 34.75393 32.83332
#
# Velocity S-wave (km/s) = 3.88511 4.11942 4.00398
# Velocity P-wave (km/s) = 6.95581 7.76397 7.37097
#
# Compressibility (1/GPa) = 0.01727943
#
# Stress axis : x y z
#
# Youngs Moduli (GPa) = 54.07658 129.32528 94.14701
#
# Poissons Ratio (x) = 0.15876 0.41718
# Poissons Ratio (y) = 0.06638 0.38833
# Poissons Ratio (z) = 0.23962 0.53343
#
# Static dielectric constant tensor:
#      x y z
#    x 3.636030 0.000000 0.000000 
#    y 0.000000 3.597250 0.000000 
#    z 0.000000 0.000000 4.067260 
# 
# 
# High freq. dielectric constant tensor:
#      x y z
#    x 1.787580 0.000000 0.000000 
#    y 0.000000 1.808710 0.000000 
#    z 0.000000 0.000000 1.818020 
# 
# From -- ./inp_files/10193.got.cif
#   From: 2010.03.12/outbox.cif.g09.slc.cpg/sg63_6_cif.got.tgz:10193.got - 2010.04.10 19:34:48.
