data_PCOD8260244
_publ_section_title
;
Structure prediction by ZEFSAII (Michael W. Deem and Ramdas Pophale) SiO2 
 PCOD8260244
Probable space group: C M C M
;
_chemical_formula_sum "Si O2"
_cell_formula_units_Z 96
_cell_length_a 23.443136
_cell_length_b 24.162416
_cell_length_c 8.788151
_cell_angle_alpha 90.000000
_cell_angle_beta 90.000000
_cell_angle_gamma 90.000000
_cell_volume 4977.984898
_symmetry_space_group_name_H-M "C M C M"
_symmetry_group_IT_number 63
_symmetry_cell_setting 'orthorhombic'
loop_
_space_group_symop_operation_xyz
x,y,z
-x,-y,1/2+z
x,-y,-z
-x,y,1/2-z
-x,-y,-z
x,y,1/2-z
-x,y,z
x,-y,1/2+z
1/2+x,1/2+y,z
1/2-x,1/2-y,1/2+z
1/2+x,1/2-y,-z
1/2-x,1/2+y,1/2-z
1/2-x,1/2-y,-z
1/2+x,1/2+y,1/2-z
1/2-x,1/2+y,z
1/2+x,1/2-y,1/2+z
loop_
_atom_site_type_symbol
_atom_site_label
_atom_site_fract_x
_atom_site_fract_y
_atom_site_fract_z
Si Si1 0.434925 0.368545 0.928051
Si Si2 0.661858 0.444834 0.920387
Si Si3 0.065182 0.557917 0.929333
Si Si4 0.236843 0.838914 0.575127
Si Si5 0.858776 0.338681 0.429968
Si Si6 0.633981 0.724662 0.570458
O O1 0.421666 0.357001 0.750000
O O2 0.500000 0.383688 0.958442
O O3 0.397091 0.419962 0.988168
O O4 0.418115 0.314487 0.022428
O O5 0.649939 0.462577 0.750000
O O6 0.710766 0.399663 0.935216
O O7 0.682819 0.500000 0.000000
O O8 0.069661 0.551793 0.750000
O O9 0.105990 0.607569 0.986834
O O10 0.000000 0.570645 0.979947
O O11 0.086510 0.500000 0.000000
O O12 0.250823 0.822690 0.750000
O O13 0.292939 0.842894 0.474617
O O14 0.193440 0.793413 0.508229
O O15 0.864984 0.331332 0.250000
O O16 0.884495 0.285265 0.514171
O O17 0.642750 0.723435 0.750000
#
# Coordination Sequence:
#
# PCOD8260244 Si02
#       6
#    16  16  16  16  16  16
#     4   9  19  37  57  77 107 147 186 225 272 322
#     4   9  19  34  53  77 106 142 181 222 269 319
#     4   9  20  39  60  81 108 142 178 218 265 316
#     4  10  21  38  56  77 109 146 182 222 272 323
#     4  11  22  36  57  84 110 141 181 219 265 326
#     4  11  22  36  55  81 112 143 179 225 274 320
#
# _framework density 19.284911999999998
#
# number of rings (size 3 to 8) (size 9 to 14) (size 15 to 20)
#    0.000    2.167    0.000    4.000    0.000    6.667 
#    0.000    5.000    0.000    0.000    0.000    0.000 
#    0.000    0.000    0.000    0.000    0.000    0.000 
#
# Total GULP energy -595204.822289 kJ/mol
# GULP energy per Si atom -12400.100464 kJ/mol
# Density = 1.924102 g / cm^3
# Si number density = 19.284912 Si / 1000 Ang^3
#
#
#
# Elastic Constant Matrix: (Units=GPa)
#
#
# Indices 1 2 3 4 5 6 
#
# 1 35.7902 9.1537 6.8621 0.0000 0.0000 0.0000
# 2 9.1537 117.5233 35.6911 0.0000 0.0000 0.0000
# 3 6.8621 35.6911 65.9565 0.0000 0.0000 0.0000
# 4 0.0000 0.0000 0.0000 34.0289 0.0000 0.0000
# 5 0.0000 0.0000 0.0000 0.0000 29.1533 0.0000
# 6 0.0000 0.0000 0.0000 0.0000 0.0000 17.2972
#
#
#
# Elastic Compliance Matrix: (Units=1/GPa)
#
#
# Indices 1 2 3 4 5 6 
#
# 1 0.028756 -0.001593 -0.002130 0.000000 0.000000 0.000000
# 2 -0.001593 0.010271 -0.005392 0.000000 0.000000 0.000000
# 3 -0.002130 -0.005392 0.018301 0.000000 0.000000 0.000000
# 4 0.000000 0.000000 0.000000 0.029387 0.000000 0.000000
# 5 0.000000 0.000000 0.000000 0.000000 0.034301 0.000000
# 6 0.000000 0.000000 0.000000 0.000000 0.000000 0.057813
#
#
# Mechanical properties :
#
#
# Convention : Reuss Voigt Hill
#
# Bulk Modulus (GPa) = 25.57658 35.85375 30.71517
# Shear Modulus (GPa) = 23.79923 27.26678 25.53301
#
# Velocity S-wave (km/s) = 3.51677 3.76425 3.64261
# Velocity P-wave (km/s) = 5.45724 6.12575 5.80113
#
# Compressibility (1/GPa) = 0.03909826
#
# Stress axis : x y z
#
# Youngs Moduli (GPa) = 34.77493 97.36596 54.64228
#
# Poissons Ratio (x) = 0.15510 0.11638
# Poissons Ratio (y) = 0.05540 0.29463
# Poissons Ratio (z) = 0.07406 0.52499
#
# Static dielectric constant tensor:
#      x y z
#    x 3.491370 0.000000 0.000000 
#    y 0.000000 3.687330 0.000000 
#    z 0.000000 0.000000 3.487180 
# 
# 
# High freq. dielectric constant tensor:
#      x y z
#    x 1.745840 0.000000 0.000000 
#    y 0.000000 1.757730 0.000000 
#    z 0.000000 0.000000 1.748950 
# 
# From -- ./inp_files/10465.got.cif
#   From: 2010.03.12/outbox.cif.g09.slc.cpg/sg63_6_cif.got.tgz:10465.got - 2010.04.10 19:34:48.
