data_PCOD8260012
_publ_section_title
;
Structure prediction by ZEFSAII (Michael W. Deem and Ramdas Pophale) SiO2 
 PCOD8260012
Probable space group: C M C M
;
_chemical_formula_sum "Si O2"
_cell_formula_units_Z 80
_cell_length_a 9.681756
_cell_length_b 28.605207
_cell_length_c 15.951364
_cell_angle_alpha 90.000000
_cell_angle_beta 90.000000
_cell_angle_gamma 90.000000
_cell_volume 4417.708478
_symmetry_space_group_name_H-M "C M C M"
_symmetry_group_IT_number 63
_symmetry_cell_setting 'orthorhombic'
loop_
_space_group_symop_operation_xyz
x,y,z
-x,-y,1/2+z
x,-y,-z
-x,y,1/2-z
-x,-y,-z
x,y,1/2-z
-x,y,z
x,-y,1/2+z
1/2+x,1/2+y,z
1/2-x,1/2-y,1/2+z
1/2+x,1/2-y,-z
1/2-x,1/2+y,1/2-z
1/2-x,1/2-y,-z
1/2+x,1/2+y,1/2-z
1/2-x,1/2+y,z
1/2+x,1/2-y,1/2+z
loop_
_atom_site_type_symbol
_atom_site_label
_atom_site_fract_x
_atom_site_fract_y
_atom_site_fract_z
Si Si1 0.338441 0.978601 0.409579
Si Si2 0.664438 0.856370 0.750000
Si Si3 0.336493 0.038446 0.250000
Si Si4 0.343273 0.305701 0.433737
Si Si5 0.839210 0.299364 0.909064
Si Si6 0.841550 0.100399 0.654655
O O1 0.500000 0.967747 0.399730
O O2 0.255721 0.930212 0.404974
O O3 0.305073 0.000000 0.500000
O O4 0.285986 0.012502 0.334627
O O5 0.500000 0.856463 0.750000
O O6 0.724665 0.909019 0.750000
O O7 0.718956 0.828847 0.668813
O O8 0.500000 0.041310 0.250000
O O9 0.500000 0.306644 0.467933
O O10 0.242136 0.316735 0.509990
O O11 0.311188 0.255513 0.391955
O O12 0.319039 0.344909 0.363723
O O13 0.000000 0.309590 0.924510
O O14 0.797657 0.091287 0.750000
O O15 0.000000 0.085940 0.638785
#
# Coordination Sequence:
#
# PCOD8260012 Si02
#       6
#    16   8   8  16  16  16
#     4  10  21  36  57  80 105 137 175 222 270 313
#     4   9  18  30  52  79 101 131 173 213 252 303
#     4   9  18  34  50  75 109 133 165 219 266 303
#     4   9  19  34  52  76 107 137 169 212 260 305
#     4   9  18  33  54  78 103 135 175 214 251 304
#     4  10  21  36  55  78 107 141 176 215 261 317
#
# _framework density 18.108934999999999
#
# number of rings (size 3 to 8) (size 9 to 14) (size 15 to 20)
#    0.000    2.600    1.000    0.000    4.200    1.200 
#    0.000    0.500    0.000    1.200    0.000    0.000 
#    0.000    0.000    0.000    0.000    0.000    0.000 
#
# Total GULP energy -496017.417227 kJ/mol
# GULP energy per Si atom -12400.435431 kJ/mol
# Density = 1.806772 g / cm^3
# Si number density = 18.108935 Si / 1000 Ang^3
#
#
#
# Elastic Constant Matrix: (Units=GPa)
#
#
# Indices 1 2 3 4 5 6 
#
# 1 43.7392 33.9583 32.5399 0.0000 0.0000 0.0000
# 2 33.9583 105.5276 51.2460 0.0000 0.0000 0.0000
# 3 32.5399 51.2460 106.4292 0.0000 0.0000 0.0000
# 4 0.0000 0.0000 0.0000 32.1414 0.0000 0.0000
# 5 0.0000 0.0000 0.0000 0.0000 22.1026 0.0000
# 6 0.0000 0.0000 0.0000 0.0000 0.0000 26.2645
#
#
#
# Elastic Compliance Matrix: (Units=1/GPa)
#
#
# Indices 1 2 3 4 5 6 
#
# 1 0.033724 -0.007629 -0.006637 0.000000 0.000000 0.000000
# 2 -0.007629 0.014094 -0.004454 0.000000 0.000000 0.000000
# 3 -0.006637 -0.004454 0.013570 0.000000 0.000000 0.000000
# 4 0.000000 0.000000 0.000000 0.031113 0.000000 0.000000
# 5 0.000000 0.000000 0.000000 0.000000 0.045243 0.000000
# 6 0.000000 0.000000 0.000000 0.000000 0.000000 0.038074
#
#
# Mechanical properties :
#
#
# Convention : Reuss Voigt Hill
#
# Bulk Modulus (GPa) = 41.75856 54.57603 48.16729
# Shear Modulus (GPa) = 22.59986 25.29848 23.94917
#
# Velocity S-wave (km/s) = 3.53653 3.74172 3.64057
# Velocity P-wave (km/s) = 6.30760 6.99073 6.65793
#
# Compressibility (1/GPa) = 0.02394719
#
# Stress axis : x y z
#
# Youngs Moduli (GPa) = 29.65278 70.95225 73.69306
#
# Poissons Ratio (x) = 0.54129 0.48913
# Poissons Ratio (y) = 0.22622 0.32822
# Poissons Ratio (z) = 0.19682 0.31601
#
# Static dielectric constant tensor:
#      x y z
#    x 3.124880 0.000000 0.000000 
#    y 0.000000 3.454750 0.000000 
#    z 0.000000 0.000000 3.362390 
# 
# 
# High freq. dielectric constant tensor:
#      x y z
#    x 1.675760 0.000000 0.000000 
#    y 0.000000 1.710880 0.000000 
#    z 0.000000 0.000000 1.701210 
# 
# From -- ./inp_files/29782.got.cif
#   From: 2010.03.12/outbox.cif.g09.slc.cpg/sg63_15_cif.got.tgz:29782.got - 2010.04.10 19:34:48.
