data_PCOD8260856
_publ_section_title
;
Structure prediction by ZEFSAII (Michael W. Deem and Ramdas Pophale) SiO2 
 PCOD8260856
Probable space group: C M C M
;
_chemical_formula_sum "Si O2"
_cell_formula_units_Z 56
_cell_length_a 24.446840
_cell_length_b 11.183642
_cell_length_c 9.929634
_cell_angle_alpha 90.000000
_cell_angle_beta 90.000000
_cell_angle_gamma 90.000000
_cell_volume 2714.808670
_symmetry_space_group_name_H-M "C M C M"
_symmetry_group_IT_number 63
_symmetry_cell_setting 'orthorhombic'
loop_
_space_group_symop_operation_xyz
x,y,z
-x,-y,1/2+z
x,-y,-z
-x,y,1/2-z
-x,-y,-z
x,y,1/2-z
-x,y,z
x,-y,1/2+z
1/2+x,1/2+y,z
1/2-x,1/2-y,1/2+z
1/2+x,1/2-y,-z
1/2-x,1/2+y,1/2-z
1/2-x,1/2-y,-z
1/2+x,1/2+y,1/2-z
1/2-x,1/2+y,z
1/2+x,1/2-y,1/2+z
loop_
_atom_site_type_symbol
_atom_site_label
_atom_site_fract_x
_atom_site_fract_y
_atom_site_fract_z
Si Si1 0.111088 0.274338 0.501948
Si Si2 0.179569 0.500000 0.500000
Si Si3 0.344284 0.638454 0.750000
Si Si4 0.753219 0.034497 0.250000
Si Si5 0.131486 0.121728 0.250000
Si Si6 0.000000 0.384182 0.593321
O O1 0.140700 0.393639 0.447361
O O2 0.147308 0.216076 0.617954
O O3 0.104796 0.182027 0.380162
O O4 0.052139 0.303119 0.562419
O O5 0.216394 0.551472 0.380799
O O6 0.280716 0.597330 0.750000
O O7 0.383295 0.520035 0.750000
O O8 0.801856 0.134244 0.250000
O O9 0.000000 0.500000 0.500000
O O10 0.000000 0.423683 0.750000
#
# Coordination Sequence:
#
# PCOD8260856 Si02
#       6
#    16   8   8   8   8   8
#     4  12  24  44  71  97 142 171 239 283 346 407
#     4  12  24  37  68 106 126 189 220 284 348 406
#     4  10  23  46  64  94 143 182 224 286 331 412
#     4  10  24  42  62 102 140 178 232 264 354 398
#     4  10  25  44  66  98 139 188 218 286 333 412
#     4  12  28  48  73 105 136 178 221 294 354 402
#
# _framework density 20.627603000000001
#
# number of rings (size 3 to 8) (size 9 to 14) (size 15 to 20)
#    0.857    0.000    2.857    4.286    2.000    6.857 
#    0.000    4.286    0.000    0.000    0.000    0.000 
#    0.000    0.000    0.000    0.000    0.000    0.000 
#
# Total GULP energy -347260.594636 kJ/mol
# GULP energy per Si atom -12402.164094 kJ/mol
# Density = 2.058065 g / cm^3
# Si number density = 20.627603 Si / 1000 Ang^3
#
#
#
# Elastic Constant Matrix: (Units=GPa)
#
#
# Indices 1 2 3 4 5 6 
#
# 1 94.8647 18.6124 20.8581 0.0000 0.0000 0.0000
# 2 18.6124 98.8361 22.2350 0.0000 0.0000 0.0000
# 3 20.8581 22.2350 135.4996 0.0000 0.0000 0.0000
# 4 0.0000 0.0000 0.0000 43.2288 0.0000 0.0000
# 5 0.0000 0.0000 0.0000 0.0000 24.5037 0.0000
# 6 0.0000 0.0000 0.0000 0.0000 0.0000 12.9060
#
#
#
# Elastic Compliance Matrix: (Units=1/GPa)
#
#
# Indices 1 2 3 4 5 6 
#
# 1 0.011207 -0.001788 -0.001432 0.000000 0.000000 0.000000
# 2 -0.001788 0.010791 -0.001495 0.000000 0.000000 0.000000
# 3 -0.001432 -0.001495 0.007846 0.000000 0.000000 0.000000
# 4 0.000000 0.000000 0.000000 0.023133 0.000000 0.000000
# 5 0.000000 0.000000 0.000000 0.000000 0.040810 0.000000
# 6 0.000000 0.000000 0.000000 0.000000 0.000000 0.077483
#
#
# Mechanical properties :
#
#
# Convention : Reuss Voigt Hill
#
# Bulk Modulus (GPa) = 48.98884 50.29015 49.63949
# Shear Modulus (GPa) = 26.66590 33.96070 30.31330
#
# Velocity S-wave (km/s) = 3.59935 4.06195 3.83763
# Velocity P-wave (km/s) = 6.40894 6.81412 6.61463
#
# Compressibility (1/GPa) = 0.02041281
#
# Stress axis : x y z
#
# Youngs Moduli (GPa) = 89.22997 92.67006 127.45541
#
# Poissons Ratio (x) = 0.16573 0.18248
# Poissons Ratio (y) = 0.15958 0.19061
# Poissons Ratio (z) = 0.12775 0.13858
#
# Static dielectric constant tensor:
#      x y z
#    x 3.708210 0.000000 0.000000 
#    y 0.000000 3.724460 0.000000 
#    z 0.000000 0.000000 4.652650 
# 
# 
# High freq. dielectric constant tensor:
#      x y z
#    x 1.798870 0.000000 0.000000 
#    y 0.000000 1.812320 0.000000 
#    z 0.000000 0.000000 1.816340 
# 
# From -- ./inp_files/11496.got.cif
#   From: 2010.03.12/outbox.cif.g09.slc.cpg/sg63_6_cif.got.tgz:11496.got - 2010.04.10 19:34:48.
