data_PCOD8260964
_publ_section_title
;
Structure prediction by ZEFSAII (Michael W. Deem and Ramdas Pophale) SiO2 
 PCOD8260964
Probable space group: C M C M
;
_chemical_formula_sum "Si O2"
_cell_formula_units_Z 96
_cell_length_a 19.312765
_cell_length_b 16.249660
_cell_length_c 15.445456
_cell_angle_alpha 90.000000
_cell_angle_beta 90.000000
_cell_angle_gamma 90.000000
_cell_volume 4847.183588
_symmetry_space_group_name_H-M "C M C M"
_symmetry_group_IT_number 63
_symmetry_cell_setting 'orthorhombic'
loop_
_space_group_symop_operation_xyz
x,y,z
-x,-y,1/2+z
x,-y,-z
-x,y,1/2-z
-x,-y,-z
x,y,1/2-z
-x,y,z
x,-y,1/2+z
1/2+x,1/2+y,z
1/2-x,1/2-y,1/2+z
1/2+x,1/2-y,-z
1/2-x,1/2+y,1/2-z
1/2-x,1/2-y,-z
1/2+x,1/2+y,1/2-z
1/2-x,1/2+y,z
1/2+x,1/2-y,1/2+z
loop_
_atom_site_type_symbol
_atom_site_label
_atom_site_fract_x
_atom_site_fract_y
_atom_site_fract_z
Si Si1 0.863779 0.844360 0.899240
Si Si2 0.921264 0.679968 0.652761
Si Si3 0.212322 0.681797 0.345854
Si Si4 0.578426 0.486284 0.150205
Si Si5 0.174046 0.407724 0.013816
Si Si6 0.183250 0.854406 0.417388
O O1 0.914007 0.778701 0.854494
O O2 0.791481 0.847913 0.848281
O O3 0.898457 0.934123 0.903860
O O4 0.851515 0.814840 0.997648
O O5 0.899765 0.653127 0.750000
O O6 0.874405 0.634814 0.583479
O O7 0.000000 0.655455 0.634283
O O8 0.182941 0.659735 0.250000
O O9 0.168297 0.637496 0.420825
O O10 0.209205 0.780353 0.357131
O O11 0.582973 0.511097 0.250000
O O12 0.500000 0.461666 0.124090
O O13 0.628508 0.409722 0.133457
O O14 0.251709 0.408946 0.051716
O O15 0.148200 0.500000 0.000000
#
# Coordination Sequence:
#
# PCOD8260964 Si02
#       6
#    16  16  16  16  16  16
#     4  11  20  38  61  88 121 160 207 256 307 366
#     4  11  23  39  62  90 119 157 205 257 314 369
#     4  11  21  38  64  93 123 162 209 257 308 368
#     4  11  24  38  56  90 131 170 210 251 306 376
#     4  11  23  41  63  91 123 156 207 260 313 369
#     4  11  21  39  61  89 124 164 206 253 303 373
#
# _framework density 19.805316000000001
#
# number of rings (size 3 to 8) (size 9 to 14) (size 15 to 20)
#    0.000    1.000    3.333    6.000    0.000    5.000 
#    0.000    0.000    0.000    0.500    0.000    0.000 
#    0.000    0.000    0.000    0.000    0.000    0.000 
#
# Total GULP energy -595342.710718 kJ/mol
# GULP energy per Si atom -12402.973140 kJ/mol
# Density = 1.976024 g / cm^3
# Si number density = 19.805316 Si / 1000 Ang^3
#
#
#
# Elastic Constant Matrix: (Units=GPa)
#
#
# Indices 1 2 3 4 5 6 
#
# 1 92.3564 34.6636 50.1284 0.0000 0.0000 0.0000
# 2 34.6636 102.5488 30.5468 0.0000 0.0000 0.0000
# 3 50.1284 30.5468 129.6081 0.0000 0.0000 0.0000
# 4 0.0000 0.0000 0.0000 24.4872 0.0000 0.0000
# 5 0.0000 0.0000 0.0000 0.0000 27.0318 0.0000
# 6 0.0000 0.0000 0.0000 0.0000 0.0000 28.0384
#
#
#
# Elastic Compliance Matrix: (Units=1/GPa)
#
#
# Indices 1 2 3 4 5 6 
#
# 1 0.014816 -0.003551 -0.004894 0.000000 0.000000 0.000000
# 2 -0.003551 0.011339 -0.001299 0.000000 0.000000 0.000000
# 3 -0.004894 -0.001299 0.009914 0.000000 0.000000 0.000000
# 4 0.000000 0.000000 0.000000 0.040838 0.000000 0.000000
# 5 0.000000 0.000000 0.000000 0.000000 0.036993 0.000000
# 6 0.000000 0.000000 0.000000 0.000000 0.000000 0.035665
#
#
# Mechanical properties :
#
#
# Convention : Reuss Voigt Hill
#
# Bulk Modulus (GPa) = 60.30360 61.68788 60.99574
# Shear Modulus (GPa) = 28.64016 29.85647 29.24831
#
# Velocity S-wave (km/s) = 3.80687 3.88686 3.84707
# Velocity P-wave (km/s) = 7.05955 7.16647 7.11321
#
# Compressibility (1/GPa) = 0.01658276
#
# Stress axis : x y z
#
# Youngs Moduli (GPa) = 67.49291 88.19444 100.86251
#
# Poissons Ratio (x) = 0.31314 0.49359
# Poissons Ratio (y) = 0.23963 0.13103
# Poissons Ratio (z) = 0.33029 0.11457
#
# Static dielectric constant tensor:
#      x y z
#    x 3.481650 0.000000 0.000000 
#    y 0.000000 3.469900 0.000000 
#    z 0.000000 0.000000 3.730490 
# 
# 
# High freq. dielectric constant tensor:
#      x y z
#    x 1.756770 0.000000 0.000000 
#    y 0.000000 1.766160 0.000000 
#    z 0.000000 0.000000 1.786950 
# 
# From -- ./inp_files/35336.got.cif
#   From: 2010.03.12/outbox.cif.g09.slc.cpg/sg63_18_cif.got.tgz:35336.got - 2010.04.10 19:34:48.
