data_PCOD8260648
_publ_section_title
;
Structure prediction by ZEFSAII (Michael W. Deem and Ramdas Pophale) SiO2 
 PCOD8260648
Probable space group: C M C M
;
_chemical_formula_sum "Si O2"
_cell_formula_units_Z 96
_cell_length_a 24.657093
_cell_length_b 9.161387
_cell_length_c 20.717357
_cell_angle_alpha 90.000000
_cell_angle_beta 90.000000
_cell_angle_gamma 90.000000
_cell_volume 4679.909473
_symmetry_space_group_name_H-M "C M C M"
_symmetry_group_IT_number 63
_symmetry_cell_setting 'orthorhombic'
loop_
_space_group_symop_operation_xyz
x,y,z
-x,-y,1/2+z
x,-y,-z
-x,y,1/2-z
-x,-y,-z
x,y,1/2-z
-x,y,z
x,-y,1/2+z
1/2+x,1/2+y,z
1/2-x,1/2-y,1/2+z
1/2+x,1/2-y,-z
1/2-x,1/2+y,1/2-z
1/2-x,1/2-y,-z
1/2+x,1/2+y,1/2-z
1/2-x,1/2+y,z
1/2+x,1/2-y,1/2+z
loop_
_atom_site_type_symbol
_atom_site_label
_atom_site_fract_x
_atom_site_fract_y
_atom_site_fract_z
Si Si1 0.937567 0.922110 0.433971
Si Si2 0.602933 0.900266 0.941684
Si Si3 0.783666 0.720532 0.061208
Si Si4 0.235560 0.980440 0.145304
Si Si5 0.642462 0.089267 0.823284
Si Si6 0.874203 0.078081 0.320007
O O1 0.932841 0.745689 0.435152
O O2 0.000000 0.963345 0.423639
O O3 0.916468 0.000000 0.500000
O O4 0.904766 0.984209 0.373430
O O5 0.662385 0.854932 0.964281
O O6 0.609870 0.984046 0.872868
O O7 0.578596 0.000000 0.000000
O O8 0.795320 0.868972 0.098252
O O9 0.747405 0.625298 0.107131
O O10 0.750000 0.750000 0.000000
O O11 0.291819 0.923865 0.175632
O O12 0.187524 0.023019 0.193971
O O13 0.624392 0.049634 0.750000
O O14 0.625779 0.253029 0.841890
O O15 0.903384 0.062281 0.250000
#
# Coordination Sequence:
#
# PCOD8260648 Si02
#       6
#    16  16  16  16  16  16
#     4  11  26  46  69  94 120 158 210 270 325 377
#     4  11  23  40  63  92 127 161 205 258 311 371
#     4  11  21  32  53  89 128 169 206 244 301 365
#     4  11  20  35  54  88 129 171 207 249 297 370
#     4  10  22  40  60  92 133 172 209 246 303 376
#     4  11  23  41  65  91 126 171 210 259 315 368
#
# _framework density 20.513217000000001
#
# number of rings (size 3 to 8) (size 9 to 14) (size 15 to 20)
#    0.000    1.167    3.333    4.000    2.333    1.333 
#    0.000    0.833    0.000    1.000    0.000    0.000 
#    0.000    0.000    0.000    0.000    0.000    0.000 
#
# Total GULP energy -594806.267822 kJ/mol
# GULP energy per Si atom -12391.797246 kJ/mol
# Density = 2.046653 g / cm^3
# Si number density = 20.513217 Si / 1000 Ang^3
#
#
#
# Elastic Constant Matrix: (Units=GPa)
#
#
# Indices 1 2 3 4 5 6 
#
# 1 58.3767 20.6195 34.9817 0.0000 0.0000 0.0000
# 2 20.6195 143.6611 56.2418 0.0000 0.0000 0.0000
# 3 34.9817 56.2418 116.5218 0.0000 0.0000 0.0000
# 4 0.0000 0.0000 0.0000 35.9449 0.0000 0.0000
# 5 0.0000 0.0000 0.0000 0.0000 12.8558 0.0000
# 6 0.0000 0.0000 0.0000 0.0000 0.0000 24.1264
#
#
#
# Elastic Compliance Matrix: (Units=1/GPa)
#
#
# Indices 1 2 3 4 5 6 
#
# 1 0.020940 -0.000671 -0.005963 0.000000 0.000000 0.000000
# 2 -0.000671 0.008604 -0.003951 0.000000 0.000000 0.000000
# 3 -0.005963 -0.003951 0.012279 0.000000 0.000000 0.000000
# 4 0.000000 0.000000 0.000000 0.027820 0.000000 0.000000
# 5 0.000000 0.000000 0.000000 0.000000 0.077786 0.000000
# 6 0.000000 0.000000 0.000000 0.000000 0.000000 0.041448
#
#
# Mechanical properties :
#
#
# Convention : Reuss Voigt Hill
#
# Bulk Modulus (GPa) = 48.41864 60.24949 54.33407
# Shear Modulus (GPa) = 23.04858 28.36655 25.70756
#
# Velocity S-wave (km/s) = 3.35565 3.72269 3.54392
# Velocity P-wave (km/s) = 6.21841 6.92190 6.57957
#
# Compressibility (1/GPa) = 0.02065320
#
# Stress axis : x y z
#
# Youngs Moduli (GPa) = 47.75490 116.22342 81.43715
#
# Poissons Ratio (x) = 0.07801 0.48558
# Poissons Ratio (y) = 0.03205 0.32179
# Poissons Ratio (z) = 0.28474 0.45925
#
# Static dielectric constant tensor:
#      x y z
#    x 3.420400 0.000000 0.000000 
#    y 0.000000 3.887220 0.000000 
#    z 0.000000 0.000000 3.539150 
# 
# 
# High freq. dielectric constant tensor:
#      x y z
#    x 1.773090 0.000000 0.000000 
#    y 0.000000 1.819730 0.000000 
#    z 0.000000 0.000000 1.810780 
# 
# From -- ./inp_files/58075.got.cif
#   From: 2010.03.12/outbox.cif.g09.slc.cpg/sg63_30_cif.got.tgz:58075.got - 2010.04.10 19:34:48.
