data_PCOD8260899
_publ_section_title
;
Structure prediction by ZEFSAII (Michael W. Deem and Ramdas Pophale) SiO2 
 PCOD8260899
Probable space group: C M C M
;
_chemical_formula_sum "Si O2"
_cell_formula_units_Z 112
_cell_length_a 28.057206
_cell_length_b 12.294372
_cell_length_c 18.644865
_cell_angle_alpha 90.000000
_cell_angle_beta 90.000000
_cell_angle_gamma 90.000000
_cell_volume 6431.466528
_symmetry_space_group_name_H-M "C M C M"
_symmetry_group_IT_number 63
_symmetry_cell_setting 'orthorhombic'
loop_
_space_group_symop_operation_xyz
x,y,z
-x,-y,1/2+z
x,-y,-z
-x,y,1/2-z
-x,-y,-z
x,y,1/2-z
-x,y,z
x,-y,1/2+z
1/2+x,1/2+y,z
1/2-x,1/2-y,1/2+z
1/2+x,1/2-y,-z
1/2-x,1/2+y,1/2-z
1/2-x,1/2-y,-z
1/2+x,1/2+y,1/2-z
1/2-x,1/2+y,z
1/2+x,1/2-y,1/2+z
loop_
_atom_site_type_symbol
_atom_site_label
_atom_site_fract_x
_atom_site_fract_y
_atom_site_fract_z
Si Si1 0.702307 0.491381 0.921191
Si Si2 0.676941 0.157918 0.832441
Si Si3 0.443988 0.503637 0.169297
Si Si4 0.712322 0.692085 0.668406
Si Si5 0.947258 0.118737 0.965556
Si Si6 0.709716 0.930153 0.667462
Si Si7 0.383809 0.668168 0.411637
O O1 0.688824 0.608531 0.887208
O O2 0.740095 0.431940 0.871992
O O3 0.655057 0.422298 0.928549
O O4 0.725186 0.500000 0.000000
O O5 0.661500 0.175097 0.750000
O O6 0.730745 0.199525 0.844781
O O7 0.639870 0.221138 0.882928
O O8 0.674763 0.029328 0.855118
O O9 0.428681 0.471522 0.250000
O O10 0.500000 0.526190 0.163272
O O11 0.429967 0.402239 0.116768
O O12 0.419030 0.617363 0.147702
O O13 0.702403 0.654221 0.750000
O O14 0.688005 0.810240 0.654017
O O15 0.000000 0.172603 0.966624
O O16 0.911462 0.192885 0.013141
O O17 0.949466 0.000000 0.000000
O O18 0.723171 0.947213 0.750000
#
# Coordination Sequence:
#
# PCOD8260899 Si02
#       7
#    16  16  16  16  16  16  16
#     4  11  21  29  44  69  94 120 157 200 239 281
#     4   9  17  28  46  67  85 114 156 200 236 275
#     4   9  17  28  44  66  93 124 155 189 230 284
#     4   9  18  34  50  63  87 125 165 200 241 283
#     4   8  15  28  43  60  93 130 150 177 232 293
#     4   9  18  35  49  60  85 122 164 201 240 279
#     4  11  18  28  43  68  97 122 153 189 238 290
#
# _framework density 17.414380000000001
#
# number of rings (size 3 to 8) (size 9 to 14) (size 15 to 20)
#    0.000    2.571    1.429    4.286    0.000    2.286 
#    0.000    0.000    0.000    0.000    0.000    0.000 
#    0.000    4.571    0.000   56.857    0.000   24.857 
#
# Total GULP energy -693949.932784 kJ/mol
# GULP energy per Si atom -12391.963085 kJ/mol
# Density = 1.737474 g / cm^3
# Si number density = 17.414380 Si / 1000 Ang^3
#
#
#
# Elastic Constant Matrix: (Units=GPa)
#
#
# Indices 1 2 3 4 5 6 
#
# 1 46.1008 17.6216 31.7623 0.0000 0.0000 0.0000
# 2 17.6216 100.3452 46.5543 0.0000 0.0000 0.0000
# 3 31.7623 46.5543 115.5767 0.0000 0.0000 0.0000
# 4 0.0000 0.0000 0.0000 18.8224 0.0000 0.0000
# 5 0.0000 0.0000 0.0000 0.0000 16.0714 0.0000
# 6 0.0000 0.0000 0.0000 0.0000 0.0000 2.8476
#
#
#
# Elastic Compliance Matrix: (Units=1/GPa)
#
#
# Indices 1 2 3 4 5 6 
#
# 1 0.026964 -0.001595 -0.006768 0.000000 0.000000 0.000000
# 2 -0.001595 0.012350 -0.004536 0.000000 0.000000 0.000000
# 3 -0.006768 -0.004536 0.012339 0.000000 0.000000 0.000000
# 4 0.000000 0.000000 0.000000 0.053128 0.000000 0.000000
# 5 0.000000 0.000000 0.000000 0.000000 0.062222 0.000000
# 6 0.000000 0.000000 0.000000 0.000000 0.000000 0.351175
#
#
# Mechanical properties :
#
#
# Convention : Reuss Voigt Hill
#
# Bulk Modulus (GPa) = 38.67680 50.43323 44.55502
# Shear Modulus (GPa) = 9.04820 18.62056 13.83438
#
# Velocity S-wave (km/s) = 2.28191 3.27351 2.82161
# Velocity P-wave (km/s) = 5.40377 6.58114 6.02130
#
# Compressibility (1/GPa) = 0.02585529
#
# Stress axis : x y z
#
# Youngs Moduli (GPa) = 37.08637 80.96945 81.04184
#
# Poissons Ratio (x) = 0.12918 0.54845
# Poissons Ratio (y) = 0.05917 0.36763
# Poissons Ratio (z) = 0.25098 0.36730
#
# Static dielectric constant tensor:
#      x y z
#    x 3.067500 0.000000 0.000000 
#    y 0.000000 3.277090 0.000000 
#    z 0.000000 0.000000 3.606960 
# 
# 
# High freq. dielectric constant tensor:
#      x y z
#    x 1.645060 0.000000 0.000000 
#    y 0.000000 1.640170 0.000000 
#    z 0.000000 0.000000 1.683000 
# 
# From -- ./inp_files/58324.got.cif
#   From: 2010.03.12/outbox.cif.g09.slc.cpg/sg63_30_cif.got.tgz:58324.got - 2010.04.10 19:34:48.
