data_PCOD8260666
_publ_section_title
;
Structure prediction by ZEFSAII (Michael W. Deem and Ramdas Pophale) SiO2 
 PCOD8260666
Probable space group: C M C M
;
_chemical_formula_sum "Si O2"
_cell_formula_units_Z 88
_cell_length_a 22.862857
_cell_length_b 13.583837
_cell_length_c 13.645113
_cell_angle_alpha 90.000000
_cell_angle_beta 90.000000
_cell_angle_gamma 90.000000
_cell_volume 4237.698924
_symmetry_space_group_name_H-M "C M C M"
_symmetry_group_IT_number 63
_symmetry_cell_setting 'orthorhombic'
loop_
_space_group_symop_operation_xyz
x,y,z
-x,-y,1/2+z
x,-y,-z
-x,y,1/2-z
-x,-y,-z
x,y,1/2-z
-x,y,z
x,-y,1/2+z
1/2+x,1/2+y,z
1/2-x,1/2-y,1/2+z
1/2+x,1/2-y,-z
1/2-x,1/2+y,1/2-z
1/2-x,1/2-y,-z
1/2+x,1/2+y,1/2-z
1/2-x,1/2+y,z
1/2+x,1/2-y,1/2+z
loop_
_atom_site_type_symbol
_atom_site_label
_atom_site_fract_x
_atom_site_fract_y
_atom_site_fract_z
Si Si1 0.347298 0.825613 0.361748
Si Si2 0.433169 0.830690 0.970994
Si Si3 0.722375 0.636336 0.136851
Si Si4 0.645323 0.500000 0.000000
Si Si5 0.656321 0.047958 0.362385
Si Si6 0.933304 0.130911 0.638605
O O1 0.368870 0.817353 0.250000
O O2 0.403291 0.797287 0.427261
O O3 0.293585 0.750822 0.381244
O O4 0.324523 0.935666 0.386334
O O5 0.500000 0.859974 0.992125
O O6 0.399907 0.925120 0.926930
O O7 0.428060 0.744014 0.892507
O O8 0.711066 0.605751 0.250000
O O9 0.790503 0.621185 0.110697
O O10 0.684138 0.569152 0.067220
O O11 0.605468 0.563748 0.929599
O O12 0.638037 0.058377 0.250000
O O13 0.910865 0.122272 0.750000
O O14 0.000000 0.094647 0.629507
#
# Coordination Sequence:
#
# PCOD8260666 Si02
#       6
#    16  16  16   8  16  16
#     4  10  22  42  63  91 130 162 204 257 308 371
#     4  11  23  41  65  92 122 163 214 258 309 369
#     4  10  23  41  62  94 129 163 205 255 309 372
#     4  12  21  38  66  94 123 168 210 254 312 380
#     4  10  23  41  64  92 125 166 206 252 313 370
#     4  10  22  40  62  92 128 164 210 263 309 364
#
# _framework density 20.765986000000002
#
# number of rings (size 3 to 8) (size 9 to 14) (size 15 to 20)
#    0.000    1.636    1.818    1.909    2.545    5.091 
#    0.000    5.455    0.000    0.000    0.000    0.000 
#    0.000    0.000    0.000    0.000    0.000    0.000 
#
# Total GULP energy -545742.026421 kJ/mol
# GULP energy per Si atom -12403.227873 kJ/mol
# Density = 2.071872 g / cm^3
# Si number density = 20.765986 Si / 1000 Ang^3
#
#
#
# Elastic Constant Matrix: (Units=GPa)
#
#
# Indices 1 2 3 4 5 6 
#
# 1 133.3469 59.0353 62.4625 0.0000 0.0000 0.0000
# 2 59.0353 106.0775 39.7334 0.0000 0.0000 0.0000
# 3 62.4625 39.7334 96.0035 0.0000 0.0000 0.0000
# 4 0.0000 0.0000 0.0000 37.7276 0.0000 0.0000
# 5 0.0000 0.0000 0.0000 0.0000 34.6523 0.0000
# 6 0.0000 0.0000 0.0000 0.0000 0.0000 37.9855
#
#
#
# Elastic Compliance Matrix: (Units=1/GPa)
#
#
# Indices 1 2 3 4 5 6 
#
# 1 0.012434 -0.004603 -0.006185 0.000000 0.000000 0.000000
# 2 -0.004603 0.012861 -0.002328 0.000000 0.000000 0.000000
# 3 -0.006185 -0.002328 0.015404 0.000000 0.000000 0.000000
# 4 0.000000 0.000000 0.000000 0.026506 0.000000 0.000000
# 5 0.000000 0.000000 0.000000 0.000000 0.028858 0.000000
# 6 0.000000 0.000000 0.000000 0.000000 0.000000 0.026326
#
#
# Mechanical properties :
#
#
# Convention : Reuss Voigt Hill
#
# Bulk Modulus (GPa) = 69.12296 73.09891 71.11093
# Shear Modulus (GPa) = 32.58535 33.68620 33.13577
#
# Velocity S-wave (km/s) = 3.96557 4.03200 3.99892
# Velocity P-wave (km/s) = 7.37066 7.54677 7.45923
#
# Compressibility (1/GPa) = 0.01446697
#
# Stress axis : x y z
#
# Youngs Moduli (GPa) = 80.42189 77.75514 64.91930
#
# Poissons Ratio (x) = 0.35794 0.40152
# Poissons Ratio (y) = 0.37022 0.15111
# Poissons Ratio (z) = 0.49740 0.18099
#
# Static dielectric constant tensor:
#      x y z
#    x 3.684220 0.000000 0.000000 
#    y 0.000000 3.783280 0.000000 
#    z 0.000000 0.000000 4.050770 
# 
# 
# High freq. dielectric constant tensor:
#      x y z
#    x 1.803000 0.000000 0.000000 
#    y 0.000000 1.815790 0.000000 
#    z 0.000000 0.000000 1.835770 
# 
# From -- ./inp_files/36586.got.cif
#   From: 2010.03.12/outbox.cif.g09.slc.cpg/sg63_19_cif.got.tgz:36586.got - 2010.04.10 19:34:48.
