data_PCOD8260592
_publ_section_title
;
Structure prediction by ZEFSAII (Michael W. Deem and Ramdas Pophale) SiO2 
 PCOD8260592
Probable space group: C M C M
;
_chemical_formula_sum "Si O2"
_cell_formula_units_Z 48
_cell_length_a 9.963282
_cell_length_b 28.204124
_cell_length_c 8.564187
_cell_angle_alpha 90.000000
_cell_angle_beta 90.000000
_cell_angle_gamma 90.000000
_cell_volume 2406.584857
_symmetry_space_group_name_H-M "C M C M"
_symmetry_group_IT_number 63
_symmetry_cell_setting 'orthorhombic'
loop_
_space_group_symop_operation_xyz
x,y,z
-x,-y,1/2+z
x,-y,-z
-x,y,1/2-z
-x,-y,-z
x,y,1/2-z
-x,y,z
x,-y,1/2+z
1/2+x,1/2+y,z
1/2-x,1/2-y,1/2+z
1/2+x,1/2-y,-z
1/2-x,1/2+y,1/2-z
1/2-x,1/2-y,-z
1/2+x,1/2+y,1/2-z
1/2-x,1/2+y,z
1/2+x,1/2-y,1/2+z
loop_
_atom_site_type_symbol
_atom_site_label
_atom_site_fract_x
_atom_site_fract_y
_atom_site_fract_z
Si Si1 0.251307 0.610048 0.064377
Si Si2 0.156381 0.291345 0.435338
Si Si3 0.500000 0.051418 0.066773
Si Si4 0.000000 0.053267 0.565824
O O1 0.266328 0.612677 0.250000
O O2 0.127795 0.579116 0.005180
O O3 0.229456 0.662112 0.998195
O O4 0.376253 0.583941 0.990783
O O5 0.159380 0.290650 0.250000
O O6 0.250000 0.250000 0.500000
O O7 0.000000 0.287469 0.493412
O O8 0.500000 0.048222 0.250000
O O9 0.500000 0.000000 0.000000
O O10 0.000000 0.048600 0.750000
O O11 0.000000 0.000000 0.500000
#
# Coordination Sequence:
#
# PCOD8260592 Si02
#       4
#    16  16   8   8
#     4  11  23  43  67  95 130 171 216 269 325 385
#     4  11  25  44  68  98 131 172 218 268 326 390
#     4  10  22  38  63  94 125 164 208 259 317 377
#     4  12  26  44  65  96 133 176 222 269 323 387
#
# _framework density 19.945276
#
# number of rings (size 3 to 8) (size 9 to 14) (size 15 to 20)
#    0.000    1.000    1.667    4.500    2.333    7.333 
#    0.000    0.000    0.000    0.000    0.000    0.000 
#    0.000    0.000    0.000    0.000    0.000    0.000 
#
# Total GULP energy -297575.672991 kJ/mol
# GULP energy per Si atom -12398.986375 kJ/mol
# Density = 1.989988 g / cm^3
# Si number density = 19.945276 Si / 1000 Ang^3
#
#
#
# Elastic Constant Matrix: (Units=GPa)
#
#
# Indices 1 2 3 4 5 6 
#
# 1 199.2481 114.6598 67.1446 0.0000 0.0000 0.0000
# 2 114.6598 220.0087 61.3764 0.0000 0.0000 0.0000
# 3 67.1446 61.3764 97.4938 0.0000 0.0000 0.0000
# 4 0.0000 0.0000 0.0000 44.8274 0.0000 0.0000
# 5 0.0000 0.0000 0.0000 0.0000 39.8367 0.0000
# 6 0.0000 0.0000 0.0000 0.0000 0.0000 47.1442
#
#
#
# Elastic Compliance Matrix: (Units=1/GPa)
#
#
# Indices 1 2 3 4 5 6 
#
# 1 0.008057 -0.003216 -0.003525 0.000000 0.000000 0.000000
# 2 -0.003216 0.006797 -0.002064 0.000000 0.000000 0.000000
# 3 -0.003525 -0.002064 0.013984 0.000000 0.000000 0.000000
# 4 0.000000 0.000000 0.000000 0.022308 0.000000 0.000000
# 5 0.000000 0.000000 0.000000 0.000000 0.025102 0.000000
# 6 0.000000 0.000000 0.000000 0.000000 0.000000 0.021211
#
#
# Mechanical properties :
#
#
# Convention : Reuss Voigt Hill
#
# Bulk Modulus (GPa) = 89.05544 111.45692 100.25618
# Shear Modulus (GPa) = 42.08313 44.59965 43.34139
#
# Velocity S-wave (km/s) = 4.59838 4.73387 4.66662
# Velocity P-wave (km/s) = 8.54051 9.26726 8.91130
#
# Compressibility (1/GPa) = 0.01122896
#
# Stress axis : x y z
#
# Youngs Moduli (GPa) = 124.11255 147.12095 71.51026
#
# Poissons Ratio (x) = 0.47312 0.25204
# Poissons Ratio (y) = 0.39913 0.14762
# Poissons Ratio (z) = 0.43744 0.30370
#
# Static dielectric constant tensor:
#      x y z
#    x 3.995650 0.000000 0.000000 
#    y 0.000000 3.911200 0.000000 
#    z 0.000000 0.000000 3.763490 
# 
# 
# High freq. dielectric constant tensor:
#      x y z
#    x 1.800210 0.000000 0.000000 
#    y 0.000000 1.800720 0.000000 
#    z 0.000000 0.000000 1.788870 
# 
# From -- ./inp_files/1997.got.cif
#   From: 2010.03.12/outbox.cif.g09.slc.cpg/sg63_1_cif.got.tgz:1997.got - 2010.04.10 19:34:48.
