data_PCOD8260070
_publ_section_title
;
Structure prediction by ZEFSAII (Michael W. Deem and Ramdas Pophale) SiO2 
 PCOD8260070
Probable space group: C M C M
;
_chemical_formula_sum "Si O2"
_cell_formula_units_Z 88
_cell_length_a 18.080435
_cell_length_b 14.716623
_cell_length_c 18.112976
_cell_angle_alpha 90.000000
_cell_angle_beta 90.000000
_cell_angle_gamma 90.000000
_cell_volume 4819.554007
_symmetry_space_group_name_H-M "C M C M"
_symmetry_group_IT_number 63
_symmetry_cell_setting 'orthorhombic'
loop_
_space_group_symop_operation_xyz
x,y,z
-x,-y,1/2+z
x,-y,-z
-x,y,1/2-z
-x,-y,-z
x,y,1/2-z
-x,y,z
x,-y,1/2+z
1/2+x,1/2+y,z
1/2-x,1/2-y,1/2+z
1/2+x,1/2-y,-z
1/2-x,1/2+y,1/2-z
1/2-x,1/2-y,-z
1/2+x,1/2+y,1/2-z
1/2-x,1/2+y,z
1/2+x,1/2-y,1/2+z
loop_
_atom_site_type_symbol
_atom_site_label
_atom_site_fract_x
_atom_site_fract_y
_atom_site_fract_z
Si Si1 0.702327 0.078804 0.408062
Si Si2 0.160239 0.599689 0.834995
Si Si3 0.169480 0.000000 0.000000
Si Si4 0.415656 0.331231 0.059904
Si Si5 0.416009 0.148692 0.978772
Si Si6 0.295926 0.730777 0.835471
O O1 0.641577 0.088826 0.473451
O O2 0.724274 0.173725 0.371999
O O3 0.672299 0.007853 0.347341
O O4 0.779393 0.041313 0.437034
O O5 0.135469 0.615633 0.750000
O O6 0.097745 0.635026 0.891415
O O7 0.234117 0.656007 0.854300
O O8 0.115702 0.924616 0.031104
O O9 0.500000 0.344519 0.082545
O O10 0.374182 0.302708 0.134301
O O11 0.405170 0.254727 0.997072
O O12 0.500000 0.118060 0.997678
O O13 0.305103 0.746954 0.750000
#
# Coordination Sequence:
#
# PCOD8260070 Si02
#       6
#    16  16   8  16  16  16
#     4  11  20  35  58  85 107 149 188 235 275 330
#     4  11  21  35  54  82 111 145 185 228 283 332
#     4  12  19  34  59  86 114 138 188 244 279 332
#     4  10  21  36  58  84 112 149 189 231 283 334
#     4  10  21  38  56  79 113 149 186 228 277 335
#     4  10  21  37  56  80 115 150 188 231 275 333
#
# _framework density 18.258949999999999
#
# number of rings (size 3 to 8) (size 9 to 14) (size 15 to 20)
#    0.000    1.455    3.636    1.909    0.000    5.091 
#    0.000    0.000    0.000    3.273    0.000    2.545 
#    0.000    0.000    0.000    0.000    0.000    0.000 
#
# Total GULP energy -545646.410740 kJ/mol
# GULP energy per Si atom -12401.054790 kJ/mol
# Density = 1.821739 g / cm^3
# Si number density = 18.258950 Si / 1000 Ang^3
#
#
#
# Elastic Constant Matrix: (Units=GPa)
#
#
# Indices 1 2 3 4 5 6 
#
# 1 65.8834 33.5638 20.7466 0.0000 0.0000 0.0000
# 2 33.5638 104.3195 34.5705 0.0000 0.0000 0.0000
# 3 20.7466 34.5705 90.1182 0.0000 0.0000 0.0000
# 4 0.0000 0.0000 0.0000 23.1759 0.0000 0.0000
# 5 0.0000 0.0000 0.0000 0.0000 12.4790 0.0000
# 6 0.0000 0.0000 0.0000 0.0000 0.0000 30.3676
#
#
#
# Elastic Compliance Matrix: (Units=1/GPa)
#
#
# Indices 1 2 3 4 5 6 
#
# 1 0.018550 -0.005216 -0.002270 0.000000 0.000000 0.000000
# 2 -0.005216 0.012449 -0.003575 0.000000 0.000000 0.000000
# 3 -0.002270 -0.003575 0.012990 0.000000 0.000000 0.000000
# 4 0.000000 0.000000 0.000000 0.043148 0.000000 0.000000
# 5 0.000000 0.000000 0.000000 0.000000 0.080135 0.000000
# 6 0.000000 0.000000 0.000000 0.000000 0.000000 0.032930
#
#
# Mechanical properties :
#
#
# Convention : Reuss Voigt Hill
#
# Bulk Modulus (GPa) = 45.72782 48.67588 47.20185
# Shear Modulus (GPa) = 21.77578 24.63383 23.20480
#
# Velocity S-wave (km/s) = 3.45716 3.67705 3.56880
# Velocity P-wave (km/s) = 6.40581 6.68910 6.54899
#
# Compressibility (1/GPa) = 0.02186853
#
# Stress axis : x y z
#
# Youngs Moduli (GPa) = 53.90711 80.32875 76.98039
#
# Poissons Ratio (x) = 0.41902 0.17471
# Poissons Ratio (y) = 0.28120 0.27518
# Poissons Ratio (z) = 0.12235 0.28715
#
# Static dielectric constant tensor:
#      x y z
#    x 3.396700 0.000000 0.000000 
#    y 0.000000 3.610020 0.000000 
#    z 0.000000 0.000000 3.311710 
# 
# 
# High freq. dielectric constant tensor:
#      x y z
#    x 1.704340 0.000000 0.000000 
#    y 0.000000 1.727260 0.000000 
#    z 0.000000 0.000000 1.700480 
# 
# From -- ./inp_files/45552.got.cif
#   From: 2010.03.12/outbox.cif.g09.slc.cpg/sg63_23_cif.got.tgz:45552.got - 2010.04.10 19:34:48.
