data_PCOD8260542
_publ_section_title
;
Structure prediction by ZEFSAII (Michael W. Deem and Ramdas Pophale) SiO2 
 PCOD8260542
Probable space group: C M C M
;
_chemical_formula_sum "Si O2"
_cell_formula_units_Z 56
_cell_length_a 11.048812
_cell_length_b 17.703312
_cell_length_c 14.630612
_cell_angle_alpha 90.000000
_cell_angle_beta 90.000000
_cell_angle_gamma 90.000000
_cell_volume 2861.755989
_symmetry_space_group_name_H-M "C M C M"
_symmetry_group_IT_number 63
_symmetry_cell_setting 'orthorhombic'
loop_
_space_group_symop_operation_xyz
x,y,z
-x,-y,1/2+z
x,-y,-z
-x,y,1/2-z
-x,-y,-z
x,y,1/2-z
-x,y,z
x,-y,1/2+z
1/2+x,1/2+y,z
1/2-x,1/2-y,1/2+z
1/2+x,1/2-y,-z
1/2-x,1/2+y,1/2-z
1/2-x,1/2-y,-z
1/2+x,1/2+y,1/2-z
1/2-x,1/2+y,z
1/2+x,1/2-y,1/2+z
loop_
_atom_site_type_symbol
_atom_site_label
_atom_site_fract_x
_atom_site_fract_y
_atom_site_fract_z
Si Si1 0.711507 0.478219 0.750000
Si Si2 0.000000 0.873421 0.052379
Si Si3 0.141126 0.665197 0.250000
Si Si4 0.141178 0.632735 0.750000
Si Si5 0.224605 0.222747 0.602335
Si Si6 0.500000 0.541689 0.387290
O O1 0.824561 0.422154 0.750000
O O2 0.769005 0.561362 0.750000
O O3 0.626363 0.460526 0.834953
O O4 0.115019 0.836002 0.099149
O O5 0.000000 0.962719 0.061227
O O6 0.000000 0.876607 0.941203
O O7 0.190757 0.703254 0.341579
O O8 0.000000 0.672900 0.250000
O O9 0.166721 0.680862 0.842991
O O10 0.000000 0.609380 0.750000
O O11 0.250000 0.250000 0.500000
#
# Coordination Sequence:
#
# PCOD8260542 Si02
#       6
#     8   8   8   8  16   8
#     4  11  21  42  60  92 129 165 212 262 318 375
#     4  11  20  40  66  94 121 160 218 260 321 383
#     4  11  23  40  64  92 125 171 212 258 318 387
#     4  11  25  42  64  92 129 171 216 268 326 383
#     4  11  24  42  66  92 132 168 211 265 327 388
#     4  10  22  36  68  94 122 160 213 269 310 379
#
# _framework density 19.568404000000001
#
# number of rings (size 3 to 8) (size 9 to 14) (size 15 to 20)
#    0.000    1.143    4.286    2.143    2.000    0.000 
#   10.286    0.000    0.000    5.143    0.000    0.000 
#    0.000    0.000    0.000    0.000    0.000    0.000 
#
# Total GULP energy -346883.635537 kJ/mol
# GULP energy per Si atom -12388.701269 kJ/mol
# Density = 1.952387 g / cm^3
# Si number density = 19.568404 Si / 1000 Ang^3
#
#
#
# Elastic Constant Matrix: (Units=GPa)
#
#
# Indices 1 2 3 4 5 6 
#
# 1 92.6884 14.1353 31.6432 0.0000 0.0000 0.0000
# 2 14.1353 83.3325 35.3615 0.0000 0.0000 0.0000
# 3 31.6432 35.3615 129.5954 0.0000 0.0000 0.0000
# 4 0.0000 0.0000 0.0000 34.0770 0.0000 0.0000
# 5 0.0000 0.0000 0.0000 0.0000 27.0310 0.0000
# 6 0.0000 0.0000 0.0000 0.0000 0.0000 36.3518
#
#
#
# Elastic Compliance Matrix: (Units=1/GPa)
#
#
# Indices 1 2 3 4 5 6 
#
# 1 0.011827 -0.000883 -0.002647 0.000000 0.000000 0.000000
# 2 -0.000883 0.013637 -0.003506 0.000000 0.000000 0.000000
# 3 -0.002647 -0.003506 0.009319 0.000000 0.000000 0.000000
# 4 0.000000 0.000000 0.000000 0.029345 0.000000 0.000000
# 5 0.000000 0.000000 0.000000 0.000000 0.036995 0.000000
# 6 0.000000 0.000000 0.000000 0.000000 0.000000 0.027509
#
#
# Mechanical properties :
#
#
# Convention : Reuss Voigt Hill
#
# Bulk Modulus (GPa) = 48.27910 51.98847 50.13378
# Shear Modulus (GPa) = 33.42075 34.45704 33.93889
#
# Velocity S-wave (km/s) = 4.13715 4.20080 4.16910
# Velocity P-wave (km/s) = 6.89542 7.08196 6.98932
#
# Compressibility (1/GPa) = 0.02071290
#
# Stress axis : x y z
#
# Youngs Moduli (GPa) = 84.55144 73.32752 107.30608
#
# Poissons Ratio (x) = 0.06475 0.28403
# Poissons Ratio (y) = 0.07466 0.37616
# Poissons Ratio (z) = 0.22380 0.25705
#
# Static dielectric constant tensor:
#      x y z
#    x 3.448840 0.000000 0.000000 
#    y 0.000000 3.574440 0.000000 
#    z 0.000000 0.000000 9.896440 
# 
# 
# High freq. dielectric constant tensor:
#      x y z
#    x 1.760750 0.000000 0.000000 
#    y 0.000000 1.771170 0.000000 
#    z 0.000000 0.000000 1.774680 
# 
# From -- ./inp_files/28802.got.cif
#   From: 2010.03.12/outbox.cif.g09.slc.cpg/sg63_15_cif.got.tgz:28802.got - 2010.04.10 19:34:48.
