data_PCOD8260812
_publ_section_title
;
Structure prediction by ZEFSAII (Michael W. Deem and Ramdas Pophale) SiO2 
 PCOD8260812
Probable space group: C M C M
;
_chemical_formula_sum "Si O2"
_cell_formula_units_Z 88
_cell_length_a 10.258719
_cell_length_b 14.903311
_cell_length_c 28.889611
_cell_angle_alpha 90.000000
_cell_angle_beta 90.000000
_cell_angle_gamma 90.000000
_cell_volume 4416.900261
_symmetry_space_group_name_H-M "C M C M"
_symmetry_group_IT_number 63
_symmetry_cell_setting 'orthorhombic'
loop_
_space_group_symop_operation_xyz
x,y,z
-x,-y,1/2+z
x,-y,-z
-x,y,1/2-z
-x,-y,-z
x,y,1/2-z
-x,y,z
x,-y,1/2+z
1/2+x,1/2+y,z
1/2-x,1/2-y,1/2+z
1/2+x,1/2-y,-z
1/2-x,1/2+y,1/2-z
1/2-x,1/2-y,-z
1/2+x,1/2+y,1/2-z
1/2-x,1/2+y,z
1/2+x,1/2-y,1/2+z
loop_
_atom_site_type_symbol
_atom_site_label
_atom_site_fract_x
_atom_site_fract_y
_atom_site_fract_z
Si Si1 0.357386 0.853936 0.348071
Si Si2 0.738862 0.787224 0.589898
Si Si3 0.851719 0.285905 0.250000
Si Si4 0.500000 0.489297 0.115631
Si Si5 0.845536 0.622017 0.250000
Si Si6 0.770566 0.456725 0.847881
Si Si7 0.000000 0.186235 0.943277
Si Si8 0.500000 0.353467 0.953552
O O1 0.500000 0.815223 0.359826
O O2 0.253763 0.791339 0.372769
O O3 0.329869 0.850347 0.293484
O O4 0.351536 0.956804 0.364574
O O5 0.695804 0.876644 0.617004
O O6 0.623469 0.753169 0.557127
O O7 0.870557 0.799399 0.560847
O O8 0.742813 0.209930 0.250000
O O9 0.000000 0.244968 0.250000
O O10 0.619916 0.514670 0.148685
O O11 0.500000 0.385735 0.098877
O O12 0.500000 0.548831 0.069275
O O13 0.809023 0.566297 0.204413
O O14 0.000000 0.645453 0.250000
O O15 0.000000 0.132860 0.991451
#
# Coordination Sequence:
#
# PCOD8260812 Si02
#       8
#    16  16   8   8   8  16   8   8
#     4  11  21  40  63  87 128 166 213 250 310 376
#     4  11  23  39  67  93 125 167 208 260 319 385
#     4  10  23  39  64  91 119 175 216 254 298 377
#     4  10  23  41  68  94 123 170 217 262 317 381
#     4  12  25  39  64  93 135 169 208 264 308 363
#     4  11  24  41  63  95 128 171 214 253 317 371
#     4  12  23  42  66  97 125 160 213 277 323 368
#     4  10  23  44  64  93 128 168 206 260 333 395
#
# _framework density 19.923473999999999
#
# number of rings (size 3 to 8) (size 9 to 14) (size 15 to 20)
#    0.000    1.091    4.545    1.909    3.818    0.727 
#    1.636    0.000    0.000    1.091    0.000    0.000 
#    0.000    0.000    0.000    0.000    0.000    0.000 
#
# Total GULP energy -545544.018741 kJ/mol
# GULP energy per Si atom -12398.727699 kJ/mol
# Density = 1.987813 g / cm^3
# Si number density = 19.923474 Si / 1000 Ang^3
#
#
#
# Elastic Constant Matrix: (Units=GPa)
#
#
# Indices 1 2 3 4 5 6 
#
# 1 122.6824 35.4189 35.6623 0.0000 0.0000 0.0000
# 2 35.4189 118.5920 22.5694 0.0000 0.0000 0.0000
# 3 35.6623 22.5694 77.9313 0.0000 0.0000 0.0000
# 4 0.0000 0.0000 0.0000 16.0452 0.0000 0.0000
# 5 0.0000 0.0000 0.0000 0.0000 18.5397 0.0000
# 6 0.0000 0.0000 0.0000 0.0000 0.0000 32.2823
#
#
#
# Elastic Compliance Matrix: (Units=1/GPa)
#
#
# Indices 1 2 3 4 5 6 
#
# 1 0.009926 -0.002223 -0.003899 0.000000 0.000000 0.000000
# 2 -0.002223 0.009422 -0.001712 0.000000 0.000000 0.000000
# 3 -0.003899 -0.001712 0.015112 0.000000 0.000000 0.000000
# 4 0.000000 0.000000 0.000000 0.062324 0.000000 0.000000
# 5 0.000000 0.000000 0.000000 0.000000 0.053938 0.000000
# 6 0.000000 0.000000 0.000000 0.000000 0.000000 0.030977
#
#
# Mechanical properties :
#
#
# Convention : Reuss Voigt Hill
#
# Bulk Modulus (GPa) = 53.20860 56.27852 54.74356
# Shear Modulus (GPa) = 24.55453 28.41045 26.48249
#
# Velocity S-wave (km/s) = 3.51442 3.78031 3.64979
# Velocity P-wave (km/s) = 6.57516 6.88208 6.73037
#
# Compressibility (1/GPa) = 0.01879395
#
# Stress axis : x y z
#
# Youngs Moduli (GPa) = 100.74470 106.13682 66.17458
#
# Poissons Ratio (x) = 0.23590 0.25799
# Poissons Ratio (y) = 0.22391 0.11326
# Poissons Ratio (z) = 0.39276 0.18166
#
# Static dielectric constant tensor:
#      x y z
#    x 3.741140 0.000000 0.000000 
#    y 0.000000 3.599140 0.000000 
#    z 0.000000 0.000000 3.507350 
# 
# 
# High freq. dielectric constant tensor:
#      x y z
#    x 1.787080 0.000000 0.000000 
#    y 0.000000 1.783410 0.000000 
#    z 0.000000 0.000000 1.766960 
# 
# From -- ./inp_files/68246.got.cif
#   From: 2010.03.12/outbox.cif.g09.slc.cpg/sg63_35_cif.got.tgz:68246.got - 2010.04.10 19:34:48.
