data_PCOD8260188
_publ_section_title
;
Structure prediction by ZEFSAII (Michael W. Deem and Ramdas Pophale) SiO2 
 PCOD8260188
Probable space group: C M C M
;
_chemical_formula_sum "Si O2"
_cell_formula_units_Z 104
_cell_length_a 21.164065
_cell_length_b 27.184061
_cell_length_c 9.104977
_cell_angle_alpha 90.000000
_cell_angle_beta 90.000000
_cell_angle_gamma 90.000000
_cell_volume 5238.323023
_symmetry_space_group_name_H-M "C M C M"
_symmetry_group_IT_number 63
_symmetry_cell_setting 'orthorhombic'
loop_
_space_group_symop_operation_xyz
x,y,z
-x,-y,1/2+z
x,-y,-z
-x,y,1/2-z
-x,-y,-z
x,y,1/2-z
-x,y,z
x,-y,1/2+z
1/2+x,1/2+y,z
1/2-x,1/2-y,1/2+z
1/2+x,1/2-y,-z
1/2-x,1/2+y,1/2-z
1/2-x,1/2-y,-z
1/2+x,1/2+y,1/2-z
1/2-x,1/2+y,z
1/2+x,1/2-y,1/2+z
loop_
_atom_site_type_symbol
_atom_site_label
_atom_site_fract_x
_atom_site_fract_y
_atom_site_fract_z
Si Si1 0.000000 0.948527 0.422707
Si Si2 0.572973 0.288114 0.418967
Si Si3 0.899396 0.886306 0.581295
Si Si4 0.834979 0.613248 0.076372
Si Si5 0.574464 0.951238 0.416849
Si Si6 0.780627 0.049268 0.083183
Si Si7 0.192511 0.722516 0.420631
O O1 0.061054 0.919289 0.471348
O O2 0.000000 0.956331 0.250000
O O3 0.000000 0.000000 0.500000
O O4 0.578345 0.306068 0.250000
O O5 0.500000 0.271818 0.451283
O O6 0.594415 0.330567 0.529489
O O7 0.622589 0.244575 0.450475
O O8 0.922973 0.890492 0.750000
O O9 0.828563 0.905426 0.564714
O O10 0.846912 0.614528 0.250000
O O11 0.785307 0.571318 0.027987
O O12 0.811030 0.666468 0.022302
O O13 0.898952 0.597886 0.994106
O O14 0.598519 0.954612 0.250000
O O15 0.500000 0.946555 0.425561
O O16 0.598459 0.000000 0.500000
O O17 0.776293 0.032443 0.250000
O O18 0.801287 0.000000 0.000000
O O19 0.209425 0.724625 0.250000
O O20 0.250000 0.750000 0.500000
#
# Coordination Sequence:
#
# PCOD8260188 Si02
#       7
#     8  16  16  16  16  16  16
#     4  12  24  38  56  82 116 152 194 242 287 340
#     4  10  21  38  60  87 118 154 198 248 301 359
#     4  11  22  38  59  84 114 152 196 240 294 349
#     4  10  21  38  59  85 117 154 195 241 293 352
#     4  10  21  37  58  86 119 154 193 238 290 353
#     4  10  22  37  55  82 115 150 192 239 287 346
#     4  10  22  40  62  88 119 157 201 250 305 360
#
# _framework density 19.853681999999999
#
# number of rings (size 3 to 8) (size 9 to 14) (size 15 to 20)
#    0.000    1.692    0.769    3.462    0.000    8.308 
#    0.000    1.538    0.000    0.000    0.000    0.000 
#    0.000    0.000    0.000    0.000    0.000    0.000 
#
# Total GULP energy -644789.459260 kJ/mol
# GULP energy per Si atom -12399.797293 kJ/mol
# Density = 1.980849 g / cm^3
# Si number density = 19.853682 Si / 1000 Ang^3
#
#
#
# Elastic Constant Matrix: (Units=GPa)
#
#
# Indices 1 2 3 4 5 6 
#
# 1 87.5673 51.7840 43.0115 0.0000 0.0000 0.0000
# 2 51.7840 117.7265 56.4161 0.0000 0.0000 0.0000
# 3 43.0115 56.4161 100.5715 0.0000 0.0000 0.0000
# 4 0.0000 0.0000 0.0000 33.7460 0.0000 0.0000
# 5 0.0000 0.0000 0.0000 0.0000 40.7252 0.0000
# 6 0.0000 0.0000 0.0000 0.0000 0.0000 33.0271
#
#
#
# Elastic Compliance Matrix: (Units=1/GPa)
#
#
# Indices 1 2 3 4 5 6 
#
# 1 0.016587 -0.005329 -0.004104 0.000000 0.000000 0.000000
# 2 -0.005329 0.013329 -0.005198 0.000000 0.000000 0.000000
# 3 -0.004104 -0.005198 0.014614 0.000000 0.000000 0.000000
# 4 0.000000 0.000000 0.000000 0.029633 0.000000 0.000000
# 5 0.000000 0.000000 0.000000 0.000000 0.024555 0.000000
# 6 0.000000 0.000000 0.000000 0.000000 0.000000 0.030278
#
#
# Mechanical properties :
#
#
# Convention : Reuss Voigt Hill
#
# Bulk Modulus (GPa) = 65.49805 67.58761 66.54283
# Shear Modulus (GPa) = 30.60913 31.80992 31.20952
#
# Velocity S-wave (km/s) = 3.93075 4.00711 3.96912
# Velocity P-wave (km/s) = 7.32551 7.45158 7.38881
#
# Compressibility (1/GPa) = 0.01526763
#
# Stress axis : x y z
#
# Youngs Moduli (GPa) = 60.28683 75.02205 68.42588
#
# Poissons Ratio (x) = 0.39982 0.28085
# Poissons Ratio (y) = 0.32129 0.35568
# Poissons Ratio (z) = 0.24744 0.38996
#
# Static dielectric constant tensor:
#      x y z
#    x 3.746790 0.000000 0.000000 
#    y 0.000000 2.496160 0.000000 
#    z 0.000000 0.000000 3.634920 
# 
# 
# High freq. dielectric constant tensor:
#      x y z
#    x 1.785070 0.000000 0.000000 
#    y 0.000000 1.774970 0.000000 
#    z 0.000000 0.000000 1.772640 
# 
# From -- ./inp_files/8802.got.cif
#   From: 2010.03.12/outbox.cif.g09.slc.cpg/sg63_5_cif.got.tgz:8802.got - 2010.04.10 19:34:48.
