data_PCOD8260190
_publ_section_title
;
Structure prediction by ZEFSAII (Michael W. Deem and Ramdas Pophale) SiO2 
 PCOD8260190
Probable space group: C M C M
;
_chemical_formula_sum "Si O2"
_cell_formula_units_Z 72
_cell_length_a 21.898497
_cell_length_b 17.487453
_cell_length_c 8.985498
_cell_angle_alpha 90.000000
_cell_angle_beta 90.000000
_cell_angle_gamma 90.000000
_cell_volume 3440.986908
_symmetry_space_group_name_H-M "C M C M"
_symmetry_group_IT_number 63
_symmetry_cell_setting 'orthorhombic'
loop_
_space_group_symop_operation_xyz
x,y,z
-x,-y,1/2+z
x,-y,-z
-x,y,1/2-z
-x,-y,-z
x,y,1/2-z
-x,y,z
x,-y,1/2+z
1/2+x,1/2+y,z
1/2-x,1/2-y,1/2+z
1/2+x,1/2-y,-z
1/2-x,1/2+y,1/2-z
1/2-x,1/2-y,-z
1/2+x,1/2+y,1/2-z
1/2-x,1/2+y,z
1/2+x,1/2-y,1/2+z
loop_
_atom_site_type_symbol
_atom_site_label
_atom_site_fract_x
_atom_site_fract_y
_atom_site_fract_z
Si Si1 0.000000 0.583758 0.927995
Si Si2 0.617938 0.848510 0.921241
Si Si3 0.932185 0.927224 0.921138
Si Si4 0.258430 0.923149 0.580220
Si Si5 0.336367 0.299946 0.922647
O O1 0.000000 0.576193 0.750000
O O2 0.000000 0.500000 0.000000
O O3 0.059734 0.630487 0.978472
O O4 0.597066 0.838826 0.750000
O O5 0.668571 0.914997 0.935671
O O6 0.653078 0.773480 0.976164
O O7 0.934211 0.948132 0.750000
O O8 0.895619 0.850718 0.950763
O O9 0.000000 0.913389 0.986096
O O10 0.900852 0.000000 0.000000
O O11 0.237581 0.932526 0.750000
O O12 0.222796 0.847742 0.519647
O O13 0.236927 0.000000 0.500000
O O14 0.329487 0.275536 0.750000
#
# Coordination Sequence:
#
# PCOD8260190 Si02
#       5
#     8  16  16  16  16
#     4  12  26  46  70  94 123 160 203 254 310 370
#     4  11  24  41  62  92 125 160 207 258 309 368
#     4   9  18  32  51  77 111 152 200 247 293 351
#     4  10  22  39  61  89 123 162 207 257 308 366
#     4  10  21  37  58  87 123 162 204 250 305 362
#
# _framework density 20.924229
#
# number of rings (size 3 to 8) (size 9 to 14) (size 15 to 20)
#    0.000    1.778    0.000    3.667    1.556    5.333 
#    0.000    0.000    0.000    0.000    0.000    0.000 
#    0.000    0.000    0.000    0.000    0.000    0.000 
#
# Total GULP energy -446376.200108 kJ/mol
# GULP energy per Si atom -12399.338892 kJ/mol
# Density = 2.087660 g / cm^3
# Si number density = 20.924229 Si / 1000 Ang^3
#
#
#
# Elastic Constant Matrix: (Units=GPa)
#
#
# Indices 1 2 3 4 5 6 
#
# 1 108.5221 30.3658 42.4616 0.0000 0.0000 0.0000
# 2 30.3658 103.2556 52.1173 0.0000 0.0000 0.0000
# 3 42.4616 52.1173 97.9537 0.0000 0.0000 0.0000
# 4 0.0000 0.0000 0.0000 39.3554 0.0000 0.0000
# 5 0.0000 0.0000 0.0000 0.0000 43.1908 0.0000
# 6 0.0000 0.0000 0.0000 0.0000 0.0000 50.3397
#
#
#
# Elastic Compliance Matrix: (Units=1/GPa)
#
#
# Indices 1 2 3 4 5 6 
#
# 1 0.011196 -0.001152 -0.004240 0.000000 0.000000 0.000000
# 2 -0.001152 0.013359 -0.006608 0.000000 0.000000 0.000000
# 3 -0.004240 -0.006608 0.015563 0.000000 0.000000 0.000000
# 4 0.000000 0.000000 0.000000 0.025409 0.000000 0.000000
# 5 0.000000 0.000000 0.000000 0.000000 0.023153 0.000000
# 6 0.000000 0.000000 0.000000 0.000000 0.000000 0.019865
#
#
# Mechanical properties :
#
#
# Convention : Reuss Voigt Hill
#
# Bulk Modulus (GPa) = 62.04850 62.18009 62.11430
# Shear Modulus (GPa) = 36.25288 38.89629 37.57459
#
# Velocity S-wave (km/s) = 4.16694 4.31619 4.24222
# Velocity P-wave (km/s) = 7.27114 7.39057 7.33110
#
# Compressibility (1/GPa) = 0.01611642
#
# Stress axis : x y z
#
# Youngs Moduli (GPa) = 89.31544 74.85545 64.25489
#
# Poissons Ratio (x) = 0.08626 0.27246
# Poissons Ratio (y) = 0.10293 0.42461
# Poissons Ratio (z) = 0.37872 0.49467
#
# Static dielectric constant tensor:
#      x y z
#    x 4.401820 0.000000 0.000000 
#    y 0.000000 3.684100 0.000000 
#    z 0.000000 0.000000 3.671110 
# 
# 
# High freq. dielectric constant tensor:
#      x y z
#    x 1.836530 0.000000 0.000000 
#    y 0.000000 1.820320 0.000000 
#    z 0.000000 0.000000 1.810410 
# 
# From -- ./inp_files/11756.got.cif
#   From: 2010.03.12/outbox.cif.g09.slc.cpg/sg63_6_cif.got.tgz:11756.got - 2010.04.10 19:34:48.
