data_PCOD8260389
_publ_section_title
;
Structure prediction by ZEFSAII (Michael W. Deem and Ramdas Pophale) SiO2 
 PCOD8260389
Probable space group: C M C M
;
_chemical_formula_sum "Si O2"
_cell_formula_units_Z 88
_cell_length_a 21.901057
_cell_length_b 18.790055
_cell_length_c 10.648973
_cell_angle_alpha 90.000000
_cell_angle_beta 90.000000
_cell_angle_gamma 90.000000
_cell_volume 4382.287365
_symmetry_space_group_name_H-M "C M C M"
_symmetry_group_IT_number 63
_symmetry_cell_setting 'orthorhombic'
loop_
_space_group_symop_operation_xyz
x,y,z
-x,-y,1/2+z
x,-y,-z
-x,y,1/2-z
-x,-y,-z
x,y,1/2-z
-x,y,z
x,-y,1/2+z
1/2+x,1/2+y,z
1/2-x,1/2-y,1/2+z
1/2+x,1/2-y,-z
1/2-x,1/2+y,1/2-z
1/2-x,1/2-y,-z
1/2+x,1/2+y,1/2-z
1/2-x,1/2+y,z
1/2+x,1/2-y,1/2+z
loop_
_atom_site_type_symbol
_atom_site_label
_atom_site_fract_x
_atom_site_fract_y
_atom_site_fract_z
Si Si1 0.370069 0.482755 0.250000
Si Si2 0.364298 0.686567 0.011700
Si Si3 0.667153 0.828956 0.111974
Si Si4 0.570102 0.343295 0.250000
Si Si5 0.928896 0.863587 0.750000
Si Si6 0.929307 0.444969 0.107249
Si Si7 0.223640 0.928983 0.051104
O O1 0.427971 0.429209 0.250000
O O2 0.393604 0.562196 0.250000
O O3 0.327904 0.466258 0.366923
O O4 0.329473 0.762766 0.016556
O O5 0.413514 0.680692 0.123747
O O6 0.395320 0.684344 0.874538
O O7 0.314182 0.624744 0.038167
O O8 0.661727 0.795483 0.250000
O O9 0.606951 0.873247 0.078428
O O10 0.725556 0.880656 0.115440
O O11 0.500000 0.317324 0.250000
O O12 0.000000 0.879817 0.750000
O O13 0.915241 0.473174 0.250000
O O14 0.000000 0.425942 0.092982
O O15 0.908918 0.500000 0.000000
O O16 0.257848 0.000000 0.000000
#
# Coordination Sequence:
#
# PCOD8260389 Si02
#       7
#     8  16  16   8   8  16  16
#     4  10  21  39  60  91 128 164 213 267 310 371
#     4  11  24  42  61  94 130 163 213 265 312 378
#     4  11  22  39  63  93 123 165 210 255 321 381
#     4  10  23  42  62  86 127 173 210 255 322 383
#     4  12  23  39  68  99 128 167 215 264 314 374
#     4   9  19  37  60  87 120 155 200 258 309 367
#     4  11  21  39  64  89 128 169 206 263 319 372
#
# _framework density 20.080838
#
# number of rings (size 3 to 8) (size 9 to 14) (size 15 to 20)
#    0.000    1.455    3.636    1.909    0.000    1.455 
#    1.636    3.636    0.000    0.000    0.000    0.000 
#    0.000    0.000    0.000    0.000    0.000    0.000 
#
# Total GULP energy -545146.435294 kJ/mol
# GULP energy per Si atom -12389.691711 kJ/mol
# Density = 2.003513 g / cm^3
# Si number density = 20.080838 Si / 1000 Ang^3
#
#
#
# Elastic Constant Matrix: (Units=GPa)
#
#
# Indices 1 2 3 4 5 6 
#
# 1 84.7152 47.1044 31.7359 0.0000 0.0000 0.0000
# 2 47.1044 134.3159 55.4802 0.0000 0.0000 0.0000
# 3 31.7359 55.4802 112.4938 0.0000 0.0000 0.0000
# 4 0.0000 0.0000 0.0000 32.0380 0.0000 0.0000
# 5 0.0000 0.0000 0.0000 0.0000 27.8139 0.0000
# 6 0.0000 0.0000 0.0000 0.0000 0.0000 23.5936
#
#
#
# Elastic Compliance Matrix: (Units=1/GPa)
#
#
# Indices 1 2 3 4 5 6 
#
# 1 0.015035 -0.004421 -0.002061 0.000000 0.000000 0.000000
# 2 -0.004421 0.010650 -0.004005 0.000000 0.000000 0.000000
# 3 -0.002061 -0.004005 0.011446 0.000000 0.000000 0.000000
# 4 0.000000 0.000000 0.000000 0.031213 0.000000 0.000000
# 5 0.000000 0.000000 0.000000 0.000000 0.035953 0.000000
# 6 0.000000 0.000000 0.000000 0.000000 0.000000 0.042384
#
#
# Mechanical properties :
#
#
# Convention : Reuss Voigt Hill
#
# Bulk Modulus (GPa) = 61.89653 66.68512 64.29083
# Shear Modulus (GPa) = 28.89479 29.83606 29.36542
#
# Velocity S-wave (km/s) = 3.79743 3.85879 3.82823
# Velocity P-wave (km/s) = 7.07940 7.28931 7.18512
#
# Compressibility (1/GPa) = 0.01615599
#
# Stress axis : x y z
#
# Youngs Moduli (GPa) = 66.51251 93.89621 87.36638
#
# Poissons Ratio (x) = 0.41515 0.18006
# Poissons Ratio (y) = 0.29408 0.34991
# Poissons Ratio (z) = 0.13708 0.37606
#
# Static dielectric constant tensor:
#      x y z
#    x 3.600550 0.000000 0.000000 
#    y 0.000000 3.748980 0.000000 
#    z 0.000000 0.000000 3.741220 
# 
# 
# High freq. dielectric constant tensor:
#      x y z
#    x 1.786520 0.000000 0.000000 
#    y 0.000000 1.787310 0.000000 
#    z 0.000000 0.000000 1.780430 
# 
# From -- ./inp_files/22601.got.cif
#   From: 2010.03.12/outbox.cif.g09.slc.cpg/sg63_12_cif.got.tgz:22601.got - 2010.04.10 19:34:48.
