data_PCOD8260930
_publ_section_title
;
Structure prediction by ZEFSAII (Michael W. Deem and Ramdas Pophale) SiO2 
 PCOD8260930
Probable space group: C M C M
;
_chemical_formula_sum "Si O2"
_cell_formula_units_Z 72
_cell_length_a 22.980301
_cell_length_b 23.120039
_cell_length_c 8.850389
_cell_angle_alpha 90.000000
_cell_angle_beta 90.000000
_cell_angle_gamma 90.000000
_cell_volume 4702.259958
_symmetry_space_group_name_H-M "C M C M"
_symmetry_group_IT_number 63
_symmetry_cell_setting 'orthorhombic'
loop_
_space_group_symop_operation_xyz
x,y,z
-x,-y,1/2+z
x,-y,-z
-x,y,1/2-z
-x,-y,-z
x,y,1/2-z
-x,y,z
x,-y,1/2+z
1/2+x,1/2+y,z
1/2-x,1/2-y,1/2+z
1/2+x,1/2-y,-z
1/2-x,1/2+y,1/2-z
1/2-x,1/2-y,-z
1/2+x,1/2+y,1/2-z
1/2-x,1/2+y,z
1/2+x,1/2-y,1/2+z
loop_
_atom_site_type_symbol
_atom_site_label
_atom_site_fract_x
_atom_site_fract_y
_atom_site_fract_z
Si Si1 0.818227 0.804875 0.417828
Si Si2 0.435831 0.261763 0.425253
Si Si3 0.291244 0.169500 0.081527
Si Si4 0.405537 0.143063 0.572001
Si Si5 0.500000 0.937095 0.929955
O O1 0.810026 0.829858 0.250000
O O2 0.886249 0.809165 0.469884
O O3 0.774852 0.841225 0.523925
O O4 0.803528 0.737293 0.422372
O O5 0.425992 0.243033 0.250000
O O6 0.500000 0.289282 0.448085
O O7 0.430814 0.205485 0.528739
O O8 0.295990 0.144349 0.250000
O O9 0.337927 0.136959 0.976235
O O10 0.411399 0.133796 0.750000
O O11 0.442047 0.094774 0.485749
O O12 0.500000 0.939882 0.750000
O O13 0.500000 0.000000 0.000000
#
# Coordination Sequence:
#
# PCOD8260930 Si02
#       5
#    16  16  16  16   8
#     4   8  14  23  35  54  76  99 128 162 196 230
#     4   9  16  26  40  56  78 107 135 165 200 237
#     4   9  16  26  39  54  73  99 126 159 199 235
#     4  11  20  30  44  61  76  97 128 163 202 243
#     4  12  24  38  50  62  80 100 128 166 208 250
#
# _framework density 15.311787000000001
#
# number of rings (size 3 to 8) (size 9 to 14) (size 15 to 20)
#    0.000    2.444    1.111    5.000    0.000    5.333 
#    0.000    0.000    0.000    0.000    0.000    0.000 
#    0.000    0.000    0.000    0.000    0.000    1.111 
#
# Total GULP energy -446145.109383 kJ/mol
# GULP energy per Si atom -12392.919705 kJ/mol
# Density = 1.527694 g / cm^3
# Si number density = 15.311787 Si / 1000 Ang^3
#
#
#
# Elastic Constant Matrix: (Units=GPa)
#
#
# Indices 1 2 3 4 5 6 
#
# 1 157.6405 26.4616 51.1909 0.0000 0.0000 0.0000
# 2 26.4616 22.9572 20.2281 0.0000 0.0000 0.0000
# 3 51.1909 20.2281 109.1213 0.0000 0.0000 0.0000
# 4 0.0000 0.0000 0.0000 13.8488 0.0000 0.0000
# 5 0.0000 0.0000 0.0000 0.0000 26.6965 0.0000
# 6 0.0000 0.0000 0.0000 0.0000 0.0000 7.5674
#
#
#
# Elastic Compliance Matrix: (Units=1/GPa)
#
#
# Indices 1 2 3 4 5 6 
#
# 1 0.008430 -0.007449 -0.002574 0.000000 0.000000 0.000000
# 2 -0.007449 0.058645 -0.007377 0.000000 0.000000 0.000000
# 3 -0.002574 -0.007377 0.011739 0.000000 0.000000 0.000000
# 4 0.000000 0.000000 0.000000 0.072209 0.000000 0.000000
# 5 0.000000 0.000000 0.000000 0.000000 0.037458 0.000000
# 6 0.000000 0.000000 0.000000 0.000000 0.000000 0.132145
#
#
# Mechanical properties :
#
#
# Convention : Reuss Voigt Hill
#
# Bulk Modulus (GPa) = 22.71952 53.94225 38.33088
# Shear Modulus (GPa) = 13.51003 22.41177 17.96090
#
# Velocity S-wave (km/s) = 2.97362 3.82998 3.42864
# Velocity P-wave (km/s) = 5.16334 7.40702 6.38451
#
# Compressibility (1/GPa) = 0.04401502
#
# Stress axis : x y z
#
# Youngs Moduli (GPa) = 118.62867 17.05180 85.18640
#
# Poissons Ratio (x) = 0.12701 0.21925
# Poissons Ratio (y) = 0.88363 0.62840
# Poissons Ratio (z) = 0.30532 0.12579
#
# Static dielectric constant tensor:
#      x y z
#    x 3.509170 0.000000 0.000000 
#    y 0.000000 2.354060 0.000000 
#    z 0.000000 0.000000 3.077410 
# 
# 
# High freq. dielectric constant tensor:
#      x y z
#    x 1.611290 0.000000 0.000000 
#    y 0.000000 1.490250 0.000000 
#    z 0.000000 0.000000 1.598480 
# 
# From -- ./inp_files/10017.got.cif
#   From: 2010.03.12/outbox.cif.g09.slc.cpg/sg63_6_cif.got.tgz:10017.got - 2010.04.10 19:34:48.
