data_PCOD8260607
_publ_section_title
;
Structure prediction by ZEFSAII (Michael W. Deem and Ramdas Pophale) SiO2 
 PCOD8260607
Probable space group: C M C M
;
_chemical_formula_sum "Si O2"
_cell_formula_units_Z 120
_cell_length_a 27.311014
_cell_length_b 24.334955
_cell_length_c 9.060246
_cell_angle_alpha 90.000000
_cell_angle_beta 90.000000
_cell_angle_gamma 90.000000
_cell_volume 6021.550903
_symmetry_space_group_name_H-M "C M C M"
_symmetry_group_IT_number 63
_symmetry_cell_setting 'orthorhombic'
loop_
_space_group_symop_operation_xyz
x,y,z
-x,-y,1/2+z
x,-y,-z
-x,y,1/2-z
-x,-y,-z
x,y,1/2-z
-x,y,z
x,-y,1/2+z
1/2+x,1/2+y,z
1/2-x,1/2-y,1/2+z
1/2+x,1/2-y,-z
1/2-x,1/2+y,1/2-z
1/2-x,1/2-y,-z
1/2+x,1/2+y,1/2-z
1/2-x,1/2+y,z
1/2+x,1/2-y,1/2+z
loop_
_atom_site_type_symbol
_atom_site_label
_atom_site_fract_x
_atom_site_fract_y
_atom_site_fract_z
Si Si1 0.444065 0.853682 0.919902
Si Si2 0.908682 0.131461 0.422459
Si Si3 0.883734 0.554522 0.579699
Si Si4 0.500000 0.557896 0.077592
Si Si5 0.391960 0.258305 0.078595
Si Si6 0.182104 0.943896 0.577221
Si Si7 0.722109 0.904384 0.418691
Si Si8 0.705236 0.221154 0.576947
O O1 0.435788 0.869762 0.750000
O O2 0.500000 0.862460 0.967883
O O3 0.430706 0.790253 0.947122
O O4 0.409797 0.891714 0.017819
O O5 0.912156 0.146425 0.250000
O O6 0.951851 0.090872 0.470863
O O7 0.915826 0.186006 0.518461
O O8 0.856799 0.103404 0.461045
O O9 0.903552 0.500000 0.500000
O O10 0.897525 0.550048 0.750000
O O11 0.825528 0.558409 0.555671
O O12 0.500000 0.546603 0.250000
O O13 0.500000 0.500000 0.000000
O O14 0.378285 0.264838 0.250000
O O15 0.343550 0.247038 0.986659
O O16 0.184587 0.955437 0.750000
O O17 0.235458 0.925457 0.524423
O O18 0.165370 0.000000 0.500000
O O19 0.740514 0.907970 0.250000
O O20 0.707112 0.842884 0.460904
O O21 0.706934 0.232947 0.750000
O O22 0.750000 0.250000 0.500000
#
# Coordination Sequence:
#
# PCOD8260607 Si02
#       8
#    16  16  16   8  16  16  16  16
#     4  10  23  43  65  91 124 161 204 255 308 367
#     4  10  23  41  61  89 123 162 206 255 310 373
#     4  11  23  41  64  92 122 159 203 251 305 366
#     4  10  22  42  66  92 124 164 211 262 319 374
#     4  11  23  39  63  93 125 162 204 252 307 364
#     4  11  23  38  59  86 119 158 202 251 304 362
#     4  10  22  39  59  86 120 158 202 246 298 361
#     4  11  22  38  60  89 126 164 205 250 299 362
#
# _framework density 19.928419999999999
#
# number of rings (size 3 to 8) (size 9 to 14) (size 15 to 20)
#    0.000    1.467    1.333    3.200    0.933    8.000 
#    0.000    0.000    0.000    0.000    0.000    0.000 
#    0.000    0.000    0.000    0.000    0.000    0.000 
#
# Total GULP energy -744367.927987 kJ/mol
# GULP energy per Si atom -12406.132133 kJ/mol
# Density = 1.988306 g / cm^3
# Si number density = 19.928420 Si / 1000 Ang^3
#
#
#
# Elastic Constant Matrix: (Units=GPa)
#
#
# Indices 1 2 3 4 5 6 
#
# 1 87.6153 29.8943 42.0070 0.0000 0.0000 0.0000
# 2 29.8943 131.2266 66.4423 0.0000 0.0000 0.0000
# 3 42.0070 66.4423 104.4043 0.0000 0.0000 0.0000
# 4 0.0000 0.0000 0.0000 40.4630 0.0000 0.0000
# 5 0.0000 0.0000 0.0000 0.0000 25.9693 0.0000
# 6 0.0000 0.0000 0.0000 0.0000 0.0000 27.9162
#
#
#
# Elastic Compliance Matrix: (Units=1/GPa)
#
#
# Indices 1 2 3 4 5 6 
#
# 1 0.014164 -0.000503 -0.005379 0.000000 0.000000 0.000000
# 2 -0.000503 0.011261 -0.006964 0.000000 0.000000 0.000000
# 3 -0.005379 -0.006964 0.016174 0.000000 0.000000 0.000000
# 4 0.000000 0.000000 0.000000 0.024714 0.000000 0.000000
# 5 0.000000 0.000000 0.000000 0.000000 0.038507 0.000000
# 6 0.000000 0.000000 0.000000 0.000000 0.000000 0.035821
#
#
# Mechanical properties :
#
#
# Convention : Reuss Voigt Hill
#
# Bulk Modulus (GPa) = 62.86401 66.65925 64.76163
# Shear Modulus (GPa) = 29.13149 31.19655 30.16402
#
# Velocity S-wave (km/s) = 3.82751 3.96084 3.89475
# Velocity P-wave (km/s) = 7.15167 7.37832 7.26588
#
# Compressibility (1/GPa) = 0.01590735
#
# Stress axis : x y z
#
# Youngs Moduli (GPa) = 70.60148 88.80185 61.82771
#
# Poissons Ratio (x) = 0.04470 0.33254
# Poissons Ratio (y) = 0.03554 0.43056
# Poissons Ratio (z) = 0.37973 0.61841
#
# Static dielectric constant tensor:
#      x y z
#    x 3.593670 0.000000 0.000000 
#    y 0.000000 3.717100 0.000000 
#    z 0.000000 0.000000 3.648820 
# 
# 
# High freq. dielectric constant tensor:
#      x y z
#    x 1.782630 0.000000 0.000000 
#    y 0.000000 1.791590 0.000000 
#    z 0.000000 0.000000 1.781870 
# 
# From -- ./inp_files/13173.got.cif
#   From: 2010.03.12/outbox.cif.g09.slc.cpg/sg63_7_cif.got.tgz:13173.got - 2010.04.10 19:34:48.
