data_PCOD8260280
_publ_section_title
;
Structure prediction by ZEFSAII (Michael W. Deem and Ramdas Pophale) SiO2 
 PCOD8260280
Probable space group: C M C M
;
_chemical_formula_sum "Si O2"
_cell_formula_units_Z 96
_cell_length_a 11.472327
_cell_length_b 17.425469
_cell_length_c 24.199635
_cell_angle_alpha 90.000000
_cell_angle_beta 90.000000
_cell_angle_gamma 90.000000
_cell_volume 4837.765452
_symmetry_space_group_name_H-M "C M C M"
_symmetry_group_IT_number 63
_symmetry_cell_setting 'orthorhombic'
loop_
_space_group_symop_operation_xyz
x,y,z
-x,-y,1/2+z
x,-y,-z
-x,y,1/2-z
-x,-y,-z
x,y,1/2-z
-x,y,z
x,-y,1/2+z
1/2+x,1/2+y,z
1/2-x,1/2-y,1/2+z
1/2+x,1/2-y,-z
1/2-x,1/2+y,1/2-z
1/2-x,1/2-y,-z
1/2+x,1/2+y,1/2-z
1/2-x,1/2+y,z
1/2+x,1/2-y,1/2+z
loop_
_atom_site_type_symbol
_atom_site_label
_atom_site_fract_x
_atom_site_fract_y
_atom_site_fract_z
Si Si1 0.292534 0.603347 0.812848
Si Si2 0.863426 0.694800 0.005461
Si Si3 0.500000 0.704592 0.685797
Si Si4 0.867299 0.069910 0.310212
Si Si5 0.865521 0.426905 0.410026
Si Si6 0.306896 0.910011 0.604944
Si Si7 0.500000 0.883955 0.685966
O O1 0.253886 0.622987 0.750000
O O2 0.383059 0.665673 0.838027
O O3 0.354011 0.521171 0.816255
O O4 0.180822 0.607964 0.852550
O O5 0.852756 0.656284 0.065410
O O6 0.000000 0.728135 0.001197
O O7 0.750000 0.750000 0.000000
O O8 0.842800 0.631616 0.959243
O O9 0.500000 0.684508 0.750000
O O10 0.500000 0.793774 0.673019
O O11 0.815078 0.095976 0.250000
O O12 0.813320 0.112203 0.364158
O O13 0.000000 0.094029 0.311639
O O14 0.801473 0.507395 0.425693
O O15 0.000000 0.445071 0.402825
O O16 0.388878 0.922703 0.658214
O O17 0.500000 0.904139 0.750000
#
# Coordination Sequence:
#
# PCOD8260280 Si02
#       7
#    16  16   8  16  16  16   8
#     4   9  17  31  55  85 117 154 193 237 296 359
#     4  11  25  44  65  87 118 162 208 256 311 368
#     4   9  18  32  52  79 117 156 190 238 290 350
#     4   9  17  32  56  86 119 154 191 239 302 366
#     4  10  21  38  59  87 118 156 196 246 304 361
#     4  11  21  38  60  86 116 157 197 251 299 364
#     4  11  22  34  57  91 120 151 197 247 297 356
#
# _framework density 19.843872999999999
#
# number of rings (size 3 to 8) (size 9 to 14) (size 15 to 20)
#    0.000    2.000    2.500    1.000    2.333    3.000 
#    0.000    0.000    0.000    3.000    0.000    0.000 
#    0.000    0.000    0.000    0.000    0.000    0.000 
#
# Total GULP energy -594674.863547 kJ/mol
# GULP energy per Si atom -12389.059657 kJ/mol
# Density = 1.979871 g / cm^3
# Si number density = 19.843873 Si / 1000 Ang^3
#
#
#
# Elastic Constant Matrix: (Units=GPa)
#
#
# Indices 1 2 3 4 5 6 
#
# 1 96.6493 24.0114 47.4685 0.0000 0.0000 0.0000
# 2 24.0114 46.2249 21.8097 0.0000 0.0000 0.0000
# 3 47.4685 21.8097 104.4601 0.0000 0.0000 0.0000
# 4 0.0000 0.0000 0.0000 20.8651 0.0000 0.0000
# 5 0.0000 0.0000 0.0000 0.0000 33.0209 0.0000
# 6 0.0000 0.0000 0.0000 0.0000 0.0000 25.9845
#
#
#
# Elastic Compliance Matrix: (Units=1/GPa)
#
#
# Indices 1 2 3 4 5 6 
#
# 1 0.014223 -0.004813 -0.005458 0.000000 0.000000 0.000000
# 2 -0.004813 0.025626 -0.003163 0.000000 0.000000 0.000000
# 3 -0.005458 -0.003163 0.012714 0.000000 0.000000 0.000000
# 4 0.000000 0.000000 0.000000 0.047927 0.000000 0.000000
# 5 0.000000 0.000000 0.000000 0.000000 0.030284 0.000000
# 6 0.000000 0.000000 0.000000 0.000000 0.000000 0.038485
#
#
# Mechanical properties :
#
#
# Convention : Reuss Voigt Hill
#
# Bulk Modulus (GPa) = 38.91971 48.21261 43.56616
# Shear Modulus (GPa) = 24.42694 26.24374 25.33534
#
# Velocity S-wave (km/s) = 3.51230 3.64058 3.57702
# Velocity P-wave (km/s) = 6.00865 6.48232 6.24998
#
# Compressibility (1/GPa) = 0.02569392
#
# Stress axis : x y z
#
# Youngs Moduli (GPa) = 70.30738 39.02304 78.65419
#
# Poissons Ratio (x) = 0.18781 0.42933
# Poissons Ratio (y) = 0.33838 0.24880
# Poissons Ratio (z) = 0.38377 0.12344
#
# Static dielectric constant tensor:
#      x y z
#    x 3.811190 0.000000 0.000000 
#    y 0.000000 3.389870 0.000000 
#    z 0.000000 0.000000 3.727110 
# 
# 
# High freq. dielectric constant tensor:
#      x y z
#    x 1.774650 0.000000 0.000000 
#    y 0.000000 1.750570 0.000000 
#    z 0.000000 0.000000 1.778420 
# 
# From -- ./inp_files/61532.got.cif
#   From: 2010.03.12/outbox.cif.g09.slc.cpg/sg63_31_cif.got.tgz:61532.got - 2010.04.10 19:34:48.
