data_PCOD8260388
_publ_section_title
;
Structure prediction by ZEFSAII (Michael W. Deem and Ramdas Pophale) SiO2 
 PCOD8260388
Probable space group: C M C M
;
_chemical_formula_sum "Si O2"
_cell_formula_units_Z 88
_cell_length_a 7.685344
_cell_length_b 33.007620
_cell_length_c 17.537060
_cell_angle_alpha 90.000000
_cell_angle_beta 90.000000
_cell_angle_gamma 90.000000
_cell_volume 4448.712193
_symmetry_space_group_name_H-M "C M C M"
_symmetry_group_IT_number 63
_symmetry_cell_setting 'orthorhombic'
loop_
_space_group_symop_operation_xyz
x,y,z
-x,-y,1/2+z
x,-y,-z
-x,y,1/2-z
-x,-y,-z
x,y,1/2-z
-x,y,z
x,-y,1/2+z
1/2+x,1/2+y,z
1/2-x,1/2-y,1/2+z
1/2+x,1/2-y,-z
1/2-x,1/2+y,1/2-z
1/2-x,1/2-y,-z
1/2+x,1/2+y,1/2-z
1/2-x,1/2+y,z
1/2+x,1/2-y,1/2+z
loop_
_atom_site_type_symbol
_atom_site_label
_atom_site_fract_x
_atom_site_fract_y
_atom_site_fract_z
Si Si1 0.000000 0.770228 0.658793
Si Si2 0.195828 0.936265 0.102484
Si Si3 0.193511 0.178999 0.048385
Si Si4 0.302989 0.982750 0.834920
Si Si5 0.296948 0.588220 0.064986
Si Si6 0.500000 0.886333 0.334656
Si Si7 0.000000 0.691687 0.563069
O O1 0.172057 0.792692 0.623854
O O2 0.000000 0.724016 0.631040
O O3 0.000000 0.772491 0.750000
O O4 0.326352 0.913396 0.159060
O O5 0.000000 0.919457 0.114665
O O6 0.194327 0.984460 0.117066
O O7 0.260935 0.928160 0.017156
O O8 0.261992 0.134861 0.073996
O O9 0.000000 0.174969 0.009255
O O10 0.328673 0.198325 0.988826
O O11 0.224725 0.979925 0.750000
O O12 0.500000 0.998162 0.832519
O O13 0.298355 0.938340 0.871729
O O14 0.500000 0.583125 0.078478
O O15 0.500000 0.867192 0.250000
O O16 0.500000 0.852205 0.399153
#
# Coordination Sequence:
#
# PCOD8260388 Si02
#       7
#     8  16  16  16  16   8   8
#     4  10  23  44  68 100 137 165 208 269 321 381
#     4  11  23  41  62  87 123 165 217 260 318 380
#     4   9  22  40  67  95 127 165 212 258 317 382
#     4  11  24  37  55  87 126 166 216 269 318 368
#     4  10  21  39  60  89 115 160 217 258 309 378
#     4  12  25  38  62  95 129 164 206 268 322 376
#     4  12  21  42  72  96 126 174 213 256 320 396
#
# _framework density 19.781006000000001
#
# number of rings (size 3 to 8) (size 9 to 14) (size 15 to 20)
#    0.545    0.909    2.727    2.455    2.545    5.455 
#    0.000    0.455    0.000    1.091    0.000    0.000 
#    0.000    0.000    0.000    0.000    0.000    0.000 
#
# Total GULP energy -545559.680002 kJ/mol
# GULP energy per Si atom -12399.083636 kJ/mol
# Density = 1.973598 g / cm^3
# Si number density = 19.781006 Si / 1000 Ang^3
#
#
#
# Elastic Constant Matrix: (Units=GPa)
#
#
# Indices 1 2 3 4 5 6 
#
# 1 82.4268 22.6698 38.2310 0.0000 0.0000 0.0000
# 2 22.6698 106.3704 50.9546 0.0000 0.0000 0.0000
# 3 38.2310 50.9546 117.3802 0.0000 0.0000 0.0000
# 4 0.0000 0.0000 0.0000 31.7517 0.0000 0.0000
# 5 0.0000 0.0000 0.0000 0.0000 13.7582 0.0000
# 6 0.0000 0.0000 0.0000 0.0000 0.0000 20.7048
#
#
#
# Elastic Compliance Matrix: (Units=1/GPa)
#
#
# Indices 1 2 3 4 5 6 
#
# 1 0.014381 -0.001037 -0.004234 0.000000 0.000000 0.000000
# 2 -0.001037 0.011944 -0.004847 0.000000 0.000000 0.000000
# 3 -0.004234 -0.004847 0.012002 0.000000 0.000000 0.000000
# 4 0.000000 0.000000 0.000000 0.031494 0.000000 0.000000
# 5 0.000000 0.000000 0.000000 0.000000 0.072684 0.000000
# 6 0.000000 0.000000 0.000000 0.000000 0.000000 0.048298
#
#
# Mechanical properties :
#
#
# Convention : Reuss Voigt Hill
#
# Bulk Modulus (GPa) = 55.27377 58.87647 57.07512
# Shear Modulus (GPa) = 23.03404 26.19772 24.61588
#
# Velocity S-wave (km/s) = 3.41611 3.64316 3.53146
# Velocity P-wave (km/s) = 6.60025 6.89388 6.74866
#
# Compressibility (1/GPa) = 0.01809176
#
# Stress axis : x y z
#
# Youngs Moduli (GPa) = 69.53696 83.72392 83.31629
#
# Poissons Ratio (x) = 0.08680 0.35275
# Poissons Ratio (y) = 0.07209 0.40385
# Poissons Ratio (z) = 0.29441 0.40583
#
# Static dielectric constant tensor:
#      x y z
#    x 3.503050 0.000000 0.000000 
#    y 0.000000 3.554910 0.000000 
#    z 0.000000 0.000000 3.439470 
# 
# 
# High freq. dielectric constant tensor:
#      x y z
#    x 1.767320 0.000000 0.000000 
#    y 0.000000 1.773640 0.000000 
#    z 0.000000 0.000000 1.757780 
# 
# From -- ./inp_files/40851.got.cif
#   From: 2010.03.12/outbox.cif.g09.slc.cpg/sg63_21_cif.got.tgz:40851.got - 2010.04.10 19:34:48.
