data_PCOD8260400
_publ_section_title
;
Structure prediction by ZEFSAII (Michael W. Deem and Ramdas Pophale) SiO2 
 PCOD8260400
Probable space group: C M C M
;
_chemical_formula_sum "Si O2"
_cell_formula_units_Z 64
_cell_length_a 13.766908
_cell_length_b 10.473185
_cell_length_c 22.102904
_cell_angle_alpha 90.000000
_cell_angle_beta 90.000000
_cell_angle_gamma 90.000000
_cell_volume 3186.871282
_symmetry_space_group_name_H-M "C M C M"
_symmetry_group_IT_number 63
_symmetry_cell_setting 'orthorhombic'
loop_
_space_group_symop_operation_xyz
x,y,z
-x,-y,1/2+z
x,-y,-z
-x,y,1/2-z
-x,-y,-z
x,y,1/2-z
-x,y,z
x,-y,1/2+z
1/2+x,1/2+y,z
1/2-x,1/2-y,1/2+z
1/2+x,1/2-y,-z
1/2-x,1/2+y,1/2-z
1/2-x,1/2-y,-z
1/2+x,1/2+y,1/2-z
1/2-x,1/2+y,z
1/2+x,1/2-y,1/2+z
loop_
_atom_site_type_symbol
_atom_site_label
_atom_site_fract_x
_atom_site_fract_y
_atom_site_fract_z
Si Si1 0.786443 0.418307 0.881917
Si Si2 0.300480 0.825124 0.179830
Si Si3 0.000000 0.312620 0.117650
Si Si4 0.171150 0.000000 0.000000
Si Si5 0.000000 0.183915 0.999616
Si Si6 0.000000 0.582306 0.417074
O O1 0.746589 0.286173 0.858594
O O2 0.757572 0.536889 0.838843
O O3 0.742919 0.449370 0.948045
O O4 0.901767 0.393445 0.879791
O O5 0.280937 0.802112 0.250000
O O6 0.412811 0.817765 0.164269
O O7 0.000000 0.189059 0.073491
O O8 0.000000 0.430493 0.069441
O O9 0.098356 0.887319 0.022465
O O10 0.000000 0.327258 0.975096
#
# Coordination Sequence:
#
# PCOD8260400 Si02
#       6
#    16  16   8   8   8   8
#     4  11  24  41  63  93 123 164 204 254 310 365
#     4  11  23  42  64  88 121 161 208 252 302 364
#     4  10  21  39  61  90 117 160 202 251 301 361
#     4  11  24  37  64  88 130 159 200 253 314 372
#     4  11  21  39  56  94 127 159 193 252 310 372
#     4  10  24  36  61  90 127 156 202 250 309 365
#
# _framework density 20.082393
#
# number of rings (size 3 to 8) (size 9 to 14) (size 15 to 20)
#    0.000    1.250    2.500    3.000    7.000    2.000 
#    0.000    1.875    0.000    0.000    0.000    0.000 
#    0.000    0.000    0.000    0.000    0.000    0.000 
#
# Total GULP energy -396553.908483 kJ/mol
# GULP energy per Si atom -12392.309640 kJ/mol
# Density = 2.003669 g / cm^3
# Si number density = 20.082393 Si / 1000 Ang^3
#
#
#
# Elastic Constant Matrix: (Units=GPa)
#
#
# Indices 1 2 3 4 5 6 
#
# 1 113.2352 28.7178 23.3824 0.0000 0.0000 0.0000
# 2 28.7178 55.1103 24.1336 0.0000 0.0000 0.0000
# 3 23.3824 24.1336 92.2035 0.0000 0.0000 0.0000
# 4 0.0000 0.0000 0.0000 30.0424 0.0000 0.0000
# 5 0.0000 0.0000 0.0000 0.0000 12.1074 0.0000
# 6 0.0000 0.0000 0.0000 0.0000 0.0000 17.8449
#
#
#
# Elastic Compliance Matrix: (Units=1/GPa)
#
#
# Indices 1 2 3 4 5 6 
#
# 1 0.010326 -0.004782 -0.001367 0.000000 0.000000 0.000000
# 2 -0.004782 0.022709 -0.004731 0.000000 0.000000 0.000000
# 3 -0.001367 -0.004731 0.012431 0.000000 0.000000 0.000000
# 4 0.000000 0.000000 0.000000 0.033286 0.000000 0.000000
# 5 0.000000 0.000000 0.000000 0.000000 0.082594 0.000000
# 6 0.000000 0.000000 0.000000 0.000000 0.000000 0.056038
#
#
# Mechanical properties :
#
#
# Convention : Reuss Voigt Hill
#
# Bulk Modulus (GPa) = 42.18493 45.89074 44.03784
# Shear Modulus (GPa) = 20.23897 24.28661 22.26279
#
# Velocity S-wave (km/s) = 3.17803 3.48134 3.33314
# Velocity P-wave (km/s) = 5.87520 6.24984 6.06541
#
# Compressibility (1/GPa) = 0.02370515
#
# Stress axis : x y z
#
# Youngs Moduli (GPa) = 96.83998 44.03466 80.44670
#
# Poissons Ratio (x) = 0.21059 0.10997
# Poissons Ratio (y) = 0.46313 0.38061
# Poissons Ratio (z) = 0.13238 0.20834
#
# Static dielectric constant tensor:
#      x y z
#    x 4.680080 0.000000 0.000000 
#    y 0.000000 3.937350 0.000000 
#    z 0.000000 0.000000 3.355710 
# 
# 
# High freq. dielectric constant tensor:
#      x y z
#    x 1.793840 0.000000 0.000000 
#    y 0.000000 1.801690 0.000000 
#    z 0.000000 0.000000 1.763200 
# 
# From -- ./inp_files/62398.got.cif
#   From: 2010.03.12/outbox.cif.g09.slc.cpg/sg63_32_cif.got.tgz:62398.got - 2010.04.10 19:34:48.
