data_PCOD8260619
_publ_section_title
;
Structure prediction by ZEFSAII (Michael W. Deem and Ramdas Pophale) SiO2 
 PCOD8260619
Probable space group: C M C M
;
_chemical_formula_sum "Si O2"
_cell_formula_units_Z 96
_cell_length_a 21.513663
_cell_length_b 25.367079
_cell_length_c 9.061122
_cell_angle_alpha 90.000000
_cell_angle_beta 90.000000
_cell_angle_gamma 90.000000
_cell_volume 4945.005746
_symmetry_space_group_name_H-M "C M C M"
_symmetry_group_IT_number 63
_symmetry_cell_setting 'orthorhombic'
loop_
_space_group_symop_operation_xyz
x,y,z
-x,-y,1/2+z
x,-y,-z
-x,y,1/2-z
-x,-y,-z
x,y,1/2-z
-x,y,z
x,-y,1/2+z
1/2+x,1/2+y,z
1/2-x,1/2-y,1/2+z
1/2+x,1/2-y,-z
1/2-x,1/2+y,1/2-z
1/2-x,1/2-y,-z
1/2+x,1/2+y,1/2-z
1/2-x,1/2+y,z
1/2+x,1/2-y,1/2+z
loop_
_atom_site_type_symbol
_atom_site_label
_atom_site_fract_x
_atom_site_fract_y
_atom_site_fract_z
Si Si1 0.698308 0.857392 0.416035
Si Si2 0.656777 0.650846 0.581251
Si Si3 0.378118 0.244822 0.578144
Si Si4 0.868070 0.551437 0.076663
Si Si5 0.500000 0.794240 0.925664
Si Si6 0.428812 0.446212 0.077237
Si Si7 0.000000 0.412618 0.575320
O O1 0.676729 0.872036 0.250000
O O2 0.771523 0.864120 0.430201
O O3 0.675082 0.798563 0.455263
O O4 0.668973 0.896748 0.533243
O O5 0.639105 0.665915 0.750000
O O6 0.647223 0.699076 0.471798
O O7 0.615015 0.601829 0.525650
O O8 0.395108 0.246499 0.750000
O O9 0.439445 0.234515 0.484753
O O10 0.863798 0.544081 0.250000
O O11 0.938998 0.557140 0.019466
O O12 0.838779 0.500000 0.000000
O O13 0.500000 0.791624 0.750000
O O14 0.500000 0.853547 0.988867
O O15 0.421917 0.455666 0.250000
O O16 0.500000 0.432648 0.033473
O O17 0.406500 0.500000 0.000000
O O18 0.000000 0.408231 0.750000
#
# Coordination Sequence:
#
# PCOD8260619 Si02
#       7
#    16  16  16  16   8  16   8
#     4  10  22  40  58  82 119 158 196 242 292 345
#     4  10  22  39  61  87 117 156 197 235 285 352
#     4  11  23  38  58  89 122 152 194 243 294 344
#     4  11  22  38  59  85 115 152 200 248 299 355
#     4  11  21  38  62  86 116 155 198 241 291 352
#     4   9  19  37  60  85 112 144 185 232 285 341
#     4   9  19  36  58  84 111 148 198 244 293 352
#
# _framework density 19.413526000000001
#
# number of rings (size 3 to 8) (size 9 to 14) (size 15 to 20)
#    0.000    1.833    1.667    2.000    1.167    2.667 
#    0.000    2.917    0.000    0.000    0.000    0.000 
#    0.000    0.000    0.000    0.000    0.000    0.000 
#
# Total GULP energy -595331.702842 kJ/mol
# GULP energy per Si atom -12402.743809 kJ/mol
# Density = 1.936934 g / cm^3
# Si number density = 19.413526 Si / 1000 Ang^3
#
#
#
# Elastic Constant Matrix: (Units=GPa)
#
#
# Indices 1 2 3 4 5 6 
#
# 1 98.3075 50.9652 37.9660 0.0000 0.0000 0.0000
# 2 50.9652 143.3262 57.1069 0.0000 0.0000 0.0000
# 3 37.9660 57.1069 82.9871 0.0000 0.0000 0.0000
# 4 0.0000 0.0000 0.0000 38.4421 0.0000 0.0000
# 5 0.0000 0.0000 0.0000 0.0000 19.9149 0.0000
# 6 0.0000 0.0000 0.0000 0.0000 0.0000 14.5794
#
#
#
# Elastic Compliance Matrix: (Units=1/GPa)
#
#
# Indices 1 2 3 4 5 6 
#
# 1 0.013332 -0.003183 -0.003909 0.000000 0.000000 0.000000
# 2 -0.003183 0.010373 -0.005682 0.000000 0.000000 0.000000
# 3 -0.003909 -0.005682 0.017748 0.000000 0.000000 0.000000
# 4 0.000000 0.000000 0.000000 0.026013 0.000000 0.000000
# 5 0.000000 0.000000 0.000000 0.000000 0.050214 0.000000
# 6 0.000000 0.000000 0.000000 0.000000 0.000000 0.068590
#
#
# Mechanical properties :
#
#
# Convention : Reuss Voigt Hill
#
# Bulk Modulus (GPa) = 62.87119 68.52189 65.69654
# Shear Modulus (GPa) = 23.02886 26.49279 24.76082
#
# Velocity S-wave (km/s) = 3.44790 3.69813 3.57521
# Velocity P-wave (km/s) = 6.95027 7.32171 7.13841
#
# Compressibility (1/GPa) = 0.01590554
#
# Stress axis : x y z
#
# Youngs Moduli (GPa) = 75.00739 96.40566 56.34416
#
# Poissons Ratio (x) = 0.30689 0.22023
# Poissons Ratio (y) = 0.23877 0.32013
# Poissons Ratio (z) = 0.29318 0.54774
#
# Static dielectric constant tensor:
#      x y z
#    x 3.621470 0.000000 0.000000 
#    y 0.000000 3.553540 0.000000 
#    z 0.000000 0.000000 3.470050 
# 
# 
# High freq. dielectric constant tensor:
#      x y z
#    x 1.758490 0.000000 0.000000 
#    y 0.000000 1.762590 0.000000 
#    z 0.000000 0.000000 1.750680 
# 
# From -- ./inp_files/10556.got.cif
#   From: 2010.03.12/outbox.cif.g09.slc.cpg/sg63_6_cif.got.tgz:10556.got - 2010.04.10 19:34:48.
