data_PCOD8260020
_publ_section_title
;
Structure prediction by ZEFSAII (Michael W. Deem and Ramdas Pophale) SiO2 
 PCOD8260020
Probable space group: C M C M
;
_chemical_formula_sum "Si O2"
_cell_formula_units_Z 96
_cell_length_a 30.353663
_cell_length_b 19.458990
_cell_length_c 8.759438
_cell_angle_alpha 90.000000
_cell_angle_beta 90.000000
_cell_angle_gamma 90.000000
_cell_volume 5173.776287
_symmetry_space_group_name_H-M "C M C M"
_symmetry_group_IT_number 63
_symmetry_cell_setting 'orthorhombic'
loop_
_space_group_symop_operation_xyz
x,y,z
-x,-y,1/2+z
x,-y,-z
-x,y,1/2-z
-x,-y,-z
x,y,1/2-z
-x,y,z
x,-y,1/2+z
1/2+x,1/2+y,z
1/2-x,1/2-y,1/2+z
1/2+x,1/2-y,-z
1/2-x,1/2+y,1/2-z
1/2-x,1/2-y,-z
1/2+x,1/2+y,1/2-z
1/2-x,1/2+y,z
1/2+x,1/2-y,1/2+z
loop_
_atom_site_type_symbol
_atom_site_label
_atom_site_fract_x
_atom_site_fract_y
_atom_site_fract_z
Si Si1 0.450576 0.293104 0.070798
Si Si2 0.372335 0.801961 0.926928
Si Si3 0.552468 0.432228 0.920551
Si Si4 0.262786 0.571954 0.068239
Si Si5 0.332536 0.070492 0.930302
Si Si6 0.289606 0.707350 0.928515
O O1 0.450803 0.304305 0.250000
O O2 0.500000 0.277351 0.009891
O O3 0.419253 0.230034 0.024949
O O4 0.430992 0.363275 0.002105
O O5 0.371541 0.824018 0.750000
O O6 0.334981 0.746038 0.960772
O O7 0.366414 0.868792 0.031678
O O8 0.570792 0.431166 0.750000
O O9 0.500000 0.435084 0.926161
O O10 0.572439 0.500000 0.000000
O O11 0.262930 0.568605 0.250000
O O12 0.280126 0.500000 0.000000
O O13 0.213666 0.587969 0.010023
O O14 0.293844 0.633158 0.009123
O O15 0.325734 0.062937 0.750000
O O16 0.351783 0.000000 0.000000
O O17 0.280384 0.697464 0.750000
O O18 0.250000 0.750000 0.000000
#
# Coordination Sequence:
#
# PCOD8260020 Si02
#       6
#    16  16  16  16  16  16
#     4   9  18  34  55  78 105 139 178 222 272 322
#     4  10  21  36  55  80 110 141 177 220 267 319
#     4   9  16  27  46  72 100 131 170 216 262 311
#     4  11  21  35  54  77 108 144 183 223 266 318
#     4  11  21  34  55  80 108 139 177 219 263 317
#     4  11  21  34  53  78 109 143 178 218 264 315
#
# _framework density 18.555112999999999
#
# number of rings (size 3 to 8) (size 9 to 14) (size 15 to 20)
#    0.000    1.833    1.667    5.000    0.000    3.333 
#    0.000    0.833    0.000    0.500    0.000    0.000 
#    0.000    0.000    0.000    0.000    0.000    0.000 
#
# Total GULP energy -595286.381535 kJ/mol
# GULP energy per Si atom -12401.799615 kJ/mol
# Density = 1.851288 g / cm^3
# Si number density = 18.555113 Si / 1000 Ang^3
#
#
#
# Elastic Constant Matrix: (Units=GPa)
#
#
# Indices 1 2 3 4 5 6 
#
# 1 59.8255 42.6917 35.1670 0.0000 0.0000 0.0000
# 2 42.6917 147.1714 65.1547 0.0000 0.0000 0.0000
# 3 35.1670 65.1547 120.1822 0.0000 0.0000 0.0000
# 4 0.0000 0.0000 0.0000 38.2536 0.0000 0.0000
# 5 0.0000 0.0000 0.0000 0.0000 16.0875 0.0000
# 6 0.0000 0.0000 0.0000 0.0000 0.0000 21.6962
#
#
#
# Elastic Compliance Matrix: (Units=1/GPa)
#
#
# Indices 1 2 3 4 5 6 
#
# 1 0.022450 -0.004742 -0.003998 0.000000 0.000000 0.000000
# 2 -0.004742 0.009942 -0.004002 0.000000 0.000000 0.000000
# 3 -0.003998 -0.004002 0.011660 0.000000 0.000000 0.000000
# 4 0.000000 0.000000 0.000000 0.026141 0.000000 0.000000
# 5 0.000000 0.000000 0.000000 0.000000 0.062160 0.000000
# 6 0.000000 0.000000 0.000000 0.000000 0.000000 0.046091
#
#
# Mechanical properties :
#
#
# Convention : Reuss Voigt Hill
#
# Bulk Modulus (GPa) = 53.85956 68.13398 60.99677
# Shear Modulus (GPa) = 23.79602 27.48518 25.64060
#
# Velocity S-wave (km/s) = 3.58502 3.85291 3.72137
# Velocity P-wave (km/s) = 6.79899 7.52281 7.17004
#
# Compressibility (1/GPa) = 0.01856681
#
# Stress axis : x y z
#
# Youngs Moduli (GPa) = 44.54437 100.57998 85.75979
#
# Poissons Ratio (x) = 0.47696 0.34288
# Poissons Ratio (y) = 0.21124 0.34325
# Poissons Ratio (z) = 0.17810 0.40257
#
# Static dielectric constant tensor:
#      x y z
#    x 3.235070 0.000000 0.000000 
#    y 0.000000 3.603590 0.000000 
#    z 0.000000 0.000000 3.486720 
# 
# 
# High freq. dielectric constant tensor:
#      x y z
#    x 1.679340 0.000000 0.000000 
#    y 0.000000 1.730680 0.000000 
#    z 0.000000 0.000000 1.729980 
# 
# From -- ./inp_files/12427.got.cif
#   From: 2010.03.12/outbox.cif.g09.slc.cpg/sg63_7_cif.got.tgz:12427.got - 2010.04.10 19:34:48.
