data_PCOD8260110
_publ_section_title
;
Structure prediction by ZEFSAII (Michael W. Deem and Ramdas Pophale) SiO2 
 PCOD8260110
Probable space group: C M C M
;
_chemical_formula_sum "Si O2"
_cell_formula_units_Z 88
_cell_length_a 27.457399
_cell_length_b 17.553385
_cell_length_c 9.032733
_cell_angle_alpha 90.000000
_cell_angle_beta 90.000000
_cell_angle_gamma 90.000000
_cell_volume 4353.508995
_symmetry_space_group_name_H-M "C M C M"
_symmetry_group_IT_number 63
_symmetry_cell_setting 'orthorhombic'
loop_
_space_group_symop_operation_xyz
x,y,z
-x,-y,1/2+z
x,-y,-z
-x,y,1/2-z
-x,-y,-z
x,y,1/2-z
-x,y,z
x,-y,1/2+z
1/2+x,1/2+y,z
1/2-x,1/2-y,1/2+z
1/2+x,1/2-y,-z
1/2-x,1/2+y,1/2-z
1/2-x,1/2-y,-z
1/2+x,1/2+y,1/2-z
1/2-x,1/2+y,z
1/2+x,1/2-y,1/2+z
loop_
_atom_site_type_symbol
_atom_site_label
_atom_site_fract_x
_atom_site_fract_y
_atom_site_fract_z
Si Si1 0.356719 0.844467 0.080282
Si Si2 0.555569 0.919493 0.923648
Si Si3 0.103490 0.080210 0.077139
Si Si4 0.000000 0.920898 0.920418
Si Si5 0.760117 0.422110 0.420585
Si Si6 0.688765 0.686420 0.074886
O O1 0.373251 0.832589 0.250000
O O2 0.318678 0.914294 0.064864
O O3 0.326600 0.770817 0.024322
O O4 0.405616 0.858472 0.985719
O O5 0.564183 0.929668 0.750000
O O6 0.500000 0.892083 0.956778
O O7 0.565663 0.000000 0.000000
O O8 0.109774 0.066313 0.250000
O O9 0.144555 0.135089 0.017306
O O10 0.050926 0.121041 0.040083
O O11 0.109143 0.000000 0.000000
O O12 0.000000 0.942021 0.750000
O O13 0.000000 0.000000 0.000000
O O14 0.743098 0.500000 0.500000
O O15 0.744194 0.427088 0.250000
O O16 0.736135 0.346231 0.491760
O O17 0.698313 0.682672 0.250000
#
# Coordination Sequence:
#
# PCOD8260110 Si02
#       6
#    16  16  16   8  16  16
#     4  10  22  39  58  85 118 152 191 234 288 348
#     4  10  21  38  62  90 119 152 193 239 287 340
#     4   9  17  30  49  72 100 134 178 227 272 325
#     4   8  14  26  44  66  92 124 165 212 263 310
#     4  11  23  38  58  83 111 147 192 239 288 344
#     4  10  21  37  55  81 114 147 187 234 284 341
#
# _framework density 20.213578999999999
#
# number of rings (size 3 to 8) (size 9 to 14) (size 15 to 20)
#    0.000    2.182    0.000    2.727    0.000    6.909 
#    1.636    0.000    0.000    0.000    0.000    0.000 
#    0.000    0.000    0.000    0.000    0.000    0.000 
#
# Total GULP energy -545288.698640 kJ/mol
# GULP energy per Si atom -12392.924969 kJ/mol
# Density = 2.016757 g / cm^3
# Si number density = 20.213579 Si / 1000 Ang^3
#
#
#
# Elastic Constant Matrix: (Units=GPa)
#
#
# Indices 1 2 3 4 5 6 
#
# 1 123.4632 37.7795 52.7672 0.0000 0.0000 0.0000
# 2 37.7795 88.4044 43.4596 0.0000 0.0000 0.0000
# 3 52.7672 43.4596 86.3571 0.0000 0.0000 0.0000
# 4 0.0000 0.0000 0.0000 28.0901 0.0000 0.0000
# 5 0.0000 0.0000 0.0000 0.0000 27.3518 0.0000
# 6 0.0000 0.0000 0.0000 0.0000 0.0000 -27.1691
#
#
#
# Elastic Compliance Matrix: (Units=1/GPa)
#
#
# Indices 1 2 3 4 5 6 
#
# 1 0.011195 -0.001889 -0.005890 0.000000 0.000000 0.000000
# 2 -0.001889 0.015349 -0.006570 0.000000 0.000000 0.000000
# 3 -0.005890 -0.006570 0.018485 0.000000 0.000000 0.000000
# 4 0.000000 0.000000 0.000000 0.035600 0.000000 0.000000
# 5 0.000000 0.000000 0.000000 0.000000 0.036561 0.000000
# 6 0.000000 0.000000 0.000000 0.000000 0.000000 -0.036807
#
#
# Mechanical properties :
#
#
# Convention : Reuss Voigt Hill
#
# Bulk Modulus (GPa) = 61.23284 62.91526 62.07405
# Shear Modulus (GPa) = 43.65891 16.60246 30.13069
#
# Velocity S-wave (km/s) = 4.65249 2.86903 3.86504
# Velocity P-wave (km/s) = 7.69543 6.49369 7.11996
#
# Compressibility (1/GPa) = 0.01633111
#
# Stress axis : x y z
#
# Youngs Moduli (GPa) = 89.32704 65.15206 54.09685
#
# Poissons Ratio (x) = 0.12304 0.31863
# Poissons Ratio (y) = 0.16870 0.35543
# Poissons Ratio (z) = 0.52614 0.42807
#
# Static dielectric constant tensor:
#      x y z
#    x 4.201210 0.000000 0.000000 
#    y 0.000000 3.461160 0.000000 
#    z 0.000000 0.000000 3.528990 
# 
# 
# High freq. dielectric constant tensor:
#      x y z
#    x 1.811700 0.000000 0.000000 
#    y 0.000000 1.767630 0.000000 
#    z 0.000000 0.000000 1.782580 
# 
# From -- ./inp_files/14169.got.cif
#   From: 2010.03.12/outbox.cif.g09.slc.cpg/sg63_8_cif.got.tgz:14169.got - 2010.04.10 19:34:48.
