data_PCOD8260780
_publ_section_title
;
Structure prediction by ZEFSAII (Michael W. Deem and Ramdas Pophale) SiO2 
 PCOD8260780
Probable space group: C M C M
;
_chemical_formula_sum "Si O2"
_cell_formula_units_Z 72
_cell_length_a 23.536796
_cell_length_b 4.980802
_cell_length_c 25.214689
_cell_angle_alpha 90.000000
_cell_angle_beta 90.000000
_cell_angle_gamma 90.000000
_cell_volume 2955.971461
_symmetry_space_group_name_H-M "C M C M"
_symmetry_group_IT_number 63
_symmetry_cell_setting 'orthorhombic'
loop_
_space_group_symop_operation_xyz
x,y,z
-x,-y,1/2+z
x,-y,-z
-x,y,1/2-z
-x,-y,-z
x,y,1/2-z
-x,y,z
x,-y,1/2+z
1/2+x,1/2+y,z
1/2-x,1/2-y,1/2+z
1/2+x,1/2-y,-z
1/2-x,1/2+y,1/2-z
1/2-x,1/2-y,-z
1/2+x,1/2+y,1/2-z
1/2-x,1/2+y,z
1/2+x,1/2-y,1/2+z
loop_
_atom_site_type_symbol
_atom_site_label
_atom_site_fract_x
_atom_site_fract_y
_atom_site_fract_z
Si Si1 0.875641 0.834130 0.445223
Si Si2 0.291951 0.000000 0.500000
Si Si3 0.715054 0.697044 0.250000
Si Si4 0.435894 0.122999 0.188784
Si Si5 0.870690 0.127792 0.341825
Si Si6 0.000000 0.250147 0.537620
O O1 0.835612 0.568319 0.451202
O O2 0.850599 0.024994 0.399451
O O3 0.940908 0.751741 0.428756
O O4 0.873975 0.000000 0.500000
O O5 0.250000 0.750000 0.500000
O O6 0.728592 0.013372 0.250000
O O7 0.682789 0.622780 0.196514
O O8 0.429184 0.036299 0.250000
O O9 0.500000 0.088776 0.169004
O O10 0.396296 0.927354 0.153730
O O11 0.418390 0.431058 0.181929
O O12 0.000000 0.500000 0.500000
O O13 0.000000 0.000000 0.500000
#
# Coordination Sequence:
#
# PCOD8260780 Si02
#       6
#    16   8   8  16  16   8
#     4  11  27  48  73 110 149 198 246 303 369 445
#     4  12  26  47  72  97 140 190 252 308 350 418
#     4  12  26  50  73 102 139 184 246 304 368 428
#     4  11  23  43  71 107 146 184 230 295 369 446
#     4  12  26  45  75 105 146 185 243 296 368 439
#     4  10  22  42  70  99 146 189 236 290 357 432
#
# _framework density 24.357474
#
# number of rings (size 3 to 8) (size 9 to 14) (size 15 to 20)
#    0.000    0.667    4.444    2.000    6.222    3.556 
#    0.000    0.000    0.000    0.000    0.000    0.000 
#    0.000    0.000    0.000    0.000    0.000    0.000 
#
# Total GULP energy -446302.750778 kJ/mol
# GULP energy per Si atom -12397.298633 kJ/mol
# Density = 2.430204 g / cm^3
# Si number density = 24.357474 Si / 1000 Ang^3
#
#
#
# Elastic Constant Matrix: (Units=GPa)
#
#
# Indices 1 2 3 4 5 6 
#
# 1 135.6286 25.2146 26.5565 0.0000 0.0000 0.0000
# 2 25.2146 101.7903 -11.6006 0.0000 0.0000 0.0000
# 3 26.5565 -11.6006 69.4628 0.0000 0.0000 0.0000
# 4 0.0000 0.0000 0.0000 30.3037 0.0000 0.0000
# 5 0.0000 0.0000 0.0000 0.0000 26.3075 0.0000
# 6 0.0000 0.0000 0.0000 0.0000 0.0000 53.3427
#
#
#
# Elastic Compliance Matrix: (Units=1/GPa)
#
#
# Indices 1 2 3 4 5 6 
#
# 1 0.008571 -0.002545 -0.003702 0.000000 0.000000 0.000000
# 2 -0.002545 0.010770 0.002772 0.000000 0.000000 0.000000
# 3 -0.003702 0.002772 0.016274 0.000000 0.000000 0.000000
# 4 0.000000 0.000000 0.000000 0.032999 0.000000 0.000000
# 5 0.000000 0.000000 0.000000 0.000000 0.038012 0.000000
# 6 0.000000 0.000000 0.000000 0.000000 0.000000 0.018747
#
#
# Mechanical properties :
#
#
# Convention : Reuss Voigt Hill
#
# Bulk Modulus (GPa) = 34.88519 43.02477 38.95498
# Shear Modulus (GPa) = 35.24122 39.77152 37.50637
#
# Velocity S-wave (km/s) = 3.80785 4.04521 3.92832
# Velocity P-wave (km/s) = 5.80399 6.28653 6.05007
#
# Compressibility (1/GPa) = 0.02866546
#
# Stress axis : x y z
#
# Youngs Moduli (GPa) = 116.67166 92.84678 61.44640
#
# Poissons Ratio (x) = 0.23630 0.22747
# Poissons Ratio (y) = 0.29693 -0.17031
# Poissons Ratio (z) = 0.43190 -0.25734
#
# Static dielectric constant tensor:
#      x y z
#    x 4.928400 0.000000 0.000000 
#    y 0.000000 4.309890 0.000000 
#    z 0.000000 0.000000 4.267410 
# 
# 
# High freq. dielectric constant tensor:
#      x y z
#    x 1.974360 0.000000 0.000000 
#    y 0.000000 1.981310 0.000000 
#    z 0.000000 0.000000 1.964570 
# 
# From -- ./inp_files/70590.got.cif
#   From: 2010.03.12/outbox.cif.g09.slc.cpg/sg63_36_cif.got.tgz:70590.got - 2010.04.10 19:34:48.
