data_PCOD8260604
_publ_section_title
;
Structure prediction by ZEFSAII (Michael W. Deem and Ramdas Pophale) SiO2 
 PCOD8260604
Probable space group: C M C M
;
_chemical_formula_sum "Si O2"
_cell_formula_units_Z 120
_cell_length_a 19.930196
_cell_length_b 14.343808
_cell_length_c 22.148785
_cell_angle_alpha 90.000000
_cell_angle_beta 90.000000
_cell_angle_gamma 90.000000
_cell_volume 6331.781804
_symmetry_space_group_name_H-M "C M C M"
_symmetry_group_IT_number 63
_symmetry_cell_setting 'orthorhombic'
loop_
_space_group_symop_operation_xyz
x,y,z
-x,-y,1/2+z
x,-y,-z
-x,y,1/2-z
-x,-y,-z
x,y,1/2-z
-x,y,z
x,-y,1/2+z
1/2+x,1/2+y,z
1/2-x,1/2-y,1/2+z
1/2+x,1/2-y,-z
1/2-x,1/2+y,1/2-z
1/2-x,1/2-y,-z
1/2+x,1/2+y,1/2-z
1/2-x,1/2+y,z
1/2+x,1/2-y,1/2+z
loop_
_atom_site_type_symbol
_atom_site_label
_atom_site_fract_x
_atom_site_fract_y
_atom_site_fract_z
Si Si1 0.575731 0.304061 0.819432
Si Si2 0.217129 0.890041 0.368313
Si Si3 0.302574 0.402618 0.628289
Si Si4 0.860531 0.612399 0.681653
Si Si5 0.176172 0.700636 0.180149
Si Si6 0.137338 0.500000 0.000000
Si Si7 0.745629 0.639622 0.997405
Si Si8 0.577684 0.060640 0.123513
O O1 0.590417 0.329675 0.750000
O O2 0.500000 0.328497 0.837598
O O3 0.623333 0.363906 0.862228
O O4 0.587153 0.194787 0.830997
O O5 0.296789 0.874708 0.361394
O O6 0.175805 0.811631 0.332102
O O7 0.199895 0.883678 0.439453
O O8 0.198736 0.992890 0.344856
O O9 0.249337 0.339858 0.664352
O O10 0.287330 0.403233 0.557186
O O11 0.833480 0.614541 0.750000
O O12 0.899440 0.516284 0.671578
O O13 0.159464 0.682110 0.250000
O O14 0.120671 0.653537 0.137121
O O15 0.181888 0.591943 0.988538
O O16 0.090184 0.479706 0.943046
O O17 0.750000 0.750000 0.000000
O O18 0.500000 0.085607 0.131799
#
# Coordination Sequence:
#
# PCOD8260604 Si02
#       8
#    16  16  16  16  16   8  16  16
#     4  10  22  39  58  87 124 158 197 246 306 368
#     4  12  22  38  61  95 122 154 207 259 312 368
#     4  12  22  37  64  92 121 161 207 261 309 371
#     4  11  20  35  61  90 122 154 196 257 314 365
#     4  12  24  39  60  89 124 165 209 257 310 372
#     4  12  21  42  58  96 125 164 208 258 317 376
#     4  12  19  36  65  89 123 159 199 258 318 368
#     4  12  25  41  61  89 129 169 209 254 313 386
#
# _framework density 18.952012
#
# number of rings (size 3 to 8) (size 9 to 14) (size 15 to 20)
#    0.000    0.400    8.000    1.800    0.000    3.200 
#    0.000    0.667    0.000    1.600    0.000    0.000 
#    0.000    0.000    0.000    0.000    0.000    0.000 
#
# Total GULP energy -744200.886144 kJ/mol
# GULP energy per Si atom -12403.348102 kJ/mol
# Density = 1.890888 g / cm^3
# Si number density = 18.952012 Si / 1000 Ang^3
#
#
#
# Elastic Constant Matrix: (Units=GPa)
#
#
# Indices 1 2 3 4 5 6 
#
# 1 111.0554 38.4148 26.8386 0.0000 0.0000 0.0000
# 2 38.4148 127.0203 21.3131 0.0000 0.0000 0.0000
# 3 26.8386 21.3131 91.8529 0.0000 0.0000 0.0000
# 4 0.0000 0.0000 0.0000 27.7802 0.0000 0.0000
# 5 0.0000 0.0000 0.0000 0.0000 22.5292 0.0000
# 6 0.0000 0.0000 0.0000 0.0000 0.0000 25.5874
#
#
#
# Elastic Compliance Matrix: (Units=1/GPa)
#
#
# Indices 1 2 3 4 5 6 
#
# 1 0.010557 -0.002783 -0.002439 0.000000 0.000000 0.000000
# 2 -0.002783 0.008926 -0.001258 0.000000 0.000000 0.000000
# 3 -0.002439 -0.001258 0.011891 0.000000 0.000000 0.000000
# 4 0.000000 0.000000 0.000000 0.035997 0.000000 0.000000
# 5 0.000000 0.000000 0.000000 0.000000 0.044387 0.000000
# 6 0.000000 0.000000 0.000000 0.000000 0.000000 0.039082
#
#
# Mechanical properties :
#
#
# Convention : Reuss Voigt Hill
#
# Bulk Modulus (GPa) = 54.30700 55.89572 55.10136
# Shear Modulus (GPa) = 29.42267 31.40349 30.41308
#
# Velocity S-wave (km/s) = 3.94443 4.07504 4.01027
# Velocity P-wave (km/s) = 7.03292 7.19018 7.11198
#
# Compressibility (1/GPa) = 0.01841383
#
# Stress axis : x y z
#
# Youngs Moduli (GPa) = 94.72667 112.03720 84.09452
#
# Poissons Ratio (x) = 0.31185 0.20508
# Poissons Ratio (y) = 0.26367 0.10577
# Poissons Ratio (z) = 0.23101 0.14092
#
# Static dielectric constant tensor:
#      x y z
#    x 3.208950 0.000000 0.000000 
#    y 0.000000 3.619780 0.000000 
#    z 0.000000 0.000000 3.644590 
# 
# 
# High freq. dielectric constant tensor:
#      x y z
#    x 1.703090 0.000000 0.000000 
#    y 0.000000 1.746930 0.000000 
#    z 0.000000 0.000000 1.748320 
# 
# From -- ./inp_files/56833.got.cif
#   From: 2010.03.12/outbox.cif.g09.slc.cpg/sg63_29_cif.got.tgz:56833.got - 2010.04.10 19:34:48.
