data_PCOD8260293
_publ_section_title
;
Structure prediction by ZEFSAII (Michael W. Deem and Ramdas Pophale) SiO2 
 PCOD8260293
Probable space group: C M C M
;
_chemical_formula_sum "Si O2"
_cell_formula_units_Z 56
_cell_length_a 11.503648
_cell_length_b 24.276033
_cell_length_c 10.530745
_cell_angle_alpha 90.000000
_cell_angle_beta 90.000000
_cell_angle_gamma 90.000000
_cell_volume 2940.846793
_symmetry_space_group_name_H-M "C M C M"
_symmetry_group_IT_number 63
_symmetry_cell_setting 'orthorhombic'
loop_
_space_group_symop_operation_xyz
x,y,z
-x,-y,1/2+z
x,-y,-z
-x,y,1/2-z
-x,-y,-z
x,y,1/2-z
-x,y,z
x,-y,1/2+z
1/2+x,1/2+y,z
1/2-x,1/2-y,1/2+z
1/2+x,1/2-y,-z
1/2-x,1/2+y,1/2-z
1/2-x,1/2-y,-z
1/2+x,1/2+y,1/2-z
1/2-x,1/2+y,z
1/2+x,1/2-y,1/2+z
loop_
_atom_site_type_symbol
_atom_site_label
_atom_site_fract_x
_atom_site_fract_y
_atom_site_fract_z
Si Si1 0.500000 0.142401 0.108988
Si Si2 0.631159 0.406735 0.601969
Si Si3 0.703011 0.000000 0.000000
Si Si4 0.000000 0.444282 0.385093
Si Si5 0.238489 0.296453 0.894533
O O1 0.500000 0.115270 0.250000
O O2 0.610126 0.180608 0.091257
O O3 0.500000 0.095279 0.005108
O O4 0.637832 0.419813 0.750000
O O5 0.500000 0.414597 0.550449
O O6 0.716781 0.448390 0.532800
O O7 0.669061 0.344220 0.574219
O O8 0.616232 0.981958 0.113386
O O9 0.000000 0.412300 0.250000
O O10 0.258710 0.274078 0.750000
O O11 0.250000 0.250000 0.000000
#
# Coordination Sequence:
#
# PCOD8260293 Si02
#       5
#     8  16   8   8  16
#     4  10  21  41  64  85 118 161 197 241 304 356
#     4  10  21  38  60  85 117 158 199 239 293 358
#     4  11  21  38  58  84 125 157 194 244 304 353
#     4  11  23  35  60  94 120 154 201 248 292 350
#     4  10  22  40  62  87 116 154 197 243 295 350
#
# _framework density 19.042134999999998
#
# number of rings (size 3 to 8) (size 9 to 14) (size 15 to 20)
#    0.000    1.714    2.857    1.286    2.000    3.429 
#    0.000    0.000    0.000    3.429    0.000    0.000 
#    0.000    0.000    0.000    0.000    0.000    0.000 
#
# Total GULP energy -347058.468544 kJ/mol
# GULP energy per Si atom -12394.945305 kJ/mol
# Density = 1.899879 g / cm^3
# Si number density = 19.042135 Si / 1000 Ang^3
#
#
#
# Elastic Constant Matrix: (Units=GPa)
#
#
# Indices 1 2 3 4 5 6 
#
# 1 157.7110 52.5973 50.4169 0.0000 0.0000 0.0000
# 2 52.5973 103.1817 78.0241 0.0000 0.0000 0.0000
# 3 50.4169 78.0241 136.4012 0.0000 0.0000 0.0000
# 4 0.0000 0.0000 0.0000 31.9322 0.0000 0.0000
# 5 0.0000 0.0000 0.0000 0.0000 10.9296 0.0000
# 6 0.0000 0.0000 0.0000 0.0000 0.0000 15.7759
#
#
#
# Elastic Compliance Matrix: (Units=1/GPa)
#
#
# Indices 1 2 3 4 5 6 
#
# 1 0.007726 -0.003135 -0.001062 0.000000 0.000000 0.000000
# 2 -0.003135 0.018351 -0.009339 0.000000 0.000000 0.000000
# 3 -0.001062 -0.009339 0.013066 0.000000 0.000000 0.000000
# 4 0.000000 0.000000 0.000000 0.031316 0.000000 0.000000
# 5 0.000000 0.000000 0.000000 0.000000 0.091494 0.000000
# 6 0.000000 0.000000 0.000000 0.000000 0.000000 0.063388
#
#
# Mechanical properties :
#
#
# Convention : Reuss Voigt Hill
#
# Bulk Modulus (GPa) = 82.84163 84.37451 83.60807
# Shear Modulus (GPa) = 19.49794 26.14457 22.82126
#
# Velocity S-wave (km/s) = 3.20337 3.70940 3.46564
# Velocity P-wave (km/s) = 7.56842 7.92160 7.74702
#
# Compressibility (1/GPa) = 0.01207123
#
# Stress axis : x y z
#
# Youngs Moduli (GPa) = 129.43562 54.49189 76.53524
#
# Poissons Ratio (x) = 0.17083 0.08131
# Poissons Ratio (y) = 0.40577 0.71473
# Poissons Ratio (z) = 0.13752 0.50888
#
# Static dielectric constant tensor:
#      x y z
#    x 5.251040 0.000000 0.000000 
#    y 0.000000 3.323330 0.000000 
#    z 0.000000 0.000000 3.270650 
# 
# 
# High freq. dielectric constant tensor:
#      x y z
#    x 1.764670 0.000000 0.000000 
#    y 0.000000 1.730810 0.000000 
#    z 0.000000 0.000000 1.731070 
# 
# From -- ./inp_files/2882.got.cif
#   From: 2010.03.12/outbox.cif.g09.slc.cpg/sg63_2_cif.got.tgz:2882.got - 2010.04.10 19:34:48.
