data_PCOD8260725
_publ_section_title
;
Structure prediction by ZEFSAII (Michael W. Deem and Ramdas Pophale) SiO2 
 PCOD8260725
Probable space group: C M C M
;
_chemical_formula_sum "Si O2"
_cell_formula_units_Z 80
_cell_length_a 8.520760
_cell_length_b 15.603880
_cell_length_c 28.856516
_cell_angle_alpha 90.000000
_cell_angle_beta 90.000000
_cell_angle_gamma 90.000000
_cell_volume 3836.673390
_symmetry_space_group_name_H-M "C M C M"
_symmetry_group_IT_number 63
_symmetry_cell_setting 'orthorhombic'
loop_
_space_group_symop_operation_xyz
x,y,z
-x,-y,1/2+z
x,-y,-z
-x,y,1/2-z
-x,-y,-z
x,y,1/2-z
-x,y,z
x,-y,1/2+z
1/2+x,1/2+y,z
1/2-x,1/2-y,1/2+z
1/2+x,1/2-y,-z
1/2-x,1/2+y,1/2-z
1/2-x,1/2-y,-z
1/2+x,1/2+y,1/2-z
1/2-x,1/2+y,z
1/2+x,1/2-y,1/2+z
loop_
_atom_site_type_symbol
_atom_site_label
_atom_site_fract_x
_atom_site_fract_y
_atom_site_fract_z
Si Si1 0.684108 0.472277 0.949427
Si Si2 0.182904 0.277803 0.136191
Si Si3 0.320428 0.031156 0.857449
Si Si4 0.183741 0.288289 0.546857
Si Si5 0.815729 0.877549 0.698526
O O1 0.500000 0.488726 0.944350
O O2 0.773549 0.528390 0.911407
O O3 0.722650 0.373763 0.940405
O O4 0.745191 0.500000 0.000000
O O5 0.206797 0.371162 0.159636
O O6 0.282755 0.276694 0.088807
O O7 0.250231 0.204535 0.170507
O O8 0.000000 0.262546 0.124531
O O9 0.500000 0.003261 0.851884
O O10 0.218635 0.966707 0.826942
O O11 0.250000 0.250000 0.500000
O O12 0.000000 0.306375 0.541565
O O13 0.740242 0.878504 0.750000
O O14 0.000000 0.867220 0.702604
#
# Coordination Sequence:
#
# PCOD8260725 Si02
#       5
#    16  16  16  16  16
#     4  11  23  39  60  88 125 168 211 257 313 375
#     4  10  22  41  64  91 128 167 209 258 316 378
#     4  11  23  39  63  95 127 164 210 264 315 372
#     4  12  24  38  60  90 126 166 211 258 312 372
#     4  10  22  42  67  92 124 170 216 262 319 379
#
# _framework density 20.851396000000001
#
# number of rings (size 3 to 8) (size 9 to 14) (size 15 to 20)
#    0.000    1.200    2.000    4.200    0.000    7.600 
#    0.000    2.000    0.000    0.000    0.000    0.000 
#    0.000    0.000    0.000    0.000    0.000    0.000 
#
# Total GULP energy -496170.733428 kJ/mol
# GULP energy per Si atom -12404.268336 kJ/mol
# Density = 2.080394 g / cm^3
# Si number density = 20.851396 Si / 1000 Ang^3
#
#
#
# Elastic Constant Matrix: (Units=GPa)
#
#
# Indices 1 2 3 4 5 6 
#
# 1 28.7275 13.1305 14.3925 0.0000 0.0000 0.0000
# 2 13.1305 126.8418 48.9096 0.0000 0.0000 0.0000
# 3 14.3925 48.9096 139.2465 0.0000 0.0000 0.0000
# 4 0.0000 0.0000 0.0000 28.3722 0.0000 0.0000
# 5 0.0000 0.0000 0.0000 0.0000 21.9560 0.0000
# 6 0.0000 0.0000 0.0000 0.0000 0.0000 27.0217
#
#
#
# Elastic Compliance Matrix: (Units=1/GPa)
#
#
# Indices 1 2 3 4 5 6 
#
# 1 0.037530 -0.002764 -0.002908 0.000000 0.000000 0.000000
# 2 -0.002764 0.009322 -0.002989 0.000000 0.000000 0.000000
# 3 -0.002908 -0.002989 0.008532 0.000000 0.000000 0.000000
# 4 0.000000 0.000000 0.000000 0.035246 0.000000 0.000000
# 5 0.000000 0.000000 0.000000 0.000000 0.045546 0.000000
# 6 0.000000 0.000000 0.000000 0.000000 0.000000 0.037007
#
#
# Mechanical properties :
#
#
# Convention : Reuss Voigt Hill
#
# Bulk Modulus (GPa) = 26.27237 49.74235 38.00736
# Shear Modulus (GPa) = 24.60723 30.02887 27.31805
#
# Velocity S-wave (km/s) = 3.43902 3.79903 3.62350
# Velocity P-wave (km/s) = 5.32882 6.56894 5.98111
#
# Compressibility (1/GPa) = 0.03806281
#
# Stress axis : x y z
#
# Youngs Moduli (GPa) = 26.64527 107.26872 117.20697
#
# Poissons Ratio (x) = 0.29645 0.34089
# Poissons Ratio (y) = 0.07364 0.35031
# Poissons Ratio (z) = 0.07750 0.32060
#
# Static dielectric constant tensor:
#      x y z
#    x 3.643450 0.000000 0.000000 
#    y 0.000000 3.843910 0.000000 
#    z 0.000000 0.000000 3.897940 
# 
# 
# High freq. dielectric constant tensor:
#      x y z
#    x 1.808240 0.000000 0.000000 
#    y 0.000000 1.828530 0.000000 
#    z 0.000000 0.000000 1.814750 
# 
# From -- ./inp_files/71563.got.cif
#   From: 2010.03.12/outbox.cif.g09.slc.cpg/sg63_36_cif.got.tgz:71563.got - 2010.04.10 19:34:48.
