data_PCOD8260219
_publ_section_title
;
Structure prediction by ZEFSAII (Michael W. Deem and Ramdas Pophale) SiO2 
 PCOD8260219
Probable space group: C M C M
;
_chemical_formula_sum "Si O2"
_cell_formula_units_Z 80
_cell_length_a 8.815705
_cell_length_b 28.868177
_cell_length_c 15.989922
_cell_angle_alpha 90.000000
_cell_angle_beta 90.000000
_cell_angle_gamma 90.000000
_cell_volume 4069.328533
_symmetry_space_group_name_H-M "C M C M"
_symmetry_group_IT_number 63
_symmetry_cell_setting 'orthorhombic'
loop_
_space_group_symop_operation_xyz
x,y,z
-x,-y,1/2+z
x,-y,-z
-x,y,1/2-z
-x,-y,-z
x,y,1/2-z
-x,y,z
x,-y,1/2+z
1/2+x,1/2+y,z
1/2-x,1/2-y,1/2+z
1/2+x,1/2-y,-z
1/2-x,1/2+y,1/2-z
1/2-x,1/2-y,-z
1/2+x,1/2+y,1/2-z
1/2-x,1/2+y,z
1/2+x,1/2-y,1/2+z
loop_
_atom_site_type_symbol
_atom_site_label
_atom_site_fract_x
_atom_site_fract_y
_atom_site_fract_z
Si Si1 0.674060 0.304402 0.067512
Si Si2 0.821186 0.485188 0.089934
Si Si3 0.680839 0.042790 0.250000
Si Si4 0.175113 0.897987 0.344596
Si Si5 0.824598 0.701794 0.395027
Si Si6 0.678175 0.355908 0.750000
O O1 0.500000 0.304228 0.036016
O O2 0.707622 0.345042 0.132264
O O3 0.710012 0.256483 0.115537
O O4 0.783167 0.312605 0.989025
O O5 0.757180 0.516452 0.166715
O O6 0.775335 0.431842 0.099529
O O7 0.000000 0.489718 0.089021
O O8 0.753229 0.500000 0.000000
O O9 0.500000 0.043698 0.250000
O O10 0.740619 0.094751 0.250000
O O11 0.226743 0.905003 0.250000
O O12 0.000000 0.910636 0.358003
O O13 0.723272 0.672896 0.331584
O O14 0.000000 0.690314 0.377524
O O15 0.500000 0.364361 0.750000
#
# Coordination Sequence:
#
# PCOD8260219 Si02
#       6
#    16  16   8  16  16   8
#     4   9  20  38  61  88 121 156 195 242 291 348
#     4  10  22  40  62  87 116 151 194 243 295 354
#     4  10  22  42  61  84 119 155 196 245 299 356
#     4  10  21  37  60  89 119 152 191 236 292 352
#     4  10  21  39  62  86 118 159 201 242 292 348
#     4  12  26  40  59  86 121 155 200 249 293 348
#
# _framework density 19.659262999999999
#
# number of rings (size 3 to 8) (size 9 to 14) (size 15 to 20)
#    0.000    2.000    1.000    1.500    4.200    2.800 
#    0.000    0.000    0.000    0.000    0.000    0.000 
#    0.000    0.000    0.000    0.000    0.000    0.000 
#
# Total GULP energy -496078.946422 kJ/mol
# GULP energy per Si atom -12401.973661 kJ/mol
# Density = 1.961452 g / cm^3
# Si number density = 19.659263 Si / 1000 Ang^3
#
#
#
# Elastic Constant Matrix: (Units=GPa)
#
#
# Indices 1 2 3 4 5 6 
#
# 1 19.8514 15.7060 22.1878 0.0000 0.0000 0.0000
# 2 15.7060 117.7134 58.5602 0.0000 0.0000 0.0000
# 3 22.1878 58.5602 116.1711 0.0000 0.0000 0.0000
# 4 0.0000 0.0000 0.0000 36.0244 0.0000 0.0000
# 5 0.0000 0.0000 0.0000 0.0000 46.0623 0.0000
# 6 0.0000 0.0000 0.0000 0.0000 0.0000 30.5808
#
#
#
# Elastic Compliance Matrix: (Units=1/GPa)
#
#
# Indices 1 2 3 4 5 6 
#
# 1 0.065012 -0.003333 -0.010737 0.000000 0.000000 0.000000
# 2 -0.003333 0.011510 -0.005165 0.000000 0.000000 0.000000
# 3 -0.010737 -0.005165 0.013262 0.000000 0.000000 0.000000
# 4 0.000000 0.000000 0.000000 0.027759 0.000000 0.000000
# 5 0.000000 0.000000 0.000000 0.000000 0.021710 0.000000
# 6 0.000000 0.000000 0.000000 0.000000 0.000000 0.032700
#
#
# Mechanical properties :
#
#
# Convention : Reuss Voigt Hill
#
# Bulk Modulus (GPa) = 19.48794 49.62712 34.55753
# Shear Modulus (GPa) = 21.97547 33.01897 27.49722
#
# Velocity S-wave (km/s) = 3.34700 4.10269 3.74396
# Velocity P-wave (km/s) = 4.98708 6.90950 6.02545
#
# Compressibility (1/GPa) = 0.05131378
#
# Stress axis : x y z
#
# Youngs Moduli (GPa) = 15.38188 86.88473 75.40161
#
# Poissons Ratio (x) = 0.28958 0.80956
# Poissons Ratio (y) = 0.05127 0.38946
# Poissons Ratio (z) = 0.16515 0.44878
#
# Static dielectric constant tensor:
#      x y z
#    x 3.470980 0.000000 0.000000 
#    y 0.000000 3.624530 0.000000 
#    z 0.000000 0.000000 3.759100 
# 
# 
# High freq. dielectric constant tensor:
#      x y z
#    x 1.754900 0.000000 0.000000 
#    y 0.000000 1.776780 0.000000 
#    z 0.000000 0.000000 1.770760 
# 
# From -- ./inp_files/40597.got.cif
#   From: 2010.03.12/outbox.cif.g09.slc.cpg/sg63_21_cif.got.tgz:40597.got - 2010.04.10 19:34:48.
