data_PCOD8260250
_publ_section_title
;
Structure prediction by ZEFSAII (Michael W. Deem and Ramdas Pophale) SiO2 
 PCOD8260250
Probable space group: C M C M
;
_chemical_formula_sum "Si O2"
_cell_formula_units_Z 104
_cell_length_a 26.312196
_cell_length_b 24.122752
_cell_length_c 8.689058
_cell_angle_alpha 90.000000
_cell_angle_beta 90.000000
_cell_angle_gamma 90.000000
_cell_volume 5515.141300
_symmetry_space_group_name_H-M "C M C M"
_symmetry_group_IT_number 63
_symmetry_cell_setting 'orthorhombic'
loop_
_space_group_symop_operation_xyz
x,y,z
-x,-y,1/2+z
x,-y,-z
-x,y,1/2-z
-x,-y,-z
x,y,1/2-z
-x,y,z
x,-y,1/2+z
1/2+x,1/2+y,z
1/2-x,1/2-y,1/2+z
1/2+x,1/2-y,-z
1/2-x,1/2+y,1/2-z
1/2-x,1/2-y,-z
1/2+x,1/2+y,1/2-z
1/2-x,1/2+y,z
1/2+x,1/2-y,1/2+z
loop_
_atom_site_type_symbol
_atom_site_label
_atom_site_fract_x
_atom_site_fract_y
_atom_site_fract_z
Si Si1 0.288092 0.154379 0.071147
Si Si2 0.867181 0.265111 0.069502
Si Si3 0.000000 0.940118 0.069130
Si Si4 0.637149 0.939907 0.572606
Si Si5 0.558475 0.848900 0.567806
Si Si6 0.108881 0.059973 0.568781
Si Si7 0.178257 0.841239 0.431634
O O1 0.295517 0.170391 0.250000
O O2 0.309808 0.092397 0.040861
O O3 0.318973 0.196656 0.966200
O O4 0.230015 0.160535 0.026105
O O5 0.870701 0.253616 0.250000
O O6 0.919113 0.293879 0.011740
O O7 0.859574 0.207803 0.979427
O O8 0.946142 0.913478 0.015726
O O9 0.000000 0.944833 0.250000
O O10 0.000000 0.000000 0.000000
O O11 0.628083 0.950222 0.750000
O O12 0.590084 0.902707 0.509521
O O13 0.638936 0.000000 0.500000
O O14 0.564839 0.841615 0.750000
O O15 0.500000 0.856398 0.518739
O O16 0.109474 0.052877 0.750000
O O17 0.152304 0.101728 0.515510
O O18 0.120262 0.000000 0.500000
O O19 0.189055 0.838693 0.250000
#
# Coordination Sequence:
#
# PCOD8260250 Si02
#       7
#    16  16   8  16  16  16  16
#     4  10  21  38  57  77 106 145 184 225 274 327
#     4  11  22  37  57  81 109 141 180 229 277 326
#     4   8  14  30  52  72  94 128 168 204 245 296
#     4   9  19  34  54  81 112 146 186 226 271 328
#     4   9  19  38  60  81 111 151 189 229 278 329
#     4   9  19  34  54  77 105 137 175 217 262 317
#     4  11  22  36  54  81 110 141 182 224 272 331
#
# _framework density 18.857178000000001
#
# number of rings (size 3 to 8) (size 9 to 14) (size 15 to 20)
#    0.000    2.308    0.000    3.692    0.000    5.538 
#    1.385    3.077    0.000    0.000    0.000    0.000 
#    0.000    0.000    0.000    0.000    0.000    0.000 
#
# Total GULP energy -644511.994180 kJ/mol
# GULP energy per Si atom -12394.461427 kJ/mol
# Density = 1.881426 g / cm^3
# Si number density = 18.857178 Si / 1000 Ang^3
#
#
#
# Elastic Constant Matrix: (Units=GPa)
#
#
# Indices 1 2 3 4 5 6 
#
# 1 54.0980 28.3737 20.3715 0.0000 0.0000 0.0000
# 2 28.3737 107.2047 21.2108 0.0000 0.0000 0.0000
# 3 20.3715 21.2108 36.9744 0.0000 0.0000 0.0000
# 4 0.0000 0.0000 0.0000 31.3976 0.0000 0.0000
# 5 0.0000 0.0000 0.0000 0.0000 25.8245 0.0000
# 6 0.0000 0.0000 0.0000 0.0000 0.0000 11.1535
#
#
#
# Elastic Compliance Matrix: (Units=1/GPa)
#
#
# Indices 1 2 3 4 5 6 
#
# 1 0.025035 -0.004396 -0.011272 0.000000 0.000000 0.000000
# 2 -0.004396 0.011294 -0.004057 0.000000 0.000000 0.000000
# 3 -0.011272 -0.004057 0.035583 0.000000 0.000000 0.000000
# 4 0.000000 0.000000 0.000000 0.031850 0.000000 0.000000
# 5 0.000000 0.000000 0.000000 0.000000 0.038723 0.000000
# 6 0.000000 0.000000 0.000000 0.000000 0.000000 0.089658
#
#
# Mechanical properties :
#
#
# Convention : Reuss Voigt Hill
#
# Bulk Modulus (GPa) = 30.80389 37.57659 34.19024
# Shear Modulus (GPa) = 17.70454 22.22986 19.96720
#
# Velocity S-wave (km/s) = 3.06743 3.43717 3.25755
# Velocity P-wave (km/s) = 5.37739 5.97682 5.68501
#
# Compressibility (1/GPa) = 0.03246343
#
# Stress axis : x y z
#
# Youngs Moduli (GPa) = 39.94392 88.54182 28.10295
#
# Poissons Ratio (x) = 0.38922 0.31677
# Poissons Ratio (y) = 0.17559 0.11401
# Poissons Ratio (z) = 0.45024 0.35922
#
# Static dielectric constant tensor:
#      x y z
#    x 3.911090 0.000000 0.000000 
#    y 0.000000 3.695360 0.000000 
#    z 0.000000 0.000000 3.380870 
# 
# 
# High freq. dielectric constant tensor:
#      x y z
#    x 1.740600 0.000000 0.000000 
#    y 0.000000 1.724620 0.000000 
#    z 0.000000 0.000000 1.730220 
# 
# From -- ./inp_files/12852.got.cif
#   From: 2010.03.12/outbox.cif.g09.slc.cpg/sg63_7_cif.got.tgz:12852.got - 2010.04.10 19:34:48.
