data_PCOD8260330
_publ_section_title
;
Structure prediction by ZEFSAII (Michael W. Deem and Ramdas Pophale) SiO2 
 PCOD8260330
Probable space group: C M C M
;
_chemical_formula_sum "Si O2"
_cell_formula_units_Z 112
_cell_length_a 27.750850
_cell_length_b 11.054053
_cell_length_c 17.106477
_cell_angle_alpha 90.000000
_cell_angle_beta 90.000000
_cell_angle_gamma 90.000000
_cell_volume 5247.572051
_symmetry_space_group_name_H-M "C M C M"
_symmetry_group_IT_number 63
_symmetry_cell_setting 'orthorhombic'
loop_
_space_group_symop_operation_xyz
x,y,z
-x,-y,1/2+z
x,-y,-z
-x,y,1/2-z
-x,-y,-z
x,y,1/2-z
-x,y,z
x,-y,1/2+z
1/2+x,1/2+y,z
1/2-x,1/2-y,1/2+z
1/2+x,1/2-y,-z
1/2-x,1/2+y,1/2-z
1/2-x,1/2-y,-z
1/2+x,1/2+y,1/2-z
1/2-x,1/2+y,z
1/2+x,1/2-y,1/2+z
loop_
_atom_site_type_symbol
_atom_site_label
_atom_site_fract_x
_atom_site_fract_y
_atom_site_fract_z
Si Si1 0.552614 0.441150 0.337393
Si Si2 0.054449 0.338178 0.076458
Si Si3 0.118337 0.515592 0.161532
Si Si4 0.118814 0.158430 0.338584
Si Si5 0.553318 0.191605 0.398985
Si Si6 0.728114 0.717329 0.341229
Si Si7 0.719827 0.981555 0.090940
O O1 0.553642 0.385208 0.250000
O O2 0.500000 0.507371 0.349019
O O3 0.599820 0.522823 0.347560
O O4 0.556792 0.336491 0.401774
O O5 0.070576 0.450849 0.128680
O O6 0.088836 0.228995 0.097899
O O7 0.000000 0.305411 0.098615
O O8 0.059904 0.364671 0.984902
O O9 0.131561 0.479555 0.250000
O O10 0.099091 0.652578 0.154908
O O11 0.162995 0.479785 0.107600
O O12 0.109740 0.206008 0.250000
O O13 0.174461 0.172529 0.360592
O O14 0.500000 0.154892 0.366731
O O15 0.736599 0.740209 0.250000
O O16 0.740354 0.848213 0.382477
O O17 0.760495 0.602098 0.365993
O O18 0.730591 0.000000 0.000000
#
# Coordination Sequence:
#
# PCOD8260330 Si02
#       7
#    16  16  16  16  16  16  16
#     4   9  18  35  58  86 124 169 215 264 318 384
#     4  11  22  37  60  91 128 167 209 259 320 385
#     4  12  24  40  64  92 124 168 217 268 327 393
#     4  10  21  38  61  89 124 164 212 262 318 383
#     4  10  22  38  57  88 130 171 212 265 326 392
#     4  11  24  46  72 100 135 176 224 284 346 411
#     4  12  26  47  72 100 137 175 226 285 349 413
#
# _framework density 21.343202999999999
#
# number of rings (size 3 to 8) (size 9 to 14) (size 15 to 20)
#    0.000    1.286    1.429    4.714    0.000    6.000 
#    2.571    5.000    0.000    0.000    0.000    0.000 
#    0.000    0.000    0.000    0.000    0.000    0.000 
#
# Total GULP energy -693859.849953 kJ/mol
# GULP energy per Si atom -12390.354463 kJ/mol
# Density = 2.129463 g / cm^3
# Si number density = 21.343203 Si / 1000 Ang^3
#
#
#
# Elastic Constant Matrix: (Units=GPa)
#
#
# Indices 1 2 3 4 5 6 
#
# 1 73.6706 33.4680 27.0779 0.0000 0.0000 0.0000
# 2 33.4680 113.3654 33.6061 0.0000 0.0000 0.0000
# 3 27.0779 33.6061 82.6570 0.0000 0.0000 0.0000
# 4 0.0000 0.0000 0.0000 36.7184 0.0000 0.0000
# 5 0.0000 0.0000 0.0000 0.0000 60.3973 0.0000
# 6 0.0000 0.0000 0.0000 0.0000 0.0000 42.3388
#
#
#
# Elastic Compliance Matrix: (Units=1/GPa)
#
#
# Indices 1 2 3 4 5 6 
#
# 1 0.016739 -0.003771 -0.003951 0.000000 0.000000 0.000000
# 2 -0.003771 0.010879 -0.003188 0.000000 0.000000 0.000000
# 3 -0.003951 -0.003188 0.014689 0.000000 0.000000 0.000000
# 4 0.000000 0.000000 0.000000 0.027234 0.000000 0.000000
# 5 0.000000 0.000000 0.000000 0.000000 0.016557 0.000000
# 6 0.000000 0.000000 0.000000 0.000000 0.000000 0.023619
#
#
# Mechanical properties :
#
#
# Convention : Reuss Voigt Hill
#
# Bulk Modulus (GPa) = 48.80804 50.88856 49.84830
# Shear Modulus (GPa) = 36.13637 39.59363 37.86500
#
# Velocity S-wave (km/s) = 4.11920 4.31175 4.21658
# Velocity P-wave (km/s) = 6.74845 6.97732 6.86384
#
# Compressibility (1/GPa) = 0.02048843
#
# Stress axis : x y z
#
# Youngs Moduli (GPa) = 59.74096 91.91809 68.08046
#
# Poissons Ratio (x) = 0.34659 0.26895
# Poissons Ratio (y) = 0.22526 0.21704
# Poissons Ratio (z) = 0.23601 0.29303
#
# Static dielectric constant tensor:
#      x y z
#    x 3.894170 0.000000 0.000000 
#    y 0.000000 4.093510 0.000000 
#    z 0.000000 0.000000 3.866060 
# 
# 
# High freq. dielectric constant tensor:
#      x y z
#    x 1.835300 0.000000 0.000000 
#    y 0.000000 1.843920 0.000000 
#    z 0.000000 0.000000 1.833380 
# 
# From -- ./inp_files/38571.got.cif
#   From: 2010.03.12/outbox.cif.g09.slc.cpg/sg63_20_cif.got.tgz:38571.got - 2010.04.10 19:34:48.
