data_PCOD8260445
_publ_section_title
;
Structure prediction by ZEFSAII (Michael W. Deem and Ramdas Pophale) SiO2 
 PCOD8260445
Probable space group: C M C M
;
_chemical_formula_sum "Si O2"
_cell_formula_units_Z 72
_cell_length_a 7.731473
_cell_length_b 14.923119
_cell_length_c 29.185728
_cell_angle_alpha 90.000000
_cell_angle_beta 90.000000
_cell_angle_gamma 90.000000
_cell_volume 3367.381925
_symmetry_space_group_name_H-M "C M C M"
_symmetry_group_IT_number 63
_symmetry_cell_setting 'orthorhombic'
loop_
_space_group_symop_operation_xyz
x,y,z
-x,-y,1/2+z
x,-y,-z
-x,y,1/2-z
-x,-y,-z
x,y,1/2-z
-x,y,z
x,-y,1/2+z
1/2+x,1/2+y,z
1/2-x,1/2-y,1/2+z
1/2+x,1/2-y,-z
1/2-x,1/2+y,1/2-z
1/2-x,1/2-y,-z
1/2+x,1/2+y,1/2-z
1/2-x,1/2+y,z
1/2+x,1/2-y,1/2+z
loop_
_atom_site_type_symbol
_atom_site_label
_atom_site_fract_x
_atom_site_fract_y
_atom_site_fract_z
Si Si1 0.313562 0.095954 0.976125
Si Si2 0.000000 0.084733 0.198122
Si Si3 0.798134 0.166003 0.885730
Si Si4 0.000000 0.196518 0.112211
Si Si5 0.197663 0.448018 0.302101
Si Si6 0.000000 0.900271 0.524137
O O1 0.500000 0.145021 0.977235
O O2 0.245174 0.088898 0.923486
O O3 0.170829 0.150989 0.005307
O O4 0.332940 0.000000 0.000000
O O5 0.000000 0.169458 0.165171
O O6 0.000000 0.120494 0.250000
O O7 0.826426 0.029384 0.187692
O O8 0.676280 0.249792 0.898055
O O9 0.747234 0.133061 0.835265
O O10 0.000000 0.193323 0.887248
O O11 0.000000 0.107974 0.079294
O O12 0.222741 0.413825 0.250000
O O13 0.000000 0.479673 0.310581
O O14 0.000000 0.000000 0.500000
#
# Coordination Sequence:
#
# PCOD8260445 Si02
#       6
#    16   8  16   8  16   8
#     4  10  21  39  65  93 122 171 220 268 324 391
#     4  10  24  44  70 101 134 176 221 267 321 400
#     4  12  24  42  67  98 138 172 219 275 335 397
#     4  12  28  44  63 102 139 174 217 278 340 383
#     4  10  21  40  71 102 130 171 220 268 323 398
#     4  10  24  42  66  91 123 178 217 267 324 391
#
# _framework density 21.381595999999998
#
# number of rings (size 3 to 8) (size 9 to 14) (size 15 to 20)
#    0.000    1.333    4.444    0.000    6.222    3.556 
#    0.000    0.000    0.000    0.000    0.000    0.000 
#    0.000    0.000    0.000    0.000    0.000    0.000 
#
# Total GULP energy -446036.312155 kJ/mol
# GULP energy per Si atom -12389.897560 kJ/mol
# Density = 2.133293 g / cm^3
# Si number density = 21.381596 Si / 1000 Ang^3
#
#
#
# Elastic Constant Matrix: (Units=GPa)
#
#
# Indices 1 2 3 4 5 6 
#
# 1 232.0003 35.3950 56.5597 0.0000 0.0000 0.0000
# 2 35.3950 60.2164 51.6854 0.0000 0.0000 0.0000
# 3 56.5597 51.6854 144.3312 0.0000 0.0000 0.0000
# 4 0.0000 0.0000 0.0000 30.2215 0.0000 0.0000
# 5 0.0000 0.0000 0.0000 0.0000 30.4317 0.0000
# 6 0.0000 0.0000 0.0000 0.0000 0.0000 12.4683
#
#
#
# Elastic Compliance Matrix: (Units=1/GPa)
#
#
# Indices 1 2 3 4 5 6 
#
# 1 0.004894 -0.001777 -0.001282 0.000000 0.000000 0.000000
# 2 -0.001777 0.024621 -0.008121 0.000000 0.000000 0.000000
# 3 -0.001282 -0.008121 0.010339 0.000000 0.000000 0.000000
# 4 0.000000 0.000000 0.000000 0.033089 0.000000 0.000000
# 5 0.000000 0.000000 0.000000 0.000000 0.032860 0.000000
# 6 0.000000 0.000000 0.000000 0.000000 0.000000 0.080203
#
#
# Mechanical properties :
#
#
# Convention : Reuss Voigt Hill
#
# Bulk Modulus (GPa) = 57.15556 80.42535 68.79045
# Shear Modulus (GPa) = 23.34304 34.15149 28.74727
#
# Velocity S-wave (km/s) = 3.30773 4.00088 3.67070
# Velocity P-wave (km/s) = 6.43252 7.68366 7.08576
#
# Compressibility (1/GPa) = 0.01749611
#
# Stress axis : x y z
#
# Youngs Moduli (GPa) = 204.33958 40.61528 96.72319
#
# Poissons Ratio (x) = 0.07216 0.12396
# Poissons Ratio (y) = 0.36302 0.78547
# Poissons Ratio (z) = 0.26188 0.32983
#
# Static dielectric constant tensor:
#      x y z
#    x 5.641560 0.000000 0.000000 
#    y 0.000000 3.232550 0.000000 
#    z 0.000000 0.000000 4.071610 
# 
# 
# High freq. dielectric constant tensor:
#      x y z
#    x 1.878530 0.000000 0.000000 
#    y 0.000000 1.785000 0.000000 
#    z 0.000000 0.000000 1.856510 
# 
# From -- ./inp_files/66398.got.cif
#   From: 2010.03.12/outbox.cif.g09.slc.cpg/sg63_34_cif.got.tgz:66398.got - 2010.04.10 19:34:48.
