data_PCOD8260549
_publ_section_title
;
Structure prediction by ZEFSAII (Michael W. Deem and Ramdas Pophale) SiO2 
 PCOD8260549
Probable space group: C M C M
;
_chemical_formula_sum "Si O2"
_cell_formula_units_Z 112
_cell_length_a 14.218411
_cell_length_b 24.428297
_cell_length_c 15.208915
_cell_angle_alpha 90.000000
_cell_angle_beta 90.000000
_cell_angle_gamma 90.000000
_cell_volume 5282.536276
_symmetry_space_group_name_H-M "C M C M"
_symmetry_group_IT_number 63
_symmetry_cell_setting 'orthorhombic'
loop_
_space_group_symop_operation_xyz
x,y,z
-x,-y,1/2+z
x,-y,-z
-x,y,1/2-z
-x,-y,-z
x,y,1/2-z
-x,y,z
x,-y,1/2+z
1/2+x,1/2+y,z
1/2-x,1/2-y,1/2+z
1/2+x,1/2-y,-z
1/2-x,1/2+y,1/2-z
1/2-x,1/2-y,-z
1/2+x,1/2+y,1/2-z
1/2-x,1/2+y,z
1/2+x,1/2-y,1/2+z
loop_
_atom_site_type_symbol
_atom_site_label
_atom_site_fract_x
_atom_site_fract_y
_atom_site_fract_z
Si Si1 0.781737 0.910350 0.152684
Si Si2 0.110663 0.883782 0.976537
Si Si3 0.112197 0.283149 0.654167
Si Si4 0.104291 0.593558 0.148788
Si Si5 0.892404 0.336147 0.351198
Si Si6 0.889225 0.761795 0.525120
Si Si7 0.229750 0.974020 0.592715
O O1 0.813722 0.888965 0.250000
O O2 0.676739 0.887543 0.130670
O O3 0.780929 0.976776 0.162018
O O4 0.852433 0.891695 0.076420
O O5 0.138402 0.822692 0.944139
O O6 0.152658 0.925096 0.902817
O O7 0.000000 0.892968 0.979810
O O8 0.150342 0.262470 0.750000
O O9 0.144184 0.345418 0.637703
O O10 0.154547 0.248266 0.572974
O O11 0.000000 0.281112 0.656915
O O12 0.105759 0.576059 0.250000
O O13 0.167479 0.551802 0.095148
O O14 0.000000 0.589150 0.109151
O O15 0.889393 0.318169 0.250000
O O16 0.854317 0.283949 0.406357
O O17 0.000000 0.352409 0.377850
O O18 0.000000 0.756625 0.516028
O O19 0.213090 0.000000 0.500000
#
# Coordination Sequence:
#
# PCOD8260549 Si02
#       7
#    16  16  16  16  16  16  16
#     4  10  22  39  59  86 117 150 196 248 298 355
#     4  10  23  42  60  82 113 154 202 254 305 345
#     4   8  15  28  49  81 118 151 184 225 278 347
#     4   9  18  34  55  81 117 153 183 227 289 354
#     4   9  19  37  60  89 126 161 191 232 291 363
#     4   9  18  34  60  85 115 158 196 237 293 356
#     4  10  22  37  56  82 113 151 198 250 290 345
#
# _framework density 21.201937000000001
#
# number of rings (size 3 to 8) (size 9 to 14) (size 15 to 20)
#    0.000    2.714    0.000    1.286    4.000    4.857 
#    0.000    4.286    0.000    3.000    0.000    0.000 
#    0.000    0.000    0.000    0.000    0.000    0.000 
#
# Total GULP energy -693896.106631 kJ/mol
# GULP energy per Si atom -12391.001904 kJ/mol
# Density = 2.115368 g / cm^3
# Si number density = 21.201937 Si / 1000 Ang^3
#
#
#
# Elastic Constant Matrix: (Units=GPa)
#
#
# Indices 1 2 3 4 5 6 
#
# 1 79.3135 44.6986 12.9481 0.0000 0.0000 0.0000
# 2 44.6986 129.9855 38.5920 0.0000 0.0000 0.0000
# 3 12.9481 38.5920 57.3849 0.0000 0.0000 0.0000
# 4 0.0000 0.0000 0.0000 6.8187 0.0000 0.0000
# 5 0.0000 0.0000 0.0000 0.0000 16.1946 0.0000
# 6 0.0000 0.0000 0.0000 0.0000 0.0000 33.6528
#
#
#
# Elastic Compliance Matrix: (Units=1/GPa)
#
#
# Indices 1 2 3 4 5 6 
#
# 1 0.015640 -0.005411 0.000110 0.000000 0.000000 0.000000
# 2 -0.005411 0.011484 -0.006502 0.000000 0.000000 0.000000
# 3 0.000110 -0.006502 0.021774 0.000000 0.000000 0.000000
# 4 0.000000 0.000000 0.000000 0.146655 0.000000 0.000000
# 5 0.000000 0.000000 0.000000 0.000000 0.061749 0.000000
# 6 0.000000 0.000000 0.000000 0.000000 0.000000 0.029715
#
#
# Mechanical properties :
#
#
# Convention : Reuss Voigt Hill
#
# Bulk Modulus (GPa) = 39.53863 51.01791 45.27827
# Shear Modulus (GPa) = 15.67132 22.69623 19.18378
#
# Velocity S-wave (km/s) = 2.72167 3.27537 3.01127
# Velocity P-wave (km/s) = 5.34469 6.19832 5.78727
#
# Compressibility (1/GPa) = 0.02529172
#
# Stress axis : x y z
#
# Youngs Moduli (GPa) = 63.94056 87.07535 45.92552
#
# Poissons Ratio (x) = 0.47113 -0.00505
# Poissons Ratio (y) = 0.34596 0.29863
# Poissons Ratio (z) = -0.00703 0.56621
#
# Static dielectric constant tensor:
#      x y z
#    x 3.651970 0.000000 0.000000 
#    y 0.000000 4.384680 0.000000 
#    z 0.000000 0.000000 4.046590 
# 
# 
# High freq. dielectric constant tensor:
#      x y z
#    x 1.815000 0.000000 0.000000 
#    y 0.000000 1.833160 0.000000 
#    z 0.000000 0.000000 1.825190 
# 
# From -- ./inp_files/32586.got.cif
#   From: 2010.03.12/outbox.cif.g09.slc.cpg/sg63_17_cif.got.tgz:32586.got - 2010.04.10 19:34:48.
