data_PCOD8260423
_publ_section_title
;
Structure prediction by ZEFSAII (Michael W. Deem and Ramdas Pophale) SiO2 
 PCOD8260423
Probable space group: C M C M
;
_chemical_formula_sum "Si O2"
_cell_formula_units_Z 64
_cell_length_a 14.723354
_cell_length_b 24.390338
_cell_length_c 8.828923
_cell_angle_alpha 90.000000
_cell_angle_beta 90.000000
_cell_angle_gamma 90.000000
_cell_volume 3170.533177
_symmetry_space_group_name_H-M "C M C M"
_symmetry_group_IT_number 63
_symmetry_cell_setting 'orthorhombic'
loop_
_space_group_symop_operation_xyz
x,y,z
-x,-y,1/2+z
x,-y,-z
-x,y,1/2-z
-x,-y,-z
x,y,1/2-z
-x,y,z
x,-y,1/2+z
1/2+x,1/2+y,z
1/2-x,1/2-y,1/2+z
1/2+x,1/2-y,-z
1/2-x,1/2+y,1/2-z
1/2-x,1/2-y,-z
1/2+x,1/2+y,1/2-z
1/2-x,1/2+y,z
1/2+x,1/2-y,1/2+z
loop_
_atom_site_type_symbol
_atom_site_label
_atom_site_fract_x
_atom_site_fract_y
_atom_site_fract_z
Si Si1 0.500000 0.559245 0.073080
Si Si2 0.152993 0.254629 0.573728
Si Si3 0.857839 0.362867 0.427451
Si Si4 0.145038 0.866522 0.076691
Si Si5 0.500000 0.940557 0.570209
O O1 0.500000 0.550940 0.250000
O O2 0.500000 0.500000 0.000000
O O3 0.590559 0.591868 0.027745
O O4 0.161838 0.269153 0.750000
O O5 0.250000 0.250000 0.500000
O O6 0.102409 0.304676 0.489411
O O7 0.105455 0.195287 0.552325
O O8 0.878025 0.366206 0.250000
O O9 0.751372 0.369096 0.464851
O O10 0.909260 0.410908 0.513440
O O11 0.130155 0.884337 0.250000
O O12 0.500000 0.943771 0.750000
O O13 0.500000 0.000000 0.500000
#
# Coordination Sequence:
#
# PCOD8260423 Si02
#       5
#     8  16  16  16   8
#     4  12  26  41  60  83 112 151 197 245 289 342
#     4   9  17  32  57  89 122 155 190 235 290 349
#     4  10  21  39  63  90 120 155 194 241 292 347
#     4   9  20  39  62  87 119 154 190 236 289 342
#     4  12  26  43  62  85 116 155 199 247 293 348
#
# _framework density 20.185879
#
# number of rings (size 3 to 8) (size 9 to 14) (size 15 to 20)
#    0.000    2.000    0.000    5.250    0.000    8.000 
#    0.000    1.250    0.000    0.000    0.000    0.000 
#    0.000    0.000    0.000    0.000    0.000    0.000 
#
# Total GULP energy -396699.384076 kJ/mol
# GULP energy per Si atom -12396.855752 kJ/mol
# Density = 2.013994 g / cm^3
# Si number density = 20.185879 Si / 1000 Ang^3
#
#
#
# Elastic Constant Matrix: (Units=GPa)
#
#
# Indices 1 2 3 4 5 6 
#
# 1 88.3310 60.3383 52.2118 0.0000 0.0000 0.0000
# 2 60.3383 180.7733 92.9668 0.0000 0.0000 0.0000
# 3 52.2118 92.9668 168.0105 0.0000 0.0000 0.0000
# 4 0.0000 0.0000 0.0000 43.6393 0.0000 0.0000
# 5 0.0000 0.0000 0.0000 0.0000 33.1342 0.0000
# 6 0.0000 0.0000 0.0000 0.0000 0.0000 31.5346
#
#
#
# Elastic Compliance Matrix: (Units=1/GPa)
#
#
# Indices 1 2 3 4 5 6 
#
# 1 0.015514 -0.003772 -0.002734 0.000000 0.000000 0.000000
# 2 -0.003772 0.008649 -0.003614 0.000000 0.000000 0.000000
# 3 -0.002734 -0.003614 0.008801 0.000000 0.000000 0.000000
# 4 0.000000 0.000000 0.000000 0.022915 0.000000 0.000000
# 5 0.000000 0.000000 0.000000 0.000000 0.030180 0.000000
# 6 0.000000 0.000000 0.000000 0.000000 0.000000 0.031711
#
#
# Mechanical properties :
#
#
# Convention : Reuss Voigt Hill
#
# Bulk Modulus (GPa) = 78.58708 94.23874 86.41291
# Shear Modulus (GPa) = 35.14888 37.10149 36.12518
#
# Velocity S-wave (km/s) = 4.17737 4.29183 4.23499
# Velocity P-wave (km/s) = 7.89199 8.44669 8.17405
#
# Compressibility (1/GPa) = 0.01272474
#
# Stress axis : x y z
#
# Youngs Moduli (GPa) = 64.45878 115.61588 113.62084
#
# Poissons Ratio (x) = 0.43613 0.31062
# Poissons Ratio (y) = 0.24315 0.41060
# Poissons Ratio (z) = 0.17622 0.41780
#
# Static dielectric constant tensor:
#      x y z
#    x 3.479880 0.000000 0.000000 
#    y 0.000000 4.089870 0.000000 
#    z 0.000000 0.000000 3.884620 
# 
# 
# High freq. dielectric constant tensor:
#      x y z
#    x 1.779440 0.000000 0.000000 
#    y 0.000000 1.797490 0.000000 
#    z 0.000000 0.000000 1.797340 
# 
# From -- ./inp_files/4285.got.cif
#   From: 2010.03.12/outbox.cif.g09.slc.cpg/sg63_3_cif.got.tgz:4285.got - 2010.04.10 19:34:48.
