data_PCOD8260667
_publ_section_title
;
Structure prediction by ZEFSAII (Michael W. Deem and Ramdas Pophale) SiO2 
 PCOD8260667
Probable space group: C M C M
;
_chemical_formula_sum "Si O2"
_cell_formula_units_Z 88
_cell_length_a 11.983777
_cell_length_b 20.446598
_cell_length_c 18.225712
_cell_angle_alpha 90.000000
_cell_angle_beta 90.000000
_cell_angle_gamma 90.000000
_cell_volume 4465.800116
_symmetry_space_group_name_H-M "C M C M"
_symmetry_group_IT_number 63
_symmetry_cell_setting 'orthorhombic'
loop_
_space_group_symop_operation_xyz
x,y,z
-x,-y,1/2+z
x,-y,-z
-x,y,1/2-z
-x,-y,-z
x,y,1/2-z
-x,y,z
x,-y,1/2+z
1/2+x,1/2+y,z
1/2-x,1/2-y,1/2+z
1/2+x,1/2-y,-z
1/2-x,1/2+y,1/2-z
1/2-x,1/2-y,-z
1/2+x,1/2+y,1/2-z
1/2-x,1/2+y,z
1/2+x,1/2-y,1/2+z
loop_
_atom_site_type_symbol
_atom_site_label
_atom_site_fract_x
_atom_site_fract_y
_atom_site_fract_z
Si Si1 0.500000 0.487383 0.587867
Si Si2 0.500000 0.219213 0.667529
Si Si3 0.726347 0.502159 0.166511
Si Si4 0.278226 0.323919 0.481182
Si Si5 0.721505 0.142568 0.669297
Si Si6 0.630765 0.935292 0.952020
Si Si7 0.000000 0.156145 0.066093
O O1 0.500000 0.500000 0.500000
O O2 0.389187 0.516323 0.625302
O O3 0.500000 0.411126 0.610604
O O4 0.500000 0.245292 0.750000
O O5 0.603695 0.173996 0.649993
O O6 0.500000 0.282816 0.618607
O O7 0.704843 0.526942 0.250000
O O8 0.796134 0.435170 0.167431
O O9 0.799721 0.556357 0.123715
O O10 0.250000 0.250000 0.500000
O O11 0.302497 0.330944 0.394131
O O12 0.177441 0.371663 0.505976
O O13 0.391646 0.346021 0.516817
O O14 0.765760 0.164367 0.750000
O O15 0.500000 0.924382 0.935090
O O16 0.651243 0.000000 0.000000
#
# Coordination Sequence:
#
# PCOD8260667 Si02
#       7
#     8   8  16  16  16  16   8
#     4  12  23  42  63  94 136 166 216 268 325 388
#     4  10  22  40  62  92 128 164 215 272 315 370
#     4  11  23  40  65  97 131 171 213 265 330 389
#     4  12  24  41  65  97 131 168 219 263 321 388
#     4  10  22  40  63  93 127 164 211 268 323 379
#     4  11  24  42  67  94 128 167 213 272 323 380
#     4  12  24  40  66  93 122 177 213 268 313 387
#
# _framework density 19.705316
#
# number of rings (size 3 to 8) (size 9 to 14) (size 15 to 20)
#    0.000    0.909    5.455    1.909    3.818    1.091 
#    0.000    2.273    0.000    0.000    0.000    0.000 
#    0.000    0.000    0.000    0.000    0.000    0.000 
#
# Total GULP energy -545561.699922 kJ/mol
# GULP energy per Si atom -12399.129544 kJ/mol
# Density = 1.966047 g / cm^3
# Si number density = 19.705316 Si / 1000 Ang^3
#
#
#
# Elastic Constant Matrix: (Units=GPa)
#
#
# Indices 1 2 3 4 5 6 
#
# 1 113.2816 29.6565 45.0007 0.0000 0.0000 0.0000
# 2 29.6565 113.3086 41.1853 0.0000 0.0000 0.0000
# 3 45.0007 41.1853 146.3311 0.0000 0.0000 0.0000
# 4 0.0000 0.0000 0.0000 31.0523 0.0000 0.0000
# 5 0.0000 0.0000 0.0000 0.0000 31.2380 0.0000
# 6 0.0000 0.0000 0.0000 0.0000 0.0000 23.9655
#
#
#
# Elastic Compliance Matrix: (Units=1/GPa)
#
#
# Indices 1 2 3 4 5 6 
#
# 1 0.010351 -0.001729 -0.002697 0.000000 0.000000 0.000000
# 2 -0.001729 0.010120 -0.002317 0.000000 0.000000 0.000000
# 3 -0.002697 -0.002317 0.008315 0.000000 0.000000 0.000000
# 4 0.000000 0.000000 0.000000 0.032204 0.000000 0.000000
# 5 0.000000 0.000000 0.000000 0.000000 0.032012 0.000000
# 6 0.000000 0.000000 0.000000 0.000000 0.000000 0.041727
#
#
# Mechanical properties :
#
#
# Convention : Reuss Voigt Hill
#
# Bulk Modulus (GPa) = 65.35139 67.17849 66.26494
# Shear Modulus (GPa) = 32.61263 34.38973 33.50118
#
# Velocity S-wave (km/s) = 4.07260 4.18209 4.12771
# Velocity P-wave (km/s) = 7.43983 7.58191 7.51121
#
# Compressibility (1/GPa) = 0.01530189
#
# Stress axis : x y z
#
# Youngs Moduli (GPa) = 96.60447 98.81375 120.26274
#
# Poissons Ratio (x) = 0.17086 0.32431
# Poissons Ratio (y) = 0.16704 0.27860
# Poissons Ratio (z) = 0.26051 0.22891
#
# Static dielectric constant tensor:
#      x y z
#    x 3.503580 0.000000 0.000000 
#    y 0.000000 3.584370 0.000000 
#    z 0.000000 0.000000 3.610090 
# 
# 
# High freq. dielectric constant tensor:
#      x y z
#    x 1.766360 0.000000 0.000000 
#    y 0.000000 1.765990 0.000000 
#    z 0.000000 0.000000 1.781170 
# 
# From -- ./inp_files/42296.got.cif
#   From: 2010.03.12/outbox.cif.g09.slc.cpg/sg63_22_cif.got.tgz:42296.got - 2010.04.10 19:34:48.
