data_PCOD8260329
_publ_section_title
;
Structure prediction by ZEFSAII (Michael W. Deem and Ramdas Pophale) SiO2 
 PCOD8260329
Probable space group: C M C M
;
_chemical_formula_sum "Si O2"
_cell_formula_units_Z 96
_cell_length_a 24.751527
_cell_length_b 23.501244
_cell_length_c 8.642835
_cell_angle_alpha 90.000000
_cell_angle_beta 90.000000
_cell_angle_gamma 90.000000
_cell_volume 5027.465171
_symmetry_space_group_name_H-M "C M C M"
_symmetry_group_IT_number 63
_symmetry_cell_setting 'orthorhombic'
loop_
_space_group_symop_operation_xyz
x,y,z
-x,-y,1/2+z
x,-y,-z
-x,y,1/2-z
-x,-y,-z
x,y,1/2-z
-x,y,z
x,-y,1/2+z
1/2+x,1/2+y,z
1/2-x,1/2-y,1/2+z
1/2+x,1/2-y,-z
1/2-x,1/2+y,1/2-z
1/2-x,1/2-y,-z
1/2+x,1/2+y,1/2-z
1/2-x,1/2+y,z
1/2+x,1/2-y,1/2+z
loop_
_atom_site_type_symbol
_atom_site_label
_atom_site_fract_x
_atom_site_fract_y
_atom_site_fract_z
Si Si1 0.937222 0.560578 0.929173
Si Si2 0.062853 0.939931 0.930446
Si Si3 0.649332 0.359573 0.068618
Si Si4 0.846196 0.630027 0.068195
Si Si5 0.250512 0.438957 0.067457
Si Si6 0.809419 0.253213 0.431947
O O1 0.920246 0.560993 0.750000
O O2 0.000000 0.574039 0.951509
O O3 0.921636 0.500000 0.000000
O O4 0.905647 0.608825 0.023069
O O5 0.076095 0.940517 0.750000
O O6 0.000000 0.929401 0.964638
O O7 0.094797 0.889296 0.011918
O O8 0.081969 0.000000 0.000000
O O9 0.645975 0.349383 0.250000
O O10 0.700962 0.397070 0.022883
O O11 0.653756 0.298988 0.986083
O O12 0.840860 0.639095 0.250000
O O13 0.803615 0.583120 0.012210
O O14 0.837946 0.689338 0.983356
O O15 0.241474 0.442695 0.250000
O O16 0.265896 0.500000 0.000000
O O17 0.803751 0.252558 0.250000
O O18 0.750000 0.250000 0.500000
#
# Coordination Sequence:
#
# PCOD8260329 Si02
#       6
#    16  16  16  16  16  16
#     4  10  21  39  63  90 122 159 199 246 300 356
#     4  10  21  38  61  89 122 160 201 248 301 356
#     4  11  23  39  61  88 119 156 200 247 297 355
#     4  12  24  39  61  87 119 157 200 246 296 353
#     4  11  23  37  56  84 120 154 193 243 297 356
#     4  12  24  41  63  87 119 158 201 245 295 355
#
# _framework density 19.095109000000001
#
# number of rings (size 3 to 8) (size 9 to 14) (size 15 to 20)
#    0.000    1.000    1.667    6.000    0.000    5.333 
#    0.000    0.833    0.000    5.000    0.000    0.000 
#    0.000    0.000    0.000    0.000    0.000    0.000 
#
# Total GULP energy -595582.115678 kJ/mol
# GULP energy per Si atom -12407.960743 kJ/mol
# Density = 1.905165 g / cm^3
# Si number density = 19.095109 Si / 1000 Ang^3
#
#
#
# Elastic Constant Matrix: (Units=GPa)
#
#
# Indices 1 2 3 4 5 6 
#
# 1 81.1183 48.2327 40.7008 0.0000 0.0000 0.0000
# 2 48.2327 119.1052 43.9364 0.0000 0.0000 0.0000
# 3 40.7008 43.9364 117.1798 0.0000 0.0000 0.0000
# 4 0.0000 0.0000 0.0000 39.1642 0.0000 0.0000
# 5 0.0000 0.0000 0.0000 0.0000 33.4206 0.0000
# 6 0.0000 0.0000 0.0000 0.0000 0.0000 62.2256
#
#
#
# Elastic Compliance Matrix: (Units=1/GPa)
#
#
# Indices 1 2 3 4 5 6 
#
# 1 0.017734 -0.005697 -0.004023 0.000000 0.000000 0.000000
# 2 -0.005697 0.011574 -0.002361 0.000000 0.000000 0.000000
# 3 -0.004023 -0.002361 0.010817 0.000000 0.000000 0.000000
# 4 0.000000 0.000000 0.000000 0.025533 0.000000 0.000000
# 5 0.000000 0.000000 0.000000 0.000000 0.029922 0.000000
# 6 0.000000 0.000000 0.000000 0.000000 0.000000 0.016071
#
#
# Mechanical properties :
#
#
# Convention : Reuss Voigt Hill
#
# Bulk Modulus (GPa) = 62.65097 64.79369 63.72233
# Shear Modulus (GPa) = 35.42731 39.26431 37.34581
#
# Velocity S-wave (km/s) = 4.31200 4.53951 4.42722
# Velocity P-wave (km/s) = 7.59423 7.84104 7.71862
#
# Compressibility (1/GPa) = 0.01596145
#
# Stress axis : x y z
#
# Youngs Moduli (GPa) = 56.38859 86.40064 92.45087
#
# Poissons Ratio (x) = 0.49226 0.37197
# Poissons Ratio (y) = 0.32127 0.21825
# Poissons Ratio (z) = 0.22688 0.20397
#
# Static dielectric constant tensor:
#      x y z
#    x 3.482700 0.000000 0.000000 
#    y 0.000000 3.359460 0.000000 
#    z 0.000000 0.000000 10.316090 
# 
# 
# High freq. dielectric constant tensor:
#      x y z
#    x 1.742460 0.000000 0.000000 
#    y 0.000000 1.747870 0.000000 
#    z 0.000000 0.000000 1.763980 
# 
# From -- ./inp_files/10505.got.cif
#   From: 2010.03.12/outbox.cif.g09.slc.cpg/sg63_6_cif.got.tgz:10505.got - 2010.04.10 19:34:48.
