data_PCOD8260958
_publ_section_title
;
Structure prediction by ZEFSAII (Michael W. Deem and Ramdas Pophale) SiO2 
 PCOD8260958
Probable space group: C M C M
;
_chemical_formula_sum "Si O2"
_cell_formula_units_Z 96
_cell_length_a 23.545747
_cell_length_b 13.174773
_cell_length_c 17.943230
_cell_angle_alpha 90.000000
_cell_angle_beta 90.000000
_cell_angle_gamma 90.000000
_cell_volume 5566.167079
_symmetry_space_group_name_H-M "C M C M"
_symmetry_group_IT_number 63
_symmetry_cell_setting 'orthorhombic'
loop_
_space_group_symop_operation_xyz
x,y,z
-x,-y,1/2+z
x,-y,-z
-x,y,1/2-z
-x,-y,-z
x,y,1/2-z
-x,y,z
x,-y,1/2+z
1/2+x,1/2+y,z
1/2-x,1/2-y,1/2+z
1/2+x,1/2-y,-z
1/2-x,1/2+y,1/2-z
1/2-x,1/2-y,-z
1/2+x,1/2+y,1/2-z
1/2-x,1/2+y,z
1/2+x,1/2-y,1/2+z
loop_
_atom_site_type_symbol
_atom_site_label
_atom_site_fract_x
_atom_site_fract_y
_atom_site_fract_z
Si Si1 0.934926 0.659539 0.164475
Si Si2 0.833977 0.682768 0.910379
Si Si3 0.236144 0.848633 0.663940
Si Si4 0.663823 0.749150 0.921677
Si Si5 0.272672 0.546147 0.919154
Si Si6 0.565035 0.926223 0.336232
O O1 0.916828 0.674979 0.250000
O O2 0.898005 0.732332 0.112408
O O3 0.925598 0.542939 0.140861
O O4 0.000000 0.691065 0.152716
O O5 0.813464 0.767979 0.852236
O O6 0.791062 0.588312 0.910903
O O7 0.895892 0.644467 0.887058
O O8 0.837070 0.734235 0.990532
O O9 0.253051 0.843471 0.750000
O O10 0.291475 0.826565 0.614392
O O11 0.215608 0.961545 0.643433
O O12 0.681720 0.634293 0.904460
O O13 0.282329 0.500000 0.000000
O O14 0.581061 0.910828 0.250000
O O15 0.500000 0.894417 0.350761
#
# Coordination Sequence:
#
# PCOD8260958 Si02
#       6
#    16  16  16  16  16  16
#     4   9  19  35  53  77 108 138 174 220 264 312
#     4  11  21  33  55  78 108 143 173 218 264 318
#     4  11  22  35  53  80 107 138 180 220 260 316
#     4  11  21  34  56  77 107 142 175 217 268 316
#     4  11  20  37  53  75 109 144 174 214 268 315
#     4   9  19  35  54  78 110 143 175 217 267 317
#
# _framework density 17.247056000000001
#
# number of rings (size 3 to 8) (size 9 to 14) (size 15 to 20)
#    0.000    1.667    3.333    4.000    0.000    6.000 
#    0.000    1.667    0.000    1.500    0.000    2.333 
#    0.000    0.000    0.000    0.000    0.000    0.000 
#
# Total GULP energy -595398.557564 kJ/mol
# GULP energy per Si atom -12404.136616 kJ/mol
# Density = 1.720780 g / cm^3
# Si number density = 17.247056 Si / 1000 Ang^3
#
#
#
# Elastic Constant Matrix: (Units=GPa)
#
#
# Indices 1 2 3 4 5 6 
#
# 1 88.0073 36.2160 26.8854 0.0000 0.0000 0.0000
# 2 36.2160 85.2677 26.0803 0.0000 0.0000 0.0000
# 3 26.8854 26.0803 76.9328 0.0000 0.0000 0.0000
# 4 0.0000 0.0000 0.0000 23.3216 0.0000 0.0000
# 5 0.0000 0.0000 0.0000 0.0000 30.9821 0.0000
# 6 0.0000 0.0000 0.0000 0.0000 0.0000 23.1389
#
#
#
# Elastic Compliance Matrix: (Units=1/GPa)
#
#
# Indices 1 2 3 4 5 6 
#
# 1 0.014493 -0.005139 -0.003322 0.000000 0.000000 0.000000
# 2 -0.005139 0.014907 -0.003257 0.000000 0.000000 0.000000
# 3 -0.003322 -0.003257 0.015264 0.000000 0.000000 0.000000
# 4 0.000000 0.000000 0.000000 0.042879 0.000000 0.000000
# 5 0.000000 0.000000 0.000000 0.000000 0.032277 0.000000
# 6 0.000000 0.000000 0.000000 0.000000 0.000000 0.043217
#
#
# Mechanical properties :
#
#
# Convention : Reuss Voigt Hill
#
# Bulk Modulus (GPa) = 47.11454 47.61902 47.36678
# Shear Modulus (GPa) = 25.83324 26.22359 26.02841
#
# Velocity S-wave (km/s) = 3.87439 3.90355 3.88899
# Velocity P-wave (km/s) = 6.88413 6.92725 6.90572
#
# Compressibility (1/GPa) = 0.02122487
#
# Stress axis : x y z
#
# Youngs Moduli (GPa) = 69.00107 67.08290 65.51476
#
# Poissons Ratio (x) = 0.34476 0.21767
# Poissons Ratio (y) = 0.35461 0.21341
# Poissons Ratio (z) = 0.22925 0.21852
#
# Static dielectric constant tensor:
#      x y z
#    x 3.108350 0.000000 0.000000 
#    y 0.000000 3.241930 0.000000 
#    z 0.000000 0.000000 3.186340 
# 
# 
# High freq. dielectric constant tensor:
#      x y z
#    x 1.654430 0.000000 0.000000 
#    y 0.000000 1.660310 0.000000 
#    z 0.000000 0.000000 1.672370 
# 
# From -- ./inp_files/47963.got.cif
#   From: 2010.03.12/outbox.cif.g09.slc.cpg/sg63_24_cif.got.tgz:47963.got - 2010.04.10 19:34:48.
