data_PCOD8260943
_publ_section_title
;
Structure prediction by ZEFSAII (Michael W. Deem and Ramdas Pophale) SiO2 
 PCOD8260943
Probable space group: C M C M
;
_chemical_formula_sum "Si O2"
_cell_formula_units_Z 80
_cell_length_a 21.197212
_cell_length_b 22.853111
_cell_length_c 10.146350
_cell_angle_alpha 90.000000
_cell_angle_beta 90.000000
_cell_angle_gamma 90.000000
_cell_volume 4915.117582
_symmetry_space_group_name_H-M "C M C M"
_symmetry_group_IT_number 63
_symmetry_cell_setting 'orthorhombic'
loop_
_space_group_symop_operation_xyz
x,y,z
-x,-y,1/2+z
x,-y,-z
-x,y,1/2-z
-x,-y,-z
x,y,1/2-z
-x,y,z
x,-y,1/2+z
1/2+x,1/2+y,z
1/2-x,1/2-y,1/2+z
1/2+x,1/2-y,-z
1/2-x,1/2+y,1/2-z
1/2-x,1/2-y,-z
1/2+x,1/2+y,1/2-z
1/2-x,1/2+y,z
1/2+x,1/2-y,1/2+z
loop_
_atom_site_type_symbol
_atom_site_label
_atom_site_fract_x
_atom_site_fract_y
_atom_site_fract_z
Si Si1 0.264680 0.835982 0.908732
Si Si2 0.425188 0.251700 0.250000
Si Si3 0.350598 0.729249 0.997624
Si Si4 0.853367 0.432819 0.506659
Si Si5 0.929893 0.260675 0.250000
Si Si6 0.428988 0.898189 0.250000
Si Si7 0.426118 0.884892 0.750000
O O1 0.263427 0.837706 0.750000
O O2 0.310450 0.785866 0.961103
O O3 0.195127 0.825013 0.968133
O O4 0.288948 0.896748 0.970265
O O5 0.500000 0.258217 0.250000
O O6 0.396609 0.285096 0.123955
O O7 0.404717 0.183071 0.250000
O O8 0.393615 0.740234 0.122224
O O9 0.833098 0.500000 0.500000
O O10 0.889631 0.417722 0.374795
O O11 0.901192 0.418675 0.623693
O O12 0.935435 0.329495 0.250000
O O13 0.000000 0.233071 0.250000
O O14 0.500000 0.925676 0.250000
O O15 0.500000 0.889322 0.750000
#
# Coordination Sequence:
#
# PCOD8260943 Si02
#       7
#    16   8  16  16   8   8   8
#     4  11  21  36  54  73 104 138 178 215 266 316
#     4  11  20  35  57  81 109 140 173 212 258 312
#     4  11  20  34  55  77 101 138 173 209 264 321
#     4  12  23  36  52  71 100 139 188 228 258 297
#     4  11  20  33  51  77 107 132 169 218 262 308
#     4  11  23  35  47  73 105 134 180 229 261 291
#     4  11  21  37  53  69 105 150 186 215 257 305
#
# _framework density 16.276313999999999
#
# number of rings (size 3 to 8) (size 9 to 14) (size 15 to 20)
#    0.000    0.800    7.000    1.800    0.000    6.400 
#    0.000    0.000    0.000    0.000    0.000    0.000 
#    0.000    4.800    0.000    0.000    0.000    0.000 
#
# Total GULP energy -495975.800946 kJ/mol
# GULP energy per Si atom -12399.395024 kJ/mol
# Density = 1.623927 g / cm^3
# Si number density = 16.276314 Si / 1000 Ang^3
#
#
#
# Elastic Constant Matrix: (Units=GPa)
#
#
# Indices 1 2 3 4 5 6 
#
# 1 114.4804 62.9613 71.1457 0.0000 0.0000 0.0000
# 2 62.9613 81.6292 46.5229 0.0000 0.0000 0.0000
# 3 71.1457 46.5229 163.2871 0.0000 0.0000 0.0000
# 4 0.0000 0.0000 0.0000 18.6255 0.0000 0.0000
# 5 0.0000 0.0000 0.0000 0.0000 44.3306 0.0000
# 6 0.0000 0.0000 0.0000 0.0000 0.0000 22.2267
#
#
#
# Elastic Compliance Matrix: (Units=1/GPa)
#
#
# Indices 1 2 3 4 5 6 
#
# 1 0.017597 -0.010987 -0.004537 0.000000 0.000000 0.000000
# 2 -0.010987 0.021486 -0.001334 0.000000 0.000000 0.000000
# 3 -0.004537 -0.001334 0.008481 0.000000 0.000000 0.000000
# 4 0.000000 0.000000 0.000000 0.053690 0.000000 0.000000
# 5 0.000000 0.000000 0.000000 0.000000 0.022558 0.000000
# 6 0.000000 0.000000 0.000000 0.000000 0.000000 0.044991
#
#
# Mechanical properties :
#
#
# Convention : Reuss Voigt Hill
#
# Bulk Modulus (GPa) = 72.21735 80.07294 76.14514
# Shear Modulus (GPa) = 24.13882 28.95436 26.54659
#
# Velocity S-wave (km/s) = 3.85524 4.22231 4.04294
# Velocity P-wave (km/s) = 8.01767 8.54829 8.28723
#
# Compressibility (1/GPa) = 0.01384709
#
# Stress axis : x y z
#
# Youngs Moduli (GPa) = 56.82667 46.54295 117.90916
#
# Poissons Ratio (x) = 0.51138 0.53494
# Poissons Ratio (y) = 0.62437 0.15732
# Poissons Ratio (z) = 0.25782 0.06210
#
# Static dielectric constant tensor:
#      x y z
#    x 3.325230 0.000000 0.000000 
#    y 0.000000 3.066000 0.000000 
#    z 0.000000 0.000000 3.338700 
# 
# 
# High freq. dielectric constant tensor:
#      x y z
#    x 1.630210 0.000000 0.000000 
#    y 0.000000 1.584160 0.000000 
#    z 0.000000 0.000000 1.652580 
# 
# From -- ./inp_files/8132.got.cif
#   From: 2010.03.12/outbox.cif.g09.slc.cpg/sg63_5_cif.got.tgz:8132.got - 2010.04.10 19:34:48.
