data_PCOD8260142
_publ_section_title
;
Structure prediction by ZEFSAII (Michael W. Deem and Ramdas Pophale) SiO2 
 PCOD8260142
Probable space group: C M C M
;
_chemical_formula_sum "Si O2"
_cell_formula_units_Z 80
_cell_length_a 8.825183
_cell_length_b 25.218528
_cell_length_c 19.984878
_cell_angle_alpha 90.000000
_cell_angle_beta 90.000000
_cell_angle_gamma 90.000000
_cell_volume 4447.796968
_symmetry_space_group_name_H-M "C M C M"
_symmetry_group_IT_number 63
_symmetry_cell_setting 'orthorhombic'
loop_
_space_group_symop_operation_xyz
x,y,z
-x,-y,1/2+z
x,-y,-z
-x,y,1/2-z
-x,-y,-z
x,y,1/2-z
-x,y,z
x,-y,1/2+z
1/2+x,1/2+y,z
1/2-x,1/2-y,1/2+z
1/2+x,1/2-y,-z
1/2-x,1/2+y,1/2-z
1/2-x,1/2-y,-z
1/2+x,1/2+y,1/2-z
1/2-x,1/2+y,z
1/2+x,1/2-y,1/2+z
loop_
_atom_site_type_symbol
_atom_site_label
_atom_site_fract_x
_atom_site_fract_y
_atom_site_fract_z
Si Si1 0.322944 0.880898 0.048169
Si Si2 0.167654 0.016134 0.577111
Si Si3 0.675704 0.402300 0.908611
Si Si4 0.324943 0.698619 0.173235
Si Si5 0.178291 0.227182 0.932735
O O1 0.500000 0.871303 0.053935
O O2 0.280131 0.934599 0.088645
O O3 0.238058 0.831741 0.082309
O O4 0.277215 0.883892 0.970657
O O5 0.000000 0.033727 0.600538
O O6 0.166548 0.000000 0.500000
O O7 0.219897 0.962188 0.615602
O O8 0.500000 0.402017 0.932320
O O9 0.703450 0.362431 0.847540
O O10 0.277347 0.704720 0.250000
O O11 0.500000 0.714037 0.161516
O O12 0.219878 0.736901 0.130336
O O13 0.000000 0.226029 0.942812
O O14 0.250000 0.250000 0.000000
#
# Coordination Sequence:
#
# PCOD8260142 Si02
#       5
#    16  16  16  16  16
#     4  11  20  30  49  78 107 139 176 224 275 318
#     4   8  15  28  46  71 103 139 172 210 260 314
#     4   9  17  31  51  74 106 142 175 215 266 322
#     4  10  21  37  57  81 110 145 182 221 271 333
#     4  12  23  36  55  79 108 143 184 231 278 327
#
# _framework density 17.986432000000001
#
# number of rings (size 3 to 8) (size 9 to 14) (size 15 to 20)
#    0.000    2.000    2.000    4.800    0.000    4.000 
#    0.000    0.000    0.000    1.200    0.000    2.800 
#    0.000    0.000    0.000    0.000    0.000    0.000 
#
# Total GULP energy -495915.199187 kJ/mol
# GULP energy per Si atom -12397.879980 kJ/mol
# Density = 1.794549 g / cm^3
# Si number density = 17.986432 Si / 1000 Ang^3
#
#
#
# Elastic Constant Matrix: (Units=GPa)
#
#
# Indices 1 2 3 4 5 6 
#
# 1 123.9290 65.0040 37.7447 0.0000 0.0000 0.0000
# 2 65.0040 154.9631 49.4324 0.0000 0.0000 0.0000
# 3 37.7447 49.4324 69.9246 0.0000 0.0000 0.0000
# 4 0.0000 0.0000 0.0000 20.1803 0.0000 0.0000
# 5 0.0000 0.0000 0.0000 0.0000 18.8316 0.0000
# 6 0.0000 0.0000 0.0000 0.0000 0.0000 32.1685
#
#
#
# Elastic Compliance Matrix: (Units=1/GPa)
#
#
# Indices 1 2 3 4 5 6 
#
# 1 0.010951 -0.003496 -0.003439 0.000000 0.000000 0.000000
# 2 -0.003496 0.009449 -0.004792 0.000000 0.000000 0.000000
# 3 -0.003439 -0.004792 0.019545 0.000000 0.000000 0.000000
# 4 0.000000 0.000000 0.000000 0.049553 0.000000 0.000000
# 5 0.000000 0.000000 0.000000 0.000000 0.053102 0.000000
# 6 0.000000 0.000000 0.000000 0.000000 0.000000 0.031086
#
#
# Mechanical properties :
#
#
# Convention : Reuss Voigt Hill
#
# Bulk Modulus (GPa) = 60.64750 72.57543 66.61147
# Shear Modulus (GPa) = 24.67451 27.34512 26.00981
#
# Velocity S-wave (km/s) = 3.70785 3.90336 3.80686
# Velocity P-wave (km/s) = 7.21960 7.79440 7.51250
#
# Compressibility (1/GPa) = 0.01648873
#
# Stress axis : x y z
#
# Youngs Moduli (GPa) = 91.31914 105.83662 51.16306
#
# Poissons Ratio (x) = 0.37005 0.17596
# Poissons Ratio (y) = 0.31929 0.24518
# Poissons Ratio (z) = 0.31407 0.50719
#
# Static dielectric constant tensor:
#      x y z
#    x 3.270860 0.000000 0.000000 
#    y 0.000000 3.938310 0.000000 
#    z 0.000000 0.000000 2.938020 
# 
# 
# High freq. dielectric constant tensor:
#      x y z
#    x 1.693870 0.000000 0.000000 
#    y 0.000000 1.720910 0.000000 
#    z 0.000000 0.000000 1.638040 
# 
# From -- ./inp_files/40540.got.cif
#   From: 2010.03.12/outbox.cif.g09.slc.cpg/sg63_21_cif.got.tgz:40540.got - 2010.04.10 19:34:48.
