data_PCOD8260420
_publ_section_title
;
Structure prediction by ZEFSAII (Michael W. Deem and Ramdas Pophale) SiO2 
 PCOD8260420
Probable space group: C M C M
;
_chemical_formula_sum "Si O2"
_cell_formula_units_Z 112
_cell_length_a 15.016328
_cell_length_b 17.153943
_cell_length_c 21.832311
_cell_angle_alpha 90.000000
_cell_angle_beta 90.000000
_cell_angle_gamma 90.000000
_cell_volume 5623.768280
_symmetry_space_group_name_H-M "C M C M"
_symmetry_group_IT_number 63
_symmetry_cell_setting 'orthorhombic'
loop_
_space_group_symop_operation_xyz
x,y,z
-x,-y,1/2+z
x,-y,-z
-x,y,1/2-z
-x,-y,-z
x,y,1/2-z
-x,y,z
x,-y,1/2+z
1/2+x,1/2+y,z
1/2-x,1/2-y,1/2+z
1/2+x,1/2-y,-z
1/2-x,1/2+y,1/2-z
1/2-x,1/2-y,-z
1/2+x,1/2+y,1/2-z
1/2-x,1/2+y,z
1/2+x,1/2-y,1/2+z
loop_
_atom_site_type_symbol
_atom_site_label
_atom_site_fract_x
_atom_site_fract_y
_atom_site_fract_z
Si Si1 0.827621 0.190776 0.515570
Si Si2 0.397787 0.980324 0.570514
Si Si3 0.599965 0.194476 0.109017
Si Si4 0.747631 0.770485 0.319658
Si Si5 0.400910 0.687651 0.113458
Si Si6 0.763285 0.076381 0.885028
Si Si7 0.600860 0.470929 0.680237
O O1 0.750000 0.250000 0.500000
O O2 0.897158 0.239086 0.556896
O O3 0.874877 0.159046 0.454555
O O4 0.788490 0.115951 0.550520
O O5 0.500000 0.998168 0.589576
O O6 0.373981 0.889647 0.581366
O O7 0.381864 0.000000 0.500000
O O8 0.332571 0.034154 0.610979
O O9 0.500000 0.192608 0.136074
O O10 0.668286 0.216173 0.163116
O O11 0.722394 0.753866 0.250000
O O12 0.665251 0.754860 0.364721
O O13 0.766835 0.861415 0.329824
O O14 0.500000 0.723020 0.111678
O O15 0.394849 0.619254 0.162610
O O16 0.838451 0.014570 0.868388
O O17 0.635204 0.480076 0.750000
O O18 0.500000 0.502478 0.674324
#
# Coordination Sequence:
#
# PCOD8260420 Si02
#       7
#    16  16  16  16  16  16  16
#     4  11  21  39  58  93 123 155 195 247 306 359
#     4  10  22  37  59  91 123 159 194 233 297 368
#     4  10  21  39  63  89 121 158 200 249 301 357
#     4  11  24  41  61  88 118 157 209 252 298 354
#     4  11  23  40  63  88 121 161 201 248 301 362
#     4  11  23  37  65  88 125 156 199 248 309 354
#     4  10  23  42  62  87 120 162 206 246 296 357
#
# _framework density 19.915472000000001
#
# number of rings (size 3 to 8) (size 9 to 14) (size 15 to 20)
#    0.000    1.429    2.857    3.000    2.000    4.571 
#    0.000    2.143    0.000    3.000    0.000    0.000 
#    0.000    0.000    0.000    0.000    0.000    0.000 
#
# Total GULP energy -694482.951878 kJ/mol
# GULP energy per Si atom -12401.481284 kJ/mol
# Density = 1.987014 g / cm^3
# Si number density = 19.915472 Si / 1000 Ang^3
#
#
#
# Elastic Constant Matrix: (Units=GPa)
#
#
# Indices 1 2 3 4 5 6 
#
# 1 113.4544 33.5943 33.0465 0.0000 0.0000 0.0000
# 2 33.5943 71.4905 13.0556 0.0000 0.0000 0.0000
# 3 33.0465 13.0556 101.3674 0.0000 0.0000 0.0000
# 4 0.0000 0.0000 0.0000 23.2427 0.0000 0.0000
# 5 0.0000 0.0000 0.0000 0.0000 23.4260 0.0000
# 6 0.0000 0.0000 0.0000 0.0000 0.0000 26.2903
#
#
#
# Elastic Compliance Matrix: (Units=1/GPa)
#
#
# Indices 1 2 3 4 5 6 
#
# 1 0.011068 -0.004651 -0.003009 0.000000 0.000000 0.000000
# 2 -0.004651 0.016280 -0.000580 0.000000 0.000000 0.000000
# 3 -0.003009 -0.000580 0.010921 0.000000 0.000000 0.000000
# 4 0.000000 0.000000 0.000000 0.043024 0.000000 0.000000
# 5 0.000000 0.000000 0.000000 0.000000 0.042688 0.000000
# 6 0.000000 0.000000 0.000000 0.000000 0.000000 0.038037
#
#
# Mechanical properties :
#
#
# Convention : Reuss Voigt Hill
#
# Bulk Modulus (GPa) = 45.89982 49.52279 47.71131
# Shear Modulus (GPa) = 26.91633 28.36622 27.64127
#
# Velocity S-wave (km/s) = 3.68030 3.77812 3.72953
# Velocity P-wave (km/s) = 6.41536 6.62969 6.52341
#
# Compressibility (1/GPa) = 0.02178658
#
# Stress axis : x y z
#
# Youngs Moduli (GPa) = 90.35137 61.42655 91.56796
#
# Poissons Ratio (x) = 0.28572 0.27554
# Poissons Ratio (y) = 0.42026 0.05314
# Poissons Ratio (z) = 0.27188 0.03565
#
# Static dielectric constant tensor:
#      x y z
#    x 3.739960 0.000000 0.000000 
#    y 0.000000 3.586440 0.000000 
#    z 0.000000 0.000000 3.573790 
# 
# 
# High freq. dielectric constant tensor:
#      x y z
#    x 1.786480 0.000000 0.000000 
#    y 0.000000 1.775870 0.000000 
#    z 0.000000 0.000000 1.769930 
# 
# From -- ./inp_files/63014.got.cif
#   From: 2010.03.12/outbox.cif.g09.slc.cpg/sg63_32_cif.got.tgz:63014.got - 2010.04.10 19:34:48.
