data_PCOD8260367
_publ_section_title
;
Structure prediction by ZEFSAII (Michael W. Deem and Ramdas Pophale) SiO2 
 PCOD8260367
Probable space group: C M C M
;
_chemical_formula_sum "Si O2"
_cell_formula_units_Z 84
_cell_length_a 8.131217
_cell_length_b 26.655990
_cell_length_c 18.335782
_cell_angle_alpha 90.000000
_cell_angle_beta 90.000000
_cell_angle_gamma 90.000000
_cell_volume 3974.200787
_symmetry_space_group_name_H-M "C M C M"
_symmetry_group_IT_number 63
_symmetry_cell_setting 'orthorhombic'
loop_
_space_group_symop_operation_xyz
x,y,z
-x,-y,1/2+z
x,-y,-z
-x,y,1/2-z
-x,-y,-z
x,y,1/2-z
-x,y,z
x,-y,1/2+z
1/2+x,1/2+y,z
1/2-x,1/2-y,1/2+z
1/2+x,1/2-y,-z
1/2-x,1/2+y,1/2-z
1/2-x,1/2-y,-z
1/2+x,1/2+y,1/2-z
1/2-x,1/2+y,z
1/2+x,1/2-y,1/2+z
loop_
_atom_site_type_symbol
_atom_site_label
_atom_site_fract_x
_atom_site_fract_y
_atom_site_fract_z
Si Si1 0.683218 0.183506 0.032181
Si Si2 0.743714 0.000000 0.000000
Si Si3 0.000000 0.520345 0.750000
Si Si4 0.000000 0.334559 0.332354
Si Si5 0.685694 0.280610 0.388044
Si Si6 0.309892 0.450139 0.750000
Si Si7 0.822745 0.910654 0.904987
Si Si8 0.000000 0.435933 0.093020
O O1 0.500000 0.194010 0.002189
O O2 0.718307 0.221135 0.099919
O O3 0.690384 0.125938 0.058857
O O4 0.810924 0.192831 0.967261
O O5 0.841016 0.965216 0.943516
O O6 0.651930 0.040685 0.949973
O O7 0.173168 0.492329 0.750000
O O8 0.000000 0.552039 0.822439
O O9 0.831400 0.302121 0.337490
O O10 0.000000 0.375134 0.399903
O O11 0.000000 0.357419 0.250000
O O12 0.500000 0.289905 0.355675
O O13 0.500000 0.470803 0.750000
O O14 0.274992 0.416798 0.820884
O O15 0.000000 0.884204 0.910828
#
# Coordination Sequence:
#
# PCOD8260367 Si02
#       8
#    16   8   4   8  16   8  16   8
#     4  10  21  38  66  96 125 161 215 269 326 379
#     4  11  23  38  64  98 128 162 218 273 311 388
#     4  12  20  46  66  80 134 172 204 252 330 364
#     4  12  25  43  66  94 135 176 217 264 319 395
#     4  10  22  42  65  94 126 165 213 271 323 378
#     4  10  24  42  60  89 125 171 213 250 312 392
#     4  11  23  39  61  93 130 168 210 263 318 383
#     4  11  24  39  66  97 122 171 221 256 323 386
#
# _framework density 21.136324999999999
#
# number of rings (size 3 to 8) (size 9 to 14) (size 15 to 20)
#    0.000    1.333    3.333    2.000    6.667    0.381 
#    1.714    1.905    0.000    0.000    0.000    0.000 
#    0.000    0.000    0.000    0.000    0.000    0.000 
#
# Total GULP energy -520331.812611 kJ/mol
# GULP energy per Si atom -12388.852681 kJ/mol
# Density = 2.108822 g / cm^3
# Si number density = 21.136325 Si / 1000 Ang^3
#
#
#
# Elastic Constant Matrix: (Units=GPa)
#
#
# Indices 1 2 3 4 5 6 
#
# 1 101.7267 21.5364 15.6423 0.0000 0.0000 0.0000
# 2 21.5364 105.6856 29.2076 0.0000 0.0000 0.0000
# 3 15.6423 29.2076 96.6713 0.0000 0.0000 0.0000
# 4 0.0000 0.0000 0.0000 32.9125 0.0000 0.0000
# 5 0.0000 0.0000 0.0000 0.0000 18.6782 0.0000
# 6 0.0000 0.0000 0.0000 0.0000 0.0000 25.4349
#
#
#
# Elastic Compliance Matrix: (Units=1/GPa)
#
#
# Indices 1 2 3 4 5 6 
#
# 1 0.010387 -0.001803 -0.001136 0.000000 0.000000 0.000000
# 2 -0.001803 0.010637 -0.002922 0.000000 0.000000 0.000000
# 3 -0.001136 -0.002922 0.011411 0.000000 0.000000 0.000000
# 4 0.000000 0.000000 0.000000 0.030384 0.000000 0.000000
# 5 0.000000 0.000000 0.000000 0.000000 0.053538 0.000000
# 6 0.000000 0.000000 0.000000 0.000000 0.000000 0.039316
#
#
# Mechanical properties :
#
#
# Convention : Reuss Voigt Hill
#
# Bulk Modulus (GPa) = 48.27868 48.53959 48.40913
# Shear Modulus (GPa) = 28.68648 31.25162 29.96905
#
# Velocity S-wave (km/s) = 3.68803 3.84939 3.76958
# Velocity P-wave (km/s) = 6.40520 6.54003 6.47297
#
# Compressibility (1/GPa) = 0.02071308
#
# Stress axis : x y z
#
# Youngs Moduli (GPa) = 96.27818 94.01224 87.63471
#
# Poissons Ratio (x) = 0.16947 0.09955
# Poissons Ratio (y) = 0.17355 0.25608
# Poissons Ratio (z) = 0.10937 0.27471
#
# Static dielectric constant tensor:
#      x y z
#    x 3.807130 0.000000 0.000000 
#    y 0.000000 3.735620 0.000000 
#    z 0.000000 0.000000 3.716970 
# 
# 
# High freq. dielectric constant tensor:
#      x y z
#    x 1.832300 0.000000 0.000000 
#    y 0.000000 1.822800 0.000000 
#    z 0.000000 0.000000 1.823560 
# 
# From -- ./inp_files/51021.got.cif
#   From: 2010.03.12/outbox.cif.g09.slc.cpg/sg63_26_cif.got.tgz:51021.got - 2010.04.10 19:34:48.
