data_PCOD8260072
_publ_section_title
;
Structure prediction by ZEFSAII (Michael W. Deem and Ramdas Pophale) SiO2 
 PCOD8260072
Probable space group: C M C M
;
_chemical_formula_sum "Si O2"
_cell_formula_units_Z 96
_cell_length_a 13.260324
_cell_length_b 17.295981
_cell_length_c 19.806310
_cell_angle_alpha 90.000000
_cell_angle_beta 90.000000
_cell_angle_gamma 90.000000
_cell_volume 4542.583377
_symmetry_space_group_name_H-M "C M C M"
_symmetry_group_IT_number 63
_symmetry_cell_setting 'orthorhombic'
loop_
_space_group_symop_operation_xyz
x,y,z
-x,-y,1/2+z
x,-y,-z
-x,y,1/2-z
-x,-y,-z
x,y,1/2-z
-x,y,z
x,-y,1/2+z
1/2+x,1/2+y,z
1/2-x,1/2-y,1/2+z
1/2+x,1/2-y,-z
1/2-x,1/2+y,1/2-z
1/2-x,1/2-y,-z
1/2+x,1/2+y,1/2-z
1/2-x,1/2+y,z
1/2+x,1/2-y,1/2+z
loop_
_atom_site_type_symbol
_atom_site_label
_atom_site_fract_x
_atom_site_fract_y
_atom_site_fract_z
Si Si1 0.114216 0.401663 0.434132
Si Si2 0.612797 0.840585 0.922011
Si Si3 0.314038 0.480504 0.423933
Si Si4 0.111790 0.177890 0.869992
Si Si5 0.676553 0.786476 0.176774
Si Si6 0.285244 0.386396 0.671542
O O1 0.153242 0.369469 0.505828
O O2 0.192447 0.469199 0.415123
O O3 0.117567 0.332512 0.380364
O O4 0.000000 0.434240 0.437358
O O5 0.500000 0.870015 0.910399
O O6 0.618532 0.747245 0.924486
O O7 0.674706 0.876701 0.860335
O O8 0.344785 0.500000 0.500000
O O9 0.374940 0.403345 0.407187
O O10 0.345035 0.548083 0.371182
O O11 0.203918 0.192138 0.818622
O O12 0.000000 0.179443 0.835015
O O13 0.631660 0.808675 0.250000
O O14 0.657760 0.695427 0.163930
O O15 0.276607 0.411471 0.750000
#
# Coordination Sequence:
#
# PCOD8260072 Si02
#       6
#    16  16  16  16  16  16
#     4  10  21  36  58  84 114 149 188 236 281 334
#     4   9  18  35  59  85 108 141 191 239 284 328
#     4  11  22  34  55  84 119 156 185 229 283 343
#     4   9  20  36  57  83 109 142 188 238 286 332
#     4   9  20  37  59  82 108 147 192 234 281 334
#     4  10  21  37  55  79 114 151 187 230 280 341
#
# _framework density 21.133348999999999
#
# number of rings (size 3 to 8) (size 9 to 14) (size 15 to 20)
#    0.000    2.333    1.667    0.000    2.333    7.000 
#    0.000    4.167    0.000    1.000    0.000    0.000 
#    0.000    0.000    0.000    0.000    0.000    0.000 
#
# Total GULP energy -594906.837406 kJ/mol
# GULP energy per Si atom -12393.892446 kJ/mol
# Density = 2.108525 g / cm^3
# Si number density = 21.133349 Si / 1000 Ang^3
#
#
#
# Elastic Constant Matrix: (Units=GPa)
#
#
# Indices 1 2 3 4 5 6 
#
# 1 43.0516 -6.8353 -7.7071 0.0000 0.0000 0.0000
# 2 -6.8353 93.9372 39.4183 0.0000 0.0000 0.0000
# 3 -7.7071 39.4183 136.7094 0.0000 0.0000 0.0000
# 4 0.0000 0.0000 0.0000 29.0319 0.0000 0.0000
# 5 0.0000 0.0000 0.0000 0.0000 13.2751 0.0000
# 6 0.0000 0.0000 0.0000 0.0000 0.0000 16.4069
#
#
#
# Elastic Compliance Matrix: (Units=1/GPa)
#
#
# Indices 1 2 3 4 5 6 
#
# 1 0.023608 0.001319 0.000951 0.000000 0.000000 0.000000
# 2 0.001319 0.012184 -0.003439 0.000000 0.000000 0.000000
# 3 0.000951 -0.003439 0.008360 0.000000 0.000000 0.000000
# 4 0.000000 0.000000 0.000000 0.034445 0.000000 0.000000
# 5 0.000000 0.000000 0.000000 0.000000 0.075329 0.000000
# 6 0.000000 0.000000 0.000000 0.000000 0.000000 0.060950
#
#
# Mechanical properties :
#
#
# Convention : Reuss Voigt Hill
#
# Bulk Modulus (GPa) = 23.91594 35.93891 29.92743
# Shear Modulus (GPa) = 21.63080 28.33093 24.98087
#
# Velocity S-wave (km/s) = 3.20275 3.66536 3.44184
# Velocity P-wave (km/s) = 5.00181 5.91235 5.47604
#
# Compressibility (1/GPa) = 0.04181311
#
# Stress axis : x y z
#
# Youngs Moduli (GPa) = 42.35938 82.07211 119.61828
#
# Poissons Ratio (x) = -0.10824 -0.11371
# Poissons Ratio (y) = -0.05587 0.41135
# Poissons Ratio (z) = -0.04027 0.28223
#
# Static dielectric constant tensor:
#      x y z
#    x 3.635020 0.000000 0.000000 
#    y 0.000000 3.934000 0.000000 
#    z 0.000000 0.000000 3.720310 
# 
# 
# High freq. dielectric constant tensor:
#      x y z
#    x 1.807390 0.000000 0.000000 
#    y 0.000000 1.838440 0.000000 
#    z 0.000000 0.000000 1.817910 
# 
# From -- ./inp_files/54161.got.cif
#   From: 2010.03.12/outbox.cif.g09.slc.cpg/sg63_28_cif.got.tgz:54161.got - 2010.04.10 19:34:48.
