data_PCOD8260213
_publ_section_title
;
Structure prediction by ZEFSAII (Michael W. Deem and Ramdas Pophale) SiO2 
 PCOD8260213
Probable space group: C M C M
;
_chemical_formula_sum "Si O2"
_cell_formula_units_Z 72
_cell_length_a 15.437391
_cell_length_b 26.688640
_cell_length_c 8.605914
_cell_angle_alpha 90.000000
_cell_angle_beta 90.000000
_cell_angle_gamma 90.000000
_cell_volume 3545.662136
_symmetry_space_group_name_H-M "C M C M"
_symmetry_group_IT_number 63
_symmetry_cell_setting 'orthorhombic'
loop_
_space_group_symop_operation_xyz
x,y,z
-x,-y,1/2+z
x,-y,-z
-x,y,1/2-z
-x,-y,-z
x,y,1/2-z
-x,y,z
x,-y,1/2+z
1/2+x,1/2+y,z
1/2-x,1/2-y,1/2+z
1/2+x,1/2-y,-z
1/2-x,1/2+y,1/2-z
1/2-x,1/2-y,-z
1/2+x,1/2+y,1/2-z
1/2-x,1/2+y,z
1/2+x,1/2-y,1/2+z
loop_
_atom_site_type_symbol
_atom_site_label
_atom_site_fract_x
_atom_site_fract_y
_atom_site_fract_z
Si Si1 0.500000 0.266520 0.435298
Si Si2 0.000000 0.555297 0.566553
Si Si3 0.158976 0.053670 0.934800
Si Si4 0.825488 0.283380 0.566565
Si Si5 0.828261 0.602628 0.066011
Si Si6 0.500000 0.379281 0.434270
O O1 0.500000 0.267658 0.250000
O O2 0.416357 0.237283 0.499385
O O3 0.500000 0.323082 0.502249
O O4 0.000000 0.500000 0.500000
O O5 0.916570 0.584874 0.509795
O O6 0.000000 0.551974 0.750000
O O7 0.165864 0.051928 0.750000
O O8 0.086185 0.092641 0.993219
O O9 0.250829 0.068452 0.005699
O O10 0.131176 0.000000 0.000000
O O11 0.824431 0.278968 0.750000
O O12 0.750000 0.250000 0.500000
O O13 0.811779 0.340371 0.512635
O O14 0.836327 0.597620 0.250000
O O15 0.500000 0.378393 0.250000
#
# Coordination Sequence:
#
# PCOD8260213 Si02
#       6
#     8   8  16  16  16   8
#     4   9  17  34  57  82 111 148 187 226 276 337
#     4  12  25  42  64  89 117 154 197 246 297 355
#     4  11  22  38  59  85 115 152 195 242 293 349
#     4  10  21  37  60  86 117 154 193 236 285 339
#     4  11  23  40  60  87 121 157 195 241 294 350
#     4   9  19  34  57  85 115 150 191 236 285 340
#
# _framework density 20.306502999999999
#
# number of rings (size 3 to 8) (size 9 to 14) (size 15 to 20)
#    0.000    1.556    0.000    5.333    0.000    5.333 
#    0.000    2.222    0.000    5.333    0.000    0.000 
#    0.000    0.000    0.000    0.000    0.000    0.000 
#
# Total GULP energy -446564.263107 kJ/mol
# GULP energy per Si atom -12404.562864 kJ/mol
# Density = 2.026028 g / cm^3
# Si number density = 20.306503 Si / 1000 Ang^3
#
#
#
# Elastic Constant Matrix: (Units=GPa)
#
#
# Indices 1 2 3 4 5 6 
#
# 1 117.9825 17.0921 26.7181 0.0000 0.0000 0.0000
# 2 17.0921 109.8805 33.6968 0.0000 0.0000 0.0000
# 3 26.7181 33.6968 73.3621 0.0000 0.0000 0.0000
# 4 0.0000 0.0000 0.0000 26.1046 0.0000 0.0000
# 5 0.0000 0.0000 0.0000 0.0000 17.1899 0.0000
# 6 0.0000 0.0000 0.0000 0.0000 0.0000 45.6425
#
#
#
# Elastic Compliance Matrix: (Units=1/GPa)
#
#
# Indices 1 2 3 4 5 6 
#
# 1 0.009259 -0.000473 -0.003155 0.000000 0.000000 0.000000
# 2 -0.000473 0.010617 -0.004704 0.000000 0.000000 0.000000
# 3 -0.003155 -0.004704 0.016941 0.000000 0.000000 0.000000
# 4 0.000000 0.000000 0.000000 0.038307 0.000000 0.000000
# 5 0.000000 0.000000 0.000000 0.000000 0.058174 0.000000
# 6 0.000000 0.000000 0.000000 0.000000 0.000000 0.021909
#
#
# Mechanical properties :
#
#
# Convention : Reuss Voigt Hill
#
# Bulk Modulus (GPa) = 49.62151 50.69323 50.15737
# Shear Modulus (GPa) = 27.99725 32.70194 30.34960
#
# Velocity S-wave (km/s) = 3.71716 4.01735 3.87017
# Velocity P-wave (km/s) = 6.55075 6.82181 6.68765
#
# Compressibility (1/GPa) = 0.02015255
#
# Stress axis : x y z
#
# Youngs Moduli (GPa) = 108.00580 94.18816 59.02878
#
# Poissons Ratio (x) = 0.04452 0.18623
# Poissons Ratio (y) = 0.05106 0.27770
# Poissons Ratio (z) = 0.34074 0.44311
#
# Static dielectric constant tensor:
#      x y z
#    x 3.967350 0.000000 0.000000 
#    y 0.000000 4.022210 0.000000 
#    z 0.000000 0.000000 3.446270 
# 
# 
# High freq. dielectric constant tensor:
#      x y z
#    x 1.812640 0.000000 0.000000 
#    y 0.000000 1.814410 0.000000 
#    z 0.000000 0.000000 1.775330 
# 
# From -- ./inp_files/4694.got.cif
#   From: 2010.03.12/outbox.cif.g09.slc.cpg/sg63_3_cif.got.tgz:4694.got - 2010.04.10 19:34:48.
