data_PCOD8260406
_publ_section_title
;
Structure prediction by ZEFSAII (Michael W. Deem and Ramdas Pophale) SiO2 
 PCOD8260406
Probable space group: C M C M
;
_chemical_formula_sum "Si O2"
_cell_formula_units_Z 96
_cell_length_a 16.566814
_cell_length_b 20.014185
_cell_length_c 15.058100
_cell_angle_alpha 90.000000
_cell_angle_beta 90.000000
_cell_angle_gamma 90.000000
_cell_volume 4992.833495
_symmetry_space_group_name_H-M "C M C M"
_symmetry_group_IT_number 63
_symmetry_cell_setting 'orthorhombic'
loop_
_space_group_symop_operation_xyz
x,y,z
-x,-y,1/2+z
x,-y,-z
-x,y,1/2-z
-x,-y,-z
x,y,1/2-z
-x,y,z
x,-y,1/2+z
1/2+x,1/2+y,z
1/2-x,1/2-y,1/2+z
1/2+x,1/2-y,-z
1/2-x,1/2+y,1/2-z
1/2-x,1/2-y,-z
1/2+x,1/2+y,1/2-z
1/2-x,1/2+y,z
1/2+x,1/2-y,1/2+z
loop_
_atom_site_type_symbol
_atom_site_label
_atom_site_fract_x
_atom_site_fract_y
_atom_site_fract_z
Si Si1 0.860823 0.429517 0.464406
Si Si2 0.500000 0.719080 0.145941
Si Si3 0.904985 0.241549 0.750000
Si Si4 0.324757 0.439677 0.066733
Si Si5 0.500000 0.870556 0.354454
Si Si6 0.330795 0.190819 0.080285
Si Si7 0.096868 0.912777 0.250000
Si Si8 0.346752 0.686879 0.454532
O O1 0.891354 0.500000 0.500000
O O2 0.771595 0.434492 0.422273
O O3 0.866409 0.379818 0.548599
O O4 0.919485 0.406803 0.386584
O O5 0.500000 0.715492 0.250000
O O6 0.500000 0.794728 0.110509
O O7 0.578974 0.680848 0.112144
O O8 0.874775 0.282379 0.833877
O O9 0.874452 0.164914 0.750000
O O10 0.000000 0.241564 0.750000
O O11 0.366506 0.449519 0.162930
O O12 0.348074 0.500000 0.000000
O O13 0.358054 0.370464 0.027750
O O14 0.500000 0.873028 0.250000
O O15 0.235982 0.179517 0.100877
O O16 0.345324 0.241284 0.999986
O O17 0.000000 0.919693 0.250000
#
# Coordination Sequence:
#
# PCOD8260406 Si02
#       8
#    16   8   8  16   8  16   8  16
#     4  10  22  43  63  87 126 166 204 249 310 363
#     4  11  24  37  60  90 124 160 204 256 309 366
#     4  11  24  36  63  95 123 156 209 265 309 360
#     4  10  23  44  66  91 123 167 205 254 315 372
#     4  11  23  37  61  92 119 160 208 249 295 362
#     4  10  21  39  62  88 118 161 203 254 309 359
#     4  11  24  40  65  95 123 158 207 259 317 374
#     4  10  21  40  62  85 121 159 202 255 308 361
#
# _framework density 19.227558999999999
#
# number of rings (size 3 to 8) (size 9 to 14) (size 15 to 20)
#    0.000    1.667    3.333    0.250    5.833    0.333 
#    3.000    2.500    0.000    0.000    0.000    0.000 
#    0.000    0.000    0.000    0.000    0.000    0.000 
#
# Total GULP energy -595296.041271 kJ/mol
# GULP energy per Si atom -12402.000860 kJ/mol
# Density = 1.918380 g / cm^3
# Si number density = 19.227559 Si / 1000 Ang^3
#
#
#
# Elastic Constant Matrix: (Units=GPa)
#
#
# Indices 1 2 3 4 5 6 
#
# 1 99.3466 30.0524 51.4557 0.0000 0.0000 0.0000
# 2 30.0524 99.3058 41.4863 0.0000 0.0000 0.0000
# 3 51.4557 41.4863 96.1730 0.0000 0.0000 0.0000
# 4 0.0000 0.0000 0.0000 29.4766 0.0000 0.0000
# 5 0.0000 0.0000 0.0000 0.0000 32.2727 0.0000
# 6 0.0000 0.0000 0.0000 0.0000 0.0000 20.6995
#
#
#
# Elastic Compliance Matrix: (Units=1/GPa)
#
#
# Indices 1 2 3 4 5 6 
#
# 1 0.014073 -0.001358 -0.006944 0.000000 0.000000 0.000000
# 2 -0.001358 0.012415 -0.004629 0.000000 0.000000 0.000000
# 3 -0.006944 -0.004629 0.016110 0.000000 0.000000 0.000000
# 4 0.000000 0.000000 0.000000 0.033925 0.000000 0.000000
# 5 0.000000 0.000000 0.000000 0.000000 0.030986 0.000000
# 6 0.000000 0.000000 0.000000 0.000000 0.000000 0.048310
#
#
# Mechanical properties :
#
#
# Convention : Reuss Voigt Hill
#
# Bulk Modulus (GPa) = 59.74982 60.09044 59.92013
# Shear Modulus (GPa) = 26.70106 27.94517 27.32311
#
# Velocity S-wave (km/s) = 3.73055 3.81647 3.77376
# Velocity P-wave (km/s) = 7.04972 7.12325 7.08658
#
# Compressibility (1/GPa) = 0.01673645
#
# Stress axis : x y z
#
# Youngs Moduli (GPa) = 71.05803 80.55050 62.07431
#
# Poissons Ratio (x) = 0.10939 0.43103
# Poissons Ratio (y) = 0.09650 0.28732
# Poissons Ratio (z) = 0.49341 0.37284
#
# Static dielectric constant tensor:
#      x y z
#    x 3.623250 0.000000 0.000000 
#    y 0.000000 3.674600 0.000000 
#    z 0.000000 0.000000 3.281190 
# 
# 
# High freq. dielectric constant tensor:
#      x y z
#    x 1.757680 0.000000 0.000000 
#    y 0.000000 1.751350 0.000000 
#    z 0.000000 0.000000 1.736930 
# 
# From -- ./inp_files/32018.got.cif
#   From: 2010.03.12/outbox.cif.g09.slc.cpg/sg63_17_cif.got.tgz:32018.got - 2010.04.10 19:34:48.
