data_PCOD8260410
_publ_section_title
;
Structure prediction by ZEFSAII (Michael W. Deem and Ramdas Pophale) SiO2 
 PCOD8260410
Probable space group: C M C M
;
_chemical_formula_sum "Si O2"
_cell_formula_units_Z 72
_cell_length_a 21.125150
_cell_length_b 19.407337
_cell_length_c 8.671331
_cell_angle_alpha 90.000000
_cell_angle_beta 90.000000
_cell_angle_gamma 90.000000
_cell_volume 3555.097476
_symmetry_space_group_name_H-M "C M C M"
_symmetry_group_IT_number 63
_symmetry_cell_setting 'orthorhombic'
loop_
_space_group_symop_operation_xyz
x,y,z
-x,-y,1/2+z
x,-y,-z
-x,y,1/2-z
-x,-y,-z
x,y,1/2-z
-x,y,z
x,-y,1/2+z
1/2+x,1/2+y,z
1/2-x,1/2-y,1/2+z
1/2+x,1/2-y,-z
1/2-x,1/2+y,1/2-z
1/2-x,1/2-y,-z
1/2+x,1/2+y,1/2-z
1/2-x,1/2+y,z
1/2+x,1/2-y,1/2+z
loop_
_atom_site_type_symbol
_atom_site_label
_atom_site_fract_x
_atom_site_fract_y
_atom_site_fract_z
Si Si1 0.926140 0.705621 0.072979
Si Si2 0.369326 0.072775 0.570145
Si Si3 0.500000 0.575644 0.931654
Si Si4 0.615664 0.658512 0.069354
Si Si5 0.722454 0.427087 0.430151
O O1 0.905110 0.712260 0.250000
O O2 0.000000 0.720547 0.053314
O O3 0.911066 0.629902 0.012759
O O4 0.888011 0.761029 0.972277
O O5 0.384660 0.072608 0.750000
O O6 0.295804 0.087538 0.537042
O O7 0.389986 0.000000 0.500000
O O8 0.500000 0.569786 0.750000
O O9 0.500000 0.500000 0.000000
O O10 0.562201 0.615920 0.982041
O O11 0.606714 0.648195 0.250000
O O12 0.684285 0.632662 0.016207
O O13 0.701275 0.500000 0.500000
O O14 0.706431 0.427136 0.250000
#
# Coordination Sequence:
#
# PCOD8260410 Si02
#       5
#    16  16   8  16  16
#     4  11  24  42  64  89 122 162 203 254 309 363
#     4  10  22  41  66  93 122 158 202 253 307 366
#     4  12  24  40  60  86 121 162 207 252 298 354
#     4  12  24  39  61  89 122 162 204 250 303 362
#     4  10  21  39  62  90 124 161 203 252 304 361
#
# _framework density 20.252609
#
# number of rings (size 3 to 8) (size 9 to 14) (size 15 to 20)
#    0.000    1.111    1.111    5.667    0.000    5.333 
#    0.000    0.000    0.000    0.000    0.000    0.000 
#    0.000    0.000    0.000    0.000    0.000    0.000 
#
# Total GULP energy -446695.964807 kJ/mol
# GULP energy per Si atom -12408.221245 kJ/mol
# Density = 2.020651 g / cm^3
# Si number density = 20.252609 Si / 1000 Ang^3
#
#
#
# Elastic Constant Matrix: (Units=GPa)
#
#
# Indices 1 2 3 4 5 6 
#
# 1 25.6542 18.7544 29.6857 0.0000 0.0000 0.0000
# 2 18.7544 118.2669 44.9084 0.0000 0.0000 0.0000
# 3 29.6857 44.9084 145.5891 0.0000 0.0000 0.0000
# 4 0.0000 0.0000 0.0000 42.0517 0.0000 0.0000
# 5 0.0000 0.0000 0.0000 0.0000 32.0194 0.0000
# 6 0.0000 0.0000 0.0000 0.0000 0.0000 43.7831
#
#
#
# Elastic Compliance Matrix: (Units=1/GPa)
#
#
# Indices 1 2 3 4 5 6 
#
# 1 0.053422 -0.004910 -0.009378 0.000000 0.000000 0.000000
# 2 -0.004910 0.010029 -0.002092 0.000000 0.000000 0.000000
# 3 -0.009378 -0.002092 0.009426 0.000000 0.000000 0.000000
# 4 0.000000 0.000000 0.000000 0.023780 0.000000 0.000000
# 5 0.000000 0.000000 0.000000 0.000000 0.031231 0.000000
# 6 0.000000 0.000000 0.000000 0.000000 0.000000 0.022840
#
#
# Mechanical properties :
#
#
# Convention : Reuss Voigt Hill
#
# Bulk Modulus (GPa) = 24.92827 52.91191 38.92009
# Shear Modulus (GPa) = 25.39872 36.64827 31.02349
#
# Velocity S-wave (km/s) = 3.54516 4.25851 3.91810
# Velocity P-wave (km/s) = 5.39379 7.09665 6.30299
#
# Compressibility (1/GPa) = 0.04011510
#
# Stress axis : x y z
#
# Youngs Moduli (GPa) = 18.71905 99.71516 106.08745
#
# Poissons Ratio (x) = 0.48964 0.99489
# Poissons Ratio (y) = 0.09192 0.22195
# Poissons Ratio (z) = 0.17555 0.20862
#
# Static dielectric constant tensor:
#      x y z
#    x 3.679840 0.000000 0.000000 
#    y 0.000000 3.741060 0.000000 
#    z 0.000000 0.000000 3.717280 
# 
# 
# High freq. dielectric constant tensor:
#      x y z
#    x 1.788990 0.000000 0.000000 
#    y 0.000000 1.801270 0.000000 
#    z 0.000000 0.000000 1.810410 
# 
# From -- ./inp_files/9865.got.cif
#   From: 2010.03.12/outbox.cif.g09.slc.cpg/sg63_5_cif.got.tgz:9865.got - 2010.04.10 19:34:48.
