data_PCOD8260441
_publ_section_title
;
Structure prediction by ZEFSAII (Michael W. Deem and Ramdas Pophale) SiO2 
 PCOD8260441
Probable space group: C M C M
;
_chemical_formula_sum "Si O2"
_cell_formula_units_Z 64
_cell_length_a 8.863988
_cell_length_b 26.570875
_cell_length_c 13.376731
_cell_angle_alpha 90.000000
_cell_angle_beta 90.000000
_cell_angle_gamma 90.000000
_cell_volume 3150.540084
_symmetry_space_group_name_H-M "C M C M"
_symmetry_group_IT_number 63
_symmetry_cell_setting 'orthorhombic'
loop_
_space_group_symop_operation_xyz
x,y,z
-x,-y,1/2+z
x,-y,-z
-x,y,1/2-z
-x,-y,-z
x,y,1/2-z
-x,y,z
x,-y,1/2+z
1/2+x,1/2+y,z
1/2-x,1/2-y,1/2+z
1/2+x,1/2-y,-z
1/2-x,1/2+y,1/2-z
1/2-x,1/2-y,-z
1/2+x,1/2+y,1/2-z
1/2-x,1/2+y,z
1/2+x,1/2-y,1/2+z
loop_
_atom_site_type_symbol
_atom_site_label
_atom_site_fract_x
_atom_site_fract_y
_atom_site_fract_z
Si Si1 0.324596 0.128596 0.638486
Si Si2 0.328695 0.301802 0.750000
Si Si3 0.822111 0.554679 0.461231
Si Si4 0.322092 0.266074 0.400097
Si Si5 0.829495 0.920399 0.750000
O O1 0.300633 0.103991 0.750000
O O2 0.500000 0.139662 0.620727
O O3 0.264035 0.093387 0.547736
O O4 0.237004 0.181002 0.640016
O O5 0.500000 0.280589 0.750000
O O6 0.232016 0.282052 0.840623
O O7 0.329433 0.361025 0.750000
O O8 0.775565 0.500000 0.500000
O O9 0.749862 0.561933 0.352170
O O10 0.000000 0.559918 0.447582
O O11 0.500000 0.269324 0.404332
O O12 0.250000 0.250000 0.500000
O O13 0.000000 0.941442 0.750000
#
# Coordination Sequence:
#
# PCOD8260441 Si02
#       5
#    16   8  16  16   8
#     4  10  21  39  64  95 131 167 208 261 321 380
#     4  11  23  41  62  89 126 165 206 255 308 369
#     4  10  23  42  69  98 125 165 214 265 318 378
#     4  12  24  38  60  91 126 168 212 255 308 370
#     4  11  25  43  64  93 130 169 210 263 320 379
#
# _framework density 20.313977000000001
#
# number of rings (size 3 to 8) (size 9 to 14) (size 15 to 20)
#    0.000    1.250    1.250    4.500    1.750    7.500 
#    0.000    0.000    0.000    0.000    0.000    0.000 
#    0.000    0.000    0.000    0.000    0.000    0.000 
#
# Total GULP energy -396495.018959 kJ/mol
# GULP energy per Si atom -12390.469342 kJ/mol
# Density = 2.026774 g / cm^3
# Si number density = 20.313977 Si / 1000 Ang^3
#
#
#
# Elastic Constant Matrix: (Units=GPa)
#
#
# Indices 1 2 3 4 5 6 
#
# 1 101.0608 41.4584 59.5329 0.0000 0.0000 0.0000
# 2 41.4584 88.0668 51.9243 0.0000 0.0000 0.0000
# 3 59.5329 51.9243 199.6836 0.0000 0.0000 0.0000
# 4 0.0000 0.0000 0.0000 44.1980 0.0000 0.0000
# 5 0.0000 0.0000 0.0000 0.0000 67.4518 0.0000
# 6 0.0000 0.0000 0.0000 0.0000 0.0000 24.0535
#
#
#
# Elastic Compliance Matrix: (Units=1/GPa)
#
#
# Indices 1 2 3 4 5 6 
#
# 1 0.013466 -0.004691 -0.002795 0.000000 0.000000 0.000000
# 2 -0.004691 0.015046 -0.002514 0.000000 0.000000 0.000000
# 3 -0.002795 -0.002514 0.006495 0.000000 0.000000 0.000000
# 4 0.000000 0.000000 0.000000 0.022625 0.000000 0.000000
# 5 0.000000 0.000000 0.000000 0.000000 0.014825 0.000000
# 6 0.000000 0.000000 0.000000 0.000000 0.000000 0.041574
#
#
# Mechanical properties :
#
#
# Convention : Reuss Voigt Hill
#
# Bulk Modulus (GPa) = 66.63730 77.18250 71.90990
# Shear Modulus (GPa) = 35.96264 42.86703 39.41483
#
# Velocity S-wave (km/s) = 4.21211 4.59870 4.40964
# Velocity P-wave (km/s) = 7.51869 8.14092 7.83598
#
# Compressibility (1/GPa) = 0.01500661
#
# Stress axis : x y z
#
# Youngs Moduli (GPa) = 74.26140 66.46449 153.96990
#
# Poissons Ratio (x) = 0.31181 0.43031
# Poissons Ratio (y) = 0.34839 0.38703
# Poissons Ratio (z) = 0.20754 0.16707
#
# Static dielectric constant tensor:
#      x y z
#    x 3.817130 0.000000 0.000000 
#    y 0.000000 3.370310 0.000000 
#    z 0.000000 0.000000 4.171950 
# 
# 
# High freq. dielectric constant tensor:
#      x y z
#    x 1.791230 0.000000 0.000000 
#    y 0.000000 1.793080 0.000000 
#    z 0.000000 0.000000 1.824710 
# 
# From -- ./inp_files/16231.got.cif
#   From: 2010.03.12/outbox.cif.g09.slc.cpg/sg63_9_cif.got.tgz:16231.got - 2010.04.10 19:34:48.
