data_PCOD8260922
_publ_section_title
;
Structure prediction by ZEFSAII (Michael W. Deem and Ramdas Pophale) SiO2 
 PCOD8260922
Probable space group: C M C M
;
_chemical_formula_sum "Si O2"
_cell_formula_units_Z 80
_cell_length_a 29.808990
_cell_length_b 22.411214
_cell_length_c 8.979554
_cell_angle_alpha 90.000000
_cell_angle_beta 90.000000
_cell_angle_gamma 90.000000
_cell_volume 5998.841820
_symmetry_space_group_name_H-M "C M C M"
_symmetry_group_IT_number 63
_symmetry_cell_setting 'orthorhombic'
loop_
_space_group_symop_operation_xyz
x,y,z
-x,-y,1/2+z
x,-y,-z
-x,y,1/2-z
-x,-y,-z
x,y,1/2-z
-x,y,z
x,-y,1/2+z
1/2+x,1/2+y,z
1/2-x,1/2-y,1/2+z
1/2+x,1/2-y,-z
1/2-x,1/2+y,1/2-z
1/2-x,1/2-y,-z
1/2+x,1/2+y,1/2-z
1/2-x,1/2+y,z
1/2+x,1/2-y,1/2+z
loop_
_atom_site_type_symbol
_atom_site_label
_atom_site_fract_x
_atom_site_fract_y
_atom_site_fract_z
Si Si1 0.817631 0.755265 0.414569
Si Si2 0.049939 0.060993 0.576086
Si Si3 0.717022 0.563338 0.427181
Si Si4 0.136250 0.129726 0.574580
Si Si5 0.730937 0.837838 0.415540
O O1 0.829081 0.731051 0.250000
O O2 0.856541 0.800767 0.470807
O O3 0.772283 0.793058 0.409470
O O4 0.812306 0.698202 0.521882
O O5 0.050297 0.048344 0.750000
O O6 0.085084 0.112938 0.534534
O O7 0.000000 0.080269 0.522348
O O8 0.065502 0.000000 0.500000
O O9 0.726980 0.500000 0.500000
O O10 0.716445 0.558290 0.250000
O O11 0.669049 0.586940 0.482872
O O12 0.757237 0.607045 0.477504
O O13 0.147112 0.121174 0.750000
O O14 0.719391 0.861252 0.250000
#
# Coordination Sequence:
#
# PCOD8260922 Si02
#       5
#    16  16  16  16  16
#     4   8  14  24  37  52  69  89 113 143 178 212
#     4   9  17  28  40  53  70  93 120 151 187 223
#     4  11  20  28  38  52  71  94 120 149 181 214
#     4   9  17  28  40  54  71  91 119 153 185 218
#     4   9  16  26  38  52  70  90 114 143 175 211
#
# _framework density 13.335907000000001
#
# number of rings (size 3 to 8) (size 9 to 14) (size 15 to 20)
#    0.000    2.800    0.000    4.200    0.000    7.200 
#    0.000    0.000    0.000    0.000    0.000    0.000 
#    0.000    0.000    0.000    0.000    0.000    1.000 
#
# Total GULP energy -495765.493647 kJ/mol
# GULP energy per Si atom -12394.137341 kJ/mol
# Density = 1.330555 g / cm^3
# Si number density = 13.335907 Si / 1000 Ang^3
#
#
#
# Elastic Constant Matrix: (Units=GPa)
#
#
# Indices 1 2 3 4 5 6 
#
# 1 66.8251 48.4995 28.0352 0.0000 0.0000 0.0000
# 2 48.4995 72.9395 40.4016 0.0000 0.0000 0.0000
# 3 28.0352 40.4016 76.0666 0.0000 0.0000 0.0000
# 4 0.0000 0.0000 0.0000 21.6631 0.0000 0.0000
# 5 0.0000 0.0000 0.0000 0.0000 12.7130 0.0000
# 6 0.0000 0.0000 0.0000 0.0000 0.0000 22.7322
#
#
#
# Elastic Compliance Matrix: (Units=1/GPa)
#
#
# Indices 1 2 3 4 5 6 
#
# 1 0.028943 -0.018895 -0.000631 0.000000 0.000000 0.000000
# 2 -0.018895 0.031760 -0.009905 0.000000 0.000000 0.000000
# 3 -0.000631 -0.009905 0.018640 0.000000 0.000000 0.000000
# 4 0.000000 0.000000 0.000000 0.046161 0.000000 0.000000
# 5 0.000000 0.000000 0.000000 0.000000 0.078660 0.000000
# 6 0.000000 0.000000 0.000000 0.000000 0.000000 0.043990
#
#
# Mechanical properties :
#
#
# Convention : Reuss Voigt Hill
#
# Bulk Modulus (GPa) = 48.82782 49.96708 49.39745
# Shear Modulus (GPa) = 15.93147 18.01467 16.97307
#
# Velocity S-wave (km/s) = 3.46009 3.67936 3.57141
# Velocity P-wave (km/s) = 7.25646 7.45652 7.35717
#
# Compressibility (1/GPa) = 0.02048013
#
# Stress axis : x y z
#
# Youngs Moduli (GPa) = 34.55087 31.48579 53.64822
#
# Poissons Ratio (x) = 0.59493 0.03387
# Poissons Ratio (y) = 0.65285 0.53138
# Poissons Ratio (z) = 0.02181 0.31187
#
# Static dielectric constant tensor:
#      x y z
#    x 2.607640 0.000000 0.000000 
#    y 0.000000 2.725840 0.000000 
#    z 0.000000 0.000000 2.814860 
# 
# 
# High freq. dielectric constant tensor:
#      x y z
#    x 1.464410 0.000000 0.000000 
#    y 0.000000 1.490850 0.000000 
#    z 0.000000 0.000000 1.518030 
# 
# From -- ./inp_files/14295.got.cif
#   From: 2010.03.12/outbox.cif.g09.slc.cpg/sg63_8_cif.got.tgz:14295.got - 2010.04.10 19:34:48.
