data_PCOD8260276
_publ_section_title
;
Structure prediction by ZEFSAII (Michael W. Deem and Ramdas Pophale) SiO2 
 PCOD8260276
Probable space group: C M C M
;
_chemical_formula_sum "Si O2"
_cell_formula_units_Z 72
_cell_length_a 27.352250
_cell_length_b 5.136856
_cell_length_c 24.206352
_cell_angle_alpha 90.000000
_cell_angle_beta 90.000000
_cell_angle_gamma 90.000000
_cell_volume 3401.103068
_symmetry_space_group_name_H-M "C M C M"
_symmetry_group_IT_number 63
_symmetry_cell_setting 'orthorhombic'
loop_
_space_group_symop_operation_xyz
x,y,z
-x,-y,1/2+z
x,-y,-z
-x,y,1/2-z
-x,-y,-z
x,y,1/2-z
-x,y,z
x,-y,1/2+z
1/2+x,1/2+y,z
1/2-x,1/2-y,1/2+z
1/2+x,1/2-y,-z
1/2-x,1/2+y,1/2-z
1/2-x,1/2-y,-z
1/2+x,1/2+y,1/2-z
1/2-x,1/2+y,z
1/2+x,1/2-y,1/2+z
loop_
_atom_site_type_symbol
_atom_site_label
_atom_site_fract_x
_atom_site_fract_y
_atom_site_fract_z
Si Si1 0.717363 0.292424 0.368584
Si Si2 0.138340 0.251403 0.536916
Si Si3 0.942096 0.236060 0.311559
Si Si4 0.557802 0.763780 0.620944
Si Si5 0.719765 0.803681 0.750000
O O1 0.740051 0.578624 0.375942
O O2 0.675760 0.249962 0.412944
O O3 0.692012 0.261771 0.307593
O O4 0.149162 0.500000 0.500000
O O5 0.083467 0.261364 0.561262
O O6 0.145642 0.000000 0.500000
O O7 0.919072 0.239283 0.250000
O O8 0.924275 0.486164 0.345091
O O9 0.000000 0.235628 0.306395
O O10 0.924166 0.983415 0.344164
O O11 0.500000 0.763046 0.610240
O O12 0.766932 0.609618 0.750000
#
# Coordination Sequence:
#
# PCOD8260276 Si02
#       5
#    16  16  16  16   8
#     4  10  21  40  65  89 119 153 195 245 308 359
#     4  12  26  41  60  87 124 161 210 255 288 354
#     4   9  17  33  58  86 117 152 193 247 305 360
#     4  10  21  38  59  84 121 162 204 249 298 351
#     4   8  16  34  60  86 113 146 181 236 292 360
#
# _framework density 21.169604
#
# number of rings (size 3 to 8) (size 9 to 14) (size 15 to 20)
#    0.000    2.000    0.000    3.333    0.000    6.222 
#    4.000    0.000    4.889    0.000    0.000    0.000 
#    0.000    0.000    0.000    0.000    0.000    0.000 
#
# Total GULP energy -446361.956163 kJ/mol
# GULP energy per Si atom -12398.943227 kJ/mol
# Density = 2.112142 g / cm^3
# Si number density = 21.169604 Si / 1000 Ang^3
#
#
#
# Elastic Constant Matrix: (Units=GPa)
#
#
# Indices 1 2 3 4 5 6 
#
# 1 55.3742 23.8616 61.0180 0.0000 0.0000 0.0000
# 2 23.8616 169.1054 68.9365 0.0000 0.0000 0.0000
# 3 61.0180 68.9365 190.4941 0.0000 0.0000 0.0000
# 4 0.0000 0.0000 0.0000 32.9262 0.0000 0.0000
# 5 0.0000 0.0000 0.0000 0.0000 37.3101 0.0000
# 6 0.0000 0.0000 0.0000 0.0000 0.0000 12.5534
#
#
#
# Elastic Compliance Matrix: (Units=1/GPa)
#
#
# Indices 1 2 3 4 5 6 
#
# 1 0.027927 -0.000345 -0.008821 0.000000 0.000000 0.000000
# 2 -0.000345 0.006941 -0.002401 0.000000 0.000000 0.000000
# 3 -0.008821 -0.002401 0.008944 0.000000 0.000000 0.000000
# 4 0.000000 0.000000 0.000000 0.030371 0.000000 0.000000
# 5 0.000000 0.000000 0.000000 0.000000 0.026802 0.000000
# 6 0.000000 0.000000 0.000000 0.000000 0.000000 0.079660
#
#
# Mechanical properties :
#
#
# Convention : Reuss Voigt Hill
#
# Bulk Modulus (GPa) = 48.35975 80.28955 64.32465
# Shear Modulus (GPa) = 23.73359 33.96846 28.85103
#
# Velocity S-wave (km/s) = 3.35194 4.01007 3.69569
# Velocity P-wave (km/s) = 6.15420 7.71039 6.97583
#
# Compressibility (1/GPa) = 0.02067835
#
# Stress axis : x y z
#
# Youngs Moduli (GPa) = 35.80725 144.07005 111.80770
#
# Poissons Ratio (x) = 0.04969 0.98622
# Poissons Ratio (y) = 0.01235 0.26849
# Poissons Ratio (z) = 0.31585 0.34597
#
# Static dielectric constant tensor:
#      x y z
#    x 3.356190 0.000000 0.000000 
#    y 0.000000 4.123200 0.000000 
#    z 0.000000 0.000000 4.123620 
# 
# 
# High freq. dielectric constant tensor:
#      x y z
#    x 1.792560 0.000000 0.000000 
#    y 0.000000 1.852280 0.000000 
#    z 0.000000 0.000000 1.846500 
# 
# From -- ./inp_files/65282.got.cif
#   From: 2010.03.12/outbox.cif.g09.slc.cpg/sg63_33_cif.got.tgz:65282.got - 2010.04.10 19:34:48.
