data_PCOD8260598
_publ_section_title
;
Structure prediction by ZEFSAII (Michael W. Deem and Ramdas Pophale) SiO2 
 PCOD8260598
Probable space group: C M C M
;
_chemical_formula_sum "Si O2"
_cell_formula_units_Z 88
_cell_length_a 11.086509
_cell_length_b 14.903644
_cell_length_c 27.006056
_cell_angle_alpha 90.000000
_cell_angle_beta 90.000000
_cell_angle_gamma 90.000000
_cell_volume 4462.193979
_symmetry_space_group_name_H-M "C M C M"
_symmetry_group_IT_number 63
_symmetry_cell_setting 'orthorhombic'
loop_
_space_group_symop_operation_xyz
x,y,z
-x,-y,1/2+z
x,-y,-z
-x,y,1/2-z
-x,-y,-z
x,y,1/2-z
-x,y,z
x,-y,1/2+z
1/2+x,1/2+y,z
1/2-x,1/2-y,1/2+z
1/2+x,1/2-y,-z
1/2-x,1/2+y,1/2-z
1/2-x,1/2-y,-z
1/2+x,1/2+y,1/2-z
1/2-x,1/2+y,z
1/2+x,1/2-y,1/2+z
loop_
_atom_site_type_symbol
_atom_site_label
_atom_site_fract_x
_atom_site_fract_y
_atom_site_fract_z
Si Si1 0.862704 0.265570 0.963554
Si Si2 0.000000 0.521004 0.652838
Si Si3 0.254294 0.054957 0.808552
Si Si4 0.204572 0.231402 0.855602
Si Si5 0.359657 0.633601 0.193385
Si Si6 0.000000 0.435202 0.953606
Si Si7 0.000000 0.335113 0.805523
O O1 0.817791 0.217574 0.913619
O O2 0.879583 0.372705 0.955325
O O3 0.000000 0.229024 0.979284
O O4 0.750000 0.250000 0.000000
O O5 0.880881 0.577704 0.664481
O O6 0.000000 0.442095 0.693512
O O7 0.000000 0.492768 0.595869
O O8 0.263906 0.061814 0.750000
O O9 0.174311 0.137231 0.828895
O O10 0.203985 0.958360 0.825186
O O11 0.331284 0.279925 0.841386
O O12 0.115690 0.305733 0.834959
O O13 0.319375 0.654774 0.250000
O O14 0.500000 0.613921 0.190426
O O15 0.000000 0.500000 0.000000
O O16 0.000000 0.298574 0.750000
#
# Coordination Sequence:
#
# PCOD8260598 Si02
#       7
#    16   8  16  16  16   8   8
#     4  10  23  44  67  97 128 163 219 279 343 404
#     4  12  22  42  62  97 130 166 225 279 319 394
#     4  11  24  37  61  94 128 174 219 260 324 395
#     4  12  23  41  62  92 127 168 220 265 326 402
#     4  10  22  39  56  85 130 169 207 262 321 391
#     4  10  22  42  70  98 120 173 222 281 349 401
#     4  12  20  38  66  87 125 170 208 267 324 390
#
# _framework density 19.721239000000001
#
# number of rings (size 3 to 8) (size 9 to 14) (size 15 to 20)
#    0.545    0.545    4.545    2.455    5.091    0.727 
#    0.000    0.000    0.000    0.545    0.000    0.000 
#    0.000    0.000    0.000    0.000    0.000    0.000 
#
# Total GULP energy -545221.127959 kJ/mol
# GULP energy per Si atom -12391.389272 kJ/mol
# Density = 1.967635 g / cm^3
# Si number density = 19.721239 Si / 1000 Ang^3
#
#
#
# Elastic Constant Matrix: (Units=GPa)
#
#
# Indices 1 2 3 4 5 6 
#
# 1 88.7906 13.6211 39.1684 0.0000 0.0000 0.0000
# 2 13.6211 76.2198 28.8117 0.0000 0.0000 0.0000
# 3 39.1684 28.8117 126.9414 0.0000 0.0000 0.0000
# 4 0.0000 0.0000 0.0000 32.7126 0.0000 0.0000
# 5 0.0000 0.0000 0.0000 0.0000 40.4487 0.0000
# 6 0.0000 0.0000 0.0000 0.0000 0.0000 11.8553
#
#
#
# Elastic Compliance Matrix: (Units=1/GPa)
#
#
# Indices 1 2 3 4 5 6 
#
# 1 0.013092 -0.000889 -0.003838 0.000000 0.000000 0.000000
# 2 -0.000889 0.014412 -0.002997 0.000000 0.000000 0.000000
# 3 -0.003838 -0.002997 0.009742 0.000000 0.000000 0.000000
# 4 0.000000 0.000000 0.000000 0.030569 0.000000 0.000000
# 5 0.000000 0.000000 0.000000 0.000000 0.024723 0.000000
# 6 0.000000 0.000000 0.000000 0.000000 0.000000 0.084350
#
#
# Mechanical properties :
#
#
# Convention : Reuss Voigt Hill
#
# Bulk Modulus (GPa) = 45.87454 50.57269 48.22362
# Shear Modulus (GPa) = 25.05001 31.02668 28.03835
#
# Velocity S-wave (km/s) = 3.56786 3.97074 3.77468
# Velocity P-wave (km/s) = 6.34703 6.83534 6.59570
#
# Compressibility (1/GPa) = 0.02179858
#
# Stress axis : x y z
#
# Youngs Moduli (GPa) = 76.38376 69.38861 102.64857
#
# Poissons Ratio (x) = 0.06168 0.39394
# Poissons Ratio (y) = 0.06790 0.30761
# Poissons Ratio (z) = 0.29314 0.20794
#
# Static dielectric constant tensor:
#      x y z
#    x 3.669430 0.000000 0.000000 
#    y 0.000000 3.447520 0.000000 
#    z 0.000000 0.000000 3.597460 
# 
# 
# High freq. dielectric constant tensor:
#      x y z
#    x 1.773480 0.000000 0.000000 
#    y 0.000000 1.762710 0.000000 
#    z 0.000000 0.000000 1.757710 
# 
# From -- ./inp_files/68231.got.cif
#   From: 2010.03.12/outbox.cif.g09.slc.cpg/sg63_35_cif.got.tgz:68231.got - 2010.04.10 19:34:48.
