data_PCOD8260988
_publ_section_title
;
Structure prediction by ZEFSAII (Michael W. Deem and Ramdas Pophale) SiO2 
 PCOD8260988
Probable space group: C M C M
;
_chemical_formula_sum "Si O2"
_cell_formula_units_Z 96
_cell_length_a 15.995098
_cell_length_b 17.400057
_cell_length_c 18.628406
_cell_angle_alpha 90.000000
_cell_angle_beta 90.000000
_cell_angle_gamma 90.000000
_cell_volume 5184.576308
_symmetry_space_group_name_H-M "C M C M"
_symmetry_group_IT_number 63
_symmetry_cell_setting 'orthorhombic'
loop_
_space_group_symop_operation_xyz
x,y,z
-x,-y,1/2+z
x,-y,-z
-x,y,1/2-z
-x,-y,-z
x,y,1/2-z
-x,y,z
x,-y,1/2+z
1/2+x,1/2+y,z
1/2-x,1/2-y,1/2+z
1/2+x,1/2-y,-z
1/2-x,1/2+y,1/2-z
1/2-x,1/2-y,-z
1/2+x,1/2+y,1/2-z
1/2-x,1/2+y,z
1/2+x,1/2-y,1/2+z
loop_
_atom_site_type_symbol
_atom_site_label
_atom_site_fract_x
_atom_site_fract_y
_atom_site_fract_z
Si Si1 0.167542 0.422082 0.171301
Si Si2 0.593952 0.231287 0.666062
Si Si3 0.256338 0.535657 0.076974
Si Si4 0.907024 0.979183 0.334188
Si Si5 0.751114 0.787358 0.922590
Si Si6 0.336346 0.674687 0.671279
O O1 0.149369 0.458127 0.250000
O O2 0.095968 0.360795 0.149372
O O3 0.178998 0.490677 0.114325
O O4 0.250056 0.370885 0.173957
O O5 0.616446 0.245648 0.750000
O O6 0.500000 0.260513 0.649030
O O7 0.659607 0.277240 0.616854
O O8 0.341114 0.530762 0.123195
O O9 0.229500 0.623489 0.069591
O O10 0.275127 0.500000 0.000000
O O11 0.885221 0.986416 0.250000
O O12 0.000000 0.009878 0.350991
O O13 0.903001 0.888644 0.356826
O O14 0.674115 0.748161 0.879790
O O15 0.750000 0.750000 0.000000
O O16 0.361797 0.705353 0.750000
#
# Coordination Sequence:
#
# PCOD8260988 Si02
#       6
#    16  16  16  16  16  16
#     4   8  15  30  51  73  97 126 161 200 247 302
#     4   9  18  34  57  82 105 130 164 212 267 312
#     4  11  21  32  49  71  99 134 171 211 249 293
#     4   9  18  33  52  74 102 133 162 198 250 308
#     4  11  21  33  50  73 104 139 173 212 254 304
#     4   8  15  30  50  70  94 129 169 203 242 297
#
# _framework density 18.516459999999999
#
# number of rings (size 3 to 8) (size 9 to 14) (size 15 to 20)
#    0.000    2.667    0.000    6.000    0.000    3.667 
#    0.000    4.167    0.000    5.500    0.000    4.667 
#    0.000    0.000    0.000    0.000    0.000    0.000 
#
# Total GULP energy -594848.600665 kJ/mol
# GULP energy per Si atom -12392.679181 kJ/mol
# Density = 1.847432 g / cm^3
# Si number density = 18.516460 Si / 1000 Ang^3
#
#
#
# Elastic Constant Matrix: (Units=GPa)
#
#
# Indices 1 2 3 4 5 6 
#
# 1 26.0717 -4.3233 8.2064 0.0000 0.0000 0.0000
# 2 -4.3233 104.4985 37.4340 0.0000 0.0000 0.0000
# 3 8.2064 37.4340 83.0443 0.0000 0.0000 0.0000
# 4 0.0000 0.0000 0.0000 32.9954 0.0000 0.0000
# 5 0.0000 0.0000 0.0000 0.0000 16.3254 0.0000
# 6 0.0000 0.0000 0.0000 0.0000 0.0000 20.0926
#
#
#
# Elastic Compliance Matrix: (Units=1/GPa)
#
#
# Indices 1 2 3 4 5 6 
#
# 1 0.040773 0.003733 -0.005712 0.000000 0.000000 0.000000
# 2 0.003733 0.011754 -0.005667 0.000000 0.000000 0.000000
# 3 -0.005712 -0.005667 0.015161 0.000000 0.000000 0.000000
# 4 0.000000 0.000000 0.000000 0.030307 0.000000 0.000000
# 5 0.000000 0.000000 0.000000 0.000000 0.061254 0.000000
# 6 0.000000 0.000000 0.000000 0.000000 0.000000 0.049770
#
#
# Mechanical properties :
#
#
# Convention : Reuss Voigt Hill
#
# Bulk Modulus (GPa) = 19.08567 32.91652 26.00110
# Shear Modulus (GPa) = 20.68029 25.36918 23.02474
#
# Velocity S-wave (km/s) = 3.34557 3.70549 3.53012
# Velocity P-wave (km/s) = 5.02529 6.01024 5.53970
#
# Compressibility (1/GPa) = 0.05239532
#
# Stress axis : x y z
#
# Youngs Moduli (GPa) = 24.52622 85.07649 65.95929
#
# Poissons Ratio (x) = -0.31759 0.37675
# Poissons Ratio (y) = -0.09156 0.37381
# Poissons Ratio (z) = 0.14009 0.48216
#
# Static dielectric constant tensor:
#      x y z
#    x 3.535100 0.000000 0.000000 
#    y 0.000000 3.437340 0.000000 
#    z 0.000000 0.000000 3.465650 
# 
# 
# High freq. dielectric constant tensor:
#      x y z
#    x 1.686640 0.000000 0.000000 
#    y 0.000000 1.705690 0.000000 
#    z 0.000000 0.000000 1.718390 
# 
# From -- ./inp_files/45708.got.cif
#   From: 2010.03.12/outbox.cif.g09.slc.cpg/sg63_23_cif.got.tgz:45708.got - 2010.04.10 19:34:48.
