data_PCOD8260310
_publ_section_title
;
Structure prediction by ZEFSAII (Michael W. Deem and Ramdas Pophale) SiO2 
 PCOD8260310
Probable space group: C M C M
;
_chemical_formula_sum "Si O2"
_cell_formula_units_Z 96
_cell_length_a 20.865827
_cell_length_b 11.666889
_cell_length_c 19.514331
_cell_angle_alpha 90.000000
_cell_angle_beta 90.000000
_cell_angle_gamma 90.000000
_cell_volume 4750.554835
_symmetry_space_group_name_H-M "C M C M"
_symmetry_group_IT_number 63
_symmetry_cell_setting 'orthorhombic'
loop_
_space_group_symop_operation_xyz
x,y,z
-x,-y,1/2+z
x,-y,-z
-x,y,1/2-z
-x,-y,-z
x,y,1/2-z
-x,y,z
x,-y,1/2+z
1/2+x,1/2+y,z
1/2-x,1/2-y,1/2+z
1/2+x,1/2-y,-z
1/2-x,1/2+y,1/2-z
1/2-x,1/2-y,-z
1/2+x,1/2+y,1/2-z
1/2-x,1/2+y,z
1/2+x,1/2-y,1/2+z
loop_
_atom_site_type_symbol
_atom_site_label
_atom_site_fract_x
_atom_site_fract_y
_atom_site_fract_z
Si Si1 0.166028 0.231664 0.326793
Si Si2 0.000000 0.571161 0.591300
Si Si3 0.000000 0.315420 0.544051
Si Si4 0.191276 0.704055 0.331954
Si Si5 0.391539 0.351504 0.426226
Si Si6 0.924252 0.102407 0.075765
Si Si7 0.124354 0.473229 0.327026
O O1 0.150050 0.193803 0.250000
O O2 0.234368 0.180087 0.349431
O O3 0.105129 0.187220 0.368855
O O4 0.175139 0.369467 0.331726
O O5 0.936660 0.577754 0.635439
O O6 0.000000 0.448277 0.557194
O O7 0.000000 0.681441 0.539612
O O8 0.059581 0.253769 0.579299
O O9 0.182019 0.729959 0.250000
O O10 0.168416 0.810569 0.379736
O O11 0.154626 0.589441 0.357140
O O12 0.416896 0.472219 0.396355
O O13 0.381604 0.374601 0.507401
O O14 0.000000 0.123804 0.060314
O O15 0.103427 0.500514 0.250000
#
# Coordination Sequence:
#
# PCOD8260310 Si02
#       7
#    16   8   8  16  16  16  16
#     4  10  24  42  63  91 123 164 210 253 308 376
#     4  11  21  34  60  93 118 158 201 243 308 369
#     4  11  20  35  60  89 121 162 198 248 298 364
#     4  10  23  42  64  88 123 166 208 255 306 367
#     4  11  21  41  63  90 127 163 209 252 310 369
#     4  11  23  40  66  90 125 166 200 260 318 362
#     4  10  21  38  60  88 122 155 196 255 310 359
#
# _framework density 20.208165000000001
#
# number of rings (size 3 to 8) (size 9 to 14) (size 15 to 20)
#    0.000    1.500    3.333    1.750    3.500    1.667 
#    0.000    0.417    0.000    0.000    0.000    0.000 
#    0.000    0.000    0.000    0.000    0.000    0.000 
#
# Total GULP energy -594665.055131 kJ/mol
# GULP energy per Si atom -12388.855315 kJ/mol
# Density = 2.016217 g / cm^3
# Si number density = 20.208165 Si / 1000 Ang^3
#
#
#
# Elastic Constant Matrix: (Units=GPa)
#
#
# Indices 1 2 3 4 5 6 
#
# 1 86.0040 27.9636 44.9344 0.0000 0.0000 0.0000
# 2 27.9636 106.1996 34.7320 0.0000 0.0000 0.0000
# 3 44.9344 34.7320 77.4969 0.0000 0.0000 0.0000
# 4 0.0000 0.0000 0.0000 32.6881 0.0000 0.0000
# 5 0.0000 0.0000 0.0000 0.0000 35.0937 0.0000
# 6 0.0000 0.0000 0.0000 0.0000 0.0000 27.1546
#
#
#
# Elastic Compliance Matrix: (Units=1/GPa)
#
#
# Indices 1 2 3 4 5 6 
#
# 1 0.016871 -0.001457 -0.009129 0.000000 0.000000 0.000000
# 2 -0.001457 0.011159 -0.004157 0.000000 0.000000 0.000000
# 3 -0.009129 -0.004157 0.020060 0.000000 0.000000 0.000000
# 4 0.000000 0.000000 0.000000 0.030592 0.000000 0.000000
# 5 0.000000 0.000000 0.000000 0.000000 0.028495 0.000000
# 6 0.000000 0.000000 0.000000 0.000000 0.000000 0.036826
#
#
# Mechanical properties :
#
#
# Convention : Reuss Voigt Hill
#
# Bulk Modulus (GPa) = 53.74924 53.88448 53.81686
# Shear Modulus (GPa) = 27.82572 29.79199 28.80886
#
# Velocity S-wave (km/s) = 3.71476 3.84377 3.77981
# Velocity P-wave (km/s) = 6.71229 6.81337 6.76302
#
# Compressibility (1/GPa) = 0.01860491
#
# Stress axis : x y z
#
# Youngs Moduli (GPa) = 59.27442 89.61231 49.85056
#
# Poissons Ratio (x) = 0.13053 0.45510
# Poissons Ratio (y) = 0.08634 0.20721
# Poissons Ratio (z) = 0.54113 0.37249
#
# Static dielectric constant tensor:
#      x y z
#    x 3.465600 0.000000 0.000000 
#    y 0.000000 3.824920 0.000000 
#    z 0.000000 0.000000 3.646170 
# 
# 
# High freq. dielectric constant tensor:
#      x y z
#    x 1.773010 0.000000 0.000000 
#    y 0.000000 1.814650 0.000000 
#    z 0.000000 0.000000 1.776980 
# 
# From -- ./inp_files/56598.got.cif
#   From: 2010.03.12/outbox.cif.g09.slc.cpg/sg63_29_cif.got.tgz:56598.got - 2010.04.10 19:34:48.
