data_PCOD8260262
_publ_section_title
;
Structure prediction by ZEFSAII (Michael W. Deem and Ramdas Pophale) SiO2 
 PCOD8260262
Probable space group: C M C M
;
_chemical_formula_sum "Si O2"
_cell_formula_units_Z 96
_cell_length_a 20.409292
_cell_length_b 15.070412
_cell_length_c 15.793629
_cell_angle_alpha 90.000000
_cell_angle_beta 90.000000
_cell_angle_gamma 90.000000
_cell_volume 4857.748168
_symmetry_space_group_name_H-M "C M C M"
_symmetry_group_IT_number 63
_symmetry_cell_setting 'orthorhombic'
loop_
_space_group_symop_operation_xyz
x,y,z
-x,-y,1/2+z
x,-y,-z
-x,y,1/2-z
-x,-y,-z
x,y,1/2-z
-x,y,z
x,-y,1/2+z
1/2+x,1/2+y,z
1/2-x,1/2-y,1/2+z
1/2+x,1/2-y,-z
1/2-x,1/2+y,1/2-z
1/2-x,1/2-y,-z
1/2+x,1/2+y,1/2-z
1/2-x,1/2+y,z
1/2+x,1/2-y,1/2+z
loop_
_atom_site_type_symbol
_atom_site_label
_atom_site_fract_x
_atom_site_fract_y
_atom_site_fract_z
Si Si1 0.831971 0.815316 0.152806
Si Si2 0.299996 0.879541 0.653895
Si Si3 0.574331 0.083933 0.056501
Si Si4 0.187090 0.999581 0.903866
Si Si5 0.425828 0.276406 0.496037
Si Si6 0.424891 0.613722 0.344244
O O1 0.857682 0.815215 0.250000
O O2 0.789540 0.725929 0.137656
O O3 0.891219 0.817181 0.086222
O O4 0.790172 0.904100 0.132205
O O5 0.285759 0.904944 0.750000
O O6 0.374490 0.908775 0.633344
O O7 0.248130 0.932420 0.597973
O O8 0.500000 0.077141 0.092795
O O9 0.582460 0.170455 0.997557
O O10 0.592392 0.000000 0.000000
O O11 0.124257 0.969586 0.848950
O O12 0.163002 0.000000 0.000000
O O13 0.500000 0.304982 0.483009
O O14 0.400485 0.315252 0.585618
O O15 0.418612 0.655885 0.250000
O O16 0.500000 0.583019 0.360083
#
# Coordination Sequence:
#
# PCOD8260262 Si02
#       6
#    16  16  16  16  16  16
#     4  10  21  38  58  84 117 152 194 240 289 348
#     4  10  22  39  58  85 119 152 194 245 293 346
#     4   9  18  36  60  85 116 153 194 241 293 349
#     4  12  23  39  62  85 116 156 193 242 294 349
#     4   9  18  35  58  85 116 151 194 240 291 350
#     4  10  21  38  59  84 118 156 194 241 294 349
#
# _framework density 19.762242000000001
#
# number of rings (size 3 to 8) (size 9 to 14) (size 15 to 20)
#    0.000    2.000    1.667    2.000    0.000    2.333 
#    3.000    4.167    0.000    3.000    0.000    0.000 
#    0.000    0.000    0.000    0.000    0.000    0.000 
#
# Total GULP energy -595028.753856 kJ/mol
# GULP energy per Si atom -12396.432372 kJ/mol
# Density = 1.971726 g / cm^3
# Si number density = 19.762242 Si / 1000 Ang^3
#
#
#
# Elastic Constant Matrix: (Units=GPa)
#
#
# Indices 1 2 3 4 5 6 
#
# 1 84.2966 44.5875 33.1282 0.0000 0.0000 0.0000
# 2 44.5875 129.3233 47.8707 0.0000 0.0000 0.0000
# 3 33.1282 47.8707 122.4031 0.0000 0.0000 0.0000
# 4 0.0000 0.0000 0.0000 26.5813 0.0000 0.0000
# 5 0.0000 0.0000 0.0000 0.0000 22.5480 0.0000
# 6 0.0000 0.0000 0.0000 0.0000 0.0000 23.5394
#
#
#
# Elastic Compliance Matrix: (Units=1/GPa)
#
#
# Indices 1 2 3 4 5 6 
#
# 1 0.015087 -0.004315 -0.002396 0.000000 0.000000 0.000000
# 2 -0.004315 0.010275 -0.002851 0.000000 0.000000 0.000000
# 3 -0.002396 -0.002851 0.009933 0.000000 0.000000 0.000000
# 4 0.000000 0.000000 0.000000 0.037620 0.000000 0.000000
# 5 0.000000 0.000000 0.000000 0.000000 0.044350 0.000000
# 6 0.000000 0.000000 0.000000 0.000000 0.000000 0.042482
#
#
# Mechanical properties :
#
#
# Convention : Reuss Voigt Hill
#
# Bulk Modulus (GPa) = 61.83315 65.24396 63.53856
# Shear Modulus (GPa) = 27.13544 28.56283 27.84914
#
# Velocity S-wave (km/s) = 3.70955 3.80587 3.75802
# Velocity P-wave (km/s) = 7.05012 7.23871 7.14504
#
# Compressibility (1/GPa) = 0.01617255
#
# Stress axis : x y z
#
# Youngs Moduli (GPa) = 66.28409 97.31944 100.67371
#
# Poissons Ratio (x) = 0.41990 0.24119
# Poissons Ratio (y) = 0.28599 0.28701
# Poissons Ratio (z) = 0.15880 0.27745
#
# Static dielectric constant tensor:
#      x y z
#    x 3.437220 0.000000 0.000000 
#    y 0.000000 3.761340 0.000000 
#    z 0.000000 0.000000 3.633270 
# 
# 
# High freq. dielectric constant tensor:
#      x y z
#    x 1.757780 0.000000 0.000000 
#    y 0.000000 1.774930 0.000000 
#    z 0.000000 0.000000 1.771980 
# 
# From -- ./inp_files/35357.got.cif
#   From: 2010.03.12/outbox.cif.g09.slc.cpg/sg63_18_cif.got.tgz:35357.got - 2010.04.10 19:34:48.
