data_PCOD8260090
_publ_section_title
;
Structure prediction by ZEFSAII (Michael W. Deem and Ramdas Pophale) SiO2 
 PCOD8260090
Probable space group: C M C M
;
_chemical_formula_sum "Si O2"
_cell_formula_units_Z 80
_cell_length_a 12.972570
_cell_length_b 12.535022
_cell_length_c 26.743037
_cell_angle_alpha 90.000000
_cell_angle_beta 90.000000
_cell_angle_gamma 90.000000
_cell_volume 4348.724033
_symmetry_space_group_name_H-M "C M C M"
_symmetry_group_IT_number 63
_symmetry_cell_setting 'orthorhombic'
loop_
_space_group_symop_operation_xyz
x,y,z
-x,-y,1/2+z
x,-y,-z
-x,y,1/2-z
-x,-y,-z
x,y,1/2-z
-x,y,z
x,-y,1/2+z
1/2+x,1/2+y,z
1/2-x,1/2-y,1/2+z
1/2+x,1/2-y,-z
1/2-x,1/2+y,1/2-z
1/2-x,1/2-y,-z
1/2+x,1/2+y,1/2-z
1/2-x,1/2+y,z
1/2+x,1/2-y,1/2+z
loop_
_atom_site_type_symbol
_atom_site_label
_atom_site_fract_x
_atom_site_fract_y
_atom_site_fract_z
Si Si1 0.120667 0.178721 0.035919
Si Si2 0.622336 0.823965 0.806318
Si Si3 0.262518 0.551818 0.379767
Si Si4 0.290488 0.094424 0.966216
Si Si5 0.384033 0.412973 0.193214
O O1 0.176175 0.135516 0.085726
O O2 0.131644 0.306513 0.034165
O O3 0.000000 0.147877 0.034616
O O4 0.177633 0.127918 0.987737
O O5 0.651994 0.863990 0.750000
O O6 0.500000 0.826569 0.811869
O O7 0.667875 0.894223 0.850957
O O8 0.666821 0.703961 0.813547
O O9 0.221439 0.450499 0.410619
O O10 0.337146 0.507768 0.338114
O O11 0.338969 0.000000 0.000000
O O12 0.375793 0.450707 0.250000
O O13 0.500000 0.401195 0.175053
#
# Coordination Sequence:
#
# PCOD8260090 Si02
#       5
#    16  16  16  16  16
#     4  10  21  37  54  75 104 135 171 215 260 309
#     4   9  19  35  53  75 105 139 173 208 248 301
#     4  11  19  32  54  79 103 131 170 214 259 300
#     4   9  21  37  52  75 103 135 173 211 258 310
#     4   9  18  32  50  74 103 135 170 206 249 302
#
# _framework density 18.396201000000001
#
# number of rings (size 3 to 8) (size 9 to 14) (size 15 to 20)
#    0.000    2.400    0.000    3.600    0.000    5.600 
#    0.000   12.000    0.000    0.000    0.000    8.400 
#    0.000    0.000    0.000    0.000    0.000    0.000 
#
# Total GULP energy -495836.505986 kJ/mol
# GULP energy per Si atom -12395.912650 kJ/mol
# Density = 1.835433 g / cm^3
# Si number density = 18.396201 Si / 1000 Ang^3
#
#
#
# Elastic Constant Matrix: (Units=GPa)
#
#
# Indices 1 2 3 4 5 6 
#
# 1 67.9765 15.0716 13.1080 0.0000 0.0000 0.0000
# 2 15.0716 102.8133 72.9203 0.0000 0.0000 0.0000
# 3 13.1080 72.9203 210.7937 0.0000 0.0000 0.0000
# 4 0.0000 0.0000 0.0000 35.0965 0.0000 0.0000
# 5 0.0000 0.0000 0.0000 0.0000 88.4921 0.0000
# 6 0.0000 0.0000 0.0000 0.0000 0.0000 25.1481
#
#
#
# Elastic Compliance Matrix: (Units=1/GPa)
#
#
# Indices 1 2 3 4 5 6 
#
# 1 0.015214 -0.002066 -0.000231 0.000000 0.000000 0.000000
# 2 -0.002066 0.013169 -0.004427 0.000000 0.000000 0.000000
# 3 -0.000231 -0.004427 0.006290 0.000000 0.000000 0.000000
# 4 0.000000 0.000000 0.000000 0.028493 0.000000 0.000000
# 5 0.000000 0.000000 0.000000 0.000000 0.011300 0.000000
# 6 0.000000 0.000000 0.000000 0.000000 0.000000 0.039764
#
#
# Mechanical properties :
#
#
# Convention : Reuss Voigt Hill
#
# Bulk Modulus (GPa) = 47.11757 64.86481 55.99119
# Shear Modulus (GPa) = 37.10457 48.44625 42.77541
#
# Velocity S-wave (km/s) = 4.49594 5.13732 4.82730
# Velocity P-wave (km/s) = 7.25393 8.39797 7.84683
#
# Compressibility (1/GPa) = 0.02122350
#
# Stress axis : x y z
#
# Youngs Moduli (GPa) = 65.73036 75.93463 158.98597
#
# Poissons Ratio (x) = 0.15689 0.03677
# Poissons Ratio (y) = 0.13581 0.70386
# Poissons Ratio (z) = 0.01520 0.33618
#
# Static dielectric constant tensor:
#      x y z
#    x 3.084460 0.000000 0.000000 
#    y 0.000000 3.204510 0.000000 
#    z 0.000000 0.000000 3.515880 
# 
# 
# High freq. dielectric constant tensor:
#      x y z
#    x 1.688530 0.000000 0.000000 
#    y 0.000000 1.722710 0.000000 
#    z 0.000000 0.000000 1.722480 
# 
# From -- ./inp_files/62551.got.cif
#   From: 2010.03.12/outbox.cif.g09.slc.cpg/sg63_32_cif.got.tgz:62551.got - 2010.04.10 19:34:48.
