data_PCOD8260060
_publ_section_title
;
Structure prediction by ZEFSAII (Michael W. Deem and Ramdas Pophale) SiO2 
 PCOD8260060
Probable space group: C M C M
;
_chemical_formula_sum "Si O2"
_cell_formula_units_Z 80
_cell_length_a 8.694586
_cell_length_b 27.427967
_cell_length_c 15.963492
_cell_angle_alpha 90.000000
_cell_angle_beta 90.000000
_cell_angle_gamma 90.000000
_cell_volume 3806.890848
_symmetry_space_group_name_H-M "C M C M"
_symmetry_group_IT_number 63
_symmetry_cell_setting 'orthorhombic'
loop_
_space_group_symop_operation_xyz
x,y,z
-x,-y,1/2+z
x,-y,-z
-x,y,1/2-z
-x,-y,-z
x,y,1/2-z
-x,y,z
x,-y,1/2+z
1/2+x,1/2+y,z
1/2-x,1/2-y,1/2+z
1/2+x,1/2-y,-z
1/2-x,1/2+y,1/2-z
1/2-x,1/2-y,-z
1/2+x,1/2+y,1/2-z
1/2-x,1/2+y,z
1/2+x,1/2-y,1/2+z
loop_
_atom_site_type_symbol
_atom_site_label
_atom_site_fract_x
_atom_site_fract_y
_atom_site_fract_z
Si Si1 0.182488 0.450205 0.250000
Si Si2 0.323994 0.784016 0.569637
Si Si3 0.680682 0.388136 0.912383
Si Si4 0.318089 0.061570 0.250000
Si Si5 0.825932 0.190078 0.842982
Si Si6 0.679277 0.897223 0.083140
O O1 0.237638 0.505775 0.250000
O O2 0.247035 0.425153 0.164783
O O3 0.000000 0.444847 0.250000
O O4 0.500000 0.798965 0.548437
O O5 0.250000 0.750000 0.500000
O O6 0.224312 0.831402 0.587728
O O7 0.315853 0.748616 0.650430
O O8 0.500000 0.394046 0.905690
O O9 0.756622 0.413082 0.832853
O O10 0.739539 0.414741 0.997391
O O11 0.500000 0.065594 0.250000
O O12 0.775122 0.175225 0.750000
O O13 0.714188 0.160771 0.906558
O O14 0.000000 0.172928 0.862670
O O15 0.500000 0.906873 0.072759
#
# Coordination Sequence:
#
# PCOD8260060 Si02
#       6
#     8  16  16   8  16  16
#     4   9  22  43  70 101 126 155 210 272 325 387
#     4  11  22  37  60  90 127 172 217 260 310 373
#     4  12  26  44  63  94 133 171 216 264 318 385
#     4  11  25  49  72  91 122 167 216 270 327 385
#     4  10  21  36  56  89 129 167 208 258 314 374
#     4  11  21  39  67  98 128 166 212 263 322 382
#
# _framework density 21.014523000000001
#
# number of rings (size 3 to 8) (size 9 to 14) (size 15 to 20)
#    0.000    1.200    3.000    3.300    1.400    1.600 
#    0.000    8.000    0.000    0.000    0.000    0.000 
#    0.000    0.000    0.000    0.000    0.000    0.000 
#
# Total GULP energy -495965.162238 kJ/mol
# GULP energy per Si atom -12399.129056 kJ/mol
# Density = 2.096669 g / cm^3
# Si number density = 21.014523 Si / 1000 Ang^3
#
#
#
# Elastic Constant Matrix: (Units=GPa)
#
#
# Indices 1 2 3 4 5 6 
#
# 1 93.6465 27.6577 44.5618 0.0000 0.0000 0.0000
# 2 27.6577 112.9854 61.1505 0.0000 0.0000 0.0000
# 3 44.5618 61.1505 163.2721 0.0000 0.0000 0.0000
# 4 0.0000 0.0000 0.0000 26.1562 0.0000 0.0000
# 5 0.0000 0.0000 0.0000 0.0000 34.0214 0.0000
# 6 0.0000 0.0000 0.0000 0.0000 0.0000 25.7223
#
#
#
# Elastic Compliance Matrix: (Units=1/GPa)
#
#
# Indices 1 2 3 4 5 6 
#
# 1 0.012477 -0.001519 -0.002836 0.000000 0.000000 0.000000
# 2 -0.001519 0.011286 -0.003812 0.000000 0.000000 0.000000
# 3 -0.002836 -0.003812 0.008327 0.000000 0.000000 0.000000
# 4 0.000000 0.000000 0.000000 0.038232 0.000000 0.000000
# 5 0.000000 0.000000 0.000000 0.000000 0.029393 0.000000
# 6 0.000000 0.000000 0.000000 0.000000 0.000000 0.038877
#
#
# Mechanical properties :
#
#
# Convention : Reuss Voigt Hill
#
# Bulk Modulus (GPa) = 63.47643 70.73822 67.10733
# Shear Modulus (GPa) = 31.21530 32.94894 32.08212
#
# Velocity S-wave (km/s) = 3.85829 3.96398 3.91149
# Velocity P-wave (km/s) = 7.07955 7.39497 7.23898
#
# Compressibility (1/GPa) = 0.01575388
#
# Stress axis : x y z
#
# Youngs Moduli (GPa) = 80.14883 88.60637 120.09574
#
# Poissons Ratio (x) = 0.13460 0.34063
# Poissons Ratio (y) = 0.12175 0.45784
# Poissons Ratio (z) = 0.22733 0.33779
#
# Static dielectric constant tensor:
#      x y z
#    x 3.706460 0.000000 0.000000 
#    y 0.000000 -0.270470 0.000000 
#    z 0.000000 0.000000 4.144320 
# 
# 
# High freq. dielectric constant tensor:
#      x y z
#    x 1.817550 0.000000 0.000000 
#    y 0.000000 1.814480 0.000000 
#    z 0.000000 0.000000 1.841520 
# 
# From -- ./inp_files/40639.got.cif
#   From: 2010.03.12/outbox.cif.g09.slc.cpg/sg63_21_cif.got.tgz:40639.got - 2010.04.10 19:34:48.
