data_PCOD8260013
_publ_section_title
;
Structure prediction by ZEFSAII (Michael W. Deem and Ramdas Pophale) SiO2 
 PCOD8260013
Probable space group: C M C M
;
_chemical_formula_sum "Si O2"
_cell_formula_units_Z 80
_cell_length_a 9.292823
_cell_length_b 25.341183
_cell_length_c 17.989800
_cell_angle_alpha 90.000000
_cell_angle_beta 90.000000
_cell_angle_gamma 90.000000
_cell_volume 4236.438299
_symmetry_space_group_name_H-M "C M C M"
_symmetry_group_IT_number 63
_symmetry_cell_setting 'orthorhombic'
loop_
_space_group_symop_operation_xyz
x,y,z
-x,-y,1/2+z
x,-y,-z
-x,y,1/2-z
-x,-y,-z
x,y,1/2-z
-x,y,z
x,-y,1/2+z
1/2+x,1/2+y,z
1/2-x,1/2-y,1/2+z
1/2+x,1/2-y,-z
1/2-x,1/2+y,1/2-z
1/2-x,1/2-y,-z
1/2+x,1/2+y,1/2-z
1/2-x,1/2+y,z
1/2+x,1/2-y,1/2+z
loop_
_atom_site_type_symbol
_atom_site_label
_atom_site_fract_x
_atom_site_fract_y
_atom_site_fract_z
Si Si1 0.332074 0.748057 0.834598
Si Si2 0.333997 0.142690 0.092497
Si Si3 0.168688 0.951642 0.835970
Si Si4 0.666387 0.943920 0.336074
Si Si5 0.666986 0.159597 0.578795
O O1 0.283082 0.738506 0.750000
O O2 0.500000 0.737341 0.845311
O O3 0.294157 0.807909 0.855935
O O4 0.249399 0.709105 0.888432
O O5 0.500000 0.125893 0.103021
O O6 0.233209 0.094612 0.114668
O O7 0.300674 0.157845 0.008119
O O8 0.204734 0.940352 0.750000
O O9 0.000000 0.955618 0.850646
O O10 0.240276 0.006258 0.861675
O O11 0.691968 0.930382 0.250000
O O12 0.500000 0.956805 0.352606
O O13 0.721675 0.894262 0.383359
O O14 0.500000 0.167812 0.596388
#
# Coordination Sequence:
#
# PCOD8260013 Si02
#       5
#    16  16  16  16  16
#     4  10  21  36  55  79 107 142 181 219 266 322
#     4  10  21  37  56  79 110 145 178 216 267 324
#     4  10  21  36  55  80 107 138 180 225 266 312
#     4   9  18  34  55  77 104 140 179 219 265 316
#     4  10  21  36  56  82 109 140 180 223 266 315
#
# _framework density 18.883787999999999
#
# number of rings (size 3 to 8) (size 9 to 14) (size 15 to 20)
#    0.000    2.200    0.000    2.400    0.000    6.400 
#    0.000    6.000    0.000    0.000    0.000    0.000 
#    0.000    0.000    0.000    0.000    0.000    0.000 
#
# Total GULP energy -496209.296352 kJ/mol
# GULP energy per Si atom -12405.232409 kJ/mol
# Density = 1.884081 g / cm^3
# Si number density = 18.883788 Si / 1000 Ang^3
#
#
#
# Elastic Constant Matrix: (Units=GPa)
#
#
# Indices 1 2 3 4 5 6 
#
# 1 59.0745 37.2231 26.2381 0.0000 0.0000 0.0000
# 2 37.2231 69.1746 22.6002 0.0000 0.0000 0.0000
# 3 26.2381 22.6002 56.4345 0.0000 0.0000 0.0000
# 4 0.0000 0.0000 0.0000 21.1624 0.0000 0.0000
# 5 0.0000 0.0000 0.0000 0.0000 26.6836 0.0000
# 6 0.0000 0.0000 0.0000 0.0000 0.0000 32.2941
#
#
#
# Elastic Compliance Matrix: (Units=1/GPa)
#
#
# Indices 1 2 3 4 5 6 
#
# 1 0.028568 -0.012694 -0.008198 0.000000 0.000000 0.000000
# 2 -0.012694 0.022273 -0.003018 0.000000 0.000000 0.000000
# 3 -0.008198 -0.003018 0.022740 0.000000 0.000000 0.000000
# 4 0.000000 0.000000 0.000000 0.047254 0.000000 0.000000
# 5 0.000000 0.000000 0.000000 0.000000 0.037476 0.000000
# 6 0.000000 0.000000 0.000000 0.000000 0.000000 0.030965
#
#
# Mechanical properties :
#
#
# Convention : Reuss Voigt Hill
#
# Bulk Modulus (GPa) = 38.81970 39.64514 39.23242
# Shear Modulus (GPa) = 20.35150 22.60282 21.47716
#
# Velocity S-wave (km/s) = 3.28643 3.46344 3.37610
# Velocity P-wave (km/s) = 5.91630 6.08554 6.00151
#
# Compressibility (1/GPa) = 0.02576012
#
# Stress axis : x y z
#
# Youngs Moduli (GPa) = 35.00475 44.89812 43.97555
#
# Poissons Ratio (x) = 0.56993 0.36053
# Poissons Ratio (y) = 0.44434 0.13271
# Poissons Ratio (z) = 0.28699 0.13549
#
# Static dielectric constant tensor:
#      x y z
#    x 3.396540 0.000000 0.000000 
#    y 0.000000 3.452940 0.000000 
#    z 0.000000 0.000000 3.543020 
# 
# 
# High freq. dielectric constant tensor:
#      x y z
#    x 1.727100 0.000000 0.000000 
#    y 0.000000 1.743560 0.000000 
#    z 0.000000 0.000000 1.738920 
# 
# From -- ./inp_files/40432.got.cif
#   From: 2010.03.12/outbox.cif.g09.slc.cpg/sg63_21_cif.got.tgz:40432.got - 2010.04.10 19:34:48.
