data_PCOD8260242
_publ_section_title
;
Structure prediction by ZEFSAII (Michael W. Deem and Ramdas Pophale) SiO2 
 PCOD8260242
Probable space group: C M C M
;
_chemical_formula_sum "Si O2"
_cell_formula_units_Z 88
_cell_length_a 11.874531
_cell_length_b 20.089143
_cell_length_c 17.239377
_cell_angle_alpha 90.000000
_cell_angle_beta 90.000000
_cell_angle_gamma 90.000000
_cell_volume 4112.438753
_symmetry_space_group_name_H-M "C M C M"
_symmetry_group_IT_number 63
_symmetry_cell_setting 'orthorhombic'
loop_
_space_group_symop_operation_xyz
x,y,z
-x,-y,1/2+z
x,-y,-z
-x,y,1/2-z
-x,-y,-z
x,y,1/2-z
-x,y,z
x,-y,1/2+z
1/2+x,1/2+y,z
1/2-x,1/2-y,1/2+z
1/2+x,1/2-y,-z
1/2-x,1/2+y,1/2-z
1/2-x,1/2-y,-z
1/2+x,1/2+y,1/2-z
1/2-x,1/2+y,z
1/2+x,1/2-y,1/2+z
loop_
_atom_site_type_symbol
_atom_site_label
_atom_site_fract_x
_atom_site_fract_y
_atom_site_fract_z
Si Si1 0.500000 0.792921 0.165064
Si Si2 0.208812 0.631056 0.891235
Si Si3 0.241433 0.012275 0.157393
Si Si4 0.247123 0.641756 0.064957
Si Si5 0.868762 0.240214 0.658731
Si Si6 0.500000 0.471317 0.836124
Si Si7 0.000000 0.842099 0.912604
O O1 0.500000 0.760565 0.250000
O O2 0.609934 0.836413 0.156698
O O3 0.500000 0.735005 0.103415
O O4 0.196502 0.553871 0.868676
O O5 0.324945 0.666253 0.863522
O O6 0.185435 0.638946 0.982596
O O7 0.246868 0.023885 0.250000
O O8 0.291053 0.077672 0.115464
O O9 0.113727 0.001780 0.124870
O O10 0.207086 0.706973 0.111536
O O11 0.381351 0.643086 0.044108
O O12 0.853536 0.253491 0.750000
O O13 0.000000 0.245640 0.634769
O O14 0.500000 0.498169 0.750000
O O15 0.500000 0.390285 0.837375
#
# Coordination Sequence:
#
# PCOD8260242 Si02
#       7
#     8  16  16  16  16   8   8
#     4  12  25  42  66  92 125 168 219 266 316 375
#     4  12  26  41  66  96 132 165 210 268 326 377
#     4  10  21  41  64  92 129 169 217 259 313 377
#     4  11  24  42  67  95 132 169 215 262 319 377
#     4  11  25  43  67  95 129 172 217 259 316 385
#     4   8  17  33  61  92 119 162 211 261 305 360
#     4  10  21  37  66  94 126 166 212 263 309 373
#
# _framework density 21.398496000000002
#
# number of rings (size 3 to 8) (size 9 to 14) (size 15 to 20)
#    0.000    1.273    1.818    3.545    3.818    1.455 
#    1.636    3.636    0.000    0.000    0.000    0.000 
#    0.000    0.000    0.000    0.000    0.000    0.000 
#
# Total GULP energy -545332.223121 kJ/mol
# GULP energy per Si atom -12393.914162 kJ/mol
# Density = 2.134979 g / cm^3
# Si number density = 21.398496 Si / 1000 Ang^3
#
#
#
# Elastic Constant Matrix: (Units=GPa)
#
#
# Indices 1 2 3 4 5 6 
#
# 1 68.1627 16.6593 14.5670 0.0000 0.0000 0.0000
# 2 16.6593 108.7687 10.3537 0.0000 0.0000 0.0000
# 3 14.5670 10.3537 95.1006 0.0000 0.0000 0.0000
# 4 0.0000 0.0000 0.0000 33.4426 0.0000 0.0000
# 5 0.0000 0.0000 0.0000 0.0000 23.9705 0.0000
# 6 0.0000 0.0000 0.0000 0.0000 0.0000 43.3707
#
#
#
# Elastic Compliance Matrix: (Units=1/GPa)
#
#
# Indices 1 2 3 4 5 6 
#
# 1 0.015669 -0.002194 -0.002161 0.000000 0.000000 0.000000
# 2 -0.002194 0.009597 -0.000709 0.000000 0.000000 0.000000
# 3 -0.002161 -0.000709 0.010923 0.000000 0.000000 0.000000
# 4 0.000000 0.000000 0.000000 0.029902 0.000000 0.000000
# 5 0.000000 0.000000 0.000000 0.000000 0.041718 0.000000
# 6 0.000000 0.000000 0.000000 0.000000 0.000000 0.023057
#
#
# Mechanical properties :
#
#
# Convention : Reuss Voigt Hill
#
# Bulk Modulus (GPa) = 38.37097 39.46576 38.91837
# Shear Modulus (GPa) = 33.40413 35.52022 34.46217
#
# Velocity S-wave (km/s) = 3.95530 4.07866 4.01745
# Velocity P-wave (km/s) = 6.23135 6.37682 6.30451
#
# Compressibility (1/GPa) = 0.02606137
#
# Stress axis : x y z
#
# Youngs Moduli (GPa) = 63.82064 104.19536 91.54670
#
# Poissons Ratio (x) = 0.22862 0.19785
# Poissons Ratio (y) = 0.14003 0.06489
# Poissons Ratio (z) = 0.13793 0.07385
#
# Static dielectric constant tensor:
#      x y z
#    x 3.940010 0.000000 0.000000 
#    y 0.000000 3.848360 0.000000 
#    z 0.000000 0.000000 3.766940 
# 
# 
# High freq. dielectric constant tensor:
#      x y z
#    x 1.833100 0.000000 0.000000 
#    y 0.000000 1.846630 0.000000 
#    z 0.000000 0.000000 1.836880 
# 
# From -- ./inp_files/42328.got.cif
#   From: 2010.03.12/outbox.cif.g09.slc.cpg/sg63_22_cif.got.tgz:42328.got - 2010.04.10 19:34:48.
