data_PCOD8260713
_publ_section_title
;
Structure prediction by ZEFSAII (Michael W. Deem and Ramdas Pophale) SiO2 
 PCOD8260713
Probable space group: C M C M
;
_chemical_formula_sum "Si O2"
_cell_formula_units_Z 80
_cell_length_a 11.047754
_cell_length_b 19.494371
_cell_length_c 19.407521
_cell_angle_alpha 90.000000
_cell_angle_beta 90.000000
_cell_angle_gamma 90.000000
_cell_volume 4179.778685
_symmetry_space_group_name_H-M "C M C M"
_symmetry_group_IT_number 63
_symmetry_cell_setting 'orthorhombic'
loop_
_space_group_symop_operation_xyz
x,y,z
-x,-y,1/2+z
x,-y,-z
-x,y,1/2-z
-x,-y,-z
x,y,1/2-z
-x,y,z
x,-y,1/2+z
1/2+x,1/2+y,z
1/2-x,1/2-y,1/2+z
1/2+x,1/2-y,-z
1/2-x,1/2+y,1/2-z
1/2-x,1/2-y,-z
1/2+x,1/2+y,1/2-z
1/2-x,1/2+y,z
1/2+x,1/2-y,1/2+z
loop_
_atom_site_type_symbol
_atom_site_label
_atom_site_fract_x
_atom_site_fract_y
_atom_site_fract_z
Si Si1 0.000000 0.439281 0.398304
Si Si2 0.000000 0.406139 0.553157
Si Si3 0.248060 0.926507 0.331598
Si Si4 0.756102 0.668902 0.427133
Si Si5 0.857627 0.184025 0.571628
Si Si6 0.140187 0.930772 0.672436
O O1 0.885885 0.415158 0.353888
O O2 0.000000 0.400405 0.470748
O O3 0.000000 0.519252 0.414083
O O4 0.117266 0.368772 0.580871
O O5 0.232171 0.917525 0.250000
O O6 0.162341 0.870965 0.368236
O O7 0.209267 0.002329 0.356490
O O8 0.778058 0.748753 0.411789
O O9 0.691938 0.653967 0.499924
O O10 0.667531 0.637651 0.370146
O O11 0.000000 0.201602 0.565399
O O12 0.182480 0.915804 0.750000
O O13 0.000000 0.948410 0.668352
#
# Coordination Sequence:
#
# PCOD8260713 Si02
#       6
#     8   8  16  16  16  16
#     4  11  21  38  64  92 123 157 198 250 309 352
#     4  11  20  38  66  92 120 153 196 260 302 356
#     4  11  23  40  61  88 122 160 202 248 299 359
#     4  11  22  41  63  89 121 155 202 248 304 360
#     4  11  24  39  62  89 121 161 200 248 303 358
#     4  10  22  41  63  87 119 157 197 246 300 357
#
# _framework density 19.139769999999999
#
# number of rings (size 3 to 8) (size 9 to 14) (size 15 to 20)
#    0.000    1.200    5.000    1.500    0.000    2.800 
#    1.800    2.500    0.000    0.000    0.000    0.000 
#    0.000    0.000    0.000    0.000    0.000    0.000 
#
# Total GULP energy -496167.674211 kJ/mol
# GULP energy per Si atom -12404.191855 kJ/mol
# Density = 1.909621 g / cm^3
# Si number density = 19.139770 Si / 1000 Ang^3
#
#
#
# Elastic Constant Matrix: (Units=GPa)
#
#
# Indices 1 2 3 4 5 6 
#
# 1 74.1211 12.3917 18.1638 0.0000 0.0000 0.0000
# 2 12.3917 66.9986 43.1229 0.0000 0.0000 0.0000
# 3 18.1638 43.1229 85.7501 0.0000 0.0000 0.0000
# 4 0.0000 0.0000 0.0000 32.9829 0.0000 0.0000
# 5 0.0000 0.0000 0.0000 0.0000 32.5071 0.0000
# 6 0.0000 0.0000 0.0000 0.0000 0.0000 34.4706
#
#
#
# Elastic Compliance Matrix: (Units=1/GPa)
#
#
# Indices 1 2 3 4 5 6 
#
# 1 0.014278 -0.001026 -0.002508 0.000000 0.000000 0.000000
# 2 -0.001026 0.022143 -0.010918 0.000000 0.000000 0.000000
# 3 -0.002508 -0.010918 0.017684 0.000000 0.000000 0.000000
# 4 0.000000 0.000000 0.000000 0.030319 0.000000 0.000000
# 5 0.000000 0.000000 0.000000 0.000000 0.030763 0.000000
# 6 0.000000 0.000000 0.000000 0.000000 0.000000 0.029010
#
#
# Mechanical properties :
#
#
# Convention : Reuss Voigt Hill
#
# Bulk Modulus (GPa) = 39.68410 41.58074 40.63242
# Shear Modulus (GPa) = 27.54818 30.20489 28.87653
#
# Velocity S-wave (km/s) = 3.79795 3.97687 3.88844
# Velocity P-wave (km/s) = 6.32546 6.54670 6.43703
#
# Compressibility (1/GPa) = 0.02519901
#
# Stress axis : x y z
#
# Youngs Moduli (GPa) = 70.03941 45.16152 56.54946
#
# Poissons Ratio (x) = 0.04635 0.14184
# Poissons Ratio (y) = 0.07189 0.61741
# Poissons Ratio (z) = 0.17567 0.49307
#
# Static dielectric constant tensor:
#      x y z
#    x 3.556700 0.000000 0.000000 
#    y 0.000000 3.457990 0.000000 
#    z 0.000000 0.000000 3.426450 
# 
# 
# High freq. dielectric constant tensor:
#      x y z
#    x 1.759180 0.000000 0.000000 
#    y 0.000000 1.745430 0.000000 
#    z 0.000000 0.000000 1.740340 
# 
# From -- ./inp_files/42140.got.cif
#   From: 2010.03.12/outbox.cif.g09.slc.cpg/sg63_22_cif.got.tgz:42140.got - 2010.04.10 19:34:48.
