data_PCOD8260879
_publ_section_title
;
Structure prediction by ZEFSAII (Michael W. Deem and Ramdas Pophale) SiO2 
 PCOD8260879
Probable space group: C M C M
;
_chemical_formula_sum "Si O2"
_cell_formula_units_Z 96
_cell_length_a 13.793406
_cell_length_b 14.263771
_cell_length_c 24.496055
_cell_angle_alpha 90.000000
_cell_angle_beta 90.000000
_cell_angle_gamma 90.000000
_cell_volume 4819.500457
_symmetry_space_group_name_H-M "C M C M"
_symmetry_group_IT_number 63
_symmetry_cell_setting 'orthorhombic'
loop_
_space_group_symop_operation_xyz
x,y,z
-x,-y,1/2+z
x,-y,-z
-x,y,1/2-z
-x,-y,-z
x,y,1/2-z
-x,y,z
x,-y,1/2+z
1/2+x,1/2+y,z
1/2-x,1/2-y,1/2+z
1/2+x,1/2-y,-z
1/2-x,1/2+y,1/2-z
1/2-x,1/2-y,-z
1/2+x,1/2+y,1/2-z
1/2-x,1/2+y,z
1/2+x,1/2-y,1/2+z
loop_
_atom_site_type_symbol
_atom_site_label
_atom_site_fract_x
_atom_site_fract_y
_atom_site_fract_z
Si Si1 0.888289 0.898939 0.187008
Si Si2 0.889996 0.703796 0.366999
Si Si3 0.105504 0.922050 0.960317
Si Si4 0.749945 0.457553 0.631348
Si Si5 0.392113 0.947310 0.053429
Si Si6 0.361283 0.767057 0.992501
O O1 0.875468 0.872629 0.250000
O O2 0.857584 0.807469 0.152026
O O3 0.000000 0.927090 0.174237
O O4 0.817029 0.986117 0.174023
O O5 0.816713 0.624890 0.342048
O O6 0.887199 0.694812 0.432575
O O7 0.000000 0.684124 0.346593
O O8 0.179220 0.905202 0.911084
O O9 0.085891 0.830137 0.996208
O O10 0.000000 0.956075 0.938282
O O11 0.151269 0.000000 0.000000
O O12 0.819964 0.533575 0.603198
O O13 0.500000 0.982582 0.069641
O O14 0.396545 0.837948 0.039161
O O15 0.352573 0.000000 0.000000
O O16 0.250000 0.750000 0.000000
#
# Coordination Sequence:
#
# PCOD8260879 Si02
#       6
#    16  16  16  16  16  16
#     4  10  24  46  67  86 112 150 201 265 325 368
#     4  11  22  38  62  91 122 159 204 248 294 359
#     4  11  22  34  50  80 119 156 196 241 284 340
#     4  12  22  36  62  89 117 154 202 247 297 359
#     4  11  21  34  53  86 129 165 192 223 277 350
#     4  12  20  34  54  82 123 166 196 231 281 350
#
# _framework density 19.919076
#
# number of rings (size 3 to 8) (size 9 to 14) (size 15 to 20)
#    0.000    0.833    3.333    6.000    0.000    3.333 
#    0.000    0.000    0.000    1.500    0.000    0.000 
#    0.000    0.000    0.000    0.000    0.000    0.000 
#
# Total GULP energy -595129.099632 kJ/mol
# GULP energy per Si atom -12398.522909 kJ/mol
# Density = 1.987374 g / cm^3
# Si number density = 19.919076 Si / 1000 Ang^3
#
#
#
# Elastic Constant Matrix: (Units=GPa)
#
#
# Indices 1 2 3 4 5 6 
#
# 1 122.9281 33.3115 24.3009 0.0000 0.0000 0.0000
# 2 33.3115 116.1147 17.4931 0.0000 0.0000 0.0000
# 3 24.3009 17.4931 48.8925 0.0000 0.0000 0.0000
# 4 0.0000 0.0000 0.0000 20.9574 0.0000 0.0000
# 5 0.0000 0.0000 0.0000 0.0000 26.0180 0.0000
# 6 0.0000 0.0000 0.0000 0.0000 0.0000 98.3352
#
#
#
# Elastic Compliance Matrix: (Units=1/GPa)
#
#
# Indices 1 2 3 4 5 6 
#
# 1 0.009494 -0.002127 -0.003957 0.000000 0.000000 0.000000
# 2 -0.002127 0.009580 -0.002370 0.000000 0.000000 0.000000
# 3 -0.003957 -0.002370 0.023268 0.000000 0.000000 0.000000
# 4 0.000000 0.000000 0.000000 0.047716 0.000000 0.000000
# 5 0.000000 0.000000 0.000000 0.000000 0.038435 0.000000
# 6 0.000000 0.000000 0.000000 0.000000 0.000000 0.010169
#
#
# Mechanical properties :
#
#
# Convention : Reuss Voigt Hill
#
# Bulk Modulus (GPa) = 39.32148 48.68288 44.00218
# Shear Modulus (GPa) = 30.47885 43.25078 36.86481
#
# Velocity S-wave (km/s) = 3.91594 4.66480 4.30668
# Velocity P-wave (km/s) = 6.34268 7.31486 6.84605
#
# Compressibility (1/GPa) = 0.02543139
#
# Stress axis : x y z
#
# Youngs Moduli (GPa) = 105.33364 104.38908 42.97751
#
# Poissons Ratio (x) = 0.22207 0.17008
# Poissons Ratio (y) = 0.22408 0.10186
# Poissons Ratio (z) = 0.41685 0.24741
#
# Static dielectric constant tensor:
#      x y z
#    x 3.939440 0.000000 0.000000 
#    y 0.000000 6.796550 0.000000 
#    z 0.000000 0.000000 3.652060 
# 
# 
# High freq. dielectric constant tensor:
#      x y z
#    x 1.803850 0.000000 0.000000 
#    y 0.000000 1.785260 0.000000 
#    z 0.000000 0.000000 1.723080 
# 
# From -- ./inp_files/54188.got.cif
#   From: 2010.03.12/outbox.cif.g09.slc.cpg/sg63_28_cif.got.tgz:54188.got - 2010.04.10 19:34:48.
