data_PCOD8260833
_publ_section_title
;
Structure prediction by ZEFSAII (Michael W. Deem and Ramdas Pophale) SiO2 
 PCOD8260833
Probable space group: C M C M
;
_chemical_formula_sum "Si O2"
_cell_formula_units_Z 64
_cell_length_a 20.088652
_cell_length_b 9.382593
_cell_length_c 16.663745
_cell_angle_alpha 90.000000
_cell_angle_beta 90.000000
_cell_angle_gamma 90.000000
_cell_volume 3140.843408
_symmetry_space_group_name_H-M "C M C M"
_symmetry_group_IT_number 63
_symmetry_cell_setting 'orthorhombic'
loop_
_space_group_symop_operation_xyz
x,y,z
-x,-y,1/2+z
x,-y,-z
-x,y,1/2-z
-x,-y,-z
x,y,1/2-z
-x,y,z
x,-y,1/2+z
1/2+x,1/2+y,z
1/2-x,1/2-y,1/2+z
1/2+x,1/2-y,-z
1/2-x,1/2+y,1/2-z
1/2-x,1/2-y,-z
1/2+x,1/2+y,1/2-z
1/2-x,1/2+y,z
1/2+x,1/2-y,1/2+z
loop_
_atom_site_type_symbol
_atom_site_label
_atom_site_fract_x
_atom_site_fract_y
_atom_site_fract_z
Si Si1 0.872763 0.958796 0.343932
Si Si2 0.381031 0.790031 0.342554
Si Si3 0.500000 0.286335 0.156530
Si Si4 0.258246 0.878997 0.441185
Si Si5 0.000000 0.470681 0.407559
O O1 0.856786 0.929471 0.250000
O O2 0.892135 0.122906 0.357662
O O3 0.933382 0.861819 0.377277
O O4 0.809981 0.921877 0.398359
O O5 0.387616 0.828702 0.250000
O O6 0.309133 0.841516 0.370989
O O7 0.435725 0.878302 0.389258
O O8 0.500000 0.316197 0.250000
O O9 0.500000 0.118867 0.140058
O O10 0.250000 0.750000 0.500000
O O11 0.286197 0.000000 0.500000
O O12 0.000000 0.500000 0.500000
#
# Coordination Sequence:
#
# PCOD8260833 Si02
#       5
#    16  16   8  16   8
#     4  10  23  44  68  94 129 175 220 265 324 393
#     4  11  24  45  68  94 130 178 221 265 325 397
#     4  10  23  42  67  96 127 166 215 267 321 385
#     4  12  25  43  65  97 135 169 217 272 330 385
#     4  12  27  42  66 100 134 165 218 274 330 382
#
# _framework density 20.376691999999998
#
# number of rings (size 3 to 8) (size 9 to 14) (size 15 to 20)
#    0.000    1.000    2.500    3.375    7.000    2.000 
#    0.000    1.875    0.000    0.000    0.000    0.000 
#    0.000    0.000    0.000    0.000    0.000    0.000 
#
# Total GULP energy -396878.478315 kJ/mol
# GULP energy per Si atom -12402.452447 kJ/mol
# Density = 2.033031 g / cm^3
# Si number density = 20.376692 Si / 1000 Ang^3
#
#
#
# Elastic Constant Matrix: (Units=GPa)
#
#
# Indices 1 2 3 4 5 6 
#
# 1 116.2522 43.2379 45.0843 0.0000 0.0000 0.0000
# 2 43.2379 129.4124 43.4743 0.0000 0.0000 0.0000
# 3 45.0843 43.4743 99.8088 0.0000 0.0000 0.0000
# 4 0.0000 0.0000 0.0000 39.8702 0.0000 0.0000
# 5 0.0000 0.0000 0.0000 0.0000 35.2208 0.0000
# 6 0.0000 0.0000 0.0000 0.0000 0.0000 54.8581
#
#
#
# Elastic Compliance Matrix: (Units=1/GPa)
#
#
# Indices 1 2 3 4 5 6 
#
# 1 0.011008 -0.002351 -0.003948 0.000000 0.000000 0.000000
# 2 -0.002351 0.009554 -0.003099 0.000000 0.000000 0.000000
# 3 -0.003948 -0.003099 0.013152 0.000000 0.000000 0.000000
# 4 0.000000 0.000000 0.000000 0.025081 0.000000 0.000000
# 5 0.000000 0.000000 0.000000 0.000000 0.028392 0.000000
# 6 0.000000 0.000000 0.000000 0.000000 0.000000 0.018229
#
#
# Mechanical properties :
#
#
# Convention : Reuss Voigt Hill
#
# Bulk Modulus (GPa) = 67.03943 67.67404 67.35673
# Shear Modulus (GPa) = 38.70371 40.23495 39.46933
#
# Velocity S-wave (km/s) = 4.36295 4.44842 4.40589
# Velocity P-wave (km/s) = 7.63884 7.72452 7.68180
#
# Compressibility (1/GPa) = 0.01491659
#
# Stress axis : x y z
#
# Youngs Moduli (GPa) = 90.84572 104.66738 76.03128
#
# Poissons Ratio (x) = 0.24613 0.30017
# Poissons Ratio (y) = 0.21362 0.23565
# Poissons Ratio (z) = 0.35866 0.32440
#
# Static dielectric constant tensor:
#      x y z
#    x 3.747190 0.000000 0.000000 
#    y 0.000000 3.668280 0.000000 
#    z 0.000000 0.000000 3.757290 
# 
# 
# High freq. dielectric constant tensor:
#      x y z
#    x 1.806480 0.000000 0.000000 
#    y 0.000000 1.815410 0.000000 
#    z 0.000000 0.000000 1.805990 
# 
# From -- ./inp_files/46546.got.cif
#   From: 2010.03.12/outbox.cif.g09.slc.cpg/sg63_24_cif.got.tgz:46546.got - 2010.04.10 19:34:48.
