data_PCOD8260593
_publ_section_title
;
Structure prediction by ZEFSAII (Michael W. Deem and Ramdas Pophale) SiO2 
 PCOD8260593
Probable space group: C M C M
;
_chemical_formula_sum "Si O2"
_cell_formula_units_Z 68
_cell_length_a 21.689204
_cell_length_b 8.645957
_cell_length_c 16.428744
_cell_angle_alpha 90.000000
_cell_angle_beta 90.000000
_cell_angle_gamma 90.000000
_cell_volume 3080.782560
_symmetry_space_group_name_H-M "C M C M"
_symmetry_group_IT_number 63
_symmetry_cell_setting 'orthorhombic'
loop_
_space_group_symop_operation_xyz
x,y,z
-x,-y,1/2+z
x,-y,-z
-x,y,1/2-z
-x,-y,-z
x,y,1/2-z
-x,y,z
x,-y,1/2+z
1/2+x,1/2+y,z
1/2-x,1/2-y,1/2+z
1/2+x,1/2-y,-z
1/2-x,1/2+y,1/2-z
1/2-x,1/2-y,-z
1/2+x,1/2+y,1/2-z
1/2-x,1/2+y,z
1/2+x,1/2-y,1/2+z
loop_
_atom_site_type_symbol
_atom_site_label
_atom_site_fract_x
_atom_site_fract_y
_atom_site_fract_z
Si Si1 0.631166 0.672882 0.965213
Si Si2 0.668711 0.142798 0.618209
Si Si3 0.214802 0.682264 0.342142
Si Si4 0.500000 0.379641 0.074467
Si Si5 0.569116 0.169387 0.750000
Si Si6 0.000000 0.037120 0.250000
O O1 0.676467 0.684390 0.888199
O O2 0.562268 0.718855 0.936111
O O3 0.634847 0.500000 0.000000
O O4 0.651018 0.802972 0.028756
O O5 0.713283 0.271732 0.657879
O O6 0.606460 0.120443 0.669958
O O7 0.704907 0.981009 0.613053
O O8 0.190822 0.669483 0.250000
O O9 0.500000 0.443500 0.166284
O O10 0.500000 0.500000 0.000000
O O11 0.500000 0.091996 0.750000
O O12 0.561286 0.355686 0.750000
#
# Coordination Sequence:
#
# PCOD8260593 Si02
#       6
#    16  16  16   8   8   4
#     4  11  25  44  71 100 146 186 241 290 357 426
#     4  12  24  46  70 104 141 191 233 296 360 431
#     4  12  25  46  69 107 143 184 245 292 360 425
#     4  10  22  44  66 106 143 192 243 290 356 436
#     4  10  22  40  69 104 136 176 234 288 358 414
#     4  10  22  38  70 100 146 186 242 288 356 426
#
# _framework density 22.072315
#
# number of rings (size 3 to 8) (size 9 to 14) (size 15 to 20)
#    0.353    0.471    2.353    5.647    3.294    0.000 
#    4.235    1.176    0.000    0.000    0.000    0.000 
#    0.000    0.000    0.000    0.000    0.000    0.000 
#
# Total GULP energy -421535.652458 kJ/mol
# GULP energy per Si atom -12398.107425 kJ/mol
# Density = 2.202208 g / cm^3
# Si number density = 22.072315 Si / 1000 Ang^3
#
#
#
# Elastic Constant Matrix: (Units=GPa)
#
#
# Indices 1 2 3 4 5 6 
#
# 1 141.8929 39.3063 31.6302 0.0000 0.0000 0.0000
# 2 39.3063 99.3474 24.1147 0.0000 0.0000 0.0000
# 3 31.6302 24.1147 116.6395 0.0000 0.0000 0.0000
# 4 0.0000 0.0000 0.0000 18.6146 0.0000 0.0000
# 5 0.0000 0.0000 0.0000 0.0000 33.3333 0.0000
# 6 0.0000 0.0000 0.0000 0.0000 0.0000 30.4021
#
#
#
# Elastic Compliance Matrix: (Units=1/GPa)
#
#
# Indices 1 2 3 4 5 6 
#
# 1 0.008201 -0.002848 -0.001635 0.000000 0.000000 0.000000
# 2 -0.002848 0.011586 -0.001623 0.000000 0.000000 0.000000
# 3 -0.001635 -0.001623 0.009352 0.000000 0.000000 0.000000
# 4 0.000000 0.000000 0.000000 0.053721 0.000000 0.000000
# 5 0.000000 0.000000 0.000000 0.000000 0.030000 0.000000
# 6 0.000000 0.000000 0.000000 0.000000 0.000000 0.032892
#
#
# Mechanical properties :
#
#
# Convention : Reuss Voigt Hill
#
# Bulk Modulus (GPa) = 59.07528 60.88692 59.98110
# Shear Modulus (GPa) = 30.56079 33.99190 32.27634
#
# Velocity S-wave (km/s) = 3.72503 3.92857 3.82815
# Velocity P-wave (km/s) = 6.73228 6.94430 6.83911
#
# Compressibility (1/GPa) = 0.01692755
#
# Stress axis : x y z
#
# Youngs Moduli (GPa) = 121.93724 86.30822 106.92403
#
# Poissons Ratio (x) = 0.24578 0.17484
# Poissons Ratio (y) = 0.34725 0.17356
# Poissons Ratio (z) = 0.19939 0.14009
#
# Static dielectric constant tensor:
#      x y z
#    x 4.372790 0.000000 0.000000 
#    y 0.000000 3.678140 0.000000 
#    z 0.000000 0.000000 3.979710 
# 
# 
# High freq. dielectric constant tensor:
#      x y z
#    x 1.881940 0.000000 0.000000 
#    y 0.000000 1.846590 0.000000 
#    z 0.000000 0.000000 1.880620 
# 
# From -- ./inp_files/46666.got.cif
#   From: 2010.03.12/outbox.cif.g09.slc.cpg/sg63_24_cif.got.tgz:46666.got - 2010.04.10 19:34:48.
