data_PCOD8260333
_publ_section_title
;
Structure prediction by ZEFSAII (Michael W. Deem and Ramdas Pophale) SiO2 
 PCOD8260333
Probable space group: C M C M
;
_chemical_formula_sum "Si O2"
_cell_formula_units_Z 104
_cell_length_a 21.285820
_cell_length_b 26.921136
_cell_length_c 8.821909
_cell_angle_alpha 90.000000
_cell_angle_beta 90.000000
_cell_angle_gamma 90.000000
_cell_volume 5055.293104
_symmetry_space_group_name_H-M "C M C M"
_symmetry_group_IT_number 63
_symmetry_cell_setting 'orthorhombic'
loop_
_space_group_symop_operation_xyz
x,y,z
-x,-y,1/2+z
x,-y,-z
-x,y,1/2-z
-x,-y,-z
x,y,1/2-z
-x,y,z
x,-y,1/2+z
1/2+x,1/2+y,z
1/2-x,1/2-y,1/2+z
1/2+x,1/2-y,-z
1/2-x,1/2+y,1/2-z
1/2-x,1/2-y,-z
1/2+x,1/2+y,1/2-z
1/2-x,1/2+y,z
1/2+x,1/2-y,1/2+z
loop_
_atom_site_type_symbol
_atom_site_label
_atom_site_fract_x
_atom_site_fract_y
_atom_site_fract_z
Si Si1 0.215598 0.447914 0.571041
Si Si2 0.324218 0.392538 0.429258
Si Si3 0.885307 0.618154 0.571421
Si Si4 0.000000 0.552675 0.572428
Si Si5 0.306780 0.719320 0.927025
Si Si6 0.572372 0.781235 0.926286
Si Si7 0.926784 0.051759 0.075988
O O1 0.191875 0.500000 0.500000
O O2 0.212001 0.452997 0.750000
O O3 0.285191 0.435511 0.514399
O O4 0.175992 0.400464 0.515161
O O5 0.317615 0.398448 0.250000
O O6 0.303236 0.337609 0.482129
O O7 0.395020 0.402932 0.483898
O O8 0.872547 0.616336 0.750000
O O9 0.905495 0.673020 0.527175
O O10 0.939550 0.581702 0.515790
O O11 0.000000 0.500000 0.500000
O O12 0.000000 0.546940 0.750000
O O13 0.295124 0.723070 0.750000
O O14 0.377351 0.738282 0.966688
O O15 0.250000 0.750000 0.000000
O O16 0.576399 0.795821 0.750000
O O17 0.500000 0.765718 0.967285
O O18 0.904617 0.051065 0.250000
O O19 0.000000 0.061799 0.061596
O O20 0.907441 0.000000 0.000000
#
# Coordination Sequence:
#
# PCOD8260333 Si02
#       7
#    16  16  16   8  16  16  16
#     4  12  25  41  61  88 121 160 203 249 301 360
#     4  11  23  40  62  89 121 158 199 250 307 363
#     4  11  22  39  59  86 120 157 200 246 298 354
#     4  10  22  36  54  80 114 150 190 238 287 342
#     4  10  23  41  62  89 120 157 203 255 311 367
#     4  10  21  39  63  90 120 159 206 254 305 364
#     4  10  21  38  61  90 124 161 200 243 295 360
#
# _framework density 20.572496000000001
#
# number of rings (size 3 to 8) (size 9 to 14) (size 15 to 20)
#    0.000    1.385    0.769    4.615    0.000    8.308 
#    0.000    1.538    0.000    0.000    0.000    0.000 
#    0.000    0.000    0.000    0.000    0.000    0.000 
#
# Total GULP energy -644860.569003 kJ/mol
# GULP energy per Si atom -12401.164789 kJ/mol
# Density = 2.052567 g / cm^3
# Si number density = 20.572496 Si / 1000 Ang^3
#
#
#
# Elastic Constant Matrix: (Units=GPa)
#
#
# Indices 1 2 3 4 5 6 
#
# 1 108.8530 45.6562 43.7485 0.0000 0.0000 0.0000
# 2 45.6562 95.7482 45.5767 0.0000 0.0000 0.0000
# 3 43.7485 45.5767 98.2459 0.0000 0.0000 0.0000
# 4 0.0000 0.0000 0.0000 33.7637 0.0000 0.0000
# 5 0.0000 0.0000 0.0000 0.0000 27.8300 0.0000
# 6 0.0000 0.0000 0.0000 0.0000 0.0000 41.1363
#
#
#
# Elastic Compliance Matrix: (Units=1/GPa)
#
#
# Indices 1 2 3 4 5 6 
#
# 1 0.012384 -0.004210 -0.003562 0.000000 0.000000 0.000000
# 2 -0.004210 0.014835 -0.005007 0.000000 0.000000 0.000000
# 3 -0.003562 -0.005007 0.014087 0.000000 0.000000 0.000000
# 4 0.000000 0.000000 0.000000 0.029618 0.000000 0.000000
# 5 0.000000 0.000000 0.000000 0.000000 0.035932 0.000000
# 6 0.000000 0.000000 0.000000 0.000000 0.000000 0.024309
#
#
# Mechanical properties :
#
#
# Convention : Reuss Voigt Hill
#
# Bulk Modulus (GPa) = 63.49684 63.64553 63.57119
# Shear Modulus (GPa) = 30.86941 31.73705 31.30323
#
# Velocity S-wave (km/s) = 3.87785 3.93197 3.90501
# Velocity P-wave (km/s) = 7.14019 7.18458 7.16242
#
# Compressibility (1/GPa) = 0.01574882
#
# Stress axis : x y z
#
# Youngs Moduli (GPa) = 80.75073 67.40825 70.98515
#
# Poissons Ratio (x) = 0.28377 0.25282
# Poissons Ratio (y) = 0.33994 0.35545
# Poissons Ratio (z) = 0.28760 0.33754
#
# Static dielectric constant tensor:
#      x y z
#    x 3.968790 0.000000 0.000000 
#    y 0.000000 3.790450 0.000000 
#    z 0.000000 0.000000 3.649280 
# 
# 
# High freq. dielectric constant tensor:
#      x y z
#    x 1.821670 0.000000 0.000000 
#    y 0.000000 1.804020 0.000000 
#    z 0.000000 0.000000 1.805540 
# 
# From -- ./inp_files/8744.got.cif
#   From: 2010.03.12/outbox.cif.g09.slc.cpg/sg63_5_cif.got.tgz:8744.got - 2010.04.10 19:34:48.
