data_PCOD8260807
_publ_section_title
;
Structure prediction by ZEFSAII (Michael W. Deem and Ramdas Pophale) SiO2 
 PCOD8260807
Probable space group: C M C M
;
_chemical_formula_sum "Si O2"
_cell_formula_units_Z 64
_cell_length_a 15.544398
_cell_length_b 11.434323
_cell_length_c 17.380565
_cell_angle_alpha 90.000000
_cell_angle_beta 90.000000
_cell_angle_gamma 90.000000
_cell_volume 3089.215845
_symmetry_space_group_name_H-M "C M C M"
_symmetry_group_IT_number 63
_symmetry_cell_setting 'orthorhombic'
loop_
_space_group_symop_operation_xyz
x,y,z
-x,-y,1/2+z
x,-y,-z
-x,y,1/2-z
-x,-y,-z
x,y,1/2-z
-x,y,z
x,-y,1/2+z
1/2+x,1/2+y,z
1/2-x,1/2-y,1/2+z
1/2+x,1/2-y,-z
1/2-x,1/2+y,1/2-z
1/2-x,1/2-y,-z
1/2+x,1/2+y,1/2-z
1/2-x,1/2+y,z
1/2+x,1/2-y,1/2+z
loop_
_atom_site_type_symbol
_atom_site_label
_atom_site_fract_x
_atom_site_fract_y
_atom_site_fract_z
Si Si1 0.650867 0.366144 0.521054
Si Si2 0.000000 0.023544 0.750000
Si Si3 0.000000 0.822125 0.870141
Si Si4 0.000000 0.377551 0.250000
Si Si5 0.804826 0.888674 0.250000
Si Si6 0.807777 0.279822 0.617469
Si Si7 0.153940 0.555841 0.250000
O O1 0.636176 0.500000 0.500000
O O2 0.583430 0.316638 0.579477
O O3 0.740776 0.350915 0.565105
O O4 0.635301 0.290758 0.443889
O O5 0.910006 0.097968 0.750000
O O6 0.000000 0.942683 0.675849
O O7 0.000000 0.703509 0.823507
O O8 0.914008 0.453134 0.250000
O O9 0.770075 0.818289 0.324583
O O10 0.753798 0.011783 0.250000
O O11 0.861175 0.368661 0.672087
#
# Coordination Sequence:
#
# PCOD8260807 Si02
#       7
#    16   4   8   4   8  16   8
#     4  11  22  39  61  91 123 157 200 254 305 356
#     4  11  22  37  64  94 112 153 208 253 302 358
#     4  11  23  39  61  88 120 154 202 255 305 354
#     4  11  26  43  62  88 122 165 208 241 296 374
#     4  11  22  41  64  88 124 159 200 257 302 348
#     4  10  23  38  61  89 119 159 204 241 301 370
#     4  11  22  41  62  86 122 165 202 249 298 356
#
# _framework density 20.717231999999999
#
# number of rings (size 3 to 8) (size 9 to 14) (size 15 to 20)
#    0.000    1.250    0.000    6.375    0.000   10.000 
#    0.000    1.250    0.000    0.000    0.000    0.000 
#    0.000    0.000    0.000    0.000    0.000    0.000 
#
# Total GULP energy -396597.446778 kJ/mol
# GULP energy per Si atom -12393.670212 kJ/mol
# Density = 2.067008 g / cm^3
# Si number density = 20.717232 Si / 1000 Ang^3
#
#
#
# Elastic Constant Matrix: (Units=GPa)
#
#
# Indices 1 2 3 4 5 6 
#
# 1 76.3166 48.5752 32.8091 0.0000 0.0000 0.0000
# 2 48.5752 142.3929 73.3407 0.0000 0.0000 0.0000
# 3 32.8091 73.3407 165.1586 0.0000 0.0000 0.0000
# 4 0.0000 0.0000 0.0000 92.9322 0.0000 0.0000
# 5 0.0000 0.0000 0.0000 0.0000 12.6550 0.0000
# 6 0.0000 0.0000 0.0000 0.0000 0.0000 30.0675
#
#
#
# Elastic Compliance Matrix: (Units=1/GPa)
#
#
# Indices 1 2 3 4 5 6 
#
# 1 0.016872 -0.005224 -0.001032 0.000000 0.000000 0.000000
# 2 -0.005224 0.010723 -0.003724 0.000000 0.000000 0.000000
# 3 -0.001032 -0.003724 0.007913 0.000000 0.000000 0.000000
# 4 0.000000 0.000000 0.000000 0.010761 0.000000 0.000000
# 5 0.000000 0.000000 0.000000 0.000000 0.079020 0.000000
# 6 0.000000 0.000000 0.000000 0.000000 0.000000 0.033259
#
#
# Mechanical properties :
#
#
# Convention : Reuss Voigt Hill
#
# Bulk Modulus (GPa) = 64.31412 77.03535 70.67473
# Shear Modulus (GPa) = 27.21974 42.40715 34.81345
#
# Velocity S-wave (km/s) = 3.62867 4.52923 4.10373
# Velocity P-wave (km/s) = 6.97621 8.03846 7.52610
#
# Compressibility (1/GPa) = 0.01554869
#
# Stress axis : x y z
#
# Youngs Moduli (GPa) = 59.26948 93.25746 126.36821
#
# Poissons Ratio (x) = 0.48720 0.13039
# Poissons Ratio (y) = 0.30964 0.47058
# Poissons Ratio (z) = 0.06115 0.34728
#
# Static dielectric constant tensor:
#      x y z
#    x 3.408500 0.000000 0.000000 
#    y 0.000000 3.860440 0.000000 
#    z 0.000000 0.000000 4.123020 
# 
# 
# High freq. dielectric constant tensor:
#      x y z
#    x 1.787440 0.000000 0.000000 
#    y 0.000000 1.824280 0.000000 
#    z 0.000000 0.000000 1.838950 
# 
# From -- ./inp_files/43521.got.cif
#   From: 2010.03.12/outbox.cif.g09.slc.cpg/sg63_22_cif.got.tgz:43521.got - 2010.04.10 19:34:48.
