data_PCOD8260241
_publ_section_title
;
Structure prediction by ZEFSAII (Michael W. Deem and Ramdas Pophale) SiO2 
 PCOD8260241
Probable space group: C M C M
;
_chemical_formula_sum "Si O2"
_cell_formula_units_Z 96
_cell_length_a 15.145443
_cell_length_b 16.871434
_cell_length_c 19.286563
_cell_angle_alpha 90.000000
_cell_angle_beta 90.000000
_cell_angle_gamma 90.000000
_cell_volume 4928.205606
_symmetry_space_group_name_H-M "C M C M"
_symmetry_group_IT_number 63
_symmetry_cell_setting 'orthorhombic'
loop_
_space_group_symop_operation_xyz
x,y,z
-x,-y,1/2+z
x,-y,-z
-x,y,1/2-z
-x,-y,-z
x,y,1/2-z
-x,y,z
x,-y,1/2+z
1/2+x,1/2+y,z
1/2-x,1/2-y,1/2+z
1/2+x,1/2-y,-z
1/2-x,1/2+y,1/2-z
1/2-x,1/2-y,-z
1/2+x,1/2+y,1/2-z
1/2-x,1/2+y,z
1/2+x,1/2-y,1/2+z
loop_
_atom_site_type_symbol
_atom_site_label
_atom_site_fract_x
_atom_site_fract_y
_atom_site_fract_z
Si Si1 0.191803 0.218269 0.434651
Si Si2 0.166439 0.535320 0.172234
Si Si3 0.000000 0.961305 0.074424
Si Si4 0.500000 0.210489 0.943390
Si Si5 0.500000 0.925054 0.329475
Si Si6 0.177703 0.032435 0.075013
Si Si7 0.500000 0.276467 0.090041
Si Si8 0.337366 0.783045 0.830264
O O1 0.250000 0.250000 0.500000
O O2 0.093068 0.249843 0.425336
O O3 0.176122 0.125494 0.436375
O O4 0.245180 0.241566 0.365568
O O5 0.202901 0.531124 0.250000
O O6 0.243847 0.503794 0.123908
O O7 0.139172 0.625409 0.155071
O O8 0.083708 0.480068 0.160723
O O9 0.000000 0.866773 0.062856
O O10 0.088816 0.995508 0.110272
O O11 0.000000 0.000000 0.000000
O O12 0.500000 0.132334 0.896015
O O13 0.500000 0.210433 0.028063
O O14 0.500000 0.887775 0.250000
O O15 0.197798 0.000000 0.000000
O O16 0.414591 0.268700 0.137306
O O17 0.329029 0.762350 0.750000
#
# Coordination Sequence:
#
# PCOD8260241 Si02
#       8
#    16  16   8   8   8  16   8  16
#     4  11  23  40  63  90 126 161 203 256 310 365
#     4   9  20  40  60  84 119 162 201 248 311 366
#     4  10  22  38  60  86 121 159 198 244 316 361
#     4  12  24  37  62  88 128 159 202 255 313 375
#     4  10  23  39  59  87 128 167 201 250 315 374
#     4  10  21  37  64  86 115 157 204 246 299 365
#     4  12  22  38  64  93 126 161 209 267 312 360
#     4  10  22  40  65  92 124 165 210 259 313 366
#
# _framework density 19.479707000000001
#
# number of rings (size 3 to 8) (size 9 to 14) (size 15 to 20)
#    0.000    1.667    1.667    3.250    2.333    2.000 
#    0.000    5.000    0.000    4.000    0.000    1.167 
#    0.000    0.000    0.000    0.000    0.000    0.000 
#
# Total GULP energy -594709.856481 kJ/mol
# GULP energy per Si atom -12389.788677 kJ/mol
# Density = 1.943537 g / cm^3
# Si number density = 19.479707 Si / 1000 Ang^3
#
#
#
# Elastic Constant Matrix: (Units=GPa)
#
#
# Indices 1 2 3 4 5 6 
#
# 1 174.5110 60.5780 75.4796 0.0000 0.0000 0.0000
# 2 60.5780 62.8411 52.0664 0.0000 0.0000 0.0000
# 3 75.4796 52.0664 124.0697 0.0000 0.0000 0.0000
# 4 0.0000 0.0000 0.0000 28.2051 0.0000 0.0000
# 5 0.0000 0.0000 0.0000 0.0000 41.2485 0.0000
# 6 0.0000 0.0000 0.0000 0.0000 0.0000 -5.2237
#
#
#
# Elastic Compliance Matrix: (Units=1/GPa)
#
#
# Indices 1 2 3 4 5 6 
#
# 1 0.009241 -0.006516 -0.002888 0.000000 0.000000 0.000000
# 2 -0.006516 0.028990 -0.008202 0.000000 0.000000 0.000000
# 3 -0.002888 -0.008202 0.013259 0.000000 0.000000 0.000000
# 4 0.000000 0.000000 0.000000 0.035455 0.000000 0.000000
# 5 0.000000 0.000000 0.000000 0.000000 0.024243 0.000000
# 6 0.000000 0.000000 0.000000 0.000000 0.000000 -0.191434
#
#
# Mechanical properties :
#
#
# Convention : Reuss Voigt Hill
#
# Bulk Modulus (GPa) = 61.42785 81.96331 71.69558
# Shear Modulus (GPa) = -126.22985 24.39916 -50.91535
#
# Velocity S-wave (km/s) = -8.05862 3.54297 -5.11804
# Velocity P-wave (km/s) = 7.41524 7.67492 1.39976
#
# Compressibility (1/GPa) = 0.01627926
#
# Stress axis : x y z
#
# Youngs Moduli (GPa) = 108.21280 34.49497 75.42321
#
# Poissons Ratio (x) = 0.22476 0.21779
# Poissons Ratio (y) = 0.70509 0.61860
# Poissons Ratio (z) = 0.31247 0.28292
#
# Static dielectric constant tensor:
#      x y z
#    x 3.307660 0.000000 0.000000 
#    y 0.000000 3.107360 0.000000 
#    z 0.000000 0.000000 3.633490 
# 
# 
# High freq. dielectric constant tensor:
#      x y z
#    x 1.782220 0.000000 0.000000 
#    y 0.000000 1.753640 0.000000 
#    z 0.000000 0.000000 1.755590 
# 
# From -- ./inp_files/54284.got.cif
#   From: 2010.03.12/outbox.cif.g09.slc.cpg/sg63_28_cif.got.tgz:54284.got - 2010.04.10 19:34:48.
