data_PCOD8260685
_publ_section_title
;
Structure prediction by ZEFSAII (Michael W. Deem and Ramdas Pophale) SiO2 
 PCOD8260685
Probable space group: C M C M
;
_chemical_formula_sum "Si O2"
_cell_formula_units_Z 48
_cell_length_a 15.689273
_cell_length_b 8.531704
_cell_length_c 16.266434
_cell_angle_alpha 90.000000
_cell_angle_beta 90.000000
_cell_angle_gamma 90.000000
_cell_volume 2177.363583
_symmetry_space_group_name_H-M "C M C M"
_symmetry_group_IT_number 63
_symmetry_cell_setting 'orthorhombic'
loop_
_space_group_symop_operation_xyz
x,y,z
-x,-y,1/2+z
x,-y,-z
-x,y,1/2-z
-x,-y,-z
x,y,1/2-z
-x,y,z
x,-y,1/2+z
1/2+x,1/2+y,z
1/2-x,1/2-y,1/2+z
1/2+x,1/2-y,-z
1/2-x,1/2+y,1/2-z
1/2-x,1/2-y,-z
1/2+x,1/2+y,1/2-z
1/2-x,1/2+y,z
1/2+x,1/2-y,1/2+z
loop_
_atom_site_type_symbol
_atom_site_label
_atom_site_fract_x
_atom_site_fract_y
_atom_site_fract_z
Si Si1 0.335091 0.392491 0.656781
Si Si2 0.826461 0.557400 0.593099
Si Si3 0.500000 0.071983 0.409385
Si Si4 0.000000 0.942692 0.407853
O O1 0.339425 0.330616 0.750000
O O2 0.252560 0.500683 0.646733
O O3 0.330636 0.245888 0.594711
O O4 0.416997 0.497308 0.638731
O O5 0.814967 0.500000 0.500000
O O6 0.913724 0.490177 0.633816
O O7 0.500000 0.257068 0.408398
O O8 0.500000 0.000000 0.500000
O O9 0.000000 0.000000 0.500000
#
# Coordination Sequence:
#
# PCOD8260685 Si02
#       4
#    16  16   8   8
#     4  12  25  42  64  98 136 173 218 279 339 391
#     4  11  22  42  67  95 130 175 225 271 327 401
#     4  10  22  40  65  95 123 160 216 268 316 378
#     4  12  23  42  69  95 126 168 217 268 324 396
#
# _framework density 22.045010999999999
#
# number of rings (size 3 to 8) (size 9 to 14) (size 15 to 20)
#    0.000    0.667    0.000   10.500    0.000    0.000 
#    0.000    7.500    0.000    0.000    0.000    0.000 
#    0.000    0.000    0.000    0.000    0.000    0.000 
#
# Total GULP energy -297713.545908 kJ/mol
# GULP energy per Si atom -12404.731079 kJ/mol
# Density = 2.199484 g / cm^3
# Si number density = 22.045011 Si / 1000 Ang^3
#
#
#
# Elastic Constant Matrix: (Units=GPa)
#
#
# Indices 1 2 3 4 5 6 
#
# 1 218.4341 69.1982 28.2160 0.0000 0.0000 0.0000
# 2 69.1982 180.5915 14.7818 0.0000 0.0000 0.0000
# 3 28.2160 14.7818 85.9939 0.0000 0.0000 0.0000
# 4 0.0000 0.0000 0.0000 28.1911 0.0000 0.0000
# 5 0.0000 0.0000 0.0000 0.0000 -11.2797 0.0000
# 6 0.0000 0.0000 0.0000 0.0000 0.0000 35.8632
#
#
#
# Elastic Compliance Matrix: (Units=1/GPa)
#
#
# Indices 1 2 3 4 5 6 
#
# 1 0.005379 -0.001944 -0.001431 0.000000 0.000000 0.000000
# 2 -0.001944 0.006319 -0.000448 0.000000 0.000000 0.000000
# 3 -0.001431 -0.000448 0.012175 0.000000 0.000000 0.000000
# 4 0.000000 0.000000 0.000000 0.035472 0.000000 0.000000
# 5 0.000000 0.000000 0.000000 0.000000 -0.088655 0.000000
# 6 0.000000 0.000000 0.000000 0.000000 0.000000 0.027884
#
#
# Mechanical properties :
#
#
# Convention : Reuss Voigt Hill
#
# Bulk Modulus (GPa) = 61.62586 78.82351 70.22469
# Shear Modulus (GPa) = 429.97539 35.40983 232.69261
#
# Velocity S-wave (km/s) = 13.98098 4.01215 10.28506
# Velocity P-wave (km/s) = 16.98938 7.56945 13.15172
#
# Compressibility (1/GPa) = 0.01622695
#
# Stress axis : x y z
#
# Youngs Moduli (GPa) = 185.92040 158.25548 82.13394
#
# Poissons Ratio (x) = 0.30763 0.11751
# Poissons Ratio (y) = 0.36140 0.03683
# Poissons Ratio (z) = 0.26599 0.07096
#
# Static dielectric constant tensor:
#      x y z
#    x 4.833610 0.000000 0.000000 
#    y 0.000000 3.934510 0.000000 
#    z 0.000000 0.000000 3.670980 
# 
# 
# High freq. dielectric constant tensor:
#      x y z
#    x 1.898830 0.000000 0.000000 
#    y 0.000000 1.880500 0.000000 
#    z 0.000000 0.000000 1.847700 
# 
# From -- ./inp_files/43201.got.cif
#   From: 2010.03.12/outbox.cif.g09.slc.cpg/sg63_22_cif.got.tgz:43201.got - 2010.04.10 19:34:48.
