data_PCOD8260186
_publ_section_title
;
Structure prediction by ZEFSAII (Michael W. Deem and Ramdas Pophale) SiO2 
 PCOD8260186
Probable space group: C M C M
;
_chemical_formula_sum "Si O2"
_cell_formula_units_Z 80
_cell_length_a 8.935488
_cell_length_b 17.956792
_cell_length_c 25.761535
_cell_angle_alpha 90.000000
_cell_angle_beta 90.000000
_cell_angle_gamma 90.000000
_cell_volume 4133.507832
_symmetry_space_group_name_H-M "C M C M"
_symmetry_group_IT_number 63
_symmetry_cell_setting 'orthorhombic'
loop_
_space_group_symop_operation_xyz
x,y,z
-x,-y,1/2+z
x,-y,-z
-x,y,1/2-z
-x,-y,-z
x,y,1/2-z
-x,y,z
x,-y,1/2+z
1/2+x,1/2+y,z
1/2-x,1/2-y,1/2+z
1/2+x,1/2-y,-z
1/2-x,1/2+y,1/2-z
1/2-x,1/2-y,-z
1/2+x,1/2+y,1/2-z
1/2-x,1/2+y,z
1/2+x,1/2-y,1/2+z
loop_
_atom_site_type_symbol
_atom_site_label
_atom_site_fract_x
_atom_site_fract_y
_atom_site_fract_z
Si Si1 0.829113 0.823628 0.750000
Si Si2 0.173877 0.926715 0.848046
Si Si3 0.176158 0.165029 0.052325
Si Si4 0.176695 0.583328 0.844094
Si Si5 0.823566 0.831203 0.250000
Si Si6 0.175869 0.334292 0.447509
O O1 0.797020 0.871988 0.699443
O O2 0.715901 0.755431 0.750000
O O3 0.000000 0.794052 0.750000
O O4 0.229255 0.885973 0.900155
O O5 0.000000 0.949921 0.851240
O O6 0.275152 0.998317 0.839274
O O7 0.229381 0.249643 0.063027
O O8 0.000000 0.161677 0.045983
O O9 0.248768 0.133768 0.999603
O O10 0.256976 0.631429 0.800817
O O11 0.227987 0.614851 0.899781
O O12 0.000000 0.590683 0.836194
O O13 0.000000 0.842353 0.250000
O O14 0.000000 0.338012 0.455495
#
# Coordination Sequence:
#
# PCOD8260186 Si02
#       6
#     8  16  16  16   8  16
#     4  10  21  40  63  83 111 149 185 228 281 334
#     4  10  21  37  58  85 117 152 190 233 283 335
#     4   9  18  34  56  81 111 148 190 235 282 332
#     4  11  23  39  59  83 115 151 188 232 282 336
#     4  12  25  40  61  87 113 143 185 232 279 338
#     4   9  19  36  57  81 109 146 191 234 279 331
#
# _framework density 19.354023000000002
#
# number of rings (size 3 to 8) (size 9 to 14) (size 15 to 20)
#    0.000    2.000    0.000    3.300    0.000    8.000 
#    0.000    8.000    0.000    0.000    0.000    0.000 
#    0.000    0.000    0.000    0.000    0.000    0.000 
#
# Total GULP energy -496174.524401 kJ/mol
# GULP energy per Si atom -12404.363110 kJ/mol
# Density = 1.930997 g / cm^3
# Si number density = 19.354023 Si / 1000 Ang^3
#
#
#
# Elastic Constant Matrix: (Units=GPa)
#
#
# Indices 1 2 3 4 5 6 
#
# 1 68.7668 44.8457 58.3622 0.0000 0.0000 0.0000
# 2 44.8457 102.9911 66.9813 0.0000 0.0000 0.0000
# 3 58.3622 66.9813 163.6114 0.0000 0.0000 0.0000
# 4 0.0000 0.0000 0.0000 65.1351 0.0000 0.0000
# 5 0.0000 0.0000 0.0000 0.0000 34.0884 0.0000
# 6 0.0000 0.0000 0.0000 0.0000 0.0000 33.7310
#
#
#
# Elastic Compliance Matrix: (Units=1/GPa)
#
#
# Indices 1 2 3 4 5 6 
#
# 1 0.023731 -0.006580 -0.005771 0.000000 0.000000 0.000000
# 2 -0.006580 0.015057 -0.003817 0.000000 0.000000 0.000000
# 3 -0.005771 -0.003817 0.009734 0.000000 0.000000 0.000000
# 4 0.000000 0.000000 0.000000 0.015353 0.000000 0.000000
# 5 0.000000 0.000000 0.000000 0.000000 0.029335 0.000000
# 6 0.000000 0.000000 0.000000 0.000000 0.000000 0.029646
#
#
# Mechanical properties :
#
#
# Convention : Reuss Voigt Hill
#
# Bulk Modulus (GPa) = 61.78594 75.08308 68.43451
# Shear Modulus (GPa) = 31.13556 37.60291 34.36924
#
# Velocity S-wave (km/s) = 4.01526 4.41261 4.21862
# Velocity P-wave (km/s) = 7.31367 8.05235 7.69188
#
# Compressibility (1/GPa) = 0.01618491
#
# Stress axis : x y z
#
# Youngs Moduli (GPa) = 42.13894 66.41347 102.73759
#
# Poissons Ratio (x) = 0.43698 0.59295
# Poissons Ratio (y) = 0.27726 0.39217
# Poissons Ratio (z) = 0.24320 0.25352
#
# Static dielectric constant tensor:
#      x y z
#    x 3.442480 0.000000 0.000000 
#    y 0.000000 3.558390 0.000000 
#    z 0.000000 0.000000 3.893700 
# 
# 
# High freq. dielectric constant tensor:
#      x y z
#    x 1.745770 0.000000 0.000000 
#    y 0.000000 1.754210 0.000000 
#    z 0.000000 0.000000 1.772930 
# 
# From -- ./inp_files/66672.got.cif
#   From: 2010.03.12/outbox.cif.g09.slc.cpg/sg63_34_cif.got.tgz:66672.got - 2010.04.10 19:34:48.
