data_PCOD8260483
_publ_section_title
;
Structure prediction by ZEFSAII (Michael W. Deem and Ramdas Pophale) SiO2 
 PCOD8260483
Probable space group: C M C M
;
_chemical_formula_sum "Si O2"
_cell_formula_units_Z 80
_cell_length_a 18.709970
_cell_length_b 7.687337
_cell_length_c 28.148510
_cell_angle_alpha 90.000000
_cell_angle_beta 90.000000
_cell_angle_gamma 90.000000
_cell_volume 4048.595820
_symmetry_space_group_name_H-M "C M C M"
_symmetry_group_IT_number 63
_symmetry_cell_setting 'orthorhombic'
loop_
_space_group_symop_operation_xyz
x,y,z
-x,-y,1/2+z
x,-y,-z
-x,y,1/2-z
-x,-y,-z
x,y,1/2-z
-x,y,z
x,-y,1/2+z
1/2+x,1/2+y,z
1/2-x,1/2-y,1/2+z
1/2+x,1/2-y,-z
1/2-x,1/2+y,1/2-z
1/2-x,1/2-y,-z
1/2+x,1/2+y,1/2-z
1/2-x,1/2+y,z
1/2+x,1/2-y,1/2+z
loop_
_atom_site_type_symbol
_atom_site_label
_atom_site_fract_x
_atom_site_fract_y
_atom_site_fract_z
Si Si1 0.153431 0.968533 0.554754
Si Si2 0.169684 0.632353 0.305819
Si Si3 0.671320 0.732442 0.305749
Si Si4 0.794282 0.630692 0.535449
Si Si5 0.416708 0.568067 0.646074
O O1 0.153243 0.757681 0.565090
O O2 0.097777 0.062328 0.589407
O O3 0.130812 0.000000 0.500000
O O4 0.234479 0.033185 0.567299
O O5 0.160256 0.665546 0.250000
O O6 0.248977 0.684361 0.322260
O O7 0.154163 0.432003 0.319289
O O8 0.114064 0.753254 0.333244
O O9 0.663553 0.701551 0.250000
O O10 0.616504 0.603916 0.330906
O O11 0.837638 0.500000 0.500000
O O12 0.750000 0.750000 0.500000
O O13 0.500000 0.567175 0.656416
#
# Coordination Sequence:
#
# PCOD8260483 Si02
#       5
#    16  16  16  16  16
#     4   9  19  35  55  85 117 155 200 250 306 357
#     4  10  21  40  67  95 120 157 206 256 309 367
#     4  10  21  40  66  94 120 154 206 257 305 368
#     4   7  13  29  53  80 103 135 195 250 290 336
#     4  12  26  39  59  93 130 167 204 251 309 365
#
# _framework density 19.759937999999998
#
# number of rings (size 3 to 8) (size 9 to 14) (size 15 to 20)
#    0.000    2.800    2.000    0.600    2.800    2.800 
#    7.200    2.000    0.000    0.600    0.000    0.000 
#    0.000    0.000    0.000    0.000    0.000    0.000 
#
# Total GULP energy -495621.415770 kJ/mol
# GULP energy per Si atom -12390.535394 kJ/mol
# Density = 1.971496 g / cm^3
# Si number density = 19.759938 Si / 1000 Ang^3
#
#
#
# Elastic Constant Matrix: (Units=GPa)
#
#
# Indices 1 2 3 4 5 6 
#
# 1 116.9701 50.0739 44.5303 0.0000 0.0000 0.0000
# 2 50.0739 133.0797 44.7760 0.0000 0.0000 0.0000
# 3 44.5303 44.7760 70.6509 0.0000 0.0000 0.0000
# 4 0.0000 0.0000 0.0000 22.3056 0.0000 0.0000
# 5 0.0000 0.0000 0.0000 0.0000 6.3297 0.0000
# 6 0.0000 0.0000 0.0000 0.0000 0.0000 24.0712
#
#
#
# Elastic Compliance Matrix: (Units=1/GPa)
#
#
# Indices 1 2 3 4 5 6 
#
# 1 0.011856 -0.002475 -0.005905 0.000000 0.000000 0.000000
# 2 -0.002475 0.010067 -0.004821 0.000000 0.000000 0.000000
# 3 -0.005905 -0.004821 0.020931 0.000000 0.000000 0.000000
# 4 0.000000 0.000000 0.000000 0.044832 0.000000 0.000000
# 5 0.000000 0.000000 0.000000 0.000000 0.157985 0.000000
# 6 0.000000 0.000000 0.000000 0.000000 0.000000 0.041543
#
#
# Mechanical properties :
#
#
# Convention : Reuss Voigt Hill
#
# Bulk Modulus (GPa) = 60.77203 66.60679 63.68941
# Shear Modulus (GPa) = 15.66910 22.62933 19.14921
#
# Velocity S-wave (km/s) = 2.81903 3.38777 3.11640
# Velocity P-wave (km/s) = 6.43567 7.00598 6.72687
#
# Compressibility (1/GPa) = 0.01645494
#
# Stress axis : x y z
#
# Youngs Moduli (GPa) = 84.34246 99.33113 47.77624
#
# Poissons Ratio (x) = 0.24580 0.28210
# Poissons Ratio (y) = 0.20871 0.23031
# Poissons Ratio (z) = 0.49802 0.47884
#
# Static dielectric constant tensor:
#      x y z
#    x 3.303600 0.000000 0.000000 
#    y 0.000000 4.657630 0.000000 
#    z 0.000000 0.000000 3.586200 
# 
# 
# High freq. dielectric constant tensor:
#      x y z
#    x 1.712880 0.000000 0.000000 
#    y 0.000000 1.796790 0.000000 
#    z 0.000000 0.000000 1.768650 
# 
# From -- ./inp_files/69729.got.cif
#   From: 2010.03.12/outbox.cif.g09.slc.cpg/sg63_35_cif.got.tgz:69729.got - 2010.04.10 19:34:48.
