data_PCOD8260581
_publ_section_title
;
Structure prediction by ZEFSAII (Michael W. Deem and Ramdas Pophale) SiO2 
 PCOD8260581
Probable space group: C M C M
;
_chemical_formula_sum "Si O2"
_cell_formula_units_Z 96
_cell_length_a 22.807797
_cell_length_b 11.690624
_cell_length_c 18.333870
_cell_angle_alpha 90.000000
_cell_angle_beta 90.000000
_cell_angle_gamma 90.000000
_cell_volume 4888.495044
_symmetry_space_group_name_H-M "C M C M"
_symmetry_group_IT_number 63
_symmetry_cell_setting 'orthorhombic'
loop_
_space_group_symop_operation_xyz
x,y,z
-x,-y,1/2+z
x,-y,-z
-x,y,1/2-z
-x,-y,-z
x,y,1/2-z
-x,y,z
x,-y,1/2+z
1/2+x,1/2+y,z
1/2-x,1/2-y,1/2+z
1/2+x,1/2-y,-z
1/2-x,1/2+y,1/2-z
1/2-x,1/2-y,-z
1/2+x,1/2+y,1/2-z
1/2-x,1/2+y,z
1/2+x,1/2-y,1/2+z
loop_
_atom_site_type_symbol
_atom_site_label
_atom_site_fract_x
_atom_site_fract_y
_atom_site_fract_z
Si Si1 0.132458 0.542279 0.418548
Si Si2 0.265556 0.780705 0.581969
Si Si3 0.066143 0.719516 0.169451
Si Si4 0.347980 0.345027 0.835106
Si Si5 0.567110 0.150541 0.835412
Si Si6 0.660339 0.601454 0.667945
O O1 0.122364 0.500000 0.500000
O O2 0.197247 0.600103 0.409270
O O3 0.086731 0.639933 0.396555
O O4 0.116441 0.435141 0.367488
O O5 0.250000 0.750000 0.500000
O O6 0.205493 0.786554 0.624524
O O7 0.298060 0.670941 0.614269
O O8 0.075531 0.661146 0.250000
O O9 0.097220 0.840864 0.168453
O O10 0.000000 0.748969 0.154209
O O11 0.334295 0.339673 0.750000
O O12 0.408612 0.278021 0.852859
O O13 0.351570 0.475060 0.862799
O O14 0.564975 0.127279 0.750000
O O15 0.500000 0.136694 0.866649
O O16 0.687282 0.599589 0.750000
#
# Coordination Sequence:
#
# PCOD8260581 Si02
#       6
#    16  16  16  16  16  16
#     4  11  23  37  57  86 116 156 196 241 296 348
#     4  11  24  39  59  82 117 155 200 249 298 347
#     4   9  18  35  59  85 114 149 191 241 293 346
#     4  10  22  38  60  86 116 155 194 241 295 352
#     4  10  22  40  61  89 124 158 194 239 297 360
#     4   9  20  38  58  85 114 148 196 243 291 351
#
# _framework density 19.637945999999999
#
# number of rings (size 3 to 8) (size 9 to 14) (size 15 to 20)
#    0.000    2.000    0.000    2.500    4.667    5.333 
#    0.000    3.333    0.000    0.000    0.000    7.000 
#    0.000    0.000    0.000    0.000    0.000    0.000 
#
# Total GULP energy -594815.030889 kJ/mol
# GULP energy per Si atom -12391.979810 kJ/mol
# Density = 1.959325 g / cm^3
# Si number density = 19.637946 Si / 1000 Ang^3
#
#
#
# Elastic Constant Matrix: (Units=GPa)
#
#
# Indices 1 2 3 4 5 6 
#
# 1 111.8067 46.0955 47.0964 0.0000 0.0000 0.0000
# 2 46.0955 123.6407 35.1666 0.0000 0.0000 0.0000
# 3 47.0964 35.1666 48.0830 0.0000 0.0000 0.0000
# 4 0.0000 0.0000 0.0000 11.4326 0.0000 0.0000
# 5 0.0000 0.0000 0.0000 0.0000 20.0617 0.0000
# 6 0.0000 0.0000 0.0000 0.0000 0.0000 23.1394
#
#
#
# Elastic Compliance Matrix: (Units=1/GPa)
#
#
# Indices 1 2 3 4 5 6 
#
# 1 0.015554 -0.001851 -0.013882 0.000000 0.000000 0.000000
# 2 -0.001851 0.010433 -0.005817 0.000000 0.000000 0.000000
# 3 -0.013882 -0.005817 0.038649 0.000000 0.000000 0.000000
# 4 0.000000 0.000000 0.000000 0.087469 0.000000 0.000000
# 5 0.000000 0.000000 0.000000 0.000000 0.049846 0.000000
# 6 0.000000 0.000000 0.000000 0.000000 0.000000 0.043216
#
#
# Mechanical properties :
#
#
# Convention : Reuss Voigt Hill
#
# Bulk Modulus (GPa) = 46.43319 60.02750 53.23035
# Shear Modulus (GPa) = 16.92357 21.27153 19.09755
#
# Velocity S-wave (km/s) = 2.93879 3.29475 3.12185
# Velocity P-wave (km/s) = 5.93391 6.71619 6.33714
#
# Compressibility (1/GPa) = 0.02153632
#
# Stress axis : x y z
#
# Youngs Moduli (GPa) = 64.29055 95.85405 25.87396
#
# Poissons Ratio (x) = 0.17739 0.35917
# Poissons Ratio (y) = 0.11898 0.15052
# Poissons Ratio (z) = 0.89246 0.55762
#
# Static dielectric constant tensor:
#      x y z
#    x 3.503970 0.000000 0.000000 
#    y 0.000000 3.787990 0.000000 
#    z 0.000000 0.000000 3.549940 
# 
# 
# High freq. dielectric constant tensor:
#      x y z
#    x 1.765850 0.000000 0.000000 
#    y 0.000000 1.773230 0.000000 
#    z 0.000000 0.000000 1.758170 
# 
# From -- ./inp_files/47972.got.cif
#   From: 2010.03.12/outbox.cif.g09.slc.cpg/sg63_24_cif.got.tgz:47972.got - 2010.04.10 19:34:48.
