data_PCOD8260638
_publ_section_title
;
Structure prediction by ZEFSAII (Michael W. Deem and Ramdas Pophale) SiO2 
 PCOD8260638
Probable space group: C M C M
;
_chemical_formula_sum "Si O2"
_cell_formula_units_Z 96
_cell_length_a 8.753473
_cell_length_b 30.197331
_cell_length_c 19.154093
_cell_angle_alpha 90.000000
_cell_angle_beta 90.000000
_cell_angle_gamma 90.000000
_cell_volume 5063.030547
_symmetry_space_group_name_H-M "C M C M"
_symmetry_group_IT_number 63
_symmetry_cell_setting 'orthorhombic'
loop_
_space_group_symop_operation_xyz
x,y,z
-x,-y,1/2+z
x,-y,-z
-x,y,1/2-z
-x,-y,-z
x,y,1/2-z
-x,y,z
x,-y,1/2+z
1/2+x,1/2+y,z
1/2-x,1/2-y,1/2+z
1/2+x,1/2-y,-z
1/2-x,1/2+y,1/2-z
1/2-x,1/2-y,-z
1/2+x,1/2+y,1/2-z
1/2-x,1/2+y,z
1/2+x,1/2-y,1/2+z
loop_
_atom_site_type_symbol
_atom_site_label
_atom_site_fract_x
_atom_site_fract_y
_atom_site_fract_z
Si Si1 0.320317 0.865927 0.433489
Si Si2 0.322854 0.026802 0.169353
Si Si3 0.681377 0.887804 0.912230
Si Si4 0.819877 0.228896 0.931385
Si Si5 0.318652 0.195920 0.172128
Si Si6 0.823470 0.065494 0.831242
O O1 0.500000 0.857617 0.435015
O O2 0.262774 0.884834 0.507882
O O3 0.239422 0.819958 0.416487
O O4 0.278912 0.900408 0.373693
O O5 0.299484 0.039980 0.250000
O O6 0.500000 0.016694 0.153632
O O7 0.258565 0.066855 0.122269
O O8 0.225363 0.984039 0.148545
O O9 0.500000 0.886993 0.907663
O O10 0.749185 0.846023 0.869926
O O11 0.769615 0.258901 0.865870
O O12 0.000000 0.228134 0.940666
O O13 0.750000 0.250000 0.000000
O O14 0.249314 0.196291 0.250000
O O15 0.500000 0.191940 0.175033
O O16 0.791700 0.074313 0.750000
O O17 0.000000 0.072239 0.850376
#
# Coordination Sequence:
#
# PCOD8260638 Si02
#       6
#    16  16  16  16  16  16
#     4  11  22  37  58  84 112 145 187 234 285 337
#     4   9  17  32  57  84 109 142 184 230 278 326
#     4   9  17  31  53  84 114 141 179 227 278 333
#     4  11  21  36  57  82 113 152 192 231 281 335
#     4   9  17  31  54  83 111 141 183 231 274 325
#     4  10  22  40  58  78 109 148 189 231 278 336
#
# _framework density 18.960977
#
# number of rings (size 3 to 8) (size 9 to 14) (size 15 to 20)
#    0.000    2.167    1.667    2.000    0.000    4.333 
#    0.000    6.667    0.000    1.500    0.000    0.000 
#    0.000    0.000    0.000    0.000    0.000    0.000 
#
# Total GULP energy -595296.754462 kJ/mol
# GULP energy per Si atom -12402.015718 kJ/mol
# Density = 1.891782 g / cm^3
# Si number density = 18.960977 Si / 1000 Ang^3
#
#
#
# Elastic Constant Matrix: (Units=GPa)
#
#
# Indices 1 2 3 4 5 6 
#
# 1 42.8467 26.3839 30.1097 0.0000 0.0000 0.0000
# 2 26.3839 141.6217 77.5045 0.0000 0.0000 0.0000
# 3 30.1097 77.5045 119.1511 0.0000 0.0000 0.0000
# 4 0.0000 0.0000 0.0000 40.4606 0.0000 0.0000
# 5 0.0000 0.0000 0.0000 0.0000 22.5811 0.0000
# 6 0.0000 0.0000 0.0000 0.0000 0.0000 31.8644
#
#
#
# Elastic Compliance Matrix: (Units=1/GPa)
#
#
# Indices 1 2 3 4 5 6 
#
# 1 0.028793 -0.002146 -0.005880 0.000000 0.000000 0.000000
# 2 -0.002146 0.011124 -0.006694 0.000000 0.000000 0.000000
# 3 -0.005880 -0.006694 0.014233 0.000000 0.000000 0.000000
# 4 0.000000 0.000000 0.000000 0.024715 0.000000 0.000000
# 5 0.000000 0.000000 0.000000 0.000000 0.044285 0.000000
# 6 0.000000 0.000000 0.000000 0.000000 0.000000 0.031383
#
#
# Mechanical properties :
#
#
# Convention : Reuss Voigt Hill
#
# Bulk Modulus (GPa) = 40.46962 63.51286 51.99124
# Shear Modulus (GPa) = 26.01348 30.28932 28.15140
#
# Velocity S-wave (km/s) = 3.70800 4.00115 3.85736
# Velocity P-wave (km/s) = 6.30257 7.41046 6.87886
#
# Compressibility (1/GPa) = 0.02470989
#
# Stress axis : x y z
#
# Youngs Moduli (GPa) = 34.73123 89.89558 70.26160
#
# Poissons Ratio (x) = 0.19293 0.41313
# Poissons Ratio (y) = 0.07454 0.47030
# Poissons Ratio (z) = 0.20422 0.60172
#
# Static dielectric constant tensor:
#      x y z
#    x 3.032850 0.000000 0.000000 
#    y 0.000000 3.536360 0.000000 
#    z 0.000000 0.000000 3.565870 
# 
# 
# High freq. dielectric constant tensor:
#      x y z
#    x 1.707810 0.000000 0.000000 
#    y 0.000000 1.749780 0.000000 
#    z 0.000000 0.000000 1.742440 
# 
# From -- ./inp_files/51427.got.cif
#   From: 2010.03.12/outbox.cif.g09.slc.cpg/sg63_26_cif.got.tgz:51427.got - 2010.04.10 19:34:48.
