data_PCOD8260085
_publ_section_title
;
Structure prediction by ZEFSAII (Michael W. Deem and Ramdas Pophale) SiO2 
 PCOD8260085
Probable space group: C M C M
;
_chemical_formula_sum "Si O2"
_cell_formula_units_Z 96
_cell_length_a 26.877131
_cell_length_b 9.320602
_cell_length_c 19.805434
_cell_angle_alpha 90.000000
_cell_angle_beta 90.000000
_cell_angle_gamma 90.000000
_cell_volume 4961.479888
_symmetry_space_group_name_H-M "C M C M"
_symmetry_group_IT_number 63
_symmetry_cell_setting 'orthorhombic'
loop_
_space_group_symop_operation_xyz
x,y,z
-x,-y,1/2+z
x,-y,-z
-x,y,1/2-z
-x,-y,-z
x,y,1/2-z
-x,y,z
x,-y,1/2+z
1/2+x,1/2+y,z
1/2-x,1/2-y,1/2+z
1/2+x,1/2-y,-z
1/2-x,1/2+y,1/2-z
1/2-x,1/2-y,-z
1/2+x,1/2+y,1/2-z
1/2-x,1/2+y,z
1/2+x,1/2-y,1/2+z
loop_
_atom_site_type_symbol
_atom_site_label
_atom_site_fract_x
_atom_site_fract_y
_atom_site_fract_z
Si Si1 0.707870 0.861645 0.086310
Si Si2 0.386504 0.170920 0.828952
Si Si3 0.941501 0.865617 0.925668
Si Si4 0.445051 0.108938 0.174605
Si Si5 0.908960 0.183837 0.930289
Si Si6 0.802848 0.693430 0.431523
O O1 0.667008 0.799370 0.137610
O O2 0.762065 0.797495 0.102993
O O3 0.708290 0.032968 0.093415
O O4 0.695494 0.803504 0.012260
O O5 0.382860 0.202536 0.750000
O O6 0.428015 0.275285 0.859896
O O7 0.403986 0.009381 0.844801
O O8 0.000000 0.897590 0.929053
O O9 0.911518 0.013800 0.920958
O O10 0.924376 0.778255 0.992688
O O11 0.434052 0.168162 0.250000
O O12 0.500000 0.037833 0.172432
O O13 0.445832 0.239056 0.121773
O O14 0.855251 0.243304 0.908513
#
# Coordination Sequence:
#
# PCOD8260085 Si02
#       6
#    16  16  16  16  16  16
#     4  10  21  39  59  95 117 154 197 245 307 362
#     4  11  23  41  61  86 125 163 203 251 300 363
#     4  11  24  38  60  92 127 164 206 252 303 360
#     4  10  21  38  61  87 119 161 203 247 301 360
#     4  11  21  39  62  91 121 158 201 257 306 358
#     4  10  21  36  67  89 120 149 198 251 304 366
#
# _framework density 19.349065
#
# number of rings (size 3 to 8) (size 9 to 14) (size 15 to 20)
#    0.000    1.500    3.333    2.500    2.333    3.667 
#    0.000    3.333    0.000    0.000    0.000    0.000 
#    0.000    0.000    0.000    0.000    0.000    0.000 
#
# Total GULP energy -595216.384850 kJ/mol
# GULP energy per Si atom -12400.341351 kJ/mol
# Density = 1.930503 g / cm^3
# Si number density = 19.349065 Si / 1000 Ang^3
#
#
#
# Elastic Constant Matrix: (Units=GPa)
#
#
# Indices 1 2 3 4 5 6 
#
# 1 120.2270 48.1023 34.1934 0.0000 0.0000 0.0000
# 2 48.1023 92.6922 52.4699 0.0000 0.0000 0.0000
# 3 34.1934 52.4699 94.7413 0.0000 0.0000 0.0000
# 4 0.0000 0.0000 0.0000 27.5384 0.0000 0.0000
# 5 0.0000 0.0000 0.0000 0.0000 28.3784 0.0000
# 6 0.0000 0.0000 0.0000 0.0000 0.0000 34.3833
#
#
#
# Elastic Compliance Matrix: (Units=1/GPa)
#
#
# Indices 1 2 3 4 5 6 
#
# 1 0.010580 -0.004849 -0.001133 0.000000 0.000000 0.000000
# 2 -0.004849 0.017938 -0.008184 0.000000 0.000000 0.000000
# 3 -0.001133 -0.008184 0.015496 0.000000 0.000000 0.000000
# 4 0.000000 0.000000 0.000000 0.036313 0.000000 0.000000
# 5 0.000000 0.000000 0.000000 0.000000 0.035238 0.000000
# 6 0.000000 0.000000 0.000000 0.000000 0.000000 0.029084
#
#
# Mechanical properties :
#
#
# Convention : Reuss Voigt Hill
#
# Bulk Modulus (GPa) = 63.76852 64.13242 63.95047
# Shear Modulus (GPa) = 28.05705 29.58635 28.82170
#
# Velocity S-wave (km/s) = 3.81208 3.91459 3.86368
# Velocity P-wave (km/s) = 7.23909 7.32455 7.28194
#
# Compressibility (1/GPa) = 0.01568172
#
# Stress axis : x y z
#
# Youngs Moduli (GPa) = 94.51879 55.74890 64.53074
#
# Poissons Ratio (x) = 0.27033 0.07311
# Poissons Ratio (y) = 0.45833 0.52813
# Poissons Ratio (z) = 0.10708 0.45626
#
# Static dielectric constant tensor:
#      x y z
#    x 3.579390 0.000000 0.000000 
#    y 0.000000 3.369370 0.000000 
#    z 0.000000 0.000000 3.415420 
# 
# 
# High freq. dielectric constant tensor:
#      x y z
#    x 1.765340 0.000000 0.000000 
#    y 0.000000 1.747070 0.000000 
#    z 0.000000 0.000000 1.739150 
# 
# From -- ./inp_files/58052.got.cif
#   From: 2010.03.12/outbox.cif.g09.slc.cpg/sg63_30_cif.got.tgz:58052.got - 2010.04.10 19:34:48.
