data_PCOD8260558
_publ_section_title
;
Structure prediction by ZEFSAII (Michael W. Deem and Ramdas Pophale) SiO2 
 PCOD8260558
Probable space group: C M C M
;
_chemical_formula_sum "Si O2"
_cell_formula_units_Z 112
_cell_length_a 24.345942
_cell_length_b 15.906193
_cell_length_c 14.363999
_cell_angle_alpha 90.000000
_cell_angle_beta 90.000000
_cell_angle_gamma 90.000000
_cell_volume 5562.476600
_symmetry_space_group_name_H-M "C M C M"
_symmetry_group_IT_number 63
_symmetry_cell_setting 'orthorhombic'
loop_
_space_group_symop_operation_xyz
x,y,z
-x,-y,1/2+z
x,-y,-z
-x,y,1/2-z
-x,-y,-z
x,y,1/2-z
-x,y,z
x,-y,1/2+z
1/2+x,1/2+y,z
1/2-x,1/2-y,1/2+z
1/2+x,1/2-y,-z
1/2-x,1/2+y,1/2-z
1/2-x,1/2-y,-z
1/2+x,1/2+y,1/2-z
1/2-x,1/2+y,z
1/2+x,1/2-y,1/2+z
loop_
_atom_site_type_symbol
_atom_site_label
_atom_site_fract_x
_atom_site_fract_y
_atom_site_fract_z
Si Si1 0.239985 0.122471 0.140117
Si Si2 0.159586 0.593150 0.482115
Si Si3 0.128285 0.957103 0.640322
Si Si4 0.803603 0.295271 0.147886
Si Si5 0.079808 0.787273 0.850794
Si Si6 0.059982 0.714201 0.039021
Si Si7 0.436866 0.616330 0.640036
O O1 0.241703 0.111542 0.250000
O O2 0.188068 0.069020 0.098845
O O3 0.238504 0.222445 0.114247
O O4 0.295961 0.086293 0.099036
O O5 0.137297 0.500000 0.500000
O O6 0.189885 0.630785 0.573217
O O7 0.106410 0.644365 0.448052
O O8 0.134657 0.967590 0.750000
O O9 0.082866 0.885194 0.619515
O O10 0.104056 0.044433 0.598841
O O11 0.786597 0.332867 0.250000
O O12 0.858911 0.244202 0.160855
O O13 0.049800 0.777090 0.750000
O O14 0.049468 0.734869 0.930197
O O15 0.081031 0.796276 0.093259
O O16 0.000000 0.684018 0.077370
O O17 0.429316 0.625955 0.750000
O O18 0.500000 0.594252 0.615363
#
# Coordination Sequence:
#
# PCOD8260558 Si02
#       7
#    16  16  16  16  16  16  16
#     4   9  18  36  59  84 115 146 181 224 277 341
#     4  11  23  38  56  82 110 141 189 240 286 328
#     4   8  15  31  54  82 116 148 177 217 273 332
#     4   8  16  35  59  79 107 144 178 224 278 331
#     4   8  15  30  53  80 109 140 177 224 277 333
#     4  10  22  38  55  77 106 146 194 236 280 331
#     4   9  18  34  55  80 113 150 187 224 266 328
#
# _framework density 20.134916
#
# number of rings (size 3 to 8) (size 9 to 14) (size 15 to 20)
#    0.000    3.000    0.000    2.143    0.000    2.857 
#   10.286    2.857    0.000    0.000    0.000    4.000 
#    0.000    0.000    0.000    0.000    0.000    0.000 
#
# Total GULP energy -693916.343021 kJ/mol
# GULP energy per Si atom -12391.363268 kJ/mol
# Density = 2.008909 g / cm^3
# Si number density = 20.134916 Si / 1000 Ang^3
#
#
#
# Elastic Constant Matrix: (Units=GPa)
#
#
# Indices 1 2 3 4 5 6 
#
# 1 102.4878 58.4399 21.3967 0.0000 0.0000 0.0000
# 2 58.4399 131.3176 33.9401 0.0000 0.0000 0.0000
# 3 21.3967 33.9401 40.9057 0.0000 0.0000 0.0000
# 4 0.0000 0.0000 0.0000 17.8866 0.0000 0.0000
# 5 0.0000 0.0000 0.0000 0.0000 39.1888 0.0000
# 6 0.0000 0.0000 0.0000 0.0000 0.0000 7.8088
#
#
#
# Elastic Compliance Matrix: (Units=1/GPa)
#
#
# Indices 1 2 3 4 5 6 
#
# 1 0.013289 -0.005242 -0.002602 0.000000 0.000000 0.000000
# 2 -0.005242 0.011761 -0.007017 0.000000 0.000000 0.000000
# 3 -0.002602 -0.007017 0.031630 0.000000 0.000000 0.000000
# 4 0.000000 0.000000 0.000000 0.055908 0.000000 0.000000
# 5 0.000000 0.000000 0.000000 0.000000 0.025517 0.000000
# 6 0.000000 0.000000 0.000000 0.000000 0.000000 0.128060
#
#
# Mechanical properties :
#
#
# Convention : Reuss Voigt Hill
#
# Bulk Modulus (GPa) = 37.09343 55.80717 46.45030
# Shear Modulus (GPa) = 16.40025 23.70581 20.05303
#
# Velocity S-wave (km/s) = 2.85707 3.43497 3.15926
# Velocity P-wave (km/s) = 5.41722 6.59612 6.03552
#
# Compressibility (1/GPa) = 0.02695895
#
# Stress axis : x y z
#
# Youngs Moduli (GPa) = 75.24830 85.02451 31.61585
#
# Poissons Ratio (x) = 0.44566 0.08227
# Poissons Ratio (y) = 0.39442 0.22184
# Poissons Ratio (z) = 0.19582 0.59661
#
# Static dielectric constant tensor:
#      x y z
#    x 3.582840 0.000000 0.000000 
#    y 0.000000 3.555730 0.000000 
#    z 0.000000 0.000000 3.738500 
# 
# 
# High freq. dielectric constant tensor:
#      x y z
#    x 1.774900 0.000000 0.000000 
#    y 0.000000 1.766510 0.000000 
#    z 0.000000 0.000000 1.782280 
# 
# From -- ./inp_files/36946.got.cif
#   From: 2010.03.12/outbox.cif.g09.slc.cpg/sg63_19_cif.got.tgz:36946.got - 2010.04.10 19:34:48.
