data_PCOD8260011
_publ_section_title
;
Structure prediction by ZEFSAII (Michael W. Deem and Ramdas Pophale) SiO2 
 PCOD8260011
Probable space group: C M C M
;
_chemical_formula_sum "Si O2"
_cell_formula_units_Z 96
_cell_length_a 28.077635
_cell_length_b 19.979103
_cell_length_c 9.281717
_cell_angle_alpha 90.000000
_cell_angle_beta 90.000000
_cell_angle_gamma 90.000000
_cell_volume 5206.727303
_symmetry_space_group_name_H-M "C M C M"
_symmetry_group_IT_number 63
_symmetry_cell_setting 'orthorhombic'
loop_
_space_group_symop_operation_xyz
x,y,z
-x,-y,1/2+z
x,-y,-z
-x,y,1/2-z
-x,-y,-z
x,y,1/2-z
-x,y,z
x,-y,1/2+z
1/2+x,1/2+y,z
1/2-x,1/2-y,1/2+z
1/2+x,1/2-y,-z
1/2-x,1/2+y,1/2-z
1/2-x,1/2-y,-z
1/2+x,1/2+y,1/2-z
1/2-x,1/2+y,z
1/2+x,1/2-y,1/2+z
loop_
_atom_site_type_symbol
_atom_site_label
_atom_site_fract_x
_atom_site_fract_y
_atom_site_fract_z
Si Si1 0.790976 0.837161 0.417846
Si Si2 0.584729 0.815652 0.416536
Si Si3 0.444811 0.685141 0.584456
Si Si4 0.627817 0.567974 0.582372
Si Si5 0.690406 0.205599 0.586540
Si Si6 0.554719 0.940074 0.908796
O O1 0.801005 0.828897 0.250000
O O2 0.821588 0.900699 0.472301
O O3 0.734499 0.844071 0.453988
O O4 0.811168 0.770160 0.487352
O O5 0.568742 0.818189 0.250000
O O6 0.572284 0.743321 0.478669
O O7 0.640794 0.832926 0.432335
O O8 0.556889 0.870679 0.506555
O O9 0.436184 0.707404 0.750000
O O10 0.500000 0.668597 0.556595
O O11 0.414813 0.619086 0.547356
O O12 0.617403 0.500000 0.500000
O O13 0.629997 0.550702 0.750000
O O14 0.697106 0.230855 0.750000
O O15 0.578941 0.934476 0.750000
O O16 0.500000 0.958579 0.886167
O O17 0.579568 0.000000 0.000000
#
# Coordination Sequence:
#
# PCOD8260011 Si02
#       6
#    16  16  16  16  16  16
#     4   9  17  33  54  76 102 135 174 215 261 314
#     4  11  21  33  53  83 114 142 174 220 271 321
#     4  10  21  37  55  77 106 141 185 232 275 323
#     4  10  21  36  55  77 105 143 182 226 276 327
#     4   9  18  31  52  80 107 133 168 216 261 310
#     4  10  21  37  56  77 104 141 182 221 264 318
#
# _framework density 18.437685999999999
#
# number of rings (size 3 to 8) (size 9 to 14) (size 15 to 20)
#    0.000    2.167    1.667    1.500    0.000    5.667 
#    0.000    0.833    0.000    2.000    0.000    0.000 
#    0.000    0.000    0.000    0.000    0.000    0.000 
#
# Total GULP energy -595068.133141 kJ/mol
# GULP energy per Si atom -12397.252774 kJ/mol
# Density = 1.839572 g / cm^3
# Si number density = 18.437686 Si / 1000 Ang^3
#
#
#
# Elastic Constant Matrix: (Units=GPa)
#
#
# Indices 1 2 3 4 5 6 
#
# 1 87.0327 43.7551 36.3064 0.0000 0.0000 0.0000
# 2 43.7551 112.8526 60.5521 0.0000 0.0000 0.0000
# 3 36.3064 60.5521 99.3305 0.0000 0.0000 0.0000
# 4 0.0000 0.0000 0.0000 34.8127 0.0000 0.0000
# 5 0.0000 0.0000 0.0000 0.0000 20.3550 0.0000
# 6 0.0000 0.0000 0.0000 0.0000 0.0000 25.1471
#
#
#
# Elastic Compliance Matrix: (Units=1/GPa)
#
#
# Indices 1 2 3 4 5 6 
#
# 1 0.014792 -0.004212 -0.002839 0.000000 0.000000 0.000000
# 2 -0.004212 0.014368 -0.007219 0.000000 0.000000 0.000000
# 3 -0.002839 -0.007219 0.015506 0.000000 0.000000 0.000000
# 4 0.000000 0.000000 0.000000 0.028725 0.000000 0.000000
# 5 0.000000 0.000000 0.000000 0.000000 0.049128 0.000000
# 6 0.000000 0.000000 0.000000 0.000000 0.000000 0.039766
#
#
# Mechanical properties :
#
#
# Convention : Reuss Voigt Hill
#
# Bulk Modulus (GPa) = 62.01382 64.49367 63.25375
# Shear Modulus (GPa) = 25.48432 26.63642 26.06037
#
# Velocity S-wave (km/s) = 3.72181 3.80501 3.76364
# Velocity P-wave (km/s) = 7.22333 7.37288 7.29849
#
# Compressibility (1/GPa) = 0.01612544
#
# Stress axis : x y z
#
# Youngs Moduli (GPa) = 67.60556 69.60146 64.49174
#
# Poissons Ratio (x) = 0.29314 0.18310
# Poissons Ratio (y) = 0.28473 0.46557
# Poissons Ratio (z) = 0.19194 0.50246
#
# Static dielectric constant tensor:
#      x y z
#    x 3.644690 0.000000 0.000000 
#    y 0.000000 3.132570 0.000000 
#    z 0.000000 0.000000 3.547620 
# 
# 
# High freq. dielectric constant tensor:
#      x y z
#    x 1.719060 0.000000 0.000000 
#    y 0.000000 1.692850 0.000000 
#    z 0.000000 0.000000 1.721730 
# 
# From -- ./inp_files/12356.got.cif
#   From: 2010.03.12/outbox.cif.g09.slc.cpg/sg63_7_cif.got.tgz:12356.got - 2010.04.10 19:34:48.
