data_PCOD8260041
_publ_section_title
;
Structure prediction by ZEFSAII (Michael W. Deem and Ramdas Pophale) SiO2 
 PCOD8260041
Probable space group: C M C M
;
_chemical_formula_sum "Si O2"
_cell_formula_units_Z 80
_cell_length_a 8.386973
_cell_length_b 19.261916
_cell_length_c 25.680646
_cell_angle_alpha 90.000000
_cell_angle_beta 90.000000
_cell_angle_gamma 90.000000
_cell_volume 4148.687031
_symmetry_space_group_name_H-M "C M C M"
_symmetry_group_IT_number 63
_symmetry_cell_setting 'orthorhombic'
loop_
_space_group_symop_operation_xyz
x,y,z
-x,-y,1/2+z
x,-y,-z
-x,y,1/2-z
-x,-y,-z
x,y,1/2-z
-x,y,z
x,-y,1/2+z
1/2+x,1/2+y,z
1/2-x,1/2-y,1/2+z
1/2+x,1/2-y,-z
1/2-x,1/2+y,1/2-z
1/2-x,1/2-y,-z
1/2+x,1/2+y,1/2-z
1/2-x,1/2+y,z
1/2+x,1/2-y,1/2+z
loop_
_atom_site_type_symbol
_atom_site_label
_atom_site_fract_x
_atom_site_fract_y
_atom_site_fract_z
Si Si1 0.315374 0.131491 0.528714
Si Si2 0.314668 0.269864 0.112900
Si Si3 0.812612 0.376446 0.309641
Si Si4 0.816029 0.128961 0.084480
Si Si5 0.314278 0.475213 0.392369
O O1 0.500000 0.136935 0.513420
O O2 0.265471 0.199562 0.560888
O O3 0.211570 0.127755 0.477039
O O4 0.285954 0.062796 0.562735
O O5 0.500000 0.288295 0.112521
O O6 0.236173 0.303852 0.163878
O O7 0.287456 0.187467 0.113552
O O8 0.758042 0.373964 0.250000
O O9 0.723871 0.441036 0.336727
O O10 0.000000 0.387531 0.315661
O O11 0.763752 0.055554 0.109172
O O12 0.000000 0.144679 0.095502
O O13 0.500000 0.466983 0.405804
#
# Coordination Sequence:
#
# PCOD8260041 Si02
#       5
#    16  16  16  16  16
#     4  11  21  34  54  79 111 149 185 220 261 315
#     4  11  22  36  56  81 109 142 182 224 266 317
#     4  10  21  39  62  83 105 136 175 221 271 323
#     4  11  22  36  53  78 114 148 180 221 267 315
#     4  10  21  36  56  81 109 143 181 221 265 316
#
# _framework density 19.283208999999999
#
# number of rings (size 3 to 8) (size 9 to 14) (size 15 to 20)
#    0.000    1.400    0.000    9.000    0.000    7.200 
#    0.000    1.000    0.000    1.200    0.000    0.000 
#    0.000    0.000    0.000    0.000    0.000    0.000 
#
# Total GULP energy -496229.352091 kJ/mol
# GULP energy per Si atom -12405.733802 kJ/mol
# Density = 1.923932 g / cm^3
# Si number density = 19.283209 Si / 1000 Ang^3
#
#
#
# Elastic Constant Matrix: (Units=GPa)
#
#
# Indices 1 2 3 4 5 6 
#
# 1 49.4286 11.7368 0.3437 0.0000 0.0000 0.0000
# 2 11.7368 137.9169 49.7468 0.0000 0.0000 0.0000
# 3 0.3437 49.7468 109.1734 0.0000 0.0000 0.0000
# 4 0.0000 0.0000 0.0000 6.0135 0.0000 0.0000
# 5 0.0000 0.0000 0.0000 0.0000 29.1675 0.0000
# 6 0.0000 0.0000 0.0000 0.0000 0.0000 32.6938
#
#
#
# Elastic Compliance Matrix: (Units=1/GPa)
#
#
# Indices 1 2 3 4 5 6 
#
# 1 0.020719 -0.002082 0.000883 0.000000 0.000000 0.000000
# 2 -0.002082 0.008886 -0.004043 0.000000 0.000000 0.000000
# 3 0.000883 -0.004043 0.010999 0.000000 0.000000 0.000000
# 4 0.000000 0.000000 0.000000 0.166293 0.000000 0.000000
# 5 0.000000 0.000000 0.000000 0.000000 0.034285 0.000000
# 6 0.000000 0.000000 0.000000 0.000000 0.000000 0.030587
#
#
# Mechanical properties :
#
#
# Convention : Reuss Voigt Hill
#
# Bulk Modulus (GPa) = 33.19781 46.68593 39.94187
# Shear Modulus (GPa) = 17.10620 29.22106 23.16363
#
# Velocity S-wave (km/s) = 2.98166 3.89699 3.46964
# Velocity P-wave (km/s) = 5.39509 6.67173 6.06708
#
# Compressibility (1/GPa) = 0.03012247
#
# Stress axis : x y z
#
# Youngs Moduli (GPa) = 48.26400 112.53590 90.91727
#
# Poissons Ratio (x) = 0.23429 -0.08032
# Poissons Ratio (y) = 0.10048 0.36754
# Poissons Ratio (z) = -0.04264 0.45493
#
# Static dielectric constant tensor:
#      x y z
#    x 3.587270 0.000000 0.000000 
#    y 0.000000 3.638610 0.000000 
#    z 0.000000 0.000000 3.389410 
# 
# 
# High freq. dielectric constant tensor:
#      x y z
#    x 1.765360 0.000000 0.000000 
#    y 0.000000 1.757170 0.000000 
#    z 0.000000 0.000000 1.728730 
# 
# From -- ./inp_files/66618.got.cif
#   From: 2010.03.12/outbox.cif.g09.slc.cpg/sg63_34_cif.got.tgz:66618.got - 2010.04.10 19:34:48.
