data_PCOD8260615
_publ_section_title
;
Structure prediction by ZEFSAII (Michael W. Deem and Ramdas Pophale) SiO2 
 PCOD8260615
Probable space group: C M C M
;
_chemical_formula_sum "Si O2"
_cell_formula_units_Z 80
_cell_length_a 12.633935
_cell_length_b 23.839441
_cell_length_c 13.119161
_cell_angle_alpha 90.000000
_cell_angle_beta 90.000000
_cell_angle_gamma 90.000000
_cell_volume 3951.306943
_symmetry_space_group_name_H-M "C M C M"
_symmetry_group_IT_number 63
_symmetry_cell_setting 'orthorhombic'
loop_
_space_group_symop_operation_xyz
x,y,z
-x,-y,1/2+z
x,-y,-z
-x,y,1/2-z
-x,-y,-z
x,y,1/2-z
-x,y,z
x,-y,1/2+z
1/2+x,1/2+y,z
1/2-x,1/2-y,1/2+z
1/2+x,1/2-y,-z
1/2-x,1/2+y,1/2-z
1/2-x,1/2-y,-z
1/2+x,1/2+y,1/2-z
1/2-x,1/2+y,z
1/2+x,1/2-y,1/2+z
loop_
_atom_site_type_symbol
_atom_site_label
_atom_site_fract_x
_atom_site_fract_y
_atom_site_fract_z
Si Si1 0.000000 0.561405 0.038682
Si Si2 0.211926 0.689224 0.531537
Si Si3 0.500000 0.842552 0.371025
Si Si4 0.381588 0.480061 0.629776
Si Si5 0.379561 0.605754 0.870254
Si Si6 0.796777 0.397671 0.632774
O O1 0.900659 0.566509 0.112868
O O2 0.000000 0.500000 0.000000
O O3 0.000000 0.601076 0.938692
O O4 0.250000 0.750000 0.500000
O O5 0.105926 0.692650 0.601002
O O6 0.301690 0.652823 0.586982
O O7 0.187397 0.660851 0.423901
O O8 0.500000 0.856468 0.250000
O O9 0.368681 0.484626 0.750000
O O10 0.500000 0.461445 0.599491
O O11 0.357170 0.542552 0.584411
O O12 0.302613 0.432558 0.588087
O O13 0.362073 0.603288 0.750000
O O14 0.500000 0.623284 0.896075
O O15 0.781308 0.383170 0.750000
#
# Coordination Sequence:
#
# PCOD8260615 Si02
#       6
#     8  16   8  16  16  16
#     4  10  23  39  62  93 123 158 204 251 304 368
#     4  11  25  41  63  87 124 160 215 259 303 362
#     4  10  24  45  66  91 122 161 207 261 313 365
#     4   8  16  33  58  91 123 151 190 241 303 372
#     4   9  19  37  63  91 119 156 204 256 312 370
#     4  10  22  39  60  88 124 163 200 248 308 368
#
# _framework density 20.246466999999999
#
# number of rings (size 3 to 8) (size 9 to 14) (size 15 to 20)
#    0.000    2.400    0.000    2.100    7.000    3.200 
#    0.000    2.000    0.000    0.000    0.000    0.000 
#    0.000    0.000    0.000    0.000    0.000    0.000 
#
# Total GULP energy -495829.478404 kJ/mol
# GULP energy per Si atom -12395.736960 kJ/mol
# Density = 2.020038 g / cm^3
# Si number density = 20.246467 Si / 1000 Ang^3
#
#
#
# Elastic Constant Matrix: (Units=GPa)
#
#
# Indices 1 2 3 4 5 6 
#
# 1 139.7330 52.9298 28.2692 0.0000 0.0000 0.0000
# 2 52.9298 106.2260 7.8154 0.0000 0.0000 0.0000
# 3 28.2692 7.8154 66.5360 0.0000 0.0000 0.0000
# 4 0.0000 0.0000 0.0000 40.7685 0.0000 0.0000
# 5 0.0000 0.0000 0.0000 0.0000 19.5042 0.0000
# 6 0.0000 0.0000 0.0000 0.0000 0.0000 29.7920
#
#
#
# Elastic Compliance Matrix: (Units=1/GPa)
#
#
# Indices 1 2 3 4 5 6 
#
# 1 0.009583 -0.004514 -0.003541 0.000000 0.000000 0.000000
# 2 -0.004514 0.011623 0.000553 0.000000 0.000000 0.000000
# 3 -0.003541 0.000553 0.016469 0.000000 0.000000 0.000000
# 4 0.000000 0.000000 0.000000 0.024529 0.000000 0.000000
# 5 0.000000 0.000000 0.000000 0.000000 0.051271 0.000000
# 6 0.000000 0.000000 0.000000 0.000000 0.000000 0.033566
#
#
# Mechanical properties :
#
#
# Convention : Reuss Voigt Hill
#
# Bulk Modulus (GPa) = 44.11306 54.50265 49.30785
# Shear Modulus (GPa) = 29.48069 32.91164 31.19617
#
# Velocity S-wave (km/s) = 3.82002 4.03618 3.92959
# Velocity P-wave (km/s) = 6.42589 6.97847 6.70787
#
# Compressibility (1/GPa) = 0.02266903
#
# Stress axis : x y z
#
# Youngs Moduli (GPa) = 104.35198 86.03899 60.71985
#
# Poissons Ratio (x) = 0.38842 0.21502
# Poissons Ratio (y) = 0.47109 -0.03357
# Poissons Ratio (z) = 0.36954 -0.04756
#
# Static dielectric constant tensor:
#      x y z
#    x 4.185580 0.000000 0.000000 
#    y 0.000000 3.561690 0.000000 
#    z 0.000000 0.000000 3.819100 
# 
# 
# High freq. dielectric constant tensor:
#      x y z
#    x 1.803670 0.000000 0.000000 
#    y 0.000000 1.768630 0.000000 
#    z 0.000000 0.000000 1.811270 
# 
# From -- ./inp_files/29765.got.cif
#   From: 2010.03.12/outbox.cif.g09.slc.cpg/sg63_15_cif.got.tgz:29765.got - 2010.04.10 19:34:48.
