data_PCOD8260827
_publ_section_title
;
Structure prediction by ZEFSAII (Michael W. Deem and Ramdas Pophale) SiO2 
 PCOD8260827
Probable space group: C M C M
;
_chemical_formula_sum "Si O2"
_cell_formula_units_Z 64
_cell_length_a 8.306986
_cell_length_b 35.211106
_cell_length_c 10.292608
_cell_angle_alpha 90.000000
_cell_angle_beta 90.000000
_cell_angle_gamma 90.000000
_cell_volume 3010.568949
_symmetry_space_group_name_H-M "C M C M"
_symmetry_group_IT_number 63
_symmetry_cell_setting 'orthorhombic'
loop_
_space_group_symop_operation_xyz
x,y,z
-x,-y,1/2+z
x,-y,-z
-x,y,1/2-z
-x,-y,-z
x,y,1/2-z
-x,y,z
x,-y,1/2+z
1/2+x,1/2+y,z
1/2-x,1/2-y,1/2+z
1/2+x,1/2-y,-z
1/2-x,1/2+y,1/2-z
1/2-x,1/2-y,-z
1/2+x,1/2+y,1/2-z
1/2-x,1/2+y,z
1/2+x,1/2-y,1/2+z
loop_
_atom_site_type_symbol
_atom_site_label
_atom_site_fract_x
_atom_site_fract_y
_atom_site_fract_z
Si Si1 0.683419 0.953504 0.250000
Si Si2 0.691825 0.287634 0.750000
Si Si3 0.689936 0.163420 0.485791
Si Si4 0.312172 0.581332 0.005506
Si Si5 0.186228 0.035850 0.250000
Si Si6 0.309522 0.201284 0.750000
O O1 0.500000 0.966961 0.250000
O O2 0.716715 0.927774 0.374706
O O3 0.792378 0.990863 0.250000
O O4 0.500000 0.291413 0.750000
O O5 0.766075 0.306369 0.877069
O O6 0.753363 0.244347 0.750000
O O7 0.500000 0.155846 0.487994
O O8 0.782436 0.124629 0.454198
O O9 0.754166 0.179430 0.623043
O O10 0.500000 0.573567 0.982006
O O11 0.240300 0.554532 0.119743
O O12 0.000000 0.046393 0.250000
O O13 0.500000 0.202010 0.750000
#
# Coordination Sequence:
#
# PCOD8260827 Si02
#       6
#     8   8  16  16   8   8
#     4  12  25  40  61  91 124 158 199 246 297 355
#     4  11  22  39  60  86 121 161 202 243 296 365
#     4  11  22  39  62  90 121 155 199 253 306 352
#     4  11  23  41  64  90 121 159 201 246 300 360
#     4  10  23  42  63  87 118 156 201 250 299 355
#     4   9  21  39  60  86 119 157 200 251 302 355
#
# _framework density 21.258441000000001
#
# number of rings (size 3 to 8) (size 9 to 14) (size 15 to 20)
#    0.000    1.250    0.000    6.000    0.000    7.000 
#    0.000    5.625    0.000    0.000    0.000    0.000 
#    0.000    0.000    0.000    0.000    0.000    0.000 
#
# Total GULP energy -397018.187821 kJ/mol
# GULP energy per Si atom -12406.818369 kJ/mol
# Density = 2.121006 g / cm^3
# Si number density = 21.258441 Si / 1000 Ang^3
#
#
#
# Elastic Constant Matrix: (Units=GPa)
#
#
# Indices 1 2 3 4 5 6 
#
# 1 49.6748 7.4361 27.7362 0.0000 0.0000 0.0000
# 2 7.4361 104.8920 12.7750 0.0000 0.0000 0.0000
# 3 27.7362 12.7750 121.2432 0.0000 0.0000 0.0000
# 4 0.0000 0.0000 0.0000 42.1684 0.0000 0.0000
# 5 0.0000 0.0000 0.0000 0.0000 18.6270 0.0000
# 6 0.0000 0.0000 0.0000 0.0000 0.0000 30.7943
#
#
#
# Elastic Compliance Matrix: (Units=1/GPa)
#
#
# Indices 1 2 3 4 5 6 
#
# 1 0.023184 -0.001011 -0.005197 0.000000 0.000000 0.000000
# 2 -0.001011 0.009702 -0.000791 0.000000 0.000000 0.000000
# 3 -0.005197 -0.000791 0.009520 0.000000 0.000000 0.000000
# 4 0.000000 0.000000 0.000000 0.023714 0.000000 0.000000
# 5 0.000000 0.000000 0.000000 0.000000 0.053685 0.000000
# 6 0.000000 0.000000 0.000000 0.000000 0.000000 0.032474
#
#
# Mechanical properties :
#
#
# Convention : Reuss Voigt Hill
#
# Bulk Modulus (GPa) = 35.20115 41.30050 38.25082
# Shear Modulus (GPa) = 28.45008 33.50878 30.97943
#
# Velocity S-wave (km/s) = 3.66224 3.97452 3.82157
# Velocity P-wave (km/s) = 5.87174 6.36650 6.12412
#
# Compressibility (1/GPa) = 0.02840817
#
# Stress axis : x y z
#
# Youngs Moduli (GPa) = 43.13298 103.07571 105.04007
#
# Poissons Ratio (x) = 0.10417 0.54592
# Poissons Ratio (y) = 0.04359 0.08309
# Poissons Ratio (z) = 0.22417 0.08154
#
# Static dielectric constant tensor:
#      x y z
#    x 3.630490 0.000000 0.000000 
#    y 0.000000 3.809770 0.000000 
#    z 0.000000 0.000000 4.091560 
# 
# 
# High freq. dielectric constant tensor:
#      x y z
#    x 1.821140 0.000000 0.000000 
#    y 0.000000 1.847270 0.000000 
#    z 0.000000 0.000000 1.853060 
# 
# From -- ./inp_files/16309.got.cif
#   From: 2010.03.12/outbox.cif.g09.slc.cpg/sg63_9_cif.got.tgz:16309.got - 2010.04.10 19:34:48.
