data_PCOD8260343
_publ_section_title
;
Structure prediction by ZEFSAII (Michael W. Deem and Ramdas Pophale) SiO2 
 PCOD8260343
Probable space group: C M C M
;
_chemical_formula_sum "Si O2"
_cell_formula_units_Z 64
_cell_length_a 23.876179
_cell_length_b 14.594053
_cell_length_c 8.778283
_cell_angle_alpha 90.000000
_cell_angle_beta 90.000000
_cell_angle_gamma 90.000000
_cell_volume 3058.794658
_symmetry_space_group_name_H-M "C M C M"
_symmetry_group_IT_number 63
_symmetry_cell_setting 'orthorhombic'
loop_
_space_group_symop_operation_xyz
x,y,z
-x,-y,1/2+z
x,-y,-z
-x,y,1/2-z
-x,-y,-z
x,y,1/2-z
-x,y,z
x,-y,1/2+z
1/2+x,1/2+y,z
1/2-x,1/2-y,1/2+z
1/2+x,1/2-y,-z
1/2-x,1/2+y,1/2-z
1/2-x,1/2-y,-z
1/2+x,1/2+y,1/2-z
1/2-x,1/2+y,z
1/2+x,1/2-y,1/2+z
loop_
_atom_site_type_symbol
_atom_site_label
_atom_site_fract_x
_atom_site_fract_y
_atom_site_fract_z
Si Si1 0.652723 0.399242 0.429631
Si Si2 0.435552 0.730787 0.424258
Si Si3 0.613821 0.099524 0.072903
Si Si4 0.762140 0.598502 0.425974
O O1 0.647146 0.500000 0.500000
O O2 0.654542 0.406486 0.250000
O O3 0.599536 0.340342 0.476932
O O4 0.710651 0.350354 0.488414
O O5 0.415185 0.728027 0.250000
O O6 0.500000 0.701938 0.438364
O O7 0.428740 0.833138 0.488839
O O8 0.598256 0.091906 0.250000
O O9 0.676470 0.143457 0.053189
O O10 0.608048 0.000000 0.000000
O O11 0.767408 0.500000 0.500000
O O12 0.745899 0.589309 0.250000
#
# Coordination Sequence:
#
# PCOD8260343 Si02
#       4
#    16  16  16  16
#     4  11  22  38  62  89 119 154 190 235 290 346
#     4  11  25  43  61  83 113 152 200 248 290 339
#     4  10  21  38  62  90 120 155 192 236 290 344
#     4   9  17  32  56  87 120 151 187 231 282 343
#
# _framework density 20.923272999999998
#
# number of rings (size 3 to 8) (size 9 to 14) (size 15 to 20)
#    0.000    1.750    0.000    6.000    0.000    7.000 
#    0.000    0.000    0.000    0.000    0.000    0.000 
#    0.000    0.000    0.000    0.000    0.000    0.000 
#
# Total GULP energy -396729.967928 kJ/mol
# GULP energy per Si atom -12397.811498 kJ/mol
# Density = 2.087565 g / cm^3
# Si number density = 20.923273 Si / 1000 Ang^3
#
#
#
# Elastic Constant Matrix: (Units=GPa)
#
#
# Indices 1 2 3 4 5 6 
#
# 1 69.3096 8.3172 37.8035 0.0000 0.0000 0.0000
# 2 8.3172 41.9880 22.6778 0.0000 0.0000 0.0000
# 3 37.8035 22.6778 167.6565 0.0000 0.0000 0.0000
# 4 0.0000 0.0000 0.0000 32.1558 0.0000 0.0000
# 5 0.0000 0.0000 0.0000 0.0000 76.1406 0.0000
# 6 0.0000 0.0000 0.0000 0.0000 0.0000 64.5833
#
#
#
# Elastic Compliance Matrix: (Units=1/GPa)
#
#
# Indices 1 2 3 4 5 6 
#
# 1 0.016523 -0.001360 -0.003542 0.000000 0.000000 0.000000
# 2 -0.001360 0.025805 -0.003184 0.000000 0.000000 0.000000
# 3 -0.003542 -0.003184 0.007194 0.000000 0.000000 0.000000
# 4 0.000000 0.000000 0.000000 0.031099 0.000000 0.000000
# 5 0.000000 0.000000 0.000000 0.000000 0.013134 0.000000
# 6 0.000000 0.000000 0.000000 0.000000 0.000000 0.015484
#
#
# Mechanical properties :
#
#
# Convention : Reuss Voigt Hill
#
# Bulk Modulus (GPa) = 29.98417 46.28345 38.13381
# Shear Modulus (GPa) = 36.62298 48.58632 42.60465
#
# Velocity S-wave (km/s) = 4.18825 4.82406 4.51736
# Velocity P-wave (km/s) = 6.14412 7.29365 6.74343
#
# Compressibility (1/GPa) = 0.03335093
#
# Stress axis : x y z
#
# Youngs Moduli (GPa) = 60.52185 38.75169 139.00829
#
# Poissons Ratio (x) = 0.05271 0.49232
# Poissons Ratio (y) = 0.08231 0.44258
# Poissons Ratio (z) = 0.21435 0.12338
#
# Static dielectric constant tensor:
#      x y z
#    x 4.224180 0.000000 0.000000 
#    y 0.000000 3.482870 0.000000 
#    z 0.000000 0.000000 3.831740 
# 
# 
# High freq. dielectric constant tensor:
#      x y z
#    x 1.826680 0.000000 0.000000 
#    y 0.000000 1.801010 0.000000 
#    z 0.000000 0.000000 1.838440 
# 
# From -- ./inp_files/9606.got.cif
#   From: 2010.03.12/outbox.cif.g09.slc.cpg/sg63_5_cif.got.tgz:9606.got - 2010.04.10 19:34:48.
