data_PCOD8260286
_publ_section_title
;
Structure prediction by ZEFSAII (Michael W. Deem and Ramdas Pophale) SiO2 
 PCOD8260286
Probable space group: C M C M
;
_chemical_formula_sum "Si O2"
_cell_formula_units_Z 80
_cell_length_a 15.714354
_cell_length_b 29.044137
_cell_length_c 9.039026
_cell_angle_alpha 90.000000
_cell_angle_beta 90.000000
_cell_angle_gamma 90.000000
_cell_volume 4125.500505
_symmetry_space_group_name_H-M "C M C M"
_symmetry_group_IT_number 63
_symmetry_cell_setting 'orthorhombic'
loop_
_space_group_symop_operation_xyz
x,y,z
-x,-y,1/2+z
x,-y,-z
-x,y,1/2-z
-x,-y,-z
x,y,1/2-z
-x,y,z
x,-y,1/2+z
1/2+x,1/2+y,z
1/2-x,1/2-y,1/2+z
1/2+x,1/2-y,-z
1/2-x,1/2+y,1/2-z
1/2-x,1/2-y,-z
1/2+x,1/2+y,1/2-z
1/2-x,1/2+y,z
1/2+x,1/2-y,1/2+z
loop_
_atom_site_type_symbol
_atom_site_label
_atom_site_fract_x
_atom_site_fract_y
_atom_site_fract_z
Si Si1 0.666224 0.045835 0.577252
Si Si2 0.402330 0.857226 0.078074
Si Si3 0.500000 0.616136 0.925427
Si Si4 0.500000 0.718736 0.925644
Si Si5 0.667836 0.227975 0.074116
Si Si6 0.860336 0.953970 0.423851
O O1 0.658179 0.037081 0.750000
O O2 0.612196 0.090125 0.527453
O O3 0.763368 0.055271 0.529093
O O4 0.629751 0.000000 0.500000
O O5 0.377357 0.851466 0.250000
O O6 0.500000 0.844276 0.048802
O O7 0.342121 0.824422 0.981183
O O8 0.500000 0.620207 0.750000
O O9 0.500000 0.667294 0.993897
O O10 0.584136 0.589241 0.979661
O O11 0.500000 0.717735 0.750000
O O12 0.584791 0.744291 0.981593
O O13 0.678022 0.228978 0.250000
O O14 0.750000 0.250000 0.000000
O O15 0.870537 0.960808 0.250000
O O16 0.895541 0.000000 0.500000
#
# Coordination Sequence:
#
# PCOD8260286 Si02
#       6
#    16  16   8   8  16  16
#     4   9  19  34  53  79 110 146 185 231 282 338
#     4  10  21  38  60  84 114 150 190 237 291 349
#     4   9  17  29  50  76 100 137 179 218 263 323
#     4   9  20  37  58  84 115 145 190 238 282 347
#     4  11  23  40  62  88 116 153 196 242 295 351
#     4   9  17  30  50  73 102 138 178 218 265 320
#
# _framework density 19.391587000000001
#
# number of rings (size 3 to 8) (size 9 to 14) (size 15 to 20)
#    0.000    2.400    1.000    0.900    2.800    1.200 
#    0.000    0.000    0.000    2.400    0.000    0.000 
#    0.000    0.000    0.000    0.000    0.000    0.000 
#
# Total GULP energy -496035.354096 kJ/mol
# GULP energy per Si atom -12400.883852 kJ/mol
# Density = 1.934745 g / cm^3
# Si number density = 19.391587 Si / 1000 Ang^3
#
#
#
# Elastic Constant Matrix: (Units=GPa)
#
#
# Indices 1 2 3 4 5 6 
#
# 1 98.2286 56.9337 38.3358 0.0000 0.0000 0.0000
# 2 56.9337 155.7670 48.2564 0.0000 0.0000 0.0000
# 3 38.3358 48.2564 50.7187 0.0000 0.0000 0.0000
# 4 0.0000 0.0000 0.0000 33.3370 0.0000 0.0000
# 5 0.0000 0.0000 0.0000 0.0000 23.8385 0.0000
# 6 0.0000 0.0000 0.0000 0.0000 0.0000 37.3139
#
#
#
# Elastic Compliance Matrix: (Units=1/GPa)
#
#
# Indices 1 2 3 4 5 6 
#
# 1 0.015281 -0.002846 -0.008842 0.000000 0.000000 0.000000
# 2 -0.002846 0.009633 -0.007014 0.000000 0.000000 0.000000
# 3 -0.008842 -0.007014 0.033074 0.000000 0.000000 0.000000
# 4 0.000000 0.000000 0.000000 0.029997 0.000000 0.000000
# 5 0.000000 0.000000 0.000000 0.000000 0.041949 0.000000
# 6 0.000000 0.000000 0.000000 0.000000 0.000000 0.026800
#
#
# Mechanical properties :
#
#
# Convention : Reuss Voigt Hill
#
# Bulk Modulus (GPa) = 48.58453 65.75181 57.16817
# Shear Modulus (GPa) = 24.87579 29.64376 27.25978
#
# Velocity S-wave (km/s) = 3.58552 3.91409 3.75340
# Velocity P-wave (km/s) = 6.50001 7.37616 6.95190
#
# Compressibility (1/GPa) = 0.02058268
#
# Stress axis : x y z
#
# Youngs Moduli (GPa) = 65.44206 103.80922 30.23540
#
# Poissons Ratio (x) = 0.29543 0.26735
# Poissons Ratio (y) = 0.18624 0.21208
# Poissons Ratio (z) = 0.57865 0.72815
#
# Static dielectric constant tensor:
#      x y z
#    x 3.608350 0.000000 0.000000 
#    y 0.000000 3.786600 0.000000 
#    z 0.000000 0.000000 3.248680 
# 
# 
# High freq. dielectric constant tensor:
#      x y z
#    x 1.757970 0.000000 0.000000 
#    y 0.000000 1.766310 0.000000 
#    z 0.000000 0.000000 1.725530 
# 
# From -- ./inp_files/6544.got.cif
#   From: 2010.03.12/outbox.cif.g09.slc.cpg/sg63_4_cif.got.tgz:6544.got - 2010.04.10 19:34:48.
