data_PCOD8260284
_publ_section_title
;
Structure prediction by ZEFSAII (Michael W. Deem and Ramdas Pophale) SiO2 
 PCOD8260284
Probable space group: C M C M
;
_chemical_formula_sum "Si O2"
_cell_formula_units_Z 64
_cell_length_a 19.132279
_cell_length_b 18.756760
_cell_length_c 9.906907
_cell_angle_alpha 90.000000
_cell_angle_beta 90.000000
_cell_angle_gamma 90.000000
_cell_volume 3555.188341
_symmetry_space_group_name_H-M "C M C M"
_symmetry_group_IT_number 63
_symmetry_cell_setting 'orthorhombic'
loop_
_space_group_symop_operation_xyz
x,y,z
-x,-y,1/2+z
x,-y,-z
-x,y,1/2-z
-x,-y,-z
x,y,1/2-z
-x,y,z
x,-y,1/2+z
1/2+x,1/2+y,z
1/2-x,1/2-y,1/2+z
1/2+x,1/2-y,-z
1/2-x,1/2+y,1/2-z
1/2-x,1/2-y,-z
1/2+x,1/2+y,1/2-z
1/2-x,1/2+y,z
1/2+x,1/2-y,1/2+z
loop_
_atom_site_type_symbol
_atom_site_label
_atom_site_fract_x
_atom_site_fract_y
_atom_site_fract_z
Si Si1 0.385261 0.969049 0.750000
Si Si2 0.737107 0.645448 0.594705
Si Si3 0.000000 0.648496 0.250000
Si Si4 0.500000 0.087063 0.750000
Si Si5 0.207448 0.500000 0.000000
Si Si6 0.000000 0.291471 0.461433
Si Si7 0.849635 0.761541 0.902376
O O1 0.431126 0.898742 0.750000
O O2 0.430315 0.040743 0.750000
O O3 0.339230 0.966203 0.616810
O O4 0.714599 0.653429 0.750000
O O5 0.744744 0.562470 0.559843
O O6 0.809818 0.687133 0.566138
O O7 0.675468 0.677299 0.503670
O O8 0.000000 0.699014 0.378915
O O9 0.500000 0.132708 0.886212
O O10 0.932220 0.247548 0.417877
O O11 0.832634 0.786226 0.750000
#
# Coordination Sequence:
#
# PCOD8260284 Si02
#       7
#     8  16   4   4   8   8  16
#     4  11  22  34  52  82 118 157 192 226 276 349
#     4  10  22  38  57  84 116 151 195 244 289 340
#     4  11  24  32  50  86 120 155 190 224 276 353
#     4  11  20  36  54  78 120 155 190 232 278 341
#     4  12  22  37  58  81 116 158 196 238 290 342
#     4  12  22  37  58  83 116 156 194 237 290 343
#     4  10  21  38  60  83 112 152 197 244 290 340
#
# _framework density 18.001859
#
# number of rings (size 3 to 8) (size 9 to 14) (size 15 to 20)
#    0.000    1.250    2.500    4.500    3.500    2.000 
#    0.000    0.000    0.000    0.750    0.000    0.000 
#    0.000    0.000    0.000    0.000    0.000    0.000 
#
# Total GULP energy -396981.965230 kJ/mol
# GULP energy per Si atom -12405.686413 kJ/mol
# Density = 1.796089 g / cm^3
# Si number density = 18.001859 Si / 1000 Ang^3
#
#
#
# Elastic Constant Matrix: (Units=GPa)
#
#
# Indices 1 2 3 4 5 6 
#
# 1 92.6493 34.4486 29.9333 0.0000 0.0000 0.0000
# 2 34.4486 76.6708 33.6397 0.0000 0.0000 0.0000
# 3 29.9333 33.6397 131.7500 0.0000 0.0000 0.0000
# 4 0.0000 0.0000 0.0000 35.6162 0.0000 0.0000
# 5 0.0000 0.0000 0.0000 0.0000 31.1243 0.0000
# 6 0.0000 0.0000 0.0000 0.0000 0.0000 -14.7150
#
#
#
# Elastic Compliance Matrix: (Units=1/GPa)
#
#
# Indices 1 2 3 4 5 6 
#
# 1 0.013281 -0.005229 -0.001682 0.000000 0.000000 0.000000
# 2 -0.005229 0.016747 -0.003088 0.000000 0.000000 0.000000
# 3 -0.001682 -0.003088 0.008761 0.000000 0.000000 0.000000
# 4 0.000000 0.000000 0.000000 0.028077 0.000000 0.000000
# 5 0.000000 0.000000 0.000000 0.000000 0.032129 0.000000
# 6 0.000000 0.000000 0.000000 0.000000 0.000000 -0.067958
#
#
# Mechanical properties :
#
#
# Convention : Reuss Voigt Hill
#
# Bulk Modulus (GPa) = 53.21921 55.23482 54.22702
# Shear Modulus (GPa) = 87.25996 23.94167 55.60081
#
# Velocity S-wave (km/s) = 6.96979 3.65081 5.56356
# Velocity P-wave (km/s) = 9.71586 6.96568 8.45336
#
# Compressibility (1/GPa) = 0.01879021
#
# Stress axis : x y z
#
# Youngs Moduli (GPa) = 75.29435 59.71165 114.14482
#
# Poissons Ratio (x) = 0.31224 0.19202
# Poissons Ratio (y) = 0.39373 0.35248
# Poissons Ratio (z) = 0.12667 0.18439
#
# Static dielectric constant tensor:
#      x y z
#    x 3.213540 0.000000 0.000000 
#    y 0.000000 3.121080 0.000000 
#    z 0.000000 0.000000 3.615690 
# 
# 
# High freq. dielectric constant tensor:
#      x y z
#    x 1.680310 0.000000 0.000000 
#    y 0.000000 1.674360 0.000000 
#    z 0.000000 0.000000 1.723730 
# 
# From -- ./inp_files/7583.got.cif
#   From: 2010.03.12/outbox.cif.g09.slc.cpg/sg63_4_cif.got.tgz:7583.got - 2010.04.10 19:34:48.
