data_PCOD8260344
_publ_section_title
;
Structure prediction by ZEFSAII (Michael W. Deem and Ramdas Pophale) SiO2 
 PCOD8260344
Probable space group: C M C M
;
_chemical_formula_sum "Si O2"
_cell_formula_units_Z 48
_cell_length_a 7.439923
_cell_length_b 37.823067
_cell_length_c 8.854194
_cell_angle_alpha 90.000000
_cell_angle_beta 90.000000
_cell_angle_gamma 90.000000
_cell_volume 2491.576444
_symmetry_space_group_name_H-M "C M C M"
_symmetry_group_IT_number 63
_symmetry_cell_setting 'orthorhombic'
loop_
_space_group_symop_operation_xyz
x,y,z
-x,-y,1/2+z
x,-y,-z
-x,y,1/2-z
-x,-y,-z
x,y,1/2-z
-x,y,z
x,-y,1/2+z
1/2+x,1/2+y,z
1/2-x,1/2-y,1/2+z
1/2+x,1/2-y,-z
1/2-x,1/2+y,1/2-z
1/2-x,1/2-y,-z
1/2+x,1/2+y,1/2-z
1/2-x,1/2+y,z
1/2+x,1/2-y,1/2+z
loop_
_atom_site_type_symbol
_atom_site_label
_atom_site_fract_x
_atom_site_fract_y
_atom_site_fract_z
Si Si1 0.500000 0.083522 0.425604
Si Si2 0.292459 0.463197 0.426837
Si Si3 0.500000 0.833594 0.574610
Si Si4 0.706991 0.712894 0.575262
O O1 0.500000 0.073912 0.250000
O O2 0.678802 0.068262 0.501577
O O3 0.500000 0.124981 0.454709
O O4 0.230594 0.500000 0.500000
O O5 0.254059 0.465436 0.250000
O O6 0.500000 0.455286 0.462897
O O7 0.500000 0.823679 0.750000
O O8 0.321397 0.817896 0.500718
O O9 0.758791 0.715734 0.750000
O O10 0.500000 0.702826 0.551967
O O11 0.750000 0.750000 0.500000
#
# Coordination Sequence:
#
# PCOD8260344 Si02
#       4
#     8  16   8  16
#     4  11  24  40  59  85 122 162 200 246 298 355
#     4  10  21  38  62  90 120 157 201 248 296 352
#     4  11  25  42  60  87 121 160 202 244 299 359
#     4  11  23  39  63  90 117 151 193 244 298 354
#
# _framework density 19.264911999999999
#
# number of rings (size 3 to 8) (size 9 to 14) (size 15 to 20)
#    0.000    1.333    1.667    3.500    0.000    8.000 
#    0.000    6.667    0.000    0.000    0.000    0.000 
#    0.000    0.000    0.000    0.000    0.000    0.000 
#
# Total GULP energy -297758.622710 kJ/mol
# GULP energy per Si atom -12406.609280 kJ/mol
# Density = 1.922106 g / cm^3
# Si number density = 19.264912 Si / 1000 Ang^3
#
#
#
# Elastic Constant Matrix: (Units=GPa)
#
#
# Indices 1 2 3 4 5 6 
#
# 1 130.6522 72.8475 80.6111 0.0000 0.0000 0.0000
# 2 72.8475 113.4658 86.0357 0.0000 0.0000 0.0000
# 3 80.6111 86.0357 160.8906 0.0000 0.0000 0.0000
# 4 0.0000 0.0000 0.0000 36.8344 0.0000 0.0000
# 5 0.0000 0.0000 0.0000 0.0000 35.5001 0.0000
# 6 0.0000 0.0000 0.0000 0.0000 0.0000 29.9384
#
#
#
# Elastic Compliance Matrix: (Units=1/GPa)
#
#
# Indices 1 2 3 4 5 6 
#
# 1 0.012962 -0.005714 -0.003438 0.000000 0.000000 0.000000
# 2 -0.005714 0.017343 -0.006411 0.000000 0.000000 0.000000
# 3 -0.003438 -0.006411 0.011366 0.000000 0.000000 0.000000
# 4 0.000000 0.000000 0.000000 0.027149 0.000000 0.000000
# 5 0.000000 0.000000 0.000000 0.000000 0.028169 0.000000
# 6 0.000000 0.000000 0.000000 0.000000 0.000000 0.033402
#
#
# Mechanical properties :
#
#
# Convention : Reuss Voigt Hill
#
# Bulk Modulus (GPa) = 94.84611 98.22190 96.53400
# Shear Modulus (GPa) = 30.29697 31.48888 30.89292
#
# Velocity S-wave (km/s) = 3.96997 4.04731 4.00882
# Velocity P-wave (km/s) = 8.38771 8.54028 8.46434
#
# Compressibility (1/GPa) = 0.01054340
#
# Stress axis : x y z
#
# Youngs Moduli (GPa) = 77.15136 57.65914 87.97818
#
# Poissons Ratio (x) = 0.32949 0.30250
# Poissons Ratio (y) = 0.44088 0.56404
# Poissons Ratio (z) = 0.26527 0.36966
#
# Static dielectric constant tensor:
#      x y z
#    x 2.395430 0.000000 0.000000 
#    y 0.000000 3.428080 0.000000 
#    z 0.000000 0.000000 3.771130 
# 
# 
# High freq. dielectric constant tensor:
#      x y z
#    x 1.766690 0.000000 0.000000 
#    y 0.000000 1.746360 0.000000 
#    z 0.000000 0.000000 1.771540 
# 
# From -- ./inp_files/2005.got.cif
#   From: 2010.03.12/outbox.cif.g09.slc.cpg/sg63_2_cif.got.tgz:2005.got - 2010.04.10 19:34:48.
