data_PCOD8260831
_publ_section_title
;
Structure prediction by ZEFSAII (Michael W. Deem and Ramdas Pophale) SiO2 
 PCOD8260831
Probable space group: C M C M
;
_chemical_formula_sum "Si O2"
_cell_formula_units_Z 96
_cell_length_a 19.859964
_cell_length_b 8.862602
_cell_length_c 27.113306
_cell_angle_alpha 90.000000
_cell_angle_beta 90.000000
_cell_angle_gamma 90.000000
_cell_volume 4772.238927
_symmetry_space_group_name_H-M "C M C M"
_symmetry_group_IT_number 63
_symmetry_cell_setting 'orthorhombic'
loop_
_space_group_symop_operation_xyz
x,y,z
-x,-y,1/2+z
x,-y,-z
-x,y,1/2-z
-x,-y,-z
x,y,1/2-z
-x,y,z
x,-y,1/2+z
1/2+x,1/2+y,z
1/2-x,1/2-y,1/2+z
1/2+x,1/2-y,-z
1/2-x,1/2+y,1/2-z
1/2-x,1/2-y,-z
1/2+x,1/2+y,1/2-z
1/2-x,1/2+y,z
1/2+x,1/2-y,1/2+z
loop_
_atom_site_type_symbol
_atom_site_label
_atom_site_fract_x
_atom_site_fract_y
_atom_site_fract_z
Si Si1 0.659237 0.934002 0.548727
Si Si2 0.696832 0.807328 0.805877
Si Si3 0.297264 0.590336 0.951737
Si Si4 0.576417 0.726982 0.194079
Si Si5 0.814352 0.011505 0.346778
Si Si6 0.922107 0.458607 0.854356
O O1 0.691498 0.768359 0.540330
O O2 0.622413 0.000000 0.500000
O O3 0.718908 0.054356 0.558754
O O4 0.603094 0.930121 0.590481
O O5 0.716841 0.849115 0.750000
O O6 0.703547 0.630198 0.813056
O O7 0.747742 0.883973 0.844985
O O8 0.620356 0.856441 0.816768
O O9 0.335379 0.533879 0.902431
O O10 0.323723 0.500000 0.000000
O O11 0.594135 0.774922 0.250000
O O12 0.500000 0.670912 0.190079
O O13 0.621880 0.590140 0.177156
O O14 0.589798 0.867699 0.158689
O O15 0.000000 0.411727 0.849511
#
# Coordination Sequence:
#
# PCOD8260831 Si02
#       6
#    16  16  16  16  16  16
#     4  11  23  40  65  94 125 160 205 260 318 378
#     4  12  24  39  62  93 127 166 208 260 312 370
#     4  11  22  39  66  99 123 159 202 257 319 376
#     4  10  23  42  64  90 125 171 214 254 309 377
#     4  12  23  41  65  96 129 162 207 263 316 371
#     4  11  24  42  63  89 125 170 214 260 311 373
#
# _framework density 20.116344000000002
#
# number of rings (size 3 to 8) (size 9 to 14) (size 15 to 20)
#    0.000    0.833    3.333    5.000    4.667    2.000 
#    0.000    0.000    0.000    1.000    0.000    0.000 
#    0.000    0.000    0.000    0.000    0.000    0.000 
#
# Total GULP energy -595315.805810 kJ/mol
# GULP energy per Si atom -12402.412621 kJ/mol
# Density = 2.007056 g / cm^3
# Si number density = 20.116344 Si / 1000 Ang^3
#
#
#
# Elastic Constant Matrix: (Units=GPa)
#
#
# Indices 1 2 3 4 5 6 
#
# 1 90.8127 53.6610 28.2202 0.0000 0.0000 0.0000
# 2 53.6610 117.1590 32.1475 0.0000 0.0000 0.0000
# 3 28.2202 32.1475 118.8067 0.0000 0.0000 0.0000
# 4 0.0000 0.0000 0.0000 36.9262 0.0000 0.0000
# 5 0.0000 0.0000 0.0000 0.0000 26.0755 0.0000
# 6 0.0000 0.0000 0.0000 0.0000 0.0000 31.0127
#
#
#
# Elastic Compliance Matrix: (Units=1/GPa)
#
#
# Indices 1 2 3 4 5 6 
#
# 1 0.015485 -0.006571 -0.001900 0.000000 0.000000 0.000000
# 2 -0.006571 0.012008 -0.001688 0.000000 0.000000 0.000000
# 3 -0.001900 -0.001688 0.009325 0.000000 0.000000 0.000000
# 4 0.000000 0.000000 0.000000 0.027081 0.000000 0.000000
# 5 0.000000 0.000000 0.000000 0.000000 0.038350 0.000000
# 6 0.000000 0.000000 0.000000 0.000000 0.000000 0.032245
#
#
# Mechanical properties :
#
#
# Convention : Reuss Voigt Hill
#
# Bulk Modulus (GPa) = 60.60857 61.64844 61.12850
# Shear Modulus (GPa) = 31.18885 32.98619 32.08752
#
# Velocity S-wave (km/s) = 3.94181 4.05380 3.99820
# Velocity P-wave (km/s) = 7.13524 7.25421 7.19497
#
# Compressibility (1/GPa) = 0.01649932
#
# Stress axis : x y z
#
# Youngs Moduli (GPa) = 64.57885 83.27529 107.23575
#
# Poissons Ratio (x) = 0.54720 0.20376
# Poissons Ratio (y) = 0.42435 0.18107
# Poissons Ratio (z) = 0.12271 0.14061
#
# Static dielectric constant tensor:
#      x y z
#    x 3.469660 0.000000 0.000000 
#    y 0.000000 3.659630 0.000000 
#    z 0.000000 0.000000 3.989260 
# 
# 
# High freq. dielectric constant tensor:
#      x y z
#    x 1.761920 0.000000 0.000000 
#    y 0.000000 1.793760 0.000000 
#    z 0.000000 0.000000 1.805080 
# 
# From -- ./inp_files/70321.got.cif
#   From: 2010.03.12/outbox.cif.g09.slc.cpg/sg63_36_cif.got.tgz:70321.got - 2010.04.10 19:34:48.
