data_PCOD8260578
_publ_section_title
;
Structure prediction by ZEFSAII (Michael W. Deem and Ramdas Pophale) SiO2 
 PCOD8260578
Probable space group: C M C M
;
_chemical_formula_sum "Si O2"
_cell_formula_units_Z 96
_cell_length_a 17.736631
_cell_length_b 14.658869
_cell_length_c 19.580833
_cell_angle_alpha 90.000000
_cell_angle_beta 90.000000
_cell_angle_gamma 90.000000
_cell_volume 5090.996027
_symmetry_space_group_name_H-M "C M C M"
_symmetry_group_IT_number 63
_symmetry_cell_setting 'orthorhombic'
loop_
_space_group_symop_operation_xyz
x,y,z
-x,-y,1/2+z
x,-y,-z
-x,y,1/2-z
-x,-y,-z
x,y,1/2-z
-x,y,z
x,-y,1/2+z
1/2+x,1/2+y,z
1/2-x,1/2-y,1/2+z
1/2+x,1/2-y,-z
1/2-x,1/2+y,1/2-z
1/2-x,1/2-y,-z
1/2+x,1/2+y,1/2-z
1/2-x,1/2+y,z
1/2+x,1/2-y,1/2+z
loop_
_atom_site_type_symbol
_atom_site_label
_atom_site_fract_x
_atom_site_fract_y
_atom_site_fract_z
Si Si1 0.197241 0.775297 0.564513
Si Si2 0.915406 0.940851 0.933049
Si Si3 0.414491 0.077825 0.096599
Si Si4 0.586522 0.879797 0.441937
Si Si5 0.412743 0.404653 0.329097
Si Si6 0.675997 0.223802 0.170476
O O1 0.250000 0.750000 0.500000
O O2 0.146733 0.864293 0.551738
O O3 0.140695 0.696261 0.587652
O O4 0.246848 0.790208 0.630932
O O5 0.000000 0.900716 0.917728
O O6 0.888103 0.005650 0.870907
O O7 0.920736 0.000000 0.000000
O O8 0.500000 0.072154 0.120091
O O9 0.373094 0.134366 0.154879
O O10 0.383091 0.975191 0.088511
O O11 0.406375 0.126419 0.023649
O O12 0.500000 0.863241 0.420186
O O13 0.397643 0.425948 0.250000
O O14 0.500000 0.381433 0.343262
O O15 0.366074 0.316127 0.353621
O O16 0.693804 0.227182 0.250000
#
# Coordination Sequence:
#
# PCOD8260578 Si02
#       6
#    16  16  16  16  16  16
#     4  12  23  37  56  84 118 157 188 234 291 353
#     4  10  22  38  59  85 110 144 194 244 287 336
#     4   9  18  35  60  86 112 148 193 241 291 340
#     4   9  19  37  60  84 111 148 196 244 286 335
#     4   9  19  38  61  83 112 151 194 240 288 339
#     4  11  23  37  56  88 123 156 191 236 295 350
#
# _framework density 18.856819999999999
#
# number of rings (size 3 to 8) (size 9 to 14) (size 15 to 20)
#    0.000    2.000    1.667    3.000    0.000    4.333 
#    0.000    2.500    0.000    2.500    0.000    0.000 
#    0.000    0.000    0.000    0.000    0.000    0.000 
#
# Total GULP energy -595106.169350 kJ/mol
# GULP energy per Si atom -12398.045195 kJ/mol
# Density = 1.881390 g / cm^3
# Si number density = 18.856820 Si / 1000 Ang^3
#
#
#
# Elastic Constant Matrix: (Units=GPa)
#
#
# Indices 1 2 3 4 5 6 
#
# 1 91.1507 62.8876 36.4271 0.0000 0.0000 0.0000
# 2 62.8876 112.0205 38.6535 0.0000 0.0000 0.0000
# 3 36.4271 38.6535 72.2863 0.0000 0.0000 0.0000
# 4 0.0000 0.0000 0.0000 32.6328 0.0000 0.0000
# 5 0.0000 0.0000 0.0000 0.0000 12.9781 0.0000
# 6 0.0000 0.0000 0.0000 0.0000 0.0000 14.3099
#
#
#
# Elastic Compliance Matrix: (Units=1/GPa)
#
#
# Indices 1 2 3 4 5 6 
#
# 1 0.019169 -0.009109 -0.004789 0.000000 0.000000 0.000000
# 2 -0.009109 0.015275 -0.003578 0.000000 0.000000 0.000000
# 3 -0.004789 -0.003578 0.018160 0.000000 0.000000 0.000000
# 4 0.000000 0.000000 0.000000 0.030644 0.000000 0.000000
# 5 0.000000 0.000000 0.000000 0.000000 0.077053 0.000000
# 6 0.000000 0.000000 0.000000 0.000000 0.000000 0.069881
#
#
# Mechanical properties :
#
#
# Convention : Reuss Voigt Hill
#
# Bulk Modulus (GPa) = 56.64733 61.26600 58.95667
# Shear Modulus (GPa) = 18.44885 21.15011 19.79948
#
# Velocity S-wave (km/s) = 3.13128 3.35269 3.24387
# Velocity P-wave (km/s) = 6.57109 6.89550 6.73525
#
# Compressibility (1/GPa) = 0.01765308
#
# Stress axis : x y z
#
# Youngs Moduli (GPa) = 52.16659 65.46536 55.06484
#
# Poissons Ratio (x) = 0.59633 0.26371
# Poissons Ratio (y) = 0.47519 0.19701
# Poissons Ratio (z) = 0.24983 0.23422
#
# Static dielectric constant tensor:
#      x y z
#    x 2.636540 0.000000 0.000000 
#    y 0.000000 2.810010 0.000000 
#    z 0.000000 0.000000 3.407960 
# 
# 
# High freq. dielectric constant tensor:
#      x y z
#    x 1.735440 0.000000 0.000000 
#    y 0.000000 1.737180 0.000000 
#    z 0.000000 0.000000 1.715660 
# 
# From -- ./inp_files/54138.got.cif
#   From: 2010.03.12/outbox.cif.g09.slc.cpg/sg63_28_cif.got.tgz:54138.got - 2010.04.10 19:34:48.
