data_PCOD8260148
_publ_section_title
;
Structure prediction by ZEFSAII (Michael W. Deem and Ramdas Pophale) SiO2 
 PCOD8260148
Probable space group: C M C M
;
_chemical_formula_sum "Si O2"
_cell_formula_units_Z 80
_cell_length_a 24.870488
_cell_length_b 18.342071
_cell_length_c 9.159072
_cell_angle_alpha 90.000000
_cell_angle_beta 90.000000
_cell_angle_gamma 90.000000
_cell_volume 4178.151180
_symmetry_space_group_name_H-M "C M C M"
_symmetry_group_IT_number 63
_symmetry_cell_setting 'orthorhombic'
loop_
_space_group_symop_operation_xyz
x,y,z
-x,-y,1/2+z
x,-y,-z
-x,y,1/2-z
-x,-y,-z
x,y,1/2-z
-x,y,z
x,-y,1/2+z
1/2+x,1/2+y,z
1/2-x,1/2-y,1/2+z
1/2+x,1/2-y,-z
1/2-x,1/2+y,1/2-z
1/2-x,1/2-y,-z
1/2+x,1/2+y,1/2-z
1/2-x,1/2+y,z
1/2+x,1/2-y,1/2+z
loop_
_atom_site_type_symbol
_atom_site_label
_atom_site_fract_x
_atom_site_fract_y
_atom_site_fract_z
Si Si1 0.560381 0.572271 0.580604
Si Si2 0.752647 0.923293 0.578897
Si Si3 0.854391 0.336167 0.918755
Si Si4 0.659203 0.669549 0.580607
Si Si5 0.937666 0.573396 0.919226
O O1 0.581299 0.500000 0.500000
O O2 0.561106 0.553223 0.750000
O O3 0.500000 0.593581 0.528961
O O4 0.599773 0.639132 0.544523
O O5 0.761517 0.934924 0.750000
O O6 0.695118 0.888496 0.544007
O O7 0.797993 0.869674 0.520542
O O8 0.757267 0.000000 0.500000
O O9 0.871245 0.341315 0.750000
O O10 0.838983 0.254166 0.960908
O O11 0.904977 0.358994 0.016258
O O12 0.674048 0.656725 0.750000
O O13 0.924155 0.563326 0.750000
O O14 0.000000 0.590098 0.946673
O O15 0.919355 0.500000 0.000000
#
# Coordination Sequence:
#
# PCOD8260148 Si02
#       5
#    16  16  16  16  16
#     4   9  18  33  53  77 105 138 177 220 264 314
#     4  11  23  38  57  81 109 143 184 228 276 330
#     4  10  22  38  57  83 113 146 183 226 279 334
#     4  10  21  37  57  82 111 143 182 226 275 330
#     4  10  21  37  58  84 113 147 188 232 277 326
#
# _framework density 19.147224999999999
#
# number of rings (size 3 to 8) (size 9 to 14) (size 15 to 20)
#    0.000    2.000    0.000    3.000    0.000    8.400 
#    0.000    2.000    0.000    2.400    0.000    0.000 
#    0.000    0.000    0.000    0.000    0.000    0.000 
#
# Total GULP energy -496200.083272 kJ/mol
# GULP energy per Si atom -12405.002082 kJ/mol
# Density = 1.910364 g / cm^3
# Si number density = 19.147225 Si / 1000 Ang^3
#
#
#
# Elastic Constant Matrix: (Units=GPa)
#
#
# Indices 1 2 3 4 5 6 
#
# 1 91.0883 57.2909 64.2532 0.0000 0.0000 0.0000
# 2 57.2909 126.2246 67.5724 0.0000 0.0000 0.0000
# 3 64.2532 67.5724 92.3726 0.0000 0.0000 0.0000
# 4 0.0000 0.0000 0.0000 31.4297 0.0000 0.0000
# 5 0.0000 0.0000 0.0000 0.0000 33.5212 0.0000
# 6 0.0000 0.0000 0.0000 0.0000 0.0000 21.0845
#
#
#
# Elastic Compliance Matrix: (Units=1/GPa)
#
#
# Indices 1 2 3 4 5 6 
#
# 1 0.022214 -0.002976 -0.013275 0.000000 0.000000 0.000000
# 2 -0.002976 0.013421 -0.007747 0.000000 0.000000 0.000000
# 3 -0.013275 -0.007747 0.025727 0.000000 0.000000 0.000000
# 4 0.000000 0.000000 0.000000 0.031817 0.000000 0.000000
# 5 0.000000 0.000000 0.000000 0.000000 0.029832 0.000000
# 6 0.000000 0.000000 0.000000 0.000000 0.000000 0.047428
#
#
# Mechanical properties :
#
#
# Convention : Reuss Voigt Hill
#
# Bulk Modulus (GPa) = 74.82143 76.43538 75.62841
# Shear Modulus (GPa) = 22.43256 25.24500 23.83878
#
# Velocity S-wave (km/s) = 3.42655 3.63501 3.53232
# Velocity P-wave (km/s) = 7.40383 7.59106 7.49803
#
# Compressibility (1/GPa) = 0.01336516
#
# Stress axis : x y z
#
# Youngs Moduli (GPa) = 45.01615 74.51257 38.86993
#
# Poissons Ratio (x) = 0.22176 0.51599
# Poissons Ratio (y) = 0.13397 0.30114
# Poissons Ratio (z) = 0.59758 0.57727
#
# Static dielectric constant tensor:
#      x y z
#    x 3.640930 0.000000 0.000000 
#    y 0.000000 3.520520 0.000000 
#    z 0.000000 0.000000 3.523790 
# 
# 
# High freq. dielectric constant tensor:
#      x y z
#    x 1.754180 0.000000 0.000000 
#    y 0.000000 1.747480 0.000000 
#    z 0.000000 0.000000 1.746220 
# 
# From -- ./inp_files/12024.got.cif
#   From: 2010.03.12/outbox.cif.g09.slc.cpg/sg63_7_cif.got.tgz:12024.got - 2010.04.10 19:34:48.
