data_PCOD8260894
_publ_section_title
;
Structure prediction by ZEFSAII (Michael W. Deem and Ramdas Pophale) SiO2 
 PCOD8260894
Probable space group: C M C M
;
_chemical_formula_sum "Si O2"
_cell_formula_units_Z 96
_cell_length_a 15.923484
_cell_length_b 18.150514
_cell_length_c 19.150125
_cell_angle_alpha 90.000000
_cell_angle_beta 90.000000
_cell_angle_gamma 90.000000
_cell_volume 5534.758006
_symmetry_space_group_name_H-M "C M C M"
_symmetry_group_IT_number 63
_symmetry_cell_setting 'orthorhombic'
loop_
_space_group_symop_operation_xyz
x,y,z
-x,-y,1/2+z
x,-y,-z
-x,y,1/2-z
-x,-y,-z
x,y,1/2-z
-x,y,z
x,-y,1/2+z
1/2+x,1/2+y,z
1/2-x,1/2-y,1/2+z
1/2+x,1/2-y,-z
1/2-x,1/2+y,1/2-z
1/2-x,1/2-y,-z
1/2+x,1/2+y,1/2-z
1/2-x,1/2+y,z
1/2+x,1/2-y,1/2+z
loop_
_atom_site_type_symbol
_atom_site_label
_atom_site_fract_x
_atom_site_fract_y
_atom_site_fract_z
Si Si1 0.093532 0.308631 0.384330
Si Si2 0.663391 0.839912 0.978344
Si Si3 0.740065 0.465367 0.925410
Si Si4 0.335266 0.685280 0.561248
Si Si5 0.745569 0.897036 0.329972
Si Si6 0.593875 0.642647 0.074886
O O1 0.092338 0.345864 0.461879
O O2 0.160746 0.348315 0.334416
O O3 0.117197 0.221989 0.391517
O O4 0.000000 0.317866 0.352643
O O5 0.676592 0.914271 0.934086
O O6 0.644532 0.771691 0.926311
O O7 0.747636 0.824520 0.021637
O O8 0.766439 0.525469 0.868936
O O9 0.660551 0.417732 0.897788
O O10 0.715297 0.500000 0.000000
O O11 0.326103 0.644726 0.635734
O O12 0.404337 0.649113 0.510013
O O13 0.767378 0.912217 0.250000
O O14 0.500000 0.618273 0.096795
#
# Coordination Sequence:
#
# PCOD8260894 Si02
#       6
#    16  16  16  16  16  16
#     4   9  17  32  53  77  98 120 160 214 257 293
#     4   8  14  27  49  69  93 118 161 205 245 279
#     4  11  17  30  48  73 102 134 165 205 243 292
#     4   8  14  29  47  69  91 124 162 206 236 284
#     4  11  21  32  46  69 102 138 170 201 246 303
#     4   9  17  30  54  81  99 120 162 213 256 289
#
# _framework density 17.344932
#
# number of rings (size 3 to 8) (size 9 to 14) (size 15 to 20)
#    0.000    2.667    5.000    3.000    0.000    0.667 
#    0.000    5.000    0.000    3.000    0.000    0.000 
#    0.000    1.333    0.000    0.000    0.000    0.000 
#
# Total GULP energy -594680.323729 kJ/mol
# GULP energy per Si atom -12389.173411 kJ/mol
# Density = 1.730545 g / cm^3
# Si number density = 17.344932 Si / 1000 Ang^3
#
#
#
# Elastic Constant Matrix: (Units=GPa)
#
#
# Indices 1 2 3 4 5 6 
#
# 1 38.2240 10.1404 -3.4345 0.0000 0.0000 0.0000
# 2 10.1404 90.7665 29.1737 0.0000 0.0000 0.0000
# 3 -3.4345 29.1737 76.4794 0.0000 0.0000 0.0000
# 4 0.0000 0.0000 0.0000 17.0089 0.0000 0.0000
# 5 0.0000 0.0000 0.0000 0.0000 12.1972 0.0000
# 6 0.0000 0.0000 0.0000 0.0000 0.0000 19.4870
#
#
#
# Elastic Compliance Matrix: (Units=1/GPa)
#
#
# Indices 1 2 3 4 5 6 
#
# 1 0.027455 -0.003948 0.002739 0.000000 0.000000 0.000000
# 2 -0.003948 0.013124 -0.005184 0.000000 0.000000 0.000000
# 3 0.002739 -0.005184 0.015176 0.000000 0.000000 0.000000
# 4 0.000000 0.000000 0.000000 0.058793 0.000000 0.000000
# 5 0.000000 0.000000 0.000000 0.000000 0.081986 0.000000
# 6 0.000000 0.000000 0.000000 0.000000 0.000000 0.051316
#
#
# Mechanical properties :
#
#
# Convention : Reuss Voigt Hill
#
# Bulk Modulus (GPa) = 23.27199 30.80324 27.03761
# Shear Modulus (GPa) = 18.18457 21.04465 19.61461
#
# Velocity S-wave (km/s) = 3.24143 3.48703 3.36647
# Velocity P-wave (km/s) = 5.23979 5.83183 5.54372
#
# Compressibility (1/GPa) = 0.04297011
#
# Stress axis : x y z
#
# Youngs Moduli (GPa) = 36.42344 76.19396 65.89453
#
# Poissons Ratio (x) = 0.30078 -0.18047
# Poissons Ratio (y) = 0.14378 0.34158
# Poissons Ratio (z) = -0.09975 0.39497
#
# Static dielectric constant tensor:
#      x y z
#    x 3.332880 0.000000 0.000000 
#    y 0.000000 3.551900 0.000000 
#    z 0.000000 0.000000 2.913900 
# 
# 
# High freq. dielectric constant tensor:
#      x y z
#    x 1.644620 0.000000 0.000000 
#    y 0.000000 1.680700 0.000000 
#    z 0.000000 0.000000 1.617120 
# 
# From -- ./inp_files/55718.got.cif
#   From: 2010.03.12/outbox.cif.g09.slc.cpg/sg63_28_cif.got.tgz:55718.got - 2010.04.10 19:34:48.
