data_PCOD8260616
_publ_section_title
;
Structure prediction by ZEFSAII (Michael W. Deem and Ramdas Pophale) SiO2 
 PCOD8260616
Probable space group: C M C M
;
_chemical_formula_sum "Si O2"
_cell_formula_units_Z 120
_cell_length_a 27.140827
_cell_length_b 24.152900
_cell_length_c 9.086056
_cell_angle_alpha 90.000000
_cell_angle_beta 90.000000
_cell_angle_gamma 90.000000
_cell_volume 5956.179386
_symmetry_space_group_name_H-M "C M C M"
_symmetry_group_IT_number 63
_symmetry_cell_setting 'orthorhombic'
loop_
_space_group_symop_operation_xyz
x,y,z
-x,-y,1/2+z
x,-y,-z
-x,y,1/2-z
-x,-y,-z
x,y,1/2-z
-x,y,z
x,-y,1/2+z
1/2+x,1/2+y,z
1/2-x,1/2-y,1/2+z
1/2+x,1/2-y,-z
1/2-x,1/2+y,1/2-z
1/2-x,1/2-y,-z
1/2+x,1/2+y,1/2-z
1/2-x,1/2+y,z
1/2+x,1/2-y,1/2+z
loop_
_atom_site_type_symbol
_atom_site_label
_atom_site_fract_x
_atom_site_fract_y
_atom_site_fract_z
Si Si1 0.119132 0.942215 0.920282
Si Si2 0.300043 0.738755 0.582627
Si Si3 0.443489 0.243279 0.915920
Si Si4 0.941474 0.850323 0.082272
Si Si5 0.588960 0.120852 0.920043
Si Si6 0.500000 0.940394 0.926666
Si Si7 0.182170 0.360681 0.581611
Si Si8 0.293826 0.635120 0.080923
O O1 0.106264 0.950173 0.750000
O O2 0.175137 0.920762 0.941617
O O3 0.080440 0.899512 0.986685
O O4 0.113294 0.000000 0.000000
O O5 0.289111 0.723306 0.750000
O O6 0.250000 0.750000 0.500000
O O7 0.331449 0.795088 0.569680
O O8 0.323089 0.684136 0.505699
O O9 0.437158 0.265634 0.750000
O O10 0.500000 0.230106 0.951864
O O11 0.414716 0.186562 0.938245
O O12 0.422690 0.290587 0.024197
O O13 0.923729 0.856159 0.250000
O O14 0.000000 0.853861 0.066896
O O15 0.583175 0.102273 0.750000
O O16 0.548502 0.091240 0.019567
O O17 0.643398 0.105417 0.981151
O O18 0.500000 0.944372 0.750000
O O19 0.500000 0.000000 0.000000
O O20 0.176683 0.380651 0.750000
O O21 0.237711 0.373540 0.523968
O O22 0.291510 0.653895 0.250000
#
# Coordination Sequence:
#
# PCOD8260616 Si02
#       8
#    16  16  16  16  16   8  16  16
#     4  11  24  42  63  86 113 154 204 255 308 362
#     4   9  17  30  51  80 116 154 192 237 291 353
#     4   9  18  35  57  84 122 162 195 238 296 356
#     4  10  22  39  60  89 122 156 197 245 299 362
#     4  11  22  38  61  92 126 162 204 248 298 358
#     4  12  26  46  70  92 122 162 205 252 301 356
#     4   9  19  35  54  84 121 157 196 243 300 358
#     4   9  20  38  57  79 114 156 201 249 301 358
#
# _framework density 20.147141999999999
#
# number of rings (size 3 to 8) (size 9 to 14) (size 15 to 20)
#    0.000    2.133    0.667    3.000    1.867    5.867 
#    0.000    0.667    0.000    1.600    0.000    0.000 
#    0.000    0.000    0.000    0.000    0.000    0.000 
#
# Total GULP energy -743854.237366 kJ/mol
# GULP energy per Si atom -12397.570623 kJ/mol
# Density = 2.010129 g / cm^3
# Si number density = 20.147142 Si / 1000 Ang^3
#
#
#
# Elastic Constant Matrix: (Units=GPa)
#
#
# Indices 1 2 3 4 5 6 
#
# 1 73.0615 16.3097 41.6565 0.0000 0.0000 0.0000
# 2 16.3097 72.4111 43.5732 0.0000 0.0000 0.0000
# 3 41.6565 43.5732 129.6496 0.0000 0.0000 0.0000
# 4 0.0000 0.0000 0.0000 35.4323 0.0000 0.0000
# 5 0.0000 0.0000 0.0000 0.0000 29.3362 0.0000
# 6 0.0000 0.0000 0.0000 0.0000 0.0000 19.1796
#
#
#
# Elastic Compliance Matrix: (Units=1/GPa)
#
#
# Indices 1 2 3 4 5 6 
#
# 1 0.016783 -0.000671 -0.005167 0.000000 0.000000 0.000000
# 2 -0.000671 0.017338 -0.005611 0.000000 0.000000 0.000000
# 3 -0.005167 -0.005611 0.011259 0.000000 0.000000 0.000000
# 4 0.000000 0.000000 0.000000 0.028223 0.000000 0.000000
# 5 0.000000 0.000000 0.000000 0.000000 0.034088 0.000000
# 6 0.000000 0.000000 0.000000 0.000000 0.000000 0.052139
#
#
# Mechanical properties :
#
#
# Convention : Reuss Voigt Hill
#
# Bulk Modulus (GPa) = 44.48140 53.13345 48.80743
# Shear Modulus (GPa) = 26.28524 28.36182 27.32353
#
# Velocity S-wave (km/s) = 3.61593 3.75605 3.68666
# Velocity P-wave (km/s) = 6.28963 6.72611 6.51153
#
# Compressibility (1/GPa) = 0.02248131
#
# Stress axis : x y z
#
# Youngs Moduli (GPa) = 59.58496 57.67745 88.81722
#
# Poissons Ratio (x) = 0.03870 0.45890
# Poissons Ratio (y) = 0.03998 0.49839
# Poissons Ratio (z) = 0.30786 0.32365
#
# Static dielectric constant tensor:
#      x y z
#    x 3.610000 0.000000 0.000000 
#    y 0.000000 3.607410 0.000000 
#    z 0.000000 0.000000 3.979850 
# 
# 
# High freq. dielectric constant tensor:
#      x y z
#    x 1.791080 0.000000 0.000000 
#    y 0.000000 1.763570 0.000000 
#    z 0.000000 0.000000 1.793720 
# 
# From -- ./inp_files/13135.got.cif
#   From: 2010.03.12/outbox.cif.g09.slc.cpg/sg63_7_cif.got.tgz:13135.got - 2010.04.10 19:34:48.
