data_PCOD8260655
_publ_section_title
;
Structure prediction by ZEFSAII (Michael W. Deem and Ramdas Pophale) SiO2 
 PCOD8260655
Probable space group: C M C M
;
_chemical_formula_sum "Si O2"
_cell_formula_units_Z 80
_cell_length_a 29.281213
_cell_length_b 7.412858
_cell_length_c 17.984211
_cell_angle_alpha 90.000000
_cell_angle_beta 90.000000
_cell_angle_gamma 90.000000
_cell_volume 3903.607412
_symmetry_space_group_name_H-M "C M C M"
_symmetry_group_IT_number 63
_symmetry_cell_setting 'orthorhombic'
loop_
_space_group_symop_operation_xyz
x,y,z
-x,-y,1/2+z
x,-y,-z
-x,y,1/2-z
-x,-y,-z
x,y,1/2-z
-x,y,z
x,-y,1/2+z
1/2+x,1/2+y,z
1/2-x,1/2-y,1/2+z
1/2+x,1/2-y,-z
1/2-x,1/2+y,1/2-z
1/2-x,1/2-y,-z
1/2+x,1/2+y,1/2-z
1/2-x,1/2+y,z
1/2+x,1/2-y,1/2+z
loop_
_atom_site_type_symbol
_atom_site_label
_atom_site_fract_x
_atom_site_fract_y
_atom_site_fract_z
Si Si1 0.803695 0.256008 0.667555
Si Si2 0.885684 0.802629 0.590621
Si Si3 0.552970 0.010533 0.835912
Si Si4 0.608915 0.275200 0.082049
Si Si5 0.295355 0.662662 0.332454
O O1 0.809126 0.343711 0.750000
O O2 0.844857 0.316820 0.614303
O O3 0.754965 0.312043 0.631815
O O4 0.806803 0.044085 0.675045
O O5 0.921238 0.691673 0.639566
O O6 0.890975 0.745458 0.505667
O O7 0.834185 0.749096 0.615858
O O8 0.895932 0.014392 0.602645
O O9 0.563721 0.971317 0.750000
O O10 0.500000 0.046290 0.850165
O O11 0.566984 0.834175 0.882919
O O12 0.295845 0.753404 0.250000
#
# Coordination Sequence:
#
# PCOD8260655 Si02
#       5
#    16  16  16  16  16
#     4   9  18  32  52  81 116 157 201 242 288 346
#     4  10  22  40  61  88 123 160 197 244 302 361
#     4  11  25  43  65  91 117 153 203 255 306 361
#     4  10  22  40  61  88 123 160 197 244 302 361
#     4   9  18  32  52  81 116 157 201 242 288 346
#
# _framework density 20.493866000000001
#
# number of rings (size 3 to 8) (size 9 to 14) (size 15 to 20)
#    0.000    2.200    0.000    1.800    2.800    5.600 
#    0.000    4.000    0.000    0.000    0.000    0.000 
#    0.000    0.000    0.000    0.000    0.000    0.000 
#
# Total GULP energy -495955.883648 kJ/mol
# GULP energy per Si atom -12398.897091 kJ/mol
# Density = 2.044722 g / cm^3
# Si number density = 20.493866 Si / 1000 Ang^3
#
#
#
# Elastic Constant Matrix: (Units=GPa)
#
#
# Indices 1 2 3 4 5 6 
#
# 1 101.5267 1.1505 27.1231 0.0000 0.0000 0.0000
# 2 1.1505 26.3580 -0.7473 0.0000 0.0000 0.0000
# 3 27.1231 -0.7473 68.5412 0.0000 0.0000 0.0000
# 4 0.0000 0.0000 0.0000 25.6264 0.0000 0.0000
# 5 0.0000 0.0000 0.0000 0.0000 85.9665 0.0000
# 6 0.0000 0.0000 0.0000 0.0000 0.0000 32.0220
#
#
#
# Elastic Compliance Matrix: (Units=1/GPa)
#
#
# Indices 1 2 3 4 5 6 
#
# 1 0.011024 -0.000605 -0.004369 0.000000 0.000000 0.000000
# 2 -0.000605 0.037984 0.000654 0.000000 0.000000 0.000000
# 3 -0.004369 0.000654 0.016326 0.000000 0.000000 0.000000
# 4 0.000000 0.000000 0.000000 0.039022 0.000000 0.000000
# 5 0.000000 0.000000 0.000000 0.000000 0.011632 0.000000
# 6 0.000000 0.000000 0.000000 0.000000 0.000000 0.031229
#
#
# Mechanical properties :
#
#
# Convention : Reuss Voigt Hill
#
# Bulk Modulus (GPa) = 17.63892 27.94206 22.79049
# Shear Modulus (GPa) = 28.61150 39.98297 34.29724
#
# Velocity S-wave (km/s) = 3.74050 4.42177 4.09533
# Velocity P-wave (km/s) = 5.22309 6.30344 5.78853
#
# Compressibility (1/GPa) = 0.05669282
#
# Stress axis : x y z
#
# Youngs Moduli (GPa) = 90.71420 26.32680 61.25303
#
# Poissons Ratio (x) = 0.01593 0.26761
# Poissons Ratio (y) = 0.05489 -0.04003
# Poissons Ratio (z) = 0.39632 -0.01721
#
# Static dielectric constant tensor:
#      x y z
#    x 3.804100 0.000000 0.000000 
#    y 0.000000 3.599380 0.000000 
#    z 0.000000 0.000000 3.866880 
# 
# 
# High freq. dielectric constant tensor:
#      x y z
#    x 1.801760 0.000000 0.000000 
#    y 0.000000 1.802690 0.000000 
#    z 0.000000 0.000000 1.796240 
# 
# From -- ./inp_files/48814.got.cif
#   From: 2010.03.12/outbox.cif.g09.slc.cpg/sg63_25_cif.got.tgz:48814.got - 2010.04.10 19:34:48.
