data_PCOD8260320
_publ_section_title
;
Structure prediction by ZEFSAII (Michael W. Deem and Ramdas Pophale) SiO2 
 PCOD8260320
Probable space group: C M C M
;
_chemical_formula_sum "Si O2"
_cell_formula_units_Z 64
_cell_length_a 9.000845
_cell_length_b 24.286719
_cell_length_c 14.816570
_cell_angle_alpha 90.000000
_cell_angle_beta 90.000000
_cell_angle_gamma 90.000000
_cell_volume 3238.916919
_symmetry_space_group_name_H-M "C M C M"
_symmetry_group_IT_number 63
_symmetry_cell_setting 'orthorhombic'
loop_
_space_group_symop_operation_xyz
x,y,z
-x,-y,1/2+z
x,-y,-z
-x,y,1/2-z
-x,-y,-z
x,y,1/2-z
-x,y,z
x,-y,1/2+z
1/2+x,1/2+y,z
1/2-x,1/2-y,1/2+z
1/2+x,1/2-y,-z
1/2-x,1/2+y,1/2-z
1/2-x,1/2-y,-z
1/2+x,1/2+y,1/2-z
1/2-x,1/2+y,z
1/2+x,1/2-y,1/2+z
loop_
_atom_site_type_symbol
_atom_site_label
_atom_site_fract_x
_atom_site_fract_y
_atom_site_fract_z
Si Si1 0.672703 0.565019 0.750000
Si Si2 0.675338 0.862689 0.607706
Si Si3 0.169546 0.366020 0.397451
Si Si4 0.827234 0.244345 0.404989
Si Si5 0.324538 0.437349 0.750000
O O1 0.500000 0.574882 0.750000
O O2 0.733367 0.591952 0.841035
O O3 0.714967 0.501334 0.750000
O O4 0.500000 0.861917 0.624997
O O5 0.715762 0.869350 0.502424
O O6 0.744734 0.805444 0.646949
O O7 0.750561 0.912607 0.660416
O O8 0.190523 0.303973 0.357438
O O9 0.000000 0.384430 0.386545
O O10 0.750000 0.250000 0.500000
O O11 0.000000 0.229437 0.416705
O O12 0.500000 0.426040 0.750000
#
# Coordination Sequence:
#
# PCOD8260320 Si02
#       5
#     8  16  16  16   8
#     4  11  25  40  57  82 111 148 196 239 280 333
#     4  10  21  38  61  88 114 148 190 233 284 341
#     4   9  20  38  60  85 115 149 185 227 281 336
#     4   9  17  32  56  87 119 150 184 227 280 340
#     4  11  25  42  57  80 113 150 192 239 286 337
#
# _framework density 19.759692000000001
#
# number of rings (size 3 to 8) (size 9 to 14) (size 15 to 20)
#    0.000    2.250    0.000    3.750    0.000   10.000 
#    0.000    6.250    0.000    0.000    0.000    0.000 
#    0.000    0.000    0.000    0.000    0.000    0.000 
#
# Total GULP energy -396688.458619 kJ/mol
# GULP energy per Si atom -12396.514332 kJ/mol
# Density = 1.971472 g / cm^3
# Si number density = 19.759692 Si / 1000 Ang^3
#
#
#
# Elastic Constant Matrix: (Units=GPa)
#
#
# Indices 1 2 3 4 5 6 
#
# 1 127.9120 102.3370 51.2561 0.0000 0.0000 0.0000
# 2 102.3370 159.7486 74.5161 0.0000 0.0000 0.0000
# 3 51.2561 74.5161 95.0222 0.0000 0.0000 0.0000
# 4 0.0000 0.0000 0.0000 30.4221 0.0000 0.0000
# 5 0.0000 0.0000 0.0000 0.0000 30.0305 0.0000
# 6 0.0000 0.0000 0.0000 0.0000 0.0000 38.3587
#
#
#
# Elastic Compliance Matrix: (Units=1/GPa)
#
#
# Indices 1 2 3 4 5 6 
#
# 1 0.016091 -0.009869 -0.000940 0.000000 0.000000 0.000000
# 2 -0.009869 0.015924 -0.007164 0.000000 0.000000 0.000000
# 3 -0.000940 -0.007164 0.016649 0.000000 0.000000 0.000000
# 4 0.000000 0.000000 0.000000 0.032871 0.000000 0.000000
# 5 0.000000 0.000000 0.000000 0.000000 0.033299 0.000000
# 6 0.000000 0.000000 0.000000 0.000000 0.000000 0.026070
#
#
# Mechanical properties :
#
#
# Convention : Reuss Voigt Hill
#
# Bulk Modulus (GPa) = 78.63514 93.21127 85.92320
# Shear Modulus (GPa) = 27.61079 30.06717 28.83898
#
# Velocity S-wave (km/s) = 3.74214 3.90505 3.82447
# Velocity P-wave (km/s) = 7.65203 8.22237 7.94233
#
# Compressibility (1/GPa) = 0.01271696
#
# Stress axis : x y z
#
# Youngs Moduli (GPa) = 62.14797 62.79844 60.06479
#
# Poissons Ratio (x) = 0.61979 0.05645
# Poissons Ratio (y) = 0.61337 0.43029
# Poissons Ratio (z) = 0.05841 0.44988
#
# Static dielectric constant tensor:
#      x y z
#    x 3.742750 0.000000 0.000000 
#    y 0.000000 3.909590 0.000000 
#    z 0.000000 0.000000 3.389740 
# 
# 
# High freq. dielectric constant tensor:
#      x y z
#    x 1.781480 0.000000 0.000000 
#    y 0.000000 1.775440 0.000000 
#    z 0.000000 0.000000 1.760150 
# 
# From -- ./inp_files/27599.got.cif
#   From: 2010.03.12/outbox.cif.g09.slc.cpg/sg63_14_cif.got.tgz:27599.got - 2010.04.10 19:34:48.
