data_PCOD8260235
_publ_section_title
;
Structure prediction by ZEFSAII (Michael W. Deem and Ramdas Pophale) SiO2 
 PCOD8260235
Probable space group: C M C M
;
_chemical_formula_sum "Si O2"
_cell_formula_units_Z 56
_cell_length_a 10.491556
_cell_length_b 24.317985
_cell_length_c 11.020200
_cell_angle_alpha 90.000000
_cell_angle_beta 90.000000
_cell_angle_gamma 90.000000
_cell_volume 2811.622213
_symmetry_space_group_name_H-M "C M C M"
_symmetry_group_IT_number 63
_symmetry_cell_setting 'orthorhombic'
loop_
_space_group_symop_operation_xyz
x,y,z
-x,-y,1/2+z
x,-y,-z
-x,y,1/2-z
-x,-y,-z
x,y,1/2-z
-x,y,z
x,-y,1/2+z
1/2+x,1/2+y,z
1/2-x,1/2-y,1/2+z
1/2+x,1/2-y,-z
1/2-x,1/2+y,1/2-z
1/2-x,1/2-y,-z
1/2+x,1/2+y,1/2-z
1/2-x,1/2+y,z
1/2+x,1/2-y,1/2+z
loop_
_atom_site_type_symbol
_atom_site_label
_atom_site_fract_x
_atom_site_fract_y
_atom_site_fract_z
Si Si1 0.148092 0.906031 0.883886
Si Si2 0.290823 0.000000 0.000000
Si Si3 0.636451 0.955537 0.250000
Si Si4 0.356288 0.633700 0.750000
Si Si5 0.354281 0.702867 0.510571
O O1 0.199817 0.921165 0.750000
O O2 0.209431 0.944369 0.986083
O O3 0.000000 0.917788 0.893287
O O4 0.175559 0.841740 0.906531
O O5 0.366885 0.007537 0.873533
O O6 0.500000 0.923602 0.250000
O O7 0.756693 0.915735 0.250000
O O8 0.500000 0.608700 0.750000
O O9 0.334604 0.672719 0.636808
O O10 0.500000 0.725754 0.498559
O O11 0.250000 0.750000 0.500000
#
# Coordination Sequence:
#
# PCOD8260235 Si02
#       5
#    16   8   8   8  16
#     4  10  21  37  62  95 126 161 208 255 306 371
#     4  12  22  42  64  90 129 168 207 254 321 370
#     4  12  26  42  63  92 131 169 210 258 318 383
#     4  10  22  42  65  88 119 161 216 260 302 367
#     4  10  22  40  62  90 122 159 204 256 307 367
#
# _framework density 19.917328000000001
#
# number of rings (size 3 to 8) (size 9 to 14) (size 15 to 20)
#    0.000    1.429    4.286    0.857    2.000    2.286 
#    0.000    0.000    0.000    0.000    0.000    0.000 
#    0.000    0.000    0.000    0.000    0.000    0.000 
#
# Total GULP energy -346987.102532 kJ/mol
# GULP energy per Si atom -12392.396519 kJ/mol
# Density = 1.987200 g / cm^3
# Si number density = 19.917328 Si / 1000 Ang^3
#
#
#
# Elastic Constant Matrix: (Units=GPa)
#
#
# Indices 1 2 3 4 5 6 
#
# 1 133.7217 74.7398 44.9224 0.0000 0.0000 0.0000
# 2 74.7398 91.0665 29.1259 0.0000 0.0000 0.0000
# 3 44.9224 29.1259 124.5155 0.0000 0.0000 0.0000
# 4 0.0000 0.0000 0.0000 11.3854 0.0000 0.0000
# 5 0.0000 0.0000 0.0000 0.0000 6.0449 0.0000
# 6 0.0000 0.0000 0.0000 0.0000 0.0000 32.2254
#
#
#
# Elastic Compliance Matrix: (Units=1/GPa)
#
#
# Indices 1 2 3 4 5 6 
#
# 1 0.014589 -0.011122 -0.002662 0.000000 0.000000 0.000000
# 2 -0.011122 0.020348 -0.000747 0.000000 0.000000 0.000000
# 3 -0.002662 -0.000747 0.009166 0.000000 0.000000 0.000000
# 4 0.000000 0.000000 0.000000 0.087832 0.000000 0.000000
# 5 0.000000 0.000000 0.000000 0.000000 0.165428 0.000000
# 6 0.000000 0.000000 0.000000 0.000000 0.000000 0.031031
#
#
# Mechanical properties :
#
#
# Convention : Reuss Voigt Hill
#
# Bulk Modulus (GPa) = 66.48364 71.87555 69.17960
# Shear Modulus (GPa) = 13.79430 23.29885 18.54657
#
# Velocity S-wave (km/s) = 2.63454 3.42391 3.05483
# Velocity P-wave (km/s) = 6.53503 7.19696 6.87397
#
# Compressibility (1/GPa) = 0.01504129
#
# Stress axis : x y z
#
# Youngs Moduli (GPa) = 68.54672 49.14535 109.09683
#
# Poissons Ratio (x) = 0.54659 0.29038
# Poissons Ratio (y) = 0.76236 0.08151
# Poissons Ratio (z) = 0.18245 0.03672
#
# Static dielectric constant tensor:
#      x y z
#    x 3.541780 0.000000 0.000000 
#    y 0.000000 3.560960 0.000000 
#    z 0.000000 0.000000 5.021150 
# 
# 
# High freq. dielectric constant tensor:
#      x y z
#    x 1.766670 0.000000 0.000000 
#    y 0.000000 1.760100 0.000000 
#    z 0.000000 0.000000 1.805710 
# 
# From -- ./inp_files/15959.got.cif
#   From: 2010.03.12/outbox.cif.g09.slc.cpg/sg63_8_cif.got.tgz:15959.got - 2010.04.10 19:34:48.
