data_PCOD8260732
_publ_section_title
;
Structure prediction by ZEFSAII (Michael W. Deem and Ramdas Pophale) SiO2 
 PCOD8260732
Probable space group: C M C M
;
_chemical_formula_sum "Si O2"
_cell_formula_units_Z 48
_cell_length_a 10.405340
_cell_length_b 14.481492
_cell_length_c 13.807304
_cell_angle_alpha 90.000000
_cell_angle_beta 90.000000
_cell_angle_gamma 90.000000
_cell_volume 2080.551504
_symmetry_space_group_name_H-M "C M C M"
_symmetry_group_IT_number 63
_symmetry_cell_setting 'orthorhombic'
loop_
_space_group_symop_operation_xyz
x,y,z
-x,-y,1/2+z
x,-y,-z
-x,y,1/2-z
-x,-y,-z
x,y,1/2-z
-x,y,z
x,-y,1/2+z
1/2+x,1/2+y,z
1/2-x,1/2-y,1/2+z
1/2+x,1/2-y,-z
1/2-x,1/2+y,1/2-z
1/2-x,1/2-y,-z
1/2+x,1/2+y,1/2-z
1/2-x,1/2+y,z
1/2+x,1/2-y,1/2+z
loop_
_atom_site_type_symbol
_atom_site_label
_atom_site_fract_x
_atom_site_fract_y
_atom_site_fract_z
Si Si1 0.240690 0.320685 0.141945
Si Si2 0.856731 0.479769 0.859408
Si Si3 0.358584 0.642458 0.052071
O O1 0.301892 0.313910 0.250000
O O2 0.150095 0.409935 0.134802
O O3 0.155535 0.230307 0.121979
O O4 0.351380 0.326143 0.060407
O O5 0.832356 0.445475 0.750000
O O6 0.750363 0.433659 0.927737
O O7 0.000000 0.450085 0.893682
O O8 0.500000 0.599284 0.070122
#
# Coordination Sequence:
#
# PCOD8260732 Si02
#       3
#    16  16  16
#     4  10  23  42  63  88 123 167 209 249 302 370
#     4  10  22  41  65  92 124 165 209 250 299 366
#     4  11  24  41  64  95 127 159 202 259 314 361
#
# _framework density 23.070803999999999
#
# number of rings (size 3 to 8) (size 9 to 14) (size 15 to 20)
#    0.000    1.667    0.000    3.000    0.000   15.333 
#    0.000    3.333    0.000    0.000    0.000    0.000 
#    0.000    0.000    0.000    0.000    0.000    0.000 
#
# Total GULP energy -297543.395847 kJ/mol
# GULP energy per Si atom -12397.641494 kJ/mol
# Density = 2.301829 g / cm^3
# Si number density = 23.070804 Si / 1000 Ang^3
#
#
#
# Elastic Constant Matrix: (Units=GPa)
#
#
# Indices 1 2 3 4 5 6 
#
# 1 148.9761 51.2754 31.5329 0.0000 0.0000 0.0000
# 2 51.2754 112.5909 41.2112 0.0000 0.0000 0.0000
# 3 31.5329 41.2112 151.3966 0.0000 0.0000 0.0000
# 4 0.0000 0.0000 0.0000 36.0309 0.0000 0.0000
# 5 0.0000 0.0000 0.0000 0.0000 15.2964 0.0000
# 6 0.0000 0.0000 0.0000 0.0000 0.0000 16.9982
#
#
#
# Elastic Compliance Matrix: (Units=1/GPa)
#
#
# Indices 1 2 3 4 5 6 
#
# 1 0.008037 -0.003385 -0.000753 0.000000 0.000000 0.000000
# 2 -0.003385 0.011290 -0.002368 0.000000 0.000000 0.000000
# 3 -0.000753 -0.002368 0.007407 0.000000 0.000000 0.000000
# 4 0.000000 0.000000 0.000000 0.027754 0.000000 0.000000
# 5 0.000000 0.000000 0.000000 0.000000 0.065375 0.000000
# 6 0.000000 0.000000 0.000000 0.000000 0.000000 0.058830
#
#
# Mechanical properties :
#
#
# Convention : Reuss Voigt Hill
#
# Bulk Modulus (GPa) = 72.87356 73.44473 73.15914
# Shear Modulus (GPa) = 25.47428 32.92805 29.20116
#
# Velocity S-wave (km/s) = 3.32652 3.78201 3.56155
# Velocity P-wave (km/s) = 6.81248 7.13968 6.97800
#
# Compressibility (1/GPa) = 0.01372240
#
# Stress axis : x y z
#
# Youngs Moduli (GPa) = 124.42925 88.57452 135.01520
#
# Poissons Ratio (x) = 0.29979 0.10161
# Poissons Ratio (y) = 0.42114 0.31975
# Poissons Ratio (z) = 0.09364 0.20977
#
# Static dielectric constant tensor:
#      x y z
#    x 3.722390 0.000000 0.000000 
#    y 0.000000 4.093230 0.000000 
#    z 0.000000 0.000000 4.566610 
# 
# 
# High freq. dielectric constant tensor:
#      x y z
#    x 1.882260 0.000000 0.000000 
#    y 0.000000 1.912980 0.000000 
#    z 0.000000 0.000000 1.932070 
# 
# From -- ./inp_files/26933.got.cif
#   From: 2010.03.12/outbox.cif.g09.slc.cpg/sg63_14_cif.got.tgz:26933.got - 2010.04.10 19:34:48.
