data_PCOD8260168
_publ_section_title
;
Structure prediction by ZEFSAII (Michael W. Deem and Ramdas Pophale) SiO2 
 PCOD8260168
Probable space group: C M C M
;
_chemical_formula_sum "Si O2"
_cell_formula_units_Z 64
_cell_length_a 24.072681
_cell_length_b 5.036387
_cell_length_c 25.006858
_cell_angle_alpha 90.000000
_cell_angle_beta 90.000000
_cell_angle_gamma 90.000000
_cell_volume 3031.814900
_symmetry_space_group_name_H-M "C M C M"
_symmetry_group_IT_number 63
_symmetry_cell_setting 'orthorhombic'
loop_
_space_group_symop_operation_xyz
x,y,z
-x,-y,1/2+z
x,-y,-z
-x,y,1/2-z
-x,-y,-z
x,y,1/2-z
-x,y,z
x,-y,1/2+z
1/2+x,1/2+y,z
1/2-x,1/2-y,1/2+z
1/2+x,1/2-y,-z
1/2-x,1/2+y,1/2-z
1/2-x,1/2-y,-z
1/2+x,1/2+y,1/2-z
1/2-x,1/2+y,z
1/2+x,1/2-y,1/2+z
loop_
_atom_site_type_symbol
_atom_site_label
_atom_site_fract_x
_atom_site_fract_y
_atom_site_fract_z
Si Si1 0.063971 0.705543 0.310723
Si Si2 0.212175 0.104337 0.366823
Si Si3 0.593784 0.714822 0.376234
Si Si4 0.216522 0.976778 0.750000
Si Si5 0.500000 0.750221 0.037595
O O1 0.086883 0.728244 0.250000
O O2 0.099154 0.487906 0.342937
O O3 0.000000 0.614273 0.310835
O O4 0.068686 0.988962 0.338584
O O5 0.243505 0.832471 0.379596
O O6 0.187129 0.102710 0.305648
O O7 0.155210 0.141258 0.399767
O O8 0.555073 0.756666 0.426991
O O9 0.227703 0.292438 0.750000
O O10 0.500000 0.500000 0.000000
O O11 0.500000 0.000000 0.000000
#
# Coordination Sequence:
#
# PCOD8260168 Si02
#       5
#    16  16  16   8   8
#     4  11  22  37  59  94 136 170 207 250 309 387
#     4  10  21  37  57  88 127 173 212 247 296 366
#     4  12  23  42  66  91 130 170 213 261 321 374
#     4   8  16  30  48  75 116 161 206 230 264 334
#     4  12  26  46  71  94 119 154 216 282 342 384
#
# _framework density 21.109468
#
# number of rings (size 3 to 8) (size 9 to 14) (size 15 to 20)
#    0.000    1.250    2.500    3.750    3.500    2.000 
#    4.500    0.000    0.000    4.500    0.000    0.000 
#    0.000    0.000    0.000    0.000    0.000    0.000 
#
# Total GULP energy -396718.287205 kJ/mol
# GULP energy per Si atom -12397.446475 kJ/mol
# Density = 2.106142 g / cm^3
# Si number density = 21.109468 Si / 1000 Ang^3
#
#
#
# Elastic Constant Matrix: (Units=GPa)
#
#
# Indices 1 2 3 4 5 6 
#
# 1 75.8806 -16.8239 22.4107 0.0000 0.0000 0.0000
# 2 -16.8239 105.8854 38.0481 0.0000 0.0000 0.0000
# 3 22.4107 38.0481 94.1328 0.0000 0.0000 0.0000
# 4 0.0000 0.0000 0.0000 34.7227 0.0000 0.0000
# 5 0.0000 0.0000 0.0000 0.0000 13.2138 0.0000
# 6 0.0000 0.0000 0.0000 0.0000 0.0000 27.5449
#
#
#
# Elastic Compliance Matrix: (Units=1/GPa)
#
#
# Indices 1 2 3 4 5 6 
#
# 1 0.015837 0.004529 -0.005601 0.000000 0.000000 0.000000
# 2 0.004529 0.012344 -0.006068 0.000000 0.000000 0.000000
# 3 -0.005601 -0.006068 0.014409 0.000000 0.000000 0.000000
# 4 0.000000 0.000000 0.000000 0.028800 0.000000 0.000000
# 5 0.000000 0.000000 0.000000 0.000000 0.075678 0.000000
# 6 0.000000 0.000000 0.000000 0.000000 0.000000 0.036304
#
#
# Mechanical properties :
#
#
# Convention : Reuss Voigt Hill
#
# Bulk Modulus (GPa) = 35.32214 40.35205 37.83709
# Shear Modulus (GPa) = 24.14423 30.58055 27.36239
#
# Velocity S-wave (km/s) = 3.38563 3.81026 3.60420
# Velocity P-wave (km/s) = 5.66149 6.20601 5.93999
#
# Compressibility (1/GPa) = 0.02831086
#
# Stress axis : x y z
#
# Youngs Moduli (GPa) = 63.14367 81.01065 69.39991
#
# Poissons Ratio (x) = -0.36689 0.38870
# Poissons Ratio (y) = -0.28597 0.42109
# Poissons Ratio (z) = 0.35366 0.49154
#
# Static dielectric constant tensor:
#      x y z
#    x 3.732790 0.000000 0.000000 
#    y 0.000000 3.913960 0.000000 
#    z 0.000000 0.000000 3.623780 
# 
# 
# High freq. dielectric constant tensor:
#      x y z
#    x 1.831830 0.000000 0.000000 
#    y 0.000000 1.849480 0.000000 
#    z 0.000000 0.000000 1.784530 
# 
# From -- ./inp_files/65251.got.cif
#   From: 2010.03.12/outbox.cif.g09.slc.cpg/sg63_33_cif.got.tgz:65251.got - 2010.04.10 19:34:48.
