data_PCOD8260240
_publ_section_title
;
Structure prediction by ZEFSAII (Michael W. Deem and Ramdas Pophale) SiO2 
 PCOD8260240
Probable space group: C M C M
;
_chemical_formula_sum "Si O2"
_cell_formula_units_Z 64
_cell_length_a 31.155107
_cell_length_b 10.874113
_cell_length_c 10.053068
_cell_angle_alpha 90.000000
_cell_angle_beta 90.000000
_cell_angle_gamma 90.000000
_cell_volume 3405.820138
_symmetry_space_group_name_H-M "C M C M"
_symmetry_group_IT_number 63
_symmetry_cell_setting 'orthorhombic'
loop_
_space_group_symop_operation_xyz
x,y,z
-x,-y,1/2+z
x,-y,-z
-x,y,1/2-z
-x,-y,-z
x,y,1/2-z
-x,y,z
x,-y,1/2+z
1/2+x,1/2+y,z
1/2-x,1/2-y,1/2+z
1/2+x,1/2-y,-z
1/2-x,1/2+y,1/2-z
1/2-x,1/2-y,-z
1/2+x,1/2+y,1/2-z
1/2-x,1/2+y,z
1/2+x,1/2-y,1/2+z
loop_
_atom_site_type_symbol
_atom_site_label
_atom_site_fract_x
_atom_site_fract_y
_atom_site_fract_z
Si Si1 0.815368 0.500000 0.000000
Si Si2 0.173927 0.107247 0.750000
Si Si3 0.272784 0.884402 0.250000
Si Si4 0.548497 0.890073 0.598621
Si Si5 0.341045 0.679132 0.250000
Si Si6 0.130049 0.260400 0.527609
O O1 0.784617 0.537503 0.879659
O O2 0.845253 0.388648 0.952158
O O3 0.223061 0.149485 0.750000
O O4 0.151325 0.156901 0.618238
O O5 0.171634 0.961595 0.750000
O O6 0.296799 0.754238 0.250000
O O7 0.553847 0.937436 0.750000
O O8 0.500000 0.843426 0.572749
O O9 0.580590 0.777327 0.570810
O O10 0.560682 0.000000 0.500000
O O11 0.369559 0.714679 0.376612
#
# Coordination Sequence:
#
# PCOD8260240 Si02
#       6
#     8   8   8  16   8  16
#     4  10  22  38  61  88 120 150 203 248 312 362
#     4  12  25  40  62  82 121 167 209 245 304 356
#     4  10  25  38  59  85 118 158 206 263 297 353
#     4  10  21  37  63  97 128 154 194 249 310 370
#     4  10  26  40  57  89 119 163 211 248 297 367
#     4  11  22  40  64  88 123 162 194 255 308 362
#
# _framework density 18.791363
#
# number of rings (size 3 to 8) (size 9 to 14) (size 15 to 20)
#    0.000    1.500    2.500    1.500    8.750    2.000 
#    0.000    0.000    0.000    4.500    0.000    0.000 
#    0.000    0.000    0.000    0.000    0.000    0.000 
#
# Total GULP energy -396974.004275 kJ/mol
# GULP energy per Si atom -12405.437634 kJ/mol
# Density = 1.874859 g / cm^3
# Si number density = 18.791363 Si / 1000 Ang^3
#
#
#
# Elastic Constant Matrix: (Units=GPa)
#
#
# Indices 1 2 3 4 5 6 
#
# 1 133.3367 45.9193 63.5784 0.0000 0.0000 0.0000
# 2 45.9193 112.4372 56.4933 0.0000 0.0000 0.0000
# 3 63.5784 56.4933 154.5353 0.0000 0.0000 0.0000
# 4 0.0000 0.0000 0.0000 26.8570 0.0000 0.0000
# 5 0.0000 0.0000 0.0000 0.0000 10.7757 0.0000
# 6 0.0000 0.0000 0.0000 0.0000 0.0000 21.0205
#
#
#
# Elastic Compliance Matrix: (Units=1/GPa)
#
#
# Indices 1 2 3 4 5 6 
#
# 1 0.009845 -0.002432 -0.003161 0.000000 0.000000 0.000000
# 2 -0.002432 0.011496 -0.003202 0.000000 0.000000 0.000000
# 3 -0.003161 -0.003202 0.008942 0.000000 0.000000 0.000000
# 4 0.000000 0.000000 0.000000 0.037234 0.000000 0.000000
# 5 0.000000 0.000000 0.000000 0.000000 0.092801 0.000000
# 6 0.000000 0.000000 0.000000 0.000000 0.000000 0.047573
#
#
# Mechanical properties :
#
#
# Convention : Reuss Voigt Hill
#
# Bulk Modulus (GPa) = 78.78875 81.36572 80.07723
# Shear Modulus (GPa) = 21.76635 27.35186 24.55911
#
# Velocity S-wave (km/s) = 3.40710 3.81931 3.61908
# Velocity P-wave (km/s) = 7.58267 7.92736 7.75693
#
# Compressibility (1/GPa) = 0.01269217
#
# Stress axis : x y z
#
# Youngs Moduli (GPa) = 101.57674 86.98702 111.83108
#
# Poissons Ratio (x) = 0.21158 0.35351
# Poissons Ratio (y) = 0.24707 0.35807
# Poissons Ratio (z) = 0.32110 0.27852
#
# Static dielectric constant tensor:
#      x y z
#    x 3.472230 0.000000 0.000000 
#    y 0.000000 3.306140 0.000000 
#    z 0.000000 0.000000 3.684190 
# 
# 
# High freq. dielectric constant tensor:
#      x y z
#    x 1.729900 0.000000 0.000000 
#    y 0.000000 1.714590 0.000000 
#    z 0.000000 0.000000 1.752840 
# 
# From -- ./inp_files/25532.got.cif
#   From: 2010.03.12/outbox.cif.g09.slc.cpg/sg63_13_cif.got.tgz:25532.got - 2010.04.10 19:34:48.
