data_PCOD8260829
_publ_section_title
;
Structure prediction by ZEFSAII (Michael W. Deem and Ramdas Pophale) SiO2 
 PCOD8260829
Probable space group: C M C M
;
_chemical_formula_sum "Si O2"
_cell_formula_units_Z 96
_cell_length_a 11.310649
_cell_length_b 24.698301
_cell_length_c 17.569080
_cell_angle_alpha 90.000000
_cell_angle_beta 90.000000
_cell_angle_gamma 90.000000
_cell_volume 4907.989498
_symmetry_space_group_name_H-M "C M C M"
_symmetry_group_IT_number 63
_symmetry_cell_setting 'orthorhombic'
loop_
_space_group_symop_operation_xyz
x,y,z
-x,-y,1/2+z
x,-y,-z
-x,y,1/2-z
-x,-y,-z
x,y,1/2-z
-x,y,z
x,-y,1/2+z
1/2+x,1/2+y,z
1/2-x,1/2-y,1/2+z
1/2+x,1/2-y,-z
1/2-x,1/2+y,1/2-z
1/2-x,1/2-y,-z
1/2+x,1/2+y,1/2-z
1/2-x,1/2+y,z
1/2+x,1/2-y,1/2+z
loop_
_atom_site_type_symbol
_atom_site_label
_atom_site_fract_x
_atom_site_fract_y
_atom_site_fract_z
Si Si1 0.720010 0.449604 0.838789
Si Si2 0.500000 0.507775 0.589349
Si Si3 0.859620 0.154614 0.082042
Si Si4 0.136618 0.529999 0.921713
Si Si5 0.000000 0.118221 0.836378
Si Si6 0.639040 0.764271 0.335361
Si Si7 0.726759 0.357118 0.413182
O O1 0.706410 0.439699 0.750000
O O2 0.613464 0.483954 0.871315
O O3 0.720006 0.391712 0.879525
O O4 0.836816 0.485389 0.856156
O O5 0.500000 0.500000 0.500000
O O6 0.500000 0.571379 0.601088
O O7 0.820497 0.209318 0.123775
O O8 0.000000 0.142122 0.090638
O O9 0.823485 0.159166 0.994811
O O10 0.218260 0.582737 0.912456
O O11 0.000000 0.547466 0.917177
O O12 0.168329 0.500000 0.000000
O O13 0.120149 0.150874 0.852627
O O14 0.000000 0.096940 0.750000
O O15 0.693412 0.766876 0.250000
O O16 0.500000 0.765623 0.329571
O O17 0.674963 0.814948 0.386953
#
# Coordination Sequence:
#
# PCOD8260829 Si02
#       7
#    16   8  16  16   8  16  16
#     4  12  23  37  62  93 125 158 198 252 315 368
#     4  12  22  36  58  92 126 160 196 243 303 372
#     4  11  22  39  64  94 123 158 204 255 308 370
#     4  11  24  41  62  88 123 168 208 249 301 370
#     4  12  24  36  58  92 126 156 194 252 312 360
#     4  10  23  42  63  89 123 160 205 257 304 359
#     4  12  22  40  65  91 121 162 208 250 306 367
#
# _framework density 19.559944999999999
#
# number of rings (size 3 to 8) (size 9 to 14) (size 15 to 20)
#    0.000    0.667    5.000    4.250    0.000    1.667 
#    0.000    0.000    1.833    0.000    0.000    0.000 
#    0.000    0.000    0.000    0.000    0.000    0.000 
#
# Total GULP energy -595266.105667 kJ/mol
# GULP energy per Si atom -12401.377201 kJ/mol
# Density = 1.951543 g / cm^3
# Si number density = 19.559945 Si / 1000 Ang^3
#
#
#
# Elastic Constant Matrix: (Units=GPa)
#
#
# Indices 1 2 3 4 5 6 
#
# 1 63.3183 28.5089 22.3428 0.0000 0.0000 0.0000
# 2 28.5089 117.8166 35.0432 0.0000 0.0000 0.0000
# 3 22.3428 35.0432 125.7607 0.0000 0.0000 0.0000
# 4 0.0000 0.0000 0.0000 27.8739 0.0000 0.0000
# 5 0.0000 0.0000 0.0000 0.0000 20.0458 0.0000
# 6 0.0000 0.0000 0.0000 0.0000 0.0000 26.4944
#
#
#
# Elastic Compliance Matrix: (Units=1/GPa)
#
#
# Indices 1 2 3 4 5 6 
#
# 1 0.018264 -0.003766 -0.002195 0.000000 0.000000 0.000000
# 2 -0.003766 0.010032 -0.002126 0.000000 0.000000 0.000000
# 3 -0.002195 -0.002126 0.008934 0.000000 0.000000 0.000000
# 4 0.000000 0.000000 0.000000 0.035876 0.000000 0.000000
# 5 0.000000 0.000000 0.000000 0.000000 0.049886 0.000000
# 6 0.000000 0.000000 0.000000 0.000000 0.000000 0.037744
#
#
# Mechanical properties :
#
#
# Convention : Reuss Voigt Hill
#
# Bulk Modulus (GPa) = 47.49764 53.18726 50.34245
# Shear Modulus (GPa) = 27.18452 29.61621 28.40036
#
# Velocity S-wave (km/s) = 3.73205 3.89540 3.81460
# Velocity P-wave (km/s) = 6.55033 6.89080 6.72272
#
# Compressibility (1/GPa) = 0.02105368
#
# Stress axis : x y z
#
# Youngs Moduli (GPa) = 54.75346 99.68543 111.93112
#
# Poissons Ratio (x) = 0.37546 0.24571
# Poissons Ratio (y) = 0.20623 0.23798
# Poissons Ratio (z) = 0.12020 0.21194
#
# Static dielectric constant tensor:
#      x y z
#    x 3.573680 0.000000 0.000000 
#    y 0.000000 3.658670 0.000000 
#    z 0.000000 0.000000 2.718430 
# 
# 
# High freq. dielectric constant tensor:
#      x y z
#    x 1.755040 0.000000 0.000000 
#    y 0.000000 1.766780 0.000000 
#    z 0.000000 0.000000 1.775200 
# 
# From -- ./inp_files/42546.got.cif
#   From: 2010.03.12/outbox.cif.g09.slc.cpg/sg63_22_cif.got.tgz:42546.got - 2010.04.10 19:34:48.
