data_PCOD8260393
_publ_section_title
;
Structure prediction by ZEFSAII (Michael W. Deem and Ramdas Pophale) SiO2 
 PCOD8260393
Probable space group: C M C M
;
_chemical_formula_sum "Si O2"
_cell_formula_units_Z 96
_cell_length_a 19.872624
_cell_length_b 9.256022
_cell_length_c 25.475205
_cell_angle_alpha 90.000000
_cell_angle_beta 90.000000
_cell_angle_gamma 90.000000
_cell_volume 4685.946018
_symmetry_space_group_name_H-M "C M C M"
_symmetry_group_IT_number 63
_symmetry_cell_setting 'orthorhombic'
loop_
_space_group_symop_operation_xyz
x,y,z
-x,-y,1/2+z
x,-y,-z
-x,y,1/2-z
-x,-y,-z
x,y,1/2-z
-x,y,z
x,-y,1/2+z
1/2+x,1/2+y,z
1/2-x,1/2-y,1/2+z
1/2+x,1/2-y,-z
1/2-x,1/2+y,1/2-z
1/2-x,1/2-y,-z
1/2+x,1/2+y,1/2-z
1/2-x,1/2+y,z
1/2+x,1/2-y,1/2+z
loop_
_atom_site_type_symbol
_atom_site_label
_atom_site_fract_x
_atom_site_fract_y
_atom_site_fract_z
Si Si1 0.921896 0.648332 0.527124
Si Si2 0.310245 0.626279 0.856759
Si Si3 0.077350 0.935692 0.810790
Si Si4 0.421870 0.123876 0.851012
Si Si5 0.188113 0.159808 0.520736
Si Si6 0.805990 0.562536 0.189270
O O1 0.899612 0.500000 0.500000
O O2 0.903977 0.636920 0.588059
O O3 0.881784 0.779160 0.501271
O O4 0.000000 0.681735 0.517840
O O5 0.380216 0.547754 0.844469
O O6 0.311582 0.670038 0.916972
O O7 0.248591 0.519572 0.845822
O O8 0.302339 0.767772 0.821457
O O9 0.090297 0.966793 0.750000
O O10 0.099541 0.772384 0.823103
O O11 0.000000 0.958263 0.826862
O O12 0.500000 0.087432 0.841826
O O13 0.380192 0.994394 0.825099
O O14 0.250000 0.250000 0.500000
O O15 0.197023 0.000000 0.500000
O O16 0.789684 0.534885 0.250000
#
# Coordination Sequence:
#
# PCOD8260393 Si02
#       6
#    16  16  16  16  16  16
#     4  10  21  39  62  89 123 159 196 243 297 351
#     4  12  25  41  61  88 121 156 199 247 298 353
#     4  10  21  39  61  85 117 155 195 243 298 354
#     4  10  21  39  63  90 120 157 200 243 293 354
#     4  12  24  40  63  89 120 157 199 246 297 354
#     4  12  24  39  60  85 117 156 199 246 296 352
#
# _framework density 20.486792000000001
#
# number of rings (size 3 to 8) (size 9 to 14) (size 15 to 20)
#    0.000    1.000    0.000    7.500    0.000    2.667 
#    0.000    0.000    0.000    0.000    0.000    0.000 
#    0.000    0.000    0.000    0.000    0.000    0.000 
#
# Total GULP energy -595619.689781 kJ/mol
# GULP energy per Si atom -12408.743537 kJ/mol
# Density = 2.044016 g / cm^3
# Si number density = 20.486792 Si / 1000 Ang^3
#
#
#
# Elastic Constant Matrix: (Units=GPa)
#
#
# Indices 1 2 3 4 5 6 
#
# 1 93.8421 56.1168 26.7528 0.0000 0.0000 0.0000
# 2 56.1168 110.4855 16.1968 0.0000 0.0000 0.0000
# 3 26.7528 16.1968 85.4066 0.0000 0.0000 0.0000
# 4 0.0000 0.0000 0.0000 40.2537 0.0000 0.0000
# 5 0.0000 0.0000 0.0000 0.0000 26.2298 0.0000
# 6 0.0000 0.0000 0.0000 0.0000 0.0000 283.3094
#
#
#
# Elastic Compliance Matrix: (Units=1/GPa)
#
#
# Indices 1 2 3 4 5 6 
#
# 1 0.016338 -0.007764 -0.003645 0.000000 0.000000 0.000000
# 2 -0.007764 0.012999 -0.000033 0.000000 0.000000 0.000000
# 3 -0.003645 -0.000033 0.012857 0.000000 0.000000 0.000000
# 4 0.000000 0.000000 0.000000 0.024842 0.000000 0.000000
# 5 0.000000 0.000000 0.000000 0.000000 0.038125 0.000000
# 6 0.000000 0.000000 0.000000 0.000000 0.000000 0.003530
#
#
# Mechanical properties :
#
#
# Convention : Reuss Voigt Hill
#
# Bulk Modulus (GPa) = 51.78896 54.20747 52.99821
# Shear Modulus (GPa) = 36.22853 82.66975 59.44914
#
# Velocity S-wave (km/s) = 4.20978 6.35927 5.39271
# Velocity P-wave (km/s) = 6.99741 8.96870 8.04367
#
# Compressibility (1/GPa) = 0.01930914
#
# Stress axis : x y z
#
# Youngs Moduli (GPa) = 61.20613 76.92762 77.77933
#
# Poissons Ratio (x) = 0.59726 0.28354
# Poissons Ratio (y) = 0.47520 0.00258
# Poissons Ratio (z) = 0.22312 0.00256
#
# Static dielectric constant tensor:
#      x y z
#    x 3.814470 0.000000 0.000000 
#    y 0.000000 3.750150 0.000000 
#    z 0.000000 0.000000 3.843630 
# 
# 
# High freq. dielectric constant tensor:
#      x y z
#    x 1.814010 0.000000 0.000000 
#    y 0.000000 1.807000 0.000000 
#    z 0.000000 0.000000 1.817290 
# 
# From -- ./inp_files/70303.got.cif
#   From: 2010.03.12/outbox.cif.g09.slc.cpg/sg63_36_cif.got.tgz:70303.got - 2010.04.10 19:34:48.
