data_PCOD8260164
_publ_section_title
;
Structure prediction by ZEFSAII (Michael W. Deem and Ramdas Pophale) SiO2 
 PCOD8260164
Probable space group: C M C M
;
_chemical_formula_sum "Si O2"
_cell_formula_units_Z 96
_cell_length_a 17.906957
_cell_length_b 14.691373
_cell_length_c 19.290766
_cell_angle_alpha 90.000000
_cell_angle_beta 90.000000
_cell_angle_gamma 90.000000
_cell_volume 5074.971982
_symmetry_space_group_name_H-M "C M C M"
_symmetry_group_IT_number 63
_symmetry_cell_setting 'orthorhombic'
loop_
_space_group_symop_operation_xyz
x,y,z
-x,-y,1/2+z
x,-y,-z
-x,y,1/2-z
-x,-y,-z
x,y,1/2-z
-x,y,z
x,-y,1/2+z
1/2+x,1/2+y,z
1/2-x,1/2-y,1/2+z
1/2+x,1/2-y,-z
1/2-x,1/2+y,1/2-z
1/2-x,1/2-y,-z
1/2+x,1/2+y,1/2-z
1/2-x,1/2+y,z
1/2+x,1/2-y,1/2+z
loop_
_atom_site_type_symbol
_atom_site_label
_atom_site_fract_x
_atom_site_fract_y
_atom_site_fract_z
Si Si1 0.221819 0.787141 0.331058
Si Si2 0.413581 0.588508 0.039810
Si Si3 0.315920 0.612252 0.327763
Si Si4 0.414554 0.736577 0.573697
Si Si5 0.696358 0.962105 0.327530
Si Si6 0.413828 0.051859 0.067715
O O1 0.206359 0.799961 0.250000
O O2 0.257700 0.690494 0.349110
O O3 0.141360 0.797075 0.366971
O O4 0.280531 0.863416 0.357768
O O5 0.500000 0.569978 0.052569
O O6 0.380499 0.604920 0.115812
O O7 0.379195 0.500000 0.000000
O O8 0.398677 0.679026 0.995391
O O9 0.348663 0.630967 0.250000
O O10 0.272459 0.518191 0.328283
O O11 0.500000 0.721513 0.599256
O O12 0.399425 0.841650 0.556341
O O13 0.664627 0.952231 0.250000
O O14 0.631458 0.011869 0.368578
O O15 0.500000 0.030727 0.082749
O O16 0.385156 0.000000 0.000000
#
# Coordination Sequence:
#
# PCOD8260164 Si02
#       6
#    16  16  16  16  16  16
#     4  10  21  37  57  85 117 149 190 237 286 344
#     4  10  22  39  58  84 117 151 192 240 290 344
#     4  10  21  38  58  83 114 150 192 236 285 341
#     4  10  21  38  60  86 116 151 191 241 292 339
#     4  10  21  38  58  82 114 148 186 236 287 339
#     4  10  22  38  57  83 114 149 191 235 284 342
#
# _framework density 18.916360999999998
#
# number of rings (size 3 to 8) (size 9 to 14) (size 15 to 20)
#    0.000    2.000    1.667    1.000    2.333    3.667 
#    0.000    1.667    0.000    9.000    0.000    0.000 
#    0.000    0.000    0.000    0.000    0.000    0.000 
#
# Total GULP energy -595204.063414 kJ/mol
# GULP energy per Si atom -12400.084654 kJ/mol
# Density = 1.887331 g / cm^3
# Si number density = 18.916361 Si / 1000 Ang^3
#
#
#
# Elastic Constant Matrix: (Units=GPa)
#
#
# Indices 1 2 3 4 5 6 
#
# 1 73.9886 34.0482 65.9780 0.0000 0.0000 0.0000
# 2 34.0482 95.6501 48.2596 0.0000 0.0000 0.0000
# 3 65.9780 48.2596 112.8126 0.0000 0.0000 0.0000
# 4 0.0000 0.0000 0.0000 28.7924 0.0000 0.0000
# 5 0.0000 0.0000 0.0000 0.0000 40.7115 0.0000
# 6 0.0000 0.0000 0.0000 0.0000 0.0000 29.7770
#
#
#
# Elastic Compliance Matrix: (Units=1/GPa)
#
#
# Indices 1 2 3 4 5 6 
#
# 1 0.028613 -0.002222 -0.015784 0.000000 0.000000 0.000000
# 2 -0.002222 0.013505 -0.004478 0.000000 0.000000 0.000000
# 3 -0.015784 -0.004478 0.020011 0.000000 0.000000 0.000000
# 4 0.000000 0.000000 0.000000 0.034731 0.000000 0.000000
# 5 0.000000 0.000000 0.000000 0.000000 0.024563 0.000000
# 6 0.000000 0.000000 0.000000 0.000000 0.000000 0.033583
#
#
# Mechanical properties :
#
#
# Convention : Reuss Voigt Hill
#
# Bulk Modulus (GPa) = 58.26790 64.33589 61.30189
# Shear Modulus (GPa) = 24.30808 28.80055 26.55432
#
# Velocity S-wave (km/s) = 3.58862 3.90618 3.75076
# Velocity P-wave (km/s) = 6.93114 7.37759 7.15785
#
# Compressibility (1/GPa) = 0.01716211
#
# Stress axis : x y z
#
# Youngs Moduli (GPa) = 34.94949 74.04728 49.97295
#
# Poissons Ratio (x) = 0.16451 0.78876
# Poissons Ratio (y) = 0.07765 0.22377
# Poissons Ratio (z) = 0.55163 0.33157
#
# Static dielectric constant tensor:
#      x y z
#    x 3.281300 0.000000 0.000000 
#    y 0.000000 3.751150 0.000000 
#    z 0.000000 0.000000 3.450260 
# 
# 
# High freq. dielectric constant tensor:
#      x y z
#    x 1.722520 0.000000 0.000000 
#    y 0.000000 1.755880 0.000000 
#    z 0.000000 0.000000 1.731680 
# 
# From -- ./inp_files/54154.got.cif
#   From: 2010.03.12/outbox.cif.g09.slc.cpg/sg63_28_cif.got.tgz:54154.got - 2010.04.10 19:34:48.
