data_PCOD8260340
_publ_section_title
;
Structure prediction by ZEFSAII (Michael W. Deem and Ramdas Pophale) SiO2 
 PCOD8260340
Probable space group: C M C M
;
_chemical_formula_sum "Si O2"
_cell_formula_units_Z 64
_cell_length_a 12.818283
_cell_length_b 16.530307
_cell_length_c 15.014989
_cell_angle_alpha 90.000000
_cell_angle_beta 90.000000
_cell_angle_gamma 90.000000
_cell_volume 3181.528320
_symmetry_space_group_name_H-M "C M C M"
_symmetry_group_IT_number 63
_symmetry_cell_setting 'orthorhombic'
loop_
_space_group_symop_operation_xyz
x,y,z
-x,-y,1/2+z
x,-y,-z
-x,y,1/2-z
-x,-y,-z
x,y,1/2-z
-x,y,z
x,-y,1/2+z
1/2+x,1/2+y,z
1/2-x,1/2-y,1/2+z
1/2+x,1/2-y,-z
1/2-x,1/2+y,1/2-z
1/2-x,1/2-y,-z
1/2+x,1/2+y,1/2-z
1/2-x,1/2+y,z
1/2+x,1/2-y,1/2+z
loop_
_atom_site_type_symbol
_atom_site_label
_atom_site_fract_x
_atom_site_fract_y
_atom_site_fract_z
Si Si1 0.293684 0.459037 0.149454
Si Si2 0.183864 0.319228 0.041619
Si Si3 0.500000 0.449908 0.644110
Si Si4 0.500000 0.264225 0.644140
Si Si5 0.387604 0.056150 0.414504
O O1 0.312995 0.428778 0.250000
O O2 0.260544 0.383356 0.089360
O O3 0.398041 0.501259 0.109962
O O4 0.203137 0.527543 0.151911
O O5 0.101369 0.284126 0.111534
O O6 0.250000 0.250000 0.000000
O O7 0.128295 0.354712 0.953760
O O8 0.500000 0.446050 0.750000
O O9 0.500000 0.357148 0.608111
O O10 0.500000 0.262268 0.750000
O O11 0.500000 0.051366 0.365044
O O12 0.386955 0.000000 0.500000
#
# Coordination Sequence:
#
# PCOD8260340 Si02
#       5
#    16  16   8   8  16
#     4  10  21  38  62  86 115 163 211 255 305 371
#     4  11  22  37  58  91 126 159 199 255 321 375
#     4   9  20  39  59  84 117 154 206 253 292 356
#     4  11  22  39  64  94 126 166 214 261 307 374
#     4   9  18  35  55  82 118 150 193 246 298 363
#
# _framework density 20.116119000000001
#
# number of rings (size 3 to 8) (size 9 to 14) (size 15 to 20)
#    0.000    2.000    1.250    2.250    1.750    1.500 
#    0.000    8.125    0.000    0.000    0.000    0.000 
#    0.000    0.000    0.000    0.000    0.000    0.000 
#
# Total GULP energy -396628.743787 kJ/mol
# GULP energy per Si atom -12394.648243 kJ/mol
# Density = 2.007033 g / cm^3
# Si number density = 20.116119 Si / 1000 Ang^3
#
#
#
# Elastic Constant Matrix: (Units=GPa)
#
#
# Indices 1 2 3 4 5 6 
#
# 1 167.4134 74.1584 22.8465 0.0000 0.0000 0.0000
# 2 74.1584 139.4054 31.3086 0.0000 0.0000 0.0000
# 3 22.8465 31.3086 46.6718 0.0000 0.0000 0.0000
# 4 0.0000 0.0000 0.0000 30.4278 0.0000 0.0000
# 5 0.0000 0.0000 0.0000 0.0000 16.5389 0.0000
# 6 0.0000 0.0000 0.0000 0.0000 0.0000 -8.8790
#
#
#
# Elastic Compliance Matrix: (Units=1/GPa)
#
#
# Indices 1 2 3 4 5 6 
#
# 1 0.007874 -0.003913 -0.001230 0.000000 0.000000 0.000000
# 2 -0.003913 0.010390 -0.005054 0.000000 0.000000 0.000000
# 3 -0.001230 -0.005054 0.025419 0.000000 0.000000 0.000000
# 4 0.000000 0.000000 0.000000 0.032865 0.000000 0.000000
# 5 0.000000 0.000000 0.000000 0.000000 0.060464 0.000000
# 6 0.000000 0.000000 0.000000 0.000000 0.000000 -0.112625
#
#
# Mechanical properties :
#
#
# Convention : Reuss Voigt Hill
#
# Bulk Modulus (GPa) = 42.93859 67.79084 55.36471
# Shear Modulus (GPa) = 95.16001 22.62934 58.89467
#
# Velocity S-wave (km/s) = 6.88535 3.35764 5.41673
# Velocity P-wave (km/s) = 9.19796 6.98603 8.16722
#
# Compressibility (1/GPa) = 0.02328908
#
# Stress axis : x y z
#
# Youngs Moduli (GPa) = 126.99686 96.24790 39.34077
#
# Poissons Ratio (x) = 0.37658 0.04838
# Poissons Ratio (y) = 0.49688 0.19885
# Poissons Ratio (z) = 0.15619 0.48648
#
# Static dielectric constant tensor:
#      x y z
#    x 3.993540 0.000000 0.000000 
#    y 0.000000 3.725010 0.000000 
#    z 0.000000 0.000000 3.206320 
# 
# 
# High freq. dielectric constant tensor:
#      x y z
#    x 1.800530 0.000000 0.000000 
#    y 0.000000 1.787540 0.000000 
#    z 0.000000 0.000000 1.763160 
# 
# From -- ./inp_files/41548.got.cif
#   From: 2010.03.12/outbox.cif.g09.slc.cpg/sg63_21_cif.got.tgz:41548.got - 2010.04.10 19:34:48.
