data_PCOD8260871
_publ_section_title
;
Structure prediction by ZEFSAII (Michael W. Deem and Ramdas Pophale) SiO2 
 PCOD8260871
Probable space group: C M C M
;
_chemical_formula_sum "Si O2"
_cell_formula_units_Z 56
_cell_length_a 16.923929
_cell_length_b 9.124989
_cell_length_c 17.213020
_cell_angle_alpha 90.000000
_cell_angle_beta 90.000000
_cell_angle_gamma 90.000000
_cell_volume 2658.218142
_symmetry_space_group_name_H-M "C M C M"
_symmetry_group_IT_number 63
_symmetry_cell_setting 'orthorhombic'
loop_
_space_group_symop_operation_xyz
x,y,z
-x,-y,1/2+z
x,-y,-z
-x,y,1/2-z
-x,-y,-z
x,y,1/2-z
-x,y,z
x,-y,1/2+z
1/2+x,1/2+y,z
1/2-x,1/2-y,1/2+z
1/2+x,1/2-y,-z
1/2-x,1/2+y,1/2-z
1/2-x,1/2-y,-z
1/2+x,1/2+y,1/2-z
1/2-x,1/2+y,z
1/2+x,1/2-y,1/2+z
loop_
_atom_site_type_symbol
_atom_site_label
_atom_site_fract_x
_atom_site_fract_y
_atom_site_fract_z
Si Si1 0.857192 0.893537 0.250000
Si Si2 0.842316 0.254858 0.082343
Si Si3 0.500000 0.299399 0.332199
Si Si4 0.243123 0.000000 0.000000
Si Si5 0.500000 0.172093 0.500811
Si Si6 0.295972 0.709679 0.250000
O O1 0.916878 0.891861 0.325848
O O2 0.796956 0.754740 0.250000
O O3 0.800855 0.033718 0.250000
O O4 0.795084 0.394150 0.052162
O O5 0.842507 0.270439 0.175199
O O6 0.928117 0.257869 0.046005
O O7 0.807000 0.098000 0.059009
O O8 0.500000 0.203358 0.250000
O O9 0.500000 0.209112 0.409992
O O10 0.500000 0.000000 0.500000
#
# Coordination Sequence:
#
# PCOD8260871 Si02
#       6
#     8  16   8   8   8   8
#     4   9  24  44  74  99 136 172 236 275 346 403
#     4  11  26  43  70 100 144 176 233 277 348 407
#     4   8  24  46  70  94 135 185 222 280 338 412
#     4  10  24  44  68 104 132 186 224 290 338 408
#     4  12  26  46  66 103 138 183 226 288 344 410
#     4  12  24  42  70 112 130 182 224 294 332 419
#
# _framework density 21.066742999999999
#
# number of rings (size 3 to 8) (size 9 to 14) (size 15 to 20)
#    0.857    0.571    1.429    1.714   12.000    5.714 
#    2.571    0.000    0.000    3.429    0.000    0.000 
#    0.000    0.000    0.000    0.000    0.000    0.000 
#
# Total GULP energy -346923.744408 kJ/mol
# GULP energy per Si atom -12390.133729 kJ/mol
# Density = 2.101879 g / cm^3
# Si number density = 21.066743 Si / 1000 Ang^3
#
#
#
# Elastic Constant Matrix: (Units=GPa)
#
#
# Indices 1 2 3 4 5 6 
#
# 1 161.9539 69.5491 66.2986 0.0000 0.0000 0.0000
# 2 69.5491 127.4668 48.8001 0.0000 0.0000 0.0000
# 3 66.2986 48.8001 190.2585 0.0000 0.0000 0.0000
# 4 0.0000 0.0000 0.0000 24.7428 0.0000 0.0000
# 5 0.0000 0.0000 0.0000 0.0000 21.4000 0.0000
# 6 0.0000 0.0000 0.0000 0.0000 0.0000 -80.6138
#
#
#
# Elastic Compliance Matrix: (Units=1/GPa)
#
#
# Indices 1 2 3 4 5 6 
#
# 1 0.008708 -0.003981 -0.002014 0.000000 0.000000 0.000000
# 2 -0.003981 0.010519 -0.001311 0.000000 0.000000 0.000000
# 3 -0.002014 -0.001311 0.006294 0.000000 0.000000 0.000000
# 4 0.000000 0.000000 0.000000 0.040416 0.000000 0.000000
# 5 0.000000 0.000000 0.000000 0.000000 0.046729 0.000000
# 6 0.000000 0.000000 0.000000 0.000000 0.000000 -0.012405
#
#
# Mechanical properties :
#
#
# Convention : Reuss Voigt Hill
#
# Bulk Modulus (GPa) = 91.65055 94.33054 92.99055
# Shear Modulus (GPa) = 42.19111 12.77456 27.48284
#
# Velocity S-wave (km/s) = 4.48005 2.46516 3.61579
# Velocity P-wave (km/s) = 8.38811 7.27852 7.85294
#
# Compressibility (1/GPa) = 0.01091101
#
# Stress axis : x y z
#
# Youngs Moduli (GPa) = 114.83311 95.06623 158.88377
#
# Poissons Ratio (x) = 0.37842 0.31992
# Poissons Ratio (y) = 0.45710 0.20829
# Poissons Ratio (z) = 0.23122 0.12463
#
# Static dielectric constant tensor:
#      x y z
#    x 3.978650 0.000000 0.000000 
#    y 0.000000 3.729970 0.000000 
#    z 0.000000 0.000000 4.196780 
# 
# 
# High freq. dielectric constant tensor:
#      x y z
#    x 1.833930 0.000000 0.000000 
#    y 0.000000 1.817660 0.000000 
#    z 0.000000 0.000000 1.836000 
# 
# From -- ./inp_files/45063.got.cif
#   From: 2010.03.12/outbox.cif.g09.slc.cpg/sg63_23_cif.got.tgz:45063.got - 2010.04.10 19:34:48.
