data_PCOD8260913
_publ_section_title
;
Structure prediction by ZEFSAII (Michael W. Deem and Ramdas Pophale) SiO2 
 PCOD8260913
Probable space group: C M C M
;
_chemical_formula_sum "Si O2"
_cell_formula_units_Z 96
_cell_length_a 18.031775
_cell_length_b 12.920584
_cell_length_c 23.089344
_cell_angle_alpha 90.000000
_cell_angle_beta 90.000000
_cell_angle_gamma 90.000000
_cell_volume 5379.379922
_symmetry_space_group_name_H-M "C M C M"
_symmetry_group_IT_number 63
_symmetry_cell_setting 'orthorhombic'
loop_
_space_group_symop_operation_xyz
x,y,z
-x,-y,1/2+z
x,-y,-z
-x,y,1/2-z
-x,-y,-z
x,y,1/2-z
-x,y,z
x,-y,1/2+z
1/2+x,1/2+y,z
1/2-x,1/2-y,1/2+z
1/2+x,1/2-y,-z
1/2-x,1/2+y,1/2-z
1/2-x,1/2-y,-z
1/2+x,1/2+y,1/2-z
1/2-x,1/2+y,z
1/2+x,1/2-y,1/2+z
loop_
_atom_site_type_symbol
_atom_site_label
_atom_site_fract_x
_atom_site_fract_y
_atom_site_fract_z
Si Si1 0.414134 0.397936 0.318268
Si Si2 0.641247 0.015421 0.409305
Si Si3 0.412929 0.166920 0.186728
Si Si4 0.818321 0.172182 0.490935
Si Si5 0.915705 0.356027 0.011005
Si Si6 0.692485 0.511923 0.591652
O O1 0.403324 0.416998 0.250000
O O2 0.500000 0.417156 0.335648
O O3 0.388051 0.280997 0.335106
O O4 0.361271 0.477084 0.353007
O O5 0.608792 0.074038 0.354642
O O6 0.640811 0.092813 0.464508
O O7 0.721756 0.972918 0.391788
O O8 0.592222 0.915574 0.427509
O O9 0.377719 0.144814 0.250000
O O10 0.500000 0.171492 0.192932
O O11 0.750000 0.250000 0.500000
O O12 0.893766 0.236980 0.482384
O O13 0.811777 0.104297 0.433049
O O14 0.830161 0.098114 0.545389
O O15 0.000000 0.364789 0.988388
#
# Coordination Sequence:
#
# PCOD8260913 Si02
#       6
#    16  16  16  16  16  16
#     4   9  20  39  59  81 110 144 189 239 279 322
#     4  11  19  32  52  80 109 139 177 227 268 332
#     4   9  18  33  54  78 106 139 176 227 278 318
#     4  11  20  38  51  78 117 145 178 226 280 330
#     4  11  21  33  54  78 108 148 183 220 274 329
#     4  11  22  33  60  79 107 152 180 224 288 331
#
# _framework density 17.845922000000002
#
# number of rings (size 3 to 8) (size 9 to 14) (size 15 to 20)
#    0.000    1.667    3.333    5.000    0.000    3.333 
#    0.000    1.667    0.000    1.000    0.000    2.333 
#    0.000    0.000    0.000    0.000    0.000    0.000 
#
# Total GULP energy -595011.960197 kJ/mol
# GULP energy per Si atom -12396.082504 kJ/mol
# Density = 1.780530 g / cm^3
# Si number density = 17.845922 Si / 1000 Ang^3
#
#
#
# Elastic Constant Matrix: (Units=GPa)
#
#
# Indices 1 2 3 4 5 6 
#
# 1 83.3322 35.3281 33.5292 0.0000 0.0000 0.0000
# 2 35.3281 105.7711 42.4110 0.0000 0.0000 0.0000
# 3 33.5292 42.4110 81.3307 0.0000 0.0000 0.0000
# 4 0.0000 0.0000 0.0000 233.1456 0.0000 0.0000
# 5 0.0000 0.0000 0.0000 0.0000 27.0084 0.0000
# 6 0.0000 0.0000 0.0000 0.0000 0.0000 26.9016
#
#
#
# Elastic Compliance Matrix: (Units=1/GPa)
#
#
# Indices 1 2 3 4 5 6 
#
# 1 0.015220 -0.003246 -0.004582 0.000000 0.000000 0.000000
# 2 -0.003246 0.012646 -0.005256 0.000000 0.000000 0.000000
# 3 -0.004582 -0.005256 0.016925 0.000000 0.000000 0.000000
# 4 0.000000 0.000000 0.000000 0.004289 0.000000 0.000000
# 5 0.000000 0.000000 0.000000 0.000000 0.037025 0.000000
# 6 0.000000 0.000000 0.000000 0.000000 0.000000 0.037172
#
#
# Mechanical properties :
#
#
# Convention : Reuss Voigt Hill
#
# Bulk Modulus (GPa) = 53.69744 54.77452 54.23598
# Shear Modulus (GPa) = 32.12239 68.02218 50.07228
#
# Velocity S-wave (km/s) = 4.24723 6.18054 5.30274
# Velocity P-wave (km/s) = 7.36252 9.03835 8.24313
#
# Compressibility (1/GPa) = 0.01862286
#
# Stress axis : x y z
#
# Youngs Moduli (GPa) = 65.70338 79.07456 59.08348
#
# Poissons Ratio (x) = 0.25671 0.27070
# Poissons Ratio (y) = 0.21330 0.31056
# Poissons Ratio (z) = 0.30103 0.41563
#
# Static dielectric constant tensor:
#      x y z
#    x 3.206690 0.000000 0.000000 
#    y 0.000000 3.512730 0.000000 
#    z 0.000000 0.000000 3.011100 
# 
# 
# High freq. dielectric constant tensor:
#      x y z
#    x 1.685730 0.000000 0.000000 
#    y 0.000000 1.689950 0.000000 
#    z 0.000000 0.000000 1.672930 
# 
# From -- ./inp_files/56561.got.cif
#   From: 2010.03.12/outbox.cif.g09.slc.cpg/sg63_29_cif.got.tgz:56561.got - 2010.04.10 19:34:48.
