data_PCOD8260394
_publ_section_title
;
Structure prediction by ZEFSAII (Michael W. Deem and Ramdas Pophale) SiO2 
 PCOD8260394
Probable space group: C M C M
;
_chemical_formula_sum "Si O2"
_cell_formula_units_Z 80
_cell_length_a 27.808624
_cell_length_b 9.118152
_cell_length_c 16.278953
_cell_angle_alpha 90.000000
_cell_angle_beta 90.000000
_cell_angle_gamma 90.000000
_cell_volume 4127.744401
_symmetry_space_group_name_H-M "C M C M"
_symmetry_group_IT_number 63
_symmetry_cell_setting 'orthorhombic'
loop_
_space_group_symop_operation_xyz
x,y,z
-x,-y,1/2+z
x,-y,-z
-x,y,1/2-z
-x,-y,-z
x,y,1/2-z
-x,y,z
x,-y,1/2+z
1/2+x,1/2+y,z
1/2-x,1/2-y,1/2+z
1/2+x,1/2-y,-z
1/2-x,1/2+y,1/2-z
1/2-x,1/2-y,-z
1/2+x,1/2+y,1/2-z
1/2-x,1/2+y,z
1/2+x,1/2-y,1/2+z
loop_
_atom_site_type_symbol
_atom_site_label
_atom_site_fract_x
_atom_site_fract_y
_atom_site_fract_z
Si Si1 0.608966 0.336674 0.498631
Si Si2 0.619250 0.857974 0.843799
Si Si3 0.053893 0.589704 0.583446
Si Si4 0.786301 0.806059 0.933074
Si Si5 0.281914 0.011272 0.844877
O O1 0.586895 0.500000 0.500000
O O2 0.604250 0.270483 0.406579
O O3 0.579351 0.244292 0.565677
O O4 0.663803 0.346559 0.525991
O O5 0.617778 0.798878 0.750000
O O6 0.583342 0.996694 0.849514
O O7 0.672417 0.911499 0.868912
O O8 0.053149 0.500000 0.500000
O O9 0.000000 0.617151 0.616619
O O10 0.793169 0.679273 0.865658
O O11 0.764900 0.953435 0.892788
O O12 0.750000 0.750000 0.000000
O O13 0.270039 0.999755 0.750000
#
# Coordination Sequence:
#
# PCOD8260394 Si02
#       5
#    16  16  16  16  16
#     4  11  22  38  58  90 124 160 200 243 302 364
#     4  10  21  39  61  85 118 155 201 254 300 352
#     4   9  19  38  65  88 113 151 199 247 293 354
#     4  12  22  36  57  82 114 161 200 241 286 357
#     4  11  23  38  55  82 117 154 198 248 300 350
#
# _framework density 19.381045
#
# number of rings (size 3 to 8) (size 9 to 14) (size 15 to 20)
#    0.000    1.400    4.000    2.400    0.000    0.800 
#    0.000    2.000    0.000    0.000    0.000    0.000 
#    0.000    0.000    0.000    0.000    0.000    0.000 
#
# Total GULP energy -496096.773487 kJ/mol
# GULP energy per Si atom -12402.419337 kJ/mol
# Density = 1.933693 g / cm^3
# Si number density = 19.381045 Si / 1000 Ang^3
#
#
#
# Elastic Constant Matrix: (Units=GPa)
#
#
# Indices 1 2 3 4 5 6 
#
# 1 93.6700 27.9305 34.2581 0.0000 0.0000 0.0000
# 2 27.9305 124.2316 28.6588 0.0000 0.0000 0.0000
# 3 34.2581 28.6588 59.2654 0.0000 0.0000 0.0000
# 4 0.0000 0.0000 0.0000 27.7853 0.0000 0.0000
# 5 0.0000 0.0000 0.0000 0.0000 19.1440 0.0000
# 6 0.0000 0.0000 0.0000 0.0000 0.0000 23.5124
#
#
#
# Elastic Compliance Matrix: (Units=1/GPa)
#
#
# Indices 1 2 3 4 5 6 
#
# 1 0.013756 -0.001416 -0.007267 0.000000 0.000000 0.000000
# 2 -0.001416 0.009206 -0.003633 0.000000 0.000000 0.000000
# 3 -0.007267 -0.003633 0.022830 0.000000 0.000000 0.000000
# 4 0.000000 0.000000 0.000000 0.035990 0.000000 0.000000
# 5 0.000000 0.000000 0.000000 0.000000 0.052236 0.000000
# 6 0.000000 0.000000 0.000000 0.000000 0.000000 0.042531
#
#
# Mechanical properties :
#
#
# Convention : Reuss Voigt Hill
#
# Bulk Modulus (GPa) = 47.25811 50.98466 49.12138
# Shear Modulus (GPa) = 24.01144 26.50963 25.26054
#
# Velocity S-wave (km/s) = 3.52364 3.70241 3.61413
# Velocity P-wave (km/s) = 6.40245 6.68137 6.54339
#
# Compressibility (1/GPa) = 0.02116039
#
# Stress axis : x y z
#
# Youngs Moduli (GPa) = 72.69714 108.62471 43.80119
#
# Poissons Ratio (x) = 0.15385 0.31828
# Poissons Ratio (y) = 0.10296 0.15913
# Poissons Ratio (z) = 0.52825 0.39464
#
# Static dielectric constant tensor:
#      x y z
#    x 3.827360 0.000000 0.000000 
#    y 0.000000 4.008610 0.000000 
#    z 0.000000 0.000000 3.464880 
# 
# 
# High freq. dielectric constant tensor:
#      x y z
#    x 1.750080 0.000000 0.000000 
#    y 0.000000 1.751520 0.000000 
#    z 0.000000 0.000000 1.746860 
# 
# From -- ./inp_files/48782.got.cif
#   From: 2010.03.12/outbox.cif.g09.slc.cpg/sg63_25_cif.got.tgz:48782.got - 2010.04.10 19:34:48.
