data_PCOD8260670
_publ_section_title
;
Structure prediction by ZEFSAII (Michael W. Deem and Ramdas Pophale) SiO2 
 PCOD8260670
Probable space group: C M C M
;
_chemical_formula_sum "Si O2"
_cell_formula_units_Z 96
_cell_length_a 8.721981
_cell_length_b 19.839608
_cell_length_c 28.229032
_cell_angle_alpha 90.000000
_cell_angle_beta 90.000000
_cell_angle_gamma 90.000000
_cell_volume 4884.771007
_symmetry_space_group_name_H-M "C M C M"
_symmetry_group_IT_number 63
_symmetry_cell_setting 'orthorhombic'
loop_
_space_group_symop_operation_xyz
x,y,z
-x,-y,1/2+z
x,-y,-z
-x,y,1/2-z
-x,-y,-z
x,y,1/2-z
-x,y,z
x,-y,1/2+z
1/2+x,1/2+y,z
1/2-x,1/2-y,1/2+z
1/2+x,1/2-y,-z
1/2-x,1/2+y,1/2-z
1/2-x,1/2-y,-z
1/2+x,1/2+y,1/2-z
1/2-x,1/2+y,z
1/2+x,1/2-y,1/2+z
loop_
_atom_site_type_symbol
_atom_site_label
_atom_site_fract_x
_atom_site_fract_y
_atom_site_fract_z
Si Si1 0.180303 0.855749 0.124806
Si Si2 0.321468 0.488333 0.873547
Si Si3 0.320400 0.682925 0.520333
Si Si4 0.677674 0.062407 0.032636
Si Si5 0.675408 0.888352 0.805780
Si Si6 0.820517 0.251036 0.195399
O O1 0.222528 0.933714 0.132688
O O2 0.268519 0.814574 0.164826
O O3 0.000000 0.842959 0.130147
O O4 0.241307 0.833185 0.073102
O O5 0.500000 0.480765 0.886105
O O6 0.219143 0.454801 0.913937
O O7 0.279565 0.448472 0.825965
O O8 0.500000 0.691464 0.522355
O O9 0.250000 0.750000 0.500000
O O10 0.279013 0.624253 0.484211
O O11 0.500000 0.081871 0.028815
O O12 0.721611 0.000000 0.000000
O O13 0.693682 0.892985 0.750000
O O14 0.500000 0.896937 0.822162
O O15 0.734925 0.815693 0.823582
O O16 0.777504 0.265810 0.250000
O O17 0.000000 0.238953 0.189133
#
# Coordination Sequence:
#
# PCOD8260670 Si02
#       6
#    16  16  16  16  16  16
#     4  10  23  41  61  87 121 160 201 246 299 359
#     4  11  23  40  63  90 121 160 202 247 298 357
#     4  11  24  42  62  88 123 161 205 251 299 357
#     4  11  23  40  63  90 122 160 201 246 299 357
#     4  10  22  41  64  90 122 158 198 247 301 358
#     4  10  22  40  63  90 120 157 201 248 299 357
#
# _framework density 19.652916999999999
#
# number of rings (size 3 to 8) (size 9 to 14) (size 15 to 20)
#    0.000    1.500    1.667    2.500    2.333    6.000 
#    0.000    3.333    0.000    0.000    0.000    0.000 
#    0.000    0.000    0.000    0.000    0.000    0.000 
#
# Total GULP energy -595485.259468 kJ/mol
# GULP energy per Si atom -12405.942906 kJ/mol
# Density = 1.960819 g / cm^3
# Si number density = 19.652917 Si / 1000 Ang^3
#
#
#
# Elastic Constant Matrix: (Units=GPa)
#
#
# Indices 1 2 3 4 5 6 
#
# 1 54.4472 44.9231 28.9465 0.0000 0.0000 0.0000
# 2 44.9231 140.7741 69.3518 0.0000 0.0000 0.0000
# 3 28.9465 69.3518 79.4209 0.0000 0.0000 0.0000
# 4 0.0000 0.0000 0.0000 41.7497 0.0000 0.0000
# 5 0.0000 0.0000 0.0000 0.0000 35.2541 0.0000
# 6 0.0000 0.0000 0.0000 0.0000 0.0000 34.5948
#
#
#
# Elastic Compliance Matrix: (Units=1/GPa)
#
#
# Indices 1 2 3 4 5 6 
#
# 1 0.025585 -0.006266 -0.003853 0.000000 0.000000 0.000000
# 2 -0.006266 0.014001 -0.009942 0.000000 0.000000 0.000000
# 3 -0.003853 -0.009942 0.022677 0.000000 0.000000 0.000000
# 4 0.000000 0.000000 0.000000 0.023952 0.000000 0.000000
# 5 0.000000 0.000000 0.000000 0.000000 0.028366 0.000000
# 6 0.000000 0.000000 0.000000 0.000000 0.000000 0.028906
#
#
# Mechanical properties :
#
#
# Convention : Reuss Voigt Hill
#
# Bulk Modulus (GPa) = 45.16671 62.34277 53.75474
# Shear Modulus (GPa) = 26.17922 31.08109 28.63015
#
# Velocity S-wave (km/s) = 3.65372 3.98112 3.82093
# Velocity P-wave (km/s) = 6.38997 7.27483 6.84671
#
# Compressibility (1/GPa) = 0.02214020
#
# Stress axis : x y z
#
# Youngs Moduli (GPa) = 39.08522 71.42183 44.09704
#
# Poissons Ratio (x) = 0.44756 0.16991
# Poissons Ratio (y) = 0.24492 0.43843
# Poissons Ratio (z) = 0.15060 0.71010
#
# Static dielectric constant tensor:
#      x y z
#    x 3.616740 0.000000 0.000000 
#    y 0.000000 3.642340 0.000000 
#    z 0.000000 0.000000 3.551860 
# 
# 
# High freq. dielectric constant tensor:
#      x y z
#    x 1.773870 0.000000 0.000000 
#    y 0.000000 1.776640 0.000000 
#    z 0.000000 0.000000 1.770250 
# 
# From -- ./inp_files/66947.got.cif
#   From: 2010.03.12/outbox.cif.g09.slc.cpg/sg63_34_cif.got.tgz:66947.got - 2010.04.10 19:34:48.
