data_PCOD8260955
_publ_section_title
;
Structure prediction by ZEFSAII (Michael W. Deem and Ramdas Pophale) SiO2 
 PCOD8260955
Probable space group: C M C M
;
_chemical_formula_sum "Si O2"
_cell_formula_units_Z 64
_cell_length_a 18.550841
_cell_length_b 19.237369
_cell_length_c 9.989762
_cell_angle_alpha 90.000000
_cell_angle_beta 90.000000
_cell_angle_gamma 90.000000
_cell_volume 3565.040107
_symmetry_space_group_name_H-M "C M C M"
_symmetry_group_IT_number 63
_symmetry_cell_setting 'orthorhombic'
loop_
_space_group_symop_operation_xyz
x,y,z
-x,-y,1/2+z
x,-y,-z
-x,y,1/2-z
-x,-y,-z
x,y,1/2-z
-x,y,z
x,-y,1/2+z
1/2+x,1/2+y,z
1/2-x,1/2-y,1/2+z
1/2+x,1/2-y,-z
1/2-x,1/2+y,1/2-z
1/2-x,1/2-y,-z
1/2+x,1/2+y,1/2-z
1/2-x,1/2+y,z
1/2+x,1/2-y,1/2+z
loop_
_atom_site_type_symbol
_atom_site_label
_atom_site_fract_x
_atom_site_fract_y
_atom_site_fract_z
Si Si1 0.000000 0.753433 0.974399
Si Si2 0.654710 0.440437 0.750000
Si Si3 0.648698 0.396226 0.250000
Si Si4 0.000000 0.130831 0.250000
Si Si5 0.500000 0.670691 0.750000
Si Si6 0.215144 0.149027 0.023847
Si Si7 0.151566 0.293815 0.098323
O O1 0.000000 0.778089 0.125369
O O2 0.068947 0.704938 0.948265
O O3 0.000000 0.821259 0.880568
O O4 0.661982 0.522412 0.750000
O O5 0.571164 0.417045 0.750000
O O6 0.697333 0.416011 0.882198
O O7 0.564609 0.383014 0.250000
O O8 0.681076 0.359063 0.378683
O O9 0.181587 0.215624 0.096288
O O10 0.301307 0.158080 0.001925
O O11 0.156834 0.321970 0.250000
#
# Coordination Sequence:
#
# PCOD8260955 Si02
#       7
#     8   8   8   4   4  16  16
#     4  12  20  34  59  82 117 149 182 233 293 345
#     4  12  23  38  57  78 116 162 196 233 271 340
#     4  12  23  38  53  80 120 158 194 227 277 330
#     4  12  19  38  52  80 112 160 199 208 272 360
#     4  12  23  34  48  92 120 152 193 228 262 344
#     4  11  22  36  56  83 107 151 195 239 283 334
#     4  11  20  36  60  80 113 147 189 242 296 343
#
# _framework density 17.952112
#
# number of rings (size 3 to 8) (size 9 to 14) (size 15 to 20)
#    0.000    0.500    8.750    1.125    0.000    1.000 
#    0.000    3.750    0.000    0.000    0.000    5.250 
#    0.000    0.000    0.000    0.000    0.000    0.000 
#
# Total GULP energy -396882.304281 kJ/mol
# GULP energy per Si atom -12402.572009 kJ/mol
# Density = 1.791125 g / cm^3
# Si number density = 17.952112 Si / 1000 Ang^3
#
#
#
# Elastic Constant Matrix: (Units=GPa)
#
#
# Indices 1 2 3 4 5 6 
#
# 1 142.1921 30.6401 26.9728 0.0000 0.0000 0.0000
# 2 30.6401 40.8351 12.2949 0.0000 0.0000 0.0000
# 3 26.9728 12.2949 113.9635 0.0000 0.0000 0.0000
# 4 0.0000 0.0000 0.0000 14.4090 0.0000 0.0000
# 5 0.0000 0.0000 0.0000 0.0000 30.8212 0.0000
# 6 0.0000 0.0000 0.0000 0.0000 0.0000 16.2325
#
#
#
# Elastic Compliance Matrix: (Units=1/GPa)
#
#
# Indices 1 2 3 4 5 6 
#
# 1 0.008595 -0.006033 -0.001383 0.000000 0.000000 0.000000
# 2 -0.006033 0.029545 -0.001760 0.000000 0.000000 0.000000
# 3 -0.001383 -0.001760 0.009292 0.000000 0.000000 0.000000
# 4 0.000000 0.000000 0.000000 0.069401 0.000000 0.000000
# 5 0.000000 0.000000 0.000000 0.000000 0.032445 0.000000
# 6 0.000000 0.000000 0.000000 0.000000 0.000000 0.061605
#
#
# Mechanical properties :
#
#
# Convention : Reuss Voigt Hill
#
# Bulk Modulus (GPa) = 34.38713 48.53403 41.46058
# Shear Modulus (GPa) = 20.92676 27.43139 24.17907
#
# Velocity S-wave (km/s) = 3.41794 3.91324 3.67395
# Velocity P-wave (km/s) = 5.89686 6.89289 6.41424
#
# Compressibility (1/GPa) = 0.02908065
#
# Stress axis : x y z
#
# Youngs Moduli (GPa) = 116.34516 33.84654 107.61935
#
# Poissons Ratio (x) = 0.20419 0.14889
# Poissons Ratio (y) = 0.70187 0.18937
# Poissons Ratio (z) = 0.16096 0.05956
#
# Static dielectric constant tensor:
#      x y z
#    x 3.649620 0.000000 0.000000 
#    y 0.000000 2.947710 0.000000 
#    z 0.000000 0.000000 3.392320 
# 
# 
# High freq. dielectric constant tensor:
#      x y z
#    x 1.705040 0.000000 0.000000 
#    y 0.000000 1.652450 0.000000 
#    z 0.000000 0.000000 1.716280 
# 
# From -- ./inp_files/5812.got.cif
#   From: 2010.03.12/outbox.cif.g09.slc.cpg/sg63_3_cif.got.tgz:5812.got - 2010.04.10 19:34:48.
