data_PCOD8260933
_publ_section_title
;
Structure prediction by ZEFSAII (Michael W. Deem and Ramdas Pophale) SiO2 
 PCOD8260933
Probable space group: C M C M
;
_chemical_formula_sum "Si O2"
_cell_formula_units_Z 80
_cell_length_a 7.971980
_cell_length_b 30.454883
_cell_length_c 19.113867
_cell_angle_alpha 90.000000
_cell_angle_beta 90.000000
_cell_angle_gamma 90.000000
_cell_volume 4640.573927
_symmetry_space_group_name_H-M "C M C M"
_symmetry_group_IT_number 63
_symmetry_cell_setting 'orthorhombic'
loop_
_space_group_symop_operation_xyz
x,y,z
-x,-y,1/2+z
x,-y,-z
-x,y,1/2-z
-x,-y,-z
x,y,1/2-z
-x,y,z
x,-y,1/2+z
1/2+x,1/2+y,z
1/2-x,1/2-y,1/2+z
1/2+x,1/2-y,-z
1/2-x,1/2+y,1/2-z
1/2-x,1/2-y,-z
1/2+x,1/2+y,1/2-z
1/2-x,1/2+y,z
1/2+x,1/2-y,1/2+z
loop_
_atom_site_type_symbol
_atom_site_label
_atom_site_fract_x
_atom_site_fract_y
_atom_site_fract_z
Si Si1 0.304367 0.823970 0.672637
Si Si2 0.685596 0.079705 0.369821
Si Si3 0.500000 0.470923 0.895246
Si Si4 0.190540 0.203984 0.470972
Si Si5 0.817951 0.385690 0.023524
Si Si6 0.000000 0.065472 0.947982
O O1 0.251906 0.807036 0.750000
O O2 0.500000 0.816739 0.658770
O O3 0.261448 0.875542 0.668695
O O4 0.206699 0.796739 0.613475
O O5 0.500000 0.063624 0.343908
O O6 0.831147 0.044037 0.354067
O O7 0.676673 0.087371 0.452161
O O8 0.500000 0.523435 0.897892
O O9 0.500000 0.448770 0.971377
O O10 0.250000 0.250000 0.500000
O O11 0.297242 0.165771 0.507182
O O12 0.000000 0.195713 0.491930
O O13 0.665579 0.405406 0.069516
O O14 0.000000 0.391437 0.061394
#
# Coordination Sequence:
#
# PCOD8260933 Si02
#       6
#    16  16   8  16  16   8
#     4   9  18  32  48  68  96 129 163 201 249 300
#     4   8  15  26  40  59  86 119 151 186 228 277
#     4   9  16  24  39  58  86 116 155 186 221 273
#     4  11  20  31  47  69  96 128 169 208 253 310
#     4   9  16  28  42  59  86 119 155 192 237 287
#     4   9  16  26  38  60  84 118 152 192 229 270
#
# _framework density 17.239246999999999
#
# number of rings (size 3 to 8) (size 9 to 14) (size 15 to 20)
#    0.000    2.800    1.000    3.000    4.200    1.200 
#    0.000    4.000    0.000    0.000    0.000    0.000 
#    0.000    3.200    0.000    5.600    0.000    5.200 
#
# Total GULP energy -495710.668097 kJ/mol
# GULP energy per Si atom -12392.766702 kJ/mol
# Density = 1.720001 g / cm^3
# Si number density = 17.239247 Si / 1000 Ang^3
#
#
#
# Elastic Constant Matrix: (Units=GPa)
#
#
# Indices 1 2 3 4 5 6 
#
# 1 143.8164 58.3309 23.5617 0.0000 0.0000 0.0000
# 2 58.3309 92.4611 29.9186 0.0000 0.0000 0.0000
# 3 23.5617 29.9186 37.5397 0.0000 0.0000 0.0000
# 4 0.0000 0.0000 0.0000 10.5959 0.0000 0.0000
# 5 0.0000 0.0000 0.0000 0.0000 12.6811 0.0000
# 6 0.0000 0.0000 0.0000 0.0000 0.0000 27.5454
#
#
#
# Elastic Compliance Matrix: (Units=1/GPa)
#
#
# Indices 1 2 3 4 5 6 
#
# 1 0.009414 -0.005426 -0.001584 0.000000 0.000000 0.000000
# 2 -0.005426 0.017702 -0.010702 0.000000 0.000000 0.000000
# 3 -0.001584 -0.010702 0.036162 0.000000 0.000000 0.000000
# 4 0.000000 0.000000 0.000000 0.094376 0.000000 0.000000
# 5 0.000000 0.000000 0.000000 0.000000 0.078858 0.000000
# 6 0.000000 0.000000 0.000000 0.000000 0.000000 0.036304
#
#
# Mechanical properties :
#
#
# Convention : Reuss Voigt Hill
#
# Bulk Modulus (GPa) = 35.90304 55.27106 45.58705
# Shear Modulus (GPa) = 15.74687 20.96488 18.35587
#
# Velocity S-wave (km/s) = 3.02558 3.49107 3.26663
# Velocity P-wave (km/s) = 5.75127 6.95563 6.38192
#
# Compressibility (1/GPa) = 0.02785280
#
# Stress axis : x y z
#
# Youngs Moduli (GPa) = 106.22859 56.49187 27.65341
#
# Poissons Ratio (x) = 0.30654 0.04380
# Poissons Ratio (y) = 0.57643 0.29595
# Poissons Ratio (z) = 0.16824 0.60458
#
# Static dielectric constant tensor:
#      x y z
#    x 3.679950 0.000000 0.000000 
#    y 0.000000 2.964990 0.000000 
#    z 0.000000 0.000000 2.812770 
# 
# 
# High freq. dielectric constant tensor:
#      x y z
#    x 1.689700 0.000000 0.000000 
#    y 0.000000 1.639130 0.000000 
#    z 0.000000 0.000000 1.599930 
# 
# From -- ./inp_files/40608.got.cif
#   From: 2010.03.12/outbox.cif.g09.slc.cpg/sg63_21_cif.got.tgz:40608.got - 2010.04.10 19:34:48.
