data_PCOD8260942
_publ_section_title
;
Structure prediction by ZEFSAII (Michael W. Deem and Ramdas Pophale) SiO2 
 PCOD8260942
Probable space group: C M C M
;
_chemical_formula_sum "Si O2"
_cell_formula_units_Z 48
_cell_length_a 28.114994
_cell_length_b 9.174425
_cell_length_c 8.286347
_cell_angle_alpha 90.000000
_cell_angle_beta 90.000000
_cell_angle_gamma 90.000000
_cell_volume 2137.371262
_symmetry_space_group_name_H-M "C M C M"
_symmetry_group_IT_number 63
_symmetry_cell_setting 'orthorhombic'
loop_
_space_group_symop_operation_xyz
x,y,z
-x,-y,1/2+z
x,-y,-z
-x,y,1/2-z
-x,-y,-z
x,y,1/2-z
-x,y,z
x,-y,1/2+z
1/2+x,1/2+y,z
1/2-x,1/2-y,1/2+z
1/2+x,1/2-y,-z
1/2-x,1/2+y,1/2-z
1/2-x,1/2-y,-z
1/2+x,1/2+y,1/2-z
1/2-x,1/2+y,z
1/2+x,1/2-y,1/2+z
loop_
_atom_site_type_symbol
_atom_site_label
_atom_site_fract_x
_atom_site_fract_y
_atom_site_fract_z
Si Si1 0.793232 0.159855 0.067170
Si Si2 0.943950 0.463495 0.250000
Si Si3 0.398802 0.721010 0.071997
Si Si4 0.055758 0.198363 0.750000
O O1 0.780907 0.141078 0.250000
O O2 0.843004 0.242538 0.035707
O O3 0.750000 0.250000 0.000000
O O4 0.797426 0.000000 0.000000
O O5 0.923121 0.380886 0.090526
O O6 0.929673 0.631654 0.250000
O O7 0.000000 0.442986 0.250000
O O8 0.405747 0.639399 0.250000
O O9 0.422168 0.635048 0.918493
O O10 0.000000 0.166662 0.750000
#
# Coordination Sequence:
#
# PCOD8260942 Si02
#       4
#    16   8  16   8
#     4  11  25  46  70  98 131 172 219 276 334 399
#     4   9  18  36  56  87 130 167 214 271 320 379
#     4   9  22  37  56  89 126 166 207 264 326 384
#     4  11  20  32  60  93 128 173 218 269 326 383
#
# _framework density 22.457492999999999
#
# number of rings (size 3 to 8) (size 9 to 14) (size 15 to 20)
#    1.000    1.000    0.000    3.000    4.667    5.333 
#    0.000    0.000    0.000    6.000    0.000    0.000 
#    0.000    0.000    0.000    0.000    0.000    0.000 
#
# Total GULP energy -297314.978680 kJ/mol
# GULP energy per Si atom -12388.124112 kJ/mol
# Density = 2.240638 g / cm^3
# Si number density = 22.457493 Si / 1000 Ang^3
#
#
#
# Elastic Constant Matrix: (Units=GPa)
#
#
# Indices 1 2 3 4 5 6 
#
# 1 169.9089 30.6467 89.8936 0.0000 0.0000 0.0000
# 2 30.6467 41.5404 18.5135 0.0000 0.0000 0.0000
# 3 89.8936 18.5135 192.1636 0.0000 0.0000 0.0000
# 4 0.0000 0.0000 0.0000 29.8829 0.0000 0.0000
# 5 0.0000 0.0000 0.0000 0.0000 41.6300 0.0000
# 6 0.0000 0.0000 0.0000 0.0000 0.0000 983.6807
#
#
#
# Elastic Compliance Matrix: (Units=1/GPa)
#
#
# Indices 1 2 3 4 5 6 
#
# 1 0.008643 -0.004780 -0.003583 0.000000 0.000000 0.000000
# 2 -0.004780 0.027796 -0.000442 0.000000 0.000000 0.000000
# 3 -0.003583 -0.000442 0.006922 0.000000 0.000000 0.000000
# 4 0.000000 0.000000 0.000000 0.033464 0.000000 0.000000
# 5 0.000000 0.000000 0.000000 0.000000 0.024021 0.000000
# 6 0.000000 0.000000 0.000000 0.000000 0.000000 0.001017
#
#
# Mechanical properties :
#
#
# Convention : Reuss Voigt Hill
#
# Bulk Modulus (GPa) = 38.83069 75.74672 57.28870
# Shear Modulus (GPa) = 39.04515 228.67600 133.86057
#
# Velocity S-wave (km/s) = 4.17421 10.10184 7.72888
# Velocity P-wave (km/s) = 6.36869 13.03323 10.25732
#
# Compressibility (1/GPa) = 0.02575282
#
# Stress axis : x y z
#
# Youngs Moduli (GPa) = 115.69832 35.97608 144.45686
#
# Poissons Ratio (x) = 0.17196 0.51755
# Poissons Ratio (y) = 0.55302 0.06385
# Poissons Ratio (z) = 0.41452 0.01590
#
# Static dielectric constant tensor:
#      x y z
#    x 3.862980 0.000000 0.000000 
#    y 0.000000 3.652500 0.000000 
#    z 0.000000 0.000000 4.580670 
# 
# 
# High freq. dielectric constant tensor:
#      x y z
#    x 1.888150 0.000000 0.000000 
#    y 0.000000 1.857960 0.000000 
#    z 0.000000 0.000000 1.914070 
# 
# From -- ./inp_files/11316.got.cif
#   From: 2010.03.12/outbox.cif.g09.slc.cpg/sg63_6_cif.got.tgz:11316.got - 2010.04.10 19:34:48.
