data_PCOD8260221
_publ_section_title
;
Structure prediction by ZEFSAII (Michael W. Deem and Ramdas Pophale) SiO2 
 PCOD8260221
Probable space group: C M C M
;
_chemical_formula_sum "Si O2"
_cell_formula_units_Z 104
_cell_length_a 23.075128
_cell_length_b 26.927723
_cell_length_c 8.596873
_cell_angle_alpha 90.000000
_cell_angle_beta 90.000000
_cell_angle_gamma 90.000000
_cell_volume 5341.758638
_symmetry_space_group_name_H-M "C M C M"
_symmetry_group_IT_number 63
_symmetry_cell_setting 'orthorhombic'
loop_
_space_group_symop_operation_xyz
x,y,z
-x,-y,1/2+z
x,-y,-z
-x,y,1/2-z
-x,-y,-z
x,y,1/2-z
-x,y,z
x,-y,1/2+z
1/2+x,1/2+y,z
1/2-x,1/2-y,1/2+z
1/2+x,1/2-y,-z
1/2-x,1/2+y,1/2-z
1/2-x,1/2-y,-z
1/2+x,1/2+y,1/2-z
1/2-x,1/2+y,z
1/2+x,1/2-y,1/2+z
loop_
_atom_site_type_symbol
_atom_site_label
_atom_site_fract_x
_atom_site_fract_y
_atom_site_fract_z
Si Si1 0.937453 0.157764 0.250000
Si Si2 0.129141 0.825188 0.428230
Si Si3 0.064195 0.957738 0.750000
Si Si4 0.694508 0.226747 0.077191
Si Si5 0.276775 0.592251 0.921910
Si Si6 0.647253 0.500000 0.000000
Si Si7 0.934394 0.552404 0.932953
Si Si8 0.836967 0.619866 0.431313
O O1 0.910226 0.171483 0.417942
O O2 0.945566 0.099837 0.250000
O O3 0.000000 0.184166 0.250000
O O4 0.104491 0.838756 0.250000
O O5 0.144420 0.767410 0.423020
O O6 0.183546 0.860625 0.464948
O O7 0.000000 0.983621 0.750000
O O8 0.102942 0.971598 0.606480
O O9 0.713714 0.211961 0.250000
O O10 0.671703 0.175685 0.998856
O O11 0.750000 0.250000 0.000000
O O12 0.251196 0.599742 0.750000
O O13 0.312487 0.541176 0.921652
O O14 0.222329 0.589129 0.038276
O O15 0.932424 0.548211 0.750000
O O16 0.000000 0.563789 0.991234
O O17 0.912255 0.500000 0.000000
O O18 0.892187 0.596188 0.985664
O O19 0.850841 0.619979 0.250000
#
# Coordination Sequence:
#
# PCOD8260221 Si02
#       8
#     8  16   8  16  16   8  16  16
#     4  11  24  42  66  91 118 164 216 263 313 377
#     4  10  22  41  63  91 126 163 204 261 321 375
#     4  11  24  42  62  85 116 158 218 263 305 373
#     4  10  21  37  60  91 124 163 206 251 307 371
#     4  11  23  37  57  86 126 162 200 254 315 373
#     4  12  23  40  58  84 121 162 198 258 322 364
#     4  10  22  43  68  92 124 164 206 253 305 371
#     4  11  24  38  62  96 125 163 207 251 309 374
#
# _framework density 19.469242999999999
#
# number of rings (size 3 to 8) (size 9 to 14) (size 15 to 20)
#    0.000    1.385    3.846    1.154    4.308    1.846 
#    0.000    0.769    0.000    2.769    0.000    0.000 
#    0.000    0.000    0.000    0.000    0.000    0.000 
#
# Total GULP energy -644276.451331 kJ/mol
# GULP energy per Si atom -12389.931756 kJ/mol
# Density = 1.942493 g / cm^3
# Si number density = 19.469243 Si / 1000 Ang^3
#
#
#
# Elastic Constant Matrix: (Units=GPa)
#
#
# Indices 1 2 3 4 5 6 
#
# 1 110.2459 53.4531 50.3654 0.0000 0.0000 0.0000
# 2 53.4531 115.3644 25.6787 0.0000 0.0000 0.0000
# 3 50.3654 25.6787 110.7482 0.0000 0.0000 0.0000
# 4 0.0000 0.0000 0.0000 29.0721 0.0000 0.0000
# 5 0.0000 0.0000 0.0000 0.0000 49.2227 0.0000
# 6 0.0000 0.0000 0.0000 0.0000 0.0000 49.1355
#
#
#
# Elastic Compliance Matrix: (Units=1/GPa)
#
#
# Indices 1 2 3 4 5 6 
#
# 1 0.014007 -0.005348 -0.005130 0.000000 0.000000 0.000000
# 2 -0.005348 0.011182 -0.000160 0.000000 0.000000 0.000000
# 3 -0.005130 -0.000160 0.011400 0.000000 0.000000 0.000000
# 4 0.000000 0.000000 0.000000 0.034397 0.000000 0.000000
# 5 0.000000 0.000000 0.000000 0.000000 0.020316 0.000000
# 6 0.000000 0.000000 0.000000 0.000000 0.000000 0.020352
#
#
# Mechanical properties :
#
#
# Convention : Reuss Voigt Hill
#
# Bulk Modulus (GPa) = 65.31084 66.15032 65.73058
# Shear Modulus (GPa) = 36.22248 39.27680 37.74964
#
# Velocity S-wave (km/s) = 4.31803 4.49639 4.40811
# Velocity P-wave (km/s) = 7.64715 7.81072 7.72937
#
# Compressibility (1/GPa) = 0.01531139
#
# Stress axis : x y z
#
# Youngs Moduli (GPa) = 71.39050 89.42948 87.72127
#
# Poissons Ratio (x) = 0.47830 0.45002
# Poissons Ratio (y) = 0.38182 0.01407
# Poissons Ratio (z) = 0.36624 0.01435
#
# Static dielectric constant tensor:
#      x y z
#    x 3.552780 0.000000 0.000000 
#    y 0.000000 3.896060 0.000000 
#    z 0.000000 0.000000 3.712050 
# 
# 
# High freq. dielectric constant tensor:
#      x y z
#    x 1.745370 0.000000 0.000000 
#    y 0.000000 1.763000 0.000000 
#    z 0.000000 0.000000 1.771750 
# 
# From -- ./inp_files/8854.got.cif
#   From: 2010.03.12/outbox.cif.g09.slc.cpg/sg63_5_cif.got.tgz:8854.got - 2010.04.10 19:34:48.
