data_PCOD8260371
_publ_section_title
;
Structure prediction by ZEFSAII (Michael W. Deem and Ramdas Pophale) SiO2 
 PCOD8260371
Probable space group: C M C M
;
_chemical_formula_sum "Si O2"
_cell_formula_units_Z 64
_cell_length_a 18.745303
_cell_length_b 10.409428
_cell_length_c 15.051175
_cell_angle_alpha 90.000000
_cell_angle_beta 90.000000
_cell_angle_gamma 90.000000
_cell_volume 2936.903898
_symmetry_space_group_name_H-M "C M C M"
_symmetry_group_IT_number 63
_symmetry_cell_setting 'orthorhombic'
loop_
_space_group_symop_operation_xyz
x,y,z
-x,-y,1/2+z
x,-y,-z
-x,y,1/2-z
-x,-y,-z
x,y,1/2-z
-x,y,z
x,-y,1/2+z
1/2+x,1/2+y,z
1/2-x,1/2-y,1/2+z
1/2+x,1/2-y,-z
1/2-x,1/2+y,1/2-z
1/2-x,1/2-y,-z
1/2+x,1/2+y,1/2-z
1/2-x,1/2+y,z
1/2+x,1/2-y,1/2+z
loop_
_atom_site_type_symbol
_atom_site_label
_atom_site_fract_x
_atom_site_fract_y
_atom_site_fract_z
Si Si1 0.419787 0.571233 0.907693
Si Si2 0.285203 0.731267 0.594059
Si Si3 0.685018 0.993052 0.107136
Si Si4 0.915685 0.893348 0.750000
Si Si5 0.915309 0.396556 0.250000
O O1 0.500000 0.618703 0.884238
O O2 0.368622 0.694021 0.912156
O O3 0.389634 0.470066 0.836431
O O4 0.418485 0.500000 0.000000
O O5 0.250000 0.750000 0.500000
O O6 0.241018 0.616121 0.639595
O O7 0.283439 0.870114 0.641959
O O8 0.612019 0.965223 0.159829
O O9 0.671947 0.000000 0.000000
O O10 0.885276 0.749371 0.750000
O O11 0.000000 0.882824 0.750000
O O12 0.000000 0.404846 0.250000
#
# Coordination Sequence:
#
# PCOD8260371 Si02
#       5
#    16  16  16   8   8
#     4  10  21  38  67  99 133 179 222 274 334 389
#     4  10  22  42  65  99 134 171 222 279 327 406
#     4  10  24  42  67  96 133 180 219 273 341 387
#     4   9  22  40  62  99 134 170 221 273 326 395
#     4  11  26  44  66  99 139 176 225 273 331 407
#
# _framework density 21.791657000000001
#
# number of rings (size 3 to 8) (size 9 to 14) (size 15 to 20)
#    0.000    2.000    0.000    2.250   10.500    4.500 
#    0.000    1.250    0.000    0.000    0.000    0.000 
#    0.000    0.000    0.000    0.000    0.000    0.000 
#
# Total GULP energy -396589.988113 kJ/mol
# GULP energy per Si atom -12393.437129 kJ/mol
# Density = 2.174206 g / cm^3
# Si number density = 21.791657 Si / 1000 Ang^3
#
#
#
# Elastic Constant Matrix: (Units=GPa)
#
#
# Indices 1 2 3 4 5 6 
#
# 1 126.9647 78.3120 35.3463 0.0000 0.0000 0.0000
# 2 78.3120 190.6189 40.9013 0.0000 0.0000 0.0000
# 3 35.3463 40.9013 107.5520 0.0000 0.0000 0.0000
# 4 0.0000 0.0000 0.0000 25.3908 0.0000 0.0000
# 5 0.0000 0.0000 0.0000 0.0000 36.6287 0.0000
# 6 0.0000 0.0000 0.0000 0.0000 0.0000 43.9722
#
#
#
# Elastic Compliance Matrix: (Units=1/GPa)
#
#
# Indices 1 2 3 4 5 6 
#
# 1 0.010952 -0.004058 -0.002056 0.000000 0.000000 0.000000
# 2 -0.004058 0.007216 -0.001410 0.000000 0.000000 0.000000
# 3 -0.002056 -0.001410 0.010510 0.000000 0.000000 0.000000
# 4 0.000000 0.000000 0.000000 0.039384 0.000000 0.000000
# 5 0.000000 0.000000 0.000000 0.000000 0.027301 0.000000
# 6 0.000000 0.000000 0.000000 0.000000 0.000000 0.022742
#
#
# Mechanical properties :
#
#
# Convention : Reuss Voigt Hill
#
# Bulk Modulus (GPa) = 73.37620 81.58384 77.48002
# Shear Modulus (GPa) = 36.31182 39.23673 37.77428
#
# Velocity S-wave (km/s) = 4.08648 4.24788 4.16796
# Velocity P-wave (km/s) = 7.48402 7.84721 7.66777
#
# Compressibility (1/GPa) = 0.01362840
#
# Stress axis : x y z
#
# Youngs Moduli (GPa) = 91.31076 138.58255 95.14847
#
# Poissons Ratio (x) = 0.56238 0.19562
# Poissons Ratio (y) = 0.37055 0.13421
# Poissons Ratio (z) = 0.18773 0.19547
#
# Static dielectric constant tensor:
#      x y z
#    x 4.069390 0.000000 0.000000 
#    y 0.000000 4.718620 0.000000 
#    z 0.000000 0.000000 3.755220 
# 
# 
# High freq. dielectric constant tensor:
#      x y z
#    x 1.852920 0.000000 0.000000 
#    y 0.000000 1.867330 0.000000 
#    z 0.000000 0.000000 1.845730 
# 
# From -- ./inp_files/33417.got.cif
#   From: 2010.03.12/outbox.cif.g09.slc.cpg/sg63_17_cif.got.tgz:33417.got - 2010.04.10 19:34:48.
