data_PCOD8260408
_publ_section_title
;
Structure prediction by ZEFSAII (Michael W. Deem and Ramdas Pophale) SiO2 
 PCOD8260408
Probable space group: C M C M
;
_chemical_formula_sum "Si O2"
_cell_formula_units_Z 88
_cell_length_a 21.819364
_cell_length_b 23.011315
_cell_length_c 8.702941
_cell_angle_alpha 90.000000
_cell_angle_beta 90.000000
_cell_angle_gamma 90.000000
_cell_volume 4369.679299
_symmetry_space_group_name_H-M "C M C M"
_symmetry_group_IT_number 63
_symmetry_cell_setting 'orthorhombic'
loop_
_space_group_symop_operation_xyz
x,y,z
-x,-y,1/2+z
x,-y,-z
-x,y,1/2-z
-x,-y,-z
x,y,1/2-z
-x,y,z
x,-y,1/2+z
1/2+x,1/2+y,z
1/2-x,1/2-y,1/2+z
1/2+x,1/2-y,-z
1/2-x,1/2+y,1/2-z
1/2-x,1/2-y,-z
1/2+x,1/2+y,1/2-z
1/2-x,1/2+y,z
1/2+x,1/2-y,1/2+z
loop_
_atom_site_type_symbol
_atom_site_label
_atom_site_fract_x
_atom_site_fract_y
_atom_site_fract_z
Si Si1 0.875436 0.625834 0.926975
Si Si2 0.344406 0.645136 0.070117
Si Si3 0.000000 0.435327 0.432465
Si Si4 0.072217 0.941791 0.422967
Si Si5 0.316870 0.239409 0.069506
Si Si6 0.253948 0.938228 0.427375
O O1 0.881472 0.644341 0.750000
O O2 0.940120 0.600633 0.989077
O O3 0.825780 0.574699 0.948314
O O4 0.852909 0.682013 0.018576
O O5 0.337525 0.655853 0.250000
O O6 0.405273 0.609708 0.030848
O O7 0.356267 0.705678 0.984114
O O8 0.283786 0.612567 0.010446
O O9 0.000000 0.500000 0.500000
O O10 0.000000 0.441658 0.250000
O O11 0.098644 0.936679 0.250000
O O12 0.000000 0.941234 0.420815
O O13 0.098188 0.000000 0.500000
O O14 0.309281 0.237124 0.250000
O O15 0.250000 0.250000 0.000000
O O16 0.234684 0.939196 0.250000
O O17 0.237781 0.000000 0.500000
#
# Coordination Sequence:
#
# PCOD8260408 Si02
#       6
#    16  16   8  16  16  16
#     4  10  22  41  64  91 126 168 211 261 314 374
#     4  12  24  39  61  88 121 160 205 253 308 370
#     4  10  22  42  68  98 132 172 219 266 319 378
#     4  10  21  39  62  88 121 159 201 249 302 363
#     4  12  24  41  65  91 122 160 203 253 312 376
#     4  11  22  36  58  88 124 160 203 254 310 370
#
# _framework density 20.138777999999999
#
# number of rings (size 3 to 8) (size 9 to 14) (size 15 to 20)
#    0.000    1.091    1.818    5.455    0.000    2.545 
#    1.636    0.000    0.000    0.000    0.000    0.000 
#    0.000    0.000    0.000    0.000    0.000    0.000 
#
# Total GULP energy -545665.964002 kJ/mol
# GULP energy per Si atom -12401.499182 kJ/mol
# Density = 2.009294 g / cm^3
# Si number density = 20.138778 Si / 1000 Ang^3
#
#
#
# Elastic Constant Matrix: (Units=GPa)
#
#
# Indices 1 2 3 4 5 6 
#
# 1 85.2610 50.4978 42.9635 0.0000 0.0000 0.0000
# 2 50.4978 145.0295 59.8323 0.0000 0.0000 0.0000
# 3 42.9635 59.8323 129.3952 0.0000 0.0000 0.0000
# 4 0.0000 0.0000 0.0000 40.1970 0.0000 0.0000
# 5 0.0000 0.0000 0.0000 0.0000 24.8780 0.0000
# 6 0.0000 0.0000 0.0000 0.0000 0.0000 28.5469
#
#
#
# Elastic Compliance Matrix: (Units=1/GPa)
#
#
# Indices 1 2 3 4 5 6 
#
# 1 0.015873 -0.004143 -0.003355 0.000000 0.000000 0.000000
# 2 -0.004143 0.009602 -0.003064 0.000000 0.000000 0.000000
# 3 -0.003355 -0.003064 0.010259 0.000000 0.000000 0.000000
# 4 0.000000 0.000000 0.000000 0.024877 0.000000 0.000000
# 5 0.000000 0.000000 0.000000 0.000000 0.040196 0.000000
# 6 0.000000 0.000000 0.000000 0.000000 0.000000 0.035030
#
#
# Mechanical properties :
#
#
# Convention : Reuss Voigt Hill
#
# Bulk Modulus (GPa) = 68.44575 74.03032 71.23804
# Shear Modulus (GPa) = 30.89645 32.48387 31.69016
#
# Velocity S-wave (km/s) = 3.92111 4.02058 3.97115
# Velocity P-wave (km/s) = 7.38654 7.64155 7.51512
#
# Compressibility (1/GPa) = 0.01461011
#
# Stress axis : x y z
#
# Youngs Moduli (GPa) = 63.00099 104.14691 97.47464
#
# Poissons Ratio (x) = 0.43146 0.32700
# Poissons Ratio (y) = 0.26100 0.29870
# Poissons Ratio (z) = 0.21135 0.31914
#
# Static dielectric constant tensor:
#      x y z
#    x 3.694380 0.000000 0.000000 
#    y 0.000000 3.831450 0.000000 
#    z 0.000000 0.000000 3.687770 
# 
# 
# High freq. dielectric constant tensor:
#      x y z
#    x 1.787810 0.000000 0.000000 
#    y 0.000000 1.795340 0.000000 
#    z 0.000000 0.000000 1.794810 
# 
# From -- ./inp_files/10207.got.cif
#   From: 2010.03.12/outbox.cif.g09.slc.cpg/sg63_6_cif.got.tgz:10207.got - 2010.04.10 19:34:48.
