data_PCOD8260991
_publ_section_title
;
Structure prediction by ZEFSAII (Michael W. Deem and Ramdas Pophale) SiO2 
 PCOD8260991
Probable space group: C M C M
;
_chemical_formula_sum "Si O2"
_cell_formula_units_Z 80
_cell_length_a 18.774298
_cell_length_b 26.940799
_cell_length_c 8.936559
_cell_angle_alpha 90.000000
_cell_angle_beta 90.000000
_cell_angle_gamma 90.000000
_cell_volume 4520.063185
_symmetry_space_group_name_H-M "C M C M"
_symmetry_group_IT_number 63
_symmetry_cell_setting 'orthorhombic'
loop_
_space_group_symop_operation_xyz
x,y,z
-x,-y,1/2+z
x,-y,-z
-x,y,1/2-z
-x,-y,-z
x,y,1/2-z
-x,y,z
x,-y,1/2+z
1/2+x,1/2+y,z
1/2-x,1/2-y,1/2+z
1/2+x,1/2-y,-z
1/2-x,1/2+y,1/2-z
1/2-x,1/2-y,-z
1/2+x,1/2+y,1/2-z
1/2-x,1/2+y,z
1/2+x,1/2-y,1/2+z
loop_
_atom_site_type_symbol
_atom_site_label
_atom_site_fract_x
_atom_site_fract_y
_atom_site_fract_z
Si Si1 0.419240 0.355181 0.925165
Si Si2 0.719841 0.099778 0.077068
Si Si3 0.078184 0.448836 0.924953
Si Si4 0.714977 0.703603 0.078583
Si Si5 0.149499 0.947922 0.427736
O O1 0.405517 0.366404 0.750000
O O2 0.500000 0.337458 0.955678
O O3 0.364786 0.311550 0.978159
O O4 0.404539 0.405641 0.014954
O O5 0.734670 0.085848 0.250000
O O6 0.637675 0.091450 0.031305
O O7 0.733639 0.157343 0.047342
O O8 0.770133 0.065287 0.976375
O O9 0.077009 0.458546 0.750000
O O10 0.000000 0.430519 0.980234
O O11 0.100179 0.500000 0.000000
O O12 0.710832 0.718347 0.250000
O O13 0.750000 0.750000 0.000000
O O14 0.144847 0.951837 0.250000
O O15 0.126010 0.000000 0.500000
#
# Coordination Sequence:
#
# PCOD8260991 Si02
#       5
#    16  16  16  16  16
#     4   9  19  37  57  75  99 131 166 205 248 292
#     4   9  18  33  50  69  96 130 169 209 247 291
#     4   9  17  29  46  68  95 127 161 198 241 287
#     4   9  18  33  53  75  97 124 159 200 246 291
#     4  11  21  32  49  74 103 134 168 203 242 292
#
# _framework density 17.698867
#
# number of rings (size 3 to 8) (size 9 to 14) (size 15 to 20)
#    0.000    2.600    0.000    3.600    0.000    6.400 
#    0.000    1.000    0.000    1.200    0.000    0.000 
#    0.000    0.000    0.000    0.000    0.000    0.000 
#
# Total GULP energy -495845.286542 kJ/mol
# GULP energy per Si atom -12396.132164 kJ/mol
# Density = 1.765858 g / cm^3
# Si number density = 17.698867 Si / 1000 Ang^3
#
#
#
# Elastic Constant Matrix: (Units=GPa)
#
#
# Indices 1 2 3 4 5 6 
#
# 1 157.9116 70.5796 38.1776 0.0000 0.0000 0.0000
# 2 70.5796 107.4578 45.6055 0.0000 0.0000 0.0000
# 3 38.1776 45.6055 71.2359 0.0000 0.0000 0.0000
# 4 0.0000 0.0000 0.0000 31.4827 0.0000 0.0000
# 5 0.0000 0.0000 0.0000 0.0000 23.2182 0.0000
# 6 0.0000 0.0000 0.0000 0.0000 0.0000 19.3179
#
#
#
# Elastic Compliance Matrix: (Units=1/GPa)
#
#
# Indices 1 2 3 4 5 6 
#
# 1 0.009070 -0.005347 -0.001438 0.000000 0.000000 0.000000
# 2 -0.005347 0.015930 -0.007333 0.000000 0.000000 0.000000
# 3 -0.001438 -0.007333 0.019503 0.000000 0.000000 0.000000
# 4 0.000000 0.000000 0.000000 0.031763 0.000000 0.000000
# 5 0.000000 0.000000 0.000000 0.000000 0.043070 0.000000
# 6 0.000000 0.000000 0.000000 0.000000 0.000000 0.051765
#
#
# Mechanical properties :
#
#
# Convention : Reuss Voigt Hill
#
# Bulk Modulus (GPa) = 61.47124 71.70342 66.58733
# Shear Modulus (GPa) = 24.41884 26.95328 25.68606
#
# Velocity S-wave (km/s) = 3.71844 3.90664 3.81370
# Velocity P-wave (km/s) = 7.29677 7.80706 7.55622
#
# Compressibility (1/GPa) = 0.01626777
#
# Stress axis : x y z
#
# Youngs Moduli (GPa) = 110.25057 62.77375 51.27453
#
# Poissons Ratio (x) = 0.33567 0.07372
# Poissons Ratio (y) = 0.58954 0.37599
# Poissons Ratio (z) = 0.15850 0.46031
#
# Static dielectric constant tensor:
#      x y z
#    x 3.679210 0.000000 0.000000 
#    y 0.000000 3.018740 0.000000 
#    z 0.000000 0.000000 3.214720 
# 
# 
# High freq. dielectric constant tensor:
#      x y z
#    x 1.693910 0.000000 0.000000 
#    y 0.000000 1.664400 0.000000 
#    z 0.000000 0.000000 1.678020 
# 
# From -- ./inp_files/6439.got.cif
#   From: 2010.03.12/outbox.cif.g09.slc.cpg/sg63_4_cif.got.tgz:6439.got - 2010.04.10 19:34:48.
