data_PCOD8260793
_publ_section_title
;
Structure prediction by ZEFSAII (Michael W. Deem and Ramdas Pophale) SiO2 
 PCOD8260793
Probable space group: C M C M
;
_chemical_formula_sum "Si O2"
_cell_formula_units_Z 64
_cell_length_a 13.099102
_cell_length_b 29.496987
_cell_length_c 8.400084
_cell_angle_alpha 90.000000
_cell_angle_beta 90.000000
_cell_angle_gamma 90.000000
_cell_volume 3245.658404
_symmetry_space_group_name_H-M "C M C M"
_symmetry_group_IT_number 63
_symmetry_cell_setting 'orthorhombic'
loop_
_space_group_symop_operation_xyz
x,y,z
-x,-y,1/2+z
x,-y,-z
-x,y,1/2-z
-x,-y,-z
x,y,1/2-z
-x,y,z
x,-y,1/2+z
1/2+x,1/2+y,z
1/2-x,1/2-y,1/2+z
1/2+x,1/2-y,-z
1/2-x,1/2+y,1/2-z
1/2-x,1/2-y,-z
1/2+x,1/2+y,1/2-z
1/2-x,1/2+y,z
1/2+x,1/2-y,1/2+z
loop_
_atom_site_type_symbol
_atom_site_label
_atom_site_fract_x
_atom_site_fract_y
_atom_site_fract_z
Si Si1 0.695332 0.206865 0.563899
Si Si2 0.500000 0.645151 0.937359
Si Si3 0.285231 0.382639 0.933967
Si Si4 0.385413 0.950191 0.062262
Si Si5 0.000000 0.749117 0.440867
O O1 0.716918 0.197519 0.750000
O O2 0.750000 0.250000 0.500000
O O3 0.734663 0.165519 0.460678
O O4 0.581405 0.217680 0.524362
O O5 0.500000 0.646531 0.750000
O O6 0.500000 0.698041 0.997774
O O7 0.399569 0.617771 0.992968
O O8 0.297597 0.393579 0.750000
O O9 0.207716 0.419017 0.006851
O O10 0.384944 0.950421 0.250000
O O11 0.500000 0.934497 0.003361
O O12 0.361690 0.000000 0.000000
O O13 0.000000 0.746467 0.250000
#
# Coordination Sequence:
#
# PCOD8260793 Si02
#       5
#    16   8  16  16   8
#     4  12  24  39  59  86 122 164 210 258 309 366
#     4  11  23  41  64  88 124 167 213 260 313 370
#     4  12  25  41  64  93 127 166 212 258 312 373
#     4  10  22  43  70  98 129 162 203 253 313 373
#     4  11  23  39  59  84 118 163 210 260 314 368
#
# _framework density 19.71865
#
# number of rings (size 3 to 8) (size 9 to 14) (size 15 to 20)
#    0.000    0.750    2.500    6.000    1.750    2.500 
#    0.000    0.625    0.000    0.000    0.000    0.000 
#    0.000    0.000    0.000    0.000    0.000    0.000 
#
# Total GULP energy -396459.033706 kJ/mol
# GULP energy per Si atom -12389.344803 kJ/mol
# Density = 1.967377 g / cm^3
# Si number density = 19.718650 Si / 1000 Ang^3
#
#
#
# Elastic Constant Matrix: (Units=GPa)
#
#
# Indices 1 2 3 4 5 6 
#
# 1 184.6103 74.4636 26.7577 0.0000 0.0000 0.0000
# 2 74.4636 108.3264 19.6958 0.0000 0.0000 0.0000
# 3 26.7577 19.6958 78.3556 0.0000 0.0000 0.0000
# 4 0.0000 0.0000 0.0000 33.0094 0.0000 0.0000
# 5 0.0000 0.0000 0.0000 0.0000 35.4683 0.0000
# 6 0.0000 0.0000 0.0000 0.0000 0.0000 42.9821
#
#
#
# Elastic Compliance Matrix: (Units=1/GPa)
#
#
# Indices 1 2 3 4 5 6 
#
# 1 0.007629 -0.004999 -0.001349 0.000000 0.000000 0.000000
# 2 -0.004999 0.012949 -0.001548 0.000000 0.000000 0.000000
# 3 -0.001349 -0.001548 0.013612 0.000000 0.000000 0.000000
# 4 0.000000 0.000000 0.000000 0.030294 0.000000 0.000000
# 5 0.000000 0.000000 0.000000 0.000000 0.028194 0.000000
# 6 0.000000 0.000000 0.000000 0.000000 0.000000 0.023266
#
#
# Mechanical properties :
#
#
# Convention : Reuss Voigt Hill
#
# Bulk Modulus (GPa) = 54.35053 68.12516 61.23784
# Shear Modulus (GPa) = 36.26692 38.98364 37.62528
#
# Velocity S-wave (km/s) = 4.29326 4.45116 4.37293
# Velocity P-wave (km/s) = 7.22489 7.81286 7.52462
#
# Compressibility (1/GPa) = 0.01839908
#
# Stress axis : x y z
#
# Youngs Moduli (GPa) = 131.08721 77.22689 73.46491
#
# Poissons Ratio (x) = 0.38603 0.09907
# Poissons Ratio (y) = 0.65526 0.11372
# Poissons Ratio (z) = 0.17678 0.11954
#
# Static dielectric constant tensor:
#      x y z
#    x 0.299280 0.000000 0.000000 
#    y 0.000000 3.536700 0.000000 
#    z 0.000000 0.000000 -33.235320 
# 
# 
# High freq. dielectric constant tensor:
#      x y z
#    x 1.796760 0.000000 0.000000 
#    y 0.000000 1.756530 0.000000 
#    z 0.000000 0.000000 1.782430 
# 
# From -- ./inp_files/3144.got.cif
#   From: 2010.03.12/outbox.cif.g09.slc.cpg/sg63_2_cif.got.tgz:3144.got - 2010.04.10 19:34:48.
