data_PCOD8260461
_publ_section_title
;
Structure prediction by ZEFSAII (Michael W. Deem and Ramdas Pophale) SiO2 
 PCOD8260461
Probable space group: C M C M
;
_chemical_formula_sum "Si O2"
_cell_formula_units_Z 64
_cell_length_a 20.650129
_cell_length_b 17.837362
_cell_length_c 8.319572
_cell_angle_alpha 90.000000
_cell_angle_beta 90.000000
_cell_angle_gamma 90.000000
_cell_volume 3064.462984
_symmetry_space_group_name_H-M "C M C M"
_symmetry_group_IT_number 63
_symmetry_cell_setting 'orthorhombic'
loop_
_space_group_symop_operation_xyz
x,y,z
-x,-y,1/2+z
x,-y,-z
-x,y,1/2-z
-x,-y,-z
x,y,1/2-z
-x,y,z
x,-y,1/2+z
1/2+x,1/2+y,z
1/2-x,1/2-y,1/2+z
1/2+x,1/2-y,-z
1/2-x,1/2+y,1/2-z
1/2-x,1/2-y,-z
1/2+x,1/2+y,1/2-z
1/2-x,1/2+y,z
1/2+x,1/2-y,1/2+z
loop_
_atom_site_type_symbol
_atom_site_label
_atom_site_fract_x
_atom_site_fract_y
_atom_site_fract_z
Si Si1 0.121502 0.082702 0.437093
Si Si2 0.000000 0.168132 0.566381
Si Si3 0.624958 0.084097 0.940134
Si Si4 0.000000 0.668504 0.937249
Si Si5 0.745158 0.334017 0.440991
O O1 0.104171 0.081801 0.250000
O O2 0.062450 0.118381 0.532770
O O3 0.185298 0.130374 0.466876
O O4 0.134667 0.000000 0.500000
O O5 0.000000 0.242671 0.460500
O O6 0.000000 0.193728 0.750000
O O7 0.622711 0.085465 0.750000
O O8 0.564306 0.130697 0.013239
O O9 0.690889 0.122492 0.999899
O O10 0.621207 0.000000 0.000000
O O11 0.000000 0.651655 0.750000
O O12 0.735297 0.338798 0.250000
O O13 0.750000 0.250000 0.500000
#
# Coordination Sequence:
#
# PCOD8260461 Si02
#       5
#    16   8  16   8  16
#     4  12  25  43  65  91 124 163 205 256 311 370
#     4  12  25  42  65  94 123 158 203 252 307 374
#     4  10  22  38  60  88 122 160 203 251 303 359
#     4  10  21  40  62  90 125 162 202 250 305 362
#     4  11  23  40  62  92 125 164 210 258 311 369
#
# _framework density 20.884574000000001
#
# number of rings (size 3 to 8) (size 9 to 14) (size 15 to 20)
#    0.000    1.000    0.000    7.125    0.000    7.000 
#    0.000    0.000    0.000    0.000    0.000    0.000 
#    0.000    0.000    0.000    0.000    0.000    0.000 
#
# Total GULP energy -396993.604060 kJ/mol
# GULP energy per Si atom -12406.050127 kJ/mol
# Density = 2.083704 g / cm^3
# Si number density = 20.884574 Si / 1000 Ang^3
#
#
#
# Elastic Constant Matrix: (Units=GPa)
#
#
# Indices 1 2 3 4 5 6 
#
# 1 161.2608 55.0062 13.1328 0.0000 0.0000 0.0000
# 2 55.0062 150.3190 -2.7452 0.0000 0.0000 0.0000
# 3 13.1328 -2.7452 46.0732 0.0000 0.0000 0.0000
# 4 0.0000 0.0000 0.0000 38.9541 0.0000 0.0000
# 5 0.0000 0.0000 0.0000 0.0000 6.6726 0.0000
# 6 0.0000 0.0000 0.0000 0.0000 0.0000 -346.3449
#
#
#
# Elastic Compliance Matrix: (Units=1/GPa)
#
#
# Indices 1 2 3 4 5 6 
#
# 1 0.007310 -0.002716 -0.002246 0.000000 0.000000 0.000000
# 2 -0.002716 0.007669 0.001231 0.000000 0.000000 0.000000
# 3 -0.002246 0.001231 0.022418 0.000000 0.000000 0.000000
# 4 0.000000 0.000000 0.000000 0.025671 0.000000 0.000000
# 5 0.000000 0.000000 0.000000 0.000000 0.149867 0.000000
# 6 0.000000 0.000000 0.000000 0.000000 0.000000 -0.002887
#
#
# Mechanical properties :
#
#
# Convention : Reuss Voigt Hill
#
# Bulk Modulus (GPa) = 33.40437 54.27118 43.83777
# Shear Modulus (GPa) = 21.97910 -40.65970 -9.34030
#
# Velocity S-wave (km/s) = 3.24760 -4.41713 -2.11709
# Velocity P-wave (km/s) = 5.48562 0.16718 3.88072
#
# Compressibility (1/GPa) = 0.02993621
#
# Stress axis : x y z
#
# Youngs Moduli (GPa) = 136.78966 130.39645 44.60693
#
# Poissons Ratio (x) = 0.35417 0.10017
# Poissons Ratio (y) = 0.37154 -0.05492
# Poissons Ratio (z) = 0.30718 -0.16054
#
# Static dielectric constant tensor:
#      x y z
#    x 4.189610 0.000000 0.000000 
#    y 0.000000 3.721430 0.000000 
#    z 0.000000 0.000000 3.770830 
# 
# 
# High freq. dielectric constant tensor:
#      x y z
#    x 1.841260 0.000000 0.000000 
#    y 0.000000 1.836260 0.000000 
#    z 0.000000 0.000000 1.815270 
# 
# From -- ./inp_files/9675.got.cif
#   From: 2010.03.12/outbox.cif.g09.slc.cpg/sg63_5_cif.got.tgz:9675.got - 2010.04.10 19:34:48.
