data_PCOD8260561
_publ_section_title
;
Structure prediction by ZEFSAII (Michael W. Deem and Ramdas Pophale) SiO2 
 PCOD8260561
Probable space group: C M C M
;
_chemical_formula_sum "Si O2"
_cell_formula_units_Z 104
_cell_length_a 26.602349
_cell_length_b 21.679364
_cell_length_c 9.242532
_cell_angle_alpha 90.000000
_cell_angle_beta 90.000000
_cell_angle_gamma 90.000000
_cell_volume 5330.371607
_symmetry_space_group_name_H-M "C M C M"
_symmetry_group_IT_number 63
_symmetry_cell_setting 'orthorhombic'
loop_
_space_group_symop_operation_xyz
x,y,z
-x,-y,1/2+z
x,-y,-z
-x,y,1/2-z
-x,-y,-z
x,y,1/2-z
-x,y,z
x,-y,1/2+z
1/2+x,1/2+y,z
1/2-x,1/2-y,1/2+z
1/2+x,1/2-y,-z
1/2-x,1/2+y,1/2-z
1/2-x,1/2-y,-z
1/2+x,1/2+y,1/2-z
1/2-x,1/2+y,z
1/2+x,1/2-y,1/2+z
loop_
_atom_site_type_symbol
_atom_site_label
_atom_site_fract_x
_atom_site_fract_y
_atom_site_fract_z
Si Si1 0.942573 0.814482 0.920287
Si Si2 0.761040 0.811960 0.418414
Si Si3 0.214219 0.579585 0.087952
Si Si4 0.944061 0.322877 0.078396
Si Si5 0.860984 0.118036 0.589731
Si Si6 0.384303 0.057393 0.923770
Si Si7 0.801515 0.000000 0.500000
O O1 0.937206 0.819142 0.750000
O O2 0.926134 0.745421 0.973294
O O3 0.000000 0.827114 0.967864
O O4 0.907226 0.867916 0.984107
O O5 0.745507 0.808145 0.250000
O O6 0.750000 0.750000 0.500000
O O7 0.726268 0.859873 0.498948
O O8 0.818995 0.830172 0.437203
O O9 0.195161 0.595086 0.250000
O O10 0.263470 0.535903 0.107278
O O11 0.170953 0.549917 0.990849
O O12 0.945866 0.323098 0.250000
O O13 0.907665 0.377381 0.024445
O O14 0.000000 0.335847 0.017822
O O15 0.882922 0.123648 0.750000
O O16 0.837771 0.049620 0.575444
O O17 0.383410 0.050275 0.750000
O O18 0.414500 0.000000 0.000000
#
# Coordination Sequence:
#
# PCOD8260561 Si02
#       7
#    16  16  16  16  16  16   8
#     4   9  19  38  63  89 115 149 193 235 287 355
#     4  10  22  38  55  82 118 152 190 236 286 345
#     4  11  22  37  58  80 111 153 195 239 288 343
#     4   8  17  36  59  82 111 149 191 237 289 349
#     4  10  22  38  59  88 117 148 192 244 293 340
#     4  11  22  35  55  83 113 151 197 244 291 344
#     4  10  22  40  61  80 113 158 200 232 286 360
#
# _framework density 19.510833999999999
#
# number of rings (size 3 to 8) (size 9 to 14) (size 15 to 20)
#    0.000    2.154    0.769    2.769    2.154    5.538 
#    0.000    1.154    0.000    3.231    0.000    0.000 
#    0.000    0.000    0.000    0.000    0.000    0.000 
#
# Total GULP energy -644307.166920 kJ/mol
# GULP energy per Si atom -12390.522441 kJ/mol
# Density = 1.946643 g / cm^3
# Si number density = 19.510834 Si / 1000 Ang^3
#
#
#
# Elastic Constant Matrix: (Units=GPa)
#
#
# Indices 1 2 3 4 5 6 
#
# 1 78.3025 58.0301 28.0496 0.0000 0.0000 0.0000
# 2 58.0301 133.5772 42.7328 0.0000 0.0000 0.0000
# 3 28.0496 42.7328 89.0504 0.0000 0.0000 0.0000
# 4 0.0000 0.0000 0.0000 23.8539 0.0000 0.0000
# 5 0.0000 0.0000 0.0000 0.0000 18.7991 0.0000
# 6 0.0000 0.0000 0.0000 0.0000 0.0000 26.9335
#
#
#
# Elastic Compliance Matrix: (Units=1/GPa)
#
#
# Indices 1 2 3 4 5 6 
#
# 1 0.019268 -0.007595 -0.002425 0.000000 0.000000 0.000000
# 2 -0.007595 0.011838 -0.003288 0.000000 0.000000 0.000000
# 3 -0.002425 -0.003288 0.013571 0.000000 0.000000 0.000000
# 4 0.000000 0.000000 0.000000 0.041922 0.000000 0.000000
# 5 0.000000 0.000000 0.000000 0.000000 0.053194 0.000000
# 6 0.000000 0.000000 0.000000 0.000000 0.000000 0.037129
#
#
# Mechanical properties :
#
#
# Convention : Reuss Voigt Hill
#
# Bulk Modulus (GPa) = 55.36652 62.06166 58.71409
# Shear Modulus (GPa) = 23.85975 25.39181 24.62578
#
# Velocity S-wave (km/s) = 3.50079 3.61144 3.55654
# Velocity P-wave (km/s) = 6.69176 7.01910 6.85738
#
# Compressibility (1/GPa) = 0.01806146
#
# Stress axis : x y z
#
# Youngs Moduli (GPa) = 51.89883 84.47507 73.68514
#
# Poissons Ratio (x) = 0.64160 0.17865
# Poissons Ratio (y) = 0.39418 0.24230
# Poissons Ratio (z) = 0.12583 0.27778
#
# Static dielectric constant tensor:
#      x y z
#    x 3.495600 0.000000 0.000000 
#    y 0.000000 3.740980 0.000000 
#    z 0.000000 0.000000 3.446590 
# 
# 
# High freq. dielectric constant tensor:
#      x y z
#    x 1.745730 0.000000 0.000000 
#    y 0.000000 1.772960 0.000000 
#    z 0.000000 0.000000 1.746180 
# 
# From -- ./inp_files/12500.got.cif
#   From: 2010.03.12/outbox.cif.g09.slc.cpg/sg63_7_cif.got.tgz:12500.got - 2010.04.10 19:34:48.
