data_PCOD8260710
_publ_section_title
;
Structure prediction by ZEFSAII (Michael W. Deem and Ramdas Pophale) SiO2 
 PCOD8260710
Probable space group: C M C M
;
_chemical_formula_sum "Si O2"
_cell_formula_units_Z 64
_cell_length_a 13.715415
_cell_length_b 7.402870
_cell_length_c 22.142879
_cell_angle_alpha 90.000000
_cell_angle_beta 90.000000
_cell_angle_gamma 90.000000
_cell_volume 2248.242549
_symmetry_space_group_name_H-M "C M C M"
_symmetry_group_IT_number 63
_symmetry_cell_setting 'orthorhombic'
loop_
_space_group_symop_operation_xyz
x,y,z
-x,-y,1/2+z
x,-y,-z
-x,y,1/2-z
-x,-y,-z
x,y,1/2-z
-x,y,z
x,-y,1/2+z
1/2+x,1/2+y,z
1/2-x,1/2-y,1/2+z
1/2+x,1/2-y,-z
1/2-x,1/2+y,1/2-z
1/2-x,1/2-y,-z
1/2+x,1/2+y,1/2-z
1/2-x,1/2+y,z
1/2+x,1/2-y,1/2+z
loop_
_atom_site_type_symbol
_atom_site_label
_atom_site_fract_x
_atom_site_fract_y
_atom_site_fract_z
Si Si1 0.390282 0.221692 0.511255
Si Si2 0.387876 0.561053 0.598586
Si Si3 0.726538 0.680399 0.179475
Si Si4 0.114499 0.497137 0.120965
O O1 0.500000 0.193863 0.489751
O O2 0.385242 0.376907 0.560785
O O3 0.340927 0.282243 0.447221
O O4 0.356507 0.040031 0.549537
O O5 0.500000 0.603740 0.617617
O O6 0.317698 0.514538 0.656084
O O7 0.742656 0.662136 0.250000
O O8 0.834956 0.684323 0.146014
O O9 0.652434 0.839324 0.164632
O O10 0.000000 0.509407 0.129880
#
# Coordination Sequence:
#
# PCOD8260710 Si02
#       4
#    16  16  16  16
#     4   7  12  27  52  79 106 141 183 227 283 335
#     4   8  14  27  50  81 113 142 182 234 277 329
#     4  11  22  35  56  85 114 153 197 227 277 348
#     4  10  22  41  62  84 115 150 188 241 288 329
#
# _framework density 28.46668
#
# number of rings (size 3 to 8) (size 9 to 14) (size 15 to 20)
#    0.000    3.000    0.000    4.500    0.000    4.500 
#    0.000    2.500    0.000    6.000    0.000   19.250 
#    0.000    0.000    0.000    0.000    0.000    0.000 
#
# Total GULP energy -396506.255297 kJ/mol
# GULP energy per Si atom -12390.820478 kJ/mol
# Density = 2.840189 g / cm^3
# Si number density = 28.466680 Si / 1000 Ang^3
#
#
#
# Elastic Constant Matrix: (Units=GPa)
#
#
# Indices 1 2 3 4 5 6 
#
# 1 153.0544 37.2905 70.7321 0.0000 0.0000 0.0000
# 2 37.2905 129.4275 35.5154 0.0000 0.0000 0.0000
# 3 70.7321 35.5154 248.3634 0.0000 0.0000 0.0000
# 4 0.0000 0.0000 0.0000 37.2944 0.0000 0.0000
# 5 0.0000 0.0000 0.0000 0.0000 -8.0024 0.0000
# 6 0.0000 0.0000 0.0000 0.0000 0.0000 -41.7751
#
#
#
# Elastic Compliance Matrix: (Units=1/GPa)
#
#
# Indices 1 2 3 4 5 6 
#
# 1 0.007876 -0.001721 -0.001997 0.000000 0.000000 0.000000
# 2 -0.001721 0.008418 -0.000714 0.000000 0.000000 0.000000
# 3 -0.001997 -0.000714 0.004697 0.000000 0.000000 0.000000
# 4 0.000000 0.000000 0.000000 0.026814 0.000000 0.000000
# 5 0.000000 0.000000 0.000000 0.000000 -0.124962 0.000000
# 6 0.000000 0.000000 0.000000 0.000000 0.000000 -0.023938
#
#
# Mechanical properties :
#
#
# Convention : Reuss Voigt Hill
#
# Bulk Modulus (GPa) = 82.45605 90.88013 86.66809
# Shear Modulus (GPa) = -56.69616 23.32387 -16.68614
#
# Velocity S-wave (km/s) = -4.46765 2.86552 -2.42371
# Velocity P-wave (km/s) = 1.55418 6.55306 4.76225
#
# Compressibility (1/GPa) = 0.01212767
#
# Stress axis : x y z
#
# Youngs Moduli (GPa) = 126.97125 118.79224 212.89815
#
# Poissons Ratio (x) = 0.20447 0.42512
# Poissons Ratio (y) = 0.21855 0.15192
# Poissons Ratio (z) = 0.25354 0.08477
#
# Static dielectric constant tensor:
#      x y z
#    x 5.316430 0.000000 0.000000 
#    y 0.000000 6.907580 0.000000 
#    z 0.000000 0.000000 5.233480 
# 
# 
# High freq. dielectric constant tensor:
#      x y z
#    x 2.139840 0.000000 0.000000 
#    y 0.000000 2.239210 0.000000 
#    z 0.000000 0.000000 2.151230 
# 
# From -- ./inp_files/63433.got.cif
#   From: 2010.03.12/outbox.cif.g09.slc.cpg/sg63_32_cif.got.tgz:63433.got - 2010.04.10 19:34:48.
