data_PCOD8260951
_publ_section_title
;
Structure prediction by ZEFSAII (Michael W. Deem and Ramdas Pophale) SiO2 
 PCOD8260951
Probable space group: C M C M
;
_chemical_formula_sum "Si O2"
_cell_formula_units_Z 96
_cell_length_a 20.300163
_cell_length_b 11.769303
_cell_length_c 20.601333
_cell_angle_alpha 90.000000
_cell_angle_beta 90.000000
_cell_angle_gamma 90.000000
_cell_volume 4922.045126
_symmetry_space_group_name_H-M "C M C M"
_symmetry_group_IT_number 63
_symmetry_cell_setting 'orthorhombic'
loop_
_space_group_symop_operation_xyz
x,y,z
-x,-y,1/2+z
x,-y,-z
-x,y,1/2-z
-x,-y,-z
x,y,1/2-z
-x,y,z
x,-y,1/2+z
1/2+x,1/2+y,z
1/2-x,1/2-y,1/2+z
1/2+x,1/2-y,-z
1/2-x,1/2+y,1/2-z
1/2-x,1/2-y,-z
1/2+x,1/2+y,1/2-z
1/2-x,1/2+y,z
1/2+x,1/2-y,1/2+z
loop_
_atom_site_type_symbol
_atom_site_label
_atom_site_fract_x
_atom_site_fract_y
_atom_site_fract_z
Si Si1 0.219180 0.331841 0.325610
Si Si2 0.070550 0.929455 0.176060
Si Si3 0.644714 0.255988 0.113079
Si Si4 0.574038 0.634642 0.495682
Si Si5 0.202908 0.469903 0.924347
Si Si6 0.659012 0.620087 0.379825
O O1 0.223630 0.372674 0.250000
O O2 0.288902 0.300585 0.355001
O O3 0.190385 0.428318 0.373480
O O4 0.174063 0.218846 0.327797
O O5 0.058715 0.951434 0.250000
O O6 0.087941 0.796338 0.163318
O O7 0.000000 0.956757 0.140394
O O8 0.130354 0.008468 0.153929
O O9 0.626751 0.321662 0.047404
O O10 0.648317 0.122601 0.098079
O O11 0.572723 0.500000 0.500000
O O12 0.500000 0.685136 0.503901
O O13 0.603913 0.672574 0.427027
O O14 0.275602 0.416646 0.918853
O O15 0.190443 0.500000 0.000000
#
# Coordination Sequence:
#
# PCOD8260951 Si02
#       6
#    16  16  16  16  16  16
#     4  11  23  38  60  88 124 167 208 255 314 378
#     4  11  22  37  58  85 119 155 196 249 303 359
#     4  11  22  37  58  87 123 154 201 250 303 368
#     4  11  20  34  59  88 118 152 194 250 311 366
#     4  11  23  39  60  88 124 163 201 253 312 365
#     4  11  21  36  59  89 121 154 198 254 308 374
#
# _framework density 19.504087999999999
#
# number of rings (size 3 to 8) (size 9 to 14) (size 15 to 20)
#    0.000    1.000    3.333    4.500    0.000    6.000 
#    0.000    0.000    0.000   11.000    0.000    2.333 
#    0.000    0.000    0.000    0.000    0.000    0.000 
#
# Total GULP energy -594701.832872 kJ/mol
# GULP energy per Si atom -12389.621518 kJ/mol
# Density = 1.945970 g / cm^3
# Si number density = 19.504088 Si / 1000 Ang^3
#
#
#
# Elastic Constant Matrix: (Units=GPa)
#
#
# Indices 1 2 3 4 5 6 
#
# 1 77.4513 39.8026 39.6333 0.0000 0.0000 0.0000
# 2 39.8026 103.8228 46.3065 0.0000 0.0000 0.0000
# 3 39.6333 46.3065 121.7941 0.0000 0.0000 0.0000
# 4 0.0000 0.0000 0.0000 30.0377 0.0000 0.0000
# 5 0.0000 0.0000 0.0000 0.0000 -2.9194 0.0000
# 6 0.0000 0.0000 0.0000 0.0000 0.0000 29.5558
#
#
#
# Elastic Compliance Matrix: (Units=1/GPa)
#
#
# Indices 1 2 3 4 5 6 
#
# 1 0.017404 -0.004993 -0.003765 0.000000 0.000000 0.000000
# 2 -0.004993 0.013031 -0.003330 0.000000 0.000000 0.000000
# 3 -0.003765 -0.003330 0.010702 0.000000 0.000000 0.000000
# 4 0.000000 0.000000 0.000000 0.033292 0.000000 0.000000
# 5 0.000000 0.000000 0.000000 0.000000 -0.342530 0.000000
# 6 0.000000 0.000000 0.000000 0.000000 0.000000 0.033834
#
#
# Mechanical properties :
#
#
# Convention : Reuss Voigt Hill
#
# Bulk Modulus (GPa) = 58.95776 61.61699 60.28738
# Shear Modulus (GPa) = -24.45719 23.15652 -0.65034
#
# Velocity S-wave (km/s) = -3.54496 3.44941 -0.57807
# Velocity P-wave (km/s) = 3.67945 6.89384 5.52555
#
# Compressibility (1/GPa) = 0.01696130
#
# Stress axis : x y z
#
# Youngs Moduli (GPa) = 57.45848 76.74021 93.44248
#
# Poissons Ratio (x) = 0.38315 0.35183
# Poissons Ratio (y) = 0.28688 0.31113
# Poissons Ratio (z) = 0.21634 0.25552
#
# Static dielectric constant tensor:
#      x y z
#    x -2.215360 0.000000 0.000000 
#    y 0.000000 3.815830 0.000000 
#    z 0.000000 0.000000 3.754690 
# 
# 
# High freq. dielectric constant tensor:
#      x y z
#    x 1.752940 0.000000 0.000000 
#    y 0.000000 1.742790 0.000000 
#    z 0.000000 0.000000 1.771790 
# 
# From -- ./inp_files/56527.got.cif
#   From: 2010.03.12/outbox.cif.g09.slc.cpg/sg63_29_cif.got.tgz:56527.got - 2010.04.10 19:34:48.
