data_PCOD8260458
_publ_section_title
;
Structure prediction by ZEFSAII (Michael W. Deem and Ramdas Pophale) SiO2 
 PCOD8260458
Probable space group: C M C M
;
_chemical_formula_sum "Si O2"
_cell_formula_units_Z 96
_cell_length_a 29.596597
_cell_length_b 9.741600
_cell_length_c 17.079082
_cell_angle_alpha 90.000000
_cell_angle_beta 90.000000
_cell_angle_gamma 90.000000
_cell_volume 4924.210339
_symmetry_space_group_name_H-M "C M C M"
_symmetry_group_IT_number 63
_symmetry_cell_setting 'orthorhombic'
loop_
_space_group_symop_operation_xyz
x,y,z
-x,-y,1/2+z
x,-y,-z
-x,y,1/2-z
-x,-y,-z
x,y,1/2-z
-x,y,z
x,-y,1/2+z
1/2+x,1/2+y,z
1/2-x,1/2-y,1/2+z
1/2+x,1/2-y,-z
1/2-x,1/2+y,1/2-z
1/2-x,1/2-y,-z
1/2+x,1/2+y,1/2-z
1/2-x,1/2+y,z
1/2+x,1/2-y,1/2+z
loop_
_atom_site_type_symbol
_atom_site_label
_atom_site_fract_x
_atom_site_fract_y
_atom_site_fract_z
Si Si1 0.720095 0.930127 0.085724
Si Si2 0.371511 0.145233 0.838926
Si Si3 0.949273 0.848075 0.898151
Si Si4 0.383312 0.167538 0.163723
Si Si5 0.950496 0.149015 0.917041
Si Si6 0.780155 0.709053 0.339941
O O1 0.672551 0.854313 0.105236
O O2 0.757464 0.811599 0.097277
O O3 0.733718 0.050593 0.146080
O O4 0.719297 0.000000 0.000000
O O5 0.356819 0.183007 0.750000
O O6 0.410522 0.248718 0.866190
O O7 0.391763 0.993939 0.841988
O O8 0.000000 0.806255 0.867547
O O9 0.937415 0.005150 0.874583
O O10 0.950339 0.855559 0.990499
O O11 0.395582 0.220239 0.250000
O O12 0.415736 0.233263 0.101658
O O13 0.333102 0.214811 0.142476
O O14 0.000000 0.191918 0.886950
O O15 0.768041 0.747350 0.250000
#
# Coordination Sequence:
#
# PCOD8260458 Si02
#       6
#    16  16  16  16  16  16
#     4  11  23  39  61  90 119 151 202 247 294 348
#     4  10  22  38  58  85 118 154 193 241 297 350
#     4   9  20  37  57  82 113 151 192 240 293 346
#     4   9  20  36  55  81 114 152 191 236 292 348
#     4   9  19  37  57  82 115 150 192 240 292 346
#     4  10  21  40  60  82 120 159 193 239 297 357
#
# _framework density 19.495512999999999
#
# number of rings (size 3 to 8) (size 9 to 14) (size 15 to 20)
#    0.000    2.333    0.000    4.000    4.667    3.333 
#    3.000    6.667    0.000    0.000    0.000    0.000 
#    0.000    0.000    0.000    0.000    0.000    0.000 
#
# Total GULP energy -594811.702763 kJ/mol
# GULP energy per Si atom -12391.910474 kJ/mol
# Density = 1.945114 g / cm^3
# Si number density = 19.495513 Si / 1000 Ang^3
#
#
#
# Elastic Constant Matrix: (Units=GPa)
#
#
# Indices 1 2 3 4 5 6 
#
# 1 84.8985 59.9186 40.1223 0.0000 0.0000 0.0000
# 2 59.9186 76.6754 32.2470 0.0000 0.0000 0.0000
# 3 40.1223 32.2470 65.4464 0.0000 0.0000 0.0000
# 4 0.0000 0.0000 0.0000 29.4254 0.0000 0.0000
# 5 0.0000 0.0000 0.0000 0.0000 26.4507 0.0000
# 6 0.0000 0.0000 0.0000 0.0000 0.0000 41.6154
#
#
#
# Elastic Compliance Matrix: (Units=1/GPa)
#
#
# Indices 1 2 3 4 5 6 
#
# 1 0.029601 -0.019551 -0.008514 0.000000 0.000000 0.000000
# 2 -0.019551 0.029365 -0.002483 0.000000 0.000000 0.000000
# 3 -0.008514 -0.002483 0.021722 0.000000 0.000000 0.000000
# 4 0.000000 0.000000 0.000000 0.033984 0.000000 0.000000
# 5 0.000000 0.000000 0.000000 0.000000 0.037806 0.000000
# 6 0.000000 0.000000 0.000000 0.000000 0.000000 0.024030
#
#
# Mechanical properties :
#
#
# Convention : Reuss Voigt Hill
#
# Bulk Modulus (GPa) = 51.03941 54.62179 52.83060
# Shear Modulus (GPa) = 20.48058 25.81380 23.14719
#
# Velocity S-wave (km/s) = 3.24470 3.64275 3.44947
# Velocity P-wave (km/s) = 6.34621 6.76545 6.55918
#
# Compressibility (1/GPa) = 0.01959270
#
# Stress axis : x y z
#
# Youngs Moduli (GPa) = 33.78275 34.05456 46.03578
#
# Poissons Ratio (x) = 0.66581 0.39193
# Poissons Ratio (y) = 0.66050 0.11429
# Poissons Ratio (z) = 0.28761 0.08454
#
# Static dielectric constant tensor:
#      x y z
#    x 3.541050 0.000000 0.000000 
#    y 0.000000 3.775840 0.000000 
#    z 0.000000 0.000000 3.572880 
# 
# 
# High freq. dielectric constant tensor:
#      x y z
#    x 1.757270 0.000000 0.000000 
#    y 0.000000 1.761130 0.000000 
#    z 0.000000 0.000000 1.757290 
# 
# From -- ./inp_files/58051.got.cif
#   From: 2010.03.12/outbox.cif.g09.slc.cpg/sg63_30_cif.got.tgz:58051.got - 2010.04.10 19:34:48.
