data_PCOD8260709
_publ_section_title
;
Structure prediction by ZEFSAII (Michael W. Deem and Ramdas Pophale) SiO2 
 PCOD8260709
Probable space group: C M C M
;
_chemical_formula_sum "Si O2"
_cell_formula_units_Z 96
_cell_length_a 23.344749
_cell_length_b 23.826510
_cell_length_c 8.946676
_cell_angle_alpha 90.000000
_cell_angle_beta 90.000000
_cell_angle_gamma 90.000000
_cell_volume 4976.354976
_symmetry_space_group_name_H-M "C M C M"
_symmetry_group_IT_number 63
_symmetry_cell_setting 'orthorhombic'
loop_
_space_group_symop_operation_xyz
x,y,z
-x,-y,1/2+z
x,-y,-z
-x,y,1/2-z
-x,-y,-z
x,y,1/2-z
-x,y,z
x,-y,1/2+z
1/2+x,1/2+y,z
1/2-x,1/2-y,1/2+z
1/2+x,1/2-y,-z
1/2-x,1/2+y,1/2-z
1/2-x,1/2-y,-z
1/2+x,1/2+y,1/2-z
1/2-x,1/2+y,z
1/2+x,1/2-y,1/2+z
loop_
_atom_site_type_symbol
_atom_site_label
_atom_site_fract_x
_atom_site_fract_y
_atom_site_fract_z
Si Si1 0.630505 0.269949 0.579118
Si Si2 0.664239 0.442808 0.425508
Si Si3 0.768191 0.847638 0.922237
Si Si4 0.066056 0.441485 0.074270
Si Si5 0.565143 0.382222 0.576171
Si Si6 0.134921 0.658060 0.076618
O O1 0.625345 0.250109 0.750000
O O2 0.695352 0.291131 0.544482
O O3 0.586362 0.319508 0.542387
O O4 0.611164 0.218106 0.476278
O O5 0.685008 0.500000 0.500000
O O6 0.663042 0.450292 0.250000
O O7 0.710322 0.396326 0.469934
O O8 0.600933 0.426990 0.482001
O O9 0.778682 0.865490 0.750000
O O10 0.702137 0.838949 0.958537
O O11 0.075638 0.447024 0.250000
O O12 0.000000 0.427955 0.034925
O O13 0.085138 0.500000 0.000000
O O14 0.105603 0.392045 0.012901
O O15 0.573371 0.396396 0.750000
O O16 0.500000 0.387402 0.524312
O O17 0.121397 0.649218 0.250000
#
# Coordination Sequence:
#
# PCOD8260709 Si02
#       6
#    16  16  16  16  16  16
#     4   9  18  34  55  80 113 148 181 221 270 321
#     4  11  22  36  56  80 108 143 183 228 276 324
#     4   9  20  38  56  78 111 147 182 223 272 322
#     4  10  22  41  62  82 108 142 179 222 272 323
#     4   9  19  37  58  79 108 146 185 227 275 323
#     4  11  22  35  57  87 114 143 181 222 265 321
#
# _framework density 19.291228
#
# number of rings (size 3 to 8) (size 9 to 14) (size 15 to 20)
#    0.000    2.167    0.000    4.000    0.000    7.000 
#    0.000    1.667    0.000    0.000    0.000    0.000 
#    0.000    0.000    0.000    0.000    0.000    0.000 
#
# Total GULP energy -595316.304417 kJ/mol
# GULP energy per Si atom -12402.423009 kJ/mol
# Density = 1.924732 g / cm^3
# Si number density = 19.291228 Si / 1000 Ang^3
#
#
#
# Elastic Constant Matrix: (Units=GPa)
#
#
# Indices 1 2 3 4 5 6 
#
# 1 27.8639 4.6976 16.3298 0.0000 0.0000 0.0000
# 2 4.6976 99.5956 45.7583 0.0000 0.0000 0.0000
# 3 16.3298 45.7583 95.3895 0.0000 0.0000 0.0000
# 4 0.0000 0.0000 0.0000 40.8661 0.0000 0.0000
# 5 0.0000 0.0000 0.0000 0.0000 29.3149 0.0000
# 6 0.0000 0.0000 0.0000 0.0000 0.0000 17.9424
#
#
#
# Elastic Compliance Matrix: (Units=1/GPa)
#
#
# Indices 1 2 3 4 5 6 
#
# 1 0.040093 0.001619 -0.007640 0.000000 0.000000 0.000000
# 2 0.001619 0.012944 -0.006487 0.000000 0.000000 0.000000
# 3 -0.007640 -0.006487 0.014903 0.000000 0.000000 0.000000
# 4 0.000000 0.000000 0.000000 0.024470 0.000000 0.000000
# 5 0.000000 0.000000 0.000000 0.000000 0.034112 0.000000
# 6 0.000000 0.000000 0.000000 0.000000 0.000000 0.055734
#
#
# Mechanical properties :
#
#
# Convention : Reuss Voigt Hill
#
# Bulk Modulus (GPa) = 23.29632 39.60229 31.44930
# Shear Modulus (GPa) = 22.56510 28.02891 25.29701
#
# Velocity S-wave (km/s) = 3.42381 3.81587 3.62515
# Velocity P-wave (km/s) = 5.26615 6.32359 5.81894
#
# Compressibility (1/GPa) = 0.04292524
#
# Stress axis : x y z
#
# Youngs Moduli (GPa) = 24.94172 77.25306 67.10085
#
# Poissons Ratio (x) = -0.12509 0.51268
# Poissons Ratio (y) = -0.04039 0.43526
# Poissons Ratio (z) = 0.19056 0.50111
#
# Static dielectric constant tensor:
#      x y z
#    x 3.539260 0.000000 0.000000 
#    y 0.000000 3.458550 0.000000 
#    z 0.000000 0.000000 3.477190 
# 
# 
# High freq. dielectric constant tensor:
#      x y z
#    x 1.747120 0.000000 0.000000 
#    y 0.000000 1.754550 0.000000 
#    z 0.000000 0.000000 1.752340 
# 
# From -- ./inp_files/10498.got.cif
#   From: 2010.03.12/outbox.cif.g09.slc.cpg/sg63_6_cif.got.tgz:10498.got - 2010.04.10 19:34:48.
