data_PCOD8260860
_publ_section_title
;
Structure prediction by ZEFSAII (Michael W. Deem and Ramdas Pophale) SiO2 
 PCOD8260860
Probable space group: C M C M
;
_chemical_formula_sum "Si O2"
_cell_formula_units_Z 88
_cell_length_a 22.385298
_cell_length_b 8.841713
_cell_length_c 20.699625
_cell_angle_alpha 90.000000
_cell_angle_beta 90.000000
_cell_angle_gamma 90.000000
_cell_volume 4096.960451
_symmetry_space_group_name_H-M "C M C M"
_symmetry_group_IT_number 63
_symmetry_cell_setting 'orthorhombic'
loop_
_space_group_symop_operation_xyz
x,y,z
-x,-y,1/2+z
x,-y,-z
-x,y,1/2-z
-x,-y,-z
x,y,1/2-z
-x,y,z
x,-y,1/2+z
1/2+x,1/2+y,z
1/2-x,1/2-y,1/2+z
1/2+x,1/2-y,-z
1/2-x,1/2+y,1/2-z
1/2-x,1/2-y,-z
1/2+x,1/2+y,1/2-z
1/2-x,1/2+y,z
1/2+x,1/2-y,1/2+z
loop_
_atom_site_type_symbol
_atom_site_label
_atom_site_fract_x
_atom_site_fract_y
_atom_site_fract_z
Si Si1 0.906532 0.953301 0.750000
Si Si2 0.705502 0.246345 0.323363
Si Si3 0.628901 0.067937 0.088770
Si Si4 0.816644 0.060956 0.363445
Si Si5 0.817445 0.276662 0.025075
Si Si6 0.500000 0.801353 0.250000
Si Si7 0.000000 0.787620 0.250000
Si Si8 0.000000 0.542191 0.140403
O O1 0.872503 0.949883 0.682924
O O2 0.942127 0.799421 0.750000
O O3 0.942148 0.108751 0.750000
O O4 0.693621 0.300437 0.250000
O O5 0.653092 0.129791 0.342825
O O6 0.768808 0.167100 0.328821
O O7 0.708325 0.390672 0.371250
O O8 0.558569 0.033218 0.094578
O O9 0.670911 0.925919 0.069317
O O10 0.638647 0.201871 0.036083
O O11 0.834956 0.128357 0.433240
O O12 0.750000 0.250000 0.000000
O O13 0.500000 0.897164 0.185206
O O14 0.000000 0.691237 0.315684
#
# Coordination Sequence:
#
# PCOD8260860 Si02
#       8
#     8  16  16  16  16   4   4   8
#     4  11  22  44  66 102 138 189 226 306 352 433
#     4  12  24  41  65 107 138 185 224 292 357 429
#     4  11  26  45  74 100 142 190 242 289 352 419
#     4  12  24  40  67  99 145 181 235 286 362 429
#     4  11  25  45  67 102 141 189 232 290 353 425
#     4  10  24  38  70  96 140 178 242 282 364 416
#     4  10  24  46  72  98 144 184 240 288 370 416
#     4  11  24  47  71 105 132 188 245 298 334 426
#
# _framework density 21.479337999999998
#
# number of rings (size 3 to 8) (size 9 to 14) (size 15 to 20)
#    0.000    0.727    3.636    3.273    5.091    2.182 
#    1.636    1.818    0.000    2.182    0.000    0.000 
#    0.000    0.000    0.000    0.000    0.000    0.000 
#
# Total GULP energy -545504.557241 kJ/mol
# GULP energy per Si atom -12397.830846 kJ/mol
# Density = 2.143045 g / cm^3
# Si number density = 21.479338 Si / 1000 Ang^3
#
#
#
# Elastic Constant Matrix: (Units=GPa)
#
#
# Indices 1 2 3 4 5 6 
#
# 1 142.5244 60.7360 45.2958 0.0000 0.0000 0.0000
# 2 60.7360 134.8927 43.4079 0.0000 0.0000 0.0000
# 3 45.2958 43.4079 94.4421 0.0000 0.0000 0.0000
# 4 0.0000 0.0000 0.0000 37.7411 0.0000 0.0000
# 5 0.0000 0.0000 0.0000 0.0000 48.3501 0.0000
# 6 0.0000 0.0000 0.0000 0.0000 0.0000 34.9189
#
#
#
# Elastic Compliance Matrix: (Units=1/GPa)
#
#
# Indices 1 2 3 4 5 6 
#
# 1 0.009351 -0.003248 -0.002992 0.000000 0.000000 0.000000
# 2 -0.003248 0.009828 -0.002960 0.000000 0.000000 0.000000
# 3 -0.002992 -0.002960 0.013384 0.000000 0.000000 0.000000
# 4 0.000000 0.000000 0.000000 0.026496 0.000000 0.000000
# 5 0.000000 0.000000 0.000000 0.000000 0.020682 0.000000
# 6 0.000000 0.000000 0.000000 0.000000 0.000000 0.028638
#
#
# Mechanical properties :
#
#
# Convention : Reuss Voigt Hill
#
# Bulk Modulus (GPa) = 70.60050 74.52650 72.56350
# Shear Modulus (GPa) = 38.02283 39.03001 38.52642
#
# Velocity S-wave (km/s) = 4.21194 4.26736 4.23975
# Velocity P-wave (km/s) = 7.52292 7.68457 7.60418
#
# Compressibility (1/GPa) = 0.01416421
#
# Stress axis : x y z
#
# Youngs Moduli (GPa) = 106.93749 101.75129 74.71622
#
# Poissons Ratio (x) = 0.33044 0.22358
# Poissons Ratio (y) = 0.34728 0.22113
# Poissons Ratio (z) = 0.32000 0.30114
#
# Static dielectric constant tensor:
#      x y z
#    x 3.779830 0.000000 0.000000 
#    y 0.000000 4.195380 0.000000 
#    z 0.000000 0.000000 4.174410 
# 
# 
# High freq. dielectric constant tensor:
#      x y z
#    x 1.833980 0.000000 0.000000 
#    y 0.000000 1.857710 0.000000 
#    z 0.000000 0.000000 1.852050 
# 
# From -- ./inp_files/57423.got.cif
#   From: 2010.03.12/outbox.cif.g09.slc.cpg/sg63_29_cif.got.tgz:57423.got - 2010.04.10 19:34:48.
