data_PCOD8260372
_publ_section_title
;
Structure prediction by ZEFSAII (Michael W. Deem and Ramdas Pophale) SiO2 
 PCOD8260372
Probable space group: C M C M
;
_chemical_formula_sum "Si O2"
_cell_formula_units_Z 88
_cell_length_a 31.664928
_cell_length_b 8.233779
_cell_length_c 16.630189
_cell_angle_alpha 90.000000
_cell_angle_beta 90.000000
_cell_angle_gamma 90.000000
_cell_volume 4335.856456
_symmetry_space_group_name_H-M "C M C M"
_symmetry_group_IT_number 63
_symmetry_cell_setting 'orthorhombic'
loop_
_space_group_symop_operation_xyz
x,y,z
-x,-y,1/2+z
x,-y,-z
-x,y,1/2-z
-x,-y,-z
x,y,1/2-z
-x,y,z
x,-y,1/2+z
1/2+x,1/2+y,z
1/2-x,1/2-y,1/2+z
1/2+x,1/2-y,-z
1/2-x,1/2+y,1/2-z
1/2-x,1/2-y,-z
1/2+x,1/2+y,1/2-z
1/2-x,1/2+y,z
1/2+x,1/2-y,1/2+z
loop_
_atom_site_type_symbol
_atom_site_label
_atom_site_fract_x
_atom_site_fract_y
_atom_site_fract_z
Si Si1 0.772266 0.137286 0.839247
Si Si2 0.951683 0.668570 0.547270
Si Si3 0.145331 0.050789 0.340074
Si Si4 0.592240 0.500000 0.000000
Si Si5 0.120309 0.592665 0.838994
Si Si6 0.801716 0.453970 0.910038
O O1 0.774079 0.213419 0.750000
O O2 0.805781 0.993024 0.849820
O O3 0.786069 0.271230 0.902771
O O4 0.725454 0.070817 0.853090
O O5 0.946763 0.500000 0.500000
O O6 0.934924 0.832141 0.502529
O O7 0.925907 0.633107 0.627901
O O8 0.000000 0.701928 0.570283
O O9 0.128298 0.993152 0.250000
O O10 0.118713 0.982946 0.416620
O O11 0.147013 0.243541 0.341764
O O12 0.114225 0.522035 0.750000
O O13 0.148231 0.463581 0.889191
O O14 0.793128 0.500000 0.000000
#
# Coordination Sequence:
#
# PCOD8260372 Si02
#       6
#    16  16  16   8  16  16
#     4  11  23  39  57  82 119 162 202 250 303 363
#     4  10  22  40  63  92 122 156 201 254 314 380
#     4   9  21  37  59  88 119 160 206 251 303 366
#     4  10  21  38  68  88 128 164 204 250 319 370
#     4  10  21  39  60  85 118 158 201 252 307 367
#     4  12  25  37  58  86 118 156 206 253 308 367
#
# _framework density 20.295874000000001
#
# number of rings (size 3 to 8) (size 9 to 14) (size 15 to 20)
#    0.000    1.636    0.000    4.091    8.909    1.818 
#    0.000    0.000    0.000    2.727    0.000    0.000 
#    0.000    0.000    0.000    0.000    0.000    0.000 
#
# Total GULP energy -545285.608641 kJ/mol
# GULP energy per Si atom -12392.854742 kJ/mol
# Density = 2.024968 g / cm^3
# Si number density = 20.295874 Si / 1000 Ang^3
#
#
#
# Elastic Constant Matrix: (Units=GPa)
#
#
# Indices 1 2 3 4 5 6 
#
# 1 110.4777 19.0780 43.0789 0.0000 0.0000 0.0000
# 2 19.0780 61.6262 21.3882 0.0000 0.0000 0.0000
# 3 43.0789 21.3882 108.6911 0.0000 0.0000 0.0000
# 4 0.0000 0.0000 0.0000 21.4275 0.0000 0.0000
# 5 0.0000 0.0000 0.0000 0.0000 25.0663 0.0000
# 6 0.0000 0.0000 0.0000 0.0000 0.0000 29.9193
#
#
#
# Elastic Compliance Matrix: (Units=1/GPa)
#
#
# Indices 1 2 3 4 5 6 
#
# 1 0.010935 -0.002019 -0.003937 0.000000 0.000000 0.000000
# 2 -0.002019 0.017789 -0.002700 0.000000 0.000000 0.000000
# 3 -0.003937 -0.002700 0.011292 0.000000 0.000000 0.000000
# 4 0.000000 0.000000 0.000000 0.046669 0.000000 0.000000
# 5 0.000000 0.000000 0.000000 0.000000 0.039894 0.000000
# 6 0.000000 0.000000 0.000000 0.000000 0.000000 0.033423
#
#
# Mechanical properties :
#
#
# Convention : Reuss Voigt Hill
#
# Bulk Modulus (GPa) = 44.04470 49.76504 46.90487
# Shear Modulus (GPa) = 27.04405 28.43259 27.73832
#
# Velocity S-wave (km/s) = 3.65429 3.74693 3.70090
# Velocity P-wave (km/s) = 6.28916 6.57969 6.43606
#
# Compressibility (1/GPa) = 0.02270421
#
# Stress axis : x y z
#
# Youngs Moduli (GPa) = 91.44648 56.21427 88.55756
#
# Poissons Ratio (x) = 0.11350 0.34864
# Poissons Ratio (y) = 0.18463 0.23913
# Poissons Ratio (z) = 0.36001 0.15180
#
# Static dielectric constant tensor:
#      x y z
#    x 3.658110 0.000000 0.000000 
#    y 0.000000 3.712970 0.000000 
#    z 0.000000 0.000000 3.861170 
# 
# 
# High freq. dielectric constant tensor:
#      x y z
#    x 1.785590 0.000000 0.000000 
#    y 0.000000 1.797740 0.000000 
#    z 0.000000 0.000000 1.797350 
# 
# From -- ./inp_files/49489.got.cif
#   From: 2010.03.12/outbox.cif.g09.slc.cpg/sg63_25_cif.got.tgz:49489.got - 2010.04.10 19:34:48.
