data_PCOD8260105
_publ_section_title
;
Structure prediction by ZEFSAII (Michael W. Deem and Ramdas Pophale) SiO2 
 PCOD8260105
Probable space group: C M C M
;
_chemical_formula_sum "Si O2"
_cell_formula_units_Z 80
_cell_length_a 17.679651
_cell_length_b 10.147066
_cell_length_c 22.219807
_cell_angle_alpha 90.000000
_cell_angle_beta 90.000000
_cell_angle_gamma 90.000000
_cell_volume 3986.157507
_symmetry_space_group_name_H-M "C M C M"
_symmetry_group_IT_number 63
_symmetry_cell_setting 'orthorhombic'
loop_
_space_group_symop_operation_xyz
x,y,z
-x,-y,1/2+z
x,-y,-z
-x,y,1/2-z
-x,-y,-z
x,y,1/2-z
-x,y,z
x,-y,1/2+z
1/2+x,1/2+y,z
1/2-x,1/2-y,1/2+z
1/2+x,1/2-y,-z
1/2-x,1/2+y,1/2-z
1/2-x,1/2-y,-z
1/2+x,1/2+y,1/2-z
1/2-x,1/2+y,z
1/2+x,1/2-y,1/2+z
loop_
_atom_site_type_symbol
_atom_site_label
_atom_site_fract_x
_atom_site_fract_y
_atom_site_fract_z
Si Si1 0.582991 0.344823 0.004306
Si Si2 0.817664 0.631482 0.819660
Si Si3 0.656593 0.644795 0.625253
Si Si4 0.910479 0.856128 0.628561
Si Si5 0.083256 0.608463 0.320215
O O1 0.500000 0.285654 0.020783
O O2 0.642849 0.307101 0.056189
O O3 0.574456 0.500000 0.000000
O O4 0.608886 0.297690 0.938011
O O5 0.793434 0.613245 0.750000
O O6 0.745175 0.645880 0.861957
O O7 0.869982 0.760963 0.823904
O O8 0.862352 0.505361 0.846010
O O9 0.621096 0.502571 0.637920
O O10 0.616575 0.747501 0.669116
O O11 0.000000 0.858271 0.640206
O O12 0.076107 0.584322 0.250000
O O13 0.000000 0.595973 0.350006
#
# Coordination Sequence:
#
# PCOD8260105 Si02
#       5
#    16  16  16  16  16
#     4   8  16  33  57  85 114 141 177 232 286 325
#     4  11  24  39  54  80 119 152 181 230 288 329
#     4  11  20  35  60  85 112 145 185 231 279 332
#     4  10  21  39  63  86 109 146 194 233 271 332
#     4  10  21  37  55  77 110 150 187 227 279 331
#
# _framework density 20.069452999999999
#
# number of rings (size 3 to 8) (size 9 to 14) (size 15 to 20)
#    0.000    2.000    0.000    5.400    0.000    5.200 
#    0.000    3.000    0.000    3.600    0.000    0.000 
#    0.000    0.000    0.000    0.000    0.000    0.000 
#
# Total GULP energy -495925.760409 kJ/mol
# GULP energy per Si atom -12398.144010 kJ/mol
# Density = 2.002377 g / cm^3
# Si number density = 20.069453 Si / 1000 Ang^3
#
#
#
# Elastic Constant Matrix: (Units=GPa)
#
#
# Indices 1 2 3 4 5 6 
#
# 1 149.2039 50.7664 40.7253 0.0000 0.0000 0.0000
# 2 50.7664 96.4239 22.8206 0.0000 0.0000 0.0000
# 3 40.7253 22.8206 54.7051 0.0000 0.0000 0.0000
# 4 0.0000 0.0000 0.0000 17.0758 0.0000 0.0000
# 5 0.0000 0.0000 0.0000 0.0000 13.1505 0.0000
# 6 0.0000 0.0000 0.0000 0.0000 0.0000 30.1549
#
#
#
# Elastic Compliance Matrix: (Units=1/GPa)
#
#
# Indices 1 2 3 4 5 6 
#
# 1 0.009456 -0.003675 -0.005506 0.000000 0.000000 0.000000
# 2 -0.003675 0.012935 -0.002660 0.000000 0.000000 0.000000
# 3 -0.005506 -0.002660 0.023489 0.000000 0.000000 0.000000
# 4 0.000000 0.000000 0.000000 0.058562 0.000000 0.000000
# 5 0.000000 0.000000 0.000000 0.000000 0.076043 0.000000
# 6 0.000000 0.000000 0.000000 0.000000 0.000000 0.033162
#
#
# Mechanical properties :
#
#
# Convention : Reuss Voigt Hill
#
# Bulk Modulus (GPa) = 45.05160 58.77305 51.91233
# Shear Modulus (GPa) = 20.43080 24.47760 22.45420
#
# Velocity S-wave (km/s) = 3.19408 3.49613 3.34851
# Velocity P-wave (km/s) = 6.00828 6.75616 6.39316
#
# Compressibility (1/GPa) = 0.02219677
#
# Stress axis : x y z
#
# Youngs Moduli (GPa) = 105.75733 77.30732 42.57394
#
# Poissons Ratio (x) = 0.28412 0.23442
# Poissons Ratio (y) = 0.38868 0.11325
# Poissons Ratio (z) = 0.58231 0.20564
#
# Static dielectric constant tensor:
#      x y z
#    x 3.792900 0.000000 0.000000 
#    y 0.000000 3.504840 0.000000 
#    z 0.000000 0.000000 3.939230 
# 
# 
# High freq. dielectric constant tensor:
#      x y z
#    x 1.790740 0.000000 0.000000 
#    y 0.000000 1.771440 0.000000 
#    z 0.000000 0.000000 1.774410 
# 
# From -- ./inp_files/62569.got.cif
#   From: 2010.03.12/outbox.cif.g09.slc.cpg/sg63_32_cif.got.tgz:62569.got - 2010.04.10 19:34:48.
