data_PCOD8260635
_publ_section_title
;
Structure prediction by ZEFSAII (Michael W. Deem and Ramdas Pophale) SiO2 
 PCOD8260635
Probable space group: C M C M
;
_chemical_formula_sum "Si O2"
_cell_formula_units_Z 56
_cell_length_a 21.316766
_cell_length_b 9.426825
_cell_length_c 14.356654
_cell_angle_alpha 90.000000
_cell_angle_beta 90.000000
_cell_angle_gamma 90.000000
_cell_volume 2884.961332
_symmetry_space_group_name_H-M "C M C M"
_symmetry_group_IT_number 63
_symmetry_cell_setting 'orthorhombic'
loop_
_space_group_symop_operation_xyz
x,y,z
-x,-y,1/2+z
x,-y,-z
-x,y,1/2-z
-x,-y,-z
x,y,1/2-z
-x,y,z
x,-y,1/2+z
1/2+x,1/2+y,z
1/2-x,1/2-y,1/2+z
1/2+x,1/2-y,-z
1/2-x,1/2+y,1/2-z
1/2-x,1/2-y,-z
1/2+x,1/2+y,1/2-z
1/2-x,1/2+y,z
1/2+x,1/2-y,1/2+z
loop_
_atom_site_type_symbol
_atom_site_label
_atom_site_fract_x
_atom_site_fract_y
_atom_site_fract_z
Si Si1 0.758055 0.500000 0.000000
Si Si2 0.141844 0.395048 0.856194
Si Si3 0.362784 0.344676 0.008217
Si Si4 0.570596 0.172132 0.644309
O O1 0.799868 0.534848 0.089700
O O2 0.712529 0.364630 0.017634
O O3 0.162254 0.365611 0.750000
O O4 0.117182 0.248134 0.902120
O O5 0.084277 0.504574 0.861832
O O6 0.396262 0.500000 0.000000
O O7 0.379191 0.258284 0.915650
O O8 0.577810 0.225697 0.750000
O O9 0.500000 0.198103 0.607606
#
# Coordination Sequence:
#
# PCOD8260635 Si02
#       4
#     8  16  16  16
#     4  10  22  40  56  90 124 160 196 248 310 364
#     4  11  22  38  62  88 119 163 208 251 298 360
#     4  10  23  38  60  88 127 157 196 250 312 360
#     4  10  22  41  64  88 117 162 212 252 297 357
#
# _framework density 19.411006
#
# number of rings (size 3 to 8) (size 9 to 14) (size 15 to 20)
#    0.857    0.857    2.857    0.857    0.000    6.286 
#    0.000    0.000    0.000    3.429    0.000    0.000 
#    0.000    0.000    0.000    0.000    0.000    0.000 
#
# Total GULP energy -346966.316620 kJ/mol
# GULP energy per Si atom -12391.654165 kJ/mol
# Density = 1.936683 g / cm^3
# Si number density = 19.411006 Si / 1000 Ang^3
#
#
#
# Elastic Constant Matrix: (Units=GPa)
#
#
# Indices 1 2 3 4 5 6 
#
# 1 47.1392 31.4511 38.7202 0.0000 0.0000 0.0000
# 2 31.4511 130.0001 71.4289 0.0000 0.0000 0.0000
# 3 38.7202 71.4289 152.8965 0.0000 0.0000 0.0000
# 4 0.0000 0.0000 0.0000 13.9692 0.0000 0.0000
# 5 0.0000 0.0000 0.0000 0.0000 16.5467 0.0000
# 6 0.0000 0.0000 0.0000 0.0000 0.0000 43.7125
#
#
#
# Elastic Compliance Matrix: (Units=1/GPa)
#
#
# Indices 1 2 3 4 5 6 
#
# 1 0.028180 -0.003897 -0.005316 0.000000 0.000000 0.000000
# 2 -0.003897 0.010888 -0.004100 0.000000 0.000000 0.000000
# 3 -0.005316 -0.004100 0.009802 0.000000 0.000000 0.000000
# 4 0.000000 0.000000 0.000000 0.071586 0.000000 0.000000
# 5 0.000000 0.000000 0.000000 0.000000 0.060435 0.000000
# 6 0.000000 0.000000 0.000000 0.000000 0.000000 0.022877
#
#
# Mechanical properties :
#
#
# Convention : Reuss Voigt Hill
#
# Bulk Modulus (GPa) = 44.95394 68.13734 56.54564
# Shear Modulus (GPa) = 21.02543 27.40804 24.21673
#
# Velocity S-wave (km/s) = 3.29473 3.76171 3.53594
# Velocity P-wave (km/s) = 6.13864 7.35160 6.77233
#
# Compressibility (1/GPa) = 0.02224499
#
# Stress axis : x y z
#
# Youngs Moduli (GPa) = 35.48577 91.84813 102.02200
#
# Poissons Ratio (x) = 0.35791 0.54235
# Poissons Ratio (y) = 0.13828 0.41824
# Poissons Ratio (z) = 0.18864 0.37653
#
# Static dielectric constant tensor:
#      x y z
#    x 3.368750 0.000000 0.000000 
#    y 0.000000 3.671830 0.000000 
#    z 0.000000 0.000000 3.522720 
# 
# 
# High freq. dielectric constant tensor:
#      x y z
#    x 1.740540 0.000000 0.000000 
#    y 0.000000 1.762940 0.000000 
#    z 0.000000 0.000000 1.754060 
# 
# From -- ./inp_files/34737.got.cif
#   From: 2010.03.12/outbox.cif.g09.slc.cpg/sg63_18_cif.got.tgz:34737.got - 2010.04.10 19:34:48.
