data_PCOD8260379
_publ_section_title
;
Structure prediction by ZEFSAII (Michael W. Deem and Ramdas Pophale) SiO2 
 PCOD8260379
Probable space group: C M C M
;
_chemical_formula_sum "Si O2"
_cell_formula_units_Z 96
_cell_length_a 9.090480
_cell_length_b 29.605928
_cell_length_c 19.034027
_cell_angle_alpha 90.000000
_cell_angle_beta 90.000000
_cell_angle_gamma 90.000000
_cell_volume 5122.667589
_symmetry_space_group_name_H-M "C M C M"
_symmetry_group_IT_number 63
_symmetry_cell_setting 'orthorhombic'
loop_
_space_group_symop_operation_xyz
x,y,z
-x,-y,1/2+z
x,-y,-z
-x,y,1/2-z
-x,-y,-z
x,y,1/2-z
-x,y,z
x,-y,1/2+z
1/2+x,1/2+y,z
1/2-x,1/2-y,1/2+z
1/2+x,1/2-y,-z
1/2-x,1/2+y,1/2-z
1/2-x,1/2-y,-z
1/2+x,1/2+y,1/2-z
1/2-x,1/2+y,z
1/2+x,1/2-y,1/2+z
loop_
_atom_site_type_symbol
_atom_site_label
_atom_site_fract_x
_atom_site_fract_y
_atom_site_fract_z
Si Si1 0.667408 0.316808 0.168316
Si Si2 0.828517 0.377872 0.061297
Si Si3 0.831411 0.712858 0.168974
Si Si4 0.826222 0.948880 0.830284
Si Si5 0.826053 0.861901 0.916331
Si Si6 0.171653 0.481745 0.425269
O O1 0.698229 0.324836 0.250000
O O2 0.500000 0.330417 0.149645
O O3 0.781488 0.347237 0.126313
O O4 0.694484 0.264786 0.148431
O O5 0.791009 0.429200 0.080810
O O6 0.000000 0.371527 0.045955
O O7 0.740584 0.362481 0.993335
O O8 0.791118 0.704703 0.250000
O O9 0.723593 0.683484 0.121897
O O10 0.000000 0.699050 0.154632
O O11 0.774319 0.943843 0.750000
O O12 0.769439 0.905130 0.872542
O O13 0.000000 0.953675 0.835658
O O14 0.755348 0.993686 0.862351
O O15 0.000000 0.861685 0.922485
O O16 0.230046 0.500000 0.500000
O O17 0.000000 0.492159 0.417261
#
# Coordination Sequence:
#
# PCOD8260379 Si02
#       6
#    16  16  16  16  16  16
#     4   9  20  40  62  84 113 149 190 235 284 340
#     4  11  23  38  59  85 114 149 192 237 284 339
#     4   9  19  37  60  84 113 151 191 232 282 339
#     4  10  22  38  57  85 117 148 187 233 281 338
#     4  11  22  36  57  85 118 152 189 234 284 337
#     4  10  21  39  59  80 111 149 190 233 280 334
#
# _framework density 18.740235999999999
#
# number of rings (size 3 to 8) (size 9 to 14) (size 15 to 20)
#    0.000    2.000    1.667    2.500    0.000    6.000 
#    0.000    5.000    0.000    0.000    0.000    0.000 
#    0.000    0.000    0.000    0.000    0.000    0.000 
#
# Total GULP energy -595435.880198 kJ/mol
# GULP energy per Si atom -12404.914171 kJ/mol
# Density = 1.869758 g / cm^3
# Si number density = 18.740236 Si / 1000 Ang^3
#
#
#
# Elastic Constant Matrix: (Units=GPa)
#
#
# Indices 1 2 3 4 5 6 
#
# 1 60.2003 50.0778 41.8802 0.0000 0.0000 0.0000
# 2 50.0778 111.5375 61.8282 0.0000 0.0000 0.0000
# 3 41.8802 61.8282 101.6920 0.0000 0.0000 0.0000
# 4 0.0000 0.0000 0.0000 37.5413 0.0000 0.0000
# 5 0.0000 0.0000 0.0000 0.0000 35.9391 0.0000
# 6 0.0000 0.0000 0.0000 0.0000 0.0000 33.9869
#
#
#
# Elastic Compliance Matrix: (Units=1/GPa)
#
#
# Indices 1 2 3 4 5 6 
#
# 1 0.028770 -0.009577 -0.006026 0.000000 0.000000 0.000000
# 2 -0.009577 0.016711 -0.006216 0.000000 0.000000 0.000000
# 3 -0.006026 -0.006216 0.016095 0.000000 0.000000 0.000000
# 4 0.000000 0.000000 0.000000 0.026637 0.000000 0.000000
# 5 0.000000 0.000000 0.000000 0.000000 0.027825 0.000000
# 6 0.000000 0.000000 0.000000 0.000000 0.000000 0.029423
#
#
# Mechanical properties :
#
#
# Convention : Reuss Voigt Hill
#
# Bulk Modulus (GPa) = 55.74740 64.55578 60.15159
# Shear Modulus (GPa) = 25.63086 29.46971 27.55028
#
# Velocity S-wave (km/s) = 3.70224 3.96982 3.83837
# Velocity P-wave (km/s) = 6.93451 7.45219 7.19801
#
# Compressibility (1/GPa) = 0.01793806
#
# Stress axis : x y z
#
# Youngs Moduli (GPa) = 34.75895 59.84025 62.13233
#
# Poissons Ratio (x) = 0.57307 0.37439
# Poissons Ratio (y) = 0.33287 0.38623
# Poissons Ratio (z) = 0.20945 0.37199
#
# Static dielectric constant tensor:
#      x y z
#    x 3.343830 0.000000 0.000000 
#    y 0.000000 3.469890 0.000000 
#    z 0.000000 0.000000 3.430970 
# 
# 
# High freq. dielectric constant tensor:
#      x y z
#    x 1.725590 0.000000 0.000000 
#    y 0.000000 1.735400 0.000000 
#    z 0.000000 0.000000 1.732390 
# 
# From -- ./inp_files/51305.got.cif
#   From: 2010.03.12/outbox.cif.g09.slc.cpg/sg63_26_cif.got.tgz:51305.got - 2010.04.10 19:34:48.
