data_PCOD8260268
_publ_section_title
;
Structure prediction by ZEFSAII (Michael W. Deem and Ramdas Pophale) SiO2 
 PCOD8260268
Probable space group: C M C M
;
_chemical_formula_sum "Si O2"
_cell_formula_units_Z 96
_cell_length_a 17.716415
_cell_length_b 16.620025
_cell_length_c 17.478524
_cell_angle_alpha 90.000000
_cell_angle_beta 90.000000
_cell_angle_gamma 90.000000
_cell_volume 5146.503504
_symmetry_space_group_name_H-M "C M C M"
_symmetry_group_IT_number 63
_symmetry_cell_setting 'orthorhombic'
loop_
_space_group_symop_operation_xyz
x,y,z
-x,-y,1/2+z
x,-y,-z
-x,y,1/2-z
-x,-y,-z
x,y,1/2-z
-x,y,z
x,-y,1/2+z
1/2+x,1/2+y,z
1/2-x,1/2-y,1/2+z
1/2+x,1/2-y,-z
1/2-x,1/2+y,1/2-z
1/2-x,1/2-y,-z
1/2+x,1/2+y,1/2-z
1/2-x,1/2+y,z
1/2+x,1/2-y,1/2+z
loop_
_atom_site_type_symbol
_atom_site_label
_atom_site_fract_x
_atom_site_fract_y
_atom_site_fract_z
Si Si1 0.139848 0.807068 0.573106
Si Si2 0.776120 0.320270 0.335363
Si Si3 0.604656 0.284283 0.165129
Si Si4 0.729809 0.091427 0.989410
Si Si5 0.082786 0.670486 0.037129
Si Si6 0.500000 0.588925 0.596224
Si Si7 0.000000 0.089812 0.415192
O O1 0.170271 0.754146 0.643166
O O2 0.208074 0.852198 0.529329
O O3 0.100402 0.749014 0.512692
O O4 0.077262 0.865781 0.609730
O O5 0.798023 0.352764 0.250000
O O6 0.693657 0.284203 0.334243
O O7 0.780130 0.390458 0.398966
O O8 0.570852 0.281759 0.250000
O O9 0.577774 0.202989 0.123630
O O10 0.574735 0.365348 0.124393
O O11 0.647739 0.103694 0.028399
O O12 0.755827 0.000000 0.000000
O O13 0.000000 0.634959 0.014658
O O14 0.500000 0.584205 0.505823
O O15 0.500000 0.497031 0.626293
#
# Coordination Sequence:
#
# PCOD8260268 Si02
#       7
#    16  16  16  16  16   8   8
#     4  11  19  38  59  84 111 150 193 235 273 349
#     4  10  21  38  59  82 112 151 197 239 282 336
#     4  11  19  33  54  82 114 149 186 233 286 336
#     4  11  23  37  61  86 116 153 191 240 287 343
#     4  11  19  36  59  84 108 144 196 237 275 335
#     4  11  21  32  50  92 121 151 171 237 289 359
#     4  11  22  32  58  84 122 146 192 228 289 341
#
# _framework density 18.653441000000001
#
# number of rings (size 3 to 8) (size 9 to 14) (size 15 to 20)
#    0.000    1.167    6.667    1.250    4.667    0.333 
#    0.000    3.750    0.000    0.000    0.000    0.000 
#    0.000    0.000    0.000    0.000    0.000    0.000 
#
# Total GULP energy -595019.187271 kJ/mol
# GULP energy per Si atom -12396.233068 kJ/mol
# Density = 1.861098 g / cm^3
# Si number density = 18.653441 Si / 1000 Ang^3
#
#
#
# Elastic Constant Matrix: (Units=GPa)
#
#
# Indices 1 2 3 4 5 6 
#
# 1 112.7409 13.5123 25.8972 0.0000 0.0000 0.0000
# 2 13.5123 56.0611 29.9933 0.0000 0.0000 0.0000
# 3 25.8972 29.9933 104.5292 0.0000 0.0000 0.0000
# 4 0.0000 0.0000 0.0000 17.6176 0.0000 0.0000
# 5 0.0000 0.0000 0.0000 0.0000 3.4707 0.0000
# 6 0.0000 0.0000 0.0000 0.0000 0.0000 20.6178
#
#
#
# Elastic Compliance Matrix: (Units=1/GPa)
#
#
# Indices 1 2 3 4 5 6 
#
# 1 0.009475 -0.001214 -0.001999 0.000000 0.000000 0.000000
# 2 -0.001214 0.021228 -0.005790 0.000000 0.000000 0.000000
# 3 -0.001999 -0.005790 0.011723 0.000000 0.000000 0.000000
# 4 0.000000 0.000000 0.000000 0.056761 0.000000 0.000000
# 5 0.000000 0.000000 0.000000 0.000000 0.288130 0.000000
# 6 0.000000 0.000000 0.000000 0.000000 0.000000 0.048502
#
#
# Mechanical properties :
#
#
# Convention : Reuss Voigt Hill
#
# Bulk Modulus (GPa) = 40.95125 45.79299 43.37212
# Shear Modulus (GPa) = 10.82332 21.93645 16.37988
#
# Velocity S-wave (km/s) = 2.41141 3.43301 2.96652
# Velocity P-wave (km/s) = 5.45478 6.34954 5.91909
#
# Compressibility (1/GPa) = 0.02441928
#
# Stress axis : x y z
#
# Youngs Moduli (GPa) = 105.54546 47.10700 85.29935
#
# Poissons Ratio (x) = 0.05720 0.17051
# Poissons Ratio (y) = 0.12815 0.49391
# Poissons Ratio (z) = 0.21098 0.27277
#
# Static dielectric constant tensor:
#      x y z
#    x 3.661820 0.000000 0.000000 
#    y 0.000000 3.295050 0.000000 
#    z 0.000000 0.000000 3.631170 
# 
# 
# High freq. dielectric constant tensor:
#      x y z
#    x 1.743700 0.000000 0.000000 
#    y 0.000000 1.695980 0.000000 
#    z 0.000000 0.000000 1.711280 
# 
# From -- ./inp_files/45811.got.cif
#   From: 2010.03.12/outbox.cif.g09.slc.cpg/sg63_23_cif.got.tgz:45811.got - 2010.04.10 19:34:48.
