data_PCOD8260409
_publ_section_title
;
Structure prediction by ZEFSAII (Michael W. Deem and Ramdas Pophale) SiO2 
 PCOD8260409
Probable space group: C M C M
;
_chemical_formula_sum "Si O2"
_cell_formula_units_Z 64
_cell_length_a 19.912883
_cell_length_b 9.171514
_cell_length_c 16.868703
_cell_angle_alpha 90.000000
_cell_angle_beta 90.000000
_cell_angle_gamma 90.000000
_cell_volume 3080.752909
_symmetry_space_group_name_H-M "C M C M"
_symmetry_group_IT_number 63
_symmetry_cell_setting 'orthorhombic'
loop_
_space_group_symop_operation_xyz
x,y,z
-x,-y,1/2+z
x,-y,-z
-x,y,1/2-z
-x,-y,-z
x,y,1/2-z
-x,y,z
x,-y,1/2+z
1/2+x,1/2+y,z
1/2-x,1/2-y,1/2+z
1/2+x,1/2-y,-z
1/2-x,1/2+y,1/2-z
1/2-x,1/2-y,-z
1/2+x,1/2+y,1/2-z
1/2-x,1/2+y,z
1/2+x,1/2-y,1/2+z
loop_
_atom_site_type_symbol
_atom_site_label
_atom_site_fract_x
_atom_site_fract_y
_atom_site_fract_z
Si Si1 0.922431 0.659577 0.157770
Si Si2 0.192603 0.526857 0.908309
Si Si3 0.809931 0.161301 0.159534
Si Si4 0.422191 0.472961 0.409150
O O1 0.905067 0.678959 0.250000
O O2 0.880092 0.529484 0.119447
O O3 0.000000 0.618946 0.145025
O O4 0.903228 0.807945 0.112823
O O5 0.196736 0.698981 0.895995
O O6 0.249853 0.449291 0.857559
O O7 0.205296 0.500000 0.000000
O O8 0.806528 0.213022 0.250000
O O9 0.880771 0.082713 0.145257
O O10 0.402633 0.500000 0.500000
O O11 0.500000 0.504862 0.392273
#
# Coordination Sequence:
#
# PCOD8260409 Si02
#       4
#    16  16  16  16
#     4  10  21  39  62  88 121 160 199 242 296 353
#     4  12  25  42  63  88 120 157 200 247 298 354
#     4  12  24  39  61  89 121 157 200 247 297 352
#     4  10  21  39  63  91 123 159 199 243 294 352
#
# _framework density 20.774142000000001
#
# number of rings (size 3 to 8) (size 9 to 14) (size 15 to 20)
#    0.000    1.000    0.000    7.500    0.000    3.000 
#    0.000    0.000    0.000    0.000    0.000    0.000 
#    0.000    0.000    0.000    0.000    0.000    0.000 
#
# Total GULP energy -397095.652581 kJ/mol
# GULP energy per Si atom -12409.239143 kJ/mol
# Density = 2.072686 g / cm^3
# Si number density = 20.774142 Si / 1000 Ang^3
#
#
#
# Elastic Constant Matrix: (Units=GPa)
#
#
# Indices 1 2 3 4 5 6 
#
# 1 91.1520 47.2892 22.4719 0.0000 0.0000 0.0000
# 2 47.2892 88.7454 -2.6353 0.0000 0.0000 0.0000
# 3 22.4719 -2.6353 88.0747 0.0000 0.0000 0.0000
# 4 0.0000 0.0000 0.0000 36.4435 0.0000 0.0000
# 5 0.0000 0.0000 0.0000 0.0000 34.6456 0.0000
# 6 0.0000 0.0000 0.0000 0.0000 0.0000 28.8301
#
#
#
# Elastic Compliance Matrix: (Units=1/GPa)
#
#
# Indices 1 2 3 4 5 6 
#
# 1 0.016814 -0.009095 -0.004562 0.000000 0.000000 0.000000
# 2 -0.009095 0.016198 0.002805 0.000000 0.000000 0.000000
# 3 -0.004562 0.002805 0.012602 0.000000 0.000000 0.000000
# 4 0.000000 0.000000 0.000000 0.027440 0.000000 0.000000
# 5 0.000000 0.000000 0.000000 0.000000 0.028864 0.000000
# 6 0.000000 0.000000 0.000000 0.000000 0.000000 0.034686
#
#
# Mechanical properties :
#
#
# Convention : Reuss Voigt Hill
#
# Bulk Modulus (GPa) = 41.82371 44.69154 43.25763
# Shear Modulus (GPa) = 30.07035 33.37357 31.72196
#
# Velocity S-wave (km/s) = 3.80872 4.01246 3.91191
# Velocity P-wave (km/s) = 6.28634 6.55944 6.42434
#
# Compressibility (1/GPa) = 0.02390988
#
# Stress axis : x y z
#
# Youngs Moduli (GPa) = 59.47494 61.73661 79.35291
#
# Poissons Ratio (x) = 0.56149 0.36202
# Poissons Ratio (y) = 0.54092 -0.22260
# Poissons Ratio (z) = 0.27133 -0.17318
#
# Static dielectric constant tensor:
#      x y z
#    x 3.860690 0.000000 0.000000 
#    y 0.000000 3.726830 0.000000 
#    z 0.000000 0.000000 3.840290 
# 
# 
# High freq. dielectric constant tensor:
#      x y z
#    x 1.826480 0.000000 0.000000 
#    y 0.000000 1.815690 0.000000 
#    z 0.000000 0.000000 1.826850 
# 
# From -- ./inp_files/46529.got.cif
#   From: 2010.03.12/outbox.cif.g09.slc.cpg/sg63_24_cif.got.tgz:46529.got - 2010.04.10 19:34:48.
