data_PCOD8260134
_publ_section_title
;
Structure prediction by ZEFSAII (Michael W. Deem and Ramdas Pophale) SiO2 
 PCOD8260134
Probable space group: C M C M
;
_chemical_formula_sum "Si O2"
_cell_formula_units_Z 80
_cell_length_a 8.732948
_cell_length_b 27.173748
_cell_length_c 15.892563
_cell_angle_alpha 90.000000
_cell_angle_beta 90.000000
_cell_angle_gamma 90.000000
_cell_volume 3771.415308
_symmetry_space_group_name_H-M "C M C M"
_symmetry_group_IT_number 63
_symmetry_cell_setting 'orthorhombic'
loop_
_space_group_symop_operation_xyz
x,y,z
-x,-y,1/2+z
x,-y,-z
-x,y,1/2-z
-x,-y,-z
x,y,1/2-z
-x,y,z
x,-y,1/2+z
1/2+x,1/2+y,z
1/2-x,1/2-y,1/2+z
1/2+x,1/2-y,-z
1/2-x,1/2+y,1/2-z
1/2-x,1/2-y,-z
1/2+x,1/2+y,1/2-z
1/2-x,1/2+y,z
1/2+x,1/2-y,1/2+z
loop_
_atom_site_type_symbol
_atom_site_label
_atom_site_fract_x
_atom_site_fract_y
_atom_site_fract_z
Si Si1 0.320909 0.310997 0.846020
Si Si2 0.674497 0.850599 0.250000
Si Si3 0.170245 0.872373 0.506404
Si Si4 0.828473 0.212006 0.884079
Si Si5 0.679565 0.963672 0.073005
Si Si6 0.821104 0.954224 0.250000
O O1 0.266650 0.317996 0.750000
O O2 0.500000 0.297705 0.850672
O O3 0.223759 0.268174 0.890944
O O4 0.288080 0.362814 0.895280
O O5 0.500000 0.870103 0.250000
O O6 0.704683 0.816713 0.170759
O O7 0.789317 0.896303 0.250000
O O8 0.173215 0.816262 0.472543
O O9 0.284950 0.908068 0.456847
O O10 0.000000 0.895292 0.496116
O O11 0.000000 0.210132 0.845218
O O12 0.500000 0.969417 0.084568
O O13 0.753113 0.977161 0.163572
O O14 0.742022 0.000000 0.000000
O O15 0.000000 0.964562 0.250000
#
# Coordination Sequence:
#
# PCOD8260134 Si02
#       6
#    16   8  16  16  16   8
#     4  10  21  37  56  82 122 169 211 253 305 369
#     4  12  22  34  58  89 122 161 202 250 305 359
#     4  10  22  39  60  87 123 163 207 259 312 369
#     4  11  21  34  56  87 121 160 207 256 304 363
#     4  11  25  45  69  97 129 165 207 259 318 382
#     4  12  24  42  70  99 126 161 206 260 321 379
#
# _framework density 21.212195999999999
#
# number of rings (size 3 to 8) (size 9 to 14) (size 15 to 20)
#    0.000    1.200    3.000    3.600    0.000    3.200 
#    1.800    0.000    0.000    0.000    0.000    0.000 
#    0.000    0.000    0.000    0.000    0.000    0.000 
#
# Total GULP energy -495831.641609 kJ/mol
# GULP energy per Si atom -12395.791040 kJ/mol
# Density = 2.116392 g / cm^3
# Si number density = 21.212196 Si / 1000 Ang^3
#
#
#
# Elastic Constant Matrix: (Units=GPa)
#
#
# Indices 1 2 3 4 5 6 
#
# 1 91.4947 24.7930 48.5906 0.0000 0.0000 0.0000
# 2 24.7930 53.5668 54.6192 0.0000 0.0000 0.0000
# 3 48.5906 54.6192 133.0934 0.0000 0.0000 0.0000
# 4 0.0000 0.0000 0.0000 36.5877 0.0000 0.0000
# 5 0.0000 0.0000 0.0000 0.0000 39.6851 0.0000
# 6 0.0000 0.0000 0.0000 0.0000 0.0000 24.5791
#
#
#
# Elastic Compliance Matrix: (Units=1/GPa)
#
#
# Indices 1 2 3 4 5 6 
#
# 1 0.013699 -0.002134 -0.004126 0.000000 0.000000 0.000000
# 2 -0.002134 0.032433 -0.012531 0.000000 0.000000 0.000000
# 3 -0.004126 -0.012531 0.014162 0.000000 0.000000 0.000000
# 4 0.000000 0.000000 0.000000 0.027332 0.000000 0.000000
# 5 0.000000 0.000000 0.000000 0.000000 0.025198 0.000000
# 6 0.000000 0.000000 0.000000 0.000000 0.000000 0.040685
#
#
# Mechanical properties :
#
#
# Convention : Reuss Voigt Hill
#
# Bulk Modulus (GPa) = 44.02679 59.35117 51.68898
# Shear Modulus (GPa) = 25.16856 30.18050 27.67453
#
# Velocity S-wave (km/s) = 3.44832 3.77608 3.61592
# Velocity P-wave (km/s) = 6.05434 6.85946 6.46944
#
# Compressibility (1/GPa) = 0.02271344
#
# Stress axis : x y z
#
# Youngs Moduli (GPa) = 72.99911 30.83286 70.61052
#
# Poissons Ratio (x) = 0.06579 0.29131
# Poissons Ratio (y) = 0.15576 0.88481
# Poissons Ratio (z) = 0.30117 0.38636
#
# Static dielectric constant tensor:
#      x y z
#    x 3.716800 0.000000 0.000000 
#    y 0.000000 3.516620 0.000000 
#    z 0.000000 0.000000 3.995900 
# 
# 
# High freq. dielectric constant tensor:
#      x y z
#    x 1.828600 0.000000 0.000000 
#    y 0.000000 1.801670 0.000000 
#    z 0.000000 0.000000 1.849590 
# 
# From -- ./inp_files/40585.got.cif
#   From: 2010.03.12/outbox.cif.g09.slc.cpg/sg63_21_cif.got.tgz:40585.got - 2010.04.10 19:34:48.
