data_PCOD8260529
_publ_section_title
;
Structure prediction by ZEFSAII (Michael W. Deem and Ramdas Pophale) SiO2 
 PCOD8260529
Probable space group: C M C M
;
_chemical_formula_sum "Si O2"
_cell_formula_units_Z 112
_cell_length_a 20.884849
_cell_length_b 28.320209
_cell_length_c 10.465518
_cell_angle_alpha 90.000000
_cell_angle_beta 90.000000
_cell_angle_gamma 90.000000
_cell_volume 6189.969693
_symmetry_space_group_name_H-M "C M C M"
_symmetry_group_IT_number 63
_symmetry_cell_setting 'orthorhombic'
loop_
_space_group_symop_operation_xyz
x,y,z
-x,-y,1/2+z
x,-y,-z
-x,y,1/2-z
-x,-y,-z
x,y,1/2-z
-x,y,z
x,-y,1/2+z
1/2+x,1/2+y,z
1/2-x,1/2-y,1/2+z
1/2+x,1/2-y,-z
1/2-x,1/2+y,1/2-z
1/2-x,1/2-y,-z
1/2+x,1/2+y,1/2-z
1/2-x,1/2+y,z
1/2+x,1/2-y,1/2+z
loop_
_atom_site_type_symbol
_atom_site_label
_atom_site_fract_x
_atom_site_fract_y
_atom_site_fract_z
Si Si1 0.656026 0.366754 0.107140
Si Si2 0.073972 0.364893 0.106032
Si Si3 0.782515 0.034623 0.892184
Si Si4 0.204702 0.233128 0.887503
Si Si5 0.927054 0.733848 0.477743
Si Si6 0.868824 0.537161 0.895900
Si Si7 0.927657 0.171076 0.388369
O O1 0.625379 0.369843 0.250000
O O2 0.695560 0.413039 0.072971
O O3 0.705102 0.323293 0.100530
O O4 0.602047 0.359857 0.001107
O O5 0.094877 0.353211 0.250000
O O6 0.112445 0.410466 0.055722
O O7 0.000000 0.378232 0.097409
O O8 0.089391 0.318597 0.024459
O O9 0.806710 0.019779 0.750000
O O10 0.706723 0.033010 0.895033
O O11 0.811619 0.000000 0.000000
O O12 0.234261 0.247964 0.750000
O O13 0.131218 0.252387 0.884291
O O14 0.250000 0.250000 0.000000
O O15 0.923755 0.772417 0.590524
O O16 0.000000 0.735325 0.417360
O O17 0.895067 0.528012 0.750000
O O18 0.897320 0.500000 0.000000
O O19 0.894989 0.160951 0.250000
O O20 0.000000 0.154016 0.383385
#
# Coordination Sequence:
#
# PCOD8260529 Si02
#       7
#    16  16  16  16  16  16  16
#     4   9  19  34  51  73 101 134 171 205 249 305
#     4   9  17  29  49  75  98 130 174 212 252 304
#     4   9  18  33  52  73  96 127 166 209 255 303
#     4  10  22  36  52  78 110 143 175 213 261 311
#     4   9  18  33  53  75 104 141 180 218 255 302
#     4   9  18  32  50  69  94 126 164 211 259 307
#     4   9  17  30  50  77 106 133 165 206 248 294
#
# _framework density 18.093788
#
# number of rings (size 3 to 8) (size 9 to 14) (size 15 to 20)
#    0.000    2.857    0.000    0.429    2.000    6.000 
#    0.000    3.571    0.000    1.286    0.000    0.000 
#    0.000    0.000    0.000    0.000    0.000    0.000 
#
# Total GULP energy -693780.836225 kJ/mol
# GULP energy per Si atom -12388.943504 kJ/mol
# Density = 1.805261 g / cm^3
# Si number density = 18.093788 Si / 1000 Ang^3
#
#
#
# Elastic Constant Matrix: (Units=GPa)
#
#
# Indices 1 2 3 4 5 6 
#
# 1 41.6365 19.6944 38.0224 0.0000 0.0000 0.0000
# 2 19.6944 113.6377 58.3314 0.0000 0.0000 0.0000
# 3 38.0224 58.3314 128.8116 0.0000 0.0000 0.0000
# 4 0.0000 0.0000 0.0000 19.9930 0.0000 0.0000
# 5 0.0000 0.0000 0.0000 0.0000 23.4804 0.0000
# 6 0.0000 0.0000 0.0000 0.0000 0.0000 27.2470
#
#
#
# Elastic Compliance Matrix: (Units=1/GPa)
#
#
# Indices 1 2 3 4 5 6 
#
# 1 0.032957 -0.000936 -0.009304 0.000000 0.000000 0.000000
# 2 -0.000936 0.011491 -0.004928 0.000000 0.000000 0.000000
# 3 -0.009304 -0.004928 0.012741 0.000000 0.000000 0.000000
# 4 0.000000 0.000000 0.000000 0.050018 0.000000 0.000000
# 5 0.000000 0.000000 0.000000 0.000000 0.042589 0.000000
# 6 0.000000 0.000000 0.000000 0.000000 0.000000 0.036701
#
#
# Mechanical properties :
#
#
# Convention : Reuss Voigt Hill
#
# Bulk Modulus (GPa) = 37.23844 57.35358 47.29601
# Shear Modulus (GPa) = 22.14508 25.34656 23.74582
#
# Velocity S-wave (km/s) = 3.50223 3.74684 3.62660
# Velocity P-wave (km/s) = 6.08109 7.10529 6.61305
#
# Compressibility (1/GPa) = 0.02685397
#
# Stress axis : x y z
#
# Youngs Moduli (GPa) = 30.34284 87.02110 78.48555
#
# Poissons Ratio (x) = 0.08142 0.73026
# Poissons Ratio (y) = 0.02839 0.38675
# Poissons Ratio (z) = 0.28232 0.42881
#
# Static dielectric constant tensor:
#      x y z
#    x 3.213170 0.000000 0.000000 
#    y 0.000000 3.356020 0.000000 
#    z 0.000000 0.000000 3.595900 
# 
# 
# High freq. dielectric constant tensor:
#      x y z
#    x 1.681510 0.000000 0.000000 
#    y 0.000000 1.693840 0.000000 
#    z 0.000000 0.000000 1.700080 
# 
# From -- ./inp_files/23138.got.cif
#   From: 2010.03.12/outbox.cif.g09.slc.cpg/sg63_12_cif.got.tgz:23138.got - 2010.04.10 19:34:48.
