data_PCOD8260496
_publ_section_title
;
Structure prediction by ZEFSAII (Michael W. Deem and Ramdas Pophale) SiO2 
 PCOD8260496
Probable space group: C M C M
;
_chemical_formula_sum "Si O2"
_cell_formula_units_Z 112
_cell_length_a 22.865199
_cell_length_b 14.786482
_cell_length_c 15.368182
_cell_angle_alpha 90.000000
_cell_angle_beta 90.000000
_cell_angle_gamma 90.000000
_cell_volume 5195.918609
_symmetry_space_group_name_H-M "C M C M"
_symmetry_group_IT_number 63
_symmetry_cell_setting 'orthorhombic'
loop_
_space_group_symop_operation_xyz
x,y,z
-x,-y,1/2+z
x,-y,-z
-x,y,1/2-z
-x,-y,-z
x,y,1/2-z
-x,y,z
x,-y,1/2+z
1/2+x,1/2+y,z
1/2-x,1/2-y,1/2+z
1/2+x,1/2-y,-z
1/2-x,1/2+y,1/2-z
1/2-x,1/2-y,-z
1/2+x,1/2+y,1/2-z
1/2-x,1/2+y,z
1/2+x,1/2-y,1/2+z
loop_
_atom_site_type_symbol
_atom_site_label
_atom_site_fract_x
_atom_site_fract_y
_atom_site_fract_z
Si Si1 0.143943 0.138345 0.938300
Si Si2 0.161254 0.679773 0.151032
Si Si3 0.936026 0.456424 0.850957
Si Si4 0.363840 0.125526 0.649659
Si Si5 0.765888 0.352977 0.007074
Si Si6 0.565351 0.494893 0.848488
Si Si7 0.568397 0.703183 0.407353
O O1 0.159776 0.212030 0.863953
O O2 0.203558 0.097156 0.980338
O O3 0.110274 0.050468 0.905997
O O4 0.103303 0.195134 0.003003
O O5 0.182524 0.661696 0.250000
O O6 0.096893 0.638601 0.134865
O O7 0.203613 0.623481 0.085225
O O8 0.944038 0.477144 0.750000
O O9 0.900138 0.541126 0.889536
O O10 0.000000 0.449364 0.895729
O O11 0.344327 0.110398 0.750000
O O12 0.306474 0.131279 0.590413
O O13 0.404147 0.214439 0.646220
O O14 0.750000 0.250000 0.000000
O O15 0.571542 0.527699 0.750000
O O16 0.500000 0.514913 0.883630
O O17 0.578421 0.388470 0.853057
O O18 0.500000 0.721560 0.424517
#
# Coordination Sequence:
#
# PCOD8260496 Si02
#       7
#    16  16  16  16  16  16  16
#     4  11  22  42  62  91 126 168 207 262 318 378
#     4  10  21  41  65  89 126 167 210 261 314 372
#     4   9  20  39  63  94 128 163 207 259 314 373
#     4  11  22  41  65  91 127 169 209 259 316 372
#     4  10  22  43  60  90 126 164 213 258 311 373
#     4  10  22  40  63  94 126 162 211 260 317 384
#     4  11  22  40  64  92 126 163 208 263 320 375
#
# _framework density 21.555378999999999
#
# number of rings (size 3 to 8) (size 9 to 14) (size 15 to 20)
#    0.000    1.714    2.857    2.143    0.000    7.143 
#    5.143    2.143    0.000    0.000    0.000    0.000 
#    0.000    0.000    0.000    0.000    0.000    0.000 
#
# Total GULP energy -694209.554487 kJ/mol
# GULP energy per Si atom -12396.599187 kJ/mol
# Density = 2.150632 g / cm^3
# Si number density = 21.555379 Si / 1000 Ang^3
#
#
#
# Elastic Constant Matrix: (Units=GPa)
#
#
# Indices 1 2 3 4 5 6 
#
# 1 150.8690 37.2527 57.3140 0.0000 0.0000 0.0000
# 2 37.2527 70.9416 12.8740 0.0000 0.0000 0.0000
# 3 57.3140 12.8740 108.4919 0.0000 0.0000 0.0000
# 4 0.0000 0.0000 0.0000 13.4003 0.0000 0.0000
# 5 0.0000 0.0000 0.0000 0.0000 28.5629 0.0000
# 6 0.0000 0.0000 0.0000 0.0000 0.0000 23.6089
#
#
#
# Elastic Compliance Matrix: (Units=1/GPa)
#
#
# Indices 1 2 3 4 5 6 
#
# 1 0.009326 -0.004091 -0.004441 0.000000 0.000000 0.000000
# 2 -0.004091 0.016201 0.000239 0.000000 0.000000 0.000000
# 3 -0.004441 0.000239 0.011535 0.000000 0.000000 0.000000
# 4 0.000000 0.000000 0.000000 0.074625 0.000000 0.000000
# 5 0.000000 0.000000 0.000000 0.000000 0.035010 0.000000
# 6 0.000000 0.000000 0.000000 0.000000 0.000000 0.042357
#
#
# Mechanical properties :
#
#
# Convention : Reuss Voigt Hill
#
# Bulk Modulus (GPa) = 48.84015 60.57602 54.70808
# Shear Modulus (GPa) = 23.53320 27.97189 25.75254
#
# Velocity S-wave (km/s) = 3.30776 3.60623 3.46022
# Velocity P-wave (km/s) = 6.10701 6.74562 6.43424
#
# Compressibility (1/GPa) = 0.02047496
#
# Stress axis : x y z
#
# Youngs Moduli (GPa) = 107.23214 61.72432 86.69229
#
# Poissons Ratio (x) = 0.25252 0.38500
# Poissons Ratio (y) = 0.43870 -0.02070
# Poissons Ratio (z) = 0.47622 -0.01474
#
# Static dielectric constant tensor:
#      x y z
#    x 4.488470 0.000000 0.000000 
#    y 0.000000 3.241950 0.000000 
#    z 0.000000 0.000000 8.768420 
# 
# 
# High freq. dielectric constant tensor:
#      x y z
#    x 1.854350 0.000000 0.000000 
#    y 0.000000 1.845520 0.000000 
#    z 0.000000 0.000000 1.840780 
# 
# From -- ./inp_files/36853.got.cif
#   From: 2010.03.12/outbox.cif.g09.slc.cpg/sg63_19_cif.got.tgz:36853.got - 2010.04.10 19:34:48.
