data_PCOD8260567
_publ_section_title
;
Structure prediction by ZEFSAII (Michael W. Deem and Ramdas Pophale) SiO2 
 PCOD8260567
Probable space group: C M C M
;
_chemical_formula_sum "Si O2"
_cell_formula_units_Z 80
_cell_length_a 8.800777
_cell_length_b 20.440619
_cell_length_c 22.916984
_cell_angle_alpha 90.000000
_cell_angle_beta 90.000000
_cell_angle_gamma 90.000000
_cell_volume 4122.612555
_symmetry_space_group_name_H-M "C M C M"
_symmetry_group_IT_number 63
_symmetry_cell_setting 'orthorhombic'
loop_
_space_group_symop_operation_xyz
x,y,z
-x,-y,1/2+z
x,-y,-z
-x,y,1/2-z
-x,-y,-z
x,y,1/2-z
-x,y,z
x,-y,1/2+z
1/2+x,1/2+y,z
1/2-x,1/2-y,1/2+z
1/2+x,1/2-y,-z
1/2-x,1/2+y,1/2-z
1/2-x,1/2-y,-z
1/2+x,1/2+y,1/2-z
1/2-x,1/2+y,z
1/2+x,1/2-y,1/2+z
loop_
_atom_site_type_symbol
_atom_site_label
_atom_site_fract_x
_atom_site_fract_y
_atom_site_fract_z
Si Si1 0.680368 0.738145 0.126086
Si Si2 0.179717 0.046229 0.250000
Si Si3 0.675310 0.870396 0.432753
Si Si4 0.825546 0.502934 0.367103
Si Si5 0.181003 0.194736 0.250000
Si Si6 0.679215 0.611968 0.055641
O O1 0.500000 0.738866 0.127485
O O2 0.740520 0.805060 0.097812
O O3 0.743334 0.731193 0.192226
O O4 0.738958 0.677119 0.087933
O O5 0.237568 0.009015 0.306749
O O6 0.241393 0.120402 0.250000
O O7 0.000000 0.045164 0.250000
O O8 0.500000 0.862011 0.452339
O O9 0.778394 0.884793 0.488252
O O10 0.692731 0.928336 0.386703
O O11 0.757705 0.549068 0.416785
O O12 0.000000 0.521895 0.357489
O O13 0.000000 0.194016 0.250000
O O14 0.500000 0.604115 0.063035
#
# Coordination Sequence:
#
# PCOD8260567 Si02
#       6
#    16   8  16  16   8  16
#     4   9  18  34  58  85 111 146 192 237 284 336
#     4  11  21  38  63  87 113 146 190 237 283 337
#     4  10  22  38  56  83 118 153 189 235 287 339
#     4  11  23  38  58  86 118 151 189 232 284 341
#     4   9  16  32  59  85 107 136 184 235 277 333
#     4  11  21  36  60  86 113 152 197 238 282 335
#
# _framework density 19.405172
#
# number of rings (size 3 to 8) (size 9 to 14) (size 15 to 20)
#    0.000    1.800    2.000    2.700    0.000    4.800 
#    0.000    4.000    0.000    0.000    0.000    0.000 
#    0.000    0.000    0.000    0.000    0.000    0.000 
#
# Total GULP energy -496132.081795 kJ/mol
# GULP energy per Si atom -12403.302045 kJ/mol
# Density = 1.936100 g / cm^3
# Si number density = 19.405172 Si / 1000 Ang^3
#
#
#
# Elastic Constant Matrix: (Units=GPa)
#
#
# Indices 1 2 3 4 5 6 
#
# 1 55.0048 25.9602 24.2809 0.0000 0.0000 0.0000
# 2 25.9602 91.6748 21.9295 0.0000 0.0000 0.0000
# 3 24.2809 21.9295 120.2664 0.0000 0.0000 0.0000
# 4 0.0000 0.0000 0.0000 99.6764 0.0000 0.0000
# 5 0.0000 0.0000 0.0000 0.0000 21.7678 0.0000
# 6 0.0000 0.0000 0.0000 0.0000 0.0000 22.5224
#
#
#
# Elastic Compliance Matrix: (Units=1/GPa)
#
#
# Indices 1 2 3 4 5 6 
#
# 1 0.022314 -0.005480 -0.003506 0.000000 0.000000 0.000000
# 2 -0.005480 0.012752 -0.001219 0.000000 0.000000 0.000000
# 3 -0.003506 -0.001219 0.009245 0.000000 0.000000 0.000000
# 4 0.000000 0.000000 0.000000 0.010032 0.000000 0.000000
# 5 0.000000 0.000000 0.000000 0.000000 0.045939 0.000000
# 6 0.000000 0.000000 0.000000 0.000000 0.000000 0.044400
#
#
# Mechanical properties :
#
#
# Convention : Reuss Voigt Hill
#
# Bulk Modulus (GPa) = 41.83899 45.69857 43.76878
# Shear Modulus (GPa) = 28.89181 41.77835 35.33508
#
# Velocity S-wave (km/s) = 3.86278 4.64502 4.27184
# Velocity P-wave (km/s) = 6.44223 7.23665 6.85096
#
# Compressibility (1/GPa) = 0.02390115
#
# Stress axis : x y z
#
# Youngs Moduli (GPa) = 44.81436 78.42195 108.16790
#
# Poissons Ratio (x) = 0.42977 0.37922
# Poissons Ratio (y) = 0.24559 0.13182
# Poissons Ratio (z) = 0.15711 0.09557
#
# Static dielectric constant tensor:
#      x y z
#    x 3.320390 0.000000 0.000000 
#    y 0.000000 3.764800 0.000000 
#    z 0.000000 0.000000 3.397090 
# 
# 
# High freq. dielectric constant tensor:
#      x y z
#    x 1.730400 0.000000 0.000000 
#    y 0.000000 1.763690 0.000000 
#    z 0.000000 0.000000 1.770220 
# 
# From -- ./inp_files/50916.got.cif
#   From: 2010.03.12/outbox.cif.g09.slc.cpg/sg63_26_cif.got.tgz:50916.got - 2010.04.10 19:34:48.
