data_PCOD8260369
_publ_section_title
;
Structure prediction by ZEFSAII (Michael W. Deem and Ramdas Pophale) SiO2 
 PCOD8260369
Probable space group: C M C M
;
_chemical_formula_sum "Si O2"
_cell_formula_units_Z 56
_cell_length_a 22.397237
_cell_length_b 7.775379
_cell_length_c 15.461083
_cell_angle_alpha 90.000000
_cell_angle_beta 90.000000
_cell_angle_gamma 90.000000
_cell_volume 2692.501317
_symmetry_space_group_name_H-M "C M C M"
_symmetry_group_IT_number 63
_symmetry_cell_setting 'orthorhombic'
loop_
_space_group_symop_operation_xyz
x,y,z
-x,-y,1/2+z
x,-y,-z
-x,y,1/2-z
-x,-y,-z
x,y,1/2-z
-x,y,z
x,-y,1/2+z
1/2+x,1/2+y,z
1/2-x,1/2-y,1/2+z
1/2+x,1/2-y,-z
1/2-x,1/2+y,1/2-z
1/2-x,1/2-y,-z
1/2+x,1/2+y,1/2-z
1/2-x,1/2+y,z
1/2+x,1/2-y,1/2+z
loop_
_atom_site_type_symbol
_atom_site_label
_atom_site_fract_x
_atom_site_fract_y
_atom_site_fract_z
Si Si1 0.192571 0.630302 0.346396
Si Si2 0.383050 0.000000 0.500000
Si Si3 0.681116 0.514182 0.397207
Si Si4 0.435261 0.340456 0.564112
O O1 0.174910 0.568937 0.250000
O O2 0.158572 0.512320 0.415357
O O3 0.263654 0.617697 0.358204
O O4 0.174571 0.827848 0.356034
O O5 0.424303 0.167106 0.509170
O O6 0.689323 0.500000 0.500000
O O7 0.620904 0.622053 0.372701
O O8 0.438550 0.500000 0.500000
O O9 0.500000 0.323577 0.612019
#
# Coordination Sequence:
#
# PCOD8260369 Si02
#       4
#    16   8  16  16
#     4  12  24  38  65  99 132 172 213 268 332 384
#     4  12  21  42  70  94 135 164 216 276 318 390
#     4  11  20  40  61  92 132 161 211 267 318 383
#     4  10  21  38  67  96 121 170 219 259 322 386
#
# _framework density 20.798504999999999
#
# number of rings (size 3 to 8) (size 9 to 14) (size 15 to 20)
#    0.000    0.857    7.143    3.857    0.000    0.000 
#    0.000    1.429    0.000   13.714    0.000    0.000 
#    0.000    0.000    0.000    0.000    0.000    0.000 
#
# Total GULP energy -347093.365120 kJ/mol
# GULP energy per Si atom -12396.191611 kJ/mol
# Density = 2.075117 g / cm^3
# Si number density = 20.798505 Si / 1000 Ang^3
#
#
#
# Elastic Constant Matrix: (Units=GPa)
#
#
# Indices 1 2 3 4 5 6 
#
# 1 133.1547 62.5627 42.2981 0.0000 0.0000 0.0000
# 2 62.5627 122.1985 24.3371 0.0000 0.0000 0.0000
# 3 42.2981 24.3371 122.4852 0.0000 0.0000 0.0000
# 4 0.0000 0.0000 0.0000 25.6030 0.0000 0.0000
# 5 0.0000 0.0000 0.0000 0.0000 3.2021 0.0000
# 6 0.0000 0.0000 0.0000 0.0000 0.0000 -49.3433
#
#
#
# Elastic Compliance Matrix: (Units=1/GPa)
#
#
# Indices 1 2 3 4 5 6 
#
# 1 0.010689 -0.004932 -0.002711 0.000000 0.000000 0.000000
# 2 -0.004932 0.010797 -0.000442 0.000000 0.000000 0.000000
# 3 -0.002711 -0.000442 0.009188 0.000000 0.000000 0.000000
# 4 0.000000 0.000000 0.000000 0.039058 0.000000 0.000000
# 5 0.000000 0.000000 0.000000 0.000000 0.312296 0.000000
# 6 0.000000 0.000000 0.000000 0.000000 0.000000 -0.020266
#
#
# Mechanical properties :
#
#
# Convention : Reuss Voigt Hill
#
# Bulk Modulus (GPa) = 68.95216 70.69270 69.82243
# Shear Modulus (GPa) = 13.06280 12.46839 12.76559
#
# Velocity S-wave (km/s) = 2.50884 2.45109 2.48014
# Velocity P-wave (km/s) = 6.45111 6.48642 6.46879
#
# Compressibility (1/GPa) = 0.01450281
#
# Stress axis : x y z
#
# Youngs Moduli (GPa) = 93.55578 92.62068 108.83408
#
# Poissons Ratio (x) = 0.45685 0.29506
# Poissons Ratio (y) = 0.46146 0.04809
# Poissons Ratio (z) = 0.25364 0.04093
#
# Static dielectric constant tensor:
#      x y z
#    x 4.689270 0.000000 0.000000 
#    y 0.000000 3.838800 0.000000 
#    z 0.000000 0.000000 3.301250 
# 
# 
# High freq. dielectric constant tensor:
#      x y z
#    x 1.822560 0.000000 0.000000 
#    y 0.000000 1.832470 0.000000 
#    z 0.000000 0.000000 1.770700 
# 
# From -- ./inp_files/34754.got.cif
#   From: 2010.03.12/outbox.cif.g09.slc.cpg/sg63_18_cif.got.tgz:34754.got - 2010.04.10 19:34:48.
