data_PCOD8260589
_publ_section_title
;
Structure prediction by ZEFSAII (Michael W. Deem and Ramdas Pophale) SiO2 
 PCOD8260589
Probable space group: C M C M
;
_chemical_formula_sum "Si O2"
_cell_formula_units_Z 96
_cell_length_a 22.822075
_cell_length_b 9.661362
_cell_length_c 22.845295
_cell_angle_alpha 90.000000
_cell_angle_beta 90.000000
_cell_angle_gamma 90.000000
_cell_volume 5037.212282
_symmetry_space_group_name_H-M "C M C M"
_symmetry_group_IT_number 63
_symmetry_cell_setting 'orthorhombic'
loop_
_space_group_symop_operation_xyz
x,y,z
-x,-y,1/2+z
x,-y,-z
-x,y,1/2-z
-x,-y,-z
x,y,1/2-z
-x,y,z
x,-y,1/2+z
1/2+x,1/2+y,z
1/2-x,1/2-y,1/2+z
1/2+x,1/2-y,-z
1/2-x,1/2+y,1/2-z
1/2-x,1/2-y,-z
1/2+x,1/2+y,1/2-z
1/2-x,1/2+y,z
1/2+x,1/2-y,1/2+z
loop_
_atom_site_type_symbol
_atom_site_label
_atom_site_fract_x
_atom_site_fract_y
_atom_site_fract_z
Si Si1 0.500000 0.908662 0.442932
Si Si2 0.670231 0.234880 0.126968
Si Si3 0.301322 0.347041 0.750000
Si Si4 0.126261 0.467299 0.430659
Si Si5 0.684418 0.322961 0.250000
Si Si6 0.000000 0.084716 0.440849
Si Si7 0.877514 0.986955 0.431347
Si Si8 0.808253 0.217537 0.123352
O O1 0.559180 0.949477 0.409007
O O2 0.500000 0.746015 0.457139
O O3 0.500000 0.000000 0.500000
O O4 0.648531 0.284626 0.191336
O O5 0.632981 0.326171 0.081772
O O6 0.739845 0.252942 0.120404
O O7 0.654938 0.078066 0.112346
O O8 0.297569 0.514940 0.750000
O O9 0.236578 0.287194 0.750000
O O10 0.331706 0.288297 0.809113
O O11 0.132307 0.500000 0.500000
O O12 0.158594 0.324892 0.417594
O O13 0.000000 0.000000 0.500000
O O14 0.940338 0.042672 0.406004
O O15 0.877009 0.000000 0.500000
O O16 0.822555 0.067710 0.403488
#
# Coordination Sequence:
#
# PCOD8260589 Si02
#       8
#     8  16   8  16   8   8  16  16
#     4  10  22  40  60  83 118 160 209 244 288 359
#     4  11  24  37  61  90 123 160 197 247 301 358
#     4  10  22  38  62  85 118 162 209 246 284 357
#     4  11  24  39  61  90 124 160 199 246 301 361
#     4  10  22  40  60  87 118 160 213 242 288 357
#     4  10  22  38  62  85 114 162 211 242 288 359
#     4  11  22  37  60  88 122 157 200 245 301 358
#     4  11  22  39  60  88 125 157 200 244 301 357
#
# _framework density 19.058160999999998
#
# number of rings (size 3 to 8) (size 9 to 14) (size 15 to 20)
#    0.000    1.333    3.333    2.000   14.000    4.000 
#    0.000    0.000    0.000    6.000    0.000    0.000 
#    0.000    0.000    0.000    0.000    0.000    0.000 
#
# Total GULP energy -594875.194126 kJ/mol
# GULP energy per Si atom -12393.233211 kJ/mol
# Density = 1.901478 g / cm^3
# Si number density = 19.058161 Si / 1000 Ang^3
#
#
#
# Elastic Constant Matrix: (Units=GPa)
#
#
# Indices 1 2 3 4 5 6 
#
# 1 96.8084 17.5885 34.8367 0.0000 0.0000 0.0000
# 2 17.5885 68.7131 19.9414 0.0000 0.0000 0.0000
# 3 34.8367 19.9414 95.1442 0.0000 0.0000 0.0000
# 4 0.0000 0.0000 0.0000 32.3484 0.0000 0.0000
# 5 0.0000 0.0000 0.0000 0.0000 7.9420 0.0000
# 6 0.0000 0.0000 0.0000 0.0000 0.0000 29.1239
#
#
#
# Elastic Compliance Matrix: (Units=1/GPa)
#
#
# Indices 1 2 3 4 5 6 
#
# 1 0.012134 -0.001934 -0.004037 0.000000 0.000000 0.000000
# 2 -0.001934 0.015804 -0.002604 0.000000 0.000000 0.000000
# 3 -0.004037 -0.002604 0.012534 0.000000 0.000000 0.000000
# 4 0.000000 0.000000 0.000000 0.030913 0.000000 0.000000
# 5 0.000000 0.000000 0.000000 0.000000 0.125912 0.000000
# 6 0.000000 0.000000 0.000000 0.000000 0.000000 0.034336
#
#
# Mechanical properties :
#
#
# Convention : Reuss Voigt Hill
#
# Bulk Modulus (GPa) = 42.88000 45.04434 43.96217
# Shear Modulus (GPa) = 19.48866 26.43616 22.96241
#
# Velocity S-wave (km/s) = 3.20126 3.72846 3.47487
# Velocity P-wave (km/s) = 6.01768 6.49782 6.26236
#
# Compressibility (1/GPa) = 0.02332089
#
# Stress axis : x y z
#
# Youngs Moduli (GPa) = 82.41326 63.27453 79.78005
#
# Poissons Ratio (x) = 0.12239 0.32211
# Poissons Ratio (y) = 0.15941 0.20776
# Poissons Ratio (z) = 0.33274 0.16478
#
# Static dielectric constant tensor:
#      x y z
#    x 4.081650 0.000000 0.000000 
#    y 0.000000 3.576430 0.000000 
#    z 0.000000 0.000000 3.772950 
# 
# 
# High freq. dielectric constant tensor:
#      x y z
#    x 1.729380 0.000000 0.000000 
#    y 0.000000 1.762010 0.000000 
#    z 0.000000 0.000000 1.729440 
# 
# From -- ./inp_files/65037.got.cif
#   From: 2010.03.12/outbox.cif.g09.slc.cpg/sg63_33_cif.got.tgz:65037.got - 2010.04.10 19:34:48.
