data_PCOD8260173
_publ_section_title
;
Structure prediction by ZEFSAII (Michael W. Deem and Ramdas Pophale) SiO2 
 PCOD8260173
Probable space group: C M C M
;
_chemical_formula_sum "Si O2"
_cell_formula_units_Z 104
_cell_length_a 26.289115
_cell_length_b 21.583966
_cell_length_c 9.225761
_cell_angle_alpha 90.000000
_cell_angle_beta 90.000000
_cell_angle_gamma 90.000000
_cell_volume 5234.912345
_symmetry_space_group_name_H-M "C M C M"
_symmetry_group_IT_number 63
_symmetry_cell_setting 'orthorhombic'
loop_
_space_group_symop_operation_xyz
x,y,z
-x,-y,1/2+z
x,-y,-z
-x,y,1/2-z
-x,-y,-z
x,y,1/2-z
-x,y,z
x,-y,1/2+z
1/2+x,1/2+y,z
1/2-x,1/2-y,1/2+z
1/2+x,1/2-y,-z
1/2-x,1/2+y,1/2-z
1/2-x,1/2-y,-z
1/2+x,1/2+y,1/2-z
1/2-x,1/2+y,z
1/2+x,1/2-y,1/2+z
loop_
_atom_site_type_symbol
_atom_site_label
_atom_site_fract_x
_atom_site_fract_y
_atom_site_fract_z
Si Si1 0.796599 0.644759 0.417341
Si Si2 0.443191 0.852779 0.914103
Si Si3 0.637437 0.254105 0.087329
Si Si4 0.875148 0.563438 0.921162
Si Si5 0.000000 0.933898 0.922965
Si Si6 0.294798 0.439559 0.916686
Si Si7 0.605510 0.374102 0.920071
O O1 0.812501 0.629442 0.250000
O O2 0.808491 0.718287 0.443853
O O3 0.830006 0.608511 0.532931
O O4 0.738665 0.622814 0.446585
O O5 0.438728 0.878073 0.750000
O O6 0.500000 0.831208 0.951146
O O7 0.407668 0.794152 0.936985
O O8 0.428309 0.908076 0.022976
O O9 0.637498 0.280791 0.250000
O O10 0.625603 0.309796 0.981447
O O11 0.876446 0.554292 0.750000
O O12 0.863846 0.500000 0.000000
O O13 0.950099 0.895693 0.975520
O O14 0.000000 0.944010 0.750000
O O15 0.000000 0.000000 0.000000
O O16 0.291455 0.457816 0.750000
O O17 0.352784 0.425754 0.963863
O O18 0.274172 0.500000 0.000000
O O19 0.603711 0.364664 0.750000
#
# Coordination Sequence:
#
# PCOD8260173 Si02
#       7
#    16  16  16  16   8  16  16
#     4   9  19  37  57  79 110 145 183 232 282 331
#     4   9  19  36  55  75 104 141 182 233 283 330
#     4   9  19  35  56  82 110 143 185 226 273 334
#     4  11  21  33  51  76 106 142 184 228 279 338
#     4  10  22  40  60  84 116 152 189 236 287 336
#     4  10  21  37  58  83 112 147 188 234 284 337
#     4  10  22  38  56  83 117 150 185 232 287 336
#
# _framework density 19.866616
#
# number of rings (size 3 to 8) (size 9 to 14) (size 15 to 20)
#    0.000    2.308    0.000    3.231    1.077    6.769 
#    0.000    0.000    0.000    0.000    0.000    0.000 
#    0.000    0.000    0.000    0.000    0.000    0.000 
#
# Total GULP energy -644481.612170 kJ/mol
# GULP energy per Si atom -12393.877157 kJ/mol
# Density = 1.982140 g / cm^3
# Si number density = 19.866616 Si / 1000 Ang^3
#
#
#
# Elastic Constant Matrix: (Units=GPa)
#
#
# Indices 1 2 3 4 5 6 
#
# 1 127.0739 42.8265 29.2956 0.0000 0.0000 0.0000
# 2 42.8265 102.8043 42.1023 0.0000 0.0000 0.0000
# 3 29.2956 42.1023 77.3972 0.0000 0.0000 0.0000
# 4 0.0000 0.0000 0.0000 39.4181 0.0000 0.0000
# 5 0.0000 0.0000 0.0000 0.0000 20.9898 0.0000
# 6 0.0000 0.0000 0.0000 0.0000 0.0000 16.8573
#
#
#
# Elastic Compliance Matrix: (Units=1/GPa)
#
#
# Indices 1 2 3 4 5 6 
#
# 1 0.009351 -0.003147 -0.001828 0.000000 0.000000 0.000000
# 2 -0.003147 0.013575 -0.006193 0.000000 0.000000 0.000000
# 3 -0.001828 -0.006193 0.016981 0.000000 0.000000 0.000000
# 4 0.000000 0.000000 0.000000 0.025369 0.000000 0.000000
# 5 0.000000 0.000000 0.000000 0.000000 0.047642 0.000000
# 6 0.000000 0.000000 0.000000 0.000000 0.000000 0.059321
#
#
# Mechanical properties :
#
#
# Convention : Reuss Voigt Hill
#
# Bulk Modulus (GPa) = 56.91071 59.52490 58.21781
# Shear Modulus (GPa) = 24.94606 28.32310 26.63458
#
# Velocity S-wave (km/s) = 3.54740 3.77989 3.66549
# Velocity P-wave (km/s) = 6.74443 7.00553 6.87622
#
# Compressibility (1/GPa) = 0.01757138
#
# Stress axis : x y z
#
# Youngs Moduli (GPa) = 106.93539 73.66726 58.88936
#
# Poissons Ratio (x) = 0.23184 0.10763
# Poissons Ratio (y) = 0.33654 0.36470
# Poissons Ratio (z) = 0.19544 0.45622
#
# Static dielectric constant tensor:
#      x y z
#    x 3.980630 0.000000 0.000000 
#    y 0.000000 3.577820 0.000000 
#    z 0.000000 0.000000 2.737400 
# 
# 
# High freq. dielectric constant tensor:
#      x y z
#    x 1.781930 0.000000 0.000000 
#    y 0.000000 1.767750 0.000000 
#    z 0.000000 0.000000 1.765270 
# 
# From -- ./inp_files/12613.got.cif
#   From: 2010.03.12/outbox.cif.g09.slc.cpg/sg63_7_cif.got.tgz:12613.got - 2010.04.10 19:34:48.
