data_PCOD8260107
_publ_section_title
;
Structure prediction by ZEFSAII (Michael W. Deem and Ramdas Pophale) SiO2 
 PCOD8260107
Probable space group: C M C M
;
_chemical_formula_sum "Si O2"
_cell_formula_units_Z 48
_cell_length_a 7.468961
_cell_length_b 38.027548
_cell_length_c 8.832897
_cell_angle_alpha 90.000000
_cell_angle_beta 90.000000
_cell_angle_gamma 90.000000
_cell_volume 2508.774814
_symmetry_space_group_name_H-M "C M C M"
_symmetry_group_IT_number 63
_symmetry_cell_setting 'orthorhombic'
loop_
_space_group_symop_operation_xyz
x,y,z
-x,-y,1/2+z
x,-y,-z
-x,y,1/2-z
-x,-y,-z
x,y,1/2-z
-x,y,z
x,-y,1/2+z
1/2+x,1/2+y,z
1/2-x,1/2-y,1/2+z
1/2+x,1/2-y,-z
1/2-x,1/2+y,1/2-z
1/2-x,1/2-y,-z
1/2+x,1/2+y,1/2-z
1/2-x,1/2+y,z
1/2+x,1/2-y,1/2+z
loop_
_atom_site_type_symbol
_atom_site_label
_atom_site_fract_x
_atom_site_fract_y
_atom_site_fract_z
Si Si1 0.293253 0.212967 0.425769
Si Si2 0.000000 0.165520 0.928752
Si Si3 0.798309 0.535902 0.072582
Si Si4 0.500000 0.409539 0.571957
O O1 0.242399 0.215145 0.250000
O O2 0.500000 0.203117 0.449221
O O3 0.250000 0.250000 0.500000
O O4 0.178116 0.182828 0.504106
O O5 0.000000 0.170758 0.750000
O O6 0.000000 0.124913 0.971073
O O7 0.789726 0.530089 0.250000
O O8 0.675052 0.568447 0.024957
O O9 0.000000 0.544101 0.016753
O O10 0.725170 0.500000 0.000000
O O11 0.500000 0.399979 0.750000
#
# Coordination Sequence:
#
# PCOD8260107 Si02
#       4
#    16   8  16   8
#     4  11  23  40  65  91 117 151 193 243 296 353
#     4  12  26  41  59  88 123 160 200 246 301 357
#     4   9  18  33  55  82 111 146 189 237 289 346
#     4  10  21  37  55  78 114 154 194 240 290 347
#
# _framework density 19.132843000000001
#
# number of rings (size 3 to 8) (size 9 to 14) (size 15 to 20)
#    0.000    1.667    1.667    3.000    0.000    4.667 
#    0.000    3.333    0.000    0.000    0.000    0.000 
#    0.000    0.000    0.000    0.000    0.000    0.000 
#
# Total GULP energy -297690.166267 kJ/mol
# GULP energy per Si atom -12403.756928 kJ/mol
# Density = 1.908930 g / cm^3
# Si number density = 19.132843 Si / 1000 Ang^3
#
#
#
# Elastic Constant Matrix: (Units=GPa)
#
#
# Indices 1 2 3 4 5 6 
#
# 1 128.5687 74.4728 64.2894 0.0000 0.0000 0.0000
# 2 74.4728 150.6794 65.9718 0.0000 0.0000 0.0000
# 3 64.2894 65.9718 114.6991 0.0000 0.0000 0.0000
# 4 0.0000 0.0000 0.0000 39.7470 0.0000 0.0000
# 5 0.0000 0.0000 0.0000 0.0000 25.3777 0.0000
# 6 0.0000 0.0000 0.0000 0.0000 0.0000 28.3144
#
#
#
# Elastic Compliance Matrix: (Units=1/GPa)
#
#
# Indices 1 2 3 4 5 6 
#
# 1 0.012490 -0.004154 -0.004611 0.000000 0.000000 0.000000
# 2 -0.004154 0.010252 -0.003568 0.000000 0.000000 0.000000
# 3 -0.004611 -0.003568 0.013356 0.000000 0.000000 0.000000
# 4 0.000000 0.000000 0.000000 0.025159 0.000000 0.000000
# 5 0.000000 0.000000 0.000000 0.000000 0.039405 0.000000
# 6 0.000000 0.000000 0.000000 0.000000 0.000000 0.035318
#
#
# Mechanical properties :
#
#
# Convention : Reuss Voigt Hill
#
# Bulk Modulus (GPa) = 87.48885 89.26837 88.37861
# Shear Modulus (GPa) = 30.40307 31.30203 30.85255
#
# Velocity S-wave (km/s) = 3.99062 4.04918 4.02001
# Velocity P-wave (km/s) = 8.18900 8.28369 8.23648
#
# Compressibility (1/GPa) = 0.01143003
#
# Stress axis : x y z
#
# Youngs Moduli (GPa) = 80.06329 97.54094 74.87519
#
# Poissons Ratio (x) = 0.40520 0.34528
# Poissons Ratio (y) = 0.33260 0.26718
# Poissons Ratio (z) = 0.36920 0.34805
#
# Static dielectric constant tensor:
#      x y z
#    x 2.981600 0.000000 0.000000 
#    y 0.000000 3.459300 0.000000 
#    z 0.000000 0.000000 3.546350 
# 
# 
# High freq. dielectric constant tensor:
#      x y z
#    x 1.761460 0.000000 0.000000 
#    y 0.000000 1.742070 0.000000 
#    z 0.000000 0.000000 1.746100 
# 
# From -- ./inp_files/2014.got.cif
#   From: 2010.03.12/outbox.cif.g09.slc.cpg/sg63_2_cif.got.tgz:2014.got - 2010.04.10 19:34:48.
