data_PCOD8260055
_publ_section_title
;
Structure prediction by ZEFSAII (Michael W. Deem and Ramdas Pophale) SiO2 
 PCOD8260055
Probable space group: C M C M
;
_chemical_formula_sum "Si O2"
_cell_formula_units_Z 96
_cell_length_a 23.093695
_cell_length_b 25.384156
_cell_length_c 8.576010
_cell_angle_alpha 90.000000
_cell_angle_beta 90.000000
_cell_angle_gamma 90.000000
_cell_volume 5027.376753
_symmetry_space_group_name_H-M "C M C M"
_symmetry_group_IT_number 63
_symmetry_cell_setting 'orthorhombic'
loop_
_space_group_symop_operation_xyz
x,y,z
-x,-y,1/2+z
x,-y,-z
-x,y,1/2-z
-x,-y,-z
x,y,1/2-z
-x,y,z
x,-y,1/2+z
1/2+x,1/2+y,z
1/2-x,1/2-y,1/2+z
1/2+x,1/2-y,-z
1/2-x,1/2+y,1/2-z
1/2-x,1/2-y,-z
1/2+x,1/2+y,1/2-z
1/2-x,1/2+y,z
1/2+x,1/2-y,1/2+z
loop_
_atom_site_type_symbol
_atom_site_label
_atom_site_fract_x
_atom_site_fract_y
_atom_site_fract_z
Si Si1 0.362598 0.650348 0.566459
Si Si2 0.433438 0.248050 0.430121
Si Si3 0.869227 0.654142 0.930887
Si Si4 0.751643 0.691557 0.432767
Si Si5 0.065276 0.055576 0.433716
Si Si6 0.432926 0.943265 0.568166
O O1 0.366221 0.643370 0.750000
O O2 0.396234 0.702545 0.511295
O O3 0.296526 0.654943 0.512404
O O4 0.390978 0.599961 0.488662
O O5 0.420124 0.234720 0.250000
O O6 0.500000 0.262638 0.456084
O O7 0.417816 0.197716 0.533391
O O8 0.852419 0.655725 0.750000
O O9 0.813108 0.665232 0.034532
O O10 0.893975 0.597457 0.974124
O O11 0.740093 0.694516 0.250000
O O12 0.750000 0.750000 0.500000
O O13 0.066402 0.052378 0.250000
O O14 0.000000 0.067773 0.494342
O O15 0.087203 0.000000 0.500000
O O16 0.417435 0.941274 0.750000
O O17 0.500000 0.929418 0.539855
O O18 0.417604 0.000000 0.500000
#
# Coordination Sequence:
#
# PCOD8260055 Si02
#       6
#    16  16  16  16  16  16
#     4  11  22  38  61  88 119 157 199 245 299 356
#     4  10  21  36  56  84 119 156 193 240 297 354
#     4  12  24  38  59  87 119 158 201 245 295 353
#     4  12  24  41  62  86 117 158 202 246 297 354
#     4  10  21  38  61  89 122 160 202 247 297 354
#     4  10  21  39  63  90 122 159 199 245 298 355
#
# _framework density 19.095447
#
# number of rings (size 3 to 8) (size 9 to 14) (size 15 to 20)
#    0.000    1.167    1.667    5.500    0.000    5.667 
#    0.000    0.833    0.000    0.000    0.000    0.000 
#    0.000    0.000    0.000    0.000    0.000    0.000 
#
# Total GULP energy -595532.493810 kJ/mol
# GULP energy per Si atom -12406.926954 kJ/mol
# Density = 1.905198 g / cm^3
# Si number density = 19.095447 Si / 1000 Ang^3
#
#
#
# Elastic Constant Matrix: (Units=GPa)
#
#
# Indices 1 2 3 4 5 6 
#
# 1 81.9516 42.4130 9.5045 0.0000 0.0000 0.0000
# 2 42.4130 117.9571 28.3960 0.0000 0.0000 0.0000
# 3 9.5045 28.3960 63.3834 0.0000 0.0000 0.0000
# 4 0.0000 0.0000 0.0000 36.0649 0.0000 0.0000
# 5 0.0000 0.0000 0.0000 0.0000 30.3197 0.0000
# 6 0.0000 0.0000 0.0000 0.0000 0.0000 26.0250
#
#
#
# Elastic Compliance Matrix: (Units=1/GPa)
#
#
# Indices 1 2 3 4 5 6 
#
# 1 0.014994 -0.005436 0.000187 0.000000 0.000000 0.000000
# 2 -0.005436 0.011474 -0.004325 0.000000 0.000000 0.000000
# 3 0.000187 -0.004325 0.017687 0.000000 0.000000 0.000000
# 4 0.000000 0.000000 0.000000 0.027728 0.000000 0.000000
# 5 0.000000 0.000000 0.000000 0.000000 0.032982 0.000000
# 6 0.000000 0.000000 0.000000 0.000000 0.000000 0.038425
#
#
# Mechanical properties :
#
#
# Convention : Reuss Voigt Hill
#
# Bulk Modulus (GPa) = 39.99083 47.10211 43.54647
# Shear Modulus (GPa) = 29.27876 30.68049 29.97963
#
# Velocity S-wave (km/s) = 3.91997 4.01270 3.96661
# Velocity P-wave (km/s) = 6.44021 6.79627 6.62063
#
# Compressibility (1/GPa) = 0.02500573
#
# Stress axis : x y z
#
# Youngs Moduli (GPa) = 66.69262 87.15700 56.54011
#
# Poissons Ratio (x) = 0.47382 -0.01058
# Poissons Ratio (y) = 0.36257 0.24454
# Poissons Ratio (z) = -0.01248 0.37695
#
# Static dielectric constant tensor:
#      x y z
#    x 3.712720 0.000000 0.000000 
#    y 0.000000 3.505510 0.000000 
#    z 0.000000 0.000000 4.790160 
# 
# 
# High freq. dielectric constant tensor:
#      x y z
#    x 1.743830 0.000000 0.000000 
#    y 0.000000 1.745020 0.000000 
#    z 0.000000 0.000000 1.755140 
# 
# From -- ./inp_files/10431.got.cif
#   From: 2010.03.12/outbox.cif.g09.slc.cpg/sg63_6_cif.got.tgz:10431.got - 2010.04.10 19:34:48.
