data_PCOD8260862
_publ_section_title
;
Structure prediction by ZEFSAII (Michael W. Deem and Ramdas Pophale) SiO2 
 PCOD8260862
Probable space group: C M C M
;
_chemical_formula_sum "Si O2"
_cell_formula_units_Z 52
_cell_length_a 15.463468
_cell_length_b 14.884403
_cell_length_c 11.386478
_cell_angle_alpha 90.000000
_cell_angle_beta 90.000000
_cell_angle_gamma 90.000000
_cell_volume 2620.762896
_symmetry_space_group_name_H-M "C M C M"
_symmetry_group_IT_number 63
_symmetry_cell_setting 'orthorhombic'
loop_
_space_group_symop_operation_xyz
x,y,z
-x,-y,1/2+z
x,-y,-z
-x,y,1/2-z
-x,-y,-z
x,y,1/2-z
-x,y,z
x,-y,1/2+z
1/2+x,1/2+y,z
1/2-x,1/2-y,1/2+z
1/2+x,1/2-y,-z
1/2-x,1/2+y,1/2-z
1/2-x,1/2-y,-z
1/2+x,1/2+y,1/2-z
1/2-x,1/2+y,z
1/2+x,1/2-y,1/2+z
loop_
_atom_site_type_symbol
_atom_site_label
_atom_site_fract_x
_atom_site_fract_y
_atom_site_fract_z
Si Si1 0.100690 0.274971 0.750000
Si Si2 0.337116 0.306272 0.018439
Si Si3 0.734162 0.500000 0.500000
Si Si4 0.673180 0.031631 0.250000
Si Si5 0.500000 0.925832 0.250000
Si Si6 0.500000 0.246513 0.876368
O O1 0.123146 0.210507 0.644234
O O2 0.163555 0.360998 0.750000
O O3 0.000000 0.303746 0.750000
O O4 0.324230 0.411768 0.000796
O O5 0.250000 0.250000 0.000000
O O6 0.410254 0.274409 0.931026
O O7 0.784889 0.499466 0.625517
O O8 0.580221 0.989825 0.250000
O O9 0.500000 0.862479 0.366068
O O10 0.500000 0.293702 0.750000
#
# Coordination Sequence:
#
# PCOD8260862 Si02
#       6
#     8  16   8   8   4   8
#     4  12  25  46  70 106 142 185 234 306 359 417
#     4  12  25  47  71  99 146 185 240 289 352 429
#     4  12  28  44  72 104 138 196 240 283 356 429
#     4  12  25  42  71 106 139 183 240 299 365 420
#     4  10  24  40  68 106 144 166 238 312 364 418
#     4  10  26  43  70 102 140 185 230 295 363 411
#
# _framework density 19.841550999999999
#
# number of rings (size 3 to 8) (size 9 to 14) (size 15 to 20)
#    0.462    0.000    5.385    2.769    4.308    1.231 
#    0.000    0.000    0.000    0.000    0.000    0.000 
#    0.000    0.000    0.000    0.000    0.000    0.000 
#
# Total GULP energy -322151.052589 kJ/mol
# GULP energy per Si atom -12390.425100 kJ/mol
# Density = 1.979639 g / cm^3
# Si number density = 19.841551 Si / 1000 Ang^3
#
#
#
# Elastic Constant Matrix: (Units=GPa)
#
#
# Indices 1 2 3 4 5 6 
#
# 1 128.8086 37.8609 57.3698 0.0000 0.0000 0.0000
# 2 37.8609 126.5361 25.7836 0.0000 0.0000 0.0000
# 3 57.3698 25.7836 169.8660 0.0000 0.0000 0.0000
# 4 0.0000 0.0000 0.0000 37.8355 0.0000 0.0000
# 5 0.0000 0.0000 0.0000 0.0000 25.7900 0.0000
# 6 0.0000 0.0000 0.0000 0.0000 0.0000 65.9556
#
#
#
# Elastic Compliance Matrix: (Units=1/GPa)
#
#
# Indices 1 2 3 4 5 6 
#
# 1 0.009756 -0.002319 -0.002943 0.000000 0.000000 0.000000
# 2 -0.002319 0.008707 -0.000538 0.000000 0.000000 0.000000
# 3 -0.002943 -0.000538 0.006963 0.000000 0.000000 0.000000
# 4 0.000000 0.000000 0.000000 0.026430 0.000000 0.000000
# 5 0.000000 0.000000 0.000000 0.000000 0.038775 0.000000
# 6 0.000000 0.000000 0.000000 0.000000 0.000000 0.015162
#
#
# Mechanical properties :
#
#
# Convention : Reuss Voigt Hill
#
# Bulk Modulus (GPa) = 72.33745 74.13771 73.23758
# Shear Modulus (GPa) = 40.98337 46.19598 43.58968
#
# Velocity S-wave (km/s) = 4.54974 4.83042 4.69218
# Velocity P-wave (km/s) = 8.00855 8.27989 8.14535
#
# Compressibility (1/GPa) = 0.01382410
#
# Stress axis : x y z
#
# Youngs Moduli (GPa) = 102.50181 114.85619 143.62462
#
# Poissons Ratio (x) = 0.26640 0.42267
# Poissons Ratio (y) = 0.23774 0.07730
# Poissons Ratio (z) = 0.30165 0.06181
#
# Static dielectric constant tensor:
#      x y z
#    x 3.804760 0.000000 0.000000 
#    y 0.000000 3.713580 0.000000 
#    z 0.000000 0.000000 4.105960 
# 
# 
# High freq. dielectric constant tensor:
#      x y z
#    x 1.781670 0.000000 0.000000 
#    y 0.000000 1.781400 0.000000 
#    z 0.000000 0.000000 1.796500 
# 
# From -- ./inp_files/18657.got.cif
#   From: 2010.03.12/outbox.cif.g09.slc.cpg/sg63_10_cif.got.tgz:18657.got - 2010.04.10 19:34:48.
