data_PCOD8260850
_publ_section_title
;
Structure prediction by ZEFSAII (Michael W. Deem and Ramdas Pophale) SiO2 
 PCOD8260850
Probable space group: C M C M
;
_chemical_formula_sum "Si O2"
_cell_formula_units_Z 64
_cell_length_a 11.966468
_cell_length_b 30.872032
_cell_length_c 8.473767
_cell_angle_alpha 90.000000
_cell_angle_beta 90.000000
_cell_angle_gamma 90.000000
_cell_volume 3130.456820
_symmetry_space_group_name_H-M "C M C M"
_symmetry_group_IT_number 63
_symmetry_cell_setting 'orthorhombic'
loop_
_space_group_symop_operation_xyz
x,y,z
-x,-y,1/2+z
x,-y,-z
-x,y,1/2-z
-x,-y,-z
x,y,1/2-z
-x,y,z
x,-y,1/2+z
1/2+x,1/2+y,z
1/2-x,1/2-y,1/2+z
1/2+x,1/2-y,-z
1/2-x,1/2+y,1/2-z
1/2-x,1/2-y,-z
1/2+x,1/2+y,1/2-z
1/2-x,1/2+y,z
1/2+x,1/2-y,1/2+z
loop_
_atom_site_type_symbol
_atom_site_label
_atom_site_fract_x
_atom_site_fract_y
_atom_site_fract_z
Si Si1 0.129822 0.377687 0.935794
Si Si2 0.000000 0.831376 0.433041
Si Si3 0.500000 0.424299 0.933705
Si Si4 0.727447 0.544523 0.564402
Si Si5 0.227510 0.797004 0.565292
O O1 0.149808 0.384246 0.750000
O O2 0.182467 0.332321 0.995700
O O3 0.000000 0.377347 0.980201
O O4 0.188868 0.416483 0.027753
O O5 0.000000 0.882533 0.455349
O O6 0.105799 0.810962 0.515162
O O7 0.000000 0.819578 0.250000
O O8 0.500000 0.410876 0.750000
O O9 0.389717 0.451341 0.972720
O O10 0.782443 0.500000 0.500000
O O11 0.705720 0.542395 0.750000
O O12 0.235924 0.794304 0.750000
O O13 0.250000 0.750000 0.500000
#
# Coordination Sequence:
#
# PCOD8260850 Si02
#       5
#    16   8   8  16  16
#     4  10  23  44  67  92 128 172 216 267 323 380
#     4  12  24  41  67  98 132 172 218 267 324 387
#     4  12  23  41  66  96 133 168 210 267 327 385
#     4  12  25  42  66  96 129 169 214 265 322 386
#     4  11  24  42  67  98 133 172 216 269 325 383
#
# _framework density 20.444299999999998
#
# number of rings (size 3 to 8) (size 9 to 14) (size 15 to 20)
#    0.000    0.750    2.500    5.625    1.750    2.000 
#    0.000    0.000    0.000    0.000    0.000    0.000 
#    0.000    0.000    0.000    0.000    0.000    0.000 
#
# Total GULP energy -396967.577687 kJ/mol
# GULP energy per Si atom -12405.236803 kJ/mol
# Density = 2.039777 g / cm^3
# Si number density = 20.444300 Si / 1000 Ang^3
#
#
#
# Elastic Constant Matrix: (Units=GPa)
#
#
# Indices 1 2 3 4 5 6 
#
# 1 143.3708 64.6866 38.3799 0.0000 0.0000 0.0000
# 2 64.6866 174.3131 46.4665 0.0000 0.0000 0.0000
# 3 38.3799 46.4665 58.4907 0.0000 0.0000 0.0000
# 4 0.0000 0.0000 0.0000 39.7295 0.0000 0.0000
# 5 0.0000 0.0000 0.0000 0.0000 34.7106 0.0000
# 6 0.0000 0.0000 0.0000 0.0000 0.0000 31.6711
#
#
#
# Elastic Compliance Matrix: (Units=1/GPa)
#
#
# Indices 1 2 3 4 5 6 
#
# 1 0.009118 -0.002269 -0.004180 0.000000 0.000000 0.000000
# 2 -0.002269 0.007843 -0.004742 0.000000 0.000000 0.000000
# 3 -0.004180 -0.004742 0.023606 0.000000 0.000000 0.000000
# 4 0.000000 0.000000 0.000000 0.025170 0.000000 0.000000
# 5 0.000000 0.000000 0.000000 0.000000 0.028810 0.000000
# 6 0.000000 0.000000 0.000000 0.000000 0.000000 0.031575
#
#
# Mechanical properties :
#
#
# Convention : Reuss Voigt Hill
#
# Bulk Modulus (GPa) = 54.98957 75.02671 65.00814
# Shear Modulus (GPa) = 32.34890 36.33169 34.34030
#
# Velocity S-wave (km/s) = 3.98212 4.22015 4.10286
# Velocity P-wave (km/s) = 6.93532 7.77971 7.36962
#
# Compressibility (1/GPa) = 0.01818527
#
# Stress axis : x y z
#
# Youngs Moduli (GPa) = 109.67602 127.50440 42.36154
#
# Poissons Ratio (x) = 0.28934 0.17707
# Poissons Ratio (y) = 0.24889 0.20086
# Poissons Ratio (z) = 0.45845 0.60457
#
# Static dielectric constant tensor:
#      x y z
#    x 3.752970 0.000000 0.000000 
#    y 0.000000 4.170950 0.000000 
#    z 0.000000 0.000000 3.701970 
# 
# 
# High freq. dielectric constant tensor:
#      x y z
#    x 1.803800 0.000000 0.000000 
#    y 0.000000 1.817250 0.000000 
#    z 0.000000 0.000000 1.806720 
# 
# From -- ./inp_files/3157.got.cif
#   From: 2010.03.12/outbox.cif.g09.slc.cpg/sg63_2_cif.got.tgz:3157.got - 2010.04.10 19:34:48.
