data_PCOD8260062
_publ_section_title
;
Structure prediction by ZEFSAII (Michael W. Deem and Ramdas Pophale) SiO2 
 PCOD8260062
Probable space group: C M C M
;
_chemical_formula_sum "Si O2"
_cell_formula_units_Z 112
_cell_length_a 13.833931
_cell_length_b 13.257560
_cell_length_c 31.895382
_cell_angle_alpha 90.000000
_cell_angle_beta 90.000000
_cell_angle_gamma 90.000000
_cell_volume 5849.746071
_symmetry_space_group_name_H-M "C M C M"
_symmetry_group_IT_number 63
_symmetry_cell_setting 'orthorhombic'
loop_
_space_group_symop_operation_xyz
x,y,z
-x,-y,1/2+z
x,-y,-z
-x,y,1/2-z
-x,-y,-z
x,y,1/2-z
-x,y,z
x,-y,1/2+z
1/2+x,1/2+y,z
1/2-x,1/2-y,1/2+z
1/2+x,1/2-y,-z
1/2-x,1/2+y,1/2-z
1/2-x,1/2-y,-z
1/2+x,1/2+y,1/2-z
1/2-x,1/2+y,z
1/2+x,1/2-y,1/2+z
loop_
_atom_site_type_symbol
_atom_site_label
_atom_site_fract_x
_atom_site_fract_y
_atom_site_fract_z
Si Si1 0.708792 0.615001 0.078259
Si Si2 0.741634 0.267051 0.146673
Si Si3 0.390356 0.311748 0.495332
Si Si4 0.610114 0.123510 0.201296
Si Si5 0.111299 0.391012 0.201741
Si Si6 0.113617 0.908653 0.092311
Si Si7 0.891032 0.586846 0.032296
O O1 0.702300 0.707497 0.110152
O O2 0.676068 0.649561 0.032408
O O3 0.642968 0.525247 0.095539
O O4 0.820717 0.580353 0.072622
O O5 0.683304 0.189703 0.175005
O O6 0.823199 0.321213 0.173278
O O7 0.667481 0.348406 0.128629
O O8 0.500000 0.343885 0.505315
O O9 0.355074 0.364288 0.452602
O O10 0.380021 0.192191 0.491794
O O11 0.625043 0.148252 0.250000
O O12 0.500000 0.147765 0.188141
O O13 0.634343 0.007275 0.192015
O O14 0.134261 0.366805 0.250000
O O15 0.000000 0.366854 0.191609
O O16 0.000000 0.896495 0.099801
O O17 0.000000 0.573444 0.049572
O O18 0.862983 0.500000 0.000000
#
# Coordination Sequence:
#
# PCOD8260062 Si02
#       7
#    16  16  16  16  16  16  16
#     4  12  24  36  59  82 117 156 203 243 291 352
#     4  12  23  36  60  91 123 150 188 240 298 348
#     4  10  21  40  59  78 108 159 209 244 288 346
#     4   9  19  39  65  89 114 149 191 232 282 351
#     4   9  20  41  65  89 120 155 192 233 284 352
#     4  11  24  41  58  82 117 158 199 245 293 339
#     4  10  21  36  57  82 110 148 204 261 298 337
#
# _framework density 19.146129999999999
#
# number of rings (size 3 to 8) (size 9 to 14) (size 15 to 20)
#    0.000    1.571    1.429    4.714    2.000    2.857 
#    0.000    0.714    0.000    0.000    0.000    6.000 
#    0.000    0.000    0.000    0.000    0.000    0.000 
#
# Total GULP energy -694643.541150 kJ/mol
# GULP energy per Si atom -12404.348949 kJ/mol
# Density = 1.910255 g / cm^3
# Si number density = 19.146130 Si / 1000 Ang^3
#
#
#
# Elastic Constant Matrix: (Units=GPa)
#
#
# Indices 1 2 3 4 5 6 
#
# 1 106.6807 52.3398 70.9541 0.0000 0.0000 0.0000
# 2 52.3398 95.0289 51.4389 0.0000 0.0000 0.0000
# 3 70.9541 51.4389 96.5442 0.0000 0.0000 0.0000
# 4 0.0000 0.0000 0.0000 57.6056 0.0000 0.0000
# 5 0.0000 0.0000 0.0000 0.0000 30.8277 0.0000
# 6 0.0000 0.0000 0.0000 0.0000 0.0000 36.3420
#
#
#
# Elastic Compliance Matrix: (Units=1/GPa)
#
#
# Indices 1 2 3 4 5 6 
#
# 1 0.019452 -0.004181 -0.012068 0.000000 0.000000 0.000000
# 2 -0.004181 0.015687 -0.005285 0.000000 0.000000 0.000000
# 3 -0.012068 -0.005285 0.022043 0.000000 0.000000 0.000000
# 4 0.000000 0.000000 0.000000 0.017359 0.000000 0.000000
# 5 0.000000 0.000000 0.000000 0.000000 0.032438 0.000000
# 6 0.000000 0.000000 0.000000 0.000000 0.000000 0.027516
#
#
# Mechanical properties :
#
#
# Convention : Reuss Voigt Hill
#
# Bulk Modulus (GPa) = 70.85642 71.96882 71.41262
# Shear Modulus (GPa) = 27.43202 33.18981 30.31091
#
# Velocity S-wave (km/s) = 3.78930 4.16805 3.98318
# Velocity P-wave (km/s) = 7.49891 7.79964 7.65075
#
# Compressibility (1/GPa) = 0.01411305
#
# Stress axis : x y z
#
# Youngs Moduli (GPa) = 51.40932 63.74796 45.36548
#
# Poissons Ratio (x) = 0.26654 0.54748
# Poissons Ratio (y) = 0.21495 0.23976
# Poissons Ratio (z) = 0.62041 0.33691
#
# Static dielectric constant tensor:
#      x y z
#    x 3.673830 0.000000 0.000000 
#    y 0.000000 3.580280 0.000000 
#    z 0.000000 0.000000 3.399620 
# 
# 
# High freq. dielectric constant tensor:
#      x y z
#    x 1.756130 0.000000 0.000000 
#    y 0.000000 1.753910 0.000000 
#    z 0.000000 0.000000 1.734600 
# 
# From -- ./inp_files/73405.got.cif
#   From: 2010.03.12/outbox.cif.g09.slc.cpg/sg63_37_cif.got.tgz:73405.got - 2010.04.10 19:34:48.
