data_PCOD8260846
_publ_section_title
;
Structure prediction by ZEFSAII (Michael W. Deem and Ramdas Pophale) SiO2 
 PCOD8260846
Probable space group: C M C M
;
_chemical_formula_sum "Si O2"
_cell_formula_units_Z 96
_cell_length_a 21.527408
_cell_length_b 9.565971
_cell_length_c 23.111129
_cell_angle_alpha 90.000000
_cell_angle_beta 90.000000
_cell_angle_gamma 90.000000
_cell_volume 4759.287752
_symmetry_space_group_name_H-M "C M C M"
_symmetry_group_IT_number 63
_symmetry_cell_setting 'orthorhombic'
loop_
_space_group_symop_operation_xyz
x,y,z
-x,-y,1/2+z
x,-y,-z
-x,y,1/2-z
-x,-y,-z
x,y,1/2-z
-x,y,z
x,-y,1/2+z
1/2+x,1/2+y,z
1/2-x,1/2-y,1/2+z
1/2+x,1/2-y,-z
1/2-x,1/2+y,1/2-z
1/2-x,1/2-y,-z
1/2+x,1/2+y,1/2-z
1/2-x,1/2+y,z
1/2+x,1/2-y,1/2+z
loop_
_atom_site_type_symbol
_atom_site_label
_atom_site_fract_x
_atom_site_fract_y
_atom_site_fract_z
Si Si1 0.374300 0.517260 0.065298
Si Si2 0.347930 0.246665 0.134806
Si Si3 0.428227 0.011699 0.314472
Si Si4 0.720038 0.653108 0.750000
Si Si5 0.928771 0.204936 0.154665
Si Si6 0.239238 0.619461 0.459589
Si Si7 0.168771 0.854098 0.750000
O O1 0.379846 0.373277 0.100576
O O2 0.419041 0.634938 0.092318
O O3 0.303020 0.563796 0.067102
O O4 0.398097 0.500000 0.000000
O O5 0.313148 0.294932 0.192239
O O6 0.302062 0.159169 0.094543
O O7 0.402167 0.142286 0.151414
O O8 0.399119 0.995561 0.250000
O O9 0.500000 0.041402 0.308508
O O10 0.414847 0.869662 0.349714
O O11 0.790873 0.710785 0.750000
O O12 0.717431 0.483733 0.750000
O O13 0.877636 0.134104 0.195849
O O14 0.000000 0.180543 0.176439
O O15 0.208011 0.500000 0.500000
O O16 0.250000 0.750000 0.500000
#
# Coordination Sequence:
#
# PCOD8260846 Si02
#       7
#    16  16  16   8  16  16   8
#     4  11  24  44  65  98 133 176 231 277 336 402
#     4  12  24  42  65  98 138 169 220 277 345 396
#     4  10  23  43  67  97 131 175 223 274 340 406
#     4  12  28  40  63 109 137 173 206 285 345 399
#     4  11  24  45  71  96 134 183 228 278 332 401
#     4  11  23  42  67  95 130 182 225 270 334 410
#     4  12  25  44  67 101 140 177 222 267 345 415
#
# _framework density 20.171087
#
# number of rings (size 3 to 8) (size 9 to 14) (size 15 to 20)
#    0.000    0.833    6.667    1.250    4.667    1.000 
#    0.000    0.000    0.000    2.500    0.000    0.000 
#    0.000    0.000    0.000    0.000    0.000    0.000 
#
# Total GULP energy -595225.483260 kJ/mol
# GULP energy per Si atom -12400.530901 kJ/mol
# Density = 2.012518 g / cm^3
# Si number density = 20.171087 Si / 1000 Ang^3
#
#
#
# Elastic Constant Matrix: (Units=GPa)
#
#
# Indices 1 2 3 4 5 6 
#
# 1 68.7466 55.8469 43.8263 0.0000 0.0000 0.0000
# 2 55.8469 154.3378 71.6625 0.0000 0.0000 0.0000
# 3 43.8263 71.6625 138.3411 0.0000 0.0000 0.0000
# 4 0.0000 0.0000 0.0000 42.7445 0.0000 0.0000
# 5 0.0000 0.0000 0.0000 0.0000 -14.7245 0.0000
# 6 0.0000 0.0000 0.0000 0.0000 0.0000 37.5246
#
#
#
# Elastic Compliance Matrix: (Units=1/GPa)
#
#
# Indices 1 2 3 4 5 6 
#
# 1 0.021983 -0.006216 -0.003744 0.000000 0.000000 0.000000
# 2 -0.006216 0.010289 -0.003361 0.000000 0.000000 0.000000
# 3 -0.003744 -0.003361 0.010156 0.000000 0.000000 0.000000
# 4 0.000000 0.000000 0.000000 0.023395 0.000000 0.000000
# 5 0.000000 0.000000 0.000000 0.000000 -0.067914 0.000000
# 6 0.000000 0.000000 0.000000 0.000000 0.000000 0.026649
#
#
# Mechanical properties :
#
#
# Convention : Reuss Voigt Hill
#
# Bulk Modulus (GPa) = 63.34834 78.23298 70.79066
# Shear Modulus (GPa) = 88.55792 25.78157 57.16975
#
# Velocity S-wave (km/s) = 6.63315 3.57899 5.32954
# Velocity P-wave (km/s) = 9.49414 7.47983 8.54653
#
# Compressibility (1/GPa) = 0.01578573
#
# Stress axis : x y z
#
# Youngs Moduli (GPa) = 45.49046 97.19214 98.46880
#
# Poissons Ratio (x) = 0.60413 0.36868
# Poissons Ratio (y) = 0.28276 0.33091
# Poissons Ratio (z) = 0.17032 0.32662
#
# Static dielectric constant tensor:
#      x y z
#    x 3.228630 0.000000 0.000000 
#    y 0.000000 3.855650 0.000000 
#    z 0.000000 0.000000 3.749320 
# 
# 
# High freq. dielectric constant tensor:
#      x y z
#    x 1.774400 0.000000 0.000000 
#    y 0.000000 1.803260 0.000000 
#    z 0.000000 0.000000 1.797050 
# 
# From -- ./inp_files/65015.got.cif
#   From: 2010.03.12/outbox.cif.g09.slc.cpg/sg63_33_cif.got.tgz:65015.got - 2010.04.10 19:34:48.
