data_PCOD8260624
_publ_section_title
;
Structure prediction by ZEFSAII (Michael W. Deem and Ramdas Pophale) SiO2 
 PCOD8260624
Probable space group: C M C M
;
_chemical_formula_sum "Si O2"
_cell_formula_units_Z 80
_cell_length_a 8.823397
_cell_length_b 24.765668
_cell_length_c 18.421001
_cell_angle_alpha 90.000000
_cell_angle_beta 90.000000
_cell_angle_gamma 90.000000
_cell_volume 4025.307784
_symmetry_space_group_name_H-M "C M C M"
_symmetry_group_IT_number 63
_symmetry_cell_setting 'orthorhombic'
loop_
_space_group_symop_operation_xyz
x,y,z
-x,-y,1/2+z
x,-y,-z
-x,y,1/2-z
-x,-y,-z
x,y,1/2-z
-x,y,z
x,-y,1/2+z
1/2+x,1/2+y,z
1/2-x,1/2-y,1/2+z
1/2+x,1/2-y,-z
1/2-x,1/2+y,1/2-z
1/2-x,1/2-y,-z
1/2+x,1/2+y,1/2-z
1/2-x,1/2+y,z
1/2+x,1/2-y,1/2+z
loop_
_atom_site_type_symbol
_atom_site_label
_atom_site_fract_x
_atom_site_fract_y
_atom_site_fract_z
Si Si1 0.173705 0.321997 0.666863
Si Si2 0.824073 0.980024 0.334105
Si Si3 0.321563 0.108279 0.572882
Si Si4 0.825530 0.222657 0.931092
Si Si5 0.822422 0.914704 0.577743
O O1 0.226827 0.323437 0.750000
O O2 0.192476 0.261111 0.638488
O O3 0.280137 0.360712 0.620489
O O4 0.000000 0.341171 0.658230
O O5 0.790331 0.989955 0.250000
O O6 0.725115 0.929820 0.360678
O O7 0.000000 0.967262 0.348467
O O8 0.771948 0.033751 0.375773
O O9 0.500000 0.113802 0.568035
O O10 0.253872 0.166868 0.588083
O O11 0.261778 0.082282 0.498669
O O12 0.000000 0.211428 0.949879
O O13 0.750000 0.250000 0.000000
O O14 0.000000 0.914524 0.562490
#
# Coordination Sequence:
#
# PCOD8260624 Si02
#       5
#    16  16  16  16  16
#     4  10  22  39  61  91 125 160 200 250 312 374
#     4  10  23  43  64  89 123 162 205 256 314 372
#     4  12  25  40  62  92 125 164 209 257 308 366
#     4  11  22  39  63  90 123 164 205 252 306 363
#     4  11  22  39  65  93 122 160 207 257 309 368
#
# _framework density 19.874257
#
# number of rings (size 3 to 8) (size 9 to 14) (size 15 to 20)
#    0.000    1.200    2.000    4.200    0.000    7.200 
#    0.000    2.000    0.000    0.000    0.000    0.000 
#    0.000    0.000    0.000    0.000    0.000    0.000 
#
# Total GULP energy -496282.903662 kJ/mol
# GULP energy per Si atom -12407.072592 kJ/mol
# Density = 1.982902 g / cm^3
# Si number density = 19.874257 Si / 1000 Ang^3
#
#
#
# Elastic Constant Matrix: (Units=GPa)
#
#
# Indices 1 2 3 4 5 6 
#
# 1 111.3692 51.5490 24.1253 0.0000 0.0000 0.0000
# 2 51.5490 129.3940 26.0922 0.0000 0.0000 0.0000
# 3 24.1253 26.0922 67.2792 0.0000 0.0000 0.0000
# 4 0.0000 0.0000 0.0000 31.2744 0.0000 0.0000
# 5 0.0000 0.0000 0.0000 0.0000 31.6911 0.0000
# 6 0.0000 0.0000 0.0000 0.0000 0.0000 34.6591
#
#
#
# Elastic Compliance Matrix: (Units=1/GPa)
#
#
# Indices 1 2 3 4 5 6 
#
# 1 0.011390 -0.004029 -0.002522 0.000000 0.000000 0.000000
# 2 -0.004029 0.009809 -0.002359 0.000000 0.000000 0.000000
# 3 -0.002522 -0.002359 0.016683 0.000000 0.000000 0.000000
# 4 0.000000 0.000000 0.000000 0.031975 0.000000 0.000000
# 5 0.000000 0.000000 0.000000 0.000000 0.031555 0.000000
# 6 0.000000 0.000000 0.000000 0.000000 0.000000 0.028852
#
#
# Mechanical properties :
#
#
# Convention : Reuss Voigt Hill
#
# Bulk Modulus (GPa) = 49.84670 56.84171 53.34420
# Shear Modulus (GPa) = 32.30542 33.27665 32.79104
#
# Velocity S-wave (km/s) = 4.03611 4.09633 4.06633
# Velocity P-wave (km/s) = 6.84513 7.14395 6.99613
#
# Compressibility (1/GPa) = 0.02006151
#
# Stress axis : x y z
#
# Youngs Moduli (GPa) = 87.79282 101.94377 59.94227
#
# Poissons Ratio (x) = 0.41076 0.15116
# Poissons Ratio (y) = 0.35374 0.14143
# Poissons Ratio (z) = 0.22140 0.24053
#
# Static dielectric constant tensor:
#      x y z
#    x 2.661240 0.000000 0.000000 
#    y 0.000000 3.796990 0.000000 
#    z 0.000000 0.000000 3.687940 
# 
# 
# High freq. dielectric constant tensor:
#      x y z
#    x 1.779140 0.000000 0.000000 
#    y 0.000000 1.787650 0.000000 
#    z 0.000000 0.000000 1.781620 
# 
# From -- ./inp_files/40534.got.cif
#   From: 2010.03.12/outbox.cif.g09.slc.cpg/sg63_21_cif.got.tgz:40534.got - 2010.04.10 19:34:48.
