data_PCOD8260398
_publ_section_title
;
Structure prediction by ZEFSAII (Michael W. Deem and Ramdas Pophale) SiO2 
 PCOD8260398
Probable space group: C M C M
;
_chemical_formula_sum "Si O2"
_cell_formula_units_Z 72
_cell_length_a 7.484183
_cell_length_b 28.772801
_cell_length_c 17.861574
_cell_angle_alpha 90.000000
_cell_angle_beta 90.000000
_cell_angle_gamma 90.000000
_cell_volume 3846.327565
_symmetry_space_group_name_H-M "C M C M"
_symmetry_group_IT_number 63
_symmetry_cell_setting 'orthorhombic'
loop_
_space_group_symop_operation_xyz
x,y,z
-x,-y,1/2+z
x,-y,-z
-x,y,1/2-z
-x,-y,-z
x,y,1/2-z
-x,y,z
x,-y,1/2+z
1/2+x,1/2+y,z
1/2-x,1/2-y,1/2+z
1/2+x,1/2-y,-z
1/2-x,1/2+y,1/2-z
1/2-x,1/2-y,-z
1/2+x,1/2+y,1/2-z
1/2-x,1/2+y,z
1/2+x,1/2-y,1/2+z
loop_
_atom_site_type_symbol
_atom_site_label
_atom_site_fract_x
_atom_site_fract_y
_atom_site_fract_z
Si Si1 0.203713 0.703909 0.663349
Si Si2 0.500000 0.961720 0.837172
Si Si3 0.000000 0.631194 0.432177
Si Si4 0.295960 0.622049 0.946145
Si Si5 0.793674 0.982758 0.082055
Si Si6 0.000000 0.723729 0.162468
O O1 0.234997 0.691971 0.750000
O O2 0.259496 0.658330 0.619075
O O3 0.324706 0.747278 0.638791
O O4 0.000000 0.717787 0.646131
O O5 0.500000 0.950517 0.750000
O O6 0.500000 0.913586 0.880619
O O7 0.676696 0.990889 0.856661
O O8 0.823278 0.632561 0.482125
O O9 0.000000 0.676098 0.381001
O O10 0.500000 0.624192 0.973716
O O11 0.251609 0.571769 0.911879
O O12 0.000000 0.994326 0.098428
O O13 0.736687 0.000000 0.000000
O O14 0.000000 0.712410 0.250000
#
# Coordination Sequence:
#
# PCOD8260398 Si02
#       6
#    16   8   8  16  16   8
#     4  10  21  39  61  87 119 153 196 252 310 364
#     4  12  25  40  62  93 125 164 210 252 293 359
#     4  12  24  40  61  87 124 161 209 248 296 358
#     4  11  22  38  63  93 120 158 198 247 307 360
#     4  10  21  40  64  87 124 164 199 247 307 360
#     4  10  23  43  61  81 121 166 199 247 309 360
#
# _framework density 18.719155000000001
#
# number of rings (size 3 to 8) (size 9 to 14) (size 15 to 20)
#    0.000    1.333    4.444    1.333    0.000    3.111 
#    0.000    2.222    0.000    4.000    0.000    0.000 
#    0.000    0.000    0.000    0.000    0.000    0.000 
#
# Total GULP energy -446585.495625 kJ/mol
# GULP energy per Si atom -12405.152656 kJ/mol
# Density = 1.867655 g / cm^3
# Si number density = 18.719155 Si / 1000 Ang^3
#
#
#
# Elastic Constant Matrix: (Units=GPa)
#
#
# Indices 1 2 3 4 5 6 
#
# 1 129.5112 76.2704 45.7836 0.0000 0.0000 0.0000
# 2 76.2704 157.7051 62.2145 0.0000 0.0000 0.0000
# 3 45.7836 62.2145 74.7509 0.0000 0.0000 0.0000
# 4 0.0000 0.0000 0.0000 65.5672 0.0000 0.0000
# 5 0.0000 0.0000 0.0000 0.0000 15.3099 0.0000
# 6 0.0000 0.0000 0.0000 0.0000 0.0000 -17.5783
#
#
#
# Elastic Compliance Matrix: (Units=1/GPa)
#
#
# Indices 1 2 3 4 5 6 
#
# 1 0.011400 -0.004108 -0.003564 0.000000 0.000000 0.000000
# 2 -0.004108 0.010921 -0.006573 0.000000 0.000000 0.000000
# 3 -0.003564 -0.006573 0.021031 0.000000 0.000000 0.000000
# 4 0.000000 0.000000 0.000000 0.015252 0.000000 0.000000
# 5 0.000000 0.000000 0.000000 0.000000 0.065317 0.000000
# 6 0.000000 0.000000 0.000000 0.000000 0.000000 -0.056888
#
#
# Mechanical properties :
#
#
# Convention : Reuss Voigt Hill
#
# Bulk Modulus (GPa) = 67.28128 81.16715 74.22422
# Shear Modulus (GPa) = 49.76303 24.50633 37.13468
#
# Velocity S-wave (km/s) = 5.16156 3.62215 4.45880
# Velocity P-wave (km/s) = 8.45830 7.80692 8.13913
#
# Compressibility (1/GPa) = 0.01486298
#
# Stress axis : x y z
#
# Youngs Moduli (GPa) = 87.71846 91.56969 47.54786
#
# Poissons Ratio (x) = 0.37612 0.16945
# Poissons Ratio (y) = 0.36030 0.31255
# Poissons Ratio (z) = 0.31260 0.60192
#
# Static dielectric constant tensor:
#      x y z
#    x 3.838640 0.000000 0.000000 
#    y 0.000000 3.519640 0.000000 
#    z 0.000000 0.000000 3.403620 
# 
# 
# High freq. dielectric constant tensor:
#      x y z
#    x 1.747050 0.000000 0.000000 
#    y 0.000000 1.735990 0.000000 
#    z 0.000000 0.000000 1.715670 
# 
# From -- ./inp_files/27962.got.cif
#   From: 2010.03.12/outbox.cif.g09.slc.cpg/sg63_14_cif.got.tgz:27962.got - 2010.04.10 19:34:48.
