data_PCOD8260959
_publ_section_title
;
Structure prediction by ZEFSAII (Michael W. Deem and Ramdas Pophale) SiO2 
 PCOD8260959
Probable space group: C M C M
;
_chemical_formula_sum "Si O2"
_cell_formula_units_Z 96
_cell_length_a 23.080023
_cell_length_b 13.049972
_cell_length_c 18.114430
_cell_angle_alpha 90.000000
_cell_angle_beta 90.000000
_cell_angle_gamma 90.000000
_cell_volume 5455.951360
_symmetry_space_group_name_H-M "C M C M"
_symmetry_group_IT_number 63
_symmetry_cell_setting 'orthorhombic'
loop_
_space_group_symop_operation_xyz
x,y,z
-x,-y,1/2+z
x,-y,-z
-x,y,1/2-z
-x,-y,-z
x,y,1/2-z
-x,y,z
x,-y,1/2+z
1/2+x,1/2+y,z
1/2-x,1/2-y,1/2+z
1/2+x,1/2-y,-z
1/2-x,1/2+y,1/2-z
1/2-x,1/2-y,-z
1/2+x,1/2+y,1/2-z
1/2-x,1/2+y,z
1/2+x,1/2-y,1/2+z
loop_
_atom_site_type_symbol
_atom_site_label
_atom_site_fract_x
_atom_site_fract_y
_atom_site_fract_z
Si Si1 0.741659 0.200205 0.579341
Si Si2 0.432699 0.089276 0.335556
Si Si3 0.844467 0.039526 0.918280
Si Si4 0.431956 0.677695 0.665336
Si Si5 0.735804 0.400256 0.836382
Si Si6 0.335850 0.976867 0.085213
O O1 0.750000 0.250000 0.500000
O O2 0.792117 0.118297 0.586725
O O3 0.744609 0.281474 0.644823
O O4 0.679618 0.143706 0.590916
O O5 0.417964 0.071116 0.250000
O O6 0.500000 0.071135 0.350997
O O7 0.415214 0.205790 0.357960
O O8 0.399369 0.005130 0.384714
O O9 0.901158 0.094107 0.885959
O O10 0.824656 0.941014 0.870740
O O11 0.858539 0.000000 0.000000
O O12 0.413380 0.659614 0.750000
O O13 0.500000 0.661377 0.655681
O O14 0.733467 0.416435 0.750000
O O15 0.791073 0.457571 0.867981
O O16 0.329676 0.000000 0.000000
#
# Coordination Sequence:
#
# PCOD8260959 Si02
#       6
#    16  16  16  16  16  16
#     4  11  20  37  53  76 112 147 176 216 276 327
#     4   9  19  36  56  80 109 139 179 229 272 318
#     4  11  21  34  57  78 109 145 178 228 274 326
#     4   9  19  36  58  82 108 140 181 230 278 322
#     4  11  22  35  53  81 109 140 183 225 267 325
#     4  11  21  33  56  78 107 145 178 222 270 326
#
# _framework density 17.595465000000001
#
# number of rings (size 3 to 8) (size 9 to 14) (size 15 to 20)
#    0.000    1.667    3.333    4.000    0.000    6.000 
#    0.000    0.000    0.000    1.000    0.000    2.333 
#    0.000    0.000    0.000    0.000    0.000    0.000 
#
# Total GULP energy -595098.941874 kJ/mol
# GULP energy per Si atom -12397.894622 kJ/mol
# Density = 1.755542 g / cm^3
# Si number density = 17.595465 Si / 1000 Ang^3
#
#
#
# Elastic Constant Matrix: (Units=GPa)
#
#
# Indices 1 2 3 4 5 6 
#
# 1 64.7328 40.9013 42.3847 0.0000 0.0000 0.0000
# 2 40.9013 97.7074 48.0955 0.0000 0.0000 0.0000
# 3 42.3847 48.0955 130.8127 0.0000 0.0000 0.0000
# 4 0.0000 0.0000 0.0000 40.0055 0.0000 0.0000
# 5 0.0000 0.0000 0.0000 0.0000 33.7285 0.0000
# 6 0.0000 0.0000 0.0000 0.0000 0.0000 37.3220
#
#
#
# Elastic Compliance Matrix: (Units=1/GPa)
#
#
# Indices 1 2 3 4 5 6 
#
# 1 0.023261 -0.007359 -0.004831 0.000000 0.000000 0.000000
# 2 -0.007359 0.014825 -0.003066 0.000000 0.000000 0.000000
# 3 -0.004831 -0.003066 0.010337 0.000000 0.000000 0.000000
# 4 0.000000 0.000000 0.000000 0.024997 0.000000 0.000000
# 5 0.000000 0.000000 0.000000 0.000000 0.029649 0.000000
# 6 0.000000 0.000000 0.000000 0.000000 0.000000 0.026794
#
#
# Mechanical properties :
#
#
# Convention : Reuss Voigt Hill
#
# Bulk Modulus (GPa) = 55.83454 61.77956 58.80705
# Shear Modulus (GPa) = 30.05801 33.00261 31.53031
#
# Velocity S-wave (km/s) = 4.13762 4.33555 4.23774
# Velocity P-wave (km/s) = 7.39106 7.76209 7.57884
#
# Compressibility (1/GPa) = 0.01791006
#
# Stress axis : x y z
#
# Youngs Moduli (GPa) = 42.98975 67.45568 96.73875
#
# Poissons Ratio (x) = 0.49643 0.46736
# Poissons Ratio (y) = 0.31638 0.29660
# Poissons Ratio (z) = 0.20769 0.20682
#
# Static dielectric constant tensor:
#      x y z
#    x 3.290720 0.000000 0.000000 
#    y 0.000000 3.591910 0.000000 
#    z 0.000000 0.000000 3.320340 
# 
# 
# High freq. dielectric constant tensor:
#      x y z
#    x 1.668080 0.000000 0.000000 
#    y 0.000000 1.681670 0.000000 
#    z 0.000000 0.000000 1.684370 
# 
# From -- ./inp_files/47982.got.cif
#   From: 2010.03.12/outbox.cif.g09.slc.cpg/sg63_24_cif.got.tgz:47982.got - 2010.04.10 19:34:48.
