data_PCOD8260138
_publ_section_title
;
Structure prediction by ZEFSAII (Michael W. Deem and Ramdas Pophale) SiO2 
 PCOD8260138
Probable space group: C M C M
;
_chemical_formula_sum "Si O2"
_cell_formula_units_Z 80
_cell_length_a 22.421204
_cell_length_b 12.254469
_cell_length_c 14.747070
_cell_angle_alpha 90.000000
_cell_angle_beta 90.000000
_cell_angle_gamma 90.000000
_cell_volume 4051.904206
_symmetry_space_group_name_H-M "C M C M"
_symmetry_group_IT_number 63
_symmetry_cell_setting 'orthorhombic'
loop_
_space_group_symop_operation_xyz
x,y,z
-x,-y,1/2+z
x,-y,-z
-x,y,1/2-z
-x,-y,-z
x,y,1/2-z
-x,y,z
x,-y,1/2+z
1/2+x,1/2+y,z
1/2-x,1/2-y,1/2+z
1/2+x,1/2-y,-z
1/2-x,1/2+y,1/2-z
1/2-x,1/2-y,-z
1/2+x,1/2+y,1/2-z
1/2-x,1/2+y,z
1/2+x,1/2-y,1/2+z
loop_
_atom_site_type_symbol
_atom_site_label
_atom_site_fract_x
_atom_site_fract_y
_atom_site_fract_z
Si Si1 0.642949 0.940924 0.091701
Si Si2 0.067736 0.247289 0.022478
Si Si3 0.818689 0.125832 0.012501
Si Si4 0.254858 0.782544 0.143856
Si Si5 0.065155 0.372180 0.847472
O O1 0.590482 0.853159 0.076394
O O2 0.698473 0.882561 0.139323
O O3 0.615493 0.034860 0.153503
O O4 0.665174 0.000000 0.000000
O O5 0.000000 0.217806 0.051852
O O6 0.111575 0.144493 0.037222
O O7 0.073948 0.274639 0.916972
O O8 0.802420 0.187249 0.917922
O O9 0.781398 0.172819 0.098124
O O10 0.804596 0.000000 0.000000
O O11 0.237984 0.761679 0.250000
O O12 0.067768 0.314808 0.750000
O O13 0.000000 0.426968 0.865319
#
# Coordination Sequence:
#
# PCOD8260138 Si02
#       5
#    16  16  16  16  16
#     4   9  16  29  50  77 108 136 168 212 265 320
#     4   9  18  32  50  72 102 140 178 216 258 304
#     4  10  22  39  56  79 108 137 177 222 262 313
#     4  10  21  37  57  80 106 137 173 217 269 320
#     4   9  16  26  44  73 105 135 169 210 258 312
#
# _framework density 19.743803
#
# number of rings (size 3 to 8) (size 9 to 14) (size 15 to 20)
#    0.000    2.600    0.000    1.800    0.000    6.000 
#    0.000    0.000    0.000    5.400    0.000    5.600 
#    0.000    0.000    0.000    0.000    0.000    0.000 
#
# Total GULP energy -495620.650585 kJ/mol
# GULP energy per Si atom -12390.516265 kJ/mol
# Density = 1.969886 g / cm^3
# Si number density = 19.743803 Si / 1000 Ang^3
#
#
#
# Elastic Constant Matrix: (Units=GPa)
#
#
# Indices 1 2 3 4 5 6 
#
# 1 85.6765 13.1465 6.3004 0.0000 0.0000 0.0000
# 2 13.1465 74.0841 8.9809 0.0000 0.0000 0.0000
# 3 6.3004 8.9809 97.1573 0.0000 0.0000 0.0000
# 4 0.0000 0.0000 0.0000 14.0912 0.0000 0.0000
# 5 0.0000 0.0000 0.0000 0.0000 18.2403 0.0000
# 6 0.0000 0.0000 0.0000 0.0000 0.0000 13.6187
#
#
#
# Elastic Compliance Matrix: (Units=1/GPa)
#
#
# Indices 1 2 3 4 5 6 
#
# 1 0.012032 -0.002064 -0.000589 0.000000 0.000000 0.000000
# 2 -0.002064 0.014005 -0.001161 0.000000 0.000000 0.000000
# 3 -0.000589 -0.001161 0.010438 0.000000 0.000000 0.000000
# 4 0.000000 0.000000 0.000000 0.070966 0.000000 0.000000
# 5 0.000000 0.000000 0.000000 0.000000 0.054824 0.000000
# 6 0.000000 0.000000 0.000000 0.000000 0.000000 0.073428
#
#
# Mechanical properties :
#
#
# Convention : Reuss Voigt Hill
#
# Bulk Modulus (GPa) = 34.66534 34.86373 34.76454
# Shear Modulus (GPa) = 19.76780 24.42272 22.09526
#
# Velocity S-wave (km/s) = 3.16763 3.52089 3.34892
# Velocity P-wave (km/s) = 5.56545 5.85024 5.70962
#
# Compressibility (1/GPa) = 0.02884726
#
# Stress axis : x y z
#
# Youngs Moduli (GPa) = 83.11302 71.40260 95.80281
#
# Poissons Ratio (x) = 0.14735 0.05647
# Poissons Ratio (y) = 0.17151 0.11120
# Poissons Ratio (z) = 0.04899 0.08288
#
# Static dielectric constant tensor:
#      x y z
#    x 3.776750 0.000000 0.000000 
#    y 0.000000 3.285020 0.000000 
#    z 0.000000 0.000000 3.466160 
# 
# 
# High freq. dielectric constant tensor:
#      x y z
#    x 1.777080 0.000000 0.000000 
#    y 0.000000 1.739640 0.000000 
#    z 0.000000 0.000000 1.756510 
# 
# From -- ./inp_files/36437.got.cif
#   From: 2010.03.12/outbox.cif.g09.slc.cpg/sg63_19_cif.got.tgz:36437.got - 2010.04.10 19:34:48.
