data_PCOD8260821
_publ_section_title
;
Structure prediction by ZEFSAII (Michael W. Deem and Ramdas Pophale) SiO2 
 PCOD8260821
Probable space group: C M C M
;
_chemical_formula_sum "Si O2"
_cell_formula_units_Z 88
_cell_length_a 17.308045
_cell_length_b 7.627103
_cell_length_c 29.146605
_cell_angle_alpha 90.000000
_cell_angle_beta 90.000000
_cell_angle_gamma 90.000000
_cell_volume 3847.650378
_symmetry_space_group_name_H-M "C M C M"
_symmetry_group_IT_number 63
_symmetry_cell_setting 'orthorhombic'
loop_
_space_group_symop_operation_xyz
x,y,z
-x,-y,1/2+z
x,-y,-z
-x,y,1/2-z
-x,-y,-z
x,y,1/2-z
-x,y,z
x,-y,1/2+z
1/2+x,1/2+y,z
1/2-x,1/2-y,1/2+z
1/2+x,1/2-y,-z
1/2-x,1/2+y,1/2-z
1/2-x,1/2-y,-z
1/2+x,1/2+y,1/2-z
1/2-x,1/2+y,z
1/2+x,1/2-y,1/2+z
loop_
_atom_site_type_symbol
_atom_site_label
_atom_site_fract_x
_atom_site_fract_y
_atom_site_fract_z
Si Si1 0.667164 0.480944 0.838008
Si Si2 0.500000 0.073078 0.329154
Si Si3 0.734118 0.648726 0.750000
Si Si4 0.500000 0.795683 0.088785
Si Si5 0.000000 0.023501 0.647985
Si Si6 0.726231 0.227082 0.102177
Si Si7 0.343179 0.921122 0.050088
Si Si8 0.622700 0.971560 0.750000
O O1 0.711494 0.536182 0.793590
O O2 0.576668 0.454482 0.825702
O O3 0.670006 0.622261 0.879460
O O4 0.710449 0.309384 0.857582
O O5 0.500000 0.263318 0.354444
O O6 0.425563 0.054636 0.296319
O O7 0.500000 0.917232 0.365818
O O8 0.693088 0.833990 0.750000
O O9 0.829551 0.657454 0.750000
O O10 0.500000 0.586455 0.100082
O O11 0.425751 0.832829 0.057690
O O12 0.670567 0.066427 0.089711
O O13 0.773728 0.281782 0.056464
O O14 0.339755 0.000000 0.000000
#
# Coordination Sequence:
#
# PCOD8260821 Si02
#       8
#    16   8   8   8   8  16  16   8
#     4  11  23  40  64  98 133 174 229 268 339 396
#     4  11  26  49  65  98 138 189 223 278 338 413
#     4  12  24  38  68 100 132 174 226 286 316 398
#     4  12  26  43  73  99 135 180 226 278 349 415
#     4  12  23  44  68  95 133 183 224 274 329 416
#     4  10  23  41  67  95 132 177 218 280 344 409
#     4  11  23  43  68  98 131 171 225 286 345 412
#     4  11  26  44  66  97 140 176 234 279 338 390
#
# _framework density 22.871099999999998
#
# number of rings (size 3 to 8) (size 9 to 14) (size 15 to 20)
#    0.000    0.909    3.636    3.000    5.091    1.818 
#    0.000    1.818    0.000    2.182    0.000    0.000 
#    0.000    0.000    0.000    0.000    0.000    0.000 
#
# Total GULP energy -545429.834850 kJ/mol
# GULP energy per Si atom -12396.132610 kJ/mol
# Density = 2.281904 g / cm^3
# Si number density = 22.871100 Si / 1000 Ang^3
#
#
#
# Elastic Constant Matrix: (Units=GPa)
#
#
# Indices 1 2 3 4 5 6 
#
# 1 144.4541 18.8254 20.5794 0.0000 0.0000 0.0000
# 2 18.8254 60.8642 3.5505 0.0000 0.0000 0.0000
# 3 20.5794 3.5505 73.1986 0.0000 0.0000 0.0000
# 4 0.0000 0.0000 0.0000 -0.8297 0.0000 0.0000
# 5 0.0000 0.0000 0.0000 0.0000 32.6649 0.0000
# 6 0.0000 0.0000 0.0000 0.0000 0.0000 28.8044
#
#
#
# Elastic Compliance Matrix: (Units=1/GPa)
#
#
# Indices 1 2 3 4 5 6 
#
# 1 0.007494 -0.002201 -0.002000 0.000000 0.000000 0.000000
# 2 -0.002201 0.017123 -0.000212 0.000000 0.000000 0.000000
# 3 -0.002000 -0.000212 0.014234 0.000000 0.000000 0.000000
# 4 0.000000 0.000000 0.000000 -1.205215 0.000000 0.000000
# 5 0.000000 0.000000 0.000000 0.000000 0.030614 0.000000
# 6 0.000000 0.000000 0.000000 0.000000 0.000000 0.034717
#
#
# Mechanical properties :
#
#
# Convention : Reuss Voigt Hill
#
# Bulk Modulus (GPa) = 33.30532 40.49196 36.89864
# Shear Modulus (GPa) = -4.62023 27.83202 11.60590
#
# Velocity S-wave (km/s) = -1.42285 3.49221 2.25510
# Velocity P-wave (km/s) = 3.44883 5.83125 4.79051
#
# Compressibility (1/GPa) = 0.03002523
#
# Stress axis : x y z
#
# Youngs Moduli (GPa) = 133.43186 58.40010 70.25392
#
# Poissons Ratio (x) = 0.12856 0.14053
# Poissons Ratio (y) = 0.29373 0.01487
# Poissons Ratio (z) = 0.26690 0.01236
#
# Static dielectric constant tensor:
#      x y z
#    x 4.487700 0.000000 0.000000 
#    y 0.000000 4.269730 0.000000 
#    z 0.000000 0.000000 3.914120 
# 
# 
# High freq. dielectric constant tensor:
#      x y z
#    x 1.922970 0.000000 0.000000 
#    y 0.000000 1.906010 0.000000 
#    z 0.000000 0.000000 1.885320 
# 
# From -- ./inp_files/73860.got.cif
#   From: 2010.03.12/outbox.cif.g09.slc.cpg/sg63_37_cif.got.tgz:73860.got - 2010.04.10 19:34:48.
