data_PCOD8260065
_publ_section_title
;
Structure prediction by ZEFSAII (Michael W. Deem and Ramdas Pophale) SiO2 
 PCOD8260065
Probable space group: C M C M
;
_chemical_formula_sum "Si O2"
_cell_formula_units_Z 88
_cell_length_a 22.103016
_cell_length_b 24.544263
_cell_length_c 8.814725
_cell_angle_alpha 90.000000
_cell_angle_beta 90.000000
_cell_angle_gamma 90.000000
_cell_volume 4782.008038
_symmetry_space_group_name_H-M "C M C M"
_symmetry_group_IT_number 63
_symmetry_cell_setting 'orthorhombic'
loop_
_space_group_symop_operation_xyz
x,y,z
-x,-y,1/2+z
x,-y,-z
-x,y,1/2-z
-x,-y,-z
x,y,1/2-z
-x,y,z
x,-y,1/2+z
1/2+x,1/2+y,z
1/2-x,1/2-y,1/2+z
1/2+x,1/2-y,-z
1/2-x,1/2+y,1/2-z
1/2-x,1/2-y,-z
1/2+x,1/2+y,1/2-z
1/2-x,1/2+y,z
1/2+x,1/2-y,1/2+z
loop_
_atom_site_type_symbol
_atom_site_label
_atom_site_fract_x
_atom_site_fract_y
_atom_site_fract_z
Si Si1 0.286516 0.556870 0.570731
Si Si2 0.647473 0.055965 0.926893
Si Si3 0.069598 0.759378 0.923369
Si Si4 0.611219 0.377190 0.928396
Si Si5 0.500000 0.559571 0.569823
Si Si6 0.570370 0.149398 0.074390
O O1 0.308869 0.500000 0.500000
O O2 0.298008 0.556162 0.750000
O O3 0.216836 0.567494 0.528356
O O4 0.323889 0.604687 0.491043
O O5 0.639681 0.048887 0.750000
O O6 0.607197 0.105599 0.980830
O O7 0.624031 0.000000 0.000000
O O8 0.078966 0.741268 0.750000
O O9 0.107965 0.812888 0.962785
O O10 0.000000 0.774017 0.955888
O O11 0.092096 0.709865 0.028269
O O12 0.604329 0.389038 0.750000
O O13 0.559338 0.408950 0.016737
O O14 0.500000 0.500000 0.500000
O O15 0.500000 0.555215 0.750000
O O16 0.583570 0.140356 0.250000
O O17 0.500000 0.142369 0.033828
#
# Coordination Sequence:
#
# PCOD8260065 Si02
#       6
#    16  16  16  16   8  16
#     4  10  21  37  56  80 108 144 186 227 275 329
#     4  10  21  38  60  83 111 145 182 223 271 329
#     4   9  18  35  56  78 108 145 183 224 273 326
#     4  11  21  36  56  80 109 144 187 230 278 329
#     4  12  24  36  52  76 110 146 185 236 283 324
#     4  10  21  36  57  86 115 142 178 223 272 327
#
# _framework density 18.40231
#
# number of rings (size 3 to 8) (size 9 to 14) (size 15 to 20)
#    0.000    1.818    0.909    3.545    0.000    5.091 
#    0.000    0.909    0.000    0.000    0.000    0.000 
#    0.000    0.000    0.000    0.000    0.000    0.000 
#
# Total GULP energy -545794.902211 kJ/mol
# GULP energy per Si atom -12404.429596 kJ/mol
# Density = 1.836043 g / cm^3
# Si number density = 18.402310 Si / 1000 Ang^3
#
#
#
# Elastic Constant Matrix: (Units=GPa)
#
#
# Indices 1 2 3 4 5 6 
#
# 1 66.3627 58.1195 38.8497 0.0000 0.0000 0.0000
# 2 58.1195 126.2204 50.0502 0.0000 0.0000 0.0000
# 3 38.8497 50.0502 89.1295 0.0000 0.0000 0.0000
# 4 0.0000 0.0000 0.0000 36.9095 0.0000 0.0000
# 5 0.0000 0.0000 0.0000 0.0000 32.0273 0.0000
# 6 0.0000 0.0000 0.0000 0.0000 0.0000 25.9084
#
#
#
# Elastic Compliance Matrix: (Units=1/GPa)
#
#
# Indices 1 2 3 4 5 6 
#
# 1 0.027781 -0.010279 -0.006337 0.000000 0.000000 0.000000
# 2 -0.010279 0.013996 -0.003379 0.000000 0.000000 0.000000
# 3 -0.006337 -0.003379 0.015879 0.000000 0.000000 0.000000
# 4 0.000000 0.000000 0.000000 0.027093 0.000000 0.000000
# 5 0.000000 0.000000 0.000000 0.000000 0.031223 0.000000
# 6 0.000000 0.000000 0.000000 0.000000 0.000000 0.038598
#
#
# Mechanical properties :
#
#
# Convention : Reuss Voigt Hill
#
# Bulk Modulus (GPa) = 56.60607 63.97238 60.28922
# Shear Modulus (GPa) = 24.94421 27.94859 26.44640
#
# Velocity S-wave (km/s) = 3.68570 3.90135 3.79505
# Velocity P-wave (km/s) = 6.99568 7.42514 7.21361
#
# Compressibility (1/GPa) = 0.01766595
#
# Stress axis : x y z
#
# Youngs Moduli (GPa) = 35.99623 71.45139 62.97630
#
# Poissons Ratio (x) = 0.73446 0.39907
# Poissons Ratio (y) = 0.37001 0.21277
# Poissons Ratio (z) = 0.22810 0.24141
#
# Static dielectric constant tensor:
#      x y z
#    x 3.306050 0.000000 0.000000 
#    y 0.000000 3.443440 0.000000 
#    z 0.000000 0.000000 3.599020 
# 
# 
# High freq. dielectric constant tensor:
#      x y z
#    x 1.700980 0.000000 0.000000 
#    y 0.000000 1.720280 0.000000 
#    z 0.000000 0.000000 1.728160 
# 
# From -- ./inp_files/8218.got.cif
#   From: 2010.03.12/outbox.cif.g09.slc.cpg/sg63_5_cif.got.tgz:8218.got - 2010.04.10 19:34:48.
