data_PCOD8260803
_publ_section_title
;
Structure prediction by ZEFSAII (Michael W. Deem and Ramdas Pophale) SiO2 
 PCOD8260803
Probable space group: C M C M
;
_chemical_formula_sum "Si O2"
_cell_formula_units_Z 84
_cell_length_a 11.508275
_cell_length_b 15.093001
_cell_length_c 23.107704
_cell_angle_alpha 90.000000
_cell_angle_beta 90.000000
_cell_angle_gamma 90.000000
_cell_volume 4013.678922
_symmetry_space_group_name_H-M "C M C M"
_symmetry_group_IT_number 63
_symmetry_cell_setting 'orthorhombic'
loop_
_space_group_symop_operation_xyz
x,y,z
-x,-y,1/2+z
x,-y,-z
-x,y,1/2-z
-x,-y,-z
x,y,1/2-z
-x,y,z
x,-y,1/2+z
1/2+x,1/2+y,z
1/2-x,1/2-y,1/2+z
1/2+x,1/2-y,-z
1/2-x,1/2+y,1/2-z
1/2-x,1/2-y,-z
1/2+x,1/2+y,1/2-z
1/2-x,1/2+y,z
1/2+x,1/2-y,1/2+z
loop_
_atom_site_type_symbol
_atom_site_label
_atom_site_fract_x
_atom_site_fract_y
_atom_site_fract_z
Si Si1 0.360787 0.386578 0.750000
Si Si2 0.500000 0.799513 0.374458
Si Si3 0.248686 0.993752 0.931316
Si Si4 0.000000 0.476703 0.066501
Si Si5 0.758619 0.078136 0.750000
Si Si6 0.000000 0.613166 0.750000
Si Si7 0.284730 0.315291 0.629386
Si Si8 0.637355 0.653403 0.863574
O O1 0.500000 0.370852 0.750000
O O2 0.336001 0.490626 0.750000
O O3 0.297874 0.342791 0.695808
O O4 0.500000 0.873137 0.423366
O O5 0.500000 0.826980 0.307164
O O6 0.388152 0.745444 0.390688
O O7 0.197826 0.901064 0.910616
O O8 0.380289 0.988754 0.905009
O O9 0.176422 0.078197 0.909044
O O10 0.248698 0.000000 0.000000
O O11 0.000000 0.500000 0.000000
O O12 0.619560 0.055689 0.750000
O O13 0.790800 0.136371 0.694716
O O14 0.169287 0.254898 0.618065
O O15 0.500000 0.646339 0.854104
#
# Coordination Sequence:
#
# PCOD8260803 Si02
#       8
#     8   8  16   8   8   4  16  16
#     4  12  24  42  71 105 138 181 222 272 343 412
#     4  12  22  44  73 103 130 181 234 279 337 403
#     4  11  26  47  69  99 135 180 232 284 340 401
#     4  10  22  48  72  94 136 177 231 294 336 396
#     4  12  23  43  71 100 139 180 222 274 345 401
#     4  12  22  42  72 100 138 178 228 288 324 408
#     4  12  25  43  72 102 135 178 230 277 334 415
#     4  12  26  46  67 101 142 178 218 283 344 405
#
# _framework density 20.928429999999999
#
# number of rings (size 3 to 8) (size 9 to 14) (size 15 to 20)
#    0.000    0.381    6.667    2.000    2.667    1.143 
#    1.714    0.000    0.000    0.000    0.000    0.000 
#    0.000    0.000    0.000    0.000    0.000    0.000 
#
# Total GULP energy -520571.901185 kJ/mol
# GULP energy per Si atom -12394.569076 kJ/mol
# Density = 2.088080 g / cm^3
# Si number density = 20.928430 Si / 1000 Ang^3
#
#
#
# Elastic Constant Matrix: (Units=GPa)
#
#
# Indices 1 2 3 4 5 6 
#
# 1 124.2035 21.1230 36.8011 0.0000 0.0000 0.0000
# 2 21.1230 136.2758 57.2763 0.0000 0.0000 0.0000
# 3 36.8011 57.2763 101.2797 0.0000 0.0000 0.0000
# 4 0.0000 0.0000 0.0000 -80.8030 0.0000 0.0000
# 5 0.0000 0.0000 0.0000 0.0000 25.4704 0.0000
# 6 0.0000 0.0000 0.0000 0.0000 0.0000 46.3242
#
#
#
# Elastic Compliance Matrix: (Units=1/GPa)
#
#
# Indices 1 2 3 4 5 6 
#
# 1 0.009023 -0.000027 -0.003263 0.000000 0.000000 0.000000
# 2 -0.000027 0.009626 -0.005434 0.000000 0.000000 0.000000
# 3 -0.003263 -0.005434 0.014132 0.000000 0.000000 0.000000
# 4 0.000000 0.000000 0.000000 -0.012376 0.000000 0.000000
# 5 0.000000 0.000000 0.000000 0.000000 0.039261 0.000000
# 6 0.000000 0.000000 0.000000 0.000000 0.000000 0.021587
#
#
# Mechanical properties :
#
#
# Convention : Reuss Voigt Hill
#
# Bulk Modulus (GPa) = 65.21955 65.79554 65.50754
# Shear Modulus (GPa) = 48.16335 14.63558 31.39946
#
# Velocity S-wave (km/s) = 4.80243 2.64733 3.87761
# Velocity P-wave (km/s) = 7.87286 6.39148 7.17053
#
# Compressibility (1/GPa) = 0.01533283
#
# Stress axis : x y z
#
# Youngs Moduli (GPa) = 110.83041 103.88373 70.75904
#
# Poissons Ratio (x) = 0.00281 0.23091
# Poissons Ratio (y) = 0.00299 0.38451
# Poissons Ratio (z) = 0.36167 0.56451
#
# Static dielectric constant tensor:
#      x y z
#    x 4.210810 0.000000 0.000000 
#    y 0.000000 3.989820 0.000000 
#    z 0.000000 0.000000 3.679930 
# 
# 
# High freq. dielectric constant tensor:
#      x y z
#    x 1.834390 0.000000 0.000000 
#    y 0.000000 1.830640 0.000000 
#    z 0.000000 0.000000 1.812140 
# 
# From -- ./inp_files/61319.got.cif
#   From: 2010.03.12/outbox.cif.g09.slc.cpg/sg63_31_cif.got.tgz:61319.got - 2010.04.10 19:34:48.
