data_PCOD8260384
_publ_section_title
;
Structure prediction by ZEFSAII (Michael W. Deem and Ramdas Pophale) SiO2 
 PCOD8260384
Probable space group: C M C M
;
_chemical_formula_sum "Si O2"
_cell_formula_units_Z 64
_cell_length_a 8.628522
_cell_length_b 22.465785
_cell_length_c 16.280008
_cell_angle_alpha 90.000000
_cell_angle_beta 90.000000
_cell_angle_gamma 90.000000
_cell_volume 3155.822898
_symmetry_space_group_name_H-M "C M C M"
_symmetry_group_IT_number 63
_symmetry_cell_setting 'orthorhombic'
loop_
_space_group_symop_operation_xyz
x,y,z
-x,-y,1/2+z
x,-y,-z
-x,y,1/2-z
-x,-y,-z
x,y,1/2-z
-x,y,z
x,-y,1/2+z
1/2+x,1/2+y,z
1/2-x,1/2-y,1/2+z
1/2+x,1/2-y,-z
1/2-x,1/2+y,1/2-z
1/2-x,1/2-y,-z
1/2+x,1/2+y,1/2-z
1/2-x,1/2+y,z
1/2+x,1/2-y,1/2+z
loop_
_atom_site_type_symbol
_atom_site_label
_atom_site_fract_x
_atom_site_fract_y
_atom_site_fract_z
Si Si1 0.318150 0.783286 0.920351
Si Si2 0.819668 0.580817 0.448383
Si Si3 0.674230 0.099644 0.750000
Si Si4 0.174359 0.740004 0.750000
Si Si5 0.320288 0.471012 0.391235
O O1 0.500000 0.772967 0.923217
O O2 0.274561 0.852842 0.922683
O O3 0.257282 0.760240 0.833368
O O4 0.250000 0.750000 0.000000
O O5 0.710441 0.559795 0.521862
O O6 0.776920 0.532672 0.377452
O O7 0.000000 0.576456 0.472921
O O8 0.500000 0.074393 0.750000
O O9 0.673134 0.169828 0.750000
O O10 0.766453 0.078250 0.671680
O O11 0.000000 0.765500 0.750000
O O12 0.500000 0.485536 0.380055
#
# Coordination Sequence:
#
# PCOD8260384 Si02
#       5
#    16  16   8   8  16
#     4  11  24  41  64  91 123 163 204 248 302 358
#     4  10  21  39  60  84 117 157 194 233 291 359
#     4  11  23  40  59  82 115 154 192 235 294 359
#     4  11  25  42  63  90 121 160 206 251 300 359
#     4  11  22  36  59  89 115 147 192 245 294 341
#
# _framework density 20.279971
#
# number of rings (size 3 to 8) (size 9 to 14) (size 15 to 20)
#    0.000    1.250    0.000    7.500    0.000   13.000 
#    0.000    1.250    0.000    0.000    0.000    0.000 
#    0.000    0.000    0.000    0.000    0.000    0.000 
#
# Total GULP energy -396728.359526 kJ/mol
# GULP energy per Si atom -12397.761235 kJ/mol
# Density = 2.023381 g / cm^3
# Si number density = 20.279971 Si / 1000 Ang^3
#
#
#
# Elastic Constant Matrix: (Units=GPa)
#
#
# Indices 1 2 3 4 5 6 
#
# 1 124.0730 57.2868 44.4442 0.0000 0.0000 0.0000
# 2 57.2868 123.4823 52.5725 0.0000 0.0000 0.0000
# 3 44.4442 52.5725 118.2172 0.0000 0.0000 0.0000
# 4 0.0000 0.0000 0.0000 35.7256 0.0000 0.0000
# 5 0.0000 0.0000 0.0000 0.0000 35.9947 0.0000
# 6 0.0000 0.0000 0.0000 0.0000 0.0000 34.8008
#
#
#
# Elastic Compliance Matrix: (Units=1/GPa)
#
#
# Indices 1 2 3 4 5 6 
#
# 1 0.010718 -0.004018 -0.002243 0.000000 0.000000 0.000000
# 2 -0.004018 0.011496 -0.003602 0.000000 0.000000 0.000000
# 3 -0.002243 -0.003602 0.010904 0.000000 0.000000 0.000000
# 4 0.000000 0.000000 0.000000 0.027991 0.000000 0.000000
# 5 0.000000 0.000000 0.000000 0.000000 0.027782 0.000000
# 6 0.000000 0.000000 0.000000 0.000000 0.000000 0.028735
#
#
# Mechanical properties :
#
#
# Convention : Reuss Voigt Hill
#
# Bulk Modulus (GPa) = 74.66423 74.93105 74.79764
# Shear Modulus (GPa) = 35.25727 35.40216 35.32971
#
# Velocity S-wave (km/s) = 4.17409 4.18266 4.17837
# Velocity P-wave (km/s) = 7.75418 7.76883 7.76151
#
# Compressibility (1/GPa) = 0.01339329
#
# Stress axis : x y z
#
# Youngs Moduli (GPa) = 93.29956 86.98950 91.70947
#
# Poissons Ratio (x) = 0.34948 0.20569
# Poissons Ratio (y) = 0.37483 0.33032
# Poissons Ratio (z) = 0.20926 0.31332
#
# Static dielectric constant tensor:
#      x y z
#    x 3.864530 0.000000 0.000000 
#    y 0.000000 4.115890 0.000000 
#    z 0.000000 0.000000 3.578090 
# 
# 
# High freq. dielectric constant tensor:
#      x y z
#    x 1.807990 0.000000 0.000000 
#    y 0.000000 1.810040 0.000000 
#    z 0.000000 0.000000 1.788710 
# 
# From -- ./inp_files/39863.got.cif
#   From: 2010.03.12/outbox.cif.g09.slc.cpg/sg63_20_cif.got.tgz:39863.got - 2010.04.10 19:34:48.
