data_PCOD8260505
_publ_section_title
;
Structure prediction by ZEFSAII (Michael W. Deem and Ramdas Pophale) SiO2 
 PCOD8260505
Probable space group: C M C M
;
_chemical_formula_sum "Si O2"
_cell_formula_units_Z 36
_cell_length_a 7.922796
_cell_length_b 12.104131
_cell_length_c 14.205386
_cell_angle_alpha 90.000000
_cell_angle_beta 90.000000
_cell_angle_gamma 90.000000
_cell_volume 1362.276071
_symmetry_space_group_name_H-M "C M C M"
_symmetry_group_IT_number 63
_symmetry_cell_setting 'orthorhombic'
loop_
_space_group_symop_operation_xyz
x,y,z
-x,-y,1/2+z
x,-y,-z
-x,y,1/2-z
-x,-y,-z
x,y,1/2-z
-x,y,z
x,-y,1/2+z
1/2+x,1/2+y,z
1/2-x,1/2-y,1/2+z
1/2+x,1/2-y,-z
1/2-x,1/2+y,1/2-z
1/2-x,1/2-y,-z
1/2+x,1/2+y,1/2-z
1/2-x,1/2+y,z
1/2+x,1/2-y,1/2+z
loop_
_atom_site_type_symbol
_atom_site_label
_atom_site_fract_x
_atom_site_fract_y
_atom_site_fract_z
Si Si1 0.500000 0.676672 0.250000
Si Si2 0.802714 0.843488 0.250000
Si Si3 0.814545 0.384885 0.449062
Si Si4 0.000000 0.119897 0.047694
O O1 0.677600 0.739808 0.250000
O O2 0.500000 0.599617 0.158812
O O3 0.758029 0.911035 0.155212
O O4 0.000000 0.807233 0.250000
O O5 0.850049 0.500000 0.500000
O O6 0.672276 0.318868 0.510968
O O7 0.000000 0.322390 0.440410
O O8 0.000000 0.000000 0.000000
#
# Coordination Sequence:
#
# PCOD8260505 Si02
#       4
#     4   8  16   8
#     4  12  28  46  64 102 144 168 228 290 348 416
#     4  12  24  43  67 103 144 185 222 279 345 398
#     4  10  21  41  70 102 136 183 228 278 327 400
#     4  10  24  44  70 100 128 182 231 282 337 418
#
# _framework density 26.426362000000001
#
# number of rings (size 3 to 8) (size 9 to 14) (size 15 to 20)
#    0.000    1.333    4.444    0.000    0.000   10.667 
#    0.000    2.222    0.000    0.000    0.000    0.000 
#    0.000    0.000    0.000    0.000    0.000    0.000 
#
# Total GULP energy -223074.271380 kJ/mol
# GULP energy per Si atom -12393.015077 kJ/mol
# Density = 2.636621 g / cm^3
# Si number density = 26.426362 Si / 1000 Ang^3
#
#
#
# Elastic Constant Matrix: (Units=GPa)
#
#
# Indices 1 2 3 4 5 6 
#
# 1 313.2155 56.1144 102.6388 0.0000 0.0000 0.0000
# 2 56.1144 45.5049 34.1884 0.0000 0.0000 0.0000
# 3 102.6388 34.1884 294.0388 0.0000 0.0000 0.0000
# 4 0.0000 0.0000 0.0000 27.5673 0.0000 0.0000
# 5 0.0000 0.0000 0.0000 0.0000 49.0545 0.0000
# 6 0.0000 0.0000 0.0000 0.0000 0.0000 39.3071
#
#
#
# Elastic Compliance Matrix: (Units=1/GPa)
#
#
# Indices 1 2 3 4 5 6 
#
# 1 0.004341 -0.004618 -0.000978 0.000000 0.000000 0.000000
# 2 -0.004618 0.028991 -0.001759 0.000000 0.000000 0.000000
# 3 -0.000978 -0.001759 0.003947 0.000000 0.000000 0.000000
# 4 0.000000 0.000000 0.000000 0.036275 0.000000 0.000000
# 5 0.000000 0.000000 0.000000 0.000000 0.020386 0.000000
# 6 0.000000 0.000000 0.000000 0.000000 0.000000 0.025441
#
#
# Mechanical properties :
#
#
# Convention : Reuss Voigt Hill
#
# Bulk Modulus (GPa) = 44.30828 115.40471 79.85649
# Shear Modulus (GPa) = 35.30758 53.84028 44.57393
#
# Velocity S-wave (km/s) = 3.65920 4.51862 4.11143
# Velocity P-wave (km/s) = 5.88694 8.42550 7.26791
#
# Compressibility (1/GPa) = 0.02256915
#
# Stress axis : x y z
#
# Youngs Moduli (GPa) = 230.38761 34.49298 253.36294
#
# Poissons Ratio (x) = 0.15927 0.24785
# Poissons Ratio (y) = 1.06383 0.44568
# Poissons Ratio (z) = 0.22537 0.06068
#
# Static dielectric constant tensor:
#      x y z
#    x 7.613040 0.000000 0.000000 
#    y 0.000000 4.237210 0.000000 
#    z 0.000000 0.000000 -5.547110 
# 
# 
# High freq. dielectric constant tensor:
#      x y z
#    x 2.121950 0.000000 0.000000 
#    y 0.000000 2.063090 0.000000 
#    z 0.000000 0.000000 2.069710 
# 
# From -- ./inp_files/15488.got.cif
#   From: 2010.03.12/outbox.cif.g09.slc.cpg/sg63_8_cif.got.tgz:15488.got - 2010.04.10 19:34:48.
