data_PCOD8260675
_publ_section_title
;
Structure prediction by ZEFSAII (Michael W. Deem and Ramdas Pophale) SiO2 
 PCOD8260675
Probable space group: C M C M
;
_chemical_formula_sum "Si O2"
_cell_formula_units_Z 96
_cell_length_a 19.993537
_cell_length_b 14.882871
_cell_length_c 15.331299
_cell_angle_alpha 90.000000
_cell_angle_beta 90.000000
_cell_angle_gamma 90.000000
_cell_volume 4562.000219
_symmetry_space_group_name_H-M "C M C M"
_symmetry_group_IT_number 63
_symmetry_cell_setting 'orthorhombic'
loop_
_space_group_symop_operation_xyz
x,y,z
-x,-y,1/2+z
x,-y,-z
-x,y,1/2-z
-x,-y,-z
x,y,1/2-z
-x,y,z
x,-y,1/2+z
1/2+x,1/2+y,z
1/2-x,1/2-y,1/2+z
1/2+x,1/2-y,-z
1/2-x,1/2+y,1/2-z
1/2-x,1/2-y,-z
1/2+x,1/2+y,1/2-z
1/2-x,1/2+y,z
1/2+x,1/2-y,1/2+z
loop_
_atom_site_type_symbol
_atom_site_label
_atom_site_fract_x
_atom_site_fract_y
_atom_site_fract_z
Si Si1 0.072989 0.601762 0.485247
Si Si2 0.252464 0.713091 0.901356
Si Si3 0.924912 0.916411 0.852032
Si Si4 0.316689 0.884029 0.843607
Si Si5 0.706351 0.483207 0.096145
Si Si6 0.894893 0.289257 0.350614
O O1 0.092462 0.500000 0.500000
O O2 0.130225 0.635279 0.420116
O O3 0.066572 0.650775 0.578763
O O4 0.000000 0.611013 0.440359
O O5 0.276404 0.791427 0.838162
O O6 0.297432 0.623925 0.888508
O O7 0.181091 0.684201 0.865400
O O8 0.250000 0.750000 0.000000
O O9 0.921264 0.932521 0.750000
O O10 0.908909 0.813703 0.875073
O O11 0.000000 0.940271 0.886364
O O12 0.868986 0.979866 0.894127
O O13 0.353229 0.897925 0.750000
O O14 0.263032 0.965289 0.848772
O O15 0.732539 0.500000 0.000000
O O16 0.917041 0.309758 0.250000
#
# Coordination Sequence:
#
# PCOD8260675 Si02
#       6
#    16  16  16  16  16  16
#     4  11  25  43  63  92 130 171 219 276 331 391
#     4  12  22  40  67  99 134 167 216 275 331 390
#     4  10  22  40  63  96 136 174 218 272 330 400
#     4  12  25  43  66  96 131 173 220 269 331 393
#     4  12  23  40  67  98 130 168 218 275 334 394
#     4  11  21  40  69  99 128 170 224 279 333 390
#
# _framework density 21.043399999999998
#
# number of rings (size 3 to 8) (size 9 to 14) (size 15 to 20)
#    0.000    0.667    5.000    3.000    0.000    6.333 
#    0.000    2.500    0.000    0.000    0.000    0.000 
#    0.000    0.000    0.000    0.000    0.000    0.000 
#
# Total GULP energy -594862.676793 kJ/mol
# GULP energy per Si atom -12392.972433 kJ/mol
# Density = 2.099550 g / cm^3
# Si number density = 21.043400 Si / 1000 Ang^3
#
#
#
# Elastic Constant Matrix: (Units=GPa)
#
#
# Indices 1 2 3 4 5 6 
#
# 1 102.6253 26.3538 32.0034 0.0000 0.0000 0.0000
# 2 26.3538 138.3871 38.9772 0.0000 0.0000 0.0000
# 3 32.0034 38.9772 111.8535 0.0000 0.0000 0.0000
# 4 0.0000 0.0000 0.0000 17.1268 0.0000 0.0000
# 5 0.0000 0.0000 0.0000 0.0000 12.8977 0.0000
# 6 0.0000 0.0000 0.0000 0.0000 0.0000 462.6377
#
#
#
# Elastic Compliance Matrix: (Units=1/GPa)
#
#
# Indices 1 2 3 4 5 6 
#
# 1 0.010915 -0.001329 -0.002660 0.000000 0.000000 0.000000
# 2 -0.001329 0.008174 -0.002468 0.000000 0.000000 0.000000
# 3 -0.002660 -0.002468 0.010561 0.000000 0.000000 0.000000
# 4 0.000000 0.000000 0.000000 0.058388 0.000000 0.000000
# 5 0.000000 0.000000 0.000000 0.000000 0.077533 0.000000
# 6 0.000000 0.000000 0.000000 0.000000 0.000000 0.002162
#
#
# Mechanical properties :
#
#
# Convention : Reuss Voigt Hill
#
# Bulk Modulus (GPa) = 59.75097 60.83717 60.29407
# Shear Modulus (GPa) = 26.84898 115.56787 71.20842
#
# Velocity S-wave (km/s) = 3.57583 7.41876 5.82343
# Velocity P-wave (km/s) = 6.74571 10.11717 8.59831
#
# Compressibility (1/GPa) = 0.01673613
#
# Stress axis : x y z
#
# Youngs Moduli (GPa) = 91.61688 122.33246 94.68520
#
# Poissons Ratio (x) = 0.16264 0.25184
# Poissons Ratio (y) = 0.12180 0.23369
# Poissons Ratio (z) = 0.24367 0.30193
#
# Static dielectric constant tensor:
#      x y z
#    x 3.863610 0.000000 0.000000 
#    y 0.000000 4.001940 0.000000 
#    z 0.000000 0.000000 3.891260 
# 
# 
# High freq. dielectric constant tensor:
#      x y z
#    x 1.826450 0.000000 0.000000 
#    y 0.000000 1.826860 0.000000 
#    z 0.000000 0.000000 1.823490 
# 
# From -- ./inp_files/35290.got.cif
#   From: 2010.03.12/outbox.cif.g09.slc.cpg/sg63_18_cif.got.tgz:35290.got - 2010.04.10 19:34:48.
