data_PCOD8260867
_publ_section_title
;
Structure prediction by ZEFSAII (Michael W. Deem and Ramdas Pophale) SiO2 
 PCOD8260867
Probable space group: C M C M
;
_chemical_formula_sum "Si O2"
_cell_formula_units_Z 72
_cell_length_a 14.819235
_cell_length_b 14.986329
_cell_length_c 15.687261
_cell_angle_alpha 90.000000
_cell_angle_beta 90.000000
_cell_angle_gamma 90.000000
_cell_volume 3483.919968
_symmetry_space_group_name_H-M "C M C M"
_symmetry_group_IT_number 63
_symmetry_cell_setting 'orthorhombic'
loop_
_space_group_symop_operation_xyz
x,y,z
-x,-y,1/2+z
x,-y,-z
-x,y,1/2-z
-x,-y,-z
x,y,1/2-z
-x,y,z
x,-y,1/2+z
1/2+x,1/2+y,z
1/2-x,1/2-y,1/2+z
1/2+x,1/2-y,-z
1/2-x,1/2+y,1/2-z
1/2-x,1/2-y,-z
1/2+x,1/2+y,1/2-z
1/2-x,1/2+y,z
1/2+x,1/2-y,1/2+z
loop_
_atom_site_type_symbol
_atom_site_label
_atom_site_fract_x
_atom_site_fract_y
_atom_site_fract_z
Si Si1 0.177371 0.243907 0.074893
Si Si2 0.000000 0.465850 0.623843
Si Si3 0.234316 0.223291 0.750000
Si Si4 0.652346 0.081475 0.250000
Si Si5 0.103231 0.947042 0.918049
Si Si6 0.000000 0.354506 0.454350
Si Si7 0.833384 0.032502 0.750000
O O1 0.206999 0.286991 0.164227
O O2 0.162628 0.140325 0.094084
O O3 0.086936 0.291968 0.045046
O O4 0.250000 0.250000 0.000000
O O5 0.092033 0.435154 0.667598
O O6 0.000000 0.417937 0.534666
O O7 0.000000 0.574299 0.622952
O O8 0.180669 0.315500 0.750000
O O9 0.167599 0.139439 0.750000
O O10 0.735443 0.013240 0.250000
O O11 0.000000 0.919712 0.933495
O O12 0.111130 0.005704 0.833529
O O13 0.140885 0.000000 0.000000
#
# Coordination Sequence:
#
# PCOD8260867 Si02
#       7
#    16   8   8   8  16   8   8
#     4  12  24  44  69 100 135 177 228 280 337 409
#     4  10  24  42  64  95 132 174 215 285 331 404
#     4  12  25  42  69 102 129 183 225 277 341 397
#     4  11  22  45  64  94 135 168 224 272 339 408
#     4  11  24  44  66  96 134 177 224 283 339 400
#     4  11  24  42  67  97 132 176 230 270 349 399
#     4  12  24  44  68  98 134 175 228 279 342 402
#
# _framework density 20.666374999999999
#
# number of rings (size 3 to 8) (size 9 to 14) (size 15 to 20)
#    0.000    0.667    3.333    4.333    0.000    1.333 
#    4.000    0.000    0.000    0.000    0.000    0.000 
#    0.000    0.000    0.000    0.000    0.000    0.000 
#
# Total GULP energy -446515.602569 kJ/mol
# GULP energy per Si atom -12403.211182 kJ/mol
# Density = 2.061934 g / cm^3
# Si number density = 20.666375 Si / 1000 Ang^3
#
#
#
# Elastic Constant Matrix: (Units=GPa)
#
#
# Indices 1 2 3 4 5 6 
#
# 1 98.2371 31.3202 30.9985 0.0000 0.0000 0.0000
# 2 31.3202 126.9868 30.1492 0.0000 0.0000 0.0000
# 3 30.9985 30.1492 141.4668 0.0000 0.0000 0.0000
# 4 0.0000 0.0000 0.0000 36.8919 0.0000 0.0000
# 5 0.0000 0.0000 0.0000 0.0000 54.6201 0.0000
# 6 0.0000 0.0000 0.0000 0.0000 0.0000 35.8849
#
#
#
# Elastic Compliance Matrix: (Units=1/GPa)
#
#
# Indices 1 2 3 4 5 6 
#
# 1 0.011577 -0.002373 -0.002031 0.000000 0.000000 0.000000
# 2 -0.002373 0.008781 -0.001351 0.000000 0.000000 0.000000
# 3 -0.002031 -0.001351 0.007802 0.000000 0.000000 0.000000
# 4 0.000000 0.000000 0.000000 0.027106 0.000000 0.000000
# 5 0.000000 0.000000 0.000000 0.000000 0.018308 0.000000
# 6 0.000000 0.000000 0.000000 0.000000 0.000000 0.027867
#
#
# Mechanical properties :
#
#
# Convention : Reuss Voigt Hill
#
# Bulk Modulus (GPa) = 60.06473 61.29184 60.67828
# Shear Modulus (GPa) = 42.19344 43.76089 42.97717
#
# Velocity S-wave (km/s) = 4.52336 4.60661 4.56518
# Velocity P-wave (km/s) = 7.51054 7.61687 7.56389
#
# Compressibility (1/GPa) = 0.01664871
#
# Stress axis : x y z
#
# Youngs Moduli (GPa) = 86.37852 113.88227 128.17487
#
# Poissons Ratio (x) = 0.27026 0.26032
# Poissons Ratio (y) = 0.20499 0.17321
# Poissons Ratio (z) = 0.17544 0.15390
#
# Static dielectric constant tensor:
#      x y z
#    x 3.656640 0.000000 0.000000 
#    y 0.000000 3.889910 0.000000 
#    z 0.000000 0.000000 3.701090 
# 
# 
# High freq. dielectric constant tensor:
#      x y z
#    x 1.811370 0.000000 0.000000 
#    y 0.000000 1.824640 0.000000 
#    z 0.000000 0.000000 1.825790 
# 
# From -- ./inp_files/43830.got.cif
#   From: 2010.03.12/outbox.cif.g09.slc.cpg/sg63_22_cif.got.tgz:43830.got - 2010.04.10 19:34:48.
