data_PCOD8260800
_publ_section_title
;
Structure prediction by ZEFSAII (Michael W. Deem and Ramdas Pophale) SiO2 
 PCOD8260800
Probable space group: C M C M
;
_chemical_formula_sum "Si O2"
_cell_formula_units_Z 112
_cell_length_a 15.071974
_cell_length_b 12.256163
_cell_length_c 29.490378
_cell_angle_alpha 90.000000
_cell_angle_beta 90.000000
_cell_angle_gamma 90.000000
_cell_volume 5447.597397
_symmetry_space_group_name_H-M "C M C M"
_symmetry_group_IT_number 63
_symmetry_cell_setting 'orthorhombic'
loop_
_space_group_symop_operation_xyz
x,y,z
-x,-y,1/2+z
x,-y,-z
-x,y,1/2-z
-x,-y,-z
x,y,1/2-z
-x,y,z
x,-y,1/2+z
1/2+x,1/2+y,z
1/2-x,1/2-y,1/2+z
1/2+x,1/2-y,-z
1/2-x,1/2+y,1/2-z
1/2-x,1/2-y,-z
1/2+x,1/2+y,1/2-z
1/2-x,1/2+y,z
1/2+x,1/2-y,1/2+z
loop_
_atom_site_type_symbol
_atom_site_label
_atom_site_fract_x
_atom_site_fract_y
_atom_site_fract_z
Si Si1 0.902751 0.221206 0.513990
Si Si2 0.599359 0.551950 0.910418
Si Si3 0.235448 0.187438 0.643392
Si Si4 0.808399 0.849232 0.930820
Si Si5 0.101219 0.324520 0.697419
Si Si6 0.862519 0.448992 0.952575
Si Si7 0.901083 0.542850 0.642822
O O1 0.885289 0.110263 0.541307
O O2 0.834465 0.231624 0.471965
O O3 0.894397 0.322797 0.548561
O O4 0.000000 0.219149 0.492363
O O5 0.500000 0.578263 0.892722
O O6 0.672931 0.593153 0.875709
O O7 0.607489 0.420043 0.914130
O O8 0.259438 0.280526 0.607457
O O9 0.178086 0.238320 0.684388
O O10 0.328755 0.132795 0.658369
O O11 0.743394 0.945329 0.948386
O O12 0.111801 0.351901 0.750000
O O13 0.120835 0.433039 0.669345
O O14 0.000000 0.282656 0.687191
O O15 0.901232 0.519180 0.911200
O O16 0.894526 0.500000 0.000000
O O17 0.000000 0.586072 0.655215
#
# Coordination Sequence:
#
# PCOD8260800 Si02
#       7
#    16  16  16  16  16  16  16
#     4  11  23  36  53  79 115 166 223 268 306 361
#     4  11  22  38  58  82 118 162 208 261 316 364
#     4  12  22  40  63  93 122 159 200 256 313 369
#     4  12  23  36  55  83 120 165 213 258 311 361
#     4  10  22  44  72  97 122 155 198 250 311 383
#     4  12  22  36  58  83 122 173 224 262 306 355
#     4  11  24  42  63  94 133 169 209 256 315 375
#
# _framework density 20.559522999999999
#
# number of rings (size 3 to 8) (size 9 to 14) (size 15 to 20)
#    0.000    0.714    4.286    3.857    0.000    7.429 
#    0.000    0.000    0.000    0.000    0.000    0.000 
#    0.000    0.000    0.000    0.000    0.000    0.000 
#
# Total GULP energy -694235.370173 kJ/mol
# GULP energy per Si atom -12397.060182 kJ/mol
# Density = 2.051273 g / cm^3
# Si number density = 20.559523 Si / 1000 Ang^3
#
#
#
# Elastic Constant Matrix: (Units=GPa)
#
#
# Indices 1 2 3 4 5 6 
#
# 1 128.6020 45.0367 35.1699 0.0000 0.0000 0.0000
# 2 45.0367 79.2723 21.2627 0.0000 0.0000 0.0000
# 3 35.1699 21.2627 78.7215 0.0000 0.0000 0.0000
# 4 0.0000 0.0000 0.0000 22.3690 0.0000 0.0000
# 5 0.0000 0.0000 0.0000 0.0000 76.0204 0.0000
# 6 0.0000 0.0000 0.0000 0.0000 0.0000 74.2117
#
#
#
# Elastic Compliance Matrix: (Units=1/GPa)
#
#
# Indices 1 2 3 4 5 6 
#
# 1 0.010448 -0.005050 -0.003304 0.000000 0.000000 0.000000
# 2 -0.005050 0.016040 -0.002077 0.000000 0.000000 0.000000
# 3 -0.003304 -0.002077 0.014740 0.000000 0.000000 0.000000
# 4 0.000000 0.000000 0.000000 0.044705 0.000000 0.000000
# 5 0.000000 0.000000 0.000000 0.000000 0.013154 0.000000
# 6 0.000000 0.000000 0.000000 0.000000 0.000000 0.013475
#
#
# Mechanical properties :
#
#
# Convention : Reuss Voigt Hill
#
# Bulk Modulus (GPa) = 49.09578 54.39272 51.74425
# Shear Modulus (GPa) = 35.66038 46.86197 41.26117
#
# Velocity S-wave (km/s) = 4.16924 4.77941 4.48472
# Velocity P-wave (km/s) = 6.86356 7.54789 7.21385
#
# Compressibility (1/GPa) = 0.02036835
#
# Stress axis : x y z
#
# Youngs Moduli (GPa) = 95.71391 62.34221 67.84289
#
# Poissons Ratio (x) = 0.31480 0.22414
# Poissons Ratio (y) = 0.48331 0.14088
# Poissons Ratio (z) = 0.31622 0.12946
#
# Static dielectric constant tensor:
#      x y z
#    x 4.049940 0.000000 0.000000 
#    y 0.000000 3.603530 0.000000 
#    z 0.000000 0.000000 3.395010 
# 
# 
# High freq. dielectric constant tensor:
#      x y z
#    x 1.827570 0.000000 0.000000 
#    y 0.000000 1.800110 0.000000 
#    z 0.000000 0.000000 1.763010 
# 
# From -- ./inp_files/73400.got.cif
#   From: 2010.03.12/outbox.cif.g09.slc.cpg/sg63_37_cif.got.tgz:73400.got - 2010.04.10 19:34:48.
