data_PCOD8260557
_publ_section_title
;
Structure prediction by ZEFSAII (Michael W. Deem and Ramdas Pophale) SiO2 
 PCOD8260557
Probable space group: C M C M
;
_chemical_formula_sum "Si O2"
_cell_formula_units_Z 64
_cell_length_a 12.973514
_cell_length_b 29.641498
_cell_length_c 8.729823
_cell_angle_alpha 90.000000
_cell_angle_beta 90.000000
_cell_angle_gamma 90.000000
_cell_volume 3357.091752
_symmetry_space_group_name_H-M "C M C M"
_symmetry_group_IT_number 63
_symmetry_cell_setting 'orthorhombic'
loop_
_space_group_symop_operation_xyz
x,y,z
-x,-y,1/2+z
x,-y,-z
-x,y,1/2-z
-x,-y,-z
x,y,1/2-z
-x,y,z
x,-y,1/2+z
1/2+x,1/2+y,z
1/2-x,1/2-y,1/2+z
1/2+x,1/2-y,-z
1/2-x,1/2+y,1/2-z
1/2-x,1/2-y,-z
1/2+x,1/2+y,1/2-z
1/2-x,1/2+y,z
1/2+x,1/2-y,1/2+z
loop_
_atom_site_type_symbol
_atom_site_label
_atom_site_fract_x
_atom_site_fract_y
_atom_site_fract_z
Si Si1 0.202042 0.792555 0.575738
Si Si2 0.000000 0.354626 0.930451
Si Si3 0.116377 0.048446 0.568650
Si Si4 0.714408 0.880009 0.430099
Si Si5 0.000000 0.257798 0.082117
O O1 0.240710 0.801377 0.750000
O O2 0.250000 0.750000 0.500000
O O3 0.228173 0.834052 0.468235
O O4 0.084591 0.780198 0.564731
O O5 0.000000 0.359049 0.750000
O O6 0.898638 0.380466 0.992573
O O7 0.000000 0.300719 0.968568
O O8 0.120933 0.045428 0.750000
O O9 0.207495 0.081299 0.508087
O O10 0.000000 0.064184 0.518071
O O11 0.141641 0.000000 0.500000
O O12 0.697291 0.884333 0.250000
O O13 0.000000 0.281024 0.250000
#
# Coordination Sequence:
#
# PCOD8260557 Si02
#       5
#    16   8  16  16   8
#     4  11  22  36  55  82 115 156 201 242 288 341
#     4  12  24  38  59  83 114 157 204 244 290 347
#     4   9  20  40  65  92 119 150 186 234 294 352
#     4  11  23  39  60  86 120 156 195 242 295 351
#     4  10  22  38  54  75 114 157 196 244 294 339
#
# _framework density 19.064119999999999
#
# number of rings (size 3 to 8) (size 9 to 14) (size 15 to 20)
#    0.000    1.500    2.500    2.625    1.750    3.000 
#    0.000    0.625    0.000    0.000    0.000    0.000 
#    0.000    0.000    0.000    0.000    0.000    0.000 
#
# Total GULP energy -396427.711312 kJ/mol
# GULP energy per Si atom -12388.365978 kJ/mol
# Density = 1.902073 g / cm^3
# Si number density = 19.064120 Si / 1000 Ang^3
#
#
#
# Elastic Constant Matrix: (Units=GPa)
#
#
# Indices 1 2 3 4 5 6 
#
# 1 167.7827 77.3810 50.7292 0.0000 0.0000 0.0000
# 2 77.3810 116.7410 26.8894 0.0000 0.0000 0.0000
# 3 50.7292 26.8894 70.0791 0.0000 0.0000 0.0000
# 4 0.0000 0.0000 0.0000 31.9001 0.0000 0.0000
# 5 0.0000 0.0000 0.0000 0.0000 24.3189 0.0000
# 6 0.0000 0.0000 0.0000 0.0000 0.0000 58.4961
#
#
#
# Elastic Compliance Matrix: (Units=1/GPa)
#
#
# Indices 1 2 3 4 5 6 
#
# 1 0.010046 -0.005467 -0.005174 0.000000 0.000000 0.000000
# 2 -0.005467 0.012372 -0.000789 0.000000 0.000000 0.000000
# 3 -0.005174 -0.000789 0.018318 0.000000 0.000000 0.000000
# 4 0.000000 0.000000 0.000000 0.031348 0.000000 0.000000
# 5 0.000000 0.000000 0.000000 0.000000 0.041120 0.000000
# 6 0.000000 0.000000 0.000000 0.000000 0.000000 0.017095
#
#
# Mechanical properties :
#
#
# Convention : Reuss Voigt Hill
#
# Bulk Modulus (GPa) = 55.94755 73.84465 64.89610
# Shear Modulus (GPa) = 31.42304 36.24990 33.83647
#
# Velocity S-wave (km/s) = 4.06431 4.36532 4.21750
# Velocity P-wave (km/s) = 7.17186 8.01417 7.60469
#
# Compressibility (1/GPa) = 0.01787388
#
# Stress axis : x y z
#
# Youngs Moduli (GPa) = 99.54237 80.83017 54.59058
#
# Poissons Ratio (x) = 0.44190 0.28247
# Poissons Ratio (y) = 0.54420 0.04310
# Poissons Ratio (z) = 0.51507 0.06381
#
# Static dielectric constant tensor:
#      x y z
#    x 3.893680 0.000000 0.000000 
#    y 0.000000 3.885120 0.000000 
#    z 0.000000 0.000000 3.572560 
# 
# 
# High freq. dielectric constant tensor:
#      x y z
#    x 1.765000 0.000000 0.000000 
#    y 0.000000 1.725120 0.000000 
#    z 0.000000 0.000000 1.745750 
# 
# From -- ./inp_files/3165.got.cif
#   From: 2010.03.12/outbox.cif.g09.slc.cpg/sg63_2_cif.got.tgz:3165.got - 2010.04.10 19:34:48.
