data_PCOD8260708
_publ_section_title
;
Structure prediction by ZEFSAII (Michael W. Deem and Ramdas Pophale) SiO2 
 PCOD8260708
Probable space group: C M C M
;
_chemical_formula_sum "Si O2"
_cell_formula_units_Z 112
_cell_length_a 31.045453
_cell_length_b 11.839552
_cell_length_c 15.602093
_cell_angle_alpha 90.000000
_cell_angle_beta 90.000000
_cell_angle_gamma 90.000000
_cell_volume 5734.771692
_symmetry_space_group_name_H-M "C M C M"
_symmetry_group_IT_number 63
_symmetry_cell_setting 'orthorhombic'
loop_
_space_group_symop_operation_xyz
x,y,z
-x,-y,1/2+z
x,-y,-z
-x,y,1/2-z
-x,-y,-z
x,y,1/2-z
-x,y,z
x,-y,1/2+z
1/2+x,1/2+y,z
1/2-x,1/2-y,1/2+z
1/2+x,1/2-y,-z
1/2-x,1/2+y,1/2-z
1/2-x,1/2-y,-z
1/2+x,1/2+y,1/2-z
1/2-x,1/2+y,z
1/2+x,1/2-y,1/2+z
loop_
_atom_site_type_symbol
_atom_site_label
_atom_site_fract_x
_atom_site_fract_y
_atom_site_fract_z
Si Si1 0.168432 0.365543 0.400194
Si Si2 0.549383 0.367482 0.007804
Si Si3 0.769057 0.170223 0.349918
Si Si4 0.175115 0.621094 0.399754
Si Si5 0.403321 0.707184 0.153639
Si Si6 0.385545 0.303921 0.155480
Si Si7 0.159667 0.014379 0.098123
O O1 0.208193 0.288240 0.371682
O O2 0.176919 0.492123 0.367547
O O3 0.163587 0.364316 0.501584
O O4 0.123589 0.321945 0.360395
O O5 0.500000 0.343790 0.030655
O O6 0.559484 0.305364 0.917608
O O7 0.558918 0.500000 0.000000
O O8 0.577397 0.316861 0.084922
O O9 0.770563 0.146900 0.250000
O O10 0.720695 0.180117 0.383094
O O11 0.791841 0.062377 0.395540
O O12 0.136933 0.682110 0.348545
O O13 0.423159 0.707449 0.250000
O O14 0.370965 0.602981 0.145181
O O15 0.406190 0.318499 0.250000
O O16 0.346782 0.393986 0.142919
O O17 0.145851 0.000000 0.000000
#
# Coordination Sequence:
#
# PCOD8260708 Si02
#       7
#    16  16  16  16  16  16  16
#     4  10  22  41  61  83 118 161 212 255 307 363
#     4  11  23  41  64  97 133 159 196 252 308 379
#     4  11  24  37  55  86 122 161 210 262 304 352
#     4  11  24  39  61  87 117 166 211 258 310 363
#     4  11  20  39  66  88 119 161 200 251 307 368
#     4  12  22  38  62  90 126 167 205 249 309 373
#     4  11  20  36  59  83 121 164 207 248 303 363
#
# _framework density 19.529983999999999
#
# number of rings (size 3 to 8) (size 9 to 14) (size 15 to 20)
#    0.000    1.000    4.286    4.286    4.000    2.857 
#    0.000    1.429    0.000    1.714    0.000    2.000 
#    0.000    0.000    0.000    0.000    0.000    0.000 
#
# Total GULP energy -694514.745425 kJ/mol
# GULP energy per Si atom -12402.049025 kJ/mol
# Density = 1.948553 g / cm^3
# Si number density = 19.529984 Si / 1000 Ang^3
#
#
#
# Elastic Constant Matrix: (Units=GPa)
#
#
# Indices 1 2 3 4 5 6 
#
# 1 110.2717 45.8504 43.1685 0.0000 0.0000 0.0000
# 2 45.8504 99.9605 36.1510 0.0000 0.0000 0.0000
# 3 43.1685 36.1510 142.9287 0.0000 0.0000 0.0000
# 4 0.0000 0.0000 0.0000 20.4308 0.0000 0.0000
# 5 0.0000 0.0000 0.0000 0.0000 12.3509 0.0000
# 6 0.0000 0.0000 0.0000 0.0000 0.0000 5.1196
#
#
#
# Elastic Compliance Matrix: (Units=1/GPa)
#
#
# Indices 1 2 3 4 5 6 
#
# 1 0.011934 -0.004590 -0.002443 0.000000 0.000000 0.000000
# 2 -0.004590 0.012777 -0.001845 0.000000 0.000000 0.000000
# 3 -0.002443 -0.001845 0.008201 0.000000 0.000000 0.000000
# 4 0.000000 0.000000 0.000000 0.048946 0.000000 0.000000
# 5 0.000000 0.000000 0.000000 0.000000 0.080966 0.000000
# 6 0.000000 0.000000 0.000000 0.000000 0.000000 0.195328
#
#
# Mechanical properties :
#
#
# Convention : Reuss Voigt Hill
#
# Bulk Modulus (GPa) = 65.98890 67.05564 66.52227
# Shear Modulus (GPa) = 13.12477 22.77967 17.95222
#
# Velocity S-wave (km/s) = 2.59517 3.41896 3.03514
# Velocity P-wave (km/s) = 6.54536 7.07071 6.81310
#
# Compressibility (1/GPa) = 0.01515406
#
# Stress axis : x y z
#
# Youngs Moduli (GPa) = 83.79742 78.26735 121.93384
#
# Poissons Ratio (x) = 0.35926 0.29792
# Poissons Ratio (y) = 0.38464 0.22500
# Poissons Ratio (z) = 0.20474 0.14442
#
# Static dielectric constant tensor:
#      x y z
#    x 3.464590 0.000000 0.000000 
#    y 0.000000 3.638930 0.000000 
#    z 0.000000 0.000000 3.692260 
# 
# 
# High freq. dielectric constant tensor:
#      x y z
#    x 1.734290 0.000000 0.000000 
#    y 0.000000 1.756110 0.000000 
#    z 0.000000 0.000000 1.776280 
# 
# From -- ./inp_files/38558.got.cif
#   From: 2010.03.12/outbox.cif.g09.slc.cpg/sg63_20_cif.got.tgz:38558.got - 2010.04.10 19:34:48.
