data_PCOD8260464
_publ_section_title
;
Structure prediction by ZEFSAII (Michael W. Deem and Ramdas Pophale) SiO2 
 PCOD8260464
Probable space group: C M C M
;
_chemical_formula_sum "Si O2"
_cell_formula_units_Z 96
_cell_length_a 7.652216
_cell_length_b 23.077965
_cell_length_c 25.795620
_cell_angle_alpha 90.000000
_cell_angle_beta 90.000000
_cell_angle_gamma 90.000000
_cell_volume 4555.443887
_symmetry_space_group_name_H-M "C M C M"
_symmetry_group_IT_number 63
_symmetry_cell_setting 'orthorhombic'
loop_
_space_group_symop_operation_xyz
x,y,z
-x,-y,1/2+z
x,-y,-z
-x,y,1/2-z
-x,-y,-z
x,y,1/2-z
-x,y,z
x,-y,1/2+z
1/2+x,1/2+y,z
1/2-x,1/2-y,1/2+z
1/2+x,1/2-y,-z
1/2-x,1/2+y,1/2-z
1/2-x,1/2-y,-z
1/2+x,1/2+y,1/2-z
1/2-x,1/2+y,z
1/2+x,1/2-y,1/2+z
loop_
_atom_site_type_symbol
_atom_site_label
_atom_site_fract_x
_atom_site_fract_y
_atom_site_fract_z
Si Si1 0.301049 0.462769 0.622622
Si Si2 0.695080 0.720196 0.051729
Si Si3 0.704921 0.207398 0.856291
Si Si4 0.204297 0.583737 0.905311
Si Si5 0.000000 0.400396 0.812854
Si Si6 0.500000 0.770314 0.693148
Si Si7 0.203707 0.596747 0.021770
O O1 0.500000 0.441891 0.633293
O O2 0.291672 0.532411 0.628026
O O3 0.245639 0.454332 0.561988
O O4 0.173026 0.431041 0.663090
O O5 0.500000 0.739754 0.062565
O O6 0.789807 0.749692 0.100096
O O7 0.711736 0.651924 0.049451
O O8 0.750000 0.750000 0.000000
O O9 0.500000 0.215625 0.842072
O O10 0.744631 0.142224 0.874115
O O11 0.828406 0.228882 0.810234
O O12 0.000000 0.571350 0.909079
O O13 0.282220 0.586807 0.964218
O O14 0.000000 0.408667 0.750000
O O15 0.000000 0.334041 0.834976
O O16 0.500000 0.795383 0.750000
O O17 0.000000 0.608222 0.016016
#
# Coordination Sequence:
#
# PCOD8260464 Si02
#       7
#    16  16  16  16   8   8  16
#     4  12  25  42  67  98 132 172 226 272 327 394
#     4  11  21  33  53  89 129 174 219 259 321 390
#     4  10  23  41  64  97 137 172 214 274 328 387
#     4  10  21  40  63  92 140 186 217 259 323 392
#     4  11  26  52  75  95 127 168 220 286 344 389
#     4  11  26  46  74  99 122 170 223 272 339 397
#     4  11  21  36  59  92 135 182 221 263 315 390
#
# _framework density 21.073688000000001
#
# number of rings (size 3 to 8) (size 9 to 14) (size 15 to 20)
#    0.000    1.167    3.333    2.500    3.500    6.000 
#    0.000    2.500    0.000    0.000    0.000    0.000 
#    0.000    0.000    0.000    0.000    0.000    0.000 
#
# Total GULP energy -594782.638795 kJ/mol
# GULP energy per Si atom -12391.304975 kJ/mol
# Density = 2.102572 g / cm^3
# Si number density = 21.073688 Si / 1000 Ang^3
#
#
#
# Elastic Constant Matrix: (Units=GPa)
#
#
# Indices 1 2 3 4 5 6 
#
# 1 109.7310 37.1383 37.6980 0.0000 0.0000 0.0000
# 2 37.1383 130.7743 38.0177 0.0000 0.0000 0.0000
# 3 37.6980 38.0177 74.4280 0.0000 0.0000 0.0000
# 4 0.0000 0.0000 0.0000 25.7917 0.0000 0.0000
# 5 0.0000 0.0000 0.0000 0.0000 21.3921 0.0000
# 6 0.0000 0.0000 0.0000 0.0000 0.0000 32.0154
#
#
#
# Elastic Compliance Matrix: (Units=1/GPa)
#
#
# Indices 1 2 3 4 5 6 
#
# 1 0.011394 -0.001830 -0.004836 0.000000 0.000000 0.000000
# 2 -0.001830 0.009274 -0.003810 0.000000 0.000000 0.000000
# 3 -0.004836 -0.003810 0.017832 0.000000 0.000000 0.000000
# 4 0.000000 0.000000 0.000000 0.038772 0.000000 0.000000
# 5 0.000000 0.000000 0.000000 0.000000 0.046746 0.000000
# 6 0.000000 0.000000 0.000000 0.000000 0.000000 0.031235
#
#
# Mechanical properties :
#
#
# Convention : Reuss Voigt Hill
#
# Bulk Modulus (GPa) = 56.99080 60.07126 58.53103
# Shear Modulus (GPa) = 27.46413 29.31178 28.38795
#
# Velocity S-wave (km/s) = 3.61396 3.73355 3.67424
# Velocity P-wave (km/s) = 6.67207 6.86681 6.77014
#
# Compressibility (1/GPa) = 0.01754669
#
# Stress axis : x y z
#
# Youngs Moduli (GPa) = 87.76519 107.82680 56.07941
#
# Poissons Ratio (x) = 0.19729 0.27123
# Poissons Ratio (y) = 0.16059 0.21369
# Poissons Ratio (z) = 0.42447 0.41087
#
# Static dielectric constant tensor:
#      x y z
#    x 3.571000 0.000000 0.000000 
#    y 0.000000 2.897570 0.000000 
#    z 0.000000 0.000000 3.574230 
# 
# 
# High freq. dielectric constant tensor:
#      x y z
#    x 1.827370 0.000000 0.000000 
#    y 0.000000 1.842250 0.000000 
#    z 0.000000 0.000000 1.799450 
# 
# From -- ./inp_files/60020.got.cif
#   From: 2010.03.12/outbox.cif.g09.slc.cpg/sg63_31_cif.got.tgz:60020.got - 2010.04.10 19:34:48.
