data_PCOD8260853
_publ_section_title
;
Structure prediction by ZEFSAII (Michael W. Deem and Ramdas Pophale) SiO2 
 PCOD8260853
Probable space group: C M C M
;
_chemical_formula_sum "Si O2"
_cell_formula_units_Z 64
_cell_length_a 20.628518
_cell_length_b 14.630562
_cell_length_c 10.209446
_cell_angle_alpha 90.000000
_cell_angle_beta 90.000000
_cell_angle_gamma 90.000000
_cell_volume 3081.280345
_symmetry_space_group_name_H-M "C M C M"
_symmetry_group_IT_number 63
_symmetry_cell_setting 'orthorhombic'
loop_
_space_group_symop_operation_xyz
x,y,z
-x,-y,1/2+z
x,-y,-z
-x,y,1/2-z
-x,-y,-z
x,y,1/2-z
-x,y,z
x,-y,1/2+z
1/2+x,1/2+y,z
1/2-x,1/2-y,1/2+z
1/2+x,1/2-y,-z
1/2-x,1/2+y,1/2-z
1/2-x,1/2-y,-z
1/2+x,1/2+y,1/2-z
1/2-x,1/2+y,z
1/2+x,1/2-y,1/2+z
loop_
_atom_site_type_symbol
_atom_site_label
_atom_site_fract_x
_atom_site_fract_y
_atom_site_fract_z
Si Si1 0.000000 0.155679 0.597343
Si Si2 0.787541 0.817462 0.250000
Si Si3 0.106564 0.500000 0.000000
Si Si4 0.862070 0.894081 0.005478
Si Si5 0.694138 0.973850 0.250000
Si Si6 0.500000 0.872010 0.598480
Si Si7 0.210635 0.860785 0.750000
O O1 0.060934 0.114580 0.520199
O O2 0.000000 0.264207 0.586040
O O3 0.000000 0.125118 0.750000
O O4 0.829971 0.840343 0.124307
O O5 0.720242 0.871155 0.250000
O O6 0.769855 0.710755 0.250000
O O7 0.151429 0.485346 0.123125
O O8 0.063065 0.589363 0.024966
O O9 0.836039 0.846881 0.874118
O O10 0.841829 0.000000 0.000000
O O11 0.755992 0.040290 0.250000
O O12 0.500000 0.903918 0.750000
#
# Coordination Sequence:
#
# PCOD8260853 Si02
#       7
#     8   8   8  16   8   8   8
#     4  11  26  43  75  94 129 182 234 277 335 399
#     4  12  26  45  72  98 140 181 228 278 340 411
#     4  11  24  40  70  92 138 175 220 274 348 395
#     4  12  24  49  68 101 137 179 228 285 340 399
#     4  12  24  43  68 101 132 180 222 278 340 408
#     4  10  23  45  63 102 131 174 225 286 326 402
#     4  12  28  43  72 104 142 177 226 284 340 407
#
# _framework density 20.770586999999999
#
# number of rings (size 3 to 8) (size 9 to 14) (size 15 to 20)
#    0.000    0.500    5.000    2.625    7.000    0.500 
#    0.000    1.250    0.000    0.000    0.000    0.000 
#    0.000    0.000    0.000    0.000    0.000    0.000 
#
# Total GULP energy -397008.825933 kJ/mol
# GULP energy per Si atom -12406.525810 kJ/mol
# Density = 2.072331 g / cm^3
# Si number density = 20.770587 Si / 1000 Ang^3
#
#
#
# Elastic Constant Matrix: (Units=GPa)
#
#
# Indices 1 2 3 4 5 6 
#
# 1 125.8915 9.8877 69.2715 0.0000 0.0000 0.0000
# 2 9.8877 66.2614 20.5325 0.0000 0.0000 0.0000
# 3 69.2715 20.5325 177.5127 0.0000 0.0000 0.0000
# 4 0.0000 0.0000 0.0000 90.4617 0.0000 0.0000
# 5 0.0000 0.0000 0.0000 0.0000 48.2259 0.0000
# 6 0.0000 0.0000 0.0000 0.0000 0.0000 17.4209
#
#
#
# Elastic Compliance Matrix: (Units=1/GPa)
#
#
# Indices 1 2 3 4 5 6 
#
# 1 0.010121 -0.000297 -0.003915 0.000000 0.000000 0.000000
# 2 -0.000297 0.015661 -0.001696 0.000000 0.000000 0.000000
# 3 -0.003915 -0.001696 0.007357 0.000000 0.000000 0.000000
# 4 0.000000 0.000000 0.000000 0.011054 0.000000 0.000000
# 5 0.000000 0.000000 0.000000 0.000000 0.020736 0.000000
# 6 0.000000 0.000000 0.000000 0.000000 0.000000 0.057402
#
#
# Mechanical properties :
#
#
# Convention : Reuss Voigt Hill
#
# Bulk Modulus (GPa) = 46.89527 63.22768 55.06148
# Shear Modulus (GPa) = 35.39668 49.21994 42.30831
#
# Velocity S-wave (km/s) = 4.13264 4.87323 4.51814
# Velocity P-wave (km/s) = 6.73783 7.88490 7.33382
#
# Compressibility (1/GPa) = 0.02132411
#
# Stress axis : x y z
#
# Youngs Moduli (GPa) = 98.80429 63.85085 135.91808
#
# Poissons Ratio (x) = 0.01897 0.53215
# Poissons Ratio (y) = 0.02935 0.23046
# Poissons Ratio (z) = 0.38684 0.10827
#
# Static dielectric constant tensor:
#      x y z
#    x 3.913730 0.000000 0.000000 
#    y 0.000000 3.726700 0.000000 
#    z 0.000000 0.000000 3.857690 
# 
# 
# High freq. dielectric constant tensor:
#      x y z
#    x 1.829230 0.000000 0.000000 
#    y 0.000000 1.813370 0.000000 
#    z 0.000000 0.000000 1.826780 
# 
# From -- ./inp_files/20632.got.cif
#   From: 2010.03.12/outbox.cif.g09.slc.cpg/sg63_11_cif.got.tgz:20632.got - 2010.04.10 19:34:48.
