data_PCOD8260562
_publ_section_title
;
Structure prediction by ZEFSAII (Michael W. Deem and Ramdas Pophale) SiO2 
 PCOD8260562
Probable space group: C M C M
;
_chemical_formula_sum "Si O2"
_cell_formula_units_Z 64
_cell_length_a 8.034419
_cell_length_b 20.427279
_cell_length_c 19.219836
_cell_angle_alpha 90.000000
_cell_angle_beta 90.000000
_cell_angle_gamma 90.000000
_cell_volume 3154.384826
_symmetry_space_group_name_H-M "C M C M"
_symmetry_group_IT_number 63
_symmetry_cell_setting 'orthorhombic'
loop_
_space_group_symop_operation_xyz
x,y,z
-x,-y,1/2+z
x,-y,-z
-x,y,1/2-z
-x,-y,-z
x,y,1/2-z
-x,y,z
x,-y,1/2+z
1/2+x,1/2+y,z
1/2-x,1/2-y,1/2+z
1/2+x,1/2-y,-z
1/2-x,1/2+y,1/2-z
1/2-x,1/2-y,-z
1/2+x,1/2+y,1/2-z
1/2-x,1/2+y,z
1/2+x,1/2-y,1/2+z
loop_
_atom_site_type_symbol
_atom_site_label
_atom_site_fract_x
_atom_site_fract_y
_atom_site_fract_z
Si Si1 0.321785 0.052873 0.060784
Si Si2 0.688535 0.310528 0.544514
Si Si3 0.500000 0.634683 0.831180
Si Si4 0.187328 0.275045 0.328959
Si Si5 0.000000 0.003176 0.584444
O O1 0.500000 0.050669 0.100646
O O2 0.298576 0.125567 0.029135
O O3 0.166144 0.034974 0.111143
O O4 0.326810 0.000000 0.000000
O O5 0.500000 0.327710 0.524129
O O6 0.750000 0.250000 0.500000
O O7 0.705570 0.290246 0.625269
O O8 0.500000 0.613283 0.750000
O O9 0.668803 0.673682 0.849632
O O10 0.500000 0.574586 0.883667
O O11 0.213907 0.252354 0.250000
O O12 0.000000 0.305414 0.339671
O O13 0.000000 0.000000 0.500000
#
# Coordination Sequence:
#
# PCOD8260562 Si02
#       5
#    16  16   8  16   8
#     4  10  22  38  55  82 120 159 195 240 300 349
#     4  11  23  36  60  93 122 156 202 253 305 363
#     4  10  22  40  66  92 117 162 204 246 304 368
#     4   9  21  40  61  90 124 155 198 253 306 359
#     4  10  22  38  60  82 124 156 197 246 298 350
#
# _framework density 20.289218999999999
#
# number of rings (size 3 to 8) (size 9 to 14) (size 15 to 20)
#    0.000    2.000    1.250    0.750   10.500    1.000 
#    0.000    1.250    0.000    1.500    0.000    0.000 
#    0.000    0.000    0.000    0.000    0.000    0.000 
#
# Total GULP energy -396516.408439 kJ/mol
# GULP energy per Si atom -12391.137764 kJ/mol
# Density = 2.024304 g / cm^3
# Si number density = 20.289219 Si / 1000 Ang^3
#
#
#
# Elastic Constant Matrix: (Units=GPa)
#
#
# Indices 1 2 3 4 5 6 
#
# 1 210.6415 69.4151 28.5001 0.0000 0.0000 0.0000
# 2 69.4151 147.9823 42.5563 0.0000 0.0000 0.0000
# 3 28.5001 42.5563 52.7462 0.0000 0.0000 0.0000
# 4 0.0000 0.0000 0.0000 30.2378 0.0000 0.0000
# 5 0.0000 0.0000 0.0000 0.0000 16.9300 0.0000
# 6 0.0000 0.0000 0.0000 0.0000 0.0000 31.9752
#
#
#
# Elastic Compliance Matrix: (Units=1/GPa)
#
#
# Indices 1 2 3 4 5 6 
#
# 1 0.005673 -0.002317 -0.001196 0.000000 0.000000 0.000000
# 2 -0.002317 0.009746 -0.006611 0.000000 0.000000 0.000000
# 3 -0.001196 -0.006611 0.024938 0.000000 0.000000 0.000000
# 4 0.000000 0.000000 0.000000 0.033071 0.000000 0.000000
# 5 0.000000 0.000000 0.000000 0.000000 0.059067 0.000000
# 6 0.000000 0.000000 0.000000 0.000000 0.000000 0.031274
#
#
# Mechanical properties :
#
#
# Convention : Reuss Voigt Hill
#
# Bulk Modulus (GPa) = 49.72763 76.92366 63.32565
# Shear Modulus (GPa) = 26.21652 33.88851 30.05251
#
# Velocity S-wave (km/s) = 3.59854 4.09133 3.85282
# Velocity P-wave (km/s) = 6.46750 7.76624 7.14643
#
# Compressibility (1/GPa) = 0.02010954
#
# Stress axis : x y z
#
# Youngs Moduli (GPa) = 176.28092 102.61029 40.09867
#
# Poissons Ratio (x) = 0.23776 0.04794
# Poissons Ratio (y) = 0.40846 0.26509
# Poissons Ratio (z) = 0.21077 0.67834
#
# Static dielectric constant tensor:
#      x y z
#    x 5.407720 0.000000 0.000000 
#    y 0.000000 3.740140 0.000000 
#    z 0.000000 0.000000 3.447570 
# 
# 
# High freq. dielectric constant tensor:
#      x y z
#    x 1.830290 0.000000 0.000000 
#    y 0.000000 1.785110 0.000000 
#    z 0.000000 0.000000 1.751430 
# 
# From -- ./inp_files/50394.got.cif
#   From: 2010.03.12/outbox.cif.g09.slc.cpg/sg63_26_cif.got.tgz:50394.got - 2010.04.10 19:34:48.
