data_PCOD8260301
_publ_section_title
;
Structure prediction by ZEFSAII (Michael W. Deem and Ramdas Pophale) SiO2 
 PCOD8260301
Probable space group: C M C M
;
_chemical_formula_sum "Si O2"
_cell_formula_units_Z 96
_cell_length_a 24.909204
_cell_length_b 23.442237
_cell_length_c 8.817269
_cell_angle_alpha 90.000000
_cell_angle_beta 90.000000
_cell_angle_gamma 90.000000
_cell_volume 5148.645523
_symmetry_space_group_name_H-M "C M C M"
_symmetry_group_IT_number 63
_symmetry_cell_setting 'orthorhombic'
loop_
_space_group_symop_operation_xyz
x,y,z
-x,-y,1/2+z
x,-y,-z
-x,y,1/2-z
-x,-y,-z
x,y,1/2-z
-x,y,z
x,-y,1/2+z
1/2+x,1/2+y,z
1/2-x,1/2-y,1/2+z
1/2+x,1/2-y,-z
1/2-x,1/2+y,1/2-z
1/2-x,1/2-y,-z
1/2+x,1/2+y,1/2-z
1/2-x,1/2+y,z
1/2+x,1/2-y,1/2+z
loop_
_atom_site_type_symbol
_atom_site_label
_atom_site_fract_x
_atom_site_fract_y
_atom_site_fract_z
Si Si1 0.601871 0.133756 0.571536
Si Si2 0.186914 0.940348 0.928122
Si Si3 0.188728 0.559061 0.073394
Si Si4 0.000000 0.061883 0.070803
Si Si5 0.938176 0.255064 0.925146
Si Si6 0.402829 0.371481 0.426876
Si Si7 0.500000 0.061817 0.570756
O O1 0.608681 0.129560 0.750000
O O2 0.656074 0.111726 0.494468
O O3 0.592643 0.198966 0.525966
O O4 0.552020 0.095945 0.513099
O O5 0.174587 0.941417 0.750000
O O6 0.249200 0.929460 0.963138
O O7 0.155138 0.889485 0.009735
O O8 0.167777 0.000000 0.000000
O O9 0.177342 0.554268 0.250000
O O10 0.168891 0.500000 0.000000
O O11 0.000000 0.056432 0.250000
O O12 0.947529 0.095015 0.018894
O O13 0.000000 0.000000 0.000000
O O14 0.934364 0.272977 0.750000
O O15 0.908925 0.195507 0.955495
O O16 0.000000 0.250244 0.976807
O O17 0.408585 0.386385 0.250000
O O18 0.500000 0.056198 0.750000
O O19 0.500000 0.000000 0.500000
#
# Coordination Sequence:
#
# PCOD8260301 Si02
#       7
#    16  16  16   8  16  16   8
#     4  11  22  37  57  84 116 149 193 237 284 341
#     4  10  21  38  60  87 117 152 192 236 289 345
#     4  10  21  38  60  86 117 152 193 237 287 344
#     4  12  24  37  56  83 117 152 188 234 289 344
#     4  10  21  39  60  82 112 153 193 233 286 341
#     4  11  22  39  60  85 116 149 193 239 287 344
#     4  10  22  35  50  79 113 144 178 226 279 334
#
# _framework density 18.645681
#
# number of rings (size 3 to 8) (size 9 to 14) (size 15 to 20)
#    0.000    1.500    1.667    3.750    0.000    6.000 
#    0.000    0.833    0.000    0.000    0.000    0.000 
#    0.000    0.000    0.000    0.000    0.000    0.000 
#
# Total GULP energy -595511.156300 kJ/mol
# GULP energy per Si atom -12406.482423 kJ/mol
# Density = 1.860324 g / cm^3
# Si number density = 18.645681 Si / 1000 Ang^3
#
#
#
# Elastic Constant Matrix: (Units=GPa)
#
#
# Indices 1 2 3 4 5 6 
#
# 1 98.2085 62.0200 53.1667 0.0000 0.0000 0.0000
# 2 62.0200 121.0247 58.8518 0.0000 0.0000 0.0000
# 3 53.1667 58.8518 103.4773 0.0000 0.0000 0.0000
# 4 0.0000 0.0000 0.0000 36.9545 0.0000 0.0000
# 5 0.0000 0.0000 0.0000 0.0000 32.9655 0.0000
# 6 0.0000 0.0000 0.0000 0.0000 0.0000 15.4917
#
#
#
# Elastic Compliance Matrix: (Units=1/GPa)
#
#
# Indices 1 2 3 4 5 6 
#
# 1 0.016848 -0.006116 -0.005178 0.000000 0.000000 0.000000
# 2 -0.006116 0.013642 -0.004616 0.000000 0.000000 0.000000
# 3 -0.005178 -0.004616 0.014950 0.000000 0.000000 0.000000
# 4 0.000000 0.000000 0.000000 0.027060 0.000000 0.000000
# 5 0.000000 0.000000 0.000000 0.000000 0.030335 0.000000
# 6 0.000000 0.000000 0.000000 0.000000 0.000000 0.064551
#
#
# Mechanical properties :
#
#
# Convention : Reuss Voigt Hill
#
# Bulk Modulus (GPa) = 73.42649 74.53196 73.97922
# Shear Modulus (GPa) = 24.54043 26.99379 25.76711
#
# Velocity S-wave (km/s) = 3.63181 3.80902 3.72147
# Velocity P-wave (km/s) = 7.55328 7.70743 7.63074
#
# Compressibility (1/GPa) = 0.01361906
#
# Stress axis : x y z
#
# Youngs Moduli (GPa) = 59.35458 73.30480 66.88983
#
# Poissons Ratio (x) = 0.44832 0.34637
# Poissons Ratio (y) = 0.36300 0.30878
# Poissons Ratio (z) = 0.30735 0.33840
#
# Static dielectric constant tensor:
#      x y z
#    x 3.495420 0.000000 0.000000 
#    y 0.000000 3.352270 0.000000 
#    z 0.000000 0.000000 3.511960 
# 
# 
# High freq. dielectric constant tensor:
#      x y z
#    x 1.725790 0.000000 0.000000 
#    y 0.000000 1.724440 0.000000 
#    z 0.000000 0.000000 1.735720 
# 
# From -- ./inp_files/10510.got.cif
#   From: 2010.03.12/outbox.cif.g09.slc.cpg/sg63_6_cif.got.tgz:10510.got - 2010.04.10 19:34:48.
