data_PCOD8260678
_publ_section_title
;
Structure prediction by ZEFSAII (Michael W. Deem and Ramdas Pophale) SiO2 
 PCOD8260678
Probable space group: C M C M
;
_chemical_formula_sum "Si O2"
_cell_formula_units_Z 112
_cell_length_a 14.678507
_cell_length_b 15.967525
_cell_length_c 23.055080
_cell_angle_alpha 90.000000
_cell_angle_beta 90.000000
_cell_angle_gamma 90.000000
_cell_volume 5403.636451
_symmetry_space_group_name_H-M "C M C M"
_symmetry_group_IT_number 63
_symmetry_cell_setting 'orthorhombic'
loop_
_space_group_symop_operation_xyz
x,y,z
-x,-y,1/2+z
x,-y,-z
-x,y,1/2-z
-x,-y,-z
x,y,1/2-z
-x,y,z
x,-y,1/2+z
1/2+x,1/2+y,z
1/2-x,1/2-y,1/2+z
1/2+x,1/2-y,-z
1/2-x,1/2+y,1/2-z
1/2-x,1/2-y,-z
1/2+x,1/2+y,1/2-z
1/2-x,1/2+y,z
1/2+x,1/2-y,1/2+z
loop_
_atom_site_type_symbol
_atom_site_label
_atom_site_fract_x
_atom_site_fract_y
_atom_site_fract_z
Si Si1 0.897086 0.424696 0.120043
Si Si2 0.354505 0.107915 0.085265
Si Si3 0.214685 0.098010 0.816636
Si Si4 0.900951 0.296143 0.476815
Si Si5 0.166433 0.883662 0.524846
Si Si6 0.101803 0.970106 0.086950
Si Si7 0.393387 0.767107 0.682909
O O1 0.901639 0.519755 0.098022
O O2 0.822959 0.406773 0.170125
O O3 0.865392 0.367341 0.066337
O O4 0.000000 0.401756 0.141589
O O5 0.259694 0.087873 0.054292
O O6 0.350553 0.157020 0.146179
O O7 0.410633 0.165839 0.041025
O O8 0.200538 0.074609 0.750000
O O9 0.159971 0.028973 0.853869
O O10 0.168708 0.186858 0.831498
O O11 0.835617 0.216364 0.472022
O O12 0.000000 0.263455 0.458181
O O13 0.156627 0.910817 0.457967
O O14 0.091830 0.935160 0.562118
O O15 0.000000 0.935072 0.097595
O O16 0.383682 0.792482 0.750000
O O17 0.500000 0.750336 0.667616
#
# Coordination Sequence:
#
# PCOD8260678 Si02
#       7
#    16  16  16  16  16  16  16
#     4  11  24  41  61  90 130 171 210 258 315 382
#     4  12  22  38  62  90 129 168 214 255 311 374
#     4  11  23  42  65  91 123 162 213 267 316 372
#     4  11  22  36  58  89 123 164 210 255 311 375
#     4  11  22  38  61  93 130 165 209 256 316 379
#     4  11  22  39  64  94 131 168 207 260 320 382
#     4  10  22  40  64  94 125 162 214 272 322 370
#
# _framework density 20.726783000000001
#
# number of rings (size 3 to 8) (size 9 to 14) (size 15 to 20)
#    0.000    1.000    1.429    6.857    2.000    2.857 
#    0.000    0.000    0.000    0.000    0.000    2.000 
#    0.000    0.000    0.000    0.000    0.000    0.000 
#
# Total GULP energy -694228.697355 kJ/mol
# GULP energy per Si atom -12396.941024 kJ/mol
# Density = 2.067961 g / cm^3
# Si number density = 20.726783 Si / 1000 Ang^3
#
#
#
# Elastic Constant Matrix: (Units=GPa)
#
#
# Indices 1 2 3 4 5 6 
#
# 1 131.6271 20.8503 43.7515 0.0000 0.0000 0.0000
# 2 20.8503 123.3193 49.3912 0.0000 0.0000 0.0000
# 3 43.7515 49.3912 122.2952 0.0000 0.0000 0.0000
# 4 0.0000 0.0000 0.0000 31.8604 0.0000 0.0000
# 5 0.0000 0.0000 0.0000 0.0000 18.7105 0.0000
# 6 0.0000 0.0000 0.0000 0.0000 0.0000 25.2542
#
#
#
# Elastic Compliance Matrix: (Units=1/GPa)
#
#
# Indices 1 2 3 4 5 6 
#
# 1 0.008630 -0.000266 -0.002980 0.000000 0.000000 0.000000
# 2 -0.000266 0.009682 -0.003815 0.000000 0.000000 0.000000
# 3 -0.002980 -0.003815 0.010784 0.000000 0.000000 0.000000
# 4 0.000000 0.000000 0.000000 0.031387 0.000000 0.000000
# 5 0.000000 0.000000 0.000000 0.000000 0.053446 0.000000
# 6 0.000000 0.000000 0.000000 0.000000 0.000000 0.039597
#
#
# Mechanical properties :
#
#
# Convention : Reuss Voigt Hill
#
# Bulk Modulus (GPa) = 66.78249 67.24750 67.01500
# Shear Modulus (GPa) = 28.96211 32.71491 30.83851
#
# Velocity S-wave (km/s) = 3.74214 3.97720 3.86146
# Velocity P-wave (km/s) = 7.13875 7.32161 7.23076
#
# Compressibility (1/GPa) = 0.01497399
#
# Stress axis : x y z
#
# Youngs Moduli (GPa) = 115.87700 103.28453 92.73045
#
# Poissons Ratio (x) = 0.02742 0.27635
# Poissons Ratio (y) = 0.03077 0.35379
# Poissons Ratio (z) = 0.34533 0.39406
#
# Static dielectric constant tensor:
#      x y z
#    x 3.834530 0.000000 0.000000 
#    y 0.000000 3.688720 0.000000 
#    z 0.000000 0.000000 3.692230 
# 
# 
# High freq. dielectric constant tensor:
#      x y z
#    x 1.825750 0.000000 0.000000 
#    y 0.000000 1.809600 0.000000 
#    z 0.000000 0.000000 1.800070 
# 
# From -- ./inp_files/63017.got.cif
#   From: 2010.03.12/outbox.cif.g09.slc.cpg/sg63_32_cif.got.tgz:63017.got - 2010.04.10 19:34:48.
