data_PCOD8260823
_publ_section_title
;
Structure prediction by ZEFSAII (Michael W. Deem and Ramdas Pophale) SiO2 
 PCOD8260823
Probable space group: C M C M
;
_chemical_formula_sum "Si O2"
_cell_formula_units_Z 112
_cell_length_a 13.594729
_cell_length_b 11.992946
_cell_length_c 32.362176
_cell_angle_alpha 90.000000
_cell_angle_beta 90.000000
_cell_angle_gamma 90.000000
_cell_volume 5276.356708
_symmetry_space_group_name_H-M "C M C M"
_symmetry_group_IT_number 63
_symmetry_cell_setting 'orthorhombic'
loop_
_space_group_symop_operation_xyz
x,y,z
-x,-y,1/2+z
x,-y,-z
-x,y,1/2-z
-x,-y,-z
x,y,1/2-z
-x,y,z
x,-y,1/2+z
1/2+x,1/2+y,z
1/2-x,1/2-y,1/2+z
1/2+x,1/2-y,-z
1/2-x,1/2+y,1/2-z
1/2-x,1/2-y,-z
1/2+x,1/2+y,1/2-z
1/2-x,1/2+y,z
1/2+x,1/2-y,1/2+z
loop_
_atom_site_type_symbol
_atom_site_label
_atom_site_fract_x
_atom_site_fract_y
_atom_site_fract_z
Si Si1 0.615504 0.179757 0.096555
Si Si2 0.888792 0.276180 0.075527
Si Si3 0.291192 0.804020 0.297965
Si Si4 0.117783 0.123985 0.353857
Si Si5 0.382142 0.125371 0.493181
Si Si6 0.888937 0.467182 0.359089
Si Si7 0.113228 0.130799 0.656977
O O1 0.500000 0.153163 0.093626
O O2 0.659361 0.172595 0.050293
O O3 0.635831 0.302762 0.114487
O O4 0.659651 0.086139 0.127967
O O5 0.837599 0.179152 0.103618
O O6 0.884015 0.391573 0.100235
O O7 0.000000 0.237070 0.068585
O O8 0.840301 0.296110 0.030427
O O9 0.315252 0.811135 0.250000
O O10 0.337740 0.689569 0.314817
O O11 0.332944 0.912953 0.320787
O O12 0.173819 0.811182 0.306002
O O13 0.000000 0.140662 0.352623
O O14 0.147541 0.995240 0.351619
O O15 0.500000 0.126552 0.494902
O O16 0.343281 0.000000 0.500000
O O17 0.000000 0.483371 0.343793
O O18 0.000000 0.137770 0.670099
#
# Coordination Sequence:
#
# PCOD8260823 Si02
#       7
#    16  16  16  16  16  16  16
#     4   9  17  31  53  84 121 157 193 234 289 348
#     4   8  13  25  49  83 116 149 194 239 280 329
#     4  11  24  39  63  90 109 141 197 251 295 349
#     4   9  20  40  62  84 119 161 194 233 291 355
#     4   9  13  21  46  86 121 150 194 243 280 332
#     4   9  17  32  56  88 122 151 183 237 298 345
#     4  10  23  42  60  83 119 162 197 233 294 363
#
# _framework density 21.226768
#
# number of rings (size 3 to 8) (size 9 to 14) (size 15 to 20)
#    0.000    2.714    1.429    1.286    2.000    2.000 
#    0.000    2.143    0.000   10.286    7.429    0.000 
#    0.000    0.000    0.000    0.000    0.000    0.000 
#
# Total GULP energy -694149.120904 kJ/mol
# GULP energy per Si atom -12395.520016 kJ/mol
# Density = 2.117845 g / cm^3
# Si number density = 21.226768 Si / 1000 Ang^3
#
#
#
# Elastic Constant Matrix: (Units=GPa)
#
#
# Indices 1 2 3 4 5 6 
#
# 1 29.7816 32.0099 29.6934 0.0000 0.0000 0.0000
# 2 32.0099 144.4932 73.6662 0.0000 0.0000 0.0000
# 3 29.6934 73.6662 183.7509 0.0000 0.0000 0.0000
# 4 0.0000 0.0000 0.0000 20.3567 0.0000 0.0000
# 5 0.0000 0.0000 0.0000 0.0000 23.0499 0.0000
# 6 0.0000 0.0000 0.0000 0.0000 0.0000 18.3566
#
#
#
# Elastic Compliance Matrix: (Units=1/GPa)
#
#
# Indices 1 2 3 4 5 6 
#
# 1 0.046583 -0.008147 -0.004261 0.000000 0.000000 0.000000
# 2 -0.008147 0.010124 -0.002742 0.000000 0.000000 0.000000
# 3 -0.004261 -0.002742 0.007230 0.000000 0.000000 0.000000
# 4 0.000000 0.000000 0.000000 0.049124 0.000000 0.000000
# 5 0.000000 0.000000 0.000000 0.000000 0.043384 0.000000
# 6 0.000000 0.000000 0.000000 0.000000 0.000000 0.054476
#
#
# Mechanical properties :
#
#
# Convention : Reuss Voigt Hill
#
# Bulk Modulus (GPa) = 29.73024 69.86276 49.79650
# Shear Modulus (GPa) = 19.80713 27.19640 23.50177
#
# Velocity S-wave (km/s) = 3.05802 3.58331 3.33104
# Velocity P-wave (km/s) = 5.14830 7.07843 6.18907
#
# Compressibility (1/GPa) = 0.03363578
#
# Stress axis : x y z
#
# Youngs Moduli (GPa) = 21.46687 98.77970 138.31132
#
# Poissons Ratio (x) = 0.80477 0.58941
# Poissons Ratio (y) = 0.17489 0.37925
# Poissons Ratio (z) = 0.09148 0.27086
#
# Static dielectric constant tensor:
#      x y z
#    x 3.718510 0.000000 0.000000 
#    y 0.000000 3.813070 0.000000 
#    z 0.000000 0.000000 3.726170 
# 
# 
# High freq. dielectric constant tensor:
#      x y z
#    x 1.828010 0.000000 0.000000 
#    y 0.000000 1.829620 0.000000 
#    z 0.000000 0.000000 1.814200 
# 
# From -- ./inp_files/73402.got.cif
#   From: 2010.03.12/outbox.cif.g09.slc.cpg/sg63_37_cif.got.tgz:73402.got - 2010.04.10 19:34:48.
