data_PCOD8260457
_publ_section_title
;
Structure prediction by ZEFSAII (Michael W. Deem and Ramdas Pophale) SiO2 
 PCOD8260457
Probable space group: C M C M
;
_chemical_formula_sum "Si O2"
_cell_formula_units_Z 96
_cell_length_a 23.873217
_cell_length_b 14.287065
_cell_length_c 14.599534
_cell_angle_alpha 90.000000
_cell_angle_beta 90.000000
_cell_angle_gamma 90.000000
_cell_volume 4979.582822
_symmetry_space_group_name_H-M "C M C M"
_symmetry_group_IT_number 63
_symmetry_cell_setting 'orthorhombic'
loop_
_space_group_symop_operation_xyz
x,y,z
-x,-y,1/2+z
x,-y,-z
-x,y,1/2-z
-x,-y,-z
x,y,1/2-z
-x,y,z
x,-y,1/2+z
1/2+x,1/2+y,z
1/2-x,1/2-y,1/2+z
1/2+x,1/2-y,-z
1/2-x,1/2+y,1/2-z
1/2-x,1/2-y,-z
1/2+x,1/2+y,1/2-z
1/2-x,1/2+y,z
1/2+x,1/2-y,1/2+z
loop_
_atom_site_type_symbol
_atom_site_label
_atom_site_fract_x
_atom_site_fract_y
_atom_site_fract_z
Si Si1 0.933726 0.354514 0.250000
Si Si2 0.832076 0.877484 0.352897
Si Si3 0.935911 0.007894 0.892326
Si Si4 0.739787 0.982694 0.645682
Si Si5 0.630803 0.074217 0.578337
Si Si6 0.800634 0.698857 0.044896
Si Si7 0.934512 0.145425 0.250000
O O1 0.916250 0.405079 0.154768
O O2 0.907293 0.249003 0.250000
O O3 0.000000 0.354250 0.250000
O O4 0.810601 0.870796 0.250000
O O5 0.896527 0.909033 0.358109
O O6 0.830738 0.772311 0.389369
O O7 0.789976 0.954241 0.399528
O O8 0.000000 0.032323 0.865859
O O9 0.916826 0.912067 0.841364
O O10 0.928279 0.000000 0.000000
O O11 0.754155 0.957888 0.750000
O O12 0.730307 0.886894 0.593217
O O13 0.682707 0.039474 0.637987
O O14 0.651007 0.167249 0.525575
O O15 0.610174 0.000000 0.500000
O O16 0.750000 0.750000 0.000000
O O17 0.000000 0.161456 0.250000
#
# Coordination Sequence:
#
# PCOD8260457 Si02
#       7
#     8  16  16  16  16  16   8
#     4  11  24  42  67  93 121 163 218 265 310 382
#     4  11  23  38  60  91 119 164 210 246 308 377
#     4  10  22  39  60  85 124 165 198 251 311 365
#     4  10  21  40  59  85 125 158 199 254 317 367
#     4  10  22  41  64  90 123 162 199 264 326 367
#     4  11  23  37  59  90 125 157 202 255 306 378
#     4   9  20  40  59  87 121 155 203 253 302 358
#
# _framework density 19.278722999999999
#
# number of rings (size 3 to 8) (size 9 to 14) (size 15 to 20)
#    0.000    1.667    3.333    0.500    4.667    0.333 
#    1.500    0.000    0.000    1.000    0.000    0.000 
#    0.000    0.000    0.000    0.000    0.000    0.000 
#
# Total GULP energy -594883.047799 kJ/mol
# GULP energy per Si atom -12393.396829 kJ/mol
# Density = 1.923484 g / cm^3
# Si number density = 19.278723 Si / 1000 Ang^3
#
#
#
# Elastic Constant Matrix: (Units=GPa)
#
#
# Indices 1 2 3 4 5 6 
#
# 1 80.7552 55.1458 36.6757 0.0000 0.0000 0.0000
# 2 55.1458 129.1038 52.8439 0.0000 0.0000 0.0000
# 3 36.6757 52.8439 117.7373 0.0000 0.0000 0.0000
# 4 0.0000 0.0000 0.0000 23.1709 0.0000 0.0000
# 5 0.0000 0.0000 0.0000 0.0000 21.6634 0.0000
# 6 0.0000 0.0000 0.0000 0.0000 0.0000 28.2518
#
#
#
# Elastic Compliance Matrix: (Units=1/GPa)
#
#
# Indices 1 2 3 4 5 6 
#
# 1 0.018139 -0.006658 -0.002662 0.000000 0.000000 0.000000
# 2 -0.006658 0.011933 -0.003282 0.000000 0.000000 0.000000
# 3 -0.002662 -0.003282 0.010796 0.000000 0.000000 0.000000
# 4 0.000000 0.000000 0.000000 0.043158 0.000000 0.000000
# 5 0.000000 0.000000 0.000000 0.000000 0.046161 0.000000
# 6 0.000000 0.000000 0.000000 0.000000 0.000000 0.035396
#
#
# Mechanical properties :
#
#
# Convention : Reuss Voigt Hill
#
# Bulk Modulus (GPa) = 63.84270 68.54748 66.19509
# Shear Modulus (GPa) = 25.50927 26.81261 26.16094
#
# Velocity S-wave (km/s) = 3.64150 3.73337 3.68772
# Velocity P-wave (km/s) = 7.13220 7.36324 7.24864
#
# Compressibility (1/GPa) = 0.01566350
#
# Stress axis : x y z
#
# Youngs Moduli (GPa) = 55.13034 83.80084 92.63002
#
# Poissons Ratio (x) = 0.55797 0.24657
# Poissons Ratio (y) = 0.36708 0.30399
# Poissons Ratio (z) = 0.14675 0.27502
#
# Static dielectric constant tensor:
#      x y z
#    x 1.641010 0.000000 0.000000 
#    y 0.000000 5.975190 0.000000 
#    z 0.000000 0.000000 3.871320 
# 
# 
# High freq. dielectric constant tensor:
#      x y z
#    x 1.736680 0.000000 0.000000 
#    y 0.000000 1.751540 0.000000 
#    z 0.000000 0.000000 1.763350 
# 
# From -- ./inp_files/36832.got.cif
#   From: 2010.03.12/outbox.cif.g09.slc.cpg/sg63_19_cif.got.tgz:36832.got - 2010.04.10 19:34:48.
