data_PCOD8260916
_publ_section_title
;
Structure prediction by ZEFSAII (Michael W. Deem and Ramdas Pophale) SiO2 
 PCOD8260916
Probable space group: C M C M
;
_chemical_formula_sum "Si O2"
_cell_formula_units_Z 80
_cell_length_a 18.545554
_cell_length_b 12.954004
_cell_length_c 18.016302
_cell_angle_alpha 90.000000
_cell_angle_beta 90.000000
_cell_angle_gamma 90.000000
_cell_volume 4328.221632
_symmetry_space_group_name_H-M "C M C M"
_symmetry_group_IT_number 63
_symmetry_cell_setting 'orthorhombic'
loop_
_space_group_symop_operation_xyz
x,y,z
-x,-y,1/2+z
x,-y,-z
-x,y,1/2-z
-x,-y,-z
x,y,1/2-z
-x,y,z
x,-y,1/2+z
1/2+x,1/2+y,z
1/2-x,1/2-y,1/2+z
1/2+x,1/2-y,-z
1/2-x,1/2+y,1/2-z
1/2-x,1/2-y,-z
1/2+x,1/2+y,1/2-z
1/2-x,1/2+y,z
1/2+x,1/2-y,1/2+z
loop_
_atom_site_type_symbol
_atom_site_label
_atom_site_fract_x
_atom_site_fract_y
_atom_site_fract_z
Si Si1 0.353464 0.165671 0.929747
Si Si2 0.000000 0.658444 0.162686
Si Si3 0.146244 0.738211 0.097125
Si Si4 0.788773 0.954941 0.419178
Si Si5 0.710948 0.658479 0.335735
Si Si6 0.000000 0.550171 0.580513
O O1 0.293680 0.081008 0.909469
O O2 0.342019 0.269306 0.883073
O O3 0.430827 0.121525 0.908611
O O4 0.345356 0.189413 0.016217
O O5 0.931662 0.716128 0.129194
O O6 0.000000 0.670313 0.250000
O O7 0.000000 0.537933 0.142556
O O8 0.156624 0.860951 0.094336
O O9 0.205844 0.685559 0.149079
O O10 0.803219 0.000000 0.500000
O O11 0.804780 0.040482 0.357244
O O12 0.693147 0.674984 0.250000
O O13 0.000000 0.500000 0.500000
#
# Coordination Sequence:
#
# PCOD8260916 Si02
#       6
#    16   8  16  16  16   8
#     4  11  21  37  63  90 118 155 201 243 287 363
#     4  12  26  40  58  90 125 150 193 253 298 345
#     4  11  21  39  62  86 117 159 198 241 294 358
#     4  11  19  36  64  87 115 154 202 241 288 346
#     4  11  23  37  58  89 121 152 197 250 295 339
#     4  12  22  38  67  89 115 157 199 232 300 360
#
# _framework density 18.483342
#
# number of rings (size 3 to 8) (size 9 to 14) (size 15 to 20)
#    0.000    0.800    6.000    3.600    0.000    4.800 
#    0.000    1.500    0.000    0.000    0.000    0.000 
#    0.000    0.000    0.000    0.000    0.000    0.000 
#
# Total GULP energy -496245.367063 kJ/mol
# GULP energy per Si atom -12406.134177 kJ/mol
# Density = 1.844127 g / cm^3
# Si number density = 18.483342 Si / 1000 Ang^3
#
#
#
# Elastic Constant Matrix: (Units=GPa)
#
#
# Indices 1 2 3 4 5 6 
#
# 1 128.3091 57.3763 27.2652 0.0000 0.0000 0.0000
# 2 57.3763 130.8407 31.6794 0.0000 0.0000 0.0000
# 3 27.2652 31.6794 100.5461 0.0000 0.0000 0.0000
# 4 0.0000 0.0000 0.0000 29.7642 0.0000 0.0000
# 5 0.0000 0.0000 0.0000 0.0000 -20.8522 0.0000
# 6 0.0000 0.0000 0.0000 0.0000 0.0000 26.6213
#
#
#
# Elastic Compliance Matrix: (Units=1/GPa)
#
#
# Indices 1 2 3 4 5 6 
#
# 1 0.009879 -0.003988 -0.001423 0.000000 0.000000 0.000000
# 2 -0.003988 0.009884 -0.002033 0.000000 0.000000 0.000000
# 3 -0.001423 -0.002033 0.010972 0.000000 0.000000 0.000000
# 4 0.000000 0.000000 0.000000 0.033597 0.000000 0.000000
# 5 0.000000 0.000000 0.000000 0.000000 -0.047957 0.000000
# 6 0.000000 0.000000 0.000000 0.000000 0.000000 0.037564
#
#
# Mechanical properties :
#
#
# Convention : Reuss Voigt Hill
#
# Bulk Modulus (GPa) = 63.09636 65.81530 64.45583
# Shear Modulus (GPa) = 67.46865 23.33168 45.40017
#
# Velocity S-wave (km/s) = 6.04828 3.55675 4.96146
# Velocity P-wave (km/s) = 9.10969 7.24931 8.23222
#
# Compressibility (1/GPa) = 0.01584877
#
# Stress axis : x y z
#
# Youngs Moduli (GPa) = 101.22286 101.17582 91.14206
#
# Poissons Ratio (x) = 0.40347 0.12965
# Poissons Ratio (y) = 0.40366 0.18527
# Poissons Ratio (z) = 0.14399 0.20566
#
# Static dielectric constant tensor:
#      x y z
#    x 3.362420 0.000000 0.000000 
#    y 0.000000 3.496260 0.000000 
#    z 0.000000 0.000000 2.916800 
# 
# 
# High freq. dielectric constant tensor:
#      x y z
#    x 1.708680 0.000000 0.000000 
#    y 0.000000 1.733050 0.000000 
#    z 0.000000 0.000000 1.717840 
# 
# From -- ./inp_files/46838.got.cif
#   From: 2010.03.12/outbox.cif.g09.slc.cpg/sg63_24_cif.got.tgz:46838.got - 2010.04.10 19:34:48.
