data_PCOD8260481
_publ_section_title
;
Structure prediction by ZEFSAII (Michael W. Deem and Ramdas Pophale) SiO2 
 PCOD8260481
Probable space group: C M C M
;
_chemical_formula_sum "Si O2"
_cell_formula_units_Z 80
_cell_length_a 11.753544
_cell_length_b 24.348384
_cell_length_c 13.765380
_cell_angle_alpha 90.000000
_cell_angle_beta 90.000000
_cell_angle_gamma 90.000000
_cell_volume 3939.373732
_symmetry_space_group_name_H-M "C M C M"
_symmetry_group_IT_number 63
_symmetry_cell_setting 'orthorhombic'
loop_
_space_group_symop_operation_xyz
x,y,z
-x,-y,1/2+z
x,-y,-z
-x,y,1/2-z
-x,-y,-z
x,y,1/2-z
-x,y,z
x,-y,1/2+z
1/2+x,1/2+y,z
1/2-x,1/2-y,1/2+z
1/2+x,1/2-y,-z
1/2-x,1/2+y,1/2-z
1/2-x,1/2-y,-z
1/2+x,1/2+y,1/2-z
1/2-x,1/2+y,z
1/2+x,1/2-y,1/2+z
loop_
_atom_site_type_symbol
_atom_site_label
_atom_site_fract_x
_atom_site_fract_y
_atom_site_fract_z
Si Si1 0.242726 0.250590 0.635464
Si Si2 0.216655 0.938605 0.477798
Si Si3 0.866716 0.641376 0.637378
Si Si4 0.500000 0.590846 0.634889
Si Si5 0.633563 0.358854 0.863164
Si Si6 0.000000 0.784024 0.365466
O O1 0.249701 0.252297 0.750000
O O2 0.307754 0.196716 0.597995
O O3 0.303944 0.304670 0.594388
O O4 0.112162 0.248117 0.598154
O O5 0.322595 0.908939 0.426831
O O6 0.181429 0.910741 0.579165
O O7 0.110604 0.939915 0.404404
O O8 0.256728 0.000000 0.500000
O O9 0.834729 0.630973 0.750000
O O10 0.000000 0.647600 0.622769
O O11 0.500000 0.587899 0.750000
O O12 0.500000 0.653505 0.595066
O O13 0.661235 0.368426 0.750000
O O14 0.500000 0.351186 0.880545
O O15 0.000000 0.787564 0.250000
#
# Coordination Sequence:
#
# PCOD8260481 Si02
#       6
#    16  16  16   8  16   8
#     4   9  17  34  60  91 123 157 196 246 303 369
#     4  12  25  41  60  90 123 159 212 258 299 362
#     4  10  21  40  66  92 119 156 201 253 312 365
#     4  11  21  39  64  92 121 156 198 257 313 357
#     4  10  22  40  60  86 127 167 200 246 305 364
#     4   9  16  31  59  92 125 150 188 247 303 357
#
# _framework density 20.307794999999999
#
# number of rings (size 3 to 8) (size 9 to 14) (size 15 to 20)
#    0.000    1.800    3.000    1.500    0.000    5.200 
#    1.800    0.000    0.000    0.000    0.000    0.000 
#    0.000    0.000    0.000    0.000    0.000    0.000 
#
# Total GULP energy -496102.026445 kJ/mol
# GULP energy per Si atom -12402.550661 kJ/mol
# Density = 2.026157 g / cm^3
# Si number density = 20.307795 Si / 1000 Ang^3
#
#
#
# Elastic Constant Matrix: (Units=GPa)
#
#
# Indices 1 2 3 4 5 6 
#
# 1 123.5759 60.4672 36.9765 0.0000 0.0000 0.0000
# 2 60.4672 157.7814 44.7697 0.0000 0.0000 0.0000
# 3 36.9765 44.7697 82.1497 0.0000 0.0000 0.0000
# 4 0.0000 0.0000 0.0000 28.3725 0.0000 0.0000
# 5 0.0000 0.0000 0.0000 0.0000 25.2892 0.0000
# 6 0.0000 0.0000 0.0000 0.0000 0.0000 19.4798
#
#
#
# Elastic Compliance Matrix: (Units=1/GPa)
#
#
# Indices 1 2 3 4 5 6 
#
# 1 0.010554 -0.003190 -0.003012 0.000000 0.000000 0.000000
# 2 -0.003190 0.008461 -0.003175 0.000000 0.000000 0.000000
# 3 -0.003012 -0.003175 0.015259 0.000000 0.000000 0.000000
# 4 0.000000 0.000000 0.000000 0.035245 0.000000 0.000000
# 5 0.000000 0.000000 0.000000 0.000000 0.039543 0.000000
# 6 0.000000 0.000000 0.000000 0.000000 0.000000 0.051335
#
#
# Mechanical properties :
#
#
# Convention : Reuss Voigt Hill
#
# Bulk Modulus (GPa) = 64.43377 71.99266 68.21322
# Shear Modulus (GPa) = 27.12573 29.38121 28.25347
#
# Velocity S-wave (km/s) = 3.65873 3.80780 3.73401
# Velocity P-wave (km/s) = 7.04598 7.40677 7.22863
#
# Compressibility (1/GPa) = 0.01551981
#
# Stress axis : x y z
#
# Youngs Moduli (GPa) = 94.74653 118.18301 65.53424
#
# Poissons Ratio (x) = 0.37702 0.19740
# Poissons Ratio (y) = 0.30226 0.20810
# Poissons Ratio (z) = 0.28539 0.37527
#
# Static dielectric constant tensor:
#      x y z
#    x 3.782460 0.000000 0.000000 
#    y 0.000000 3.596070 0.000000 
#    z 0.000000 0.000000 3.666030 
# 
# 
# High freq. dielectric constant tensor:
#      x y z
#    x 1.795090 0.000000 0.000000 
#    y 0.000000 1.776680 0.000000 
#    z 0.000000 0.000000 1.803870 
# 
# From -- ./inp_files/29748.got.cif
#   From: 2010.03.12/outbox.cif.g09.slc.cpg/sg63_15_cif.got.tgz:29748.got - 2010.04.10 19:34:48.
