data_PCOD8260157
_publ_section_title
;
Structure prediction by ZEFSAII (Michael W. Deem and Ramdas Pophale) SiO2 
 PCOD8260157
Probable space group: C M C M
;
_chemical_formula_sum "Si O2"
_cell_formula_units_Z 96
_cell_length_a 9.036545
_cell_length_b 20.048178
_cell_length_c 28.011518
_cell_angle_alpha 90.000000
_cell_angle_beta 90.000000
_cell_angle_gamma 90.000000
_cell_volume 5074.742028
_symmetry_space_group_name_H-M "C M C M"
_symmetry_group_IT_number 63
_symmetry_cell_setting 'orthorhombic'
loop_
_space_group_symop_operation_xyz
x,y,z
-x,-y,1/2+z
x,-y,-z
-x,y,1/2-z
-x,-y,-z
x,y,1/2-z
-x,y,z
x,-y,1/2+z
1/2+x,1/2+y,z
1/2-x,1/2-y,1/2+z
1/2+x,1/2-y,-z
1/2-x,1/2+y,1/2-z
1/2-x,1/2-y,-z
1/2+x,1/2+y,1/2-z
1/2-x,1/2+y,z
1/2+x,1/2-y,1/2+z
loop_
_atom_site_type_symbol
_atom_site_label
_atom_site_fract_x
_atom_site_fract_y
_atom_site_fract_z
Si Si1 0.826583 0.989714 0.945047
Si Si2 0.827512 0.315865 0.697270
Si Si3 0.674127 0.112100 0.898568
Si Si4 0.831631 0.370090 0.600247
Si Si5 0.828302 0.678289 0.802703
Si Si6 0.670484 0.267619 0.451458
O O1 0.780236 0.915573 0.929483
O O2 0.000000 0.999881 0.937031
O O3 0.737215 0.040296 0.911905
O O4 0.782448 0.000000 0.000000
O O5 0.779150 0.342154 0.750000
O O6 0.789323 0.370991 0.656802
O O7 0.750984 0.246706 0.684479
O O8 0.000000 0.300189 0.695821
O O9 0.500000 0.114241 0.908938
O O10 0.710806 0.123166 0.842533
O O11 0.751655 0.167828 0.930171
O O12 0.813736 0.293938 0.584267
O O13 0.000000 0.395051 0.591961
O O14 0.780829 0.651743 0.750000
O O15 0.000000 0.695238 0.803958
O O16 0.500000 0.285418 0.461525
O O17 0.750000 0.250000 0.500000
#
# Coordination Sequence:
#
# PCOD8260157 Si02
#       6
#    16  16  16  16  16  16
#     4  11  25  42  59  79 108 150 195 239 286 340
#     4   9  17  32  56  85 115 147 183 226 279 335
#     4  11  22  37  59  85 114 150 189 233 285 339
#     4  10  21  37  57  83 113 147 186 229 280 337
#     4   9  18  33  55  85 117 148 184 227 278 334
#     4  11  22  36  56  84 115 146 187 238 285 337
#
# _framework density 18.917218999999999
#
# number of rings (size 3 to 8) (size 9 to 14) (size 15 to 20)
#    0.000    1.833    1.667    2.500    0.000    6.667 
#    0.000    0.833    0.000    5.000    0.000    0.000 
#    0.000    0.000    0.000    0.000    0.000    0.000 
#
# Total GULP energy -595202.215821 kJ/mol
# GULP energy per Si atom -12400.046163 kJ/mol
# Density = 1.887416 g / cm^3
# Si number density = 18.917219 Si / 1000 Ang^3
#
#
#
# Elastic Constant Matrix: (Units=GPa)
#
#
# Indices 1 2 3 4 5 6 
#
# 1 69.4892 20.7647 41.8852 0.0000 0.0000 0.0000
# 2 20.7647 50.0559 19.3512 0.0000 0.0000 0.0000
# 3 41.8852 19.3512 116.6331 0.0000 0.0000 0.0000
# 4 0.0000 0.0000 0.0000 28.3209 0.0000 0.0000
# 5 0.0000 0.0000 0.0000 0.0000 26.4689 0.0000
# 6 0.0000 0.0000 0.0000 0.0000 0.0000 27.0251
#
#
#
# Elastic Compliance Matrix: (Units=1/GPa)
#
#
# Indices 1 2 3 4 5 6 
#
# 1 0.019852 -0.005855 -0.006158 0.000000 0.000000 0.000000
# 2 -0.005855 0.023073 -0.001726 0.000000 0.000000 0.000000
# 3 -0.006158 -0.001726 0.011072 0.000000 0.000000 0.000000
# 4 0.000000 0.000000 0.000000 0.035310 0.000000 0.000000
# 5 0.000000 0.000000 0.000000 0.000000 0.037780 0.000000
# 6 0.000000 0.000000 0.000000 0.000000 0.000000 0.037003
#
#
# Mechanical properties :
#
#
# Convention : Reuss Voigt Hill
#
# Bulk Modulus (GPa) = 37.70648 44.46449 41.08549
# Shear Modulus (GPa) = 24.94937 26.64147 25.79542
#
# Velocity S-wave (km/s) = 3.63557 3.75683 3.69669
# Velocity P-wave (km/s) = 6.13178 6.50954 6.32348
#
# Compressibility (1/GPa) = 0.02652064
#
# Stress axis : x y z
#
# Youngs Moduli (GPa) = 50.37307 43.33982 90.32101
#
# Poissons Ratio (x) = 0.25374 0.55618
# Poissons Ratio (y) = 0.29491 0.15587
# Poissons Ratio (z) = 0.31019 0.07479
#
# Static dielectric constant tensor:
#      x y z
#    x 3.636220 0.000000 0.000000 
#    y 0.000000 3.182390 0.000000 
#    z 0.000000 0.000000 4.630670 
# 
# 
# High freq. dielectric constant tensor:
#      x y z
#    x 1.739990 0.000000 0.000000 
#    y 0.000000 1.711980 0.000000 
#    z 0.000000 0.000000 1.755920 
# 
# From -- ./inp_files/67009.got.cif
#   From: 2010.03.12/outbox.cif.g09.slc.cpg/sg63_34_cif.got.tgz:67009.got - 2010.04.10 19:34:48.
