data_PCOD8260274
_publ_section_title
;
Structure prediction by ZEFSAII (Michael W. Deem and Ramdas Pophale) SiO2 
 PCOD8260274
Probable space group: C M C M
;
_chemical_formula_sum "Si O2"
_cell_formula_units_Z 96
_cell_length_a 20.046860
_cell_length_b 28.139795
_cell_length_c 8.729627
_cell_angle_alpha 90.000000
_cell_angle_beta 90.000000
_cell_angle_gamma 90.000000
_cell_volume 4924.509439
_symmetry_space_group_name_H-M "C M C M"
_symmetry_group_IT_number 63
_symmetry_cell_setting 'orthorhombic'
loop_
_space_group_symop_operation_xyz
x,y,z
-x,-y,1/2+z
x,-y,-z
-x,y,1/2-z
-x,-y,-z
x,y,1/2-z
-x,y,z
x,-y,1/2+z
1/2+x,1/2+y,z
1/2-x,1/2-y,1/2+z
1/2+x,1/2-y,-z
1/2-x,1/2+y,1/2-z
1/2-x,1/2-y,-z
1/2+x,1/2+y,1/2-z
1/2-x,1/2+y,z
1/2+x,1/2-y,1/2+z
loop_
_atom_site_type_symbol
_atom_site_label
_atom_site_fract_x
_atom_site_fract_y
_atom_site_fract_z
Si Si1 0.077442 0.785785 0.070848
Si Si2 0.187907 0.722569 0.931838
Si Si3 0.686003 0.448624 0.431946
Si Si4 0.308408 0.884566 0.068351
Si Si5 0.925161 0.450194 0.068804
Si Si6 0.422479 0.385623 0.928475
O O1 0.093053 0.784864 0.250000
O O2 0.000000 0.776532 0.034348
O O3 0.118496 0.744699 0.987602
O O4 0.100562 0.836750 0.007566
O O5 0.190979 0.724437 0.750000
O O6 0.192370 0.668887 0.995227
O O7 0.250000 0.750000 0.000000
O O8 0.701332 0.500000 0.500000
O O9 0.682705 0.452102 0.250000
O O10 0.743779 0.413055 0.490017
O O11 0.616063 0.429471 0.495990
O O12 0.308914 0.883972 0.250000
O O13 0.375423 0.909841 0.006423
O O14 0.921265 0.454636 0.250000
O O15 0.000000 0.437210 0.014244
O O16 0.901554 0.500000 0.000000
O O17 0.405820 0.382077 0.750000
O O18 0.500000 0.395258 0.958916
#
# Coordination Sequence:
#
# PCOD8260274 Si02
#       6
#    16  16  16  16  16  16
#     4  10  21  38  59  84 116 151 186 229 283 340
#     4  11  22  37  58  83 112 147 190 236 283 336
#     4  11  22  37  57  81 112 147 185 230 280 334
#     4   9  20  36  54  78 107 142 183 226 270 320
#     4   9  17  32  54  78 105 137 173 214 261 312
#     4  10  21  38  60  85 111 142 184 230 277 334
#
# _framework density 19.494326999999998
#
# number of rings (size 3 to 8) (size 9 to 14) (size 15 to 20)
#    0.000    2.000    0.000    3.500    0.000    4.333 
#    0.000    6.667    0.000    2.000    0.000    0.000 
#    0.000    0.000    0.000    0.000    0.000    0.000 
#
# Total GULP energy -595386.167910 kJ/mol
# GULP energy per Si atom -12403.878498 kJ/mol
# Density = 1.944996 g / cm^3
# Si number density = 19.494327 Si / 1000 Ang^3
#
#
#
# Elastic Constant Matrix: (Units=GPa)
#
#
# Indices 1 2 3 4 5 6 
#
# 1 109.7763 82.1263 39.3645 0.0000 0.0000 0.0000
# 2 82.1263 168.7659 45.1569 0.0000 0.0000 0.0000
# 3 39.3645 45.1569 71.1344 0.0000 0.0000 0.0000
# 4 0.0000 0.0000 0.0000 33.4623 0.0000 0.0000
# 5 0.0000 0.0000 0.0000 0.0000 28.7657 0.0000
# 6 0.0000 0.0000 0.0000 0.0000 0.0000 17.6381
#
#
#
# Elastic Compliance Matrix: (Units=1/GPa)
#
#
# Indices 1 2 3 4 5 6 
#
# 1 0.015458 -0.006304 -0.004552 0.000000 0.000000 0.000000
# 2 -0.006304 0.009709 -0.002675 0.000000 0.000000 0.000000
# 3 -0.004552 -0.002675 0.018275 0.000000 0.000000 0.000000
# 4 0.000000 0.000000 0.000000 0.029884 0.000000 0.000000
# 5 0.000000 0.000000 0.000000 0.000000 0.034764 0.000000
# 6 0.000000 0.000000 0.000000 0.000000 0.000000 0.056695
#
#
# Mechanical properties :
#
#
# Convention : Reuss Voigt Hill
#
# Bulk Modulus (GPa) = 61.05142 75.88578 68.46860
# Shear Modulus (GPa) = 25.34111 28.17514 26.75812
#
# Velocity S-wave (km/s) = 3.60935 3.80583 3.70890
# Velocity P-wave (km/s) = 6.98251 7.63702 7.31709
#
# Compressibility (1/GPa) = 0.01637963
#
# Stress axis : x y z
#
# Youngs Moduli (GPa) = 64.69020 102.99817 54.71994
#
# Poissons Ratio (x) = 0.64934 0.24910
# Poissons Ratio (y) = 0.40783 0.14635
# Poissons Ratio (z) = 0.29449 0.27548
#
# Static dielectric constant tensor:
#      x y z
#    x 3.725580 0.000000 0.000000 
#    y 0.000000 3.802560 0.000000 
#    z 0.000000 0.000000 3.442190 
# 
# 
# High freq. dielectric constant tensor:
#      x y z
#    x 1.771580 0.000000 0.000000 
#    y 0.000000 1.763910 0.000000 
#    z 0.000000 0.000000 1.751910 
# 
# From -- ./inp_files/8534.got.cif
#   From: 2010.03.12/outbox.cif.g09.slc.cpg/sg63_5_cif.got.tgz:8534.got - 2010.04.10 19:34:48.
