data_PCOD8260983
_publ_section_title
;
Structure prediction by ZEFSAII (Michael W. Deem and Ramdas Pophale) SiO2 
 PCOD8260983
Probable space group: C M C M
;
_chemical_formula_sum "Si O2"
_cell_formula_units_Z 112
_cell_length_a 26.875504
_cell_length_b 14.581639
_cell_length_c 14.680241
_cell_angle_alpha 90.000000
_cell_angle_beta 90.000000
_cell_angle_gamma 90.000000
_cell_volume 5753.023457
_symmetry_space_group_name_H-M "C M C M"
_symmetry_group_IT_number 63
_symmetry_cell_setting 'orthorhombic'
loop_
_space_group_symop_operation_xyz
x,y,z
-x,-y,1/2+z
x,-y,-z
-x,y,1/2-z
-x,-y,-z
x,y,1/2-z
-x,y,z
x,-y,1/2+z
1/2+x,1/2+y,z
1/2-x,1/2-y,1/2+z
1/2+x,1/2-y,-z
1/2-x,1/2+y,1/2-z
1/2-x,1/2-y,-z
1/2+x,1/2+y,1/2-z
1/2-x,1/2+y,z
1/2+x,1/2-y,1/2+z
loop_
_atom_site_type_symbol
_atom_site_label
_atom_site_fract_x
_atom_site_fract_y
_atom_site_fract_z
Si Si1 0.942000 0.239009 0.143679
Si Si2 0.638458 0.761976 0.494204
Si Si3 0.281352 0.215375 0.852228
Si Si4 0.359298 0.568042 0.916762
Si Si5 0.947105 0.963670 0.647588
Si Si6 0.307529 0.844118 0.850223
Si Si7 0.751132 0.979536 0.394498
O O1 0.926306 0.257712 0.250000
O O2 0.000000 0.264733 0.130990
O O3 0.930464 0.135335 0.108389
O O4 0.908352 0.294582 0.069148
O O5 0.682559 0.736685 0.424244
O O6 0.632274 0.672885 0.556728
O O7 0.652499 0.844103 0.566469
O O8 0.299850 0.237248 0.750000
O O9 0.226228 0.254475 0.868187
O O10 0.283068 0.106585 0.869448
O O11 0.406154 0.542864 0.854185
O O12 0.307598 0.545829 0.864116
O O13 0.364857 0.500000 0.000000
O O14 0.959040 0.937978 0.750000
O O15 0.000000 0.995877 0.602476
O O16 0.333331 0.836813 0.750000
O O17 0.271445 0.932261 0.845110
O O18 0.750500 0.000000 0.500000
#
# Coordination Sequence:
#
# PCOD8260983 Si02
#       7
#    16  16  16  16  16  16  16
#     4   9  19  36  58  85 114 147 192 243 292 342
#     4  12  21  37  56  81 116 149 189 242 287 335
#     4  11  22  37  57  82 112 152 196 239 287 339
#     4  11  21  31  52  78 106 151 197 231 275 334
#     4   9  19  34  50  74 109 147 194 243 278 328
#     4  11  24  38  55  81 116 154 197 241 283 341
#     4  11  21  38  57  78 115 155 193 237 284 340
#
# _framework density 19.468024
#
# number of rings (size 3 to 8) (size 9 to 14) (size 15 to 20)
#    0.000    1.429    4.286    3.857    0.000    2.571 
#    0.000    0.000    0.000    0.429    0.000    2.000 
#    0.000    2.286    0.000    0.143    0.000    0.000 
#
# Total GULP energy -693808.446087 kJ/mol
# GULP energy per Si atom -12389.436537 kJ/mol
# Density = 1.942371 g / cm^3
# Si number density = 19.468024 Si / 1000 Ang^3
#
#
#
# Elastic Constant Matrix: (Units=GPa)
#
#
# Indices 1 2 3 4 5 6 
#
# 1 94.0351 16.3076 52.7056 0.0000 0.0000 0.0000
# 2 16.3076 59.9342 11.8642 0.0000 0.0000 0.0000
# 3 52.7056 11.8642 102.8464 0.0000 0.0000 0.0000
# 4 0.0000 0.0000 0.0000 21.6856 0.0000 0.0000
# 5 0.0000 0.0000 0.0000 0.0000 40.8142 0.0000
# 6 0.0000 0.0000 0.0000 0.0000 0.0000 13.0370
#
#
#
# Elastic Compliance Matrix: (Units=1/GPa)
#
#
# Indices 1 2 3 4 5 6 
#
# 1 0.015328 -0.002677 -0.007546 0.000000 0.000000 0.000000
# 2 -0.002677 0.017542 -0.000652 0.000000 0.000000 0.000000
# 3 -0.007546 -0.000652 0.013666 0.000000 0.000000 0.000000
# 4 0.000000 0.000000 0.000000 0.046114 0.000000 0.000000
# 5 0.000000 0.000000 0.000000 0.000000 0.024501 0.000000
# 6 0.000000 0.000000 0.000000 0.000000 0.000000 0.076705
#
#
# Mechanical properties :
#
#
# Convention : Reuss Voigt Hill
#
# Bulk Modulus (GPa) = 40.34530 46.50784 43.42657
# Shear Modulus (GPa) = 22.33456 26.83657 24.58557
#
# Velocity S-wave (km/s) = 3.39077 3.71684 3.55754
# Velocity P-wave (km/s) = 6.00822 6.50854 6.26337
#
# Compressibility (1/GPa) = 0.02478604
#
# Stress axis : x y z
#
# Youngs Moduli (GPa) = 65.23900 57.00488 73.17557
#
# Poissons Ratio (x) = 0.15259 0.55222
# Poissons Ratio (y) = 0.17463 0.04770
# Poissons Ratio (z) = 0.49232 0.03716
#
# Static dielectric constant tensor:
#      x y z
#    x 3.652260 0.000000 0.000000 
#    y 0.000000 3.301060 0.000000 
#    z 0.000000 0.000000 3.541590 
# 
# 
# High freq. dielectric constant tensor:
#      x y z
#    x 1.738800 0.000000 0.000000 
#    y 0.000000 1.725450 0.000000 
#    z 0.000000 0.000000 1.768420 
# 
# From -- ./inp_files/37925.got.cif
#   From: 2010.03.12/outbox.cif.g09.slc.cpg/sg63_19_cif.got.tgz:37925.got - 2010.04.10 19:34:48.
