data_PCOD8260385
_publ_section_title
;
Structure prediction by ZEFSAII (Michael W. Deem and Ramdas Pophale) SiO2 
 PCOD8260385
Probable space group: C M C M
;
_chemical_formula_sum "Si O2"
_cell_formula_units_Z 80
_cell_length_a 15.674943
_cell_length_b 28.920165
_cell_length_c 8.939261
_cell_angle_alpha 90.000000
_cell_angle_beta 90.000000
_cell_angle_gamma 90.000000
_cell_volume 4052.363120
_symmetry_space_group_name_H-M "C M C M"
_symmetry_group_IT_number 63
_symmetry_cell_setting 'orthorhombic'
loop_
_space_group_symop_operation_xyz
x,y,z
-x,-y,1/2+z
x,-y,-z
-x,y,1/2-z
-x,-y,-z
x,y,1/2-z
-x,y,z
x,-y,1/2+z
1/2+x,1/2+y,z
1/2-x,1/2-y,1/2+z
1/2+x,1/2-y,-z
1/2-x,1/2+y,1/2-z
1/2-x,1/2-y,-z
1/2+x,1/2+y,1/2-z
1/2-x,1/2+y,z
1/2+x,1/2-y,1/2+z
loop_
_atom_site_type_symbol
_atom_site_label
_atom_site_fract_x
_atom_site_fract_y
_atom_site_fract_z
Si Si1 0.669521 0.046691 0.423268
Si Si2 0.401519 0.866291 0.080623
Si Si3 0.500000 0.612486 0.572043
Si Si4 0.500000 0.710971 0.073428
Si Si5 0.665388 0.230834 0.925999
Si Si6 0.866910 0.952432 0.573889
O O1 0.653888 0.039883 0.250000
O O2 0.615029 0.089938 0.477162
O O3 0.768023 0.055750 0.461771
O O4 0.636019 0.000000 0.500000
O O5 0.375354 0.879044 0.250000
O O6 0.500000 0.852033 0.072697
O O7 0.347852 0.822254 0.022611
O O8 0.500000 0.607334 0.750000
O O9 0.500000 0.665434 0.525775
O O10 0.415806 0.589509 0.503035
O O11 0.500000 0.699298 0.250000
O O12 0.583636 0.739388 0.025847
O O13 0.677005 0.233149 0.750000
O O14 0.750000 0.250000 0.000000
O O15 0.886452 0.953893 0.750000
O O16 0.899036 0.000000 0.500000
#
# Coordination Sequence:
#
# PCOD8260385 Si02
#       6
#    16  16   8   8  16  16
#     4  10  22  39  61  89 119 154 195 243 294 351
#     4  10  21  40  64  88 118 157 196 240 296 357
#     4  12  25  37  56  86 119 157 201 246 295 348
#     4  10  22  43  63  86 125 163 201 248 302 364
#     4  10  22  41  65  90 120 160 202 248 303 358
#     4  10  21  39  60  84 118 157 198 242 295 353
#
# _framework density 19.741567
#
# number of rings (size 3 to 8) (size 9 to 14) (size 15 to 20)
#    0.000    1.800    1.000    2.400    2.800    4.800 
#    0.000    0.000    0.000    0.000    0.000    0.000 
#    0.000    0.000    0.000    0.000    0.000    0.000 
#
# Total GULP energy -496170.372247 kJ/mol
# GULP energy per Si atom -12404.259306 kJ/mol
# Density = 1.969663 g / cm^3
# Si number density = 19.741567 Si / 1000 Ang^3
#
#
#
# Elastic Constant Matrix: (Units=GPa)
#
#
# Indices 1 2 3 4 5 6 
#
# 1 95.8922 56.8952 36.3876 0.0000 0.0000 0.0000
# 2 56.8952 156.0169 57.0340 0.0000 0.0000 0.0000
# 3 36.3876 57.0340 84.9282 0.0000 0.0000 0.0000
# 4 0.0000 0.0000 0.0000 37.6616 0.0000 0.0000
# 5 0.0000 0.0000 0.0000 0.0000 21.7679 0.0000
# 6 0.0000 0.0000 0.0000 0.0000 0.0000 30.8354
#
#
#
# Elastic Compliance Matrix: (Units=1/GPa)
#
#
# Indices 1 2 3 4 5 6 
#
# 1 0.014015 -0.003865 -0.003410 0.000000 0.000000 0.000000
# 2 -0.003865 0.009561 -0.004765 0.000000 0.000000 0.000000
# 3 -0.003410 -0.004765 0.016435 0.000000 0.000000 0.000000
# 4 0.000000 0.000000 0.000000 0.026552 0.000000 0.000000
# 5 0.000000 0.000000 0.000000 0.000000 0.045939 0.000000
# 6 0.000000 0.000000 0.000000 0.000000 0.000000 0.032430
#
#
# Mechanical properties :
#
#
# Convention : Reuss Voigt Hill
#
# Bulk Modulus (GPa) = 62.76132 70.83010 66.79571
# Shear Modulus (GPa) = 28.68263 30.48768 29.58516
#
# Velocity S-wave (km/s) = 3.81583 3.93407 3.87540
# Velocity P-wave (km/s) = 7.16063 7.52280 7.34394
#
# Compressibility (1/GPa) = 0.01593338
#
# Stress axis : x y z
#
# Youngs Moduli (GPa) = 71.35169 104.59520 60.84475
#
# Poissons Ratio (x) = 0.40421 0.20745
# Poissons Ratio (y) = 0.27574 0.28991
# Poissons Ratio (z) = 0.24328 0.49837
#
# Static dielectric constant tensor:
#      x y z
#    x 3.294370 0.000000 0.000000 
#    y 0.000000 3.642210 0.000000 
#    z 0.000000 0.000000 3.542050 
# 
# 
# High freq. dielectric constant tensor:
#      x y z
#    x 1.774230 0.000000 0.000000 
#    y 0.000000 1.781060 0.000000 
#    z 0.000000 0.000000 1.768310 
# 
# From -- ./inp_files/6543.got.cif
#   From: 2010.03.12/outbox.cif.g09.slc.cpg/sg63_4_cif.got.tgz:6543.got - 2010.04.10 19:34:48.
