data_PCOD8260798
_publ_section_title
;
Structure prediction by ZEFSAII (Michael W. Deem and Ramdas Pophale) SiO2 
 PCOD8260798
Probable space group: C M C M
;
_chemical_formula_sum "Si O2"
_cell_formula_units_Z 60
_cell_length_a 11.089570
_cell_length_b 19.525622
_cell_length_c 14.053361
_cell_angle_alpha 90.000000
_cell_angle_beta 90.000000
_cell_angle_gamma 90.000000
_cell_volume 3042.984825
_symmetry_space_group_name_H-M "C M C M"
_symmetry_group_IT_number 63
_symmetry_cell_setting 'orthorhombic'
loop_
_space_group_symop_operation_xyz
x,y,z
-x,-y,1/2+z
x,-y,-z
-x,y,1/2-z
-x,-y,-z
x,y,1/2-z
-x,y,z
x,-y,1/2+z
1/2+x,1/2+y,z
1/2-x,1/2-y,1/2+z
1/2+x,1/2-y,-z
1/2-x,1/2+y,1/2-z
1/2-x,1/2-y,-z
1/2+x,1/2+y,1/2-z
1/2-x,1/2+y,z
1/2+x,1/2-y,1/2+z
loop_
_atom_site_type_symbol
_atom_site_label
_atom_site_fract_x
_atom_site_fract_y
_atom_site_fract_z
Si Si1 0.141425 0.251939 0.250000
Si Si2 0.000000 0.635372 0.144110
Si Si3 0.141024 0.933109 0.447029
Si Si4 0.500000 0.002425 0.250000
Si Si5 0.251518 0.685780 0.432814
Si Si6 0.770461 0.593558 0.750000
O O1 0.180256 0.205851 0.162180
O O2 0.204438 0.325633 0.250000
O O3 0.000000 0.264584 0.250000
O O4 0.116411 0.659196 0.085839
O O5 0.000000 0.669874 0.250000
O O6 0.000000 0.552324 0.156772
O O7 0.169908 0.870730 0.515502
O O8 0.197715 0.925228 0.343674
O O9 0.000000 0.938771 0.430316
O O10 0.192298 0.000000 0.500000
O O11 0.612151 0.952611 0.250000
O O12 0.250000 0.750000 0.500000
#
# Coordination Sequence:
#
# PCOD8260798 Si02
#       6
#     8   8  16   4  16   8
#     4  12  25  43  64 101 137 173 222 280 343 405
#     4  10  24  45  68  98 134 184 229 277 350 414
#     4  11  26  45  69 101 137 182 230 279 345 413
#     4  10  22  44  70  96 136 180 226 280 352 408
#     4  12  25  43  70  99 136 180 227 284 343 411
#     4  12  23  43  70 100 141 174 230 288 341 407
#
# _framework density 19.717482
#
# number of rings (size 3 to 8) (size 9 to 14) (size 15 to 20)
#    0.400    0.267    4.667    2.800    3.733    2.133 
#    2.400    4.000    0.000    0.000    0.000    0.000 
#    0.000    0.000    0.000    0.000    0.000    0.000 
#
# Total GULP energy -372033.660354 kJ/mol
# GULP energy per Si atom -12401.122012 kJ/mol
# Density = 1.967260 g / cm^3
# Si number density = 19.717482 Si / 1000 Ang^3
#
#
#
# Elastic Constant Matrix: (Units=GPa)
#
#
# Indices 1 2 3 4 5 6 
#
# 1 96.3980 38.2725 52.7425 0.0000 0.0000 0.0000
# 2 38.2725 153.3057 77.6674 0.0000 0.0000 0.0000
# 3 52.7425 77.6674 172.3625 0.0000 0.0000 0.0000
# 4 0.0000 0.0000 0.0000 117.6410 0.0000 0.0000
# 5 0.0000 0.0000 0.0000 0.0000 28.8516 0.0000
# 6 0.0000 0.0000 0.0000 0.0000 0.0000 32.4012
#
#
#
# Elastic Compliance Matrix: (Units=1/GPa)
#
#
# Indices 1 2 3 4 5 6 
#
# 1 0.012742 -0.001562 -0.003195 0.000000 0.000000 0.000000
# 2 -0.001562 0.008644 -0.003417 0.000000 0.000000 0.000000
# 3 -0.003195 -0.003417 0.008319 0.000000 0.000000 0.000000
# 4 0.000000 0.000000 0.000000 0.008500 0.000000 0.000000
# 5 0.000000 0.000000 0.000000 0.000000 0.034660 0.000000
# 6 0.000000 0.000000 0.000000 0.000000 0.000000 0.030863
#
#
# Mechanical properties :
#
#
# Convention : Reuss Voigt Hill
#
# Bulk Modulus (GPa) = 74.87004 84.38120 79.62562
# Shear Modulus (GPa) = 40.15107 52.67103 46.41105
#
# Velocity S-wave (km/s) = 4.51745 5.17406 4.85686
# Velocity P-wave (km/s) = 8.07859 8.86468 8.48075
#
# Compressibility (1/GPa) = 0.01335648
#
# Stress axis : x y z
#
# Youngs Moduli (GPa) = 78.48020 115.68641 120.20529
#
# Poissons Ratio (x) = 0.18075 0.38406
# Poissons Ratio (y) = 0.12262 0.41074
# Poissons Ratio (z) = 0.25075 0.39530
#
# Static dielectric constant tensor:
#      x y z
#    x 3.658750 0.000000 0.000000 
#    y 0.000000 3.828320 0.000000 
#    z 0.000000 0.000000 3.686750 
# 
# 
# High freq. dielectric constant tensor:
#      x y z
#    x 1.780630 0.000000 0.000000 
#    y 0.000000 1.786090 0.000000 
#    z 0.000000 0.000000 1.784210 
# 
# From -- ./inp_files/17185.got.cif
#   From: 2010.03.12/outbox.cif.g09.slc.cpg/sg63_9_cif.got.tgz:17185.got - 2010.04.10 19:34:48.
