data_PCOD8260735
_publ_section_title
;
Structure prediction by ZEFSAII (Michael W. Deem and Ramdas Pophale) SiO2 
 PCOD8260735
Probable space group: C M C M
;
_chemical_formula_sum "Si O2"
_cell_formula_units_Z 56
_cell_length_a 17.562958
_cell_length_b 15.034693
_cell_length_c 10.189821
_cell_angle_alpha 90.000000
_cell_angle_beta 90.000000
_cell_angle_gamma 90.000000
_cell_volume 2690.659751
_symmetry_space_group_name_H-M "C M C M"
_symmetry_group_IT_number 63
_symmetry_cell_setting 'orthorhombic'
loop_
_space_group_symop_operation_xyz
x,y,z
-x,-y,1/2+z
x,-y,-z
-x,y,1/2-z
-x,-y,-z
x,y,1/2-z
-x,y,z
x,-y,1/2+z
1/2+x,1/2+y,z
1/2-x,1/2-y,1/2+z
1/2+x,1/2-y,-z
1/2-x,1/2+y,1/2-z
1/2-x,1/2-y,-z
1/2+x,1/2+y,1/2-z
1/2-x,1/2+y,z
1/2+x,1/2-y,1/2+z
loop_
_atom_site_type_symbol
_atom_site_label
_atom_site_fract_x
_atom_site_fract_y
_atom_site_fract_z
Si Si1 0.315179 0.835642 0.250000
Si Si2 0.413498 0.764331 0.479102
Si Si3 0.752210 0.533739 0.250000
Si Si4 0.108957 0.065900 0.108104
Si Si5 0.830987 0.289610 0.750000
O O1 0.365867 0.826356 0.380610
O O2 0.280672 0.933446 0.250000
O O3 0.249818 0.760780 0.250000
O O4 0.500000 0.800093 0.484586
O O5 0.412853 0.665024 0.426590
O O6 0.378212 0.762609 0.623065
O O7 0.700607 0.552638 0.120213
O O8 0.821113 0.603695 0.250000
O O9 0.071803 0.042991 0.250000
O O10 0.074414 0.000000 0.000000
#
# Coordination Sequence:
#
# PCOD8260735 Si02
#       5
#     8  16   8  16   8
#     4  12  23  44  77  98 134 182 236 280 339 401
#     4  12  26  46  67 100 145 187 219 276 354 411
#     4  10  24  39  70 103 133 168 239 285 331 382
#     4  10  22  41  66 101 132 170 227 284 343 394
#     4  12  25  43  69 105 135 178 239 287 326 395
#
# _framework density 20.812740000000002
#
# number of rings (size 3 to 8) (size 9 to 14) (size 15 to 20)
#    0.857    0.000    4.286    3.429    6.000    0.571 
#    0.000    4.286    0.000    0.000    0.000    0.000 
#    0.000    0.000    0.000    0.000    0.000    0.000 
#
# Total GULP energy -347106.877758 kJ/mol
# GULP energy per Si atom -12396.674206 kJ/mol
# Density = 2.076537 g / cm^3
# Si number density = 20.812740 Si / 1000 Ang^3
#
#
#
# Elastic Constant Matrix: (Units=GPa)
#
#
# Indices 1 2 3 4 5 6 
#
# 1 136.8573 19.0912 48.9134 0.0000 0.0000 0.0000
# 2 19.0912 89.3073 14.8128 0.0000 0.0000 0.0000
# 3 48.9134 14.8128 167.7198 0.0000 0.0000 0.0000
# 4 0.0000 0.0000 0.0000 26.5764 0.0000 0.0000
# 5 0.0000 0.0000 0.0000 0.0000 52.3097 0.0000
# 6 0.0000 0.0000 0.0000 0.0000 0.0000 -222.8190
#
#
#
# Elastic Compliance Matrix: (Units=1/GPa)
#
#
# Indices 1 2 3 4 5 6 
#
# 1 0.008326 -0.001397 -0.002305 0.000000 0.000000 0.000000
# 2 -0.001397 0.011598 -0.000617 0.000000 0.000000 0.000000
# 3 -0.002305 -0.000617 0.006689 0.000000 0.000000 0.000000
# 4 0.000000 0.000000 0.000000 0.037627 0.000000 0.000000
# 5 0.000000 0.000000 0.000000 0.000000 0.019117 0.000000
# 6 0.000000 0.000000 0.000000 0.000000 0.000000 -0.004488
#
#
# Mechanical properties :
#
#
# Convention : Reuss Voigt Hill
#
# Bulk Modulus (GPa) = 55.63291 62.16881 58.90086
# Shear Modulus (GPa) = 53.47679 -8.04878 22.71400
#
# Velocity S-wave (km/s) = 5.07445 -1.96866 3.30714
# Velocity P-wave (km/s) = 7.81803 4.97673 6.55323
#
# Compressibility (1/GPa) = 0.01797497
#
# Stress axis : x y z
#
# Youngs Moduli (GPa) = 120.11287 86.21927 149.50117
#
# Poissons Ratio (x) = 0.12049 0.34454
# Poissons Ratio (y) = 0.16786 0.09221
# Poissons Ratio (z) = 0.27681 0.05318
#
# Static dielectric constant tensor:
#      x y z
#    x 3.875620 0.000000 0.000000 
#    y 0.000000 3.571940 0.000000 
#    z 0.000000 0.000000 4.656360 
# 
# 
# High freq. dielectric constant tensor:
#      x y z
#    x 1.815030 0.000000 0.000000 
#    y 0.000000 1.805290 0.000000 
#    z 0.000000 0.000000 1.830520 
# 
# From -- ./inp_files/7354.got.cif
#   From: 2010.03.12/outbox.cif.g09.slc.cpg/sg63_4_cif.got.tgz:7354.got - 2010.04.10 19:34:48.
