data_PCOD8260765
_publ_section_title
;
Structure prediction by ZEFSAII (Michael W. Deem and Ramdas Pophale) SiO2 
 PCOD8260765
Probable space group: C M C M
;
_chemical_formula_sum "Si O2"
_cell_formula_units_Z 112
_cell_length_a 21.733063
_cell_length_b 15.162858
_cell_length_c 15.622661
_cell_angle_alpha 90.000000
_cell_angle_beta 90.000000
_cell_angle_gamma 90.000000
_cell_volume 5148.219032
_symmetry_space_group_name_H-M "C M C M"
_symmetry_group_IT_number 63
_symmetry_cell_setting 'orthorhombic'
loop_
_space_group_symop_operation_xyz
x,y,z
-x,-y,1/2+z
x,-y,-z
-x,y,1/2-z
-x,-y,-z
x,y,1/2-z
-x,y,z
x,-y,1/2+z
1/2+x,1/2+y,z
1/2-x,1/2-y,1/2+z
1/2+x,1/2-y,-z
1/2-x,1/2+y,1/2-z
1/2-x,1/2-y,-z
1/2+x,1/2+y,1/2-z
1/2-x,1/2+y,z
1/2+x,1/2-y,1/2+z
loop_
_atom_site_type_symbol
_atom_site_label
_atom_site_fract_x
_atom_site_fract_y
_atom_site_fract_z
Si Si1 0.134681 0.166617 0.920528
Si Si2 0.164866 0.656584 0.154203
Si Si3 0.928167 0.488443 0.901439
Si Si4 0.356580 0.150436 0.654171
Si Si5 0.760027 0.395909 0.007111
Si Si6 0.569113 0.500415 0.849622
Si Si7 0.571047 0.689045 0.414278
O O1 0.144480 0.241517 0.849621
O O2 0.195209 0.149910 0.976746
O O3 0.115503 0.077567 0.873467
O O4 0.082430 0.203296 0.984832
O O5 0.190349 0.637975 0.250000
O O6 0.106210 0.595374 0.137175
O O7 0.217375 0.639889 0.084271
O O8 0.909582 0.576757 0.851831
O O9 0.000000 0.471105 0.890655
O O10 0.908511 0.500000 0.000000
O O11 0.327999 0.148312 0.750000
O O12 0.304167 0.130851 0.585146
O O13 0.387480 0.245154 0.640639
O O14 0.753699 0.500000 0.000000
O O15 0.571174 0.481902 0.750000
O O16 0.500000 0.525872 0.879361
O O17 0.591060 0.411262 0.895235
O O18 0.500000 0.706051 0.391348
#
# Coordination Sequence:
#
# PCOD8260765 Si02
#       7
#    16  16  16  16  16  16  16
#     4  12  25  45  68  96 134 181 229 281 340 407
#     4  12  25  44  68  97 135 178 227 283 343 405
#     4  11  22  42  70 100 140 184 226 278 343 413
#     4  12  24  41  67 101 139 180 224 278 340 403
#     4  12  25  48  69  97 138 181 230 286 337 406
#     4  10  22  42  67 100 137 174 227 285 339 403
#     4  11  23  42  68  99 135 177 226 281 344 404
#
# _framework density 21.755096000000002
#
# number of rings (size 3 to 8) (size 9 to 14) (size 15 to 20)
#    0.000    0.571    4.286    3.857    0.000    7.143 
#    0.000    2.143    0.000    0.000    0.000    0.000 
#    0.000    0.000    0.000    0.000    0.000    0.000 
#
# Total GULP energy -694696.224151 kJ/mol
# GULP energy per Si atom -12405.289717 kJ/mol
# Density = 2.170558 g / cm^3
# Si number density = 21.755096 Si / 1000 Ang^3
#
#
#
# Elastic Constant Matrix: (Units=GPa)
#
#
# Indices 1 2 3 4 5 6 
#
# 1 56.5136 26.3902 24.2832 0.0000 0.0000 0.0000
# 2 26.3902 118.3859 20.7113 0.0000 0.0000 0.0000
# 3 24.2832 20.7113 131.0854 0.0000 0.0000 0.0000
# 4 0.0000 0.0000 0.0000 27.9034 0.0000 0.0000
# 5 0.0000 0.0000 0.0000 0.0000 11.3900 0.0000
# 6 0.0000 0.0000 0.0000 0.0000 0.0000 26.2482
#
#
#
# Elastic Compliance Matrix: (Units=1/GPa)
#
#
# Indices 1 2 3 4 5 6 
#
# 1 0.021010 -0.004116 -0.003242 0.000000 0.000000 0.000000
# 2 -0.004116 0.009494 -0.000737 0.000000 0.000000 0.000000
# 3 -0.003242 -0.000737 0.008346 0.000000 0.000000 0.000000
# 4 0.000000 0.000000 0.000000 0.035838 0.000000 0.000000
# 5 0.000000 0.000000 0.000000 0.000000 0.087797 0.000000
# 6 0.000000 0.000000 0.000000 0.000000 0.000000 0.038098
#
#
# Mechanical properties :
#
#
# Convention : Reuss Voigt Hill
#
# Bulk Modulus (GPa) = 44.13394 49.86159 46.99776
# Shear Modulus (GPa) = 22.28906 28.74832 25.51869
#
# Velocity S-wave (km/s) = 3.20432 3.63912 3.42862
# Velocity P-wave (km/s) = 5.83275 6.37392 6.10933
#
# Compressibility (1/GPa) = 0.02265830
#
# Stress axis : x y z
#
# Youngs Moduli (GPa) = 47.59640 105.33453 119.82308
#
# Poissons Ratio (x) = 0.43359 0.38843
# Poissons Ratio (y) = 0.19592 0.08836
# Poissons Ratio (z) = 0.15429 0.07768
#
# Static dielectric constant tensor:
#      x y z
#    x 3.875740 0.000000 0.000000 
#    y 0.000000 4.091170 0.000000 
#    z 0.000000 0.000000 4.011180 
# 
# 
# High freq. dielectric constant tensor:
#      x y z
#    x 1.848550 0.000000 0.000000 
#    y 0.000000 1.873450 0.000000 
#    z 0.000000 0.000000 1.861230 
# 
# From -- ./inp_files/36854.got.cif
#   From: 2010.03.12/outbox.cif.g09.slc.cpg/sg63_19_cif.got.tgz:36854.got - 2010.04.10 19:34:48.
