data_PCOD8260842
_publ_section_title
;
Structure prediction by ZEFSAII (Michael W. Deem and Ramdas Pophale) SiO2 
 PCOD8260842
Probable space group: C M C M
;
_chemical_formula_sum "Si O2"
_cell_formula_units_Z 96
_cell_length_a 17.291360
_cell_length_b 11.286474
_cell_length_c 23.039160
_cell_angle_alpha 90.000000
_cell_angle_beta 90.000000
_cell_angle_gamma 90.000000
_cell_volume 4496.287563
_symmetry_space_group_name_H-M "C M C M"
_symmetry_group_IT_number 63
_symmetry_cell_setting 'orthorhombic'
loop_
_space_group_symop_operation_xyz
x,y,z
-x,-y,1/2+z
x,-y,-z
-x,y,1/2-z
-x,-y,-z
x,y,1/2-z
-x,y,z
x,-y,1/2+z
1/2+x,1/2+y,z
1/2-x,1/2-y,1/2+z
1/2+x,1/2-y,-z
1/2-x,1/2+y,1/2-z
1/2-x,1/2-y,-z
1/2+x,1/2+y,1/2-z
1/2-x,1/2+y,z
1/2+x,1/2-y,1/2+z
loop_
_atom_site_type_symbol
_atom_site_label
_atom_site_fract_x
_atom_site_fract_y
_atom_site_fract_z
Si Si1 0.669664 0.540855 0.612613
Si Si2 0.589975 0.858610 0.315238
Si Si3 0.910121 0.808152 0.915037
Si Si4 0.086525 0.785125 0.317297
Si Si5 0.333007 0.238474 0.026705
Si Si6 0.334983 0.929398 0.627102
O O1 0.631526 0.432788 0.578861
O O2 0.619375 0.583433 0.667895
O O3 0.661676 0.650811 0.569324
O O4 0.754148 0.499711 0.634421
O O5 0.627941 0.856389 0.250000
O O6 0.500000 0.837057 0.307739
O O7 0.625005 0.757741 0.357912
O O8 0.600042 0.982086 0.349130
O O9 0.000000 0.826973 0.906950
O O10 0.895117 0.737060 0.974656
O O11 0.075433 0.776432 0.250000
O O12 0.152039 0.689662 0.335612
O O13 0.000000 0.765598 0.345636
O O14 0.344180 0.112822 0.060148
O O15 0.250000 0.250000 0.000000
#
# Coordination Sequence:
#
# PCOD8260842 Si02
#       6
#    16  16  16  16  16  16
#     4  11  24  40  63  95 130 169 213 271 328 392
#     4  10  23  43  65  91 129 172 214 267 325 384
#     4  11  24  41  65  96 128 172 218 258 322 402
#     4  10  23  43  65  93 132 175 222 277 332 389
#     4  11  23  41  63  91 131 167 208 267 329 382
#     4  11  23  39  67  96 126 171 219 268 331 387
#
# _framework density 21.350947999999999
#
# number of rings (size 3 to 8) (size 9 to 14) (size 15 to 20)
#    0.000    1.333    1.667    3.000    2.333   10.000 
#    0.000    3.333    0.000    0.000    0.000    0.000 
#    0.000    0.000    0.000    0.000    0.000    0.000 
#
# Total GULP energy -594772.643183 kJ/mol
# GULP energy per Si atom -12391.096733 kJ/mol
# Density = 2.130235 g / cm^3
# Si number density = 21.350948 Si / 1000 Ang^3
#
#
#
# Elastic Constant Matrix: (Units=GPa)
#
#
# Indices 1 2 3 4 5 6 
#
# 1 66.4736 28.2055 37.1914 0.0000 0.0000 0.0000
# 2 28.2055 89.3425 44.0878 0.0000 0.0000 0.0000
# 3 37.1914 44.0878 116.7168 0.0000 0.0000 0.0000
# 4 0.0000 0.0000 0.0000 32.6437 0.0000 0.0000
# 5 0.0000 0.0000 0.0000 0.0000 33.0121 0.0000
# 6 0.0000 0.0000 0.0000 0.0000 0.0000 36.9264
#
#
#
# Elastic Compliance Matrix: (Units=1/GPa)
#
#
# Indices 1 2 3 4 5 6 
#
# 1 0.019281 -0.003755 -0.004725 0.000000 0.000000 0.000000
# 2 -0.003755 0.014489 -0.004276 0.000000 0.000000 0.000000
# 3 -0.004725 -0.004276 0.011689 0.000000 0.000000 0.000000
# 4 0.000000 0.000000 0.000000 0.030634 0.000000 0.000000
# 5 0.000000 0.000000 0.000000 0.000000 0.030292 0.000000
# 6 0.000000 0.000000 0.000000 0.000000 0.000000 0.027081
#
#
# Mechanical properties :
#
#
# Convention : Reuss Voigt Hill
#
# Bulk Modulus (GPa) = 50.13884 54.61138 52.37511
# Shear Modulus (GPa) = 30.18847 31.38632 30.78740
#
# Velocity S-wave (km/s) = 3.76429 3.83824 3.80145
# Velocity P-wave (km/s) = 6.51363 6.72877 6.62207
#
# Compressibility (1/GPa) = 0.01994462
#
# Stress axis : x y z
#
# Youngs Moduli (GPa) = 51.86545 69.01984 85.55251
#
# Poissons Ratio (x) = 0.25918 0.40426
# Poissons Ratio (y) = 0.19476 0.36584
# Poissons Ratio (z) = 0.24508 0.29515
#
# Static dielectric constant tensor:
#      x y z
#    x 4.117410 0.000000 0.000000 
#    y 0.000000 4.183610 0.000000 
#    z 0.000000 0.000000 3.970890 
# 
# 
# High freq. dielectric constant tensor:
#      x y z
#    x 1.831990 0.000000 0.000000 
#    y 0.000000 1.842900 0.000000 
#    z 0.000000 0.000000 1.845510 
# 
# From -- ./inp_files/63701.got.cif
#   From: 2010.03.12/outbox.cif.g09.slc.cpg/sg63_32_cif.got.tgz:63701.got - 2010.04.10 19:34:48.
