data_PCOD8260313
_publ_section_title
;
Structure prediction by ZEFSAII (Michael W. Deem and Ramdas Pophale) SiO2 
 PCOD8260313
Probable space group: C M C M
;
_chemical_formula_sum "Si O2"
_cell_formula_units_Z 72
_cell_length_a 20.968115
_cell_length_b 19.437934
_cell_length_c 8.856055
_cell_angle_alpha 90.000000
_cell_angle_beta 90.000000
_cell_angle_gamma 90.000000
_cell_volume 3609.522872
_symmetry_space_group_name_H-M "C M C M"
_symmetry_group_IT_number 63
_symmetry_cell_setting 'orthorhombic'
loop_
_space_group_symop_operation_xyz
x,y,z
-x,-y,1/2+z
x,-y,-z
-x,y,1/2-z
-x,-y,-z
x,y,1/2-z
-x,y,z
x,-y,1/2+z
1/2+x,1/2+y,z
1/2-x,1/2-y,1/2+z
1/2+x,1/2-y,-z
1/2-x,1/2+y,1/2-z
1/2-x,1/2-y,-z
1/2+x,1/2+y,1/2-z
1/2-x,1/2+y,z
1/2+x,1/2-y,1/2+z
loop_
_atom_site_type_symbol
_atom_site_label
_atom_site_fract_x
_atom_site_fract_y
_atom_site_fract_z
Si Si1 0.121350 0.162306 0.428842
Si Si2 0.926090 0.296202 0.923629
Si Si3 0.372461 0.071489 0.573951
Si Si4 0.224235 0.071369 0.574214
Si Si5 0.000000 0.925405 0.928341
O O1 0.126336 0.164292 0.250000
O O2 0.114535 0.239522 0.488234
O O3 0.186298 0.133146 0.497431
O O4 0.062171 0.115790 0.484064
O O5 0.904542 0.297584 0.750000
O O6 0.000000 0.277656 0.940544
O O7 0.913885 0.369838 0.996889
O O8 0.388269 0.068638 0.750000
O O9 0.298188 0.085980 0.543605
O O10 0.393605 0.000000 0.500000
O O11 0.207817 0.067449 0.750000
O O12 0.202201 0.000000 0.500000
O O13 0.000000 0.933506 0.750000
O O14 0.000000 0.000000 0.000000
#
# Coordination Sequence:
#
# PCOD8260313 Si02
#       5
#    16  16  16  16   8
#     4  11  22  38  59  85 119 160 200 243 295 351
#     4  11  24  41  62  88 119 156 198 247 299 354
#     4  10  22  41  65  90 119 154 195 246 298 355
#     4  10  21  38  60  89 121 156 199 245 295 350
#     4  10  22  36  54  82 115 154 199 240 284 340
#
# _framework density 19.947234000000002
#
# number of rings (size 3 to 8) (size 9 to 14) (size 15 to 20)
#    0.000    1.556    1.111    3.333    0.000    8.889 
#    0.000    0.000    0.000    0.000    0.000    0.000 
#    0.000    0.000    0.000    0.000    0.000    0.000 
#
# Total GULP energy -446672.402376 kJ/mol
# GULP energy per Si atom -12407.566733 kJ/mol
# Density = 1.990183 g / cm^3
# Si number density = 19.947234 Si / 1000 Ang^3
#
#
#
# Elastic Constant Matrix: (Units=GPa)
#
#
# Indices 1 2 3 4 5 6 
#
# 1 30.6812 19.1151 27.8822 0.0000 0.0000 0.0000
# 2 19.1151 122.2859 45.7039 0.0000 0.0000 0.0000
# 3 27.8822 45.7039 108.6416 0.0000 0.0000 0.0000
# 4 0.0000 0.0000 0.0000 44.3887 0.0000 0.0000
# 5 0.0000 0.0000 0.0000 0.0000 29.5453 0.0000
# 6 0.0000 0.0000 0.0000 0.0000 0.0000 39.9380
#
#
#
# Elastic Compliance Matrix: (Units=1/GPa)
#
#
# Indices 1 2 3 4 5 6 
#
# 1 0.043486 -0.003116 -0.009849 0.000000 0.000000 0.000000
# 2 -0.003116 0.009927 -0.003376 0.000000 0.000000 0.000000
# 3 -0.009849 -0.003376 0.013153 0.000000 0.000000 0.000000
# 4 0.000000 0.000000 0.000000 0.022528 0.000000 0.000000
# 5 0.000000 0.000000 0.000000 0.000000 0.033846 0.000000
# 6 0.000000 0.000000 0.000000 0.000000 0.000000 0.025039
#
#
# Mechanical properties :
#
#
# Convention : Reuss Voigt Hill
#
# Bulk Modulus (GPa) = 29.51491 49.66791 39.59141
# Shear Modulus (GPa) = 26.04770 34.03489 30.04130
#
# Velocity S-wave (km/s) = 3.61755 4.13515 3.88498
# Velocity P-wave (km/s) = 5.68133 6.91036 6.32576
#
# Compressibility (1/GPa) = 0.03388118
#
# Stress axis : x y z
#
# Youngs Moduli (GPa) = 22.99610 100.74039 76.03033
#
# Poissons Ratio (x) = 0.31394 0.74885
# Poissons Ratio (y) = 0.07166 0.25669
# Poissons Ratio (z) = 0.22650 0.34011
#
# Static dielectric constant tensor:
#      x y z
#    x 3.583650 0.000000 0.000000 
#    y 0.000000 3.597930 0.000000 
#    z 0.000000 0.000000 3.600610 
# 
# 
# High freq. dielectric constant tensor:
#      x y z
#    x 1.775910 0.000000 0.000000 
#    y 0.000000 1.787380 0.000000 
#    z 0.000000 0.000000 1.791940 
# 
# From -- ./inp_files/9880.got.cif
#   From: 2010.03.12/outbox.cif.g09.slc.cpg/sg63_5_cif.got.tgz:9880.got - 2010.04.10 19:34:48.
