data_PCOD8260920
_publ_section_title
;
Structure prediction by ZEFSAII (Michael W. Deem and Ramdas Pophale) SiO2 
 PCOD8260920
Probable space group: C M C M
;
_chemical_formula_sum "Si O2"
_cell_formula_units_Z 80
_cell_length_a 20.478143
_cell_length_b 11.303622
_cell_length_c 17.123780
_cell_angle_alpha 90.000000
_cell_angle_beta 90.000000
_cell_angle_gamma 90.000000
_cell_volume 3963.764438
_symmetry_space_group_name_H-M "C M C M"
_symmetry_group_IT_number 63
_symmetry_cell_setting 'orthorhombic'
loop_
_space_group_symop_operation_xyz
x,y,z
-x,-y,1/2+z
x,-y,-z
-x,y,1/2-z
-x,-y,-z
x,y,1/2-z
-x,y,z
x,-y,1/2+z
1/2+x,1/2+y,z
1/2-x,1/2-y,1/2+z
1/2+x,1/2-y,-z
1/2-x,1/2+y,1/2-z
1/2-x,1/2-y,-z
1/2+x,1/2+y,1/2-z
1/2-x,1/2+y,z
1/2+x,1/2-y,1/2+z
loop_
_atom_site_type_symbol
_atom_site_label
_atom_site_fract_x
_atom_site_fract_y
_atom_site_fract_z
Si Si1 0.000000 0.555893 0.842559
Si Si2 0.572913 0.626101 0.402525
Si Si3 0.864695 0.663464 0.659950
Si Si4 0.103937 0.867944 0.416393
Si Si5 0.753061 0.125564 0.547504
Si Si6 0.500000 0.209261 0.158224
O O1 0.067136 0.612493 0.874202
O O2 0.000000 0.423019 0.873062
O O3 0.000000 0.567640 0.750000
O O4 0.500000 0.672735 0.383892
O O5 0.626397 0.695072 0.350234
O O6 0.575864 0.488842 0.381115
O O7 0.589967 0.644988 0.492453
O O8 0.851139 0.630014 0.750000
O O9 0.806545 0.613799 0.607354
O O10 0.181251 0.863768 0.401553
O O11 0.067253 0.764311 0.371972
O O12 0.750000 0.250000 0.500000
O O13 0.755228 0.000000 0.500000
O O14 0.500000 0.215909 0.250000
#
# Coordination Sequence:
#
# PCOD8260920 Si02
#       6
#     8  16  16  16  16   8
#     4   9  22  42  59  86 128 163 208 267 322 389
#     4  11  19  39  67  96 122 162 211 272 323 382
#     4  11  24  42  67  97 128 168 221 279 332 387
#     4  11  21  40  65  93 129 167 215 267 315 398
#     4  12  25  44  68  97 132 176 221 270 329 400
#     4  11  24  39  61  95 131 168 211 272 337 386
#
# _framework density 20.182832999999999
#
# number of rings (size 3 to 8) (size 9 to 14) (size 15 to 20)
#    0.000    1.000    7.000    0.600    2.800    1.600 
#    0.000    4.500    0.000    0.000    0.000    0.000 
#    0.000    0.000    0.000    0.000    0.000    0.000 
#
# Total GULP energy -495817.468697 kJ/mol
# GULP energy per Si atom -12395.436717 kJ/mol
# Density = 2.013690 g / cm^3
# Si number density = 20.182833 Si / 1000 Ang^3
#
#
#
# Elastic Constant Matrix: (Units=GPa)
#
#
# Indices 1 2 3 4 5 6 
#
# 1 176.4450 39.0057 41.9369 0.0000 0.0000 0.0000
# 2 39.0057 108.4816 37.3069 0.0000 0.0000 0.0000
# 3 41.9369 37.3069 50.9258 0.0000 0.0000 0.0000
# 4 0.0000 0.0000 0.0000 26.2480 0.0000 0.0000
# 5 0.0000 0.0000 0.0000 0.0000 31.3936 0.0000
# 6 0.0000 0.0000 0.0000 0.0000 0.0000 32.0911
#
#
#
# Elastic Compliance Matrix: (Units=1/GPa)
#
#
# Indices 1 2 3 4 5 6 
#
# 1 0.007089 -0.000724 -0.005308 0.000000 0.000000 0.000000
# 2 -0.000724 0.012396 -0.008485 0.000000 0.000000 0.000000
# 3 -0.005308 -0.008485 0.030223 0.000000 0.000000 0.000000
# 4 0.000000 0.000000 0.000000 0.038098 0.000000 0.000000
# 5 0.000000 0.000000 0.000000 0.000000 0.031854 0.000000
# 6 0.000000 0.000000 0.000000 0.000000 0.000000 0.031161
#
#
# Mechanical properties :
#
#
# Convention : Reuss Voigt Hill
#
# Bulk Modulus (GPa) = 48.36640 63.59461 55.98050
# Shear Modulus (GPa) = 26.77421 32.45340 29.61380
#
# Velocity S-wave (km/s) = 3.64618 4.01430 3.83466
# Velocity P-wave (km/s) = 6.46083 7.28449 6.88499
#
# Compressibility (1/GPa) = 0.02067551
#
# Stress axis : x y z
#
# Youngs Moduli (GPa) = 141.06470 80.66810 33.08704
#
# Poissons Ratio (x) = 0.05837 0.17561
# Poissons Ratio (y) = 0.10208 0.28076
# Poissons Ratio (z) = 0.74871 0.68450
#
# Static dielectric constant tensor:
#      x y z
#    x 2.916270 0.000000 0.000000 
#    y 0.000000 3.928280 0.000000 
#    z 0.000000 0.000000 3.405470 
# 
# 
# High freq. dielectric constant tensor:
#      x y z
#    x 1.804860 0.000000 0.000000 
#    y 0.000000 1.802190 0.000000 
#    z 0.000000 0.000000 1.759000 
# 
# From -- ./inp_files/46852.got.cif
#   From: 2010.03.12/outbox.cif.g09.slc.cpg/sg63_24_cif.got.tgz:46852.got - 2010.04.10 19:34:48.
