data_PCOD8260819
_publ_section_title
;
Structure prediction by ZEFSAII (Michael W. Deem and Ramdas Pophale) SiO2 
 PCOD8260819
Probable space group: C M C M
;
_chemical_formula_sum "Si O2"
_cell_formula_units_Z 96
_cell_length_a 13.114366
_cell_length_b 20.535725
_cell_length_c 18.713471
_cell_angle_alpha 90.000000
_cell_angle_beta 90.000000
_cell_angle_gamma 90.000000
_cell_volume 5039.781272
_symmetry_space_group_name_H-M "C M C M"
_symmetry_group_IT_number 63
_symmetry_cell_setting 'orthorhombic'
loop_
_space_group_symop_operation_xyz
x,y,z
-x,-y,1/2+z
x,-y,-z
-x,y,1/2-z
-x,-y,-z
x,y,1/2-z
-x,y,z
x,-y,1/2+z
1/2+x,1/2+y,z
1/2-x,1/2-y,1/2+z
1/2+x,1/2-y,-z
1/2-x,1/2+y,1/2-z
1/2-x,1/2-y,-z
1/2+x,1/2+y,1/2-z
1/2-x,1/2+y,z
1/2+x,1/2-y,1/2+z
loop_
_atom_site_type_symbol
_atom_site_label
_atom_site_fract_x
_atom_site_fract_y
_atom_site_fract_z
Si Si1 0.386342 0.590276 0.334485
Si Si2 0.881185 0.233022 0.172203
Si Si3 0.770362 0.306042 0.442676
Si Si4 0.882125 0.148688 0.670233
Si Si5 0.249564 0.523055 0.670210
Si Si6 0.880567 0.563869 0.954080
O O1 0.394304 0.579550 0.250000
O O2 0.500000 0.580174 0.367960
O O3 0.341181 0.661825 0.352139
O O4 0.304093 0.539581 0.365995
O O5 0.834484 0.253158 0.250000
O O6 0.858909 0.285972 0.112323
O O7 0.000000 0.225599 0.182121
O O8 0.750000 0.250000 0.500000
O O9 0.669372 0.310493 0.393682
O O10 0.810648 0.373765 0.478139
O O11 0.866917 0.179841 0.750000
O O12 0.836678 0.077009 0.670461
O O13 0.000000 0.144080 0.650644
O O14 0.210010 0.508130 0.750000
O O15 0.150194 0.545599 0.626722
O O16 0.000000 0.581766 0.958781
O O17 0.854390 0.500000 0.000000
#
# Coordination Sequence:
#
# PCOD8260819 Si02
#       6
#    16  16  16  16  16  16
#     4   8  14  26  49  81 112 138 165 211 277 335
#     4   9  18  33  54  81 110 139 179 233 285 327
#     4  11  23  36  57  82 109 147 191 235 278 335
#     4   9  18  34  55  80 109 140 178 224 278 336
#     4   9  17  31  57  84 106 136 179 228 272 323
#     4  10  23  41  57  75 110 152 188 225 276 332
#
# _framework density 19.048445999999998
#
# number of rings (size 3 to 8) (size 9 to 14) (size 15 to 20)
#    0.000    2.667    0.000    2.500    2.333    4.333 
#    0.000    0.000    0.000    2.500    0.000    0.000 
#    0.000    0.000    0.000    0.000    0.000    0.000 
#
# Total GULP energy -594763.578669 kJ/mol
# GULP energy per Si atom -12390.907889 kJ/mol
# Density = 1.900509 g / cm^3
# Si number density = 19.048446 Si / 1000 Ang^3
#
#
#
# Elastic Constant Matrix: (Units=GPa)
#
#
# Indices 1 2 3 4 5 6 
#
# 1 74.6744 31.9525 39.8648 0.0000 0.0000 0.0000
# 2 31.9525 99.5808 50.1738 0.0000 0.0000 0.0000
# 3 39.8648 50.1738 81.8508 0.0000 0.0000 0.0000
# 4 0.0000 0.0000 0.0000 31.9542 0.0000 0.0000
# 5 0.0000 0.0000 0.0000 0.0000 18.6741 0.0000
# 6 0.0000 0.0000 0.0000 0.0000 0.0000 26.1322
#
#
#
# Elastic Compliance Matrix: (Units=1/GPa)
#
#
# Indices 1 2 3 4 5 6 
#
# 1 0.018370 -0.002006 -0.007717 0.000000 0.000000 0.000000
# 2 -0.002006 0.014749 -0.008064 0.000000 0.000000 0.000000
# 3 -0.007717 -0.008064 0.020919 0.000000 0.000000 0.000000
# 4 0.000000 0.000000 0.000000 0.031295 0.000000 0.000000
# 5 0.000000 0.000000 0.000000 0.000000 0.053550 0.000000
# 6 0.000000 0.000000 0.000000 0.000000 0.000000 0.038267
#
#
# Mechanical properties :
#
#
# Convention : Reuss Voigt Hill
#
# Bulk Modulus (GPa) = 54.16119 55.56537 54.86328
# Shear Modulus (GPa) = 22.84383 24.29309 23.56846
#
# Velocity S-wave (km/s) = 3.46677 3.57505 3.52133
# Velocity P-wave (km/s) = 6.67232 6.80259 6.73777
#
# Compressibility (1/GPa) = 0.01846341
#
# Stress axis : x y z
#
# Youngs Moduli (GPa) = 54.43788 67.80244 47.80351
#
# Poissons Ratio (x) = 0.13601 0.36890
# Poissons Ratio (y) = 0.10920 0.38548
# Poissons Ratio (z) = 0.42010 0.54675
#
# Static dielectric constant tensor:
#      x y z
#    x 3.305450 0.000000 0.000000 
#    y 0.000000 3.895450 0.000000 
#    z 0.000000 0.000000 37.110840 
# 
# 
# High freq. dielectric constant tensor:
#      x y z
#    x 1.726790 0.000000 0.000000 
#    y 0.000000 1.745630 0.000000 
#    z 0.000000 0.000000 1.721890 
# 
# From -- ./inp_files/42520.got.cif
#   From: 2010.03.12/outbox.cif.g09.slc.cpg/sg63_22_cif.got.tgz:42520.got - 2010.04.10 19:34:48.
