data_PCOD8260864
_publ_section_title
;
Structure prediction by ZEFSAII (Michael W. Deem and Ramdas Pophale) SiO2 
 PCOD8260864
Probable space group: C M C M
;
_chemical_formula_sum "Si O2"
_cell_formula_units_Z 96
_cell_length_a 8.937172
_cell_length_b 20.278759
_cell_length_c 27.877725
_cell_angle_alpha 90.000000
_cell_angle_beta 90.000000
_cell_angle_gamma 90.000000
_cell_volume 5052.412720
_symmetry_space_group_name_H-M "C M C M"
_symmetry_group_IT_number 63
_symmetry_cell_setting 'orthorhombic'
loop_
_space_group_symop_operation_xyz
x,y,z
-x,-y,1/2+z
x,-y,-z
-x,y,1/2-z
-x,-y,-z
x,y,1/2-z
-x,y,z
x,-y,1/2+z
1/2+x,1/2+y,z
1/2-x,1/2-y,1/2+z
1/2+x,1/2-y,-z
1/2-x,1/2+y,1/2-z
1/2-x,1/2-y,-z
1/2+x,1/2+y,1/2-z
1/2-x,1/2+y,z
1/2+x,1/2-y,1/2+z
loop_
_atom_site_type_symbol
_atom_site_label
_atom_site_fract_x
_atom_site_fract_y
_atom_site_fract_z
Si Si1 0.323986 0.112437 0.449109
Si Si2 0.327983 0.953686 0.804321
Si Si3 0.824192 0.006028 0.605430
Si Si4 0.826520 0.767205 0.896172
Si Si5 0.327259 0.200567 0.303979
Si Si6 0.826626 0.373300 0.059426
O O1 0.500000 0.107817 0.441538
O O2 0.266637 0.174827 0.420075
O O3 0.279093 0.120159 0.504305
O O4 0.253314 0.045340 0.430106
O O5 0.286346 0.973380 0.750000
O O6 0.500000 0.971210 0.815227
O O7 0.300368 0.876627 0.812780
O O8 0.222302 0.994512 0.839559
O O9 0.774863 0.079164 0.591217
O O10 0.000000 0.998370 0.600335
O O11 0.774298 0.758590 0.841040
O O12 0.792164 0.700771 0.924617
O O13 0.000000 0.785934 0.897719
O O14 0.278751 0.219858 0.250000
O O15 0.500000 0.218536 0.312256
O O16 0.000000 0.391626 0.067102
#
# Coordination Sequence:
#
# PCOD8260864 Si02
#       6
#    16  16  16  16  16  16
#     4  11  22  39  62  83 111 155 198 235 282 340
#     4   9  18  35  60  86 113 149 190 231 279 340
#     4  12  24  37  58  89 119 148 189 242 290 335
#     4  11  22  37  59  89 118 146 189 240 287 335
#     4   9  18  34  58  86 114 149 190 229 277 339
#     4  10  24  42  58  80 116 159 196 232 282 345
#
# _framework density 19.000823
#
# number of rings (size 3 to 8) (size 9 to 14) (size 15 to 20)
#    0.000    1.667    1.667    4.500    0.000    5.333 
#    0.000    2.500    0.000    1.000    0.000    0.000 
#    0.000    0.000    0.000    0.000    0.000    0.000 
#
# Total GULP energy -595420.837836 kJ/mol
# GULP energy per Si atom -12404.600788 kJ/mol
# Density = 1.895758 g / cm^3
# Si number density = 19.000823 Si / 1000 Ang^3
#
#
#
# Elastic Constant Matrix: (Units=GPa)
#
#
# Indices 1 2 3 4 5 6 
#
# 1 67.1937 12.4966 27.3834 0.0000 0.0000 0.0000
# 2 12.4966 35.9499 9.8297 0.0000 0.0000 0.0000
# 3 27.3834 9.8297 102.7345 0.0000 0.0000 0.0000
# 4 0.0000 0.0000 0.0000 7.3859 0.0000 0.0000
# 5 0.0000 0.0000 0.0000 0.0000 25.3497 0.0000
# 6 0.0000 0.0000 0.0000 0.0000 0.0000 29.8828
#
#
#
# Elastic Compliance Matrix: (Units=1/GPa)
#
#
# Indices 1 2 3 4 5 6 
#
# 1 0.017511 -0.004940 -0.004195 0.000000 0.000000 0.000000
# 2 -0.004940 0.029957 -0.001550 0.000000 0.000000 0.000000
# 3 -0.004195 -0.001550 0.011000 0.000000 0.000000 0.000000
# 4 0.000000 0.000000 0.000000 0.135393 0.000000 0.000000
# 5 0.000000 0.000000 0.000000 0.000000 0.039448 0.000000
# 6 0.000000 0.000000 0.000000 0.000000 0.000000 0.033464
#
#
# Mechanical properties :
#
#
# Convention : Reuss Voigt Hill
#
# Bulk Modulus (GPa) = 26.95444 33.92191 30.43818
# Shear Modulus (GPa) = 16.63848 22.93491 19.78670
#
# Velocity S-wave (km/s) = 2.96239 3.47803 3.23051
# Velocity P-wave (km/s) = 5.09094 5.83271 5.47441
#
# Compressibility (1/GPa) = 0.03709964
#
# Stress axis : x y z
#
# Youngs Moduli (GPa) = 57.10851 33.38077 90.90768
#
# Poissons Ratio (x) = 0.16490 0.38133
# Poissons Ratio (y) = 0.28211 0.14087
# Poissons Ratio (z) = 0.23955 0.05173
#
# Static dielectric constant tensor:
#      x y z
#    x 3.434350 0.000000 0.000000 
#    y 0.000000 3.297480 0.000000 
#    z 0.000000 0.000000 3.790740 
# 
# 
# High freq. dielectric constant tensor:
#      x y z
#    x 1.738560 0.000000 0.000000 
#    y 0.000000 1.722450 0.000000 
#    z 0.000000 0.000000 1.757220 
# 
# From -- ./inp_files/66867.got.cif
#   From: 2010.03.12/outbox.cif.g09.slc.cpg/sg63_34_cif.got.tgz:66867.got - 2010.04.10 19:34:48.
