data_PCOD8260584
_publ_section_title
;
Structure prediction by ZEFSAII (Michael W. Deem and Ramdas Pophale) SiO2 
 PCOD8260584
Probable space group: C M C M
;
_chemical_formula_sum "Si O2"
_cell_formula_units_Z 80
_cell_length_a 27.320848
_cell_length_b 5.188332
_cell_length_c 25.181026
_cell_angle_alpha 90.000000
_cell_angle_beta 90.000000
_cell_angle_gamma 90.000000
_cell_volume 3569.401117
_symmetry_space_group_name_H-M "C M C M"
_symmetry_group_IT_number 63
_symmetry_cell_setting 'orthorhombic'
loop_
_space_group_symop_operation_xyz
x,y,z
-x,-y,1/2+z
x,-y,-z
-x,y,1/2-z
-x,-y,-z
x,y,1/2-z
-x,y,z
x,-y,1/2+z
1/2+x,1/2+y,z
1/2-x,1/2-y,1/2+z
1/2+x,1/2-y,-z
1/2-x,1/2+y,1/2-z
1/2-x,1/2-y,-z
1/2+x,1/2+y,1/2-z
1/2-x,1/2+y,z
1/2+x,1/2-y,1/2+z
loop_
_atom_site_type_symbol
_atom_site_label
_atom_site_fract_x
_atom_site_fract_y
_atom_site_fract_z
Si Si1 0.554078 0.248143 0.690373
Si Si2 0.630150 0.042357 0.126982
Si Si3 0.626601 0.261408 0.532362
Si Si4 0.781085 0.252515 0.689116
Si Si5 0.445542 0.421789 0.410238
O O1 0.563029 0.350503 0.750000
O O2 0.500000 0.115272 0.685671
O O3 0.597306 0.051412 0.676226
O O4 0.555766 0.488122 0.650794
O O5 0.651648 0.807889 0.090001
O O6 0.673112 0.217271 0.150064
O O7 0.594715 0.196191 0.085906
O O8 0.652777 0.500000 0.500000
O O9 0.571456 0.356582 0.548201
O O10 0.626499 0.000000 0.500000
O O11 0.798847 0.272880 0.750000
O O12 0.758505 0.973950 0.677233
O O13 0.500000 0.328183 0.425692
#
# Coordination Sequence:
#
# PCOD8260584 Si02
#       5
#    16  16  16  16  16
#     4   9  19  34  54  88 131 169 206 249 304 377
#     4  11  22  39  66  89 126 168 210 261 320 373
#     4  11  23  42  62  93 126 170 213 264 320 374
#     4  10  24  43  67  99 129 161 208 260 315 381
#     4  10  22  38  60  93 128 172 221 260 306 375
#
# _framework density 22.412723
#
# number of rings (size 3 to 8) (size 9 to 14) (size 15 to 20)
#    0.000    1.800    2.000    1.200    5.600    3.200 
#    0.000    2.000    0.000    3.600    0.000    0.000 
#    0.000    0.000    0.000    0.000    0.000    0.000 
#
# Total GULP energy -495534.985269 kJ/mol
# GULP energy per Si atom -12388.374632 kJ/mol
# Density = 2.236171 g / cm^3
# Si number density = 22.412723 Si / 1000 Ang^3
#
#
#
# Elastic Constant Matrix: (Units=GPa)
#
#
# Indices 1 2 3 4 5 6 
#
# 1 46.4906 -4.2831 -4.9927 0.0000 0.0000 0.0000
# 2 -4.2831 71.9369 17.3504 0.0000 0.0000 0.0000
# 3 -4.9927 17.3504 45.2397 0.0000 0.0000 0.0000
# 4 0.0000 0.0000 0.0000 34.9736 0.0000 0.0000
# 5 0.0000 0.0000 0.0000 0.0000 19.7328 0.0000
# 6 0.0000 0.0000 0.0000 0.0000 0.0000 24.1504
#
#
#
# Elastic Compliance Matrix: (Units=1/GPa)
#
#
# Indices 1 2 3 4 5 6 
#
# 1 0.021808 0.000791 0.002103 0.000000 0.000000 0.000000
# 2 0.000791 0.015347 -0.005798 0.000000 0.000000 0.000000
# 3 0.002103 -0.005798 0.024560 0.000000 0.000000 0.000000
# 4 0.000000 0.000000 0.000000 0.028593 0.000000 0.000000
# 5 0.000000 0.000000 0.000000 0.000000 0.050677 0.000000
# 6 0.000000 0.000000 0.000000 0.000000 0.000000 0.041407
#
#
# Mechanical properties :
#
#
# Convention : Reuss Voigt Hill
#
# Bulk Modulus (GPa) = 17.88662 19.97961 18.93311
# Shear Modulus (GPa) = 24.17365 26.14419 25.15892
#
# Velocity S-wave (km/s) = 3.28772 3.41909 3.35405
# Velocity P-wave (km/s) = 4.73392 4.95184 4.84411
#
# Compressibility (1/GPa) = 0.05590772
#
# Stress axis : x y z
#
# Youngs Moduli (GPa) = 45.85371 65.16051 40.71584
#
# Poissons Ratio (x) = -0.05155 -0.08564
# Poissons Ratio (y) = -0.03628 0.23609
# Poissons Ratio (z) = -0.09645 0.37783
#
# Static dielectric constant tensor:
#      x y z
#    x 3.676530 0.000000 0.000000 
#    y 0.000000 4.107160 0.000000 
#    z 0.000000 0.000000 4.344520 
# 
# 
# High freq. dielectric constant tensor:
#      x y z
#    x 1.838530 0.000000 0.000000 
#    y 0.000000 1.880680 0.000000 
#    z 0.000000 0.000000 1.903520 
# 
# From -- ./inp_files/70893.got.cif
#   From: 2010.03.12/outbox.cif.g09.slc.cpg/sg63_36_cif.got.tgz:70893.got - 2010.04.10 19:34:48.
