data_PCOD8260448
_publ_section_title
;
Structure prediction by ZEFSAII (Michael W. Deem and Ramdas Pophale) SiO2 
 PCOD8260448
Probable space group: C M C M
;
_chemical_formula_sum "Si O2"
_cell_formula_units_Z 96
_cell_length_a 14.134970
_cell_length_b 14.199174
_cell_length_c 21.385925
_cell_angle_alpha 90.000000
_cell_angle_beta 90.000000
_cell_angle_gamma 90.000000
_cell_volume 4292.259907
_symmetry_space_group_name_H-M "C M C M"
_symmetry_group_IT_number 63
_symmetry_cell_setting 'orthorhombic'
loop_
_space_group_symop_operation_xyz
x,y,z
-x,-y,1/2+z
x,-y,-z
-x,y,1/2-z
-x,-y,-z
x,y,1/2-z
-x,y,z
x,-y,1/2+z
1/2+x,1/2+y,z
1/2-x,1/2-y,1/2+z
1/2+x,1/2-y,-z
1/2-x,1/2+y,1/2-z
1/2-x,1/2-y,-z
1/2+x,1/2+y,1/2-z
1/2-x,1/2+y,z
1/2+x,1/2-y,1/2+z
loop_
_atom_site_type_symbol
_atom_site_label
_atom_site_fract_x
_atom_site_fract_y
_atom_site_fract_z
Si Si1 0.608926 0.266599 0.955836
Si Si2 0.611872 0.942413 0.437535
Si Si3 0.889264 0.742937 0.319957
Si Si4 0.107122 0.936280 0.869081
Si Si5 0.110129 0.124960 0.571962
Si Si6 0.300998 0.954915 0.679977
O O1 0.500000 0.248241 0.972055
O O2 0.653110 0.163267 0.945778
O O3 0.618393 0.330761 0.894505
O O4 0.659417 0.323042 0.013004
O O5 0.500000 0.947409 0.426098
O O6 0.640292 0.000000 0.500000
O O7 0.662325 0.976787 0.374269
O O8 0.862675 0.774311 0.250000
O O9 0.853067 0.826642 0.364289
O O10 0.837357 0.647671 0.339208
O O11 0.000000 0.723273 0.327291
O O12 0.186330 0.952169 0.816502
O O13 0.000000 0.952345 0.842550
O O14 0.128184 0.012573 0.924629
O O15 0.000000 0.143299 0.564125
O O16 0.336946 0.983601 0.750000
#
# Coordination Sequence:
#
# PCOD8260448 Si02
#       6
#    16  16  16  16  16  16
#     4   9  18  35  59  86 117 154 194 238 294 357
#     4  10  21  39  65  96 127 156 191 240 298 361
#     4   9  18  34  57  84 112 143 184 238 299 359
#     4  10  22  39  57  81 116 158 204 250 294 343
#     4   9  17  33  59  85 112 149 192 242 298 353
#     4  11  24  40  60  87 119 158 201 245 297 354
#
# _framework density 22.365839999999999
#
# number of rings (size 3 to 8) (size 9 to 14) (size 15 to 20)
#    0.000    2.333    0.000    2.000    0.000    9.333 
#    0.000    6.667    0.000    3.000    0.000    0.000 
#    0.000    0.000    0.000    0.000    0.000    0.000 
#
# Total GULP energy -594861.345805 kJ/mol
# GULP energy per Si atom -12392.944704 kJ/mol
# Density = 2.231493 g / cm^3
# Si number density = 22.365840 Si / 1000 Ang^3
#
#
#
# Elastic Constant Matrix: (Units=GPa)
#
#
# Indices 1 2 3 4 5 6 
#
# 1 60.0472 22.3542 26.4178 0.0000 0.0000 0.0000
# 2 22.3542 146.8180 42.9505 0.0000 0.0000 0.0000
# 3 26.4178 42.9505 86.6745 0.0000 0.0000 0.0000
# 4 0.0000 0.0000 0.0000 15.5508 0.0000 0.0000
# 5 0.0000 0.0000 0.0000 0.0000 21.7009 0.0000
# 6 0.0000 0.0000 0.0000 0.0000 0.0000 3.9627
#
#
#
# Elastic Compliance Matrix: (Units=1/GPa)
#
#
# Indices 1 2 3 4 5 6 
#
# 1 0.019489 -0.001438 -0.005227 0.000000 0.000000 0.000000
# 2 -0.001438 0.008072 -0.003562 0.000000 0.000000 0.000000
# 3 -0.005227 -0.003562 0.014896 0.000000 0.000000 0.000000
# 4 0.000000 0.000000 0.000000 0.064305 0.000000 0.000000
# 5 0.000000 0.000000 0.000000 0.000000 0.046081 0.000000
# 6 0.000000 0.000000 0.000000 0.000000 0.000000 0.252355
#
#
# Mechanical properties :
#
#
# Convention : Reuss Voigt Hill
#
# Bulk Modulus (GPa) = 45.45023 52.99829 49.22426
# Shear Modulus (GPa) = 11.54771 21.69735 16.62253
#
# Velocity S-wave (km/s) = 2.27471 3.11804 2.72915
# Velocity P-wave (km/s) = 5.22154 6.05891 5.65574
#
# Compressibility (1/GPa) = 0.02200209
#
# Stress axis : x y z
#
# Youngs Moduli (GPa) = 51.31166 123.88410 67.13368
#
# Poissons Ratio (x) = 0.17815 0.35094
# Poissons Ratio (y) = 0.07379 0.23911
# Poissons Ratio (z) = 0.26823 0.44124
#
# Static dielectric constant tensor:
#      x y z
#    x 3.943070 0.000000 0.000000 
#    y 0.000000 4.130670 0.000000 
#    z 0.000000 0.000000 3.869930 
# 
# 
# High freq. dielectric constant tensor:
#      x y z
#    x 1.873810 0.000000 0.000000 
#    y 0.000000 1.887190 0.000000 
#    z 0.000000 0.000000 1.864760 
# 
# From -- ./inp_files/54176.got.cif
#   From: 2010.03.12/outbox.cif.g09.slc.cpg/sg63_28_cif.got.tgz:54176.got - 2010.04.10 19:34:48.
