data_PCOD8260403
_publ_section_title
;
Structure prediction by ZEFSAII (Michael W. Deem and Ramdas Pophale) SiO2 
 PCOD8260403
Probable space group: C M C M
;
_chemical_formula_sum "Si O2"
_cell_formula_units_Z 96
_cell_length_a 15.862667
_cell_length_b 20.048285
_cell_length_c 16.468947
_cell_angle_alpha 90.000000
_cell_angle_beta 90.000000
_cell_angle_gamma 90.000000
_cell_volume 5237.442484
_symmetry_space_group_name_H-M "C M C M"
_symmetry_group_IT_number 63
_symmetry_cell_setting 'orthorhombic'
loop_
_space_group_symop_operation_xyz
x,y,z
-x,-y,1/2+z
x,-y,-z
-x,y,1/2-z
-x,-y,-z
x,y,1/2-z
-x,y,z
x,-y,1/2+z
1/2+x,1/2+y,z
1/2-x,1/2-y,1/2+z
1/2+x,1/2-y,-z
1/2-x,1/2+y,1/2-z
1/2-x,1/2-y,-z
1/2+x,1/2+y,1/2-z
1/2-x,1/2+y,z
1/2+x,1/2-y,1/2+z
loop_
_atom_site_type_symbol
_atom_site_label
_atom_site_fract_x
_atom_site_fract_y
_atom_site_fract_z
Si Si1 0.297452 0.070425 0.099376
Si Si2 0.672753 0.318096 0.580300
Si Si3 0.500000 0.272018 0.653522
Si Si4 0.290477 0.303761 0.103709
Si Si5 0.095659 0.223700 0.750000
Si Si6 0.671555 0.921738 0.417644
Si Si7 0.096483 0.381343 0.750000
Si Si8 0.000000 0.381120 0.345823
O O1 0.208075 0.109090 0.106115
O O2 0.360544 0.090037 0.170076
O O3 0.281388 0.991239 0.101548
O O4 0.339936 0.090810 0.013778
O O5 0.581614 0.309545 0.619526
O O6 0.665092 0.309992 0.483531
O O7 0.738526 0.264264 0.614547
O O8 0.500000 0.276434 0.750000
O O9 0.500000 0.195415 0.623172
O O10 0.363099 0.306890 0.169905
O O11 0.227089 0.363988 0.121917
O O12 0.104319 0.302590 0.750000
O O13 0.000000 0.199866 0.750000
O O14 0.579908 0.921209 0.378325
O O15 0.000000 0.405120 0.750000
O O16 0.000000 0.383168 0.250000
#
# Coordination Sequence:
#
# PCOD8260403 Si02
#       8
#    16  16   8  16   8  16   8   8
#     4  10  23  40  60  85 119 161 196 237 297 358
#     4  10  21  40  60  88 114 158 198 242 298 350
#     4  11  24  36  63  89 121 150 201 255 293 344
#     4  10  21  39  62  83 116 154 198 247 293 351
#     4  11  24  37  60  88 116 154 203 249 290 344
#     4  10  23  40  61  86 120 159 195 243 297 363
#     4  11  24  35  54  88 122 154 191 239 288 348
#     4  11  24  35  55  94 123 153 199 241 301 348
#
# _framework density 18.329557000000001
#
# number of rings (size 3 to 8) (size 9 to 14) (size 15 to 20)
#    0.000    1.667    3.333    0.000    8.167    0.667 
#    0.000    0.000    1.833    2.000    0.000    0.000 
#    0.000    0.000    0.000    0.000    0.000    0.000 
#
# Total GULP energy -595392.523650 kJ/mol
# GULP energy per Si atom -12404.010909 kJ/mol
# Density = 1.828784 g / cm^3
# Si number density = 18.329557 Si / 1000 Ang^3
#
#
#
# Elastic Constant Matrix: (Units=GPa)
#
#
# Indices 1 2 3 4 5 6 
#
# 1 118.9942 52.9573 66.0277 0.0000 0.0000 0.0000
# 2 52.9573 111.4842 38.6690 0.0000 0.0000 0.0000
# 3 66.0277 38.6690 99.9942 0.0000 0.0000 0.0000
# 4 0.0000 0.0000 0.0000 45.5244 0.0000 0.0000
# 5 0.0000 0.0000 0.0000 0.0000 31.7478 0.0000
# 6 0.0000 0.0000 0.0000 0.0000 0.0000 26.9532
#
#
#
# Elastic Compliance Matrix: (Units=1/GPa)
#
#
# Indices 1 2 3 4 5 6 
#
# 1 0.014792 -0.004202 -0.008142 0.000000 0.000000 0.000000
# 2 -0.004202 0.011553 -0.001693 0.000000 0.000000 0.000000
# 3 -0.008142 -0.001693 0.016032 0.000000 0.000000 0.000000
# 4 0.000000 0.000000 0.000000 0.021966 0.000000 0.000000
# 5 0.000000 0.000000 0.000000 0.000000 0.031498 0.000000
# 6 0.000000 0.000000 0.000000 0.000000 0.000000 0.037101
#
#
# Mechanical properties :
#
#
# Convention : Reuss Voigt Hill
#
# Bulk Modulus (GPa) = 69.92069 71.75341 70.83705
# Shear Modulus (GPa) = 30.15949 32.36630 31.26290
#
# Velocity S-wave (km/s) = 4.06076 4.20670 4.13437
# Velocity P-wave (km/s) = 7.75987 7.92631 7.84353
#
# Compressibility (1/GPa) = 0.01430192
#
# Stress axis : x y z
#
# Youngs Moduli (GPa) = 67.60421 86.55557 62.37620
#
# Poissons Ratio (x) = 0.36373 0.50789
# Poissons Ratio (y) = 0.28409 0.10560
# Poissons Ratio (z) = 0.55045 0.14653
#
# Static dielectric constant tensor:
#      x y z
#    x 3.275680 0.000000 0.000000 
#    y 0.000000 3.513190 0.000000 
#    z 0.000000 0.000000 3.441710 
# 
# 
# High freq. dielectric constant tensor:
#      x y z
#    x 1.698890 0.000000 0.000000 
#    y 0.000000 1.711420 0.000000 
#    z 0.000000 0.000000 1.722610 
# 
# From -- ./inp_files/32027.got.cif
#   From: 2010.03.12/outbox.cif.g09.slc.cpg/sg63_17_cif.got.tgz:32027.got - 2010.04.10 19:34:48.
