data_PCOD8260644
_publ_section_title
;
Structure prediction by ZEFSAII (Michael W. Deem and Ramdas Pophale) SiO2 
 PCOD8260644
Probable space group: C M C M
;
_chemical_formula_sum "Si O2"
_cell_formula_units_Z 80
_cell_length_a 25.068981
_cell_length_b 10.695708
_cell_length_c 15.112576
_cell_angle_alpha 90.000000
_cell_angle_beta 90.000000
_cell_angle_gamma 90.000000
_cell_volume 4052.142569
_symmetry_space_group_name_H-M "C M C M"
_symmetry_group_IT_number 63
_symmetry_cell_setting 'orthorhombic'
loop_
_space_group_symop_operation_xyz
x,y,z
-x,-y,1/2+z
x,-y,-z
-x,y,1/2-z
-x,-y,-z
x,y,1/2-z
-x,y,z
x,-y,1/2+z
1/2+x,1/2+y,z
1/2-x,1/2-y,1/2+z
1/2+x,1/2-y,-z
1/2-x,1/2+y,1/2-z
1/2-x,1/2-y,-z
1/2+x,1/2+y,1/2-z
1/2-x,1/2+y,z
1/2+x,1/2-y,1/2+z
loop_
_atom_site_type_symbol
_atom_site_label
_atom_site_fract_x
_atom_site_fract_y
_atom_site_fract_z
Si Si1 0.438326 0.857326 0.011792
Si Si2 0.341895 0.484336 0.351379
Si Si3 0.439417 0.317847 0.149578
Si Si4 0.756373 0.376650 0.445827
Si Si5 0.852627 0.266170 0.353584
O O1 0.500000 0.841009 0.037294
O O2 0.424864 0.792060 0.918299
O O3 0.405118 0.801752 0.092460
O O4 0.422075 0.000000 0.000000
O O5 0.326088 0.475264 0.250000
O O6 0.401813 0.436407 0.369369
O O7 0.300690 0.396968 0.401818
O O8 0.336893 0.626283 0.384284
O O9 0.430800 0.267201 0.250000
O O10 0.500000 0.364467 0.136069
O O11 0.773299 0.500000 0.500000
O O12 0.750000 0.250000 0.500000
O O13 0.803176 0.357384 0.373980
O O14 0.866721 0.271895 0.250000
#
# Coordination Sequence:
#
# PCOD8260644 Si02
#       5
#    16  16  16  16  16
#     4  10  22  40  61  88 123 161 204 254 308 370
#     4  10  22  40  60  87 124 158 200 255 310 369
#     4   9  19  37  63  91 119 157 202 250 309 372
#     4  12  23  40  63  88 121 162 208 259 312 370
#     4  11  24  41  61  90 125 163 208 254 309 374
#
# _framework density 19.742643000000001
#
# number of rings (size 3 to 8) (size 9 to 14) (size 15 to 20)
#    0.000    1.600    2.000    2.400    0.000    2.000 
#    0.000    8.000    0.000    0.000    0.000    0.000 
#    0.000    0.000    0.000    0.000    0.000    0.000 
#
# Total GULP energy -496077.474030 kJ/mol
# GULP energy per Si atom -12401.936851 kJ/mol
# Density = 1.969771 g / cm^3
# Si number density = 19.742643 Si / 1000 Ang^3
#
#
#
# Elastic Constant Matrix: (Units=GPa)
#
#
# Indices 1 2 3 4 5 6 
#
# 1 120.1613 62.1205 66.9505 0.0000 0.0000 0.0000
# 2 62.1205 142.8048 66.9538 0.0000 0.0000 0.0000
# 3 66.9505 66.9538 106.6547 0.0000 0.0000 0.0000
# 4 0.0000 0.0000 0.0000 35.8673 0.0000 0.0000
# 5 0.0000 0.0000 0.0000 0.0000 40.7042 0.0000
# 6 0.0000 0.0000 0.0000 0.0000 0.0000 35.6125
#
#
#
# Elastic Compliance Matrix: (Units=1/GPa)
#
#
# Indices 1 2 3 4 5 6 
#
# 1 0.013490 -0.002690 -0.006780 0.000000 0.000000 0.000000
# 2 -0.002690 0.010459 -0.004878 0.000000 0.000000 0.000000
# 3 -0.006780 -0.004878 0.016694 0.000000 0.000000 0.000000
# 4 0.000000 0.000000 0.000000 0.027881 0.000000 0.000000
# 5 0.000000 0.000000 0.000000 0.000000 0.024568 0.000000
# 6 0.000000 0.000000 0.000000 0.000000 0.000000 0.028080
#
#
# Mechanical properties :
#
#
# Convention : Reuss Voigt Hill
#
# Bulk Modulus (GPa) = 83.68599 84.63006 84.15802
# Shear Modulus (GPa) = 32.49947 34.00987 33.25467
#
# Velocity S-wave (km/s) = 4.06169 4.15500 4.10861
# Velocity P-wave (km/s) = 8.02975 8.12271 8.07636
#
# Compressibility (1/GPa) = 0.01194943
#
# Stress axis : x y z
#
# Youngs Moduli (GPa) = 74.12871 95.60740 59.90194
#
# Poissons Ratio (x) = 0.25714 0.40612
# Poissons Ratio (y) = 0.19937 0.29219
# Poissons Ratio (z) = 0.50257 0.46635
#
# Static dielectric constant tensor:
#      x y z
#    x 3.671800 0.000000 0.000000 
#    y 0.000000 3.741120 0.000000 
#    z 0.000000 0.000000 3.719880 
# 
# 
# High freq. dielectric constant tensor:
#      x y z
#    x 1.780690 0.000000 0.000000 
#    y 0.000000 1.769690 0.000000 
#    z 0.000000 0.000000 1.777650 
# 
# From -- ./inp_files/36450.got.cif
#   From: 2010.03.12/outbox.cif.g09.slc.cpg/sg63_19_cif.got.tgz:36450.got - 2010.04.10 19:34:48.
