data_PCOD8260002
_publ_section_title
;
Structure prediction by ZEFSAII (Michael W. Deem and Ramdas Pophale) SiO2 
 PCOD8260002
Probable space group: C M C M
;
_chemical_formula_sum "Si O2"
_cell_formula_units_Z 96
_cell_length_a 8.907794
_cell_length_b 20.236424
_cell_length_c 27.986773
_cell_angle_alpha 90.000000
_cell_angle_beta 90.000000
_cell_angle_gamma 90.000000
_cell_volume 5044.948772
_symmetry_space_group_name_H-M "C M C M"
_symmetry_group_IT_number 63
_symmetry_cell_setting 'orthorhombic'
loop_
_space_group_symop_operation_xyz
x,y,z
-x,-y,1/2+z
x,-y,-z
-x,y,1/2-z
-x,-y,-z
x,y,1/2-z
-x,y,z
x,-y,1/2+z
1/2+x,1/2+y,z
1/2-x,1/2-y,1/2+z
1/2+x,1/2-y,-z
1/2-x,1/2+y,1/2-z
1/2-x,1/2-y,-z
1/2+x,1/2+y,1/2-z
1/2-x,1/2+y,z
1/2+x,1/2-y,1/2+z
loop_
_atom_site_type_symbol
_atom_site_label
_atom_site_fract_x
_atom_site_fract_y
_atom_site_fract_z
Si Si1 0.677650 0.075926 0.554226
Si Si2 0.823990 0.115473 0.853757
Si Si3 0.823589 0.736952 0.695142
Si Si4 0.177174 0.359984 0.853412
Si Si5 0.828595 0.979128 0.805020
Si Si6 0.822944 0.426807 0.551497
O O1 0.500000 0.081248 0.562691
O O2 0.761889 0.122371 0.592293
O O3 0.723275 0.100448 0.500844
O O4 0.738433 0.000881 0.560040
O O5 0.745652 0.167094 0.818921
O O6 0.000000 0.129182 0.852980
O O7 0.781471 0.042901 0.835181
O O8 0.782330 0.752720 0.750000
O O9 0.756941 0.792916 0.661238
O O10 0.000000 0.733982 0.687386
O O11 0.220379 0.418771 0.817707
O O12 0.234819 0.378133 0.906914
O O13 0.000000 0.349090 0.851532
O O14 0.807005 0.997489 0.750000
O O15 0.000000 0.958149 0.815821
O O16 0.000000 0.433122 0.553711
#
# Coordination Sequence:
#
# PCOD8260002 Si02
#       6
#    16  16  16  16  16  16
#     4   9  16  33  58  84 116 152 188 228 280 338
#     4  11  22  37  58  86 116 148 189 239 288 334
#     4  11  25  43  60  79 110 154 196 234 285 345
#     4  11  21  36  59  87 114 145 189 235 281 335
#     4  10  21  36  54  79 113 148 183 229 284 338
#     4   8  16  31  56  86 116 150 186 228 280 336
#
# _framework density 19.028932999999999
#
# number of rings (size 3 to 8) (size 9 to 14) (size 15 to 20)
#    0.000    2.000    1.667    3.500    0.000    5.000 
#    0.000    4.167    0.000    0.000    0.000    0.000 
#    0.000    0.000    0.000    0.000    0.000    0.000 
#
# Total GULP energy -595239.775383 kJ/mol
# GULP energy per Si atom -12400.828654 kJ/mol
# Density = 1.898562 g / cm^3
# Si number density = 19.028933 Si / 1000 Ang^3
#
#
#
# Elastic Constant Matrix: (Units=GPa)
#
#
# Indices 1 2 3 4 5 6 
#
# 1 65.8792 30.3009 39.1329 0.0000 0.0000 0.0000
# 2 30.3009 58.0000 21.4707 0.0000 0.0000 0.0000
# 3 39.1329 21.4707 103.1714 0.0000 0.0000 0.0000
# 4 0.0000 0.0000 0.0000 34.5377 0.0000 0.0000
# 5 0.0000 0.0000 0.0000 0.0000 28.3464 0.0000
# 6 0.0000 0.0000 0.0000 0.0000 0.0000 32.3871
#
#
#
# Elastic Compliance Matrix: (Units=1/GPa)
#
#
# Indices 1 2 3 4 5 6 
#
# 1 0.023886 -0.009887 -0.007003 0.000000 0.000000 0.000000
# 2 -0.009887 0.022773 -0.000989 0.000000 0.000000 0.000000
# 3 -0.007003 -0.000989 0.012555 0.000000 0.000000 0.000000
# 4 0.000000 0.000000 0.000000 0.028954 0.000000 0.000000
# 5 0.000000 0.000000 0.000000 0.000000 0.035278 0.000000
# 6 0.000000 0.000000 0.000000 0.000000 0.000000 0.030877
#
#
# Mechanical properties :
#
#
# Convention : Reuss Voigt Hill
#
# Bulk Modulus (GPa) = 42.63174 45.42883 44.03028
# Shear Modulus (GPa) = 25.26567 28.13065 26.69816
#
# Velocity S-wave (km/s) = 3.64778 3.84905 3.74977
# Velocity P-wave (km/s) = 6.33988 6.60901 6.47584
#
# Compressibility (1/GPa) = 0.02345670
#
# Stress axis : x y z
#
# Youngs Moduli (GPa) = 41.86525 43.91245 79.65260
#
# Poissons Ratio (x) = 0.43414 0.55777
# Poissons Ratio (y) = 0.41390 0.07879
# Poissons Ratio (z) = 0.29316 0.04344
#
# Static dielectric constant tensor:
#      x y z
#    x 3.339130 0.000000 0.000000 
#    y 0.000000 3.315880 0.000000 
#    z 0.000000 0.000000 3.854930 
# 
# 
# High freq. dielectric constant tensor:
#      x y z
#    x 1.728100 0.000000 0.000000 
#    y 0.000000 1.721450 0.000000 
#    z 0.000000 0.000000 1.757220 
# 
# From -- ./inp_files/66972.got.cif
#   From: 2010.03.12/outbox.cif.g09.slc.cpg/sg63_34_cif.got.tgz:66972.got - 2010.04.10 19:34:48.
