data_PCOD8260418
_publ_section_title
;
Structure prediction by ZEFSAII (Michael W. Deem and Ramdas Pophale) SiO2 
 PCOD8260418
Probable space group: C M C M
;
_chemical_formula_sum "Si O2"
_cell_formula_units_Z 96
_cell_length_a 16.431664
_cell_length_b 11.751831
_cell_length_c 24.742673
_cell_angle_alpha 90.000000
_cell_angle_beta 90.000000
_cell_angle_gamma 90.000000
_cell_volume 4777.863065
_symmetry_space_group_name_H-M "C M C M"
_symmetry_group_IT_number 63
_symmetry_cell_setting 'orthorhombic'
loop_
_space_group_symop_operation_xyz
x,y,z
-x,-y,1/2+z
x,-y,-z
-x,y,1/2-z
-x,-y,-z
x,y,1/2-z
-x,y,z
x,-y,1/2+z
1/2+x,1/2+y,z
1/2-x,1/2-y,1/2+z
1/2+x,1/2-y,-z
1/2-x,1/2+y,1/2-z
1/2-x,1/2-y,-z
1/2+x,1/2+y,1/2-z
1/2-x,1/2+y,z
1/2+x,1/2-y,1/2+z
loop_
_atom_site_type_symbol
_atom_site_label
_atom_site_fract_x
_atom_site_fract_y
_atom_site_fract_z
Si Si1 0.407752 0.963820 0.438320
Si Si2 0.409448 0.595078 0.648586
Si Si3 0.149070 0.326624 0.869044
Si Si4 0.706736 0.758162 0.442044
Si Si5 0.205632 0.650592 0.250000
Si Si6 0.295375 0.593260 0.750000
Si Si7 0.903895 0.942727 0.946954
O O1 0.500000 0.917338 0.426263
O O2 0.331827 0.879836 0.427100
O O3 0.402386 0.000000 0.500000
O O4 0.391438 0.069487 0.399587
O O5 0.500000 0.556902 0.665343
O O6 0.412261 0.721236 0.623274
O O7 0.351020 0.591175 0.698430
O O8 0.370934 0.511361 0.604401
O O9 0.235710 0.288354 0.894415
O O10 0.154122 0.354923 0.805149
O O11 0.750000 0.750000 0.500000
O O12 0.624985 0.685121 0.443938
O O13 0.250995 0.528554 0.250000
O O14 0.250509 0.779586 0.250000
O O15 0.000000 0.946607 0.949329
O O16 0.865189 0.000000 0.000000
#
# Coordination Sequence:
#
# PCOD8260418 Si02
#       7
#    16  16  16  16   8   8  16
#     4  11  25  43  62  91 133 173 210 261 327 390
#     4  10  21  39  63  89 119 157 204 254 307 370
#     4  11  24  40  66  94 125 166 211 267 313 385
#     4  12  24  37  62  92 126 164 212 257 313 383
#     4  10  24  40  64  94 130 163 213 269 325 373
#     4  10  21  40  62  94 119 163 203 263 312 373
#     4  10  22  37  57  84 123 161 197 249 308 368
#
# _framework density 20.092663999999999
#
# number of rings (size 3 to 8) (size 9 to 14) (size 15 to 20)
#    0.000    1.333    1.667    3.250    9.333    0.000 
#    0.000    1.250    0.000    0.000    0.000    0.000 
#    0.000    0.000    0.000    0.000    0.000    0.000 
#
# Total GULP energy -594630.946510 kJ/mol
# GULP energy per Si atom -12388.144719 kJ/mol
# Density = 2.004693 g / cm^3
# Si number density = 20.092664 Si / 1000 Ang^3
#
#
#
# Elastic Constant Matrix: (Units=GPa)
#
#
# Indices 1 2 3 4 5 6 
#
# 1 60.0514 28.4592 26.8477 0.0000 0.0000 0.0000
# 2 28.4592 128.2982 37.2017 0.0000 0.0000 0.0000
# 3 26.8477 37.2017 122.7453 0.0000 0.0000 0.0000
# 4 0.0000 0.0000 0.0000 32.9374 0.0000 0.0000
# 5 0.0000 0.0000 0.0000 0.0000 5.4606 0.0000
# 6 0.0000 0.0000 0.0000 0.0000 0.0000 39.6902
#
#
#
# Elastic Compliance Matrix: (Units=1/GPa)
#
#
# Indices 1 2 3 4 5 6 
#
# 1 0.019743 -0.003429 -0.003279 0.000000 0.000000 0.000000
# 2 -0.003429 0.009141 -0.002020 0.000000 0.000000 0.000000
# 3 -0.003279 -0.002020 0.009477 0.000000 0.000000 0.000000
# 4 0.000000 0.000000 0.000000 0.030361 0.000000 0.000000
# 5 0.000000 0.000000 0.000000 0.000000 0.183131 0.000000
# 6 0.000000 0.000000 0.000000 0.000000 0.000000 0.025195
#
#
# Mechanical properties :
#
#
# Convention : Reuss Voigt Hill
#
# Bulk Modulus (GPa) = 47.83769 55.12356 51.48062
# Shear Modulus (GPa) = 16.58529 30.19005 23.38767
#
# Velocity S-wave (km/s) = 2.87616 3.88047 3.41543
# Velocity P-wave (km/s) = 5.90677 6.89722 6.42112
#
# Compressibility (1/GPa) = 0.02090402
#
# Stress axis : x y z
#
# Youngs Moduli (GPa) = 50.64996 109.40035 105.52337
#
# Poissons Ratio (x) = 0.37509 0.34604
# Poissons Ratio (y) = 0.17366 0.21320
# Poissons Ratio (z) = 0.16609 0.22104
#
# Static dielectric constant tensor:
#      x y z
#    x 3.520880 0.000000 0.000000 
#    y 0.000000 4.196540 0.000000 
#    z 0.000000 0.000000 4.028420 
# 
# 
# High freq. dielectric constant tensor:
#      x y z
#    x 1.771540 0.000000 0.000000 
#    y 0.000000 1.799800 0.000000 
#    z 0.000000 0.000000 1.795660 
# 
# From -- ./inp_files/63735.got.cif
#   From: 2010.03.12/outbox.cif.g09.slc.cpg/sg63_32_cif.got.tgz:63735.got - 2010.04.10 19:34:48.
