data_PCOD8260497
_publ_section_title
;
Structure prediction by ZEFSAII (Michael W. Deem and Ramdas Pophale) SiO2 
 PCOD8260497
Probable space group: C M C M
;
_chemical_formula_sum "Si O2"
_cell_formula_units_Z 80
_cell_length_a 19.759132
_cell_length_b 12.477234
_cell_length_c 16.112685
_cell_angle_alpha 90.000000
_cell_angle_beta 90.000000
_cell_angle_gamma 90.000000
_cell_volume 3972.410300
_symmetry_space_group_name_H-M "C M C M"
_symmetry_group_IT_number 63
_symmetry_cell_setting 'orthorhombic'
loop_
_space_group_symop_operation_xyz
x,y,z
-x,-y,1/2+z
x,-y,-z
-x,y,1/2-z
-x,-y,-z
x,y,1/2-z
-x,y,z
x,-y,1/2+z
1/2+x,1/2+y,z
1/2-x,1/2-y,1/2+z
1/2+x,1/2-y,-z
1/2-x,1/2+y,1/2-z
1/2-x,1/2-y,-z
1/2+x,1/2+y,1/2-z
1/2-x,1/2+y,z
1/2+x,1/2-y,1/2+z
loop_
_atom_site_type_symbol
_atom_site_label
_atom_site_fract_x
_atom_site_fract_y
_atom_site_fract_z
Si Si1 0.000000 0.286585 0.347539
Si Si2 0.111033 0.407465 0.058349
Si Si3 0.280150 0.035888 0.343775
Si Si4 0.858007 0.966168 0.095159
Si Si5 0.185312 0.736290 0.441990
Si Si6 0.000000 0.044993 0.406761
O O1 0.936709 0.362437 0.369692
O O2 0.000000 0.174596 0.398626
O O3 0.000000 0.260571 0.250000
O O4 0.181033 0.451848 0.097203
O O5 0.077524 0.500000 0.000000
O O6 0.125584 0.307008 0.999745
O O7 0.302214 0.013410 0.250000
O O8 0.299243 0.156456 0.366866
O O9 0.199504 0.026669 0.353194
O O10 0.843405 0.840829 0.102570
O O11 0.931096 0.998227 0.134531
O O12 0.853051 0.000000 0.000000
O O13 0.250000 0.750000 0.500000
O O14 0.000000 0.000000 0.500000
#
# Coordination Sequence:
#
# PCOD8260497 Si02
#       6
#     8  16  16  16  16   8
#     4  12  25  41  64  99 132 159 207 270 316 362
#     4  10  21  41  65  90 123 166 211 251 310 377
#     4  11  23  37  59  92 123 156 203 263 315 359
#     4  11  20  39  61  84 118 157 202 251 299 375
#     4  11  20  38  64  89 118 160 212 249 302 374
#     4  10  24  39  60  87 120 165 204 240 312 382
#
# _framework density 20.138905999999999
#
# number of rings (size 3 to 8) (size 9 to 14) (size 15 to 20)
#    0.000    1.200    4.000    3.900    0.000    1.600 
#    0.000    1.000    0.000    0.000    0.000    0.000 
#    0.000    0.000    0.000    0.000    0.000    0.000 
#
# Total GULP energy -495913.833708 kJ/mol
# GULP energy per Si atom -12397.845843 kJ/mol
# Density = 2.009307 g / cm^3
# Si number density = 20.138906 Si / 1000 Ang^3
#
#
#
# Elastic Constant Matrix: (Units=GPa)
#
#
# Indices 1 2 3 4 5 6 
#
# 1 131.8507 57.0174 21.7384 0.0000 0.0000 0.0000
# 2 57.0174 117.9835 26.8418 0.0000 0.0000 0.0000
# 3 21.7384 26.8418 86.7458 0.0000 0.0000 0.0000
# 4 0.0000 0.0000 0.0000 23.5265 0.0000 0.0000
# 5 0.0000 0.0000 0.0000 0.0000-1134.2718 0.0000
# 6 0.0000 0.0000 0.0000 0.0000 0.0000 24.8930
#
#
#
# Elastic Compliance Matrix: (Units=1/GPa)
#
#
# Indices 1 2 3 4 5 6 
#
# 1 0.009677 -0.004437 -0.001052 0.000000 0.000000 0.000000
# 2 -0.004437 0.011152 -0.002339 0.000000 0.000000 0.000000
# 3 -0.001052 -0.002339 0.012515 0.000000 0.000000 0.000000
# 4 0.000000 0.000000 0.000000 0.042505 0.000000 0.000000
# 5 0.000000 0.000000 0.000000 0.000000 -0.000882 0.000000
# 6 0.000000 0.000000 0.000000 0.000000 0.000000 0.040172
#
#
# Mechanical properties :
#
#
# Convention : Reuss Voigt Hill
#
# Bulk Modulus (GPa) = 56.53499 60.86391 58.69945
# Shear Modulus (GPa) = 36.57881 -201.77162 -82.59640
#
# Velocity S-wave (km/s) = 4.26646 -10.02035 -6.41111
# Velocity P-wave (km/s) = 7.23904 10.17787 5.05892
#
# Compressibility (1/GPa) = 0.01768816
#
# Stress axis : x y z
#
# Youngs Moduli (GPa) = 103.34309 89.66911 79.90232
#
# Poissons Ratio (x) = 0.39786 0.08406
# Poissons Ratio (y) = 0.45853 0.18688
# Poissons Ratio (z) = 0.10872 0.20973
#
# Static dielectric constant tensor:
#      x y z
#    x 3.901210 0.000000 0.000000 
#    y 0.000000 3.871840 0.000000 
#    z 0.000000 0.000000 3.397500 
# 
# 
# High freq. dielectric constant tensor:
#      x y z
#    x 1.790500 0.000000 0.000000 
#    y 0.000000 1.798800 0.000000 
#    z 0.000000 0.000000 1.763300 
# 
# From -- ./inp_files/46866.got.cif
#   From: 2010.03.12/outbox.cif.g09.slc.cpg/sg63_24_cif.got.tgz:46866.got - 2010.04.10 19:34:48.
