data_PCOD8260639
_publ_section_title
;
Structure prediction by ZEFSAII (Michael W. Deem and Ramdas Pophale) SiO2 
 PCOD8260639
Probable space group: C M C M
;
_chemical_formula_sum "Si O2"
_cell_formula_units_Z 96
_cell_length_a 14.243215
_cell_length_b 15.039005
_cell_length_c 21.281520
_cell_angle_alpha 90.000000
_cell_angle_beta 90.000000
_cell_angle_gamma 90.000000
_cell_volume 4558.582062
_symmetry_space_group_name_H-M "C M C M"
_symmetry_group_IT_number 63
_symmetry_cell_setting 'orthorhombic'
loop_
_space_group_symop_operation_xyz
x,y,z
-x,-y,1/2+z
x,-y,-z
-x,y,1/2-z
-x,-y,-z
x,y,1/2-z
-x,y,z
x,-y,1/2+z
1/2+x,1/2+y,z
1/2-x,1/2-y,1/2+z
1/2+x,1/2-y,-z
1/2-x,1/2+y,1/2-z
1/2-x,1/2-y,-z
1/2+x,1/2+y,1/2-z
1/2-x,1/2+y,z
1/2+x,1/2-y,1/2+z
loop_
_atom_site_type_symbol
_atom_site_label
_atom_site_fract_x
_atom_site_fract_y
_atom_site_fract_z
Si Si1 0.390026 0.614779 0.951212
Si Si2 0.606770 0.210595 0.122751
Si Si3 0.110721 0.926245 0.588139
Si Si4 0.296197 0.292566 0.679812
Si Si5 0.607255 0.980151 0.931894
Si Si6 0.388578 0.108966 0.677762
O O1 0.500000 0.602461 0.957719
O O2 0.362134 0.706562 0.919607
O O3 0.356269 0.529682 0.910288
O O4 0.352125 0.613881 0.022264
O O5 0.500000 0.219839 0.149275
O O6 0.682221 0.208762 0.178707
O O7 0.616655 0.124264 0.079710
O O8 0.167128 0.875912 0.641304
O O9 0.000000 0.913771 0.599340
O O10 0.330487 0.308519 0.750000
O O11 0.339993 0.200259 0.655433
O O12 0.500000 0.010660 0.937218
O O13 0.648590 0.034698 0.871933
O O14 0.656238 0.000000 0.000000
O O15 0.359614 0.083369 0.750000
O O16 0.500000 0.121033 0.674304
#
# Coordination Sequence:
#
# PCOD8260639 Si02
#       6
#    16  16  16  16  16  16
#     4   8  17  36  61  88 117 152 189 232 296 354
#     4  10  22  40  58  80 115 156 198 245 290 342
#     4   9  18  36  62  90 120 149 184 238 296 354
#     4  11  24  38  57  87 117 156 202 239 285 346
#     4   9  19  36  59  87 116 150 194 243 292 345
#     4   9  19  37  59  84 118 156 193 240 298 352
#
# _framework density 21.059179
#
# number of rings (size 3 to 8) (size 9 to 14) (size 15 to 20)
#    0.000    2.667    0.000    1.500    2.333    4.000 
#    3.000    4.167    0.000    3.000    0.000    0.000 
#    0.000    0.000    0.000    0.000    0.000    0.000 
#
# Total GULP energy -594896.813834 kJ/mol
# GULP energy per Si atom -12393.683622 kJ/mol
# Density = 2.101125 g / cm^3
# Si number density = 21.059179 Si / 1000 Ang^3
#
#
#
# Elastic Constant Matrix: (Units=GPa)
#
#
# Indices 1 2 3 4 5 6 
#
# 1 69.5621 29.1554 28.6229 0.0000 0.0000 0.0000
# 2 29.1554 157.2377 77.3182 0.0000 0.0000 0.0000
# 3 28.6229 77.3182 113.9199 0.0000 0.0000 0.0000
# 4 0.0000 0.0000 0.0000 32.9437 0.0000 0.0000
# 5 0.0000 0.0000 0.0000 0.0000 19.0979 0.0000
# 6 0.0000 0.0000 0.0000 0.0000 0.0000 -5.3701
#
#
#
# Elastic Compliance Matrix: (Units=1/GPa)
#
#
# Indices 1 2 3 4 5 6 
#
# 1 0.016269 -0.001511 -0.003062 0.000000 0.000000 0.000000
# 2 -0.001511 0.009686 -0.006194 0.000000 0.000000 0.000000
# 3 -0.003062 -0.006194 0.013752 0.000000 0.000000 0.000000
# 4 0.000000 0.000000 0.000000 0.030355 0.000000 0.000000
# 5 0.000000 0.000000 0.000000 0.000000 0.052362 0.000000
# 6 0.000000 0.000000 0.000000 0.000000 0.000000 -0.186218
#
#
# Mechanical properties :
#
#
# Convention : Reuss Voigt Hill
#
# Bulk Modulus (GPa) = 55.03061 67.87920 61.45491
# Shear Modulus (GPa) = -138.10915 23.04252 -57.53331
#
# Velocity S-wave (km/s) = -8.10702 3.31143 -5.23251
# Velocity P-wave (km/s) = 7.83860 6.85006 2.69447
#
# Compressibility (1/GPa) = 0.01817170
#
# Stress axis : x y z
#
# Youngs Moduli (GPa) = 61.46700 103.24371 72.71906
#
# Poissons Ratio (x) = 0.15598 0.22268
# Poissons Ratio (y) = 0.09287 0.45044
# Poissons Ratio (z) = 0.18823 0.63951
#
# Static dielectric constant tensor:
#      x y z
#    x 3.771710 0.000000 0.000000 
#    y 0.000000 3.983860 0.000000 
#    z 0.000000 0.000000 3.817160 
# 
# 
# High freq. dielectric constant tensor:
#      x y z
#    x 1.819900 0.000000 0.000000 
#    y 0.000000 1.832030 0.000000 
#    z 0.000000 0.000000 1.810570 
# 
# From -- ./inp_files/54141.got.cif
#   From: 2010.03.12/outbox.cif.g09.slc.cpg/sg63_28_cif.got.tgz:54141.got - 2010.04.10 19:34:48.
