data_PCOD8260896
_publ_section_title
;
Structure prediction by ZEFSAII (Michael W. Deem and Ramdas Pophale) SiO2 
 PCOD8260896
Probable space group: C M C M
;
_chemical_formula_sum "Si O2"
_cell_formula_units_Z 96
_cell_length_a 18.569644
_cell_length_b 11.593993
_cell_length_c 22.595053
_cell_angle_alpha 90.000000
_cell_angle_beta 90.000000
_cell_angle_gamma 90.000000
_cell_volume 4864.631819
_symmetry_space_group_name_H-M "C M C M"
_symmetry_group_IT_number 63
_symmetry_cell_setting 'orthorhombic'
loop_
_space_group_symop_operation_xyz
x,y,z
-x,-y,1/2+z
x,-y,-z
-x,y,1/2-z
-x,-y,-z
x,y,1/2-z
-x,y,z
x,-y,1/2+z
1/2+x,1/2+y,z
1/2-x,1/2-y,1/2+z
1/2+x,1/2-y,-z
1/2-x,1/2+y,1/2-z
1/2-x,1/2-y,-z
1/2+x,1/2+y,1/2-z
1/2-x,1/2+y,z
1/2+x,1/2-y,1/2+z
loop_
_atom_site_type_symbol
_atom_site_label
_atom_site_fract_x
_atom_site_fract_y
_atom_site_fract_z
Si Si1 0.849917 0.304474 0.918237
Si Si2 0.919175 0.489500 0.854564
Si Si3 0.310589 0.978297 0.250000
Si Si4 0.311559 0.337074 0.876285
Si Si5 0.653348 0.132075 0.948961
Si Si6 0.216244 0.217155 0.250000
Si Si7 0.184075 0.056966 0.937880
O O1 0.908209 0.354836 0.872222
O O2 0.773029 0.325570 0.888577
O O3 0.864633 0.169780 0.928433
O O4 0.855688 0.372504 0.980540
O O5 0.861607 0.531220 0.806856
O O6 0.906984 0.558062 0.915822
O O7 0.000000 0.507747 0.830733
O O8 0.261004 0.857417 0.250000
O O9 0.272430 0.106076 0.250000
O O10 0.354346 0.262035 0.924500
O O11 0.330577 0.299070 0.809362
O O12 0.335218 0.469336 0.884968
O O13 0.732166 0.086288 0.932907
O O14 0.164500 0.000000 0.000000
#
# Coordination Sequence:
#
# PCOD8260896 Si02
#       7
#    16  16   8  16  16   8  16
#     4  11  21  33  56  89 123 156 201 250 309 372
#     4  12  25  41  60  84 125 170 210 246 287 362
#     4  12  25  46  64 100 123 156 204 262 322 366
#     4  11  20  34  56  89 123 151 190 256 324 365
#     4  11  19  34  56  87 123 153 199 248 303 368
#     4  12  24  38  66  92 128 150 194 262 316 374
#     4  11  17  32  57  89 122 154 186 251 330 364
#
# _framework density 19.734279000000001
#
# number of rings (size 3 to 8) (size 9 to 14) (size 15 to 20)
#    0.000    0.667    8.333    1.750    2.333    1.333 
#    0.000    0.000    0.000    1.500    0.000    1.167 
#    0.000    0.000    0.000    0.000    0.000    0.000 
#
# Total GULP energy -594653.446336 kJ/mol
# GULP energy per Si atom -12388.613465 kJ/mol
# Density = 1.968936 g / cm^3
# Si number density = 19.734279 Si / 1000 Ang^3
#
#
#
# Elastic Constant Matrix: (Units=GPa)
#
#
# Indices 1 2 3 4 5 6 
#
# 1 39.0427 25.1919 9.0415 0.0000 0.0000 0.0000
# 2 25.1919 147.5928 27.4578 0.0000 0.0000 0.0000
# 3 9.0415 27.4578 99.0387 0.0000 0.0000 0.0000
# 4 0.0000 0.0000 0.0000 34.1396 0.0000 0.0000
# 5 0.0000 0.0000 0.0000 0.0000 10.2133 0.0000
# 6 0.0000 0.0000 0.0000 0.0000 0.0000 14.8898
#
#
#
# Elastic Compliance Matrix: (Units=1/GPa)
#
#
# Indices 1 2 3 4 5 6 
#
# 1 0.028951 -0.004692 -0.001342 0.000000 0.000000 0.000000
# 2 -0.004692 0.007904 -0.001763 0.000000 0.000000 0.000000
# 3 -0.001342 -0.001763 0.010708 0.000000 0.000000 0.000000
# 4 0.000000 0.000000 0.000000 0.029292 0.000000 0.000000
# 5 0.000000 0.000000 0.000000 0.000000 0.097911 0.000000
# 6 0.000000 0.000000 0.000000 0.000000 0.000000 0.067160
#
#
# Mechanical properties :
#
#
# Convention : Reuss Voigt Hill
#
# Bulk Modulus (GPa) = 31.27979 45.45072 38.36525
# Shear Modulus (GPa) = 18.64438 26.78075 22.71257
#
# Velocity S-wave (km/s) = 3.07705 3.68784 3.39620
# Velocity P-wave (km/s) = 5.33940 6.41988 5.90441
#
# Compressibility (1/GPa) = 0.03196953
#
# Stress axis : x y z
#
# Youngs Moduli (GPa) = 34.54092 126.51475 93.38468
#
# Poissons Ratio (x) = 0.59358 0.12534
# Poissons Ratio (y) = 0.16206 0.16464
# Poissons Ratio (z) = 0.04636 0.22305
#
# Static dielectric constant tensor:
#      x y z
#    x 2.932800 0.000000 0.000000 
#    y 0.000000 4.366010 0.000000 
#    z 0.000000 0.000000 3.814830 
# 
# 
# High freq. dielectric constant tensor:
#      x y z
#    x 1.681260 0.000000 0.000000 
#    y 0.000000 1.798380 0.000000 
#    z 0.000000 0.000000 1.785060 
# 
# From -- ./inp_files/63757.got.cif
#   From: 2010.03.12/outbox.cif.g09.slc.cpg/sg63_32_cif.got.tgz:63757.got - 2010.04.10 19:34:48.
