data_PCOD8260808
_publ_section_title
;
Structure prediction by ZEFSAII (Michael W. Deem and Ramdas Pophale) SiO2 
 PCOD8260808
Probable space group: C M C M
;
_chemical_formula_sum "Si O2"
_cell_formula_units_Z 96
_cell_length_a 14.252869
_cell_length_b 11.541637
_cell_length_c 28.452529
_cell_angle_alpha 90.000000
_cell_angle_beta 90.000000
_cell_angle_gamma 90.000000
_cell_volume 4680.481998
_symmetry_space_group_name_H-M "C M C M"
_symmetry_group_IT_number 63
_symmetry_cell_setting 'orthorhombic'
loop_
_space_group_symop_operation_xyz
x,y,z
-x,-y,1/2+z
x,-y,-z
-x,y,1/2-z
-x,-y,-z
x,y,1/2-z
-x,y,z
x,-y,1/2+z
1/2+x,1/2+y,z
1/2-x,1/2-y,1/2+z
1/2+x,1/2-y,-z
1/2-x,1/2+y,1/2-z
1/2-x,1/2-y,-z
1/2+x,1/2+y,1/2-z
1/2-x,1/2+y,z
1/2+x,1/2-y,1/2+z
loop_
_atom_site_type_symbol
_atom_site_label
_atom_site_fract_x
_atom_site_fract_y
_atom_site_fract_z
Si Si1 0.298963 0.619698 0.448771
Si Si2 0.607069 0.383138 0.043520
Si Si3 0.144152 0.776690 0.140728
Si Si4 0.000000 0.188597 0.193824
Si Si5 0.150872 0.301748 0.129575
Si Si6 0.893700 0.443491 0.596623
Si Si7 0.500000 0.421526 0.304732
O O1 0.319907 0.656344 0.502804
O O2 0.363139 0.508623 0.437385
O O3 0.337819 0.720122 0.415631
O O4 0.188694 0.587288 0.441214
O O5 0.500000 0.385625 0.024773
O O6 0.616253 0.295593 0.086256
O O7 0.248343 0.814788 0.153213
O O8 0.123534 0.638171 0.143226
O O9 0.089343 0.855053 0.176529
O O10 0.910103 0.247196 0.170809
O O11 0.000000 0.206787 0.250000
O O12 0.000000 0.054102 0.179293
O O13 0.111472 0.424347 0.113143
O O14 0.000000 0.424018 0.576243
O O15 0.500000 0.410942 0.250000
#
# Coordination Sequence:
#
# PCOD8260808 Si02
#       7
#    16  16  16   8  16  16   8
#     4  10  23  38  63  95 127 174 228 267 315 390
#     4  11  21  39  65  95 132 175 228 276 321 384
#     4  11  23  43  67  94 135 173 213 268 327 392
#     4  11  26  45  70 102 127 161 221 276 331 398
#     4  11  24  41  69  91 135 176 213 267 337 388
#     4  11  22  41  62  94 130 179 216 260 324 394
#     4  11  24  45  76 104 123 159 225 280 319 386
#
# _framework density 20.510708999999999
#
# number of rings (size 3 to 8) (size 9 to 14) (size 15 to 20)
#    0.000    1.167    4.167    2.000    4.667    3.333 
#    0.000    3.333    1.833    0.000    0.000    0.000 
#    0.000    0.000    0.000    0.000    0.000    0.000 
#
# Total GULP energy -594917.164273 kJ/mol
# GULP energy per Si atom -12394.107589 kJ/mol
# Density = 2.046403 g / cm^3
# Si number density = 20.510709 Si / 1000 Ang^3
#
#
#
# Elastic Constant Matrix: (Units=GPa)
#
#
# Indices 1 2 3 4 5 6 
#
# 1 177.4258 27.2882 24.5875 0.0000 0.0000 0.0000
# 2 27.2882 91.9606 28.0398 0.0000 0.0000 0.0000
# 3 24.5875 28.0398 39.4200 0.0000 0.0000 0.0000
# 4 0.0000 0.0000 0.0000 12.9480 0.0000 0.0000
# 5 0.0000 0.0000 0.0000 0.0000 47.2673 0.0000
# 6 0.0000 0.0000 0.0000 0.0000 0.0000 33.6440
#
#
#
# Elastic Compliance Matrix: (Units=1/GPa)
#
#
# Indices 1 2 3 4 5 6 
#
# 1 0.006221 -0.000846 -0.003278 0.000000 0.000000 0.000000
# 2 -0.000846 0.014001 -0.009431 0.000000 0.000000 0.000000
# 3 -0.003278 -0.009431 0.034121 0.000000 0.000000 0.000000
# 4 0.000000 0.000000 0.000000 0.077232 0.000000 0.000000
# 5 0.000000 0.000000 0.000000 0.000000 0.021156 0.000000
# 6 0.000000 0.000000 0.000000 0.000000 0.000000 0.029723
#
#
# Mechanical properties :
#
#
# Convention : Reuss Voigt Hill
#
# Bulk Modulus (GPa) = 36.72213 52.07081 44.39647
# Shear Modulus (GPa) = 22.86847 34.03127 28.44987
#
# Velocity S-wave (km/s) = 3.34271 4.07774 3.72838
# Velocity P-wave (km/s) = 5.73071 6.90021 6.34247
#
# Compressibility (1/GPa) = 0.02723153
#
# Stress axis : x y z
#
# Youngs Moduli (GPa) = 160.75656 71.42333 29.30764
#
# Poissons Ratio (x) = 0.06045 0.09607
# Poissons Ratio (y) = 0.13607 0.27640
# Poissons Ratio (z) = 0.52695 0.67360
#
# Static dielectric constant tensor:
#      x y z
#    x 4.175080 0.000000 0.000000 
#    y 0.000000 4.179110 0.000000 
#    z 0.000000 0.000000 3.376470 
# 
# 
# High freq. dielectric constant tensor:
#      x y z
#    x 1.825380 0.000000 0.000000 
#    y 0.000000 1.828550 0.000000 
#    z 0.000000 0.000000 1.761780 
# 
# From -- ./inp_files/73361.got.cif
#   From: 2010.03.12/outbox.cif.g09.slc.cpg/sg63_37_cif.got.tgz:73361.got - 2010.04.10 19:34:48.
