data_PCOD8260079
_publ_section_title
;
Structure prediction by ZEFSAII (Michael W. Deem and Ramdas Pophale) SiO2 
 PCOD8260079
Probable space group: C M C M
;
_chemical_formula_sum "Si O2"
_cell_formula_units_Z 96
_cell_length_a 17.904482
_cell_length_b 10.308087
_cell_length_c 25.097763
_cell_angle_alpha 90.000000
_cell_angle_beta 90.000000
_cell_angle_gamma 90.000000
_cell_volume 4632.067187
_symmetry_space_group_name_H-M "C M C M"
_symmetry_group_IT_number 63
_symmetry_cell_setting 'orthorhombic'
loop_
_space_group_symop_operation_xyz
x,y,z
-x,-y,1/2+z
x,-y,-z
-x,y,1/2-z
-x,-y,-z
x,y,1/2-z
-x,y,z
x,-y,1/2+z
1/2+x,1/2+y,z
1/2-x,1/2-y,1/2+z
1/2+x,1/2-y,-z
1/2-x,1/2+y,1/2-z
1/2-x,1/2-y,-z
1/2+x,1/2+y,1/2-z
1/2-x,1/2+y,z
1/2+x,1/2-y,1/2+z
loop_
_atom_site_type_symbol
_atom_site_label
_atom_site_fract_x
_atom_site_fract_y
_atom_site_fract_z
Si Si1 0.083931 0.379394 0.473412
Si Si2 0.585175 0.725132 0.122862
Si Si3 0.846452 0.001150 0.063765
Si Si4 0.212871 0.694595 0.687908
Si Si5 0.708067 0.922010 0.629111
Si Si6 0.584936 0.237917 0.081474
O O1 0.128284 0.500000 0.500000
O O2 0.121621 0.330359 0.418881
O O3 0.081053 0.266678 0.517250
O O4 0.000000 0.424531 0.457923
O O5 0.500000 0.752688 0.137238
O O6 0.590830 0.589692 0.091903
O O7 0.632285 0.738201 0.176783
O O8 0.764895 0.054389 0.080102
O O9 0.863328 0.862947 0.091482
O O10 0.853166 0.000000 0.000000
O O11 0.229351 0.689952 0.750000
O O12 0.272757 0.789687 0.660893
O O13 0.211930 0.546489 0.667364
O O14 0.624898 0.891200 0.605997
O O15 0.500000 0.248712 0.104519
#
# Coordination Sequence:
#
# PCOD8260079 Si02
#       6
#    16  16  16  16  16  16
#     4   9  17  30  51  84 124 161 196 247 309 368
#     4  10  21  36  59  92 125 162 213 263 316 382
#     4  11  22  38  64  94 134 177 215 255 315 391
#     4  11  24  43  67  89 120 168 219 273 338 390
#     4  11  24  43  65  97 127 168 217 277 323 386
#     4  11  22  38  64  95 131 173 212 255 316 388
#
# _framework density 20.725089000000001
#
# number of rings (size 3 to 8) (size 9 to 14) (size 15 to 20)
#    0.000    1.500    3.333    2.000    0.000    5.667 
#    0.000    0.000    0.000    1.500    0.000    0.000 
#    0.000    0.000    0.000    0.000    0.000    0.000 
#
# Total GULP energy -594723.305306 kJ/mol
# GULP energy per Si atom -12390.068861 kJ/mol
# Density = 2.067792 g / cm^3
# Si number density = 20.725089 Si / 1000 Ang^3
#
#
#
# Elastic Constant Matrix: (Units=GPa)
#
#
# Indices 1 2 3 4 5 6 
#
# 1 99.9261 19.2718 26.8326 0.0000 0.0000 0.0000
# 2 19.2718 104.4379 21.8407 0.0000 0.0000 0.0000
# 3 26.8326 21.8407 65.9064 0.0000 0.0000 0.0000
# 4 0.0000 0.0000 0.0000 28.3147 0.0000 0.0000
# 5 0.0000 0.0000 0.0000 0.0000 14.6568 0.0000
# 6 0.0000 0.0000 0.0000 0.0000 0.0000 26.5614
#
#
#
# Elastic Compliance Matrix: (Units=1/GPa)
#
#
# Indices 1 2 3 4 5 6 
#
# 1 0.011377 -0.001215 -0.004229 0.000000 0.000000 0.000000
# 2 -0.001215 0.010418 -0.002958 0.000000 0.000000 0.000000
# 3 -0.004229 -0.002958 0.017875 0.000000 0.000000 0.000000
# 4 0.000000 0.000000 0.000000 0.035317 0.000000 0.000000
# 5 0.000000 0.000000 0.000000 0.000000 0.068228 0.000000
# 6 0.000000 0.000000 0.000000 0.000000 0.000000 0.037649
#
#
# Mechanical properties :
#
#
# Convention : Reuss Voigt Hill
#
# Bulk Modulus (GPa) = 43.73293 45.12896 44.43095
# Shear Modulus (GPa) = 24.35576 27.39495 25.87536
#
# Velocity S-wave (km/s) = 3.43181 3.63964 3.53725
# Velocity P-wave (km/s) = 6.07045 6.28370 6.17800
#
# Compressibility (1/GPa) = 0.02286606
#
# Stress axis : x y z
#
# Youngs Moduli (GPa) = 87.89328 95.98964 55.94363
#
# Poissons Ratio (x) = 0.11662 0.23661
# Poissons Ratio (y) = 0.10679 0.16546
# Poissons Ratio (z) = 0.37174 0.28391
#
# Static dielectric constant tensor:
#      x y z
#    x 3.556200 0.000000 0.000000 
#    y 0.000000 4.041900 0.000000 
#    z 0.000000 0.000000 3.454500 
# 
# 
# High freq. dielectric constant tensor:
#      x y z
#    x 1.800780 0.000000 0.000000 
#    y 0.000000 1.833890 0.000000 
#    z 0.000000 0.000000 1.778190 
# 
# From -- ./inp_files/69865.got.cif
#   From: 2010.03.12/outbox.cif.g09.slc.cpg/sg63_35_cif.got.tgz:69865.got - 2010.04.10 19:34:48.
