data_PCOD8260657
_publ_section_title
;
Structure prediction by ZEFSAII (Michael W. Deem and Ramdas Pophale) SiO2 
 PCOD8260657
Probable space group: C M C M
;
_chemical_formula_sum "Si O2"
_cell_formula_units_Z 80
_cell_length_a 24.691999
_cell_length_b 9.770271
_cell_length_c 17.227863
_cell_angle_alpha 90.000000
_cell_angle_beta 90.000000
_cell_angle_gamma 90.000000
_cell_volume 4156.179254
_symmetry_space_group_name_H-M "C M C M"
_symmetry_group_IT_number 63
_symmetry_cell_setting 'orthorhombic'
loop_
_space_group_symop_operation_xyz
x,y,z
-x,-y,1/2+z
x,-y,-z
-x,y,1/2-z
-x,-y,-z
x,y,1/2-z
-x,y,z
x,-y,1/2+z
1/2+x,1/2+y,z
1/2-x,1/2-y,1/2+z
1/2+x,1/2-y,-z
1/2-x,1/2+y,1/2-z
1/2-x,1/2-y,-z
1/2+x,1/2+y,1/2-z
1/2-x,1/2+y,z
1/2+x,1/2-y,1/2+z
loop_
_atom_site_type_symbol
_atom_site_label
_atom_site_fract_x
_atom_site_fract_y
_atom_site_fract_z
Si Si1 0.561629 0.265710 0.659036
Si Si2 0.855483 0.022174 0.089755
Si Si3 0.240791 0.377600 0.555108
Si Si4 0.563397 0.979650 0.588349
Si Si5 0.854953 0.724285 0.158393
O O1 0.567164 0.282338 0.750000
O O2 0.500000 0.290677 0.631010
O O3 0.599400 0.375444 0.619206
O O4 0.580557 0.114274 0.635629
O O5 0.859005 0.883140 0.137824
O O6 0.795803 0.085095 0.100413
O O7 0.867677 0.000000 0.000000
O O8 0.220328 0.500000 0.500000
O O9 0.250000 0.250000 0.500000
O O10 0.197140 0.346346 0.620524
O O11 0.500000 0.949815 0.593915
O O12 0.591666 0.848710 0.626024
O O13 0.582291 0.000000 0.500000
O O14 0.850715 0.705780 0.250000
#
# Coordination Sequence:
#
# PCOD8260657 Si02
#       5
#    16  16  16  16  16
#     4  10  22  40  61  89 125 163 203 251 307 364
#     4  11  23  41  65  89 122 165 207 255 304 372
#     4  11  23  45  66  87 122 164 208 257 307 373
#     4  10  22  41  66  92 124 166 211 254 303 372
#     4  12  25  39  62  97 129 159 206 262 317 369
#
# _framework density 19.248446999999999
#
# number of rings (size 3 to 8) (size 9 to 14) (size 15 to 20)
#    0.000    1.200    4.000    3.000    2.800    4.000 
#    0.000    0.000    0.000    0.000    0.000    0.000 
#    0.000    0.000    0.000    0.000    0.000    0.000 
#
# Total GULP energy -496195.811129 kJ/mol
# GULP energy per Si atom -12404.895278 kJ/mol
# Density = 1.920464 g / cm^3
# Si number density = 19.248447 Si / 1000 Ang^3
#
#
#
# Elastic Constant Matrix: (Units=GPa)
#
#
# Indices 1 2 3 4 5 6 
#
# 1 103.8869 56.8212 45.7951 0.0000 0.0000 0.0000
# 2 56.8212 91.8827 19.9266 0.0000 0.0000 0.0000
# 3 45.7951 19.9266 102.2690 0.0000 0.0000 0.0000
# 4 0.0000 0.0000 0.0000 36.0710 0.0000 0.0000
# 5 0.0000 0.0000 0.0000 0.0000 -58.7445 0.0000
# 6 0.0000 0.0000 0.0000 0.0000 0.0000 501.7643
#
#
#
# Elastic Compliance Matrix: (Units=1/GPa)
#
#
# Indices 1 2 3 4 5 6 
#
# 1 0.017449 -0.009498 -0.005963 0.000000 0.000000 0.000000
# 2 -0.009498 0.016533 0.001032 0.000000 0.000000 0.000000
# 3 -0.005963 0.001032 0.012247 0.000000 0.000000 0.000000
# 4 0.000000 0.000000 0.000000 0.027723 0.000000 0.000000
# 5 0.000000 0.000000 0.000000 0.000000 -0.017023 0.000000
# 6 0.000000 0.000000 0.000000 0.000000 0.000000 0.001993
#
#
# Mechanical properties :
#
#
# Convention : Reuss Voigt Hill
#
# Bulk Modulus (GPa) = 57.56550 60.34716 58.95633
# Shear Modulus (GPa) = 53.43515 107.51788 80.47651
#
# Velocity S-wave (km/s) = 5.27456 7.48193 6.47303
# Velocity P-wave (km/s) = 8.18940 10.29848 9.30389
#
# Compressibility (1/GPa) = 0.01737152
#
# Stress axis : x y z
#
# Youngs Moduli (GPa) = 57.30940 60.48466 81.65041
#
# Poissons Ratio (x) = 0.57446 0.48688
# Poissons Ratio (y) = 0.54430 -0.08422
# Poissons Ratio (z) = 0.34174 -0.06239
#
# Static dielectric constant tensor:
#      x y z
#    x 3.726080 0.000000 0.000000 
#    y 0.000000 3.661600 0.000000 
#    z 0.000000 0.000000 3.534490 
# 
# 
# High freq. dielectric constant tensor:
#      x y z
#    x 1.757610 0.000000 0.000000 
#    y 0.000000 1.763830 0.000000 
#    z 0.000000 0.000000 1.756010 
# 
# From -- ./inp_files/48752.got.cif
#   From: 2010.03.12/outbox.cif.g09.slc.cpg/sg63_25_cif.got.tgz:48752.got - 2010.04.10 19:34:48.
