data_PCOD8260145
_publ_section_title
;
Structure prediction by ZEFSAII (Michael W. Deem and Ramdas Pophale) SiO2 
 PCOD8260145
Probable space group: C M C M
;
_chemical_formula_sum "Si O2"
_cell_formula_units_Z 80
_cell_length_a 9.181799
_cell_length_b 27.567914
_cell_length_c 16.175026
_cell_angle_alpha 90.000000
_cell_angle_beta 90.000000
_cell_angle_gamma 90.000000
_cell_volume 4094.271837
_symmetry_space_group_name_H-M "C M C M"
_symmetry_group_IT_number 63
_symmetry_cell_setting 'orthorhombic'
loop_
_space_group_symop_operation_xyz
x,y,z
-x,-y,1/2+z
x,-y,-z
-x,y,1/2-z
-x,-y,-z
x,y,1/2-z
-x,y,z
x,-y,1/2+z
1/2+x,1/2+y,z
1/2-x,1/2-y,1/2+z
1/2+x,1/2-y,-z
1/2-x,1/2+y,1/2-z
1/2-x,1/2-y,-z
1/2+x,1/2+y,1/2-z
1/2-x,1/2+y,z
1/2+x,1/2-y,1/2+z
loop_
_atom_site_type_symbol
_atom_site_label
_atom_site_fract_x
_atom_site_fract_y
_atom_site_fract_z
Si Si1 0.827389 0.378024 0.750000
Si Si2 0.671174 0.275421 0.077000
Si Si3 0.166679 0.023156 0.842666
Si Si4 0.173274 0.269247 0.750000
Si Si5 0.171938 0.436249 0.591800
Si Si6 0.834906 0.113465 0.552673
O O1 0.763736 0.323770 0.750000
O O2 0.770339 0.406547 0.829463
O O3 0.000000 0.375294 0.750000
O O4 0.500000 0.265037 0.067767
O O5 0.730176 0.255930 0.165510
O O6 0.707783 0.332261 0.077149
O O7 0.750000 0.250000 0.000000
O O8 0.228355 0.017585 0.750000
O O9 0.180834 0.079519 0.866974
O O10 0.000000 0.006025 0.848022
O O11 0.258831 0.989905 0.905504
O O12 0.000000 0.267739 0.750000
O O13 0.221914 0.405796 0.513832
O O14 0.000000 0.442282 0.589765
O O15 0.000000 0.111142 0.517848
#
# Coordination Sequence:
#
# PCOD8260145 Si02
#       6
#     8  16  16   8  16  16
#     4   9  18  32  52  79 109 141 183 231 278 333
#     4  10  21  38  61  87 117 151 196 245 291 344
#     4  10  21  37  57  81 114 150 185 230 283 338
#     4   9  18  34  58  83 109 149 193 235 286 345
#     4  11  21  36  57  82 113 149 191 235 280 336
#     4  10  22  37  56  83 114 148 189 234 284 341
#
# _framework density 19.539494999999999
#
# number of rings (size 3 to 8) (size 9 to 14) (size 15 to 20)
#    0.000    2.000    1.000    2.400    1.400    5.600 
#    0.000    0.500    0.000    3.600    0.000    0.000 
#    0.000    0.000    0.000    0.000    0.000    0.000 
#
# Total GULP energy -496042.022983 kJ/mol
# GULP energy per Si atom -12401.050575 kJ/mol
# Density = 1.949502 g / cm^3
# Si number density = 19.539495 Si / 1000 Ang^3
#
#
#
# Elastic Constant Matrix: (Units=GPa)
#
#
# Indices 1 2 3 4 5 6 
#
# 1 57.0926 40.1112 34.9122 0.0000 0.0000 0.0000
# 2 40.1112 149.4107 44.6948 0.0000 0.0000 0.0000
# 3 34.9122 44.6948 113.0769 0.0000 0.0000 0.0000
# 4 0.0000 0.0000 0.0000 31.0116 0.0000 0.0000
# 5 0.0000 0.0000 0.0000 0.0000 28.7810 0.0000
# 6 0.0000 0.0000 0.0000 0.0000 0.0000 23.6081
#
#
#
# Elastic Compliance Matrix: (Units=1/GPa)
#
#
# Indices 1 2 3 4 5 6 
#
# 1 0.024355 -0.004864 -0.005597 0.000000 0.000000 0.000000
# 2 -0.004864 0.008562 -0.001882 0.000000 0.000000 0.000000
# 3 -0.005597 -0.001882 0.011316 0.000000 0.000000 0.000000
# 4 0.000000 0.000000 0.000000 0.032246 0.000000 0.000000
# 5 0.000000 0.000000 0.000000 0.000000 0.034745 0.000000
# 6 0.000000 0.000000 0.000000 0.000000 0.000000 0.042358
#
#
# Mechanical properties :
#
#
# Convention : Reuss Voigt Hill
#
# Bulk Modulus (GPa) = 51.16210 62.11298 56.63754
# Shear Modulus (GPa) = 27.05847 30.00427 28.53137
#
# Velocity S-wave (km/s) = 3.72534 3.92289 3.82539
# Velocity P-wave (km/s) = 6.68917 7.23714 6.96854
#
# Compressibility (1/GPa) = 0.01954572
#
# Stress axis : x y z
#
# Youngs Moduli (GPa) = 41.05855 116.79628 88.37327
#
# Poissons Ratio (x) = 0.56812 0.49463
# Poissons Ratio (y) = 0.19972 0.16635
# Poissons Ratio (z) = 0.22981 0.21985
#
# Static dielectric constant tensor:
#      x y z
#    x 3.275710 0.000000 0.000000 
#    y 0.000000 3.744150 0.000000 
#    z 0.000000 0.000000 3.689500 
# 
# 
# High freq. dielectric constant tensor:
#      x y z
#    x 1.733520 0.000000 0.000000 
#    y 0.000000 1.775940 0.000000 
#    z 0.000000 0.000000 1.769380 
# 
# From -- ./inp_files/40620.got.cif
#   From: 2010.03.12/outbox.cif.g09.slc.cpg/sg63_21_cif.got.tgz:40620.got - 2010.04.10 19:34:48.
