data_PCOD8260214
_publ_section_title
;
Structure prediction by ZEFSAII (Michael W. Deem and Ramdas Pophale) SiO2 
 PCOD8260214
Probable space group: C M C M
;
_chemical_formula_sum "Si O2"
_cell_formula_units_Z 80
_cell_length_a 30.076518
_cell_length_b 14.662251
_cell_length_c 8.738881
_cell_angle_alpha 90.000000
_cell_angle_beta 90.000000
_cell_angle_gamma 90.000000
_cell_volume 3853.754379
_symmetry_space_group_name_H-M "C M C M"
_symmetry_group_IT_number 63
_symmetry_cell_setting 'orthorhombic'
loop_
_space_group_symop_operation_xyz
x,y,z
-x,-y,1/2+z
x,-y,-z
-x,y,1/2-z
-x,-y,-z
x,y,1/2-z
-x,y,z
x,-y,1/2+z
1/2+x,1/2+y,z
1/2-x,1/2-y,1/2+z
1/2+x,1/2-y,-z
1/2-x,1/2+y,1/2-z
1/2-x,1/2-y,-z
1/2+x,1/2+y,1/2-z
1/2-x,1/2+y,z
1/2+x,1/2-y,1/2+z
loop_
_atom_site_type_symbol
_atom_site_label
_atom_site_fract_x
_atom_site_fract_y
_atom_site_fract_z
Si Si1 0.548192 0.599323 0.429075
Si Si2 0.952001 0.599709 0.070589
Si Si3 0.364491 0.901301 0.071727
Si Si4 0.201719 0.757499 0.929874
Si Si5 0.636204 0.399223 0.068813
O O1 0.544769 0.500000 0.500000
O O2 0.558831 0.592111 0.250000
O O3 0.500000 0.648611 0.456520
O O4 0.589782 0.648720 0.512332
O O5 0.943946 0.592713 0.250000
O O6 0.000000 0.647850 0.035344
O O7 0.953116 0.500000 0.000000
O O8 0.909274 0.648202 0.994404
O O9 0.371287 0.914410 0.250000
O O10 0.323307 0.836636 0.032426
O O11 0.355002 0.000000 0.000000
O O12 0.204120 0.776168 0.750000
O O13 0.250000 0.750000 0.000000
O O14 0.177551 0.841740 0.009610
O O15 0.637085 0.403737 0.250000
O O16 0.640037 0.500000 0.000000
#
# Coordination Sequence:
#
# PCOD8260214 Si02
#       5
#    16  16  16  16  16
#     4   9  16  28  50  81 117 155 193 234 281 337
#     4   9  16  27  48  79 114 151 189 228 272 326
#     4  10  21  37  60  87 116 151 189 232 283 339
#     4  11  25  44  63  86 115 149 193 244 298 352
#     4  11  22  38  62  89 119 156 195 240 292 347
#
# _framework density 20.758977999999999
#
# number of rings (size 3 to 8) (size 9 to 14) (size 15 to 20)
#    0.000    2.000    0.000    6.600    0.000    6.400 
#    0.000    3.000    0.000    1.200    0.000    0.000 
#    0.000    0.000    0.000    0.000    0.000    0.000 
#
# Total GULP energy -495687.726589 kJ/mol
# GULP energy per Si atom -12392.193165 kJ/mol
# Density = 2.071173 g / cm^3
# Si number density = 20.758978 Si / 1000 Ang^3
#
#
#
# Elastic Constant Matrix: (Units=GPa)
#
#
# Indices 1 2 3 4 5 6 
#
# 1 222.6096 60.3805 99.7091 0.0000 0.0000 0.0000
# 2 60.3805 67.9127 56.0660 0.0000 0.0000 0.0000
# 3 99.7091 56.0660 165.9600 0.0000 0.0000 0.0000
# 4 0.0000 0.0000 0.0000 24.4707 0.0000 0.0000
# 5 0.0000 0.0000 0.0000 0.0000 24.9805 0.0000
# 6 0.0000 0.0000 0.0000 0.0000 0.0000 316.2902
#
#
#
# Elastic Compliance Matrix: (Units=1/GPa)
#
#
# Indices 1 2 3 4 5 6 
#
# 1 0.006750 -0.003680 -0.002812 0.000000 0.000000 0.000000
# 2 -0.003680 0.022426 -0.005365 0.000000 0.000000 0.000000
# 3 -0.002812 -0.005365 0.009528 0.000000 0.000000 0.000000
# 4 0.000000 0.000000 0.000000 0.040865 0.000000 0.000000
# 5 0.000000 0.000000 0.000000 0.000000 0.040031 0.000000
# 6 0.000000 0.000000 0.000000 0.000000 0.000000 0.003162
#
#
# Mechanical properties :
#
#
# Convention : Reuss Voigt Hill
#
# Bulk Modulus (GPa) = 66.71595 98.75484 82.73539
# Shear Modulus (GPa) = 33.00943 89.17006 61.08975
#
# Velocity S-wave (km/s) = 3.99197 6.56111 5.43065
# Velocity P-wave (km/s) = 7.31135 10.25051 8.90306
#
# Compressibility (1/GPa) = 0.01498892
#
# Stress axis : x y z
#
# Youngs Moduli (GPa) = 148.15142 44.59184 104.95679
#
# Poissons Ratio (x) = 0.16408 0.29517
# Poissons Ratio (y) = 0.54513 0.56313
# Poissons Ratio (z) = 0.41664 0.23925
#
# Static dielectric constant tensor:
#      x y z
#    x 4.625650 0.000000 0.000000 
#    y 0.000000 3.440390 0.000000 
#    z 0.000000 0.000000 3.877740 
# 
# 
# High freq. dielectric constant tensor:
#      x y z
#    x 1.832170 0.000000 0.000000 
#    y 0.000000 1.780330 0.000000 
#    z 0.000000 0.000000 1.829490 
# 
# From -- ./inp_files/12032.got.cif
#   From: 2010.03.12/outbox.cif.g09.slc.cpg/sg63_7_cif.got.tgz:12032.got - 2010.04.10 19:34:48.
