data_PCOD8260194
_publ_section_title
;
Structure prediction by ZEFSAII (Michael W. Deem and Ramdas Pophale) SiO2 
 PCOD8260194
Probable space group: C M C M
;
_chemical_formula_sum "Si O2"
_cell_formula_units_Z 72
_cell_length_a 12.601495
_cell_length_b 16.826764
_cell_length_c 14.588543
_cell_angle_alpha 90.000000
_cell_angle_beta 90.000000
_cell_angle_gamma 90.000000
_cell_volume 3093.389414
_symmetry_space_group_name_H-M "C M C M"
_symmetry_group_IT_number 63
_symmetry_cell_setting 'orthorhombic'
loop_
_space_group_symop_operation_xyz
x,y,z
-x,-y,1/2+z
x,-y,-z
-x,y,1/2-z
-x,-y,-z
x,y,1/2-z
-x,y,z
x,-y,1/2+z
1/2+x,1/2+y,z
1/2-x,1/2-y,1/2+z
1/2+x,1/2-y,-z
1/2-x,1/2+y,1/2-z
1/2-x,1/2-y,-z
1/2+x,1/2+y,1/2-z
1/2-x,1/2+y,z
1/2+x,1/2-y,1/2+z
loop_
_atom_site_type_symbol
_atom_site_label
_atom_site_fract_x
_atom_site_fract_y
_atom_site_fract_z
Si Si1 0.873985 0.629481 0.750000
Si Si2 0.765055 0.000000 0.000000
Si Si3 0.124207 0.257521 0.412106
Si Si4 0.125583 0.088007 0.148003
Si Si5 0.873447 0.445857 0.750000
Si Si6 0.123694 0.373562 0.942023
O O1 0.831182 0.678137 0.838929
O O2 0.832857 0.537472 0.750000
O O3 0.000000 0.625383 0.750000
O O4 0.840631 0.012743 0.087608
O O5 0.686086 0.073644 0.983294
O O6 0.173234 0.169487 0.397406
O O7 0.143660 0.283900 0.519184
O O8 0.000000 0.250015 0.392345
O O9 0.173906 0.076917 0.250000
O O10 0.000000 0.091810 0.154086
O O11 0.831970 0.397171 0.659384
O O12 0.000000 0.441516 0.750000
O O13 0.000000 0.394314 0.947746
#
# Coordination Sequence:
#
# PCOD8260194 Si02
#       6
#     8   8  16  16   8  16
#     4   9  14  24  49  82 109 150 203 239 281 342
#     4  12  24  36  64  92 124 158 206 250 312 364
#     4   9  17  34  61  87 114 158 207 249 295 353
#     4  10  22  43  66  88 117 158 211 264 306 352
#     4   9  18  32  53  82 126 172 197 231 292 360
#     4  10  21  37  58  90 131 165 197 242 302 370
#
# _framework density 23.275438999999999
#
# number of rings (size 3 to 8) (size 9 to 14) (size 15 to 20)
#    0.000    2.222    1.111    2.000    1.556    4.444 
#    2.000    0.000    2.444    0.000    0.000    0.000 
#    0.000    0.000    0.000    0.000    0.000    0.000 
#
# Total GULP energy -446120.108768 kJ/mol
# GULP energy per Si atom -12392.225244 kJ/mol
# Density = 2.322246 g / cm^3
# Si number density = 23.275439 Si / 1000 Ang^3
#
#
#
# Elastic Constant Matrix: (Units=GPa)
#
#
# Indices 1 2 3 4 5 6 
#
# 1 26.2036 35.6345 46.8458 0.0000 0.0000 0.0000
# 2 35.6345 124.8275 97.9332 0.0000 0.0000 0.0000
# 3 46.8458 97.9332 184.9343 0.0000 0.0000 0.0000
# 4 0.0000 0.0000 0.0000 38.8607 0.0000 0.0000
# 5 0.0000 0.0000 0.0000 0.0000 40.4155 0.0000
# 6 0.0000 0.0000 0.0000 0.0000 0.0000 28.0132
#
#
#
# Elastic Compliance Matrix: (Units=1/GPa)
#
#
# Indices 1 2 3 4 5 6 
#
# 1 0.078551 -0.011656 -0.013725 0.000000 0.000000 0.000000
# 2 -0.011656 0.015434 -0.005221 0.000000 0.000000 0.000000
# 3 -0.013725 -0.005221 0.011649 0.000000 0.000000 0.000000
# 4 0.000000 0.000000 0.000000 0.025733 0.000000 0.000000
# 5 0.000000 0.000000 0.000000 0.000000 0.024743 0.000000
# 6 0.000000 0.000000 0.000000 0.000000 0.000000 0.035697
#
#
# Mechanical properties :
#
#
# Convention : Reuss Voigt Hill
#
# Bulk Modulus (GPa) = 22.50713 77.42137 49.96425
# Shear Modulus (GPa) = 18.66910 31.82800 25.24855
#
# Velocity S-wave (km/s) = 2.83520 3.70192 3.29716
# Velocity P-wave (km/s) = 4.51760 7.18384 6.00068
#
# Compressibility (1/GPa) = 0.04443036
#
# Stress axis : x y z
#
# Youngs Moduli (GPa) = 12.73056 64.79010 85.84499
#
# Poissons Ratio (x) = 0.75517 1.17826
# Poissons Ratio (y) = 0.14838 0.44819
# Poissons Ratio (z) = 0.17473 0.33826
#
# Static dielectric constant tensor:
#      x y z
#    x 4.188160 0.000000 0.000000 
#    y 0.000000 4.215980 0.000000 
#    z 0.000000 0.000000 4.318580 
# 
# 
# High freq. dielectric constant tensor:
#      x y z
#    x 1.940050 0.000000 0.000000 
#    y 0.000000 1.905030 0.000000 
#    z 0.000000 0.000000 1.923680 
# 
# From -- ./inp_files/31510.got.cif
#   From: 2010.03.12/outbox.cif.g09.slc.cpg/sg63_16_cif.got.tgz:31510.got - 2010.04.10 19:34:48.
