data_PCOD8260383
_publ_section_title
;
Structure prediction by ZEFSAII (Michael W. Deem and Ramdas Pophale) SiO2 
 PCOD8260383
Probable space group: C M C M
;
_chemical_formula_sum "Si O2"
_cell_formula_units_Z 80
_cell_length_a 12.872377
_cell_length_b 12.869638
_cell_length_c 26.018773
_cell_angle_alpha 90.000000
_cell_angle_beta 90.000000
_cell_angle_gamma 90.000000
_cell_volume 4310.343625
_symmetry_space_group_name_H-M "C M C M"
_symmetry_group_IT_number 63
_symmetry_cell_setting 'orthorhombic'
loop_
_space_group_symop_operation_xyz
x,y,z
-x,-y,1/2+z
x,-y,-z
-x,y,1/2-z
-x,-y,-z
x,y,1/2-z
-x,y,z
x,-y,1/2+z
1/2+x,1/2+y,z
1/2-x,1/2-y,1/2+z
1/2+x,1/2-y,-z
1/2-x,1/2+y,1/2-z
1/2-x,1/2-y,-z
1/2+x,1/2+y,1/2-z
1/2-x,1/2+y,z
1/2+x,1/2-y,1/2+z
loop_
_atom_site_type_symbol
_atom_site_label
_atom_site_fract_x
_atom_site_fract_y
_atom_site_fract_z
Si Si1 0.756669 0.594275 0.035836
Si Si2 0.000000 0.411682 0.311445
Si Si3 0.385072 0.486286 0.308690
Si Si4 0.122114 0.713985 0.954305
Si Si5 0.806814 0.550379 0.875145
Si Si6 0.500000 0.319027 0.690765
O O1 0.657231 0.666276 0.047169
O O2 0.804880 0.550552 0.088467
O O3 0.717480 0.500000 0.000000
O O4 0.846697 0.661000 0.008277
O O5 0.897773 0.467737 0.333572
O O6 0.000000 0.293706 0.335569
O O7 0.000000 0.420051 0.250000
O O8 0.347764 0.471350 0.250000
O O9 0.500000 0.434330 0.315926
O O10 0.302644 0.434294 0.346311
O O11 0.397653 0.610569 0.321591
O O12 0.177582 0.654323 0.907803
O O13 0.000000 0.707628 0.947593
O O14 0.500000 0.291291 0.750000
#
# Coordination Sequence:
#
# PCOD8260383 Si02
#       6
#    16   8  16  16  16   8
#     4   9  22  39  57  86 113 148 190 239 297 346
#     4  11  22  34  53  90 120 152 196 238 283 344
#     4   8  17  35  58  81 111 152 194 242 285 327
#     4  10  21  39  60  83 116 149 195 239 290 354
#     4  11  21  32  59  87 115 153 189 238 290 347
#     4   7  16  34  56  78 102 148 199 232 274 320
#
# _framework density 18.560005
#
# number of rings (size 3 to 8) (size 9 to 14) (size 15 to 20)
#    0.600    2.000    1.000    0.600    4.200    2.400 
#    0.000    8.000    0.000    0.000    0.000    0.000 
#    0.000    0.000    0.000    0.000    0.000    0.000 
#
# Total GULP energy -495708.859780 kJ/mol
# GULP energy per Si atom -12392.721495 kJ/mol
# Density = 1.851776 g / cm^3
# Si number density = 18.560005 Si / 1000 Ang^3
#
#
#
# Elastic Constant Matrix: (Units=GPa)
#
#
# Indices 1 2 3 4 5 6 
#
# 1 129.9266 53.5888 70.8801 0.0000 0.0000 0.0000
# 2 53.5888 96.4426 44.9581 0.0000 0.0000 0.0000
# 3 70.8801 44.9581 111.5029 0.0000 0.0000 0.0000
# 4 0.0000 0.0000 0.0000 22.2071 0.0000 0.0000
# 5 0.0000 0.0000 0.0000 0.0000 33.2803 0.0000
# 6 0.0000 0.0000 0.0000 0.0000 0.0000 18.9167
#
#
#
# Elastic Compliance Matrix: (Units=1/GPa)
#
#
# Indices 1 2 3 4 5 6 
#
# 1 0.013007 -0.004154 -0.006593 0.000000 0.000000 0.000000
# 2 -0.004154 0.014095 -0.003043 0.000000 0.000000 0.000000
# 3 -0.006593 -0.003043 0.014387 0.000000 0.000000 0.000000
# 4 0.000000 0.000000 0.000000 0.045031 0.000000 0.000000
# 5 0.000000 0.000000 0.000000 0.000000 0.030048 0.000000
# 6 0.000000 0.000000 0.000000 0.000000 0.000000 0.052863
#
#
# Mechanical properties :
#
#
# Convention : Reuss Voigt Hill
#
# Bulk Modulus (GPa) = 71.89669 75.19178 73.54424
# Shear Modulus (GPa) = 24.79585 26.11050 25.45317
#
# Velocity S-wave (km/s) = 3.65908 3.75482 3.70726
# Velocity P-wave (km/s) = 7.52817 7.70708 7.61815
#
# Compressibility (1/GPa) = 0.01390885
#
# Stress axis : x y z
#
# Youngs Moduli (GPa) = 76.88275 70.94545 69.50948
#
# Poissons Ratio (x) = 0.29469 0.45830
# Poissons Ratio (y) = 0.31935 0.21151
# Poissons Ratio (z) = 0.50692 0.21587
#
# Static dielectric constant tensor:
#      x y z
#    x 3.225880 0.000000 0.000000 
#    y 0.000000 3.371640 0.000000 
#    z 0.000000 0.000000 3.462830 
# 
# 
# High freq. dielectric constant tensor:
#      x y z
#    x 1.706910 0.000000 0.000000 
#    y 0.000000 1.702080 0.000000 
#    z 0.000000 0.000000 1.732320 
# 
# From -- ./inp_files/68130.got.cif
#   From: 2010.03.12/outbox.cif.g09.slc.cpg/sg63_35_cif.got.tgz:68130.got - 2010.04.10 19:34:48.
