data_PCOD8260870
_publ_section_title
;
Structure prediction by ZEFSAII (Michael W. Deem and Ramdas Pophale) SiO2 
 PCOD8260870
Probable space group: C M C M
;
_chemical_formula_sum "Si O2"
_cell_formula_units_Z 56
_cell_length_a 14.372564
_cell_length_b 21.085162
_cell_length_c 8.314712
_cell_angle_alpha 90.000000
_cell_angle_beta 90.000000
_cell_angle_gamma 90.000000
_cell_volume 2519.755514
_symmetry_space_group_name_H-M "C M C M"
_symmetry_group_IT_number 63
_symmetry_cell_setting 'orthorhombic'
loop_
_space_group_symop_operation_xyz
x,y,z
-x,-y,1/2+z
x,-y,-z
-x,y,1/2-z
-x,-y,-z
x,y,1/2-z
-x,y,z
x,-y,1/2+z
1/2+x,1/2+y,z
1/2-x,1/2-y,1/2+z
1/2+x,1/2-y,-z
1/2-x,1/2+y,1/2-z
1/2-x,1/2-y,-z
1/2+x,1/2+y,1/2-z
1/2-x,1/2+y,z
1/2+x,1/2-y,1/2+z
loop_
_atom_site_type_symbol
_atom_site_label
_atom_site_fract_x
_atom_site_fract_y
_atom_site_fract_z
Si Si1 0.000000 0.568867 0.058498
Si Si2 0.149020 0.343730 0.063600
Si Si3 0.302335 0.431044 0.940561
Si Si4 0.000000 0.751834 0.435574
Si Si5 0.000000 0.890031 0.936745
O O1 0.000000 0.580689 0.250000
O O2 0.000000 0.500000 0.000000
O O3 0.090589 0.594407 0.972616
O O4 0.153322 0.325361 0.250000
O O5 0.250032 0.366937 0.003018
O O6 0.095966 0.286410 0.972384
O O7 0.295202 0.429818 0.750000
O O8 0.407359 0.422584 0.008979
O O9 0.264492 0.500000 0.000000
O O10 0.000000 0.769783 0.250000
O O11 0.000000 0.814940 0.538286
O O12 0.000000 0.903312 0.750000
#
# Coordination Sequence:
#
# PCOD8260870 Si02
#       5
#     8  16  16   8   8
#     4  11  20  33  53  81 117 155 197 244 298 359
#     4  11  22  38  60  87 121 159 199 246 302 362
#     4  11  23  41  64  92 124 160 205 253 305 360
#     4  11  23  41  65  93 124 159 203 252 304 363
#     4  10  24  44  65  88 121 164 207 254 302 358
#
# _framework density 22.224377
#
# number of rings (size 3 to 8) (size 9 to 14) (size 15 to 20)
#    0.000    1.143    0.000    9.000    0.000    3.429 
#    0.000    0.000    0.000    0.000    0.000    0.000 
#    0.000    0.000    0.000    0.000    0.000    0.000 
#
# Total GULP energy -346898.586969 kJ/mol
# GULP energy per Si atom -12389.235249 kJ/mol
# Density = 2.217379 g / cm^3
# Si number density = 22.224377 Si / 1000 Ang^3
#
#
#
# Elastic Constant Matrix: (Units=GPa)
#
#
# Indices 1 2 3 4 5 6 
#
# 1 106.6011 5.1593 24.8432 0.0000 0.0000 0.0000
# 2 5.1593 75.2759 -15.1480 0.0000 0.0000 0.0000
# 3 24.8432 -15.1480 76.3149 0.0000 0.0000 0.0000
# 4 0.0000 0.0000 0.0000 30.1789 0.0000 0.0000
# 5 0.0000 0.0000 0.0000 0.0000 35.0797 0.0000
# 6 0.0000 0.0000 0.0000 0.0000 0.0000 11.4075
#
#
#
# Elastic Compliance Matrix: (Units=1/GPa)
#
#
# Indices 1 2 3 4 5 6 
#
# 1 0.010298 -0.001438 -0.003638 0.000000 0.000000 0.000000
# 2 -0.001438 0.014038 0.003255 0.000000 0.000000 0.000000
# 3 -0.003638 0.003255 0.014934 0.000000 0.000000 0.000000
# 4 0.000000 0.000000 0.000000 0.033136 0.000000 0.000000
# 5 0.000000 0.000000 0.000000 0.000000 0.028506 0.000000
# 6 0.000000 0.000000 0.000000 0.000000 0.000000 0.087662
#
#
# Mechanical properties :
#
#
# Convention : Reuss Voigt Hill
#
# Bulk Modulus (GPa) = 28.06815 31.98899 30.02857
# Shear Modulus (GPa) = 24.49873 31.55572 28.02723
#
# Velocity S-wave (km/s) = 3.32375 3.77220 3.55505
# Velocity P-wave (km/s) = 5.23322 5.77906 5.51290
#
# Compressibility (1/GPa) = 0.03562758
#
# Stress axis : x y z
#
# Youngs Moduli (GPa) = 97.10491 71.23560 66.96198
#
# Poissons Ratio (x) = 0.10243 0.24360
# Poissons Ratio (y) = 0.13962 -0.21793
# Poissons Ratio (z) = 0.35325 -0.23184
#
# Static dielectric constant tensor:
#      x y z
#    x 4.299180 0.000000 0.000000 
#    y 0.000000 3.958900 0.000000 
#    z 0.000000 0.000000 3.592260 
# 
# 
# High freq. dielectric constant tensor:
#      x y z
#    x 1.885840 0.000000 0.000000 
#    y 0.000000 1.877680 0.000000 
#    z 0.000000 0.000000 1.874400 
# 
# From -- ./inp_files/2867.got.cif
#   From: 2010.03.12/outbox.cif.g09.slc.cpg/sg63_2_cif.got.tgz:2867.got - 2010.04.10 19:34:48.
