data_PCOD8260489
_publ_section_title
;
Structure prediction by ZEFSAII (Michael W. Deem and Ramdas Pophale) SiO2 
 PCOD8260489
Probable space group: C M C M
;
_chemical_formula_sum "Si O2"
_cell_formula_units_Z 48
_cell_length_a 10.252812
_cell_length_b 10.383072
_cell_length_c 17.451884
_cell_angle_alpha 90.000000
_cell_angle_beta 90.000000
_cell_angle_gamma 90.000000
_cell_volume 1857.852269
_symmetry_space_group_name_H-M "C M C M"
_symmetry_group_IT_number 63
_symmetry_cell_setting 'orthorhombic'
loop_
_space_group_symop_operation_xyz
x,y,z
-x,-y,1/2+z
x,-y,-z
-x,y,1/2-z
-x,-y,-z
x,y,1/2-z
-x,y,z
x,-y,1/2+z
1/2+x,1/2+y,z
1/2-x,1/2-y,1/2+z
1/2+x,1/2-y,-z
1/2-x,1/2+y,1/2-z
1/2-x,1/2-y,-z
1/2+x,1/2+y,1/2-z
1/2-x,1/2+y,z
1/2+x,1/2-y,1/2+z
loop_
_atom_site_type_symbol
_atom_site_label
_atom_site_fract_x
_atom_site_fract_y
_atom_site_fract_z
Si Si1 0.281438 0.017711 0.840390
Si Si2 0.651404 0.857077 0.968998
Si Si3 0.500000 0.793310 0.158686
Si Si4 0.500000 0.509839 0.160246
O O1 0.297266 0.997457 0.750000
O O2 0.322950 0.880271 0.877452
O O3 0.372817 0.131942 0.872890
O O4 0.133286 0.061473 0.863707
O O5 0.500000 0.818258 0.985578
O O6 0.750000 0.750000 0.000000
O O7 0.687725 0.000000 0.000000
O O8 0.500000 0.795095 0.250000
O O9 0.500000 0.652216 0.122585
O O10 0.500000 0.533554 0.250000
#
# Coordination Sequence:
#
# PCOD8260489 Si02
#       4
#    16  16   8   8
#     4  10  21  40  67  97 127 170 225 273 323 390
#     4  11  27  47  68  98 138 180 222 274 339 404
#     4   9  18  36  61  88 123 165 211 267 323 377
#     4   9  20  36  61  95 131 164 205 271 335 383
#
# _framework density 25.836285
#
# number of rings (size 3 to 8) (size 9 to 14) (size 15 to 20)
#    0.000    2.000    1.667    0.000    7.000    0.667 
#    0.000    1.667    0.000   10.000    0.000    0.000 
#    0.000    0.000    0.000    0.000    0.000    0.000 
#
# Total GULP energy -297457.111514 kJ/mol
# GULP energy per Si atom -12394.046313 kJ/mol
# Density = 2.577748 g / cm^3
# Si number density = 25.836285 Si / 1000 Ang^3
#
#
#
# Elastic Constant Matrix: (Units=GPa)
#
#
# Indices 1 2 3 4 5 6 
#
# 1 273.7228 83.4838 33.8142 0.0000 0.0000 0.0000
# 2 83.4838 71.8493 16.9832 0.0000 0.0000 0.0000
# 3 33.8142 16.9832 49.5448 0.0000 0.0000 0.0000
# 4 0.0000 0.0000 0.0000 18.8468 0.0000 0.0000
# 5 0.0000 0.0000 0.0000 0.0000 34.1961 0.0000
# 6 0.0000 0.0000 0.0000 0.0000 0.0000 44.9869
#
#
#
# Elastic Compliance Matrix: (Units=1/GPa)
#
#
# Indices 1 2 3 4 5 6 
#
# 1 0.005802 -0.006317 -0.001794 0.000000 0.000000 0.000000
# 2 -0.006317 0.022023 -0.003238 0.000000 0.000000 0.000000
# 3 -0.001794 -0.003238 0.022518 0.000000 0.000000 0.000000
# 4 0.000000 0.000000 0.000000 0.053060 0.000000 0.000000
# 5 0.000000 0.000000 0.000000 0.000000 0.029243 0.000000
# 6 0.000000 0.000000 0.000000 0.000000 0.000000 0.022229
#
#
# Mechanical properties :
#
#
# Convention : Reuss Voigt Hill
#
# Bulk Modulus (GPa) = 36.17307 73.74214 54.95761
# Shear Modulus (GPa) = 26.76837 36.99498 31.88168
#
# Velocity S-wave (km/s) = 3.22231 3.78815 3.51663
# Velocity P-wave (km/s) = 5.27974 6.90923 6.14870
#
# Compressibility (1/GPa) = 0.02764487
#
# Stress axis : x y z
#
# Youngs Moduli (GPa) = 172.36567 45.40654 44.40843
#
# Poissons Ratio (x) = 0.28683 0.07968
# Poissons Ratio (y) = 1.08883 0.14379
# Poissons Ratio (z) = 0.30926 0.14702
#
# Static dielectric constant tensor:
#      x y z
#    x 5.211770 0.000000 0.000000 
#    y 0.000000 4.482560 0.000000 
#    z 0.000000 0.000000 5.238520 
# 
# 
# High freq. dielectric constant tensor:
#      x y z
#    x 2.050940 0.000000 0.000000 
#    y 0.000000 2.003910 0.000000 
#    z 0.000000 0.000000 2.054510 
# 
# From -- ./inp_files/58877.got.cif
#   From: 2010.03.12/outbox.cif.g09.slc.cpg/sg63_30_cif.got.tgz:58877.got - 2010.04.10 19:34:48.
