data_PCOD8260210
_publ_section_title
;
Structure prediction by ZEFSAII (Michael W. Deem and Ramdas Pophale) SiO2 
 PCOD8260210
Probable space group: C M C M
;
_chemical_formula_sum "Si O2"
_cell_formula_units_Z 72
_cell_length_a 27.364411
_cell_length_b 5.689851
_cell_length_c 22.486279
_cell_angle_alpha 90.000000
_cell_angle_beta 90.000000
_cell_angle_gamma 90.000000
_cell_volume 3501.100627
_symmetry_space_group_name_H-M "C M C M"
_symmetry_group_IT_number 63
_symmetry_cell_setting 'orthorhombic'
loop_
_space_group_symop_operation_xyz
x,y,z
-x,-y,1/2+z
x,-y,-z
-x,y,1/2-z
-x,-y,-z
x,y,1/2-z
-x,y,z
x,-y,1/2+z
1/2+x,1/2+y,z
1/2-x,1/2-y,1/2+z
1/2+x,1/2-y,-z
1/2-x,1/2+y,1/2-z
1/2-x,1/2-y,-z
1/2+x,1/2+y,1/2-z
1/2-x,1/2+y,z
1/2+x,1/2-y,1/2+z
loop_
_atom_site_type_symbol
_atom_site_label
_atom_site_fract_x
_atom_site_fract_y
_atom_site_fract_z
Si Si1 0.445703 0.975954 0.683082
Si Si2 0.445837 0.369382 0.422532
Si Si3 0.399022 0.000000 0.500000
Si Si4 0.222476 0.164101 0.181695
Si Si5 0.627664 0.746911 0.109596
O O1 0.434379 0.893227 0.750000
O O2 0.500000 0.090661 0.678331
O O3 0.404963 0.162295 0.664207
O O4 0.442483 0.750705 0.641708
O O5 0.500000 0.480373 0.430349
O O6 0.402302 0.552180 0.425393
O O7 0.436566 0.199008 0.478088
O O8 0.364185 0.936731 0.443427
O O9 0.204702 0.162424 0.250000
O O10 0.248745 0.417729 0.169618
O O11 0.177882 0.151697 0.135946
#
# Coordination Sequence:
#
# PCOD8260210 Si02
#       5
#    16  16   8  16  16
#     4   9  19  34  54  87 125 157 196 249 311 377
#     4  10  21  37  59  87 125 169 210 251 306 376
#     4  10  23  38  58  88 126 160 212 258 315 366
#     4  10  24  45  70  98 127 163 211 267 329 393
#     4  11  22  38  62  87 120 162 208 261 314 379
#
# _framework density 20.564962999999999
#
# number of rings (size 3 to 8) (size 9 to 14) (size 15 to 20)
#    0.000    2.000    0.000    2.333    6.222    5.333 
#    0.000    3.333    0.000    0.000    0.000    0.000 
#    0.000    0.000    0.000    0.000    0.000    0.000 
#
# Total GULP energy -446027.911675 kJ/mol
# GULP energy per Si atom -12389.664213 kJ/mol
# Density = 2.051816 g / cm^3
# Si number density = 20.564963 Si / 1000 Ang^3
#
#
#
# Elastic Constant Matrix: (Units=GPa)
#
#
# Indices 1 2 3 4 5 6 
#
# 1 106.5196 47.4572 48.6823 0.0000 0.0000 0.0000
# 2 47.4572 91.6478 26.7975 0.0000 0.0000 0.0000
# 3 48.6823 26.7975 134.4593 0.0000 0.0000 0.0000
# 4 0.0000 0.0000 0.0000 24.2769 0.0000 0.0000
# 5 0.0000 0.0000 0.0000 0.0000 22.1244 0.0000
# 6 0.0000 0.0000 0.0000 0.0000 0.0000 36.3836
#
#
#
# Elastic Compliance Matrix: (Units=1/GPa)
#
#
# Indices 1 2 3 4 5 6 
#
# 1 0.013816 -0.006044 -0.003798 0.000000 0.000000 0.000000
# 2 -0.006044 0.014230 -0.000648 0.000000 0.000000 0.000000
# 3 -0.003798 -0.000648 0.008941 0.000000 0.000000 0.000000
# 4 0.000000 0.000000 0.000000 0.041191 0.000000 0.000000
# 5 0.000000 0.000000 0.000000 0.000000 0.045199 0.000000
# 6 0.000000 0.000000 0.000000 0.000000 0.000000 0.027485
#
#
# Mechanical properties :
#
#
# Convention : Reuss Voigt Hill
#
# Bulk Modulus (GPa) = 62.46491 64.27786 63.37138
# Shear Modulus (GPa) = 28.22006 30.53631 29.37818
#
# Velocity S-wave (km/s) = 3.70839 3.85758 3.78372
# Velocity P-wave (km/s) = 6.98403 7.15298 7.06901
#
# Compressibility (1/GPa) = 0.01600899
#
# Stress axis : x y z
#
# Youngs Moduli (GPa) = 72.37783 70.27180 111.84012
#
# Poissons Ratio (x) = 0.42472 0.42475
# Poissons Ratio (y) = 0.43745 0.07245
# Poissons Ratio (z) = 0.27488 0.04552
#
# Static dielectric constant tensor:
#      x y z
#    x 3.474450 0.000000 0.000000 
#    y 0.000000 3.861910 0.000000 
#    z 0.000000 0.000000 3.899220 
# 
# 
# High freq. dielectric constant tensor:
#      x y z
#    x 1.778300 0.000000 0.000000 
#    y 0.000000 1.801870 0.000000 
#    z 0.000000 0.000000 1.825490 
# 
# From -- ./inp_files/65276.got.cif
#   From: 2010.03.12/outbox.cif.g09.slc.cpg/sg63_33_cif.got.tgz:65276.got - 2010.04.10 19:34:48.
