data_PCOD8260723
_publ_section_title
;
Structure prediction by ZEFSAII (Michael W. Deem and Ramdas Pophale) SiO2 
 PCOD8260723
Probable space group: C M C M
;
_chemical_formula_sum "Si O2"
_cell_formula_units_Z 64
_cell_length_a 35.936486
_cell_length_b 4.994543
_cell_length_c 16.337143
_cell_angle_alpha 90.000000
_cell_angle_beta 90.000000
_cell_angle_gamma 90.000000
_cell_volume 2932.293751
_symmetry_space_group_name_H-M "C M C M"
_symmetry_group_IT_number 63
_symmetry_cell_setting 'orthorhombic'
loop_
_space_group_symop_operation_xyz
x,y,z
-x,-y,1/2+z
x,-y,-z
-x,y,1/2-z
-x,-y,-z
x,y,1/2-z
-x,y,z
x,-y,1/2+z
1/2+x,1/2+y,z
1/2-x,1/2-y,1/2+z
1/2+x,1/2-y,-z
1/2-x,1/2+y,1/2-z
1/2-x,1/2-y,-z
1/2+x,1/2+y,1/2-z
1/2-x,1/2+y,z
1/2+x,1/2-y,1/2+z
loop_
_atom_site_type_symbol
_atom_site_label
_atom_site_fract_x
_atom_site_fract_y
_atom_site_fract_z
Si Si1 0.957201 0.901491 0.091604
Si Si2 0.774260 0.210934 0.155898
Si Si3 0.082721 0.609073 0.656434
Si Si4 0.346608 0.745348 0.445187
O O1 0.933736 0.632760 0.103407
O O2 0.000000 0.833211 0.109587
O O3 0.944214 0.134471 0.152645
O O4 0.950595 0.000000 0.000000
O O5 0.786881 0.184078 0.250000
O O6 0.758598 0.503658 0.135864
O O7 0.809508 0.148077 0.100001
O O8 0.086631 0.516254 0.750000
O O9 0.122999 0.683417 0.622487
O O10 0.361668 0.500000 0.500000
O O11 0.337355 0.000000 0.500000
#
# Coordination Sequence:
#
# PCOD8260723 Si02
#       4
#    16  16  16  16
#     4  11  24  43  67  94 127 166 208 259 319 379
#     4  10  22  41  64  91 125 162 202 252 311 371
#     4  12  25  42  65  93 128 167 212 262 314 375
#     4  12  25  41  64  91 125 165 209 259 309 370
#
# _framework density 21.825918000000001
#
# number of rings (size 3 to 8) (size 9 to 14) (size 15 to 20)
#    0.000    0.750    0.000    8.250    0.000    8.000 
#    0.000    7.500    0.000    0.000    0.000    0.000 
#    0.000    0.000    0.000    0.000    0.000    0.000 
#
# Total GULP energy -397110.891849 kJ/mol
# GULP energy per Si atom -12409.715370 kJ/mol
# Density = 2.177624 g / cm^3
# Si number density = 21.825918 Si / 1000 Ang^3
#
#
#
# Elastic Constant Matrix: (Units=GPa)
#
#
# Indices 1 2 3 4 5 6 
#
# 1 111.2012 27.2438 56.5369 0.0000 0.0000 0.0000
# 2 27.2438 117.7111 19.2946 0.0000 0.0000 0.0000
# 3 56.5369 19.2946 90.5725 0.0000 0.0000 0.0000
# 4 0.0000 0.0000 0.0000 31.3628 0.0000 0.0000
# 5 0.0000 0.0000 0.0000 0.0000 21.7506 0.0000
# 6 0.0000 0.0000 0.0000 0.0000 0.0000 27.3109
#
#
#
# Elastic Compliance Matrix: (Units=1/GPa)
#
#
# Indices 1 2 3 4 5 6 
#
# 1 0.013536 -0.001811 -0.008064 0.000000 0.000000 0.000000
# 2 -0.001811 0.009045 -0.000796 0.000000 0.000000 0.000000
# 3 -0.008064 -0.000796 0.016244 0.000000 0.000000 0.000000
# 4 0.000000 0.000000 0.000000 0.031885 0.000000 0.000000
# 5 0.000000 0.000000 0.000000 0.000000 0.045976 0.000000
# 6 0.000000 0.000000 0.000000 0.000000 0.000000 0.036615
#
#
# Mechanical properties :
#
#
# Convention : Reuss Voigt Hill
#
# Bulk Modulus (GPa) = 57.19854 58.40394 57.80124
# Shear Modulus (GPa) = 27.70526 30.51217 29.10872
#
# Velocity S-wave (km/s) = 3.56669 3.74301 3.65592
# Velocity P-wave (km/s) = 6.57460 6.74517 6.66043
#
# Compressibility (1/GPa) = 0.01748297
#
# Stress axis : x y z
#
# Youngs Moduli (GPa) = 73.87612 110.55726 61.56117
#
# Poissons Ratio (x) = 0.20023 0.49641
# Poissons Ratio (y) = 0.13380 0.04902
# Poissons Ratio (z) = 0.59571 0.08804
#
# Static dielectric constant tensor:
#      x y z
#    x 3.863440 0.000000 0.000000 
#    y 0.000000 4.094500 0.000000 
#    z 0.000000 0.000000 3.910400 
# 
# 
# High freq. dielectric constant tensor:
#      x y z
#    x 1.866430 0.000000 0.000000 
#    y 0.000000 1.872550 0.000000 
#    z 0.000000 0.000000 1.863140 
# 
# From -- ./inp_files/49307.got.cif
#   From: 2010.03.12/outbox.cif.g09.slc.cpg/sg63_25_cif.got.tgz:49307.got - 2010.04.10 19:34:48.
