data_PCOD8260433
_publ_section_title
;
Structure prediction by ZEFSAII (Michael W. Deem and Ramdas Pophale) SiO2 
 PCOD8260433
Probable space group: C M C M
;
_chemical_formula_sum "Si O2"
_cell_formula_units_Z 96
_cell_length_a 18.211054
_cell_length_b 14.716944
_cell_length_c 18.255452
_cell_angle_alpha 90.000000
_cell_angle_beta 90.000000
_cell_angle_gamma 90.000000
_cell_volume 4892.663076
_symmetry_space_group_name_H-M "C M C M"
_symmetry_group_IT_number 63
_symmetry_cell_setting 'orthorhombic'
loop_
_space_group_symop_operation_xyz
x,y,z
-x,-y,1/2+z
x,-y,-z
-x,y,1/2-z
-x,-y,-z
x,y,1/2-z
-x,y,z
x,-y,1/2+z
1/2+x,1/2+y,z
1/2-x,1/2-y,1/2+z
1/2+x,1/2-y,-z
1/2-x,1/2+y,1/2-z
1/2-x,1/2-y,-z
1/2+x,1/2+y,1/2-z
1/2-x,1/2+y,z
1/2+x,1/2-y,1/2+z
loop_
_atom_site_type_symbol
_atom_site_label
_atom_site_fract_x
_atom_site_fract_y
_atom_site_fract_z
Si Si1 0.824238 0.554897 0.073072
Si Si2 0.084410 0.776785 0.890489
Si Si3 0.179372 0.937477 0.665495
Si Si4 0.913659 0.416220 0.333854
Si Si5 0.915581 0.265260 0.553126
Si Si6 0.915765 0.110980 0.834647
O O1 0.749334 0.574854 0.114748
O O2 0.878255 0.499868 0.124812
O O3 0.862617 0.649016 0.052986
O O4 0.806069 0.500000 0.000000
O O5 0.127755 0.851268 0.845163
O O6 0.114849 0.677920 0.867962
O O7 0.000000 0.785862 0.866567
O O8 0.094634 0.789688 0.977431
O O9 0.203583 0.943300 0.750000
O O10 0.135259 0.027458 0.641977
O O11 0.889054 0.420510 0.250000
O O12 0.000000 0.425733 0.343947
O O13 0.892409 0.198663 0.618738
O O14 0.000000 0.298063 0.561184
O O15 0.904876 0.136944 0.750000
O O16 0.000000 0.083718 0.851202
#
# Coordination Sequence:
#
# PCOD8260433 Si02
#       6
#    16  16  16  16  16  16
#     4  12  25  40  60  86 126 166 201 242 299 363
#     4  10  21  39  66  94 119 153 200 255 307 356
#     4  11  25  41  60  89 125 162 201 247 301 361
#     4  10  21  39  64  91 118 154 203 253 299 352
#     4  10  22  40  65  93 120 155 204 255 302 356
#     4   9  20  40  64  89 120 159 202 251 303 356
#
# _framework density 19.621216
#
# number of rings (size 3 to 8) (size 9 to 14) (size 15 to 20)
#    0.000    1.667    1.667    2.000    2.333    5.667 
#    0.000    5.833    0.000    0.000    0.000    0.000 
#    0.000    0.000    0.000    0.000    0.000    0.000 
#
# Total GULP energy -595449.032978 kJ/mol
# GULP energy per Si atom -12405.188187 kJ/mol
# Density = 1.957656 g / cm^3
# Si number density = 19.621216 Si / 1000 Ang^3
#
#
#
# Elastic Constant Matrix: (Units=GPa)
#
#
# Indices 1 2 3 4 5 6 
#
# 1 69.9993 39.6950 37.0214 0.0000 0.0000 0.0000
# 2 39.6950 82.2149 19.7680 0.0000 0.0000 0.0000
# 3 37.0214 19.7680 73.2033 0.0000 0.0000 0.0000
# 4 0.0000 0.0000 0.0000 38.7500 0.0000 0.0000
# 5 0.0000 0.0000 0.0000 0.0000 26.7665 0.0000
# 6 0.0000 0.0000 0.0000 0.0000 0.0000 35.8842
#
#
#
# Elastic Compliance Matrix: (Units=1/GPa)
#
#
# Indices 1 2 3 4 5 6 
#
# 1 0.025123 -0.009705 -0.010085 0.000000 0.000000 0.000000
# 2 -0.009705 0.016757 0.000383 0.000000 0.000000 0.000000
# 3 -0.010085 0.000383 0.018657 0.000000 0.000000 0.000000
# 4 0.000000 0.000000 0.000000 0.025806 0.000000 0.000000
# 5 0.000000 0.000000 0.000000 0.000000 0.037360 0.000000
# 6 0.000000 0.000000 0.000000 0.000000 0.000000 0.027867
#
#
# Mechanical properties :
#
#
# Convention : Reuss Voigt Hill
#
# Bulk Modulus (GPa) = 46.03247 46.48736 46.25991
# Shear Modulus (GPa) = 25.30029 28.87569 27.08799
#
# Velocity S-wave (km/s) = 3.59477 3.84038 3.71960
# Velocity P-wave (km/s) = 6.38289 6.58851 6.48652
#
# Compressibility (1/GPa) = 0.02172380
#
# Stress axis : x y z
#
# Youngs Moduli (GPa) = 39.80402 59.67670 53.59820
#
# Poissons Ratio (x) = 0.57917 0.54053
# Poissons Ratio (y) = 0.38630 -0.02053
# Poissons Ratio (z) = 0.40142 -0.02286
#
# Static dielectric constant tensor:
#      x y z
#    x 3.577300 0.000000 0.000000 
#    y 0.000000 3.569210 0.000000 
#    z 0.000000 0.000000 3.731560 
# 
# 
# High freq. dielectric constant tensor:
#      x y z
#    x 1.759530 0.000000 0.000000 
#    y 0.000000 1.768010 0.000000 
#    z 0.000000 0.000000 1.780570 
# 
# From -- ./inp_files/54205.got.cif
#   From: 2010.03.12/outbox.cif.g09.slc.cpg/sg63_28_cif.got.tgz:54205.got - 2010.04.10 19:34:48.
