data_PCOD8260080
_publ_section_title
;
Structure prediction by ZEFSAII (Michael W. Deem and Ramdas Pophale) SiO2 
 PCOD8260080
Probable space group: C M C M
;
_chemical_formula_sum "Si O2"
_cell_formula_units_Z 88
_cell_length_a 24.708515
_cell_length_b 9.336413
_cell_length_c 20.270908
_cell_angle_alpha 90.000000
_cell_angle_beta 90.000000
_cell_angle_gamma 90.000000
_cell_volume 4676.273482
_symmetry_space_group_name_H-M "C M C M"
_symmetry_group_IT_number 63
_symmetry_cell_setting 'orthorhombic'
loop_
_space_group_symop_operation_xyz
x,y,z
-x,-y,1/2+z
x,-y,-z
-x,y,1/2-z
-x,-y,-z
x,y,1/2-z
-x,y,z
x,-y,1/2+z
1/2+x,1/2+y,z
1/2-x,1/2-y,1/2+z
1/2+x,1/2-y,-z
1/2-x,1/2+y,1/2-z
1/2-x,1/2-y,-z
1/2+x,1/2+y,1/2-z
1/2-x,1/2+y,z
1/2+x,1/2-y,1/2+z
loop_
_atom_site_type_symbol
_atom_site_label
_atom_site_fract_x
_atom_site_fract_y
_atom_site_fract_z
Si Si1 0.500000 0.606893 0.322287
Si Si2 0.500000 0.165335 0.512559
Si Si3 0.417060 0.184728 0.876820
Si Si4 0.500000 0.301803 0.371270
Si Si5 0.301490 0.847160 0.578939
Si Si6 0.399820 0.130145 0.173876
Si Si7 0.303086 0.180053 0.928861
O O1 0.500000 0.538601 0.250000
O O2 0.553675 0.704756 0.328241
O O3 0.500000 0.474556 0.372730
O O4 0.554070 0.200907 0.552663
O O5 0.500000 0.256153 0.446773
O O6 0.500000 0.000000 0.500000
O O7 0.354536 0.226105 0.885361
O O8 0.422432 0.023184 0.849924
O O9 0.552640 0.244817 0.333462
O O10 0.349886 0.814188 0.629505
O O11 0.316046 0.788773 0.505827
O O12 0.246692 0.768648 0.601154
O O13 0.289110 0.014481 0.579348
O O14 0.381259 0.120815 0.250000
#
# Coordination Sequence:
#
# PCOD8260080 Si02
#       7
#     8   8  16   8  16  16  16
#     4  11  24  40  52  79 119 153 185 229 288 352
#     4  11  19  35  60  90 114 142 192 250 287 333
#     4  10  21  36  60  82 110 152 190 235 287 343
#     4  12  23  36  58  83 116 150 185 235 296 338
#     4   9  19  34  55  80 107 140 179 235 281 336
#     4  11  21  36  56  81 108 150 198 230 273 350
#     4   9  18  35  57  80 106 139 185 232 292 331
#
# _framework density 18.818404000000001
#
# number of rings (size 3 to 8) (size 9 to 14) (size 15 to 20)
#    0.000    1.818    1.818    3.000    2.545    2.909 
#    0.000    8.182    0.000    0.000    0.000    0.000 
#    0.000    0.000    0.000    0.000    0.000    0.000 
#
# Total GULP energy -545629.859715 kJ/mol
# GULP energy per Si atom -12400.678630 kJ/mol
# Density = 1.877557 g / cm^3
# Si number density = 18.818404 Si / 1000 Ang^3
#
#
#
# Elastic Constant Matrix: (Units=GPa)
#
#
# Indices 1 2 3 4 5 6 
#
# 1 148.7303 60.0860 40.5874 0.0000 0.0000 0.0000
# 2 60.0860 81.5509 27.8915 0.0000 0.0000 0.0000
# 3 40.5874 27.8915 95.5933 0.0000 0.0000 0.0000
# 4 0.0000 0.0000 0.0000 22.5131 0.0000 0.0000
# 5 0.0000 0.0000 0.0000 0.0000 24.7192 0.0000
# 6 0.0000 0.0000 0.0000 0.0000 0.0000 37.0255
#
#
#
# Elastic Compliance Matrix: (Units=1/GPa)
#
#
# Indices 1 2 3 4 5 6 
#
# 1 0.010021 -0.006585 -0.002333 0.000000 0.000000 0.000000
# 2 -0.006585 0.017949 -0.002441 0.000000 0.000000 0.000000
# 3 -0.002333 -0.002441 0.012164 0.000000 0.000000 0.000000
# 4 0.000000 0.000000 0.000000 0.044419 0.000000 0.000000
# 5 0.000000 0.000000 0.000000 0.000000 0.040454 0.000000
# 6 0.000000 0.000000 0.000000 0.000000 0.000000 0.027008
#
#
# Mechanical properties :
#
#
# Convention : Reuss Voigt Hill
#
# Bulk Modulus (GPa) = 57.42301 64.77827 61.10064
# Shear Modulus (GPa) = 27.69487 30.00552 28.85020
#
# Velocity S-wave (km/s) = 3.84042 3.99742 3.91971
# Velocity P-wave (km/s) = 7.08842 7.47017 7.28180
#
# Compressibility (1/GPa) = 0.01741462
#
# Stress axis : x y z
#
# Youngs Moduli (GPa) = 99.79390 55.71334 82.21054
#
# Poissons Ratio (x) = 0.36688 0.19182
# Poissons Ratio (y) = 0.65716 0.20068
# Poissons Ratio (z) = 0.23284 0.13600
#
# Static dielectric constant tensor:
#      x y z
#    x 3.511780 0.000000 0.000000 
#    y 0.000000 3.290370 0.000000 
#    z 0.000000 0.000000 3.369880 
# 
# 
# High freq. dielectric constant tensor:
#      x y z
#    x 1.735290 0.000000 0.000000 
#    y 0.000000 1.722850 0.000000 
#    z 0.000000 0.000000 1.725620 
# 
# From -- ./inp_files/57399.got.cif
#   From: 2010.03.12/outbox.cif.g09.slc.cpg/sg63_29_cif.got.tgz:57399.got - 2010.04.10 19:34:48.
