data_PCOD8260325
_publ_section_title
;
Structure prediction by ZEFSAII (Michael W. Deem and Ramdas Pophale) SiO2 
 PCOD8260325
Probable space group: C M C M
;
_chemical_formula_sum "Si O2"
_cell_formula_units_Z 80
_cell_length_a 25.095553
_cell_length_b 18.371098
_cell_length_c 8.720110
_cell_angle_alpha 90.000000
_cell_angle_beta 90.000000
_cell_angle_gamma 90.000000
_cell_volume 4020.257284
_symmetry_space_group_name_H-M "C M C M"
_symmetry_group_IT_number 63
_symmetry_cell_setting 'orthorhombic'
loop_
_space_group_symop_operation_xyz
x,y,z
-x,-y,1/2+z
x,-y,-z
-x,y,1/2-z
-x,-y,-z
x,y,1/2-z
-x,y,z
x,-y,1/2+z
1/2+x,1/2+y,z
1/2-x,1/2-y,1/2+z
1/2+x,1/2-y,-z
1/2-x,1/2+y,1/2-z
1/2-x,1/2-y,-z
1/2+x,1/2+y,1/2-z
1/2-x,1/2+y,z
1/2+x,1/2-y,1/2+z
loop_
_atom_site_type_symbol
_atom_site_label
_atom_site_fract_x
_atom_site_fract_y
_atom_site_fract_z
Si Si1 0.939179 0.687596 0.928454
Si Si2 0.846253 0.922296 0.569229
Si Si3 0.347998 0.920569 0.069525
Si Si4 0.746189 0.670480 0.932086
Si Si5 0.938444 0.840274 0.427919
O O1 0.930464 0.705998 0.750000
O O2 0.901213 0.622109 0.982565
O O3 0.000000 0.664172 0.962336
O O4 0.922873 0.758730 0.023388
O O5 0.838788 0.925141 0.750000
O O6 0.807627 0.863355 0.495814
O O7 0.906212 0.899392 0.526063
O O8 0.831792 0.000000 0.500000
O O9 0.346071 0.928958 0.250000
O O10 0.296384 0.876966 0.010348
O O11 0.348950 0.000000 0.000000
O O12 0.744195 0.674675 0.750000
O O13 0.750000 0.750000 0.000000
O O14 0.924790 0.850460 0.250000
O O15 0.000000 0.855213 0.463828
#
# Coordination Sequence:
#
# PCOD8260325 Si02
#       5
#    16  16  16  16  16
#     4   9  18  35  58  84 116 153 193 237 285 339
#     4  12  25  41  61  86 118 155 195 241 295 351
#     4  10  22  37  55  82 115 151 190 234 286 341
#     4  11  23  40  62  88 117 151 195 243 293 351
#     4  10  21  38  61  89 118 150 192 239 288 347
#
# _framework density 19.899224
#
# number of rings (size 3 to 8) (size 9 to 14) (size 15 to 20)
#    0.000    1.600    0.000    4.800    0.000    7.600 
#    0.000    0.000    0.000    0.000    0.000    0.000 
#    0.000    0.000    0.000    0.000    0.000    0.000 
#
# Total GULP energy -496227.898425 kJ/mol
# GULP energy per Si atom -12405.697461 kJ/mol
# Density = 1.985393 g / cm^3
# Si number density = 19.899224 Si / 1000 Ang^3
#
#
#
# Elastic Constant Matrix: (Units=GPa)
#
#
# Indices 1 2 3 4 5 6 
#
# 1 96.4435 51.6074 34.4986 0.0000 0.0000 0.0000
# 2 51.6074 130.9121 43.2145 0.0000 0.0000 0.0000
# 3 34.4986 43.2145 75.9309 0.0000 0.0000 0.0000
# 4 0.0000 0.0000 0.0000 41.8699 0.0000 0.0000
# 5 0.0000 0.0000 0.0000 0.0000 24.9229 0.0000
# 6 0.0000 0.0000 0.0000 0.0000 0.0000 35.5280
#
#
#
# Elastic Compliance Matrix: (Units=1/GPa)
#
#
# Indices 1 2 3 4 5 6 
#
# 1 0.014054 -0.004227 -0.003980 0.000000 0.000000 0.000000
# 2 -0.004227 0.010677 -0.004156 0.000000 0.000000 0.000000
# 3 -0.003980 -0.004156 0.017344 0.000000 0.000000 0.000000
# 4 0.000000 0.000000 0.000000 0.023884 0.000000 0.000000
# 5 0.000000 0.000000 0.000000 0.000000 0.040124 0.000000
# 6 0.000000 0.000000 0.000000 0.000000 0.000000 0.028147
#
#
# Mechanical properties :
#
#
# Convention : Reuss Voigt Hill
#
# Bulk Modulus (GPa) = 57.63977 62.43638 60.03807
# Shear Modulus (GPa) = 30.35144 32.06190 31.20667
#
# Velocity S-wave (km/s) = 3.90969 4.01835 3.96439
# Velocity P-wave (km/s) = 7.02920 7.27832 7.15484
#
# Compressibility (1/GPa) = 0.01734913
#
# Stress axis : x y z
#
# Youngs Moduli (GPa) = 71.15394 93.66057 57.65837
#
# Poissons Ratio (x) = 0.39586 0.22947
# Poissons Ratio (y) = 0.30073 0.23964
# Poissons Ratio (z) = 0.28319 0.38927
#
# Static dielectric constant tensor:
#      x y z
#    x 3.836780 0.000000 0.000000 
#    y 0.000000 3.714150 0.000000 
#    z 0.000000 0.000000 3.631170 
# 
# 
# High freq. dielectric constant tensor:
#      x y z
#    x 1.791730 0.000000 0.000000 
#    y 0.000000 1.780900 0.000000 
#    z 0.000000 0.000000 1.778520 
# 
# From -- ./inp_files/12009.got.cif
#   From: 2010.03.12/outbox.cif.g09.slc.cpg/sg63_7_cif.got.tgz:12009.got - 2010.04.10 19:34:48.
