data_PCOD8260905
_publ_section_title
;
Structure prediction by ZEFSAII (Michael W. Deem and Ramdas Pophale) SiO2 
 PCOD8260905
Probable space group: C M C M
;
_chemical_formula_sum "Si O2"
_cell_formula_units_Z 80
_cell_length_a 18.658557
_cell_length_b 22.855059
_cell_length_c 11.183867
_cell_angle_alpha 90.000000
_cell_angle_beta 90.000000
_cell_angle_gamma 90.000000
_cell_volume 4769.275321
_symmetry_space_group_name_H-M "C M C M"
_symmetry_group_IT_number 63
_symmetry_cell_setting 'orthorhombic'
loop_
_space_group_symop_operation_xyz
x,y,z
-x,-y,1/2+z
x,-y,-z
-x,y,1/2-z
-x,-y,-z
x,y,1/2-z
-x,y,z
x,-y,1/2+z
1/2+x,1/2+y,z
1/2-x,1/2-y,1/2+z
1/2+x,1/2-y,-z
1/2-x,1/2+y,1/2-z
1/2-x,1/2-y,-z
1/2+x,1/2+y,1/2-z
1/2-x,1/2+y,z
1/2+x,1/2-y,1/2+z
loop_
_atom_site_type_symbol
_atom_site_label
_atom_site_fract_x
_atom_site_fract_y
_atom_site_fract_z
Si Si1 0.357612 0.266349 0.992860
Si Si2 0.766905 0.665768 0.392853
Si Si3 0.077934 0.727692 0.750000
Si Si4 0.921330 0.594571 0.750000
Si Si5 0.500000 0.881703 0.890005
Si Si6 0.000000 0.752319 0.391182
Si Si7 0.859599 0.567407 0.501540
O O1 0.305747 0.321392 0.967805
O O2 0.373797 0.240416 0.863797
O O3 0.322624 0.217705 0.079132
O O4 0.430548 0.286277 0.058294
O O5 0.754432 0.662062 0.250000
O O6 0.795457 0.604219 0.442471
O O7 0.057937 0.661051 0.750000
O O8 0.000000 0.761205 0.750000
O O9 0.871325 0.581003 0.639023
O O10 0.000000 0.561439 0.750000
O O11 0.500000 0.875590 0.750000
O O12 0.500000 0.815052 0.941845
O O13 0.568342 0.918491 0.929495
O O14 0.000000 0.754928 0.250000
O O15 0.837981 0.500000 0.500000
#
# Coordination Sequence:
#
# PCOD8260905 Si02
#       7
#    16  16   8   8   8   8  16
#     4  11  21  35  56  81 106 143 180 220 277 331
#     4  11  23  38  53  77 112 147 184 227 275 329
#     4  11  18  34  55  76 110 136 173 229 270 323
#     4  11  22  36  49  74 110 142 189 235 266 313
#     4  11  21  36  54  78 112 150 192 228 264 318
#     4  11  20  36  58  84 115 144 177 224 274 331
#     4  12  25  37  53  75 106 152 196 232 269 316
#
# _framework density 16.774037
#
# number of rings (size 3 to 8) (size 9 to 14) (size 15 to 20)
#    0.000    0.800    7.000    1.500    2.800    0.000 
#    1.800    0.000    0.000    0.000    0.000    0.700 
#    0.000    0.000    0.000    0.000    0.000    0.000 
#
# Total GULP energy -495871.977642 kJ/mol
# GULP energy per Si atom -12396.799441 kJ/mol
# Density = 1.673586 g / cm^3
# Si number density = 16.774037 Si / 1000 Ang^3
#
#
#
# Elastic Constant Matrix: (Units=GPa)
#
#
# Indices 1 2 3 4 5 6 
#
# 1 119.1216 55.4344 39.4246 0.0000 0.0000 0.0000
# 2 55.4344 86.1319 30.3221 0.0000 0.0000 0.0000
# 3 39.4246 30.3221 103.5154 0.0000 0.0000 0.0000
# 4 0.0000 0.0000 0.0000 20.6815 0.0000 0.0000
# 5 0.0000 0.0000 0.0000 0.0000 29.6390 0.0000
# 6 0.0000 0.0000 0.0000 0.0000 0.0000 23.4090
#
#
#
# Elastic Compliance Matrix: (Units=1/GPa)
#
#
# Indices 1 2 3 4 5 6 
#
# 1 0.012630 -0.007175 -0.002709 0.000000 0.000000 0.000000
# 2 -0.007175 0.017021 -0.002253 0.000000 0.000000 0.000000
# 3 -0.002709 -0.002253 0.011352 0.000000 0.000000 0.000000
# 4 0.000000 0.000000 0.000000 0.048352 0.000000 0.000000
# 5 0.000000 0.000000 0.000000 0.000000 0.033739 0.000000
# 6 0.000000 0.000000 0.000000 0.000000 0.000000 0.042719
#
#
# Mechanical properties :
#
#
# Convention : Reuss Voigt Hill
#
# Bulk Modulus (GPa) = 59.77444 62.12568 60.95006
# Shear Modulus (GPa) = 25.55393 26.98508 26.26950
#
# Velocity S-wave (km/s) = 3.90734 4.01526 3.96167
# Velocity P-wave (km/s) = 7.48791 7.65596 7.57240
#
# Compressibility (1/GPa) = 0.01672956
#
# Stress axis : x y z
#
# Youngs Moduli (GPa) = 79.17456 58.74973 88.09053
#
# Poissons Ratio (x) = 0.42155 0.23859
# Poissons Ratio (y) = 0.56811 0.19848
# Poissons Ratio (z) = 0.21445 0.13237
#
# Static dielectric constant tensor:
#      x y z
#    x 3.270160 0.000000 0.000000 
#    y 0.000000 2.993990 0.000000 
#    z 0.000000 0.000000 3.370490 
# 
# 
# High freq. dielectric constant tensor:
#      x y z
#    x 1.642600 0.000000 0.000000 
#    y 0.000000 1.600340 0.000000 
#    z 0.000000 0.000000 1.672260 
# 
# From -- ./inp_files/21079.got.cif
#   From: 2010.03.12/outbox.cif.g09.slc.cpg/sg63_11_cif.got.tgz:21079.got - 2010.04.10 19:34:48.
