data_PCOD8260454
_publ_section_title
;
Structure prediction by ZEFSAII (Michael W. Deem and Ramdas Pophale) SiO2 
 PCOD8260454
Probable space group: C M C M
;
_chemical_formula_sum "Si O2"
_cell_formula_units_Z 64
_cell_length_a 7.787328
_cell_length_b 28.093242
_cell_length_c 13.860382
_cell_angle_alpha 90.000000
_cell_angle_beta 90.000000
_cell_angle_gamma 90.000000
_cell_volume 3032.253651
_symmetry_space_group_name_H-M "C M C M"
_symmetry_group_IT_number 63
_symmetry_cell_setting 'orthorhombic'
loop_
_space_group_symop_operation_xyz
x,y,z
-x,-y,1/2+z
x,-y,-z
-x,y,1/2-z
-x,-y,-z
x,y,1/2-z
-x,y,z
x,-y,1/2+z
1/2+x,1/2+y,z
1/2-x,1/2-y,1/2+z
1/2+x,1/2-y,-z
1/2-x,1/2+y,1/2-z
1/2-x,1/2-y,-z
1/2+x,1/2+y,1/2-z
1/2-x,1/2+y,z
1/2+x,1/2-y,1/2+z
loop_
_atom_site_type_symbol
_atom_site_label
_atom_site_fract_x
_atom_site_fract_y
_atom_site_fract_z
Si Si1 0.000000 0.555251 0.980252
Si Si2 0.809914 0.696223 0.636408
Si Si3 0.000000 0.633220 0.365608
Si Si4 0.806287 0.800539 0.864260
Si Si5 0.690595 0.596922 0.862983
O O1 0.828862 0.566648 0.920611
O O2 0.000000 0.500000 0.000000
O O3 0.000000 0.582254 0.082858
O O4 0.811584 0.701244 0.750000
O O5 0.751711 0.747940 0.596179
O O6 0.689669 0.652608 0.603786
O O7 0.000000 0.683389 0.598694
O O8 0.831144 0.661485 0.403279
O O9 0.000000 0.625788 0.250000
O O10 0.798359 0.800994 0.750000
O O11 0.000000 0.813489 0.898548
O O12 0.737025 0.593518 0.750000
O O13 0.500000 0.576567 0.883524
#
# Coordination Sequence:
#
# PCOD8260454 Si02
#       5
#     8  16   8  16  16
#     4  12  27  45  64  85 121 162 209 272 322 352
#     4   8  13  26  54  89 123 158 190 230 293 363
#     4  10  22  39  60  87 118 164 215 246 296 372
#     4   8  15  29  53  85 121 160 197 236 288 358
#     4  10  21  39  67  97 123 155 199 252 313 375
#
# _framework density 21.106413
#
# number of rings (size 3 to 8) (size 9 to 14) (size 15 to 20)
#    0.000    2.750    1.250    1.875    1.750    2.500 
#    0.000    1.250    0.000    3.000    0.000    0.000 
#    0.000    0.000    0.000    0.000    0.000    0.000 
#
# Total GULP energy -396519.763474 kJ/mol
# GULP energy per Si atom -12391.242609 kJ/mol
# Density = 2.105837 g / cm^3
# Si number density = 21.106413 Si / 1000 Ang^3
#
#
#
# Elastic Constant Matrix: (Units=GPa)
#
#
# Indices 1 2 3 4 5 6 
#
# 1 144.9146 83.2777 53.6255 0.0000 0.0000 0.0000
# 2 83.2777 161.1589 42.5243 0.0000 0.0000 0.0000
# 3 53.6255 42.5243 66.2117 0.0000 0.0000 0.0000
# 4 0.0000 0.0000 0.0000 34.8002 0.0000 0.0000
# 5 0.0000 0.0000 0.0000 0.0000 22.0090 0.0000
# 6 0.0000 0.0000 0.0000 0.0000 0.0000 11.7030
#
#
#
# Elastic Compliance Matrix: (Units=1/GPa)
#
#
# Indices 1 2 3 4 5 6 
#
# 1 0.011953 -0.004361 -0.006880 0.000000 0.000000 0.000000
# 2 -0.004361 0.009062 -0.002288 0.000000 0.000000 0.000000
# 3 -0.006880 -0.002288 0.022145 0.000000 0.000000 0.000000
# 4 0.000000 0.000000 0.000000 0.028735 0.000000 0.000000
# 5 0.000000 0.000000 0.000000 0.000000 0.045436 0.000000
# 6 0.000000 0.000000 0.000000 0.000000 0.000000 0.085448
#
#
# Mechanical properties :
#
#
# Convention : Reuss Voigt Hill
#
# Bulk Modulus (GPa) = 62.10528 81.23778 71.67153
# Shear Modulus (GPa) = 21.25809 26.55961 23.90885
#
# Velocity S-wave (km/s) = 3.17706 3.55119 3.36933
# Velocity P-wave (km/s) = 6.55340 7.44230 7.01195
#
# Compressibility (1/GPa) = 0.01610169
#
# Stress axis : x y z
#
# Youngs Moduli (GPa) = 83.66372 110.34589 45.15788
#
# Poissons Ratio (x) = 0.48123 0.31067
# Poissons Ratio (y) = 0.36487 0.10333
# Poissons Ratio (z) = 0.57557 0.25249
#
# Static dielectric constant tensor:
#      x y z
#    x 4.004830 0.000000 0.000000 
#    y 0.000000 3.662980 0.000000 
#    z 0.000000 0.000000 3.590300 
# 
# 
# High freq. dielectric constant tensor:
#      x y z
#    x 1.832330 0.000000 0.000000 
#    y 0.000000 1.791180 0.000000 
#    z 0.000000 0.000000 1.825860 
# 
# From -- ./inp_files/27759.got.cif
#   From: 2010.03.12/outbox.cif.g09.slc.cpg/sg63_14_cif.got.tgz:27759.got - 2010.04.10 19:34:48.
