data_PCOD8260351
_publ_section_title
;
Structure prediction by ZEFSAII (Michael W. Deem and Ramdas Pophale) SiO2 
 PCOD8260351
Probable space group: C M C M
;
_chemical_formula_sum "Si O2"
_cell_formula_units_Z 104
_cell_length_a 20.932898
_cell_length_b 26.747361
_cell_length_c 8.993729
_cell_angle_alpha 90.000000
_cell_angle_beta 90.000000
_cell_angle_gamma 90.000000
_cell_volume 5035.586885
_symmetry_space_group_name_H-M "C M C M"
_symmetry_group_IT_number 63
_symmetry_cell_setting 'orthorhombic'
loop_
_space_group_symop_operation_xyz
x,y,z
-x,-y,1/2+z
x,-y,-z
-x,y,1/2-z
-x,-y,-z
x,y,1/2-z
-x,y,z
x,-y,1/2+z
1/2+x,1/2+y,z
1/2-x,1/2-y,1/2+z
1/2+x,1/2-y,-z
1/2-x,1/2+y,1/2-z
1/2-x,1/2-y,-z
1/2+x,1/2+y,1/2-z
1/2-x,1/2+y,z
1/2+x,1/2-y,1/2+z
loop_
_atom_site_type_symbol
_atom_site_label
_atom_site_fract_x
_atom_site_fract_y
_atom_site_fract_z
Si Si1 0.214107 0.447816 0.581708
Si Si2 0.333115 0.383646 0.580941
Si Si3 0.883177 0.619194 0.574951
Si Si4 0.000000 0.552253 0.576620
Si Si5 0.304652 0.716738 0.924030
Si Si6 0.573553 0.781636 0.920960
Si Si7 0.924775 0.050262 0.918129
O O1 0.201605 0.500000 0.500000
O O2 0.189420 0.454203 0.750000
O O3 0.287953 0.432472 0.576895
O O4 0.179484 0.400973 0.505155
O O5 0.347661 0.367317 0.750000
O O6 0.300626 0.337843 0.495314
O O7 0.397745 0.400705 0.499832
O O8 0.871717 0.619934 0.750000
O O9 0.938691 0.582270 0.523926
O O10 0.902174 0.674246 0.525058
O O11 0.000000 0.500000 0.500000
O O12 0.000000 0.543476 0.750000
O O13 0.288569 0.713624 0.750000
O O14 0.377066 0.736477 0.950239
O O15 0.250000 0.750000 0.000000
O O16 0.577397 0.799115 0.750000
O O17 0.500000 0.766158 0.960869
O O18 0.898581 0.048026 0.750000
O O19 0.000000 0.056213 0.921169
O O20 0.902675 0.000000 0.000000
#
# Coordination Sequence:
#
# PCOD8260351 Si02
#       7
#    16  16  16   8  16  16  16
#     4  11  24  40  59  87 121 159 203 248 298 358
#     4  11  24  41  62  89 122 159 203 254 308 368
#     4  11  22  38  59  86 119 155 199 246 296 353
#     4  10  22  36  52  80 114 148 190 238 285 340
#     4  11  24  42  64  91 123 160 207 260 317 377
#     4  10  22  41  64  89 119 159 204 252 307 365
#     4  10  21  38  62  92 126 163 202 246 300 366
#
# _framework density 20.653005
#
# number of rings (size 3 to 8) (size 9 to 14) (size 15 to 20)
#    0.000    1.385    0.769    4.154    0.000   12.615 
#    0.000    1.538    0.000    0.000    0.000    0.000 
#    0.000    0.000    0.000    0.000    0.000    0.000 
#
# Total GULP energy -644940.776783 kJ/mol
# GULP energy per Si atom -12402.707246 kJ/mol
# Density = 2.060600 g / cm^3
# Si number density = 20.653005 Si / 1000 Ang^3
#
#
#
# Elastic Constant Matrix: (Units=GPa)
#
#
# Indices 1 2 3 4 5 6 
#
# 1 81.1296 34.6932 45.8453 0.0000 0.0000 0.0000
# 2 34.6932 94.2138 54.5189 0.0000 0.0000 0.0000
# 3 45.8453 54.5189 141.6406 0.0000 0.0000 0.0000
# 4 0.0000 0.0000 0.0000 40.4341 0.0000 0.0000
# 5 0.0000 0.0000 0.0000 0.0000 28.2108 0.0000
# 6 0.0000 0.0000 0.0000 0.0000 0.0000 42.0313
#
#
#
# Elastic Compliance Matrix: (Units=1/GPa)
#
#
# Indices 1 2 3 4 5 6 
#
# 1 0.016046 -0.003735 -0.003756 0.000000 0.000000 0.000000
# 2 -0.003735 0.014525 -0.004382 0.000000 0.000000 0.000000
# 3 -0.003756 -0.004382 0.009962 0.000000 0.000000 0.000000
# 4 0.000000 0.000000 0.000000 0.024732 0.000000 0.000000
# 5 0.000000 0.000000 0.000000 0.000000 0.035447 0.000000
# 6 0.000000 0.000000 0.000000 0.000000 0.000000 0.023792
#
#
# Mechanical properties :
#
#
# Convention : Reuss Voigt Hill
#
# Bulk Modulus (GPa) = 59.56855 65.23320 62.40088
# Shear Modulus (GPa) = 32.50006 34.26370 33.38188
#
# Velocity S-wave (km/s) = 3.97120 4.07752 4.02471
# Velocity P-wave (km/s) = 7.06628 7.33636 7.20259
#
# Compressibility (1/GPa) = 0.01678738
#
# Stress axis : x y z
#
# Youngs Moduli (GPa) = 62.32241 68.84527 100.37704
#
# Poissons Ratio (x) = 0.25715 0.37700
# Poissons Ratio (y) = 0.23279 0.43985
# Poissons Ratio (z) = 0.23407 0.30168
#
# Static dielectric constant tensor:
#      x y z
#    x 3.857430 0.000000 0.000000 
#    y 0.000000 3.653990 0.000000 
#    z 0.000000 0.000000 3.876720 
# 
# 
# High freq. dielectric constant tensor:
#      x y z
#    x 1.817730 0.000000 0.000000 
#    y 0.000000 1.805980 0.000000 
#    z 0.000000 0.000000 1.819700 
# 
# From -- ./inp_files/8748.got.cif
#   From: 2010.03.12/outbox.cif.g09.slc.cpg/sg63_5_cif.got.tgz:8748.got - 2010.04.10 19:34:48.
