data_PCOD8260133
_publ_section_title
;
Structure prediction by ZEFSAII (Michael W. Deem and Ramdas Pophale) SiO2 
 PCOD8260133
Probable space group: C M C M
;
_chemical_formula_sum "Si O2"
_cell_formula_units_Z 88
_cell_length_a 19.949351
_cell_length_b 24.371197
_cell_length_c 9.108997
_cell_angle_alpha 90.000000
_cell_angle_beta 90.000000
_cell_angle_gamma 90.000000
_cell_volume 4428.699273
_symmetry_space_group_name_H-M "C M C M"
_symmetry_group_IT_number 63
_symmetry_cell_setting 'orthorhombic'
loop_
_space_group_symop_operation_xyz
x,y,z
-x,-y,1/2+z
x,-y,-z
-x,y,1/2-z
-x,-y,-z
x,y,1/2-z
-x,y,z
x,-y,1/2+z
1/2+x,1/2+y,z
1/2-x,1/2-y,1/2+z
1/2+x,1/2-y,-z
1/2-x,1/2+y,1/2-z
1/2-x,1/2-y,-z
1/2+x,1/2+y,1/2-z
1/2-x,1/2+y,z
1/2+x,1/2-y,1/2+z
loop_
_atom_site_type_symbol
_atom_site_label
_atom_site_fract_x
_atom_site_fract_y
_atom_site_fract_z
Si Si1 0.500000 0.939966 0.423762
Si Si2 0.885714 0.053439 0.576845
Si Si3 0.072719 0.170200 0.576120
Si Si4 0.734201 0.050071 0.915438
Si Si5 0.822167 0.258405 0.925612
Si Si6 0.875821 0.363210 0.081409
O O1 0.500000 0.950846 0.250000
O O2 0.564375 0.903505 0.471481
O O3 0.500000 0.000000 0.500000
O O4 0.893904 0.046624 0.750000
O O5 0.921927 0.107950 0.517632
O O6 0.808804 0.060370 0.525937
O O7 0.917837 0.000000 0.500000
O O8 0.078112 0.169103 0.750000
O O9 0.133095 0.207506 0.517998
O O10 0.000000 0.193557 0.526152
O O11 0.735932 0.030072 0.750000
O O12 0.694080 0.105680 0.934616
O O13 0.698682 0.000000 0.000000
O O14 0.813312 0.260739 0.750000
O O15 0.750000 0.250000 0.000000
O O16 0.865367 0.310854 0.977922
O O17 0.888495 0.344842 0.250000
#
# Coordination Sequence:
#
# PCOD8260133 Si02
#       6
#     8  16  16  16  16  16
#     4  10  22  38  58  86 124 166 205 252 307 368
#     4   9  17  31  52  77 105 138 175 221 271 324
#     4   9  19  36  57  80 109 146 186 226 274 334
#     4   9  17  30  50  75 106 143 184 230 279 332
#     4  11  23  39  62  87 113 149 196 248 297 355
#     4  10  21  37  56  81 116 155 195 242 300 354
#
# _framework density 19.870393
#
# number of rings (size 3 to 8) (size 9 to 14) (size 15 to 20)
#    0.000    2.364    0.000    2.182    1.273    4.727 
#    0.000    5.455    0.000    2.182    0.000    0.000 
#    0.000    0.000    0.000    0.000    0.000    0.000 
#
# Total GULP energy -545337.459759 kJ/mol
# GULP energy per Si atom -12394.033176 kJ/mol
# Density = 1.982517 g / cm^3
# Si number density = 19.870393 Si / 1000 Ang^3
#
#
#
# Elastic Constant Matrix: (Units=GPa)
#
#
# Indices 1 2 3 4 5 6 
#
# 1 120.8332 67.3746 33.5091 0.0000 0.0000 0.0000
# 2 67.3746 143.9885 49.5322 0.0000 0.0000 0.0000
# 3 33.5091 49.5322 54.0320 0.0000 0.0000 0.0000
# 4 0.0000 0.0000 0.0000 37.4410 0.0000 0.0000
# 5 0.0000 0.0000 0.0000 0.0000 21.5830 0.0000
# 6 0.0000 0.0000 0.0000 0.0000 0.0000 28.3741
#
#
#
# Elastic Compliance Matrix: (Units=1/GPa)
#
#
# Indices 1 2 3 4 5 6 
#
# 1 0.011571 -0.004303 -0.003232 0.000000 0.000000 0.000000
# 2 -0.004303 0.011744 -0.008097 0.000000 0.000000 0.000000
# 3 -0.003232 -0.008097 0.027935 0.000000 0.000000 0.000000
# 4 0.000000 0.000000 0.000000 0.026709 0.000000 0.000000
# 5 0.000000 0.000000 0.000000 0.000000 0.046333 0.000000
# 6 0.000000 0.000000 0.000000 0.000000 0.000000 0.035243
#
#
# Mechanical properties :
#
#
# Convention : Reuss Voigt Hill
#
# Bulk Modulus (GPa) = 50.03460 68.85395 59.44428
# Shear Modulus (GPa) = 25.32153 28.70881 27.01517
#
# Velocity S-wave (km/s) = 3.57366 3.80518 3.69123
# Velocity P-wave (km/s) = 6.50101 7.35069 6.93887
#
# Compressibility (1/GPa) = 0.01998617
#
# Stress axis : x y z
#
# Youngs Moduli (GPa) = 86.42167 85.15159 35.79750
#
# Poissons Ratio (x) = 0.36637 0.11569
# Poissons Ratio (y) = 0.37184 0.28987
# Poissons Ratio (z) = 0.27930 0.68951
#
# Static dielectric constant tensor:
#      x y z
#    x 3.821520 0.000000 0.000000 
#    y 0.000000 3.805590 0.000000 
#    z 0.000000 0.000000 3.406870 
# 
# 
# High freq. dielectric constant tensor:
#      x y z
#    x 1.785150 0.000000 0.000000 
#    y 0.000000 1.783750 0.000000 
#    z 0.000000 0.000000 1.745610 
# 
# From -- ./inp_files/8225.got.cif
#   From: 2010.03.12/outbox.cif.g09.slc.cpg/sg63_5_cif.got.tgz:8225.got - 2010.04.10 19:34:48.
