data_PCOD8260191
_publ_section_title
;
Structure prediction by ZEFSAII (Michael W. Deem and Ramdas Pophale) SiO2 
 PCOD8260191
Probable space group: C M C M
;
_chemical_formula_sum "Si O2"
_cell_formula_units_Z 112
_cell_length_a 24.986178
_cell_length_b 15.202271
_cell_length_c 14.690584
_cell_angle_alpha 90.000000
_cell_angle_beta 90.000000
_cell_angle_gamma 90.000000
_cell_volume 5580.169107
_symmetry_space_group_name_H-M "C M C M"
_symmetry_group_IT_number 63
_symmetry_cell_setting 'orthorhombic'
loop_
_space_group_symop_operation_xyz
x,y,z
-x,-y,1/2+z
x,-y,-z
-x,y,1/2-z
-x,-y,-z
x,y,1/2-z
-x,y,z
x,-y,1/2+z
1/2+x,1/2+y,z
1/2-x,1/2-y,1/2+z
1/2+x,1/2-y,-z
1/2-x,1/2+y,1/2-z
1/2-x,1/2-y,-z
1/2+x,1/2+y,1/2-z
1/2-x,1/2+y,z
1/2+x,1/2-y,1/2+z
loop_
_atom_site_type_symbol
_atom_site_label
_atom_site_fract_x
_atom_site_fract_y
_atom_site_fract_z
Si Si1 0.638872 0.541242 0.852853
Si Si2 0.940677 0.332377 0.851220
Si Si3 0.799650 0.712423 0.555448
Si Si4 0.849838 0.427242 0.934603
Si Si5 0.882262 0.837004 0.852696
Si Si6 0.241475 0.455489 0.145300
Si Si7 0.060648 0.161883 0.532890
O O1 0.634701 0.581920 0.750000
O O2 0.625475 0.439994 0.847290
O O3 0.698537 0.548499 0.894409
O O4 0.599714 0.589395 0.923458
O O5 0.937460 0.293567 0.750000
O O6 0.895524 0.408181 0.860022
O O7 0.928679 0.253843 0.919228
O O8 0.000000 0.372375 0.869717
O O9 0.750000 0.750000 0.500000
O O10 0.838837 0.665274 0.483897
O O11 0.828741 0.790321 0.609772
O O12 0.783387 0.640184 0.630072
O O13 0.793674 0.466687 0.898814
O O14 0.876153 0.500000 0.000000
O O15 0.896307 0.802155 0.750000
O O16 0.929640 0.821342 0.925316
O O17 0.244277 0.479383 0.250000
O O18 0.000000 0.129028 0.547343
#
# Coordination Sequence:
#
# PCOD8260191 Si02
#       7
#    16  16  16  16  16  16  16
#     4  10  22  39  59  90 127 162 203 258 315 373
#     4  10  21  39  64  93 122 156 206 264 315 369
#     4  11  21  36  58  86 119 164 208 248 301 369
#     4  10  21  37  60  90 121 163 202 252 311 373
#     4  11  23  39  59  85 122 163 206 255 313 380
#     4  10  21  37  58  89 126 160 203 254 308 370
#     4  11  23  41  64  89 120 162 213 266 314 371
#
# _framework density 20.071076999999999
#
# number of rings (size 3 to 8) (size 9 to 14) (size 15 to 20)
#    0.000    1.571    1.429    3.429    0.000    4.857 
#    0.000    2.857    0.000    0.000    0.000    0.000 
#    0.000    0.000    0.000    0.000    0.000    0.000 
#
# Total GULP energy -694148.827232 kJ/mol
# GULP energy per Si atom -12395.514772 kJ/mol
# Density = 2.002539 g / cm^3
# Si number density = 20.071077 Si / 1000 Ang^3
#
#
#
# Elastic Constant Matrix: (Units=GPa)
#
#
# Indices 1 2 3 4 5 6 
#
# 1 142.5499 55.2956 60.3278 0.0000 0.0000 0.0000
# 2 55.2956 63.1265 41.7695 0.0000 0.0000 0.0000
# 3 60.3278 41.7695 125.7904 0.0000 0.0000 0.0000
# 4 0.0000 0.0000 0.0000 29.6097 0.0000 0.0000
# 5 0.0000 0.0000 0.0000 0.0000 28.5295 0.0000
# 6 0.0000 0.0000 0.0000 0.0000 0.0000 28.5558
#
#
#
# Elastic Compliance Matrix: (Units=1/GPa)
#
#
# Indices 1 2 3 4 5 6 
#
# 1 0.011316 -0.008101 -0.002737 0.000000 0.000000 0.000000
# 2 -0.008101 0.026101 -0.004782 0.000000 0.000000 0.000000
# 3 -0.002737 -0.004782 0.010850 0.000000 0.000000 0.000000
# 4 0.000000 0.000000 0.000000 0.033773 0.000000 0.000000
# 5 0.000000 0.000000 0.000000 0.000000 0.035051 0.000000
# 6 0.000000 0.000000 0.000000 0.000000 0.000000 0.035019
#
#
# Mechanical properties :
#
#
# Convention : Reuss Voigt Hill
#
# Bulk Modulus (GPa) = 58.72843 71.80586 65.26715
# Shear Modulus (GPa) = 26.45129 28.94392 27.69761
#
# Velocity S-wave (km/s) = 3.63420 3.80158 3.71883
# Velocity P-wave (km/s) = 6.85081 7.42447 7.14340
#
# Compressibility (1/GPa) = 0.01702753
#
# Stress axis : x y z
#
# Youngs Moduli (GPa) = 88.37189 38.31201 92.16415
#
# Poissons Ratio (x) = 0.31037 0.25225
# Poissons Ratio (y) = 0.71591 0.44072
# Poissons Ratio (z) = 0.24187 0.18321
#
# Static dielectric constant tensor:
#      x y z
#    x 3.747700 0.000000 0.000000 
#    y 0.000000 3.520550 0.000000 
#    z 0.000000 0.000000 4.071030 
# 
# 
# High freq. dielectric constant tensor:
#      x y z
#    x 1.784080 0.000000 0.000000 
#    y 0.000000 1.777250 0.000000 
#    z 0.000000 0.000000 1.793560 
# 
# From -- ./inp_files/36906.got.cif
#   From: 2010.03.12/outbox.cif.g09.slc.cpg/sg63_19_cif.got.tgz:36906.got - 2010.04.10 19:34:48.
