data_PCOD8260718
_publ_section_title
;
Structure prediction by ZEFSAII (Michael W. Deem and Ramdas Pophale) SiO2 
 PCOD8260718
Probable space group: C M C M
;
_chemical_formula_sum "Si O2"
_cell_formula_units_Z 64
_cell_length_a 19.125255
_cell_length_b 8.641779
_cell_length_c 17.453840
_cell_angle_alpha 90.000000
_cell_angle_beta 90.000000
_cell_angle_gamma 90.000000
_cell_volume 2884.704822
_symmetry_space_group_name_H-M "C M C M"
_symmetry_group_IT_number 63
_symmetry_cell_setting 'orthorhombic'
loop_
_space_group_symop_operation_xyz
x,y,z
-x,-y,1/2+z
x,-y,-z
-x,y,1/2-z
-x,-y,-z
x,y,1/2-z
-x,y,z
x,-y,1/2+z
1/2+x,1/2+y,z
1/2-x,1/2-y,1/2+z
1/2+x,1/2-y,-z
1/2-x,1/2+y,1/2-z
1/2-x,1/2-y,-z
1/2+x,1/2+y,1/2-z
1/2-x,1/2+y,z
1/2+x,1/2-y,1/2+z
loop_
_atom_site_type_symbol
_atom_site_label
_atom_site_fract_x
_atom_site_fract_y
_atom_site_fract_z
Si Si1 0.000000 0.194249 0.425553
Si Si2 0.845704 0.204236 0.611198
Si Si3 0.135238 0.342917 0.455416
Si Si4 0.000000 0.143533 0.605876
Si Si5 0.731008 0.010336 0.837775
O O1 0.068408 0.292751 0.405778
O O2 0.000000 0.163607 0.515655
O O3 0.000000 0.038702 0.375537
O O4 0.841891 0.214589 0.518415
O O5 0.927445 0.216780 0.638904
O O6 0.813013 0.038852 0.639048
O O7 0.799092 0.339854 0.648850
O O8 0.116905 0.500000 0.500000
O O9 0.194940 0.363876 0.392867
O O10 0.719192 0.056547 0.750000
#
# Coordination Sequence:
#
# PCOD8260718 Si02
#       5
#     8  16  16   8  16
#     4   9  17  34  62  93 126 151 203 261 303 358
#     4  10  22  41  64  89 122 161 208 256 311 372
#     4   9  19  36  61  95 125 161 203 256 314 369
#     4   9  20  38  62  91 119 160 203 255 310 361
#     4  11  23  39  60  89 125 163 205 256 310 370
#
# _framework density 22.185979
#
# number of rings (size 3 to 8) (size 9 to 14) (size 15 to 20)
#    0.000    2.250    0.000    1.875    3.500    3.000 
#    9.000    4.375    0.000    3.000    0.000    0.000 
#    0.000    0.000    0.000    0.000    0.000    0.000 
#
# Total GULP energy -396523.235260 kJ/mol
# GULP energy per Si atom -12391.351102 kJ/mol
# Density = 2.213548 g / cm^3
# Si number density = 22.185979 Si / 1000 Ang^3
#
#
#
# Elastic Constant Matrix: (Units=GPa)
#
#
# Indices 1 2 3 4 5 6 
#
# 1 167.8551 61.3667 37.5115 0.0000 0.0000 0.0000
# 2 61.3667 74.2706 19.9093 0.0000 0.0000 0.0000
# 3 37.5115 19.9093 81.0421 0.0000 0.0000 0.0000
# 4 0.0000 0.0000 0.0000 16.5615 0.0000 0.0000
# 5 0.0000 0.0000 0.0000 0.0000 3.7816 0.0000
# 6 0.0000 0.0000 0.0000 0.0000 0.0000 45.4564
#
#
#
# Elastic Compliance Matrix: (Units=1/GPa)
#
#
# Indices 1 2 3 4 5 6 
#
# 1 0.008985 -0.006754 -0.002500 0.000000 0.000000 0.000000
# 2 -0.006754 0.019490 -0.001662 0.000000 0.000000 0.000000
# 3 -0.002500 -0.001662 0.013905 0.000000 0.000000 0.000000
# 4 0.000000 0.000000 0.000000 0.060381 0.000000 0.000000
# 5 0.000000 0.000000 0.000000 0.000000 0.264437 0.000000
# 6 0.000000 0.000000 0.000000 0.000000 0.000000 0.021999
#
#
# Mechanical properties :
#
#
# Convention : Reuss Voigt Hill
#
# Bulk Modulus (GPa) = 48.66455 62.30476 55.48466
# Shear Modulus (GPa) = 11.96519 26.78524 19.37522
#
# Velocity S-wave (km/s) = 2.32483 3.47840 2.95839
# Velocity P-wave (km/s) = 5.40267 6.65404 6.06074
#
# Compressibility (1/GPa) = 0.02054884
#
# Stress axis : x y z
#
# Youngs Moduli (GPa) = 111.29098 51.30705 71.91876
#
# Poissons Ratio (x) = 0.34654 0.17978
# Poissons Ratio (y) = 0.75168 0.11952
# Poissons Ratio (z) = 0.27820 0.08527
#
# Static dielectric constant tensor:
#      x y z
#    x 4.481390 0.000000 0.000000 
#    y 0.000000 3.940730 0.000000 
#    z 0.000000 0.000000 3.632460 
# 
# 
# High freq. dielectric constant tensor:
#      x y z
#    x 1.889980 0.000000 0.000000 
#    y 0.000000 1.865880 0.000000 
#    z 0.000000 0.000000 1.829720 
# 
# From -- ./inp_files/55070.got.cif
#   From: 2010.03.12/outbox.cif.g09.slc.cpg/sg63_28_cif.got.tgz:55070.got - 2010.04.10 19:34:48.
