data_PCOD8260285
_publ_section_title
;
Structure prediction by ZEFSAII (Michael W. Deem and Ramdas Pophale) SiO2 
 PCOD8260285
Probable space group: C M C M
;
_chemical_formula_sum "Si O2"
_cell_formula_units_Z 80
_cell_length_a 8.929818
_cell_length_b 25.347632
_cell_length_c 17.947659
_cell_angle_alpha 90.000000
_cell_angle_beta 90.000000
_cell_angle_gamma 90.000000
_cell_volume 4062.447957
_symmetry_space_group_name_H-M "C M C M"
_symmetry_group_IT_number 63
_symmetry_cell_setting 'orthorhombic'
loop_
_space_group_symop_operation_xyz
x,y,z
-x,-y,1/2+z
x,-y,-z
-x,y,1/2-z
-x,-y,-z
x,y,1/2-z
-x,y,z
x,-y,1/2+z
1/2+x,1/2+y,z
1/2-x,1/2-y,1/2+z
1/2+x,1/2-y,-z
1/2-x,1/2+y,1/2-z
1/2-x,1/2-y,-z
1/2+x,1/2+y,1/2-z
1/2-x,1/2+y,z
1/2+x,1/2-y,1/2+z
loop_
_atom_site_type_symbol
_atom_site_label
_atom_site_fract_x
_atom_site_fract_y
_atom_site_fract_z
Si Si1 0.675529 0.298875 0.835808
Si Si2 0.828267 0.990348 0.835389
Si Si3 0.826770 0.190740 0.835472
Si Si4 0.323427 0.103871 0.411354
Si Si5 0.175980 0.090630 0.568086
O O1 0.718373 0.310273 0.750000
O O2 0.500000 0.303621 0.849368
O O3 0.728189 0.240717 0.859230
O O4 0.757537 0.339854 0.888840
O O5 0.806943 0.006966 0.750000
O O6 0.726558 0.939957 0.852162
O O7 0.000000 0.974943 0.852153
O O8 0.777178 0.039638 0.884768
O O9 0.797029 0.174759 0.750000
O O10 0.775446 0.142272 0.886384
O O11 0.000000 0.204997 0.848075
O O12 0.500000 0.108154 0.411915
O O13 0.265849 0.087369 0.492052
O O14 0.000000 0.090982 0.551132
#
# Coordination Sequence:
#
# PCOD8260285 Si02
#       5
#    16  16  16  16  16
#     4  10  21  38  60  84 111 147 190 233 279 333
#     4  10  21  39  63  87 111 144 187 231 277 334
#     4   9  18  35  60  88 115 144 183 231 280 331
#     4  12  25  38  55  82 116 152 189 232 281 329
#     4  10  21  38  60  85 115 150 185 225 277 336
#
# _framework density 19.692558999999999
#
# number of rings (size 3 to 8) (size 9 to 14) (size 15 to 20)
#    0.000    1.800    0.000    4.200    0.000   11.200 
#    0.000    0.000    0.000    3.600    0.000    0.000 
#    0.000    0.000    0.000    0.000    0.000    0.000 
#
# Total GULP energy -496246.595464 kJ/mol
# GULP energy per Si atom -12406.164887 kJ/mol
# Density = 1.964774 g / cm^3
# Si number density = 19.692559 Si / 1000 Ang^3
#
#
#
# Elastic Constant Matrix: (Units=GPa)
#
#
# Indices 1 2 3 4 5 6 
#
# 1 73.1654 37.9879 26.5259 0.0000 0.0000 0.0000
# 2 37.9879 101.6274 32.5312 0.0000 0.0000 0.0000
# 3 26.5259 32.5312 74.4133 0.0000 0.0000 0.0000
# 4 0.0000 0.0000 0.0000 29.6154 0.0000 0.0000
# 5 0.0000 0.0000 0.0000 0.0000 23.0835 0.0000
# 6 0.0000 0.0000 0.0000 0.0000 0.0000 34.2390
#
#
#
# Elastic Compliance Matrix: (Units=1/GPa)
#
#
# Indices 1 2 3 4 5 6 
#
# 1 0.017940 -0.005417 -0.004027 0.000000 0.000000 0.000000
# 2 -0.005417 0.013076 -0.003786 0.000000 0.000000 0.000000
# 3 -0.004027 -0.003786 0.016529 0.000000 0.000000 0.000000
# 4 0.000000 0.000000 0.000000 0.033766 0.000000 0.000000
# 5 0.000000 0.000000 0.000000 0.000000 0.043321 0.000000
# 6 0.000000 0.000000 0.000000 0.000000 0.000000 0.029206
#
#
# Mechanical properties :
#
#
# Convention : Reuss Voigt Hill
#
# Bulk Modulus (GPa) = 47.42388 49.25513 48.33951
# Shear Modulus (GPa) = 26.69129 27.53166 27.11148
#
# Velocity S-wave (km/s) = 3.68557 3.74314 3.71447
# Velocity P-wave (km/s) = 6.49966 6.61421 6.55719
#
# Compressibility (1/GPa) = 0.02108642
#
# Stress axis : x y z
#
# Youngs Moduli (GPa) = 55.74104 76.47306 60.50005
#
# Poissons Ratio (x) = 0.41425 0.24363
# Poissons Ratio (y) = 0.30194 0.22904
# Poissons Ratio (z) = 0.22447 0.28950
#
# Static dielectric constant tensor:
#      x y z
#    x 3.510870 0.000000 0.000000 
#    y 0.000000 3.682700 0.000000 
#    z 0.000000 0.000000 3.618120 
# 
# 
# High freq. dielectric constant tensor:
#      x y z
#    x 1.758410 0.000000 0.000000 
#    y 0.000000 1.780760 0.000000 
#    z 0.000000 0.000000 1.772830 
# 
# From -- ./inp_files/40479.got.cif
#   From: 2010.03.12/outbox.cif.g09.slc.cpg/sg63_21_cif.got.tgz:40479.got - 2010.04.10 19:34:48.
