data_PCOD8260880
_publ_section_title
;
Structure prediction by ZEFSAII (Michael W. Deem and Ramdas Pophale) SiO2 
 PCOD8260880
Probable space group: C M C M
;
_chemical_formula_sum "Si O2"
_cell_formula_units_Z 48
_cell_length_a 13.235764
_cell_length_b 6.750483
_cell_length_c 20.292360
_cell_angle_alpha 90.000000
_cell_angle_beta 90.000000
_cell_angle_gamma 90.000000
_cell_volume 1813.077720
_symmetry_space_group_name_H-M "C M C M"
_symmetry_group_IT_number 63
_symmetry_cell_setting 'orthorhombic'
loop_
_space_group_symop_operation_xyz
x,y,z
-x,-y,1/2+z
x,-y,-z
-x,y,1/2-z
-x,-y,-z
x,y,1/2-z
-x,y,z
x,-y,1/2+z
1/2+x,1/2+y,z
1/2-x,1/2-y,1/2+z
1/2+x,1/2-y,-z
1/2-x,1/2+y,1/2-z
1/2-x,1/2-y,-z
1/2+x,1/2+y,1/2-z
1/2-x,1/2+y,z
1/2+x,1/2-y,1/2+z
loop_
_atom_site_type_symbol
_atom_site_label
_atom_site_fract_x
_atom_site_fract_y
_atom_site_fract_z
Si Si1 0.889780 0.429926 0.918477
Si Si2 0.175417 0.861452 0.555964
Si Si3 0.384791 0.608417 0.823514
O O1 0.797834 0.329526 0.962339
O O2 0.881202 0.341773 0.844641
O O3 0.000000 0.367329 0.947634
O O4 0.884429 0.665816 0.923552
O O5 0.182156 0.986246 0.624319
O O6 0.122266 0.000000 0.500000
O O7 0.339694 0.588080 0.750000
O O8 0.500000 0.530413 0.825473
#
# Coordination Sequence:
#
# PCOD8260880 Si02
#       3
#    16  16  16
#     4  11  25  44  70 101 137 183 232 284 348 420
#     4  12  25  46  70 107 144 182 234 289 354 421
#     4  10  24  46  71 102 140 185 238 293 350 415
#
# _framework density 26.474322000000001
#
# number of rings (size 3 to 8) (size 9 to 14) (size 15 to 20)
#    0.000    1.000    3.333    2.000    0.000    6.000 
#    0.000    3.333    0.000    0.000    0.000    0.000 
#    0.000    0.000    0.000    0.000    0.000    0.000 
#
# Total GULP energy -297346.545599 kJ/mol
# GULP energy per Si atom -12389.439400 kJ/mol
# Density = 2.641406 g / cm^3
# Si number density = 26.474322 Si / 1000 Ang^3
#
#
#
# Elastic Constant Matrix: (Units=GPa)
#
#
# Indices 1 2 3 4 5 6 
#
# 1 130.6149 40.3689 21.9523 0.0000 0.0000 0.0000
# 2 40.3689 136.2086 45.9962 0.0000 0.0000 0.0000
# 3 21.9523 45.9962 153.3863 0.0000 0.0000 0.0000
# 4 0.0000 0.0000 0.0000 37.6323 0.0000 0.0000
# 5 0.0000 0.0000 0.0000 0.0000 21.6815 0.0000
# 6 0.0000 0.0000 0.0000 0.0000 0.0000 34.8448
#
#
#
# Elastic Compliance Matrix: (Units=1/GPa)
#
#
# Indices 1 2 3 4 5 6 
#
# 1 0.008464 -0.002336 -0.000511 0.000000 0.000000 0.000000
# 2 -0.002336 0.008814 -0.002309 0.000000 0.000000 0.000000
# 3 -0.000511 -0.002309 0.007285 0.000000 0.000000 0.000000
# 4 0.000000 0.000000 0.000000 0.026573 0.000000 0.000000
# 5 0.000000 0.000000 0.000000 0.000000 0.046122 0.000000
# 6 0.000000 0.000000 0.000000 0.000000 0.000000 0.028699
#
#
# Mechanical properties :
#
#
# Convention : Reuss Voigt Hill
#
# Bulk Modulus (GPa) = 70.16806 70.76053 70.46429
# Shear Modulus (GPa) = 35.45655 39.62455 37.54055
#
# Velocity S-wave (km/s) = 3.66359 3.87294 3.76972
# Velocity P-wave (km/s) = 6.66765 6.84000 6.75437
#
# Compressibility (1/GPa) = 0.01425150
#
# Stress axis : x y z
#
# Youngs Moduli (GPa) = 118.14842 113.46084 137.27046
#
# Poissons Ratio (x) = 0.26504 0.07012
# Poissons Ratio (y) = 0.27599 0.31691
# Poissons Ratio (z) = 0.06036 0.26194
#
# Static dielectric constant tensor:
#      x y z
#    x 4.980310 0.000000 0.000000 
#    y 0.000000 4.983970 0.000000 
#    z 0.000000 0.000000 4.965110 
# 
# 
# High freq. dielectric constant tensor:
#      x y z
#    x 2.069430 0.000000 0.000000 
#    y 0.000000 2.074820 0.000000 
#    z 0.000000 0.000000 2.061100 
# 
# From -- ./inp_files/43193.got.cif
#   From: 2010.03.12/outbox.cif.g09.slc.cpg/sg63_22_cif.got.tgz:43193.got - 2010.04.10 19:34:48.
