data_PCOD8260752
_publ_section_title
;
Structure prediction by ZEFSAII (Michael W. Deem and Ramdas Pophale) SiO2 
 PCOD8260752
Probable space group: C M C M
;
_chemical_formula_sum "Si O2"
_cell_formula_units_Z 72
_cell_length_a 21.821959
_cell_length_b 19.265785
_cell_length_c 8.592454
_cell_angle_alpha 90.000000
_cell_angle_beta 90.000000
_cell_angle_gamma 90.000000
_cell_volume 3612.415197
_symmetry_space_group_name_H-M "C M C M"
_symmetry_group_IT_number 63
_symmetry_cell_setting 'orthorhombic'
loop_
_space_group_symop_operation_xyz
x,y,z
-x,-y,1/2+z
x,-y,-z
-x,y,1/2-z
-x,-y,-z
x,y,1/2-z
-x,y,z
x,-y,1/2+z
1/2+x,1/2+y,z
1/2-x,1/2-y,1/2+z
1/2+x,1/2-y,-z
1/2-x,1/2+y,1/2-z
1/2-x,1/2-y,-z
1/2+x,1/2+y,1/2-z
1/2-x,1/2+y,z
1/2+x,1/2-y,1/2+z
loop_
_atom_site_type_symbol
_atom_site_label
_atom_site_fract_x
_atom_site_fract_y
_atom_site_fract_z
Si Si1 0.929103 0.809090 0.929045
Si Si2 0.000000 0.575987 0.068036
Si Si3 0.112996 0.342615 0.431544
Si Si4 0.278523 0.925184 0.565843
Si Si5 0.647037 0.427559 0.067989
O O1 0.920189 0.831147 0.750000
O O2 0.892675 0.738876 0.966847
O O3 0.000000 0.796732 0.968508
O O4 0.903786 0.869373 0.039180
O O5 0.000000 0.568777 0.250000
O O6 0.000000 0.500000 0.000000
O O7 0.060291 0.616135 0.017958
O O8 0.106447 0.358246 0.250000
O O9 0.178738 0.366101 0.493843
O O10 0.285203 0.925874 0.750000
O O11 0.209492 0.906418 0.518421
O O12 0.298357 0.000000 0.500000
O O13 0.660358 0.436003 0.250000
O O14 0.621869 0.500000 0.000000
#
# Coordination Sequence:
#
# PCOD8260752 Si02
#       5
#    16   8  16  16  16
#     4  10  22  42  65  89 121 161 201 250 305 359
#     4  12  24  38  58  86 121 162 209 252 296 354
#     4  11  22  40  62  88 122 162 203 249 303 358
#     4  11  22  39  62  90 123 161 203 253 303 361
#     4  11  23  41  65  92 121 157 200 252 305 364
#
# _framework density 19.931263000000001
#
# number of rings (size 3 to 8) (size 9 to 14) (size 15 to 20)
#    0.000    1.111    1.111    7.667    0.000    3.556 
#    0.000    0.000    0.000    0.000    0.000    0.000 
#    0.000    0.000    0.000    0.000    0.000    0.000 
#
# Total GULP energy -446650.259365 kJ/mol
# GULP energy per Si atom -12406.951649 kJ/mol
# Density = 1.988590 g / cm^3
# Si number density = 19.931263 Si / 1000 Ang^3
#
#
#
# Elastic Constant Matrix: (Units=GPa)
#
#
# Indices 1 2 3 4 5 6 
#
# 1 68.7641 52.0410 24.4720 0.0000 0.0000 0.0000
# 2 52.0410 115.9000 59.4027 0.0000 0.0000 0.0000
# 3 24.4720 59.4027 125.1969 0.0000 0.0000 0.0000
# 4 0.0000 0.0000 0.0000 33.0578 0.0000 0.0000
# 5 0.0000 0.0000 0.0000 0.0000 36.3742 0.0000
# 6 0.0000 0.0000 0.0000 0.0000 0.0000 44.6201
#
#
#
# Elastic Compliance Matrix: (Units=1/GPa)
#
#
# Indices 1 2 3 4 5 6 
#
# 1 0.022053 -0.010165 0.000512 0.000000 0.000000 0.000000
# 2 -0.010165 0.016086 -0.005645 0.000000 0.000000 0.000000
# 3 0.000512 -0.005645 0.010566 0.000000 0.000000 0.000000
# 4 0.000000 0.000000 0.000000 0.030250 0.000000 0.000000
# 5 0.000000 0.000000 0.000000 0.000000 0.027492 0.000000
# 6 0.000000 0.000000 0.000000 0.000000 0.000000 0.022411
#
#
# Mechanical properties :
#
#
# Convention : Reuss Voigt Hill
#
# Bulk Modulus (GPa) = 55.22169 64.63250 59.92710
# Shear Modulus (GPa) = 30.21339 34.40679 32.31009
#
# Velocity S-wave (km/s) = 3.89765 4.15935 4.03063
# Velocity P-wave (km/s) = 6.92978 7.45420 7.19676
#
# Compressibility (1/GPa) = 0.01810882
#
# Stress axis : x y z
#
# Youngs Moduli (GPa) = 45.34572 62.16721 94.64432
#
# Poissons Ratio (x) = 0.63191 -0.04848
# Poissons Ratio (y) = 0.46092 0.53430
# Poissons Ratio (z) = -0.02323 0.35096
#
# Static dielectric constant tensor:
#      x y z
#    x 3.608600 0.000000 0.000000 
#    y 0.000000 3.682560 0.000000 
#    z 0.000000 0.000000 3.780550 
# 
# 
# High freq. dielectric constant tensor:
#      x y z
#    x 1.780820 0.000000 0.000000 
#    y 0.000000 1.783130 0.000000 
#    z 0.000000 0.000000 1.791490 
# 
# From -- ./inp_files/7805.got.cif
#   From: 2010.03.12/outbox.cif.g09.slc.cpg/sg63_4_cif.got.tgz:7805.got - 2010.04.10 19:34:48.
