data_PCOD8260647
_publ_section_title
;
Structure prediction by ZEFSAII (Michael W. Deem and Ramdas Pophale) SiO2 
 PCOD8260647
Probable space group: C M C M
;
_chemical_formula_sum "Si O2"
_cell_formula_units_Z 72
_cell_length_a 17.574933
_cell_length_b 23.194649
_cell_length_c 8.744942
_cell_angle_alpha 90.000000
_cell_angle_beta 90.000000
_cell_angle_gamma 90.000000
_cell_volume 3564.826653
_symmetry_space_group_name_H-M "C M C M"
_symmetry_group_IT_number 63
_symmetry_cell_setting 'orthorhombic'
loop_
_space_group_symop_operation_xyz
x,y,z
-x,-y,1/2+z
x,-y,-z
-x,y,1/2-z
-x,-y,-z
x,y,1/2-z
-x,y,z
x,-y,1/2+z
1/2+x,1/2+y,z
1/2-x,1/2-y,1/2+z
1/2+x,1/2-y,-z
1/2-x,1/2+y,1/2-z
1/2-x,1/2-y,-z
1/2+x,1/2+y,1/2-z
1/2-x,1/2+y,z
1/2+x,1/2-y,1/2+z
loop_
_atom_site_type_symbol
_atom_site_label
_atom_site_fract_x
_atom_site_fract_y
_atom_site_fract_z
Si Si1 0.331490 0.255287 0.075176
Si Si2 0.911773 0.137919 0.429241
Si Si3 0.286971 0.562086 0.930084
Si Si4 0.000000 0.562285 0.431402
Si Si5 0.850736 0.374755 0.924974
O O1 0.323035 0.276054 0.250000
O O2 0.369832 0.192748 0.064165
O O3 0.250000 0.250000 0.000000
O O4 0.384193 0.300018 0.986586
O O5 0.896088 0.134131 0.250000
O O6 0.867473 0.085718 0.510140
O O7 0.000000 0.130459 0.469977
O O8 0.290403 0.555696 0.750000
O O9 0.267980 0.500000 0.000000
O O10 0.222112 0.607928 0.975108
O O11 0.000000 0.500000 0.500000
O O12 0.075247 0.593876 0.492162
O O13 0.000000 0.560735 0.250000
O O14 0.833615 0.392672 0.750000
#
# Coordination Sequence:
#
# PCOD8260647 Si02
#       5
#    16  16  16   8  16
#     4  11  22  38  65  94 126 164 207 259 312 373
#     4  11  25  44  65  93 130 168 211 266 319 376
#     4  12  25  42  67  93 123 164 211 262 318 385
#     4  10  22  40  60  88 124 168 209 256 309 364
#     4  10  22  40  63  91 127 166 210 258 312 375
#
# _framework density 20.197336
#
# number of rings (size 3 to 8) (size 9 to 14) (size 15 to 20)
#    0.000    1.111    2.222    4.000    1.556    5.778 
#    0.000    0.000    0.000    0.000    0.000    0.000 
#    0.000    0.000    0.000    0.000    0.000    0.000 
#
# Total GULP energy -446611.523290 kJ/mol
# GULP energy per Si atom -12405.875647 kJ/mol
# Density = 2.015137 g / cm^3
# Si number density = 20.197336 Si / 1000 Ang^3
#
#
#
# Elastic Constant Matrix: (Units=GPa)
#
#
# Indices 1 2 3 4 5 6 
#
# 1 111.9336 18.2856 45.3299 0.0000 0.0000 0.0000
# 2 18.2856 77.5375 20.9946 0.0000 0.0000 0.0000
# 3 45.3299 20.9946 106.7829 0.0000 0.0000 0.0000
# 4 0.0000 0.0000 0.0000 36.9427 0.0000 0.0000
# 5 0.0000 0.0000 0.0000 0.0000 23.4159 0.0000
# 6 0.0000 0.0000 0.0000 0.0000 0.0000 40.4561
#
#
#
# Elastic Compliance Matrix: (Units=1/GPa)
#
#
# Indices 1 2 3 4 5 6 
#
# 1 0.010930 -0.001396 -0.004365 0.000000 0.000000 0.000000
# 2 -0.001396 0.013800 -0.002121 0.000000 0.000000 0.000000
# 3 -0.004365 -0.002121 0.011635 0.000000 0.000000 0.000000
# 4 0.000000 0.000000 0.000000 0.027069 0.000000 0.000000
# 5 0.000000 0.000000 0.000000 0.000000 0.042706 0.000000
# 6 0.000000 0.000000 0.000000 0.000000 0.000000 0.024718
#
#
# Mechanical properties :
#
#
# Convention : Reuss Voigt Hill
#
# Bulk Modulus (GPa) = 48.54034 51.71936 50.12985
# Shear Modulus (GPa) = 32.57569 34.27254 33.42411
#
# Velocity S-wave (km/s) = 4.02041 4.12379 4.07243
# Velocity P-wave (km/s) = 6.75550 6.95247 6.85469
#
# Compressibility (1/GPa) = 0.02060142
#
# Stress axis : x y z
#
# Youngs Moduli (GPa) = 91.49401 72.46187 85.94848
#
# Poissons Ratio (x) = 0.10112 0.37519
# Poissons Ratio (y) = 0.12768 0.18229
# Poissons Ratio (z) = 0.39940 0.15368
#
# Static dielectric constant tensor:
#      x y z
#    x 3.839040 0.000000 0.000000 
#    y 0.000000 3.911550 0.000000 
#    z 0.000000 0.000000 3.749990 
# 
# 
# High freq. dielectric constant tensor:
#      x y z
#    x 1.793820 0.000000 0.000000 
#    y 0.000000 1.802590 0.000000 
#    z 0.000000 0.000000 1.794290 
# 
# From -- ./inp_files/6149.got.cif
#   From: 2010.03.12/outbox.cif.g09.slc.cpg/sg63_4_cif.got.tgz:6149.got - 2010.04.10 19:34:48.
