data_PCOD8260243
_publ_section_title
;
Structure prediction by ZEFSAII (Michael W. Deem and Ramdas Pophale) SiO2 
 PCOD8260243
Probable space group: C M C M
;
_chemical_formula_sum "Si O2"
_cell_formula_units_Z 112
_cell_length_a 14.402876
_cell_length_b 14.963442
_cell_length_c 26.902297
_cell_angle_alpha 90.000000
_cell_angle_beta 90.000000
_cell_angle_gamma 90.000000
_cell_volume 5797.891572
_symmetry_space_group_name_H-M "C M C M"
_symmetry_group_IT_number 63
_symmetry_cell_setting 'orthorhombic'
loop_
_space_group_symop_operation_xyz
x,y,z
-x,-y,1/2+z
x,-y,-z
-x,y,1/2-z
-x,-y,-z
x,y,1/2-z
-x,y,z
x,-y,1/2+z
1/2+x,1/2+y,z
1/2-x,1/2-y,1/2+z
1/2+x,1/2-y,-z
1/2-x,1/2+y,1/2-z
1/2-x,1/2-y,-z
1/2+x,1/2+y,1/2-z
1/2-x,1/2+y,z
1/2+x,1/2-y,1/2+z
loop_
_atom_site_type_symbol
_atom_site_label
_atom_site_fract_x
_atom_site_fract_y
_atom_site_fract_z
Si Si1 0.691052 0.228604 0.952461
Si Si2 0.895165 0.833556 0.305734
Si Si3 0.608282 0.142514 0.807190
Si Si4 0.240264 0.086903 0.877656
Si Si5 0.760896 0.807741 0.695474
Si Si6 0.239082 0.104382 0.405127
Si Si7 0.104219 0.596405 0.480714
O O1 0.751778 0.174214 0.912209
O O2 0.662788 0.324834 0.927531
O O3 0.750000 0.250000 0.000000
O O4 0.607412 0.166323 0.972571
O O5 0.892923 0.873538 0.250000
O O6 0.849391 0.905212 0.342516
O O7 0.836758 0.742957 0.307687
O O8 0.000000 0.813210 0.322853
O O9 0.619629 0.110438 0.750000
O O10 0.500000 0.144970 0.822754
O O11 0.665298 0.076742 0.844213
O O12 0.652964 0.240560 0.813867
O O13 0.219983 0.000755 0.912480
O O14 0.772022 0.852216 0.750000
O O15 0.756805 0.884327 0.654267
O O16 0.334543 0.128080 0.433839
O O17 0.139039 0.500000 0.500000
O O18 0.000000 0.590441 0.460970
#
# Coordination Sequence:
#
# PCOD8260243 Si02
#       7
#    16  16  16  16  16  16  16
#     4  10  21  38  55  81 111 144 181 227 289 336
#     4   9  18  35  57  79 110 152 195 236 277 328
#     4   9  18  34  56  83 117 152 187 234 288 339
#     4  11  20  35  58  84 112 149 188 235 281 343
#     4   9  18  34  55  83 113 149 189 230 285 342
#     4  11  21  36  57  85 114 152 187 232 287 344
#     4  10  21  38  60  86 113 144 190 242 291 347
#
# _framework density 19.317366
#
# number of rings (size 3 to 8) (size 9 to 14) (size 15 to 20)
#    0.000    2.143    4.286    1.286    0.000    2.857 
#    0.000    1.429    0.000    3.429    0.000    4.000 
#    0.000    0.000    0.000    0.000    0.000    0.000 
#
# Total GULP energy -693779.334028 kJ/mol
# GULP energy per Si atom -12388.916679 kJ/mol
# Density = 1.927340 g / cm^3
# Si number density = 19.317366 Si / 1000 Ang^3
#
#
#
# Elastic Constant Matrix: (Units=GPa)
#
#
# Indices 1 2 3 4 5 6 
#
# 1 83.1964 7.5649 14.3581 0.0000 0.0000 0.0000
# 2 7.5649 71.3370 22.3577 0.0000 0.0000 0.0000
# 3 14.3581 22.3577 92.0321 0.0000 0.0000 0.0000
# 4 0.0000 0.0000 0.0000 32.3363 0.0000 0.0000
# 5 0.0000 0.0000 0.0000 0.0000 21.5380 0.0000
# 6 0.0000 0.0000 0.0000 0.0000 0.0000 12.1308
#
#
#
# Elastic Compliance Matrix: (Units=1/GPa)
#
#
# Indices 1 2 3 4 5 6 
#
# 1 0.012391 -0.000766 -0.001747 0.000000 0.000000 0.000000
# 2 -0.000766 0.015221 -0.003578 0.000000 0.000000 0.000000
# 3 -0.001747 -0.003578 0.012008 0.000000 0.000000 0.000000
# 4 0.000000 0.000000 0.000000 0.030925 0.000000 0.000000
# 5 0.000000 0.000000 0.000000 0.000000 0.046430 0.000000
# 6 0.000000 0.000000 0.000000 0.000000 0.000000 0.082435
#
#
# Mechanical properties :
#
#
# Convention : Reuss Voigt Hill
#
# Bulk Modulus (GPa) = 36.44816 37.23633 36.84224
# Shear Modulus (GPa) = 22.65138 26.68666 24.66902
#
# Velocity S-wave (km/s) = 3.42803 3.72087 3.57744
# Velocity P-wave (km/s) = 5.88027 6.14636 6.01478
#
# Compressibility (1/GPa) = 0.02743623
#
# Stress axis : x y z
#
# Youngs Moduli (GPa) = 80.70420 65.70026 83.28099
#
# Poissons Ratio (x) = 0.05036 0.14549
# Poissons Ratio (y) = 0.06186 0.29798
# Poissons Ratio (z) = 0.14098 0.23508
#
# Static dielectric constant tensor:
#      x y z
#    x 3.372640 0.000000 0.000000 
#    y 0.000000 3.514940 0.000000 
#    z 0.000000 0.000000 3.843650 
# 
# 
# High freq. dielectric constant tensor:
#      x y z
#    x 1.718690 0.000000 0.000000 
#    y 0.000000 1.734480 0.000000 
#    z 0.000000 0.000000 1.771700 
# 
# From -- ./inp_files/69377.got.cif
#   From: 2010.03.12/outbox.cif.g09.slc.cpg/sg63_35_cif.got.tgz:69377.got - 2010.04.10 19:34:48.
