data_PCOD8260612
_publ_section_title
;
Structure prediction by ZEFSAII (Michael W. Deem and Ramdas Pophale) SiO2 
 PCOD8260612
Probable space group: C M C M
;
_chemical_formula_sum "Si O2"
_cell_formula_units_Z 80
_cell_length_a 20.262089
_cell_length_b 12.926262
_cell_length_c 14.172057
_cell_angle_alpha 90.000000
_cell_angle_beta 90.000000
_cell_angle_gamma 90.000000
_cell_volume 3711.846972
_symmetry_space_group_name_H-M "C M C M"
_symmetry_group_IT_number 63
_symmetry_cell_setting 'orthorhombic'
loop_
_space_group_symop_operation_xyz
x,y,z
-x,-y,1/2+z
x,-y,-z
-x,y,1/2-z
-x,-y,-z
x,y,1/2-z
-x,y,z
x,-y,1/2+z
1/2+x,1/2+y,z
1/2-x,1/2-y,1/2+z
1/2+x,1/2-y,-z
1/2-x,1/2+y,1/2-z
1/2-x,1/2-y,-z
1/2+x,1/2+y,1/2-z
1/2-x,1/2+y,z
1/2+x,1/2-y,1/2+z
loop_
_atom_site_type_symbol
_atom_site_label
_atom_site_fract_x
_atom_site_fract_y
_atom_site_fract_z
Si Si1 0.573709 0.419444 0.854962
Si Si2 0.309475 0.436371 0.410031
Si Si3 0.375224 0.254366 0.501881
Si Si4 0.925856 0.596130 0.142441
Si Si5 0.169395 0.411709 0.353822
O O1 0.582187 0.371271 0.750000
O O2 0.500000 0.465750 0.867097
O O3 0.625238 0.513156 0.864974
O O4 0.581966 0.331745 0.933943
O O5 0.286390 0.500000 0.500000
O O6 0.323689 0.318062 0.438519
O O7 0.246443 0.441626 0.341686
O O8 0.420974 0.191804 0.429374
O O9 0.335430 0.179908 0.571514
O O10 0.910970 0.632875 0.250000
O O11 0.874427 0.508108 0.110972
O O12 0.000000 0.550902 0.135268
O O13 0.144020 0.377373 0.250000
#
# Coordination Sequence:
#
# PCOD8260612 Si02
#       5
#    16  16  16  16  16
#     4  10  22  40  62  90 123 158 197 242 294 352
#     4  10  22  39  60  86 119 157 199 245 295 350
#     4  11  22  38  63  91 119 155 199 247 294 350
#     4  10  23  41  61  88 121 158 200 245 294 349
#     4  11  23  40  62  88 120 157 198 244 297 354
#
# _framework density 21.552613000000001
#
# number of rings (size 3 to 8) (size 9 to 14) (size 15 to 20)
#    0.000    1.600    0.000    4.200    0.000   10.000 
#    0.000    8.000    0.000    0.000    0.000    0.000 
#    0.000    0.000    0.000    0.000    0.000    0.000 
#
# Total GULP energy -495941.553344 kJ/mol
# GULP energy per Si atom -12398.538834 kJ/mol
# Density = 2.150356 g / cm^3
# Si number density = 21.552613 Si / 1000 Ang^3
#
#
#
# Elastic Constant Matrix: (Units=GPa)
#
#
# Indices 1 2 3 4 5 6 
#
# 1 154.7537 64.9990 48.0459 0.0000 0.0000 0.0000
# 2 64.9990 115.9982 50.4534 0.0000 0.0000 0.0000
# 3 48.0459 50.4534 107.0008 0.0000 0.0000 0.0000
# 4 0.0000 0.0000 0.0000 24.7174 0.0000 0.0000
# 5 0.0000 0.0000 0.0000 0.0000 31.1521 0.0000
# 6 0.0000 0.0000 0.0000 0.0000 0.0000 16.2232
#
#
#
# Elastic Compliance Matrix: (Units=1/GPa)
#
#
# Indices 1 2 3 4 5 6 
#
# 1 0.008792 -0.004038 -0.002044 0.000000 0.000000 0.000000
# 2 -0.004038 0.012699 -0.004175 0.000000 0.000000 0.000000
# 3 -0.002044 -0.004175 0.012232 0.000000 0.000000 0.000000
# 4 0.000000 0.000000 0.000000 0.040457 0.000000 0.000000
# 5 0.000000 0.000000 0.000000 0.000000 0.032101 0.000000
# 6 0.000000 0.000000 0.000000 0.000000 0.000000 0.061640
#
#
# Mechanical properties :
#
#
# Convention : Reuss Voigt Hill
#
# Bulk Modulus (GPa) = 75.69887 78.30550 77.00218
# Shear Modulus (GPa) = 25.92837 28.70216 27.31526
#
# Velocity S-wave (km/s) = 3.47223 3.65324 3.56388
# Velocity P-wave (km/s) = 7.16060 7.36247 7.26224
#
# Compressibility (1/GPa) = 0.01321024
#
# Stress axis : x y z
#
# Youngs Moduli (GPa) = 113.73448 78.74500 81.75152
#
# Poissons Ratio (x) = 0.31795 0.16711
# Poissons Ratio (y) = 0.45922 0.34131
# Poissons Ratio (z) = 0.23249 0.32876
#
# Static dielectric constant tensor:
#      x y z
#    x 3.799610 0.000000 0.000000 
#    y 0.000000 3.696320 0.000000 
#    z 0.000000 0.000000 4.087150 
# 
# 
# High freq. dielectric constant tensor:
#      x y z
#    x 1.850850 0.000000 0.000000 
#    y 0.000000 1.827550 0.000000 
#    z 0.000000 0.000000 1.865260 
# 
# From -- ./inp_files/36487.got.cif
#   From: 2010.03.12/outbox.cif.g09.slc.cpg/sg63_19_cif.got.tgz:36487.got - 2010.04.10 19:34:48.
