data_PCOD8260008
_publ_section_title
;
Structure prediction by ZEFSAII (Michael W. Deem and Ramdas Pophale) SiO2 
 PCOD8260008
Probable space group: C M C M
;
_chemical_formula_sum "Si O2"
_cell_formula_units_Z 96
_cell_length_a 14.289989
_cell_length_b 23.381048
_cell_length_c 14.378105
_cell_angle_alpha 90.000000
_cell_angle_beta 90.000000
_cell_angle_gamma 90.000000
_cell_volume 4803.939384
_symmetry_space_group_name_H-M "C M C M"
_symmetry_group_IT_number 63
_symmetry_cell_setting 'orthorhombic'
loop_
_space_group_symop_operation_xyz
x,y,z
-x,-y,1/2+z
x,-y,-z
-x,y,1/2-z
-x,-y,-z
x,y,1/2-z
-x,y,z
x,-y,1/2+z
1/2+x,1/2+y,z
1/2-x,1/2-y,1/2+z
1/2+x,1/2-y,-z
1/2-x,1/2+y,1/2-z
1/2-x,1/2-y,-z
1/2+x,1/2+y,1/2-z
1/2-x,1/2+y,z
1/2+x,1/2-y,1/2+z
loop_
_atom_site_type_symbol
_atom_site_label
_atom_site_fract_x
_atom_site_fract_y
_atom_site_fract_z
Si Si1 0.705058 0.139384 0.973302
Si Si2 0.287844 0.029838 0.641553
Si Si3 0.109516 0.586773 0.143071
Si Si4 0.898431 0.025582 0.140678
Si Si5 0.895380 0.852783 0.943857
Si Si6 0.392606 0.232642 0.645435
O O1 0.674592 0.085004 0.912017
O O2 0.665835 0.196622 0.928335
O O3 0.663729 0.131596 0.077239
O O4 0.817573 0.146727 0.975176
O O5 0.283870 0.044893 0.750000
O O6 0.357837 0.977751 0.621611
O O7 0.184865 0.013598 0.600287
O O8 0.132729 0.602728 0.250000
O O9 0.000000 0.590947 0.122399
O O10 0.896102 0.019512 0.250000
O O11 0.880487 0.091441 0.118526
O O12 0.000000 0.004883 0.101585
O O13 0.879842 0.799246 0.876429
O O14 0.000000 0.851200 0.988392
O O15 0.355902 0.221407 0.750000
O O16 0.500000 0.213816 0.636787
#
# Coordination Sequence:
#
# PCOD8260008 Si02
#       6
#    16  16  16  16  16  16
#     4  12  22  36  59  87 116 152 189 243 293 350
#     4  10  21  36  54  82 117 152 190 231 284 346
#     4  10  22  38  55  79 113 153 195 237 287 348
#     4   9  17  32  55  82 112 147 187 231 279 335
#     4  10  21  36  57  84 115 151 194 241 288 339
#     4  10  22  40  61  86 114 149 197 248 294 343
#
# _framework density 19.983599000000002
#
# number of rings (size 3 to 8) (size 9 to 14) (size 15 to 20)
#    0.000    1.833    1.667    2.500    0.000    5.333 
#    0.000    3.333    0.000    1.500    0.000    2.333 
#    0.000    0.000    0.000    0.000    0.000    0.000 
#
# Total GULP energy -595212.221634 kJ/mol
# GULP energy per Si atom -12400.254617 kJ/mol
# Density = 1.993812 g / cm^3
# Si number density = 19.983599 Si / 1000 Ang^3
#
#
#
# Elastic Constant Matrix: (Units=GPa)
#
#
# Indices 1 2 3 4 5 6 
#
# 1 90.5847 13.9107 28.2347 0.0000 0.0000 0.0000
# 2 13.9107 55.1156 21.2947 0.0000 0.0000 0.0000
# 3 28.2347 21.2947 75.1834 0.0000 0.0000 0.0000
# 4 0.0000 0.0000 0.0000 27.6785 0.0000 0.0000
# 5 0.0000 0.0000 0.0000 0.0000 21.4744 0.0000
# 6 0.0000 0.0000 0.0000 0.0000 0.0000 11.7555
#
#
#
# Elastic Compliance Matrix: (Units=1/GPa)
#
#
# Indices 1 2 3 4 5 6 
#
# 1 0.012615 -0.001520 -0.004307 0.000000 0.000000 0.000000
# 2 -0.001520 0.020556 -0.005252 0.000000 0.000000 0.000000
# 3 -0.004307 -0.005252 0.016406 0.000000 0.000000 0.000000
# 4 0.000000 0.000000 0.000000 0.036129 0.000000 0.000000
# 5 0.000000 0.000000 0.000000 0.000000 0.046567 0.000000
# 6 0.000000 0.000000 0.000000 0.000000 0.000000 0.085066
#
#
# Mechanical properties :
#
#
# Convention : Reuss Voigt Hill
#
# Bulk Modulus (GPa) = 36.46933 38.64045 37.55489
# Shear Modulus (GPa) = 20.10962 22.67790 21.39376
#
# Velocity S-wave (km/s) = 3.17567 3.37237 3.27550
# Velocity P-wave (km/s) = 5.63345 5.87724 5.75664
#
# Compressibility (1/GPa) = 0.02742030
#
# Stress axis : x y z
#
# Youngs Moduli (GPa) = 79.26883 48.64686 60.95426
#
# Poissons Ratio (x) = 0.07394 0.26254
# Poissons Ratio (y) = 0.12048 0.32010
# Poissons Ratio (z) = 0.34142 0.25547
#
# Static dielectric constant tensor:
#      x y z
#    x 4.049230 0.000000 0.000000 
#    y 0.000000 3.427180 0.000000 
#    z 0.000000 0.000000 3.534940 
# 
# 
# High freq. dielectric constant tensor:
#      x y z
#    x 1.790780 0.000000 0.000000 
#    y 0.000000 1.767960 0.000000 
#    z 0.000000 0.000000 1.773440 
# 
# From -- ./inp_files/31847.got.cif
#   From: 2010.03.12/outbox.cif.g09.slc.cpg/sg63_16_cif.got.tgz:31847.got - 2010.04.10 19:34:48.
