data_PCOD8260527
_publ_section_title
;
Structure prediction by ZEFSAII (Michael W. Deem and Ramdas Pophale) SiO2 
 PCOD8260527
Probable space group: C M C M
;
_chemical_formula_sum "Si O2"
_cell_formula_units_Z 96
_cell_length_a 11.693165
_cell_length_b 33.128494
_cell_length_c 14.067282
_cell_angle_alpha 90.000000
_cell_angle_beta 90.000000
_cell_angle_gamma 90.000000
_cell_volume 5449.340747
_symmetry_space_group_name_H-M "C M C M"
_symmetry_group_IT_number 63
_symmetry_cell_setting 'orthorhombic'
loop_
_space_group_symop_operation_xyz
x,y,z
-x,-y,1/2+z
x,-y,-z
-x,y,1/2-z
-x,-y,-z
x,y,1/2-z
-x,y,z
x,-y,1/2+z
1/2+x,1/2+y,z
1/2-x,1/2-y,1/2+z
1/2+x,1/2-y,-z
1/2-x,1/2+y,1/2-z
1/2-x,1/2-y,-z
1/2+x,1/2+y,1/2-z
1/2-x,1/2+y,z
1/2+x,1/2-y,1/2+z
loop_
_atom_site_type_symbol
_atom_site_label
_atom_site_fract_x
_atom_site_fract_y
_atom_site_fract_z
Si Si1 0.864423 0.566598 0.994883
Si Si2 0.250216 0.288344 0.139299
Si Si3 0.500000 0.821766 0.863097
Si Si4 0.630957 0.296212 0.640048
Si Si5 0.135164 0.498107 0.645658
Si Si6 0.290022 0.847027 0.978829
Si Si7 0.500000 0.267991 0.361465
O O1 0.831512 0.542701 0.090767
O O2 0.786008 0.606451 0.989399
O O3 0.000000 0.576791 0.990227
O O4 0.824224 0.538586 0.907486
O O5 0.229662 0.299251 0.250000
O O6 0.205981 0.243368 0.117661
O O7 0.384387 0.291323 0.109410
O O8 0.184952 0.320515 0.073526
O O9 0.500000 0.824045 0.750000
O O10 0.389336 0.844165 0.901446
O O11 0.500000 0.776621 0.905578
O O12 0.643917 0.308634 0.750000
O O13 0.500000 0.286667 0.613769
O O14 0.674340 0.332741 0.573919
O O15 0.191675 0.496848 0.750000
O O16 0.000000 0.500135 0.651674
O O17 0.500000 0.261274 0.250000
#
# Coordination Sequence:
#
# PCOD8260527 Si02
#       7
#    16  16   8  16  16  16   8
#     4   9  18  31  45  76 106 125 169 203 237 316
#     4  10  22  36  52  74 101 139 184 222 261 308
#     4  11  22  34  51  76 102 134 180 226 261 300
#     4  10  22  37  51  72 103 139 182 224 259 305
#     4   8  15  30  51  70  99 136 158 193 252 306
#     4  12  22  32  53  76 107 139 172 216 266 299
#     4   9  18  36  54  71  96 131 183 228 254 302
#
# _framework density 17.616809
#
# number of rings (size 3 to 8) (size 9 to 14) (size 15 to 20)
#    0.000    2.167    2.500    2.000    2.333    2.000 
#    0.000    0.000    0.000    0.000    0.000    2.333 
#    0.000    1.333    0.000    0.000    0.000    0.000 
#
# Total GULP energy -595076.412101 kJ/mol
# GULP energy per Si atom -12397.425252 kJ/mol
# Density = 1.757671 g / cm^3
# Si number density = 17.616809 Si / 1000 Ang^3
#
#
#
# Elastic Constant Matrix: (Units=GPa)
#
#
# Indices 1 2 3 4 5 6 
#
# 1 66.9635 21.6656 28.5623 0.0000 0.0000 0.0000
# 2 21.6656 112.5215 46.2564 0.0000 0.0000 0.0000
# 3 28.5623 46.2564 86.2710 0.0000 0.0000 0.0000
# 4 0.0000 0.0000 0.0000 9.8358 0.0000 0.0000
# 5 0.0000 0.0000 0.0000 0.0000 21.8412 0.0000
# 6 0.0000 0.0000 0.0000 0.0000 0.0000 21.3456
#
#
#
# Elastic Compliance Matrix: (Units=1/GPa)
#
#
# Indices 1 2 3 4 5 6 
#
# 1 0.017529 -0.001269 -0.005123 0.000000 0.000000 0.000000
# 2 -0.001269 0.011492 -0.005741 0.000000 0.000000 0.000000
# 3 -0.005123 -0.005741 0.016366 0.000000 0.000000 0.000000
# 4 0.000000 0.000000 0.000000 0.101670 0.000000 0.000000
# 5 0.000000 0.000000 0.000000 0.000000 0.045785 0.000000
# 6 0.000000 0.000000 0.000000 0.000000 0.000000 0.046848
#
#
# Mechanical properties :
#
#
# Convention : Reuss Voigt Hill
#
# Bulk Modulus (GPa) = 47.34908 50.96940 49.15924
# Shear Modulus (GPa) = 18.45038 21.88929 20.16984
#
# Velocity S-wave (km/s) = 3.23974 3.52877 3.38734
# Velocity P-wave (km/s) = 6.39766 6.75263 6.57754
#
# Compressibility (1/GPa) = 0.02111974
#
# Stress axis : x y z
#
# Youngs Moduli (GPa) = 57.04734 87.01855 61.10265
#
# Poissons Ratio (x) = 0.11044 0.31303
# Poissons Ratio (y) = 0.07240 0.35082
# Poissons Ratio (z) = 0.29226 0.49961
#
# Static dielectric constant tensor:
#      x y z
#    x 1.589520 0.000000 0.000000 
#    y 0.000000 3.118350 0.000000 
#    z 0.000000 0.000000 3.771890 
# 
# 
# High freq. dielectric constant tensor:
#      x y z
#    x 1.644300 0.000000 0.000000 
#    y 0.000000 1.659730 0.000000 
#    z 0.000000 0.000000 1.698750 
# 
# From -- ./inp_files/30339.got.cif
#   From: 2010.03.12/outbox.cif.g09.slc.cpg/sg63_16_cif.got.tgz:30339.got - 2010.04.10 19:34:48.
