data_PCOD8260479
_publ_section_title
;
Structure prediction by ZEFSAII (Michael W. Deem and Ramdas Pophale) SiO2 
 PCOD8260479
Probable space group: C M C M
;
_chemical_formula_sum "Si O2"
_cell_formula_units_Z 96
_cell_length_a 13.893220
_cell_length_b 21.951717
_cell_length_c 14.891478
_cell_angle_alpha 90.000000
_cell_angle_beta 90.000000
_cell_angle_gamma 90.000000
_cell_volume 4541.603462
_symmetry_space_group_name_H-M "C M C M"
_symmetry_group_IT_number 63
_symmetry_cell_setting 'orthorhombic'
loop_
_space_group_symop_operation_xyz
x,y,z
-x,-y,1/2+z
x,-y,-z
-x,y,1/2-z
-x,-y,-z
x,y,1/2-z
-x,y,z
x,-y,1/2+z
1/2+x,1/2+y,z
1/2-x,1/2-y,1/2+z
1/2+x,1/2-y,-z
1/2-x,1/2+y,1/2-z
1/2-x,1/2-y,-z
1/2+x,1/2+y,1/2-z
1/2-x,1/2+y,z
1/2+x,1/2-y,1/2+z
loop_
_atom_site_type_symbol
_atom_site_label
_atom_site_fract_x
_atom_site_fract_y
_atom_site_fract_z
Si Si1 0.106802 0.479416 0.356201
Si Si2 0.605219 0.669124 0.591003
Si Si3 0.892608 0.061485 0.449919
Si Si4 0.290358 0.901111 0.855072
Si Si5 0.889584 0.696377 0.022865
Si Si6 0.194043 0.645094 0.650469
O O1 0.105550 0.484851 0.250000
O O2 0.145918 0.543188 0.393904
O O3 0.175100 0.423537 0.385141
O O4 0.000000 0.467789 0.394755
O O5 0.500000 0.669355 0.639629
O O6 0.607626 0.617053 0.517740
O O7 0.623828 0.733090 0.543180
O O8 0.691554 0.656501 0.659927
O O9 0.820471 0.079481 0.369731
O O10 0.000000 0.051916 0.409474
O O11 0.858776 0.000000 0.500000
O O12 0.307137 0.887672 0.750000
O O13 0.320897 0.841694 0.910769
O O14 0.000000 0.675307 0.035039
O O15 0.856561 0.690014 0.919572
O O16 0.149080 0.654989 0.750000
#
# Coordination Sequence:
#
# PCOD8260479 Si02
#       6
#    16  16  16  16  16  16
#     4   9  19  36  57  87 124 157 197 250 302 362
#     4  10  22  42  63  87 124 164 210 262 311 373
#     4  10  21  40  66  91 122 166 214 265 321 378
#     4  11  23  38  63  95 127 166 211 259 315 376
#     4  11  24  41  62  90 128 170 208 254 314 379
#     4  11  22  38  63  91 123 162 207 256 311 371
#
# _framework density 21.137909000000001
#
# number of rings (size 3 to 8) (size 9 to 14) (size 15 to 20)
#    0.000    1.667    1.667    2.500    0.000    3.333 
#    0.000    3.333    0.000    9.000    0.000    0.000 
#    0.000    0.000    0.000    0.000    0.000    0.000 
#
# Total GULP energy -595105.062505 kJ/mol
# GULP energy per Si atom -12398.022136 kJ/mol
# Density = 2.108980 g / cm^3
# Si number density = 21.137909 Si / 1000 Ang^3
#
#
#
# Elastic Constant Matrix: (Units=GPa)
#
#
# Indices 1 2 3 4 5 6 
#
# 1 123.7942 50.6156 33.5438 0.0000 0.0000 0.0000
# 2 50.6156 141.3947 37.3015 0.0000 0.0000 0.0000
# 3 33.5438 37.3015 77.9902 0.0000 0.0000 0.0000
# 4 0.0000 0.0000 0.0000 16.2966 0.0000 0.0000
# 5 0.0000 0.0000 0.0000 0.0000 56.1640 0.0000
# 6 0.0000 0.0000 0.0000 0.0000 0.0000 27.3188
#
#
#
# Elastic Compliance Matrix: (Units=1/GPa)
#
#
# Indices 1 2 3 4 5 6 
#
# 1 0.010031 -0.002807 -0.002972 0.000000 0.000000 0.000000
# 2 -0.002807 0.008879 -0.003039 0.000000 0.000000 0.000000
# 3 -0.002972 -0.003039 0.015554 0.000000 0.000000 0.000000
# 4 0.000000 0.000000 0.000000 0.061362 0.000000 0.000000
# 5 0.000000 0.000000 0.000000 0.000000 0.017805 0.000000
# 6 0.000000 0.000000 0.000000 0.000000 0.000000 0.036605
#
#
# Mechanical properties :
#
#
# Convention : Reuss Voigt Hill
#
# Bulk Modulus (GPa) = 59.42595 65.12233 62.27414
# Shear Modulus (GPa) = 28.82151 34.73709 31.77930
#
# Velocity S-wave (km/s) = 3.69656 4.05823 3.88161
# Velocity P-wave (km/s) = 6.81131 7.26871 7.04372
#
# Compressibility (1/GPa) = 0.01682767
#
# Stress axis : x y z
#
# Youngs Moduli (GPa) = 99.69315 112.62532 64.29189
#
# Poissons Ratio (x) = 0.31611 0.19106
# Poissons Ratio (y) = 0.27981 0.19542
# Poissons Ratio (z) = 0.29627 0.34232
#
# Static dielectric constant tensor:
#      x y z
#    x 4.385800 0.000000 0.000000 
#    y 0.000000 3.921270 0.000000 
#    z 0.000000 0.000000 3.466960 
# 
# 
# High freq. dielectric constant tensor:
#      x y z
#    x 1.844760 0.000000 0.000000 
#    y 0.000000 1.838830 0.000000 
#    z 0.000000 0.000000 1.802740 
# 
# From -- ./inp_files/31915.got.cif
#   From: 2010.03.12/outbox.cif.g09.slc.cpg/sg63_16_cif.got.tgz:31915.got - 2010.04.10 19:34:48.
