data_PCOD8260349
_publ_section_title
;
Structure prediction by ZEFSAII (Michael W. Deem and Ramdas Pophale) SiO2 
 PCOD8260349
Probable space group: C M C M
;
_chemical_formula_sum "Si O2"
_cell_formula_units_Z 96
_cell_length_a 15.506561
_cell_length_b 22.428029
_cell_length_c 13.315126
_cell_angle_alpha 90.000000
_cell_angle_beta 90.000000
_cell_angle_gamma 90.000000
_cell_volume 4630.755822
_symmetry_space_group_name_H-M "C M C M"
_symmetry_group_IT_number 63
_symmetry_cell_setting 'orthorhombic'
loop_
_space_group_symop_operation_xyz
x,y,z
-x,-y,1/2+z
x,-y,-z
-x,y,1/2-z
-x,-y,-z
x,y,1/2-z
-x,y,z
x,-y,1/2+z
1/2+x,1/2+y,z
1/2-x,1/2-y,1/2+z
1/2+x,1/2-y,-z
1/2-x,1/2+y,1/2-z
1/2-x,1/2-y,-z
1/2+x,1/2+y,1/2-z
1/2-x,1/2+y,z
1/2+x,1/2-y,1/2+z
loop_
_atom_site_type_symbol
_atom_site_label
_atom_site_fract_x
_atom_site_fract_y
_atom_site_fract_z
Si Si1 0.594422 0.014628 0.132087
Si Si2 0.673794 0.565025 0.535444
Si Si3 0.664282 0.111787 0.866254
Si Si4 0.500000 0.733222 0.867404
Si Si5 0.500000 0.407800 0.363382
Si Si6 0.666587 0.788759 0.530011
Si Si7 0.765301 0.607475 0.137062
O O1 0.599440 0.021651 0.250000
O O2 0.500000 0.034174 0.092332
O O3 0.667192 0.059238 0.089979
O O4 0.607820 0.945757 0.101070
O O5 0.701957 0.500000 0.500000
O O6 0.736159 0.592287 0.620909
O O7 0.579383 0.564244 0.578582
O O8 0.681404 0.605747 0.434762
O O9 0.648016 0.129380 0.750000
O O10 0.640825 0.168564 0.935900
O O11 0.500000 0.756493 0.750000
O O12 0.500000 0.662704 0.865768
O O13 0.415597 0.751689 0.931399
O O14 0.500000 0.431792 0.250000
O O15 0.750000 0.750000 0.500000
O O16 0.691974 0.827789 0.627470
O O17 0.737059 0.593674 0.250000
#
# Coordination Sequence:
#
# PCOD8260349 Si02
#       7
#    16  16  16   8   8  16  16
#     4   9  18  33  58  93 126 159 196 234 293 377
#     4  11  21  38  61  94 124 156 202 260 315 383
#     4  10  21  39  64  92 129 168 202 246 314 385
#     4  11  24  45  68  91 123 170 226 277 321 378
#     4  11  25  43  66  86 114 160 216 274 325 374
#     4  11  25  41  61  92 127 167 222 272 314 375
#     4  10  21  38  62  91 127 164 199 252 315 376
#
# _framework density 20.730957
#
# number of rings (size 3 to 8) (size 9 to 14) (size 15 to 20)
#    0.000    1.667    1.667    3.250    2.333    3.333 
#    0.000    3.750    0.000    1.000    0.000    0.000 
#    0.000    0.000    0.000    0.000    0.000    0.000 
#
# Total GULP energy -594809.778750 kJ/mol
# GULP energy per Si atom -12391.870391 kJ/mol
# Density = 2.068377 g / cm^3
# Si number density = 20.730957 Si / 1000 Ang^3
#
#
#
# Elastic Constant Matrix: (Units=GPa)
#
#
# Indices 1 2 3 4 5 6 
#
# 1 108.4638 12.2277 37.5618 0.0000 0.0000 0.0000
# 2 12.2277 74.9585 23.4726 0.0000 0.0000 0.0000
# 3 37.5618 23.4726 103.2904 0.0000 0.0000 0.0000
# 4 0.0000 0.0000 0.0000 30.3510 0.0000 0.0000
# 5 0.0000 0.0000 0.0000 0.0000 24.4384 0.0000
# 6 0.0000 0.0000 0.0000 0.0000 0.0000 29.4212
#
#
#
# Elastic Compliance Matrix: (Units=1/GPa)
#
#
# Indices 1 2 3 4 5 6 
#
# 1 0.010570 -0.000560 -0.003716 0.000000 0.000000 0.000000
# 2 -0.000560 0.014392 -0.003067 0.000000 0.000000 0.000000
# 3 -0.003716 -0.003067 0.011730 0.000000 0.000000 0.000000
# 4 0.000000 0.000000 0.000000 0.032948 0.000000 0.000000
# 5 0.000000 0.000000 0.000000 0.000000 0.040919 0.000000
# 6 0.000000 0.000000 0.000000 0.000000 0.000000 0.033989
#
#
# Mechanical properties :
#
#
# Convention : Reuss Voigt Hill
#
# Bulk Modulus (GPa) = 45.44467 48.13744 46.79105
# Shear Modulus (GPa) = 30.01729 31.07217 30.54473
#
# Velocity S-wave (km/s) = 3.80932 3.87567 3.84264
# Velocity P-wave (km/s) = 6.42780 6.58014 6.50442
#
# Compressibility (1/GPa) = 0.02200478
#
# Stress axis : x y z
#
# Youngs Moduli (GPa) = 94.60864 69.48065 85.25256
#
# Poissons Ratio (x) = 0.03894 0.31683
# Poissons Ratio (y) = 0.05303 0.26146
# Poissons Ratio (z) = 0.35160 0.21309
#
# Static dielectric constant tensor:
#      x y z
#    x 3.711370 0.000000 0.000000 
#    y 0.000000 3.777960 0.000000 
#    z 0.000000 0.000000 3.902100 
# 
# 
# High freq. dielectric constant tensor:
#      x y z
#    x 1.800910 0.000000 0.000000 
#    y 0.000000 1.806920 0.000000 
#    z 0.000000 0.000000 1.827180 
# 
# From -- ./inp_files/31979.got.cif
#   From: 2010.03.12/outbox.cif.g09.slc.cpg/sg63_16_cif.got.tgz:31979.got - 2010.04.10 19:34:48.
