data_PCOD8260446
_publ_section_title
;
Structure prediction by ZEFSAII (Michael W. Deem and Ramdas Pophale) SiO2 
 PCOD8260446
Probable space group: C M C M
;
_chemical_formula_sum "Si O2"
_cell_formula_units_Z 112
_cell_length_a 27.157139
_cell_length_b 12.491640
_cell_length_c 15.736639
_cell_angle_alpha 90.000000
_cell_angle_beta 90.000000
_cell_angle_gamma 90.000000
_cell_volume 5338.453412
_symmetry_space_group_name_H-M "C M C M"
_symmetry_group_IT_number 63
_symmetry_cell_setting 'orthorhombic'
loop_
_space_group_symop_operation_xyz
x,y,z
-x,-y,1/2+z
x,-y,-z
-x,y,1/2-z
-x,-y,-z
x,y,1/2-z
-x,y,z
x,-y,1/2+z
1/2+x,1/2+y,z
1/2-x,1/2-y,1/2+z
1/2+x,1/2-y,-z
1/2-x,1/2+y,1/2-z
1/2-x,1/2-y,-z
1/2+x,1/2+y,1/2-z
1/2-x,1/2+y,z
1/2+x,1/2-y,1/2+z
loop_
_atom_site_type_symbol
_atom_site_label
_atom_site_fract_x
_atom_site_fract_y
_atom_site_fract_z
Si Si1 0.615004 0.650153 0.656411
Si Si2 0.942890 0.190475 0.012310
Si Si3 0.306929 0.800924 0.908238
Si Si4 0.382876 0.409675 0.844499
Si Si5 0.843741 0.480814 0.154096
Si Si6 0.554997 0.923077 0.079201
Si Si7 0.196056 0.256173 0.398685
O O1 0.589794 0.661327 0.750000
O O2 0.576471 0.676794 0.582923
O O3 0.660147 0.732183 0.655326
O O4 0.636505 0.530631 0.644813
O O5 0.922455 0.106816 0.081031
O O6 0.928748 0.307294 0.046179
O O7 0.000000 0.170496 0.006764
O O8 0.250935 0.784026 0.880665
O O9 0.322722 0.925692 0.906361
O O10 0.316690 0.755167 0.001980
O O11 0.406406 0.393221 0.750000
O O12 0.337796 0.328944 0.851778
O O13 0.835436 0.518500 0.250000
O O14 0.902507 0.462528 0.142611
O O15 0.812330 0.374307 0.137828
O O16 0.500000 0.920125 0.122232
O O17 0.552669 0.000000 0.000000
#
# Coordination Sequence:
#
# PCOD8260446 Si02
#       7
#    16  16  16  16  16  16  16
#     4  11  24  42  65  95 134 172 217 271 324 391
#     4  11  23  42  68  96 130 172 219 272 329 396
#     4  11  25  43  67  96 126 175 227 269 324 399
#     4  11  24  42  65  95 131 171 218 271 326 391
#     4  12  24  40  65  96 136 170 213 278 332 395
#     4  10  21  39  65  93 126 170 219 269 326 387
#     4  11  24  43  67  92 129 173 221 271 330 392
#
# _framework density 20.979859999999999
#
# number of rings (size 3 to 8) (size 9 to 14) (size 15 to 20)
#    0.000    1.000    2.857    3.429    2.000    4.286 
#    0.000    2.857    0.000    4.286    0.000    0.000 
#    0.000    0.000    0.000    0.000    0.000    0.000 
#
# Total GULP energy -694476.890980 kJ/mol
# GULP energy per Si atom -12401.373053 kJ/mol
# Density = 2.093211 g / cm^3
# Si number density = 20.979860 Si / 1000 Ang^3
#
#
#
# Elastic Constant Matrix: (Units=GPa)
#
#
# Indices 1 2 3 4 5 6 
#
# 1 114.8743 53.2378 50.3481 0.0000 0.0000 0.0000
# 2 53.2378 129.4210 20.0538 0.0000 0.0000 0.0000
# 3 50.3481 20.0538 109.9458 0.0000 0.0000 0.0000
# 4 0.0000 0.0000 0.0000 22.1965 0.0000 0.0000
# 5 0.0000 0.0000 0.0000 0.0000 17.7325 0.0000
# 6 0.0000 0.0000 0.0000 0.0000 0.0000 32.8900
#
#
#
# Elastic Compliance Matrix: (Units=1/GPa)
#
#
# Indices 1 2 3 4 5 6 
#
# 1 0.013091 -0.004586 -0.005159 0.000000 0.000000 0.000000
# 2 -0.004586 0.009558 0.000357 0.000000 0.000000 0.000000
# 3 -0.005159 0.000357 0.011393 0.000000 0.000000 0.000000
# 4 0.000000 0.000000 0.000000 0.045052 0.000000 0.000000
# 5 0.000000 0.000000 0.000000 0.000000 0.056394 0.000000
# 6 0.000000 0.000000 0.000000 0.000000 0.000000 0.030404
#
#
# Mechanical properties :
#
#
# Convention : Reuss Voigt Hill
#
# Bulk Modulus (GPa) = 65.50327 66.83563 66.16945
# Shear Modulus (GPa) = 26.34957 29.93722 28.14340
#
# Velocity S-wave (km/s) = 3.54778 3.78160 3.66655
# Velocity P-wave (km/s) = 6.93340 7.14097 7.03795
#
# Compressibility (1/GPa) = 0.01526641
#
# Stress axis : x y z
#
# Youngs Moduli (GPa) = 76.38597 104.62591 87.77607
#
# Poissons Ratio (x) = 0.47980 0.45280
# Poissons Ratio (y) = 0.35030 -0.03131
# Poissons Ratio (z) = 0.39404 -0.03732
#
# Static dielectric constant tensor:
#      x y z
#    x 3.902390 0.000000 0.000000 
#    y 0.000000 3.905900 0.000000 
#    z 0.000000 0.000000 3.873110 
# 
# 
# High freq. dielectric constant tensor:
#      x y z
#    x 1.816550 0.000000 0.000000 
#    y 0.000000 1.838330 0.000000 
#    z 0.000000 0.000000 1.826820 
# 
# From -- ./inp_files/38516.got.cif
#   From: 2010.03.12/outbox.cif.g09.slc.cpg/sg63_20_cif.got.tgz:38516.got - 2010.04.10 19:34:48.
