data_PCOD8260978
_publ_section_title
;
Structure prediction by ZEFSAII (Michael W. Deem and Ramdas Pophale) SiO2 
 PCOD8260978
Probable space group: C M C M
;
_chemical_formula_sum "Si O2"
_cell_formula_units_Z 80
_cell_length_a 9.028047
_cell_length_b 27.323359
_cell_length_c 18.708002
_cell_angle_alpha 90.000000
_cell_angle_beta 90.000000
_cell_angle_gamma 90.000000
_cell_volume 4614.825751
_symmetry_space_group_name_H-M "C M C M"
_symmetry_group_IT_number 63
_symmetry_cell_setting 'orthorhombic'
loop_
_space_group_symop_operation_xyz
x,y,z
-x,-y,1/2+z
x,-y,-z
-x,y,1/2-z
-x,-y,-z
x,y,1/2-z
-x,y,z
x,-y,1/2+z
1/2+x,1/2+y,z
1/2-x,1/2-y,1/2+z
1/2+x,1/2-y,-z
1/2-x,1/2+y,1/2-z
1/2-x,1/2-y,-z
1/2+x,1/2+y,1/2-z
1/2-x,1/2+y,z
1/2+x,1/2-y,1/2+z
loop_
_atom_site_type_symbol
_atom_site_label
_atom_site_fract_x
_atom_site_fract_y
_atom_site_fract_z
Si Si1 0.325533 0.223999 0.603434
Si Si2 0.326036 0.678701 0.470497
Si Si3 0.174559 0.929296 0.965132
Si Si4 0.823974 0.431878 0.250000
Si Si5 0.324247 0.475545 0.111653
Si Si6 0.175880 0.679764 0.750000
O O1 0.500000 0.215898 0.598708
O O2 0.283024 0.280786 0.588849
O O3 0.252843 0.189233 0.545006
O O4 0.262909 0.208402 0.680634
O O5 0.500000 0.679140 0.485774
O O6 0.272918 0.625294 0.443087
O O7 0.000000 0.933448 0.967177
O O8 0.228442 0.968846 0.906721
O O9 0.228541 0.941827 0.045342
O O10 0.763162 0.459058 0.319094
O O11 0.766531 0.375896 0.250000
O O12 0.000000 0.434225 0.250000
O O13 0.500000 0.472050 0.125712
O O14 0.000000 0.680852 0.750000
#
# Coordination Sequence:
#
# PCOD8260978 Si02
#       6
#    16  16  16   8  16   8
#     4   9  17  29  45  65  90 119 149 180 216 259
#     4   9  16  28  47  69  90 112 145 186 222 258
#     4   8  15  29  49  70  89 113 148 189 225 261
#     4  11  21  31  44  65  93 119 147 183 220 263
#     4   9  17  31  49  67  90 118 148 182 224 269
#     4   9  18  31  44  61  89 121 147 175 216 263
#
# _framework density 17.335432000000001
#
# number of rings (size 3 to 8) (size 9 to 14) (size 15 to 20)
#    0.000    3.000    0.000    2.700    0.000    0.000 
#    0.000    5.500    0.000    4.800    0.000    0.000 
#    0.000    0.000    0.000    0.000    0.000    0.000 
#
# Total GULP energy -495778.335752 kJ/mol
# GULP energy per Si atom -12394.458394 kJ/mol
# Density = 1.729598 g / cm^3
# Si number density = 17.335432 Si / 1000 Ang^3
#
#
#
# Elastic Constant Matrix: (Units=GPa)
#
#
# Indices 1 2 3 4 5 6 
#
# 1 26.8200 28.0692 29.9957 0.0000 0.0000 0.0000
# 2 28.0692 167.5836 87.4877 0.0000 0.0000 0.0000
# 3 29.9957 87.4877 146.3629 0.0000 0.0000 0.0000
# 4 0.0000 0.0000 0.0000 22.8289 0.0000 0.0000
# 5 0.0000 0.0000 0.0000 0.0000 21.1311 0.0000
# 6 0.0000 0.0000 0.0000 0.0000 0.0000 17.7341
#
#
#
# Elastic Compliance Matrix: (Units=1/GPa)
#
#
# Indices 1 2 3 4 5 6 
#
# 1 0.050554 -0.004446 -0.007703 0.000000 0.000000 0.000000
# 2 -0.004446 0.009065 -0.004507 0.000000 0.000000 0.000000
# 3 -0.007703 -0.004507 0.011105 0.000000 0.000000 0.000000
# 4 0.000000 0.000000 0.000000 0.043804 0.000000 0.000000
# 5 0.000000 0.000000 0.000000 0.000000 0.047324 0.000000
# 6 0.000000 0.000000 0.000000 0.000000 0.000000 0.056389
#
#
# Mechanical properties :
#
#
# Convention : Reuss Voigt Hill
#
# Bulk Modulus (GPa) = 26.72995 70.20799 48.46897
# Shear Modulus (GPa) = 18.93773 25.35308 22.14540
#
# Velocity S-wave (km/s) = 3.30878 3.82841 3.57804
# Velocity P-wave (km/s) = 5.48179 7.75435 6.71491
#
# Compressibility (1/GPa) = 0.03741122
#
# Stress axis : x y z
#
# Youngs Moduli (GPa) = 19.78093 110.31516 90.04794
#
# Poissons Ratio (x) = 0.49047 0.69363
# Poissons Ratio (y) = 0.08795 0.40588
# Poissons Ratio (z) = 0.15237 0.49723
#
# Static dielectric constant tensor:
#      x y z
#    x 2.912710 0.000000 0.000000 
#    y 0.000000 3.840850 0.000000 
#    z 0.000000 0.000000 3.268580 
# 
# 
# High freq. dielectric constant tensor:
#      x y z
#    x 1.637130 0.000000 0.000000 
#    y 0.000000 1.684100 0.000000 
#    z 0.000000 0.000000 1.659010 
# 
# From -- ./inp_files/40641.got.cif
#   From: 2010.03.12/outbox.cif.g09.slc.cpg/sg63_21_cif.got.tgz:40641.got - 2010.04.10 19:34:48.
