data_PCOD8260915
_publ_section_title
;
Structure prediction by ZEFSAII (Michael W. Deem and Ramdas Pophale) SiO2 
 PCOD8260915
Probable space group: C M C M
;
_chemical_formula_sum "Si O2"
_cell_formula_units_Z 96
_cell_length_a 25.361340
_cell_length_b 11.535265
_cell_length_c 18.431443
_cell_angle_alpha 90.000000
_cell_angle_beta 90.000000
_cell_angle_gamma 90.000000
_cell_volume 5392.114552
_symmetry_space_group_name_H-M "C M C M"
_symmetry_group_IT_number 63
_symmetry_cell_setting 'orthorhombic'
loop_
_space_group_symop_operation_xyz
x,y,z
-x,-y,1/2+z
x,-y,-z
-x,y,1/2-z
-x,-y,-z
x,y,1/2-z
-x,y,z
x,-y,1/2+z
1/2+x,1/2+y,z
1/2-x,1/2-y,1/2+z
1/2+x,1/2-y,-z
1/2-x,1/2+y,1/2-z
1/2-x,1/2-y,-z
1/2+x,1/2+y,1/2-z
1/2-x,1/2+y,z
1/2+x,1/2-y,1/2+z
loop_
_atom_site_type_symbol
_atom_site_label
_atom_site_fract_x
_atom_site_fract_y
_atom_site_fract_z
Si Si1 0.183794 0.560413 0.076413
Si Si2 0.215557 0.182912 0.441902
Si Si3 0.442602 0.477986 0.085253
Si Si4 0.061190 0.234878 0.098426
Si Si5 0.842841 0.652465 0.666079
Si Si6 0.376268 0.712953 0.961347
O O1 0.247096 0.579574 0.087167
O O2 0.164283 0.480304 0.141555
O O3 0.151924 0.681454 0.080004
O O4 0.171818 0.500000 0.000000
O O5 0.250000 0.250000 0.500000
O O6 0.198332 0.266512 0.376564
O O7 0.163692 0.141351 0.485463
O O8 0.500000 0.436529 0.113934
O O9 0.427982 0.600688 0.121948
O O10 0.399554 0.376234 0.099036
O O11 0.446205 0.500000 0.000000
O O12 0.096538 0.312706 0.151559
O O13 0.000000 0.268110 0.108245
O O14 0.077166 0.259086 0.014324
O O15 0.829358 0.663174 0.750000
#
# Coordination Sequence:
#
# PCOD8260915 Si02
#       6
#    16  16  16  16  16  16
#     4  11  19  35  55  78 110 145 182 221 273 321
#     4   9  18  33  53  76 101 142 180 219 264 319
#     4   8  14  26  47  77 110 133 168 224 274 309
#     4   9  17  32  53  79 110 144 179 223 276 324
#     4  11  23  38  54  80 111 142 183 228 272 328
#     4   9  16  29  51  84 105 136 177 227 269 315
#
# _framework density 17.803775999999999
#
# number of rings (size 3 to 8) (size 9 to 14) (size 15 to 20)
#    0.000    2.500    5.000    1.500    0.000    4.333 
#    0.000    2.500    0.000    1.000    0.000    0.000 
#    0.000    0.000    0.000    0.000    0.000    0.000 
#
# Total GULP energy -594778.944110 kJ/mol
# GULP energy per Si atom -12391.228002 kJ/mol
# Density = 1.776325 g / cm^3
# Si number density = 17.803776 Si / 1000 Ang^3
#
#
#
# Elastic Constant Matrix: (Units=GPa)
#
#
# Indices 1 2 3 4 5 6 
#
# 1 124.5522 64.2028 37.2463 0.0000 0.0000 0.0000
# 2 64.2028 94.8172 22.2382 0.0000 0.0000 0.0000
# 3 37.2463 22.2382 67.5679 0.0000 0.0000 0.0000
# 4 0.0000 0.0000 0.0000 13.8062 0.0000 0.0000
# 5 0.0000 0.0000 0.0000 0.0000 11.4083 0.0000
# 6 0.0000 0.0000 0.0000 0.0000 0.0000 34.1143
#
#
#
# Elastic Compliance Matrix: (Units=1/GPa)
#
#
# Indices 1 2 3 4 5 6 
#
# 1 0.013664 -0.008112 -0.004863 0.000000 0.000000 0.000000
# 2 -0.008112 0.016245 -0.000875 0.000000 0.000000 0.000000
# 3 -0.004863 -0.000875 0.017768 0.000000 0.000000 0.000000
# 4 0.000000 0.000000 0.000000 0.072431 0.000000 0.000000
# 5 0.000000 0.000000 0.000000 0.000000 0.087656 0.000000
# 6 0.000000 0.000000 0.000000 0.000000 0.000000 0.029313
#
#
# Mechanical properties :
#
#
# Convention : Reuss Voigt Hill
#
# Bulk Modulus (GPa) = 50.05364 59.36801 54.71083
# Shear Modulus (GPa) = 18.42059 22.74909 20.58484
#
# Velocity S-wave (km/s) = 3.22008 3.57847 3.40399
# Velocity P-wave (km/s) = 6.48076 7.10577 6.80045
#
# Compressibility (1/GPa) = 0.01997857
#
# Stress axis : x y z
#
# Youngs Moduli (GPa) = 73.18322 61.55900 56.28011
#
# Poissons Ratio (x) = 0.49937 0.27366
# Poissons Ratio (y) = 0.59366 0.04923
# Poissons Ratio (z) = 0.35585 0.05385
#
# Static dielectric constant tensor:
#      x y z
#    x 4.008420 0.000000 0.000000 
#    y 0.000000 4.744380 0.000000 
#    z 0.000000 0.000000 2.760660 
# 
# 
# High freq. dielectric constant tensor:
#      x y z
#    x 1.705500 0.000000 0.000000 
#    y 0.000000 1.681970 0.000000 
#    z 0.000000 0.000000 1.625390 
# 
# From -- ./inp_files/48950.got.cif
#   From: 2010.03.12/outbox.cif.g09.slc.cpg/sg63_25_cif.got.tgz:48950.got - 2010.04.10 19:34:48.
