data_PCOD8260422
_publ_section_title
;
Structure prediction by ZEFSAII (Michael W. Deem and Ramdas Pophale) SiO2 
 PCOD8260422
Probable space group: C M C M
;
_chemical_formula_sum "Si O2"
_cell_formula_units_Z 96
_cell_length_a 20.032529
_cell_length_b 27.483664
_cell_length_c 8.631832
_cell_angle_alpha 90.000000
_cell_angle_beta 90.000000
_cell_angle_gamma 90.000000
_cell_volume 4752.404405
_symmetry_space_group_name_H-M "C M C M"
_symmetry_group_IT_number 63
_symmetry_cell_setting 'orthorhombic'
loop_
_space_group_symop_operation_xyz
x,y,z
-x,-y,1/2+z
x,-y,-z
-x,y,1/2-z
-x,-y,-z
x,y,1/2-z
-x,y,z
x,-y,1/2+z
1/2+x,1/2+y,z
1/2-x,1/2-y,1/2+z
1/2+x,1/2-y,-z
1/2-x,1/2+y,1/2-z
1/2-x,1/2-y,-z
1/2+x,1/2+y,1/2-z
1/2-x,1/2+y,z
1/2+x,1/2-y,1/2+z
loop_
_atom_site_type_symbol
_atom_site_label
_atom_site_fract_x
_atom_site_fract_y
_atom_site_fract_z
Si Si1 0.681150 0.551682 0.568256
Si Si2 0.803974 0.606482 0.432891
Si Si3 0.427269 0.732949 0.066320
Si Si4 0.076267 0.448126 0.067634
Si Si5 0.199998 0.710835 0.933911
Si Si6 0.922285 0.876271 0.571176
O O1 0.659525 0.500000 0.500000
O O2 0.692965 0.547724 0.750000
O O3 0.750296 0.567577 0.490171
O O4 0.621378 0.588745 0.534808
O O5 0.805600 0.606971 0.250000
O O6 0.877174 0.593456 0.496546
O O7 0.782479 0.659088 0.494249
O O8 0.430994 0.731065 0.250000
O O9 0.500000 0.747948 0.999309
O O10 0.373771 0.772610 0.010872
O O11 0.408161 0.678558 0.011162
O O12 0.086222 0.449529 0.250000
O O13 0.000000 0.435833 0.022129
O O14 0.097978 0.500000 0.000000
O O15 0.205976 0.708106 0.750000
O O16 0.250000 0.750000 0.000000
O O17 0.900349 0.882421 0.750000
O O18 0.000000 0.889414 0.550952
#
# Coordination Sequence:
#
# PCOD8260422 Si02
#       6
#    16  16  16  16  16  16
#     4  12  25  41  61  85 115 151 195 244 296 352
#     4  12  25  41  60  84 118 156 197 245 296 349
#     4   8  16  33  58  85 113 148 188 230 278 333
#     4  10  21  39  63  90 120 154 193 238 291 352
#     4  11  22  37  59  87 118 153 195 242 294 348
#     4   9  18  36  62  90 120 154 192 235 287 345
#
# _framework density 20.200301
#
# number of rings (size 3 to 8) (size 9 to 14) (size 15 to 20)
#    0.000    1.667    0.000    6.500    0.000    3.667 
#    0.000    2.500    0.000    3.500    0.000    0.000 
#    0.000    0.000    0.000    0.000    0.000    0.000 
#
# Total GULP energy -595365.482204 kJ/mol
# GULP energy per Si atom -12403.447546 kJ/mol
# Density = 2.015432 g / cm^3
# Si number density = 20.200301 Si / 1000 Ang^3
#
#
#
# Elastic Constant Matrix: (Units=GPa)
#
#
# Indices 1 2 3 4 5 6 
#
# 1 73.7661 15.2778 30.7477 0.0000 0.0000 0.0000
# 2 15.2778 64.2063 25.6292 0.0000 0.0000 0.0000
# 3 30.7477 25.6292 103.1107 0.0000 0.0000 0.0000
# 4 0.0000 0.0000 0.0000 29.8670 0.0000 0.0000
# 5 0.0000 0.0000 0.0000 0.0000 32.6968 0.0000
# 6 0.0000 0.0000 0.0000 0.0000 0.0000 34.4244
#
#
#
# Elastic Compliance Matrix: (Units=1/GPa)
#
#
# Indices 1 2 3 4 5 6 
#
# 1 0.015726 -0.002076 -0.004173 0.000000 0.000000 0.000000
# 2 -0.002076 0.017564 -0.003747 0.000000 0.000000 0.000000
# 3 -0.004173 -0.003747 0.011874 0.000000 0.000000 0.000000
# 4 0.000000 0.000000 0.000000 0.033482 0.000000 0.000000
# 5 0.000000 0.000000 0.000000 0.000000 0.030584 0.000000
# 6 0.000000 0.000000 0.000000 0.000000 0.000000 0.029049
#
#
# Mechanical properties :
#
#
# Convention : Reuss Voigt Hill
#
# Bulk Modulus (GPa) = 39.72675 42.71030 41.21853
# Shear Modulus (GPa) = 30.00075 30.69287 30.34681
#
# Velocity S-wave (km/s) = 3.85796 3.90221 3.88015
# Velocity P-wave (km/s) = 6.28922 6.44145 6.36579
#
# Compressibility (1/GPa) = 0.02517195
#
# Stress axis : x y z
#
# Youngs Moduli (GPa) = 63.58917 56.93349 84.21665
#
# Poissons Ratio (x) = 0.11820 0.35148
# Poissons Ratio (y) = 0.13201 0.31554
# Poissons Ratio (z) = 0.26539 0.21331
#
# Static dielectric constant tensor:
#      x y z
#    x 7.360610 0.000000 0.000000 
#    y 0.000000 3.746430 0.000000 
#    z 0.000000 0.000000 3.510250 
# 
# 
# High freq. dielectric constant tensor:
#      x y z
#    x 1.802980 0.000000 0.000000 
#    y 0.000000 1.791070 0.000000 
#    z 0.000000 0.000000 1.780380 
# 
# From -- ./inp_files/8543.got.cif
#   From: 2010.03.12/outbox.cif.g09.slc.cpg/sg63_5_cif.got.tgz:8543.got - 2010.04.10 19:34:48.
