data_PCOD8260730
_publ_section_title
;
Structure prediction by ZEFSAII (Michael W. Deem and Ramdas Pophale) SiO2 
 PCOD8260730
Probable space group: C M C M
;
_chemical_formula_sum "Si O2"
_cell_formula_units_Z 72
_cell_length_a 28.933395
_cell_length_b 12.927311
_cell_length_c 9.692154
_cell_angle_alpha 90.000000
_cell_angle_beta 90.000000
_cell_angle_gamma 90.000000
_cell_volume 3625.166009
_symmetry_space_group_name_H-M "C M C M"
_symmetry_group_IT_number 63
_symmetry_cell_setting 'orthorhombic'
loop_
_space_group_symop_operation_xyz
x,y,z
-x,-y,1/2+z
x,-y,-z
-x,y,1/2-z
-x,-y,-z
x,y,1/2-z
-x,y,z
x,-y,1/2+z
1/2+x,1/2+y,z
1/2-x,1/2-y,1/2+z
1/2+x,1/2-y,-z
1/2-x,1/2+y,1/2-z
1/2-x,1/2-y,-z
1/2+x,1/2+y,1/2-z
1/2-x,1/2+y,z
1/2+x,1/2-y,1/2+z
loop_
_atom_site_type_symbol
_atom_site_label
_atom_site_fract_x
_atom_site_fract_y
_atom_site_fract_z
Si Si1 0.756444 0.405317 0.410122
Si Si2 0.444880 0.153915 0.250000
Si Si3 0.184852 0.204034 0.406259
Si Si4 0.000000 0.099731 0.094899
Si Si5 0.554719 0.084273 0.750000
Si Si6 0.081805 0.254543 0.467799
O O1 0.776175 0.500000 0.500000
O O2 0.747028 0.434723 0.250000
O O3 0.795524 0.319008 0.422258
O O4 0.708654 0.370280 0.482007
O O5 0.500000 0.163652 0.250000
O O6 0.422445 0.214507 0.375001
O O7 0.429418 0.034505 0.250000
O O8 0.194047 0.163713 0.250000
O O9 0.130888 0.204073 0.437119
O O10 0.044867 0.168630 0.071446
O O11 0.000000 0.057722 0.250000
O O12 0.000000 0.000000 0.000000
O O13 0.500000 0.093973 0.750000
O O14 0.574844 0.139684 0.615966
#
# Coordination Sequence:
#
# PCOD8260730 Si02
#       6
#    16   8  16   8   8  16
#     4  10  22  41  65  93 125 161 205 259 316 378
#     4  11  24  36  64  97 130 172 210 258 311 392
#     4  10  22  41  65  90 124 166 208 258 313 369
#     4  12  26  44  67  89 126 172 217 263 313 364
#     4  11  20  40  64  91 128 172 212 248 323 374
#     4  12  22  43  63  93 133 167 211 266 312 371
#
# _framework density 19.861160999999999
#
# number of rings (size 3 to 8) (size 9 to 14) (size 15 to 20)
#    0.000    1.111    4.444    1.333    3.111    5.333 
#    0.000    2.222    0.000    0.000    0.000    0.000 
#    0.000    0.000    0.000    0.000    0.000    0.000 
#
# Total GULP energy -446507.459016 kJ/mol
# GULP energy per Si atom -12402.984973 kJ/mol
# Density = 1.981596 g / cm^3
# Si number density = 19.861161 Si / 1000 Ang^3
#
#
#
# Elastic Constant Matrix: (Units=GPa)
#
#
# Indices 1 2 3 4 5 6 
#
# 1 110.5507 21.1654 26.9669 0.0000 0.0000 0.0000
# 2 21.1654 77.7314 49.9010 0.0000 0.0000 0.0000
# 3 26.9669 49.9010 181.4866 0.0000 0.0000 0.0000
# 4 0.0000 0.0000 0.0000 42.5107 0.0000 0.0000
# 5 0.0000 0.0000 0.0000 0.0000 30.5261 0.0000
# 6 0.0000 0.0000 0.0000 0.0000 0.0000 13.0671
#
#
#
# Elastic Compliance Matrix: (Units=1/GPa)
#
#
# Indices 1 2 3 4 5 6 
#
# 1 0.009653 -0.002074 -0.000864 0.000000 0.000000 0.000000
# 2 -0.002074 0.016068 -0.004110 0.000000 0.000000 0.000000
# 3 -0.000864 -0.004110 0.006768 0.000000 0.000000 0.000000
# 4 0.000000 0.000000 0.000000 0.023524 0.000000 0.000000
# 5 0.000000 0.000000 0.000000 0.000000 0.032759 0.000000
# 6 0.000000 0.000000 0.000000 0.000000 0.000000 0.076528
#
#
# Mechanical properties :
#
#
# Convention : Reuss Voigt Hill
#
# Bulk Modulus (GPa) = 54.36487 62.87061 58.61774
# Shear Modulus (GPa) = 26.95023 35.33647 31.14335
#
# Velocity S-wave (km/s) = 3.68765 4.22260 3.96416
# Velocity P-wave (km/s) = 6.75008 7.44967 7.10849
#
# Compressibility (1/GPa) = 0.01839423
#
# Stress axis : x y z
#
# Youngs Moduli (GPa) = 103.58986 62.23607 147.74351
#
# Poissons Ratio (x) = 0.12906 0.12768
# Poissons Ratio (y) = 0.21482 0.60720
# Poissons Ratio (z) = 0.08952 0.25578
#
# Static dielectric constant tensor:
#      x y z
#    x 3.509400 0.000000 0.000000 
#    y 0.000000 3.644880 0.000000 
#    z 0.000000 0.000000 3.955580 
# 
# 
# High freq. dielectric constant tensor:
#      x y z
#    x 1.770920 0.000000 0.000000 
#    y 0.000000 1.772960 0.000000 
#    z 0.000000 0.000000 1.796410 
# 
# From -- ./inp_files/13946.got.cif
#   From: 2010.03.12/outbox.cif.g09.slc.cpg/sg63_7_cif.got.tgz:13946.got - 2010.04.10 19:34:48.
