data_PCOD8260437
_publ_section_title
;
Structure prediction by ZEFSAII (Michael W. Deem and Ramdas Pophale) SiO2 
 PCOD8260437
Probable space group: C M C M
;
_chemical_formula_sum "Si O2"
_cell_formula_units_Z 112
_cell_length_a 27.848517
_cell_length_b 12.442244
_cell_length_c 14.933472
_cell_angle_alpha 90.000000
_cell_angle_beta 90.000000
_cell_angle_gamma 90.000000
_cell_volume 5174.418831
_symmetry_space_group_name_H-M "C M C M"
_symmetry_group_IT_number 63
_symmetry_cell_setting 'orthorhombic'
loop_
_space_group_symop_operation_xyz
x,y,z
-x,-y,1/2+z
x,-y,-z
-x,y,1/2-z
-x,-y,-z
x,y,1/2-z
-x,y,z
x,-y,1/2+z
1/2+x,1/2+y,z
1/2-x,1/2-y,1/2+z
1/2+x,1/2-y,-z
1/2-x,1/2+y,1/2-z
1/2-x,1/2-y,-z
1/2+x,1/2+y,1/2-z
1/2-x,1/2+y,z
1/2+x,1/2-y,1/2+z
loop_
_atom_site_type_symbol
_atom_site_label
_atom_site_fract_x
_atom_site_fract_y
_atom_site_fract_z
Si Si1 0.199020 0.173149 0.148155
Si Si2 0.621425 0.934984 0.850576
Si Si3 0.849097 0.961641 0.401696
Si Si4 0.054845 0.322649 0.521971
Si Si5 0.946375 0.876455 0.149946
Si Si6 0.198622 0.741809 0.144800
Si Si7 0.883977 0.677501 0.852617
O O1 0.203925 0.208511 0.250000
O O2 0.249662 0.207638 0.103771
O O3 0.156010 0.242867 0.106416
O O4 0.186964 0.046592 0.143961
O O5 0.602583 0.908811 0.750000
O O6 0.580179 0.918768 0.924186
O O7 0.665773 0.860227 0.876486
O O8 0.638126 0.058176 0.856026
O O9 0.901960 0.960336 0.354973
O O10 0.822417 0.846898 0.403793
O O11 0.859802 0.000000 0.500000
O O12 0.064641 0.213715 0.576815
O O13 0.071176 0.310002 0.419197
O O14 0.000000 0.354370 0.519743
O O15 0.945668 0.826281 0.250000
O O16 0.000000 0.927716 0.132659
O O17 0.199812 0.767278 0.250000
O O18 0.899439 0.706859 0.750000
#
# Coordination Sequence:
#
# PCOD8260437 Si02
#       7
#    16  16  16  16  16  16  16
#     4  10  23  41  64  90 124 170 215 259 317 386
#     4  10  21  39  64  93 126 165 212 268 323 382
#     4  12  24  40  63  96 135 167 211 267 327 395
#     4  11  22  39  64  95 125 162 215 272 329 384
#     4  10  21  40  69 100 130 169 221 279 330 381
#     4  10  22  41  66  93 123 166 216 263 317 377
#     4  10  23  42  60  89 133 174 215 261 320 391
#
# _framework density 21.644942
#
# number of rings (size 3 to 8) (size 9 to 14) (size 15 to 20)
#    0.000    1.571    1.429    3.000    2.000    3.143 
#    0.000    2.143    0.000    0.857    0.000    0.000 
#    0.000    0.000    0.000    0.000    0.000    0.000 
#
# Total GULP energy -694226.084260 kJ/mol
# GULP energy per Si atom -12396.894362 kJ/mol
# Density = 2.159568 g / cm^3
# Si number density = 21.644942 Si / 1000 Ang^3
#
#
#
# Elastic Constant Matrix: (Units=GPa)
#
#
# Indices 1 2 3 4 5 6 
#
# 1 144.7115 52.4337 42.2744 0.0000 0.0000 0.0000
# 2 52.4337 102.8584 31.1620 0.0000 0.0000 0.0000
# 3 42.2744 31.1620 99.3253 0.0000 0.0000 0.0000
# 4 0.0000 0.0000 0.0000 24.8815 0.0000 0.0000
# 5 0.0000 0.0000 0.0000 0.0000 25.3106 0.0000
# 6 0.0000 0.0000 0.0000 0.0000 0.0000 21.4268
#
#
#
# Elastic Compliance Matrix: (Units=1/GPa)
#
#
# Indices 1 2 3 4 5 6 
#
# 1 0.009072 -0.003817 -0.002663 0.000000 0.000000 0.000000
# 2 -0.003817 0.012350 -0.002250 0.000000 0.000000 0.000000
# 3 -0.002663 -0.002250 0.011907 0.000000 0.000000 0.000000
# 4 0.000000 0.000000 0.000000 0.040190 0.000000 0.000000
# 5 0.000000 0.000000 0.000000 0.000000 0.039509 0.000000
# 6 0.000000 0.000000 0.000000 0.000000 0.000000 0.046671
#
#
# Mechanical properties :
#
#
# Convention : Reuss Voigt Hill
#
# Bulk Modulus (GPa) = 63.02217 66.51504 64.76861
# Shear Modulus (GPa) = 27.40493 29.05879 28.23186
#
# Velocity S-wave (km/s) = 3.56211 3.66802 3.61545
# Velocity P-wave (km/s) = 6.78953 6.98111 6.88599
#
# Compressibility (1/GPa) = 0.01586743
#
# Stress axis : x y z
#
# Youngs Moduli (GPa) = 110.23503 80.97347 83.98205
#
# Poissons Ratio (x) = 0.30911 0.22367
# Poissons Ratio (y) = 0.42082 0.18894
# Poissons Ratio (z) = 0.29359 0.18217
#
# Static dielectric constant tensor:
#      x y z
#    x 4.094430 0.000000 0.000000 
#    y 0.000000 3.847540 0.000000 
#    z 0.000000 0.000000 3.946770 
# 
# 
# High freq. dielectric constant tensor:
#      x y z
#    x 1.849710 0.000000 0.000000 
#    y 0.000000 1.841920 0.000000 
#    z 0.000000 0.000000 1.856430 
# 
# From -- ./inp_files/38496.got.cif
#   From: 2010.03.12/outbox.cif.g09.slc.cpg/sg63_20_cif.got.tgz:38496.got - 2010.04.10 19:34:48.
