data_PCOD8260855
_publ_section_title
;
Structure prediction by ZEFSAII (Michael W. Deem and Ramdas Pophale) SiO2 
 PCOD8260855
Probable space group: C M C M
;
_chemical_formula_sum "Si O2"
_cell_formula_units_Z 112
_cell_length_a 14.479888
_cell_length_b 12.534763
_cell_length_c 30.074811
_cell_angle_alpha 90.000000
_cell_angle_beta 90.000000
_cell_angle_gamma 90.000000
_cell_volume 5458.637274
_symmetry_space_group_name_H-M "C M C M"
_symmetry_group_IT_number 63
_symmetry_cell_setting 'orthorhombic'
loop_
_space_group_symop_operation_xyz
x,y,z
-x,-y,1/2+z
x,-y,-z
-x,y,1/2-z
-x,-y,-z
x,y,1/2-z
-x,y,z
x,-y,1/2+z
1/2+x,1/2+y,z
1/2-x,1/2-y,1/2+z
1/2+x,1/2-y,-z
1/2-x,1/2+y,1/2-z
1/2-x,1/2-y,-z
1/2+x,1/2+y,1/2-z
1/2-x,1/2+y,z
1/2+x,1/2-y,1/2+z
loop_
_atom_site_type_symbol
_atom_site_label
_atom_site_fract_x
_atom_site_fract_y
_atom_site_fract_z
Si Si1 0.397232 0.898287 0.860307
Si Si2 0.102412 0.171242 0.081285
Si Si3 0.105605 0.603579 0.698661
Si Si4 0.896789 0.779436 0.481814
Si Si5 0.744240 0.782646 0.141663
Si Si6 0.655996 0.059176 0.042104
Si Si7 0.828359 0.950938 0.082810
O O1 0.500000 0.853687 0.849642
O O2 0.321677 0.807184 0.849763
O O3 0.398997 0.939732 0.911307
O O4 0.373466 0.996993 0.828830
O O5 0.177959 0.248596 0.101604
O O6 0.000000 0.214528 0.092410
O O7 0.111451 0.050866 0.099958
O O8 0.121488 0.166914 0.028909
O O9 0.122303 0.577493 0.750000
O O10 0.178756 0.695645 0.684315
O O11 0.000000 0.642735 0.690411
O O12 0.826310 0.682372 0.472054
O O13 0.890265 0.868742 0.444260
O O14 0.000000 0.730694 0.479331
O O15 0.790355 0.893659 0.126936
O O16 0.750354 0.996486 0.050086
O O17 0.605649 0.000000 0.000000
#
# Coordination Sequence:
#
# PCOD8260855 Si02
#       7
#    16  16  16  16  16  16  16
#     4  11  24  42  64  93 129 169 211 253 308 373
#     4  11  23  37  56  85 121 166 215 261 305 359
#     4  10  23  45  71  97 124 155 195 249 313 381
#     4  11  24  38  54  81 120 171 220 258 305 360
#     4  12  22  41  63  94 121 160 200 260 310 369
#     4  12  23  37  58  86 124 169 216 263 305 354
#     4  12  22  37  57  83 121 166 214 255 305 358
#
# _framework density 20.517941
#
# number of rings (size 3 to 8) (size 9 to 14) (size 15 to 20)
#    0.000    0.714    4.286    3.429    0.000    5.143 
#    0.000    0.000    0.000    0.000    0.000    0.000 
#    0.000    0.000    0.000    0.000    0.000    0.000 
#
# Total GULP energy -694267.283665 kJ/mol
# GULP energy per Si atom -12397.630065 kJ/mol
# Density = 2.047124 g / cm^3
# Si number density = 20.517941 Si / 1000 Ang^3
#
#
#
# Elastic Constant Matrix: (Units=GPa)
#
#
# Indices 1 2 3 4 5 6 
#
# 1 110.1724 35.5563 37.5007 0.0000 0.0000 0.0000
# 2 35.5563 78.8319 41.9915 0.0000 0.0000 0.0000
# 3 37.5007 41.9915 100.6206 0.0000 0.0000 0.0000
# 4 0.0000 0.0000 0.0000 22.9724 0.0000 0.0000
# 5 0.0000 0.0000 0.0000 0.0000 13.3954 0.0000
# 6 0.0000 0.0000 0.0000 0.0000 0.0000 24.7501
#
#
#
# Elastic Compliance Matrix: (Units=1/GPa)
#
#
# Indices 1 2 3 4 5 6 
#
# 1 0.011144 -0.003618 -0.002643 0.000000 0.000000 0.000000
# 2 -0.003618 0.017486 -0.005949 0.000000 0.000000 0.000000
# 3 -0.002643 -0.005949 0.013406 0.000000 0.000000 0.000000
# 4 0.000000 0.000000 0.000000 0.043530 0.000000 0.000000
# 5 0.000000 0.000000 0.000000 0.000000 0.074652 0.000000
# 6 0.000000 0.000000 0.000000 0.000000 0.000000 0.040404
#
#
# Mechanical properties :
#
#
# Convention : Reuss Voigt Hill
#
# Bulk Modulus (GPa) = 56.76918 57.74687 57.25802
# Shear Modulus (GPa) = 21.65290 23.86200 22.75745
#
# Velocity S-wave (km/s) = 3.25209 3.41395 3.33400
# Velocity P-wave (km/s) = 6.46758 6.61406 6.54123
#
# Compressibility (1/GPa) = 0.01761519
#
# Stress axis : x y z
#
# Youngs Moduli (GPa) = 89.73259 57.18848 74.59317
#
# Poissons Ratio (x) = 0.20693 0.19717
# Poissons Ratio (y) = 0.32469 0.44374
# Poissons Ratio (z) = 0.23719 0.34020
#
# Static dielectric constant tensor:
#      x y z
#    x 3.864840 0.000000 0.000000 
#    y 0.000000 3.772320 0.000000 
#    z 0.000000 0.000000 3.511140 
# 
# 
# High freq. dielectric constant tensor:
#      x y z
#    x 1.812860 0.000000 0.000000 
#    y 0.000000 1.806540 0.000000 
#    z 0.000000 0.000000 1.769760 
# 
# From -- ./inp_files/73407.got.cif
#   From: 2010.03.12/outbox.cif.g09.slc.cpg/sg63_37_cif.got.tgz:73407.got - 2010.04.10 19:34:48.
