data_PCOD8260506
_publ_section_title
;
Structure prediction by ZEFSAII (Michael W. Deem and Ramdas Pophale) SiO2 
 PCOD8260506
Probable space group: C M C M
;
_chemical_formula_sum "Si O2"
_cell_formula_units_Z 64
_cell_length_a 17.073504
_cell_length_b 10.592397
_cell_length_c 16.143773
_cell_angle_alpha 90.000000
_cell_angle_beta 90.000000
_cell_angle_gamma 90.000000
_cell_volume 2919.590572
_symmetry_space_group_name_H-M "C M C M"
_symmetry_group_IT_number 63
_symmetry_cell_setting 'orthorhombic'
loop_
_space_group_symop_operation_xyz
x,y,z
-x,-y,1/2+z
x,-y,-z
-x,y,1/2-z
-x,-y,-z
x,y,1/2-z
-x,y,z
x,-y,1/2+z
1/2+x,1/2+y,z
1/2-x,1/2-y,1/2+z
1/2+x,1/2-y,-z
1/2-x,1/2+y,1/2-z
1/2-x,1/2-y,-z
1/2+x,1/2+y,1/2-z
1/2-x,1/2+y,z
1/2+x,1/2-y,1/2+z
loop_
_atom_site_type_symbol
_atom_site_label
_atom_site_fract_x
_atom_site_fract_y
_atom_site_fract_z
Si Si1 0.699260 0.799068 0.750000
Si Si2 0.678386 0.521946 0.750000
Si Si3 0.910714 0.329740 0.428123
Si Si4 0.406405 0.446602 0.911120
Si Si5 0.089983 0.402043 0.884275
O O1 0.728128 0.652948 0.750000
O O2 0.644558 0.816964 0.828964
O O3 0.769636 0.897055 0.750000
O O4 0.625594 0.524645 0.666858
O O5 0.872392 0.196890 0.401254
O O6 0.874557 0.454287 0.384461
O O7 0.905073 0.341338 0.526105
O O8 0.000000 0.327061 0.399909
O O9 0.500000 0.449871 0.909061
O O10 0.376813 0.500000 0.000000
O O11 0.000000 0.400715 0.853028
#
# Coordination Sequence:
#
# PCOD8260506 Si02
#       5
#     8   8  16  16  16
#     4  12  27  43  58  86 128 173 206 259 313 375
#     4  12  29  45  60  94 132 169 216 257 313 387
#     4   8  16  33  62  98 122 150 200 262 319 370
#     4  10  21  41  70  96 125 163 211 269 323 369
#     4   9  18  36  65  94 121 158 211 261 310 369
#
# _framework density 21.92088
#
# number of rings (size 3 to 8) (size 9 to 14) (size 15 to 20)
#    0.000    2.250    0.000    3.750    3.500    4.000 
#    4.500    6.250    0.000    0.000    0.000    0.000 
#    0.000    0.000    0.000    0.000    0.000    0.000 
#
# Total GULP energy -396536.537179 kJ/mol
# GULP energy per Si atom -12391.766787 kJ/mol
# Density = 2.187099 g / cm^3
# Si number density = 21.920880 Si / 1000 Ang^3
#
#
#
# Elastic Constant Matrix: (Units=GPa)
#
#
# Indices 1 2 3 4 5 6 
#
# 1 37.8767 22.3261 20.1199 0.0000 0.0000 0.0000
# 2 22.3261 158.4703 34.6681 0.0000 0.0000 0.0000
# 3 20.1199 34.6681 96.4454 0.0000 0.0000 0.0000
# 4 0.0000 0.0000 0.0000 19.4962 0.0000 0.0000
# 5 0.0000 0.0000 0.0000 0.0000 36.5484 0.0000
# 6 0.0000 0.0000 0.0000 0.0000 0.0000 31.5480
#
#
#
# Elastic Compliance Matrix: (Units=1/GPa)
#
#
# Indices 1 2 3 4 5 6 
#
# 1 0.031134 -0.003219 -0.005338 0.000000 0.000000 0.000000
# 2 -0.003219 0.007182 -0.001910 0.000000 0.000000 0.000000
# 3 -0.005338 -0.001910 0.012169 0.000000 0.000000 0.000000
# 4 0.000000 0.000000 0.000000 0.051292 0.000000 0.000000
# 5 0.000000 0.000000 0.000000 0.000000 0.027361 0.000000
# 6 0.000000 0.000000 0.000000 0.000000 0.000000 0.031698
#
#
# Mechanical properties :
#
#
# Convention : Reuss Voigt Hill
#
# Bulk Modulus (GPa) = 33.83966 49.66897 41.75431
# Shear Modulus (GPa) = 26.09345 31.89707 28.99526
#
# Velocity S-wave (km/s) = 3.45388 3.81872 3.64087
# Velocity P-wave (km/s) = 5.60147 6.49237 6.06331
#
# Compressibility (1/GPa) = 0.02955112
#
# Stress axis : x y z
#
# Youngs Moduli (GPa) = 32.11909 139.24397 82.17770
#
# Poissons Ratio (x) = 0.44816 0.43867
# Poissons Ratio (y) = 0.10338 0.15697
# Poissons Ratio (z) = 0.17145 0.26597
#
# Static dielectric constant tensor:
#      x y z
#    x 3.470390 0.000000 0.000000 
#    y 0.000000 4.428500 0.000000 
#    z 0.000000 0.000000 3.877630 
# 
# 
# High freq. dielectric constant tensor:
#      x y z
#    x 1.817340 0.000000 0.000000 
#    y 0.000000 1.885420 0.000000 
#    z 0.000000 0.000000 1.862840 
# 
# From -- ./inp_files/33383.got.cif
#   From: 2010.03.12/outbox.cif.g09.slc.cpg/sg63_17_cif.got.tgz:33383.got - 2010.04.10 19:34:48.
