data_PCOD8260858
_publ_section_title
;
Structure prediction by ZEFSAII (Michael W. Deem and Ramdas Pophale) SiO2 
 PCOD8260858
Probable space group: C M C M
;
_chemical_formula_sum "Si O2"
_cell_formula_units_Z 52
_cell_length_a 16.759119
_cell_length_b 9.612320
_cell_length_c 16.597963
_cell_angle_alpha 90.000000
_cell_angle_beta 90.000000
_cell_angle_gamma 90.000000
_cell_volume 2673.832496
_symmetry_space_group_name_H-M "C M C M"
_symmetry_group_IT_number 63
_symmetry_cell_setting 'orthorhombic'
loop_
_space_group_symop_operation_xyz
x,y,z
-x,-y,1/2+z
x,-y,-z
-x,y,1/2-z
-x,-y,-z
x,y,1/2-z
-x,y,z
x,-y,1/2+z
1/2+x,1/2+y,z
1/2-x,1/2-y,1/2+z
1/2+x,1/2-y,-z
1/2-x,1/2+y,1/2-z
1/2-x,1/2-y,-z
1/2+x,1/2+y,1/2-z
1/2-x,1/2+y,z
1/2+x,1/2-y,1/2+z
loop_
_atom_site_type_symbol
_atom_site_label
_atom_site_fract_x
_atom_site_fract_y
_atom_site_fract_z
Si Si1 0.500000 0.496505 0.250000
Si Si2 0.835578 0.675463 0.921438
Si Si3 0.088523 0.269638 0.750000
Si Si4 0.500000 0.236833 0.660689
Si Si5 0.693812 0.136718 0.397778
O O1 0.420963 0.398993 0.250000
O O2 0.500000 0.594650 0.170189
O O3 0.780942 0.796472 0.883248
O O4 0.795974 0.529031 0.897044
O O5 0.923778 0.684797 0.887289
O O6 0.841525 0.691248 0.017686
O O7 0.133810 0.316750 0.670812
O O8 0.000000 0.338543 0.750000
O O9 0.500000 0.168064 0.750000
#
# Coordination Sequence:
#
# PCOD8260858 Si02
#       5
#     4  16   8   8  16
#     4   8  24  40  56 102 126 160 214 252 314 376
#     4  10  24  43  65  94 128 166 211 260 316 376
#     4  10  24  38  64  92 128 164 212 256 312 374
#     4  10  24  39  65  91 127 161 214 258 310 368
#     4  10  24  41  66  93 130 165 211 258 320 373
#
# _framework density 19.447741000000001
#
# number of rings (size 3 to 8) (size 9 to 14) (size 15 to 20)
#    0.923    1.231    0.000    0.000   12.923    1.231 
#    0.000    1.538    0.000    0.000    0.000    0.000 
#    0.000    0.000    0.000    0.000    0.000    0.000 
#
# Total GULP energy -322369.797924 kJ/mol
# GULP energy per Si atom -12398.838382 kJ/mol
# Density = 1.940348 g / cm^3
# Si number density = 19.447741 Si / 1000 Ang^3
#
#
#
# Elastic Constant Matrix: (Units=GPa)
#
#
# Indices 1 2 3 4 5 6 
#
# 1 166.8307 55.4898 72.1335 0.0000 0.0000 0.0000
# 2 55.4898 117.0714 40.7110 0.0000 0.0000 0.0000
# 3 72.1335 40.7110 102.1026 0.0000 0.0000 0.0000
# 4 0.0000 0.0000 0.0000 27.0362 0.0000 0.0000
# 5 0.0000 0.0000 0.0000 0.0000 34.9106 0.0000
# 6 0.0000 0.0000 0.0000 0.0000 0.0000 30.2820
#
#
#
# Elastic Compliance Matrix: (Units=1/GPa)
#
#
# Indices 1 2 3 4 5 6 
#
# 1 0.009192 -0.002437 -0.005523 0.000000 0.000000 0.000000
# 2 -0.002437 0.010563 -0.002490 0.000000 0.000000 0.000000
# 3 -0.005523 -0.002490 0.014689 0.000000 0.000000 0.000000
# 4 0.000000 0.000000 0.000000 0.036987 0.000000 0.000000
# 5 0.000000 0.000000 0.000000 0.000000 0.028645 0.000000
# 6 0.000000 0.000000 0.000000 0.000000 0.000000 0.033023
#
#
# Mechanical properties :
#
#
# Convention : Reuss Voigt Hill
#
# Bulk Modulus (GPa) = 73.82953 80.29703 77.06328
# Shear Modulus (GPa) = 31.54321 32.95712 32.25017
#
# Velocity S-wave (km/s) = 4.03171 4.12108 4.07664
# Velocity P-wave (km/s) = 7.72777 8.00141 7.86578
#
# Compressibility (1/GPa) = 0.01354472
#
# Stress axis : x y z
#
# Youngs Moduli (GPa) = 108.78524 94.67329 68.07948
#
# Poissons Ratio (x) = 0.23068 0.37599
# Poissons Ratio (y) = 0.26506 0.16953
# Poissons Ratio (z) = 0.60079 0.23576
#
# Static dielectric constant tensor:
#      x y z
#    x 3.417580 0.000000 0.000000 
#    y 0.000000 3.665740 0.000000 
#    z 0.000000 0.000000 3.552430 
# 
# 
# High freq. dielectric constant tensor:
#      x y z
#    x 1.754070 0.000000 0.000000 
#    y 0.000000 1.763870 0.000000 
#    z 0.000000 0.000000 1.759280 
# 
# From -- ./inp_files/44935.got.cif
#   From: 2010.03.12/outbox.cif.g09.slc.cpg/sg63_23_cif.got.tgz:44935.got - 2010.04.10 19:34:48.
