data_PCOD8260726
_publ_section_title
;
Structure prediction by ZEFSAII (Michael W. Deem and Ramdas Pophale) SiO2 
 PCOD8260726
Probable space group: C M C M
;
_chemical_formula_sum "Si O2"
_cell_formula_units_Z 64
_cell_length_a 14.691079
_cell_length_b 11.550619
_cell_length_c 17.223268
_cell_angle_alpha 90.000000
_cell_angle_beta 90.000000
_cell_angle_gamma 90.000000
_cell_volume 2922.634539
_symmetry_space_group_name_H-M "C M C M"
_symmetry_group_IT_number 63
_symmetry_cell_setting 'orthorhombic'
loop_
_space_group_symop_operation_xyz
x,y,z
-x,-y,1/2+z
x,-y,-z
-x,y,1/2-z
-x,-y,-z
x,y,1/2-z
-x,y,z
x,-y,1/2+z
1/2+x,1/2+y,z
1/2-x,1/2-y,1/2+z
1/2+x,1/2-y,-z
1/2-x,1/2+y,1/2-z
1/2-x,1/2-y,-z
1/2+x,1/2+y,1/2-z
1/2-x,1/2+y,z
1/2+x,1/2-y,1/2+z
loop_
_atom_site_type_symbol
_atom_site_label
_atom_site_fract_x
_atom_site_fract_y
_atom_site_fract_z
Si Si1 0.601920 0.475210 0.838327
Si Si2 0.601002 0.277746 0.105646
Si Si3 0.396157 0.120473 0.539401
Si Si4 0.709037 0.745654 0.162189
O O1 0.627192 0.514293 0.750000
O O2 0.500000 0.425089 0.840615
O O3 0.611345 0.583377 0.896404
O O4 0.667079 0.374151 0.868532
O O5 0.500000 0.244552 0.138949
O O6 0.681895 0.229531 0.159197
O O7 0.612430 0.227281 0.019838
O O8 0.500000 0.109012 0.569850
O O9 0.328034 0.147627 0.610450
O O10 0.365582 0.000000 0.500000
O O11 0.677969 0.769985 0.250000
#
# Coordination Sequence:
#
# PCOD8260726 Si02
#       4
#    16  16  16  16
#     4   9  19  37  61  92 126 159 207 265 315 373
#     4  10  22  41  64  91 128 170 210 261 320 379
#     4  10  23  43  65  94 132 172 217 266 319 388
#     4  11  23  39  66  96 127 166 214 269 326 382
#
# _framework density 21.898050999999999
#
# number of rings (size 3 to 8) (size 9 to 14) (size 15 to 20)
#    0.000    2.000    0.000    2.250    3.500    4.000 
#    0.000    5.000    0.000    9.000    0.000    0.000 
#    0.000    0.000    0.000    0.000    0.000    0.000 
#
# Total GULP energy -396738.638511 kJ/mol
# GULP energy per Si atom -12398.082453 kJ/mol
# Density = 2.184821 g / cm^3
# Si number density = 21.898051 Si / 1000 Ang^3
#
#
#
# Elastic Constant Matrix: (Units=GPa)
#
#
# Indices 1 2 3 4 5 6 
#
# 1 139.5713 71.5208 43.4444 0.0000 0.0000 0.0000
# 2 71.5208 130.1700 60.5228 0.0000 0.0000 0.0000
# 3 43.4444 60.5228 89.5379 0.0000 0.0000 0.0000
# 4 0.0000 0.0000 0.0000 32.7381 0.0000 0.0000
# 5 0.0000 0.0000 0.0000 0.0000 22.6865 0.0000
# 6 0.0000 0.0000 0.0000 0.0000 0.0000 30.3105
#
#
#
# Elastic Compliance Matrix: (Units=1/GPa)
#
#
# Indices 1 2 3 4 5 6 
#
# 1 0.010144 -0.004791 -0.001684 0.000000 0.000000 0.000000
# 2 -0.004791 0.013466 -0.006778 0.000000 0.000000 0.000000
# 3 -0.001684 -0.006778 0.016567 0.000000 0.000000 0.000000
# 4 0.000000 0.000000 0.000000 0.030545 0.000000 0.000000
# 5 0.000000 0.000000 0.000000 0.000000 0.044079 0.000000
# 6 0.000000 0.000000 0.000000 0.000000 0.000000 0.032992
#
#
# Mechanical properties :
#
#
# Convention : Reuss Voigt Hill
#
# Bulk Modulus (GPa) = 73.14023 78.91727 76.02875
# Shear Modulus (GPa) = 27.95581 29.39976 28.67778
#
# Velocity S-wave (km/s) = 3.57688 3.66809 3.62277
# Velocity P-wave (km/s) = 7.10856 7.35232 7.23146
#
# Compressibility (1/GPa) = 0.01367237
#
# Stress axis : x y z
#
# Youngs Moduli (GPa) = 98.58339 74.26287 60.36204
#
# Poissons Ratio (x) = 0.35576 0.10163
# Poissons Ratio (y) = 0.47227 0.40911
# Poissons Ratio (z) = 0.16598 0.50333
#
# Static dielectric constant tensor:
#      x y z
#    x 4.244120 0.000000 0.000000 
#    y 0.000000 3.831360 0.000000 
#    z 0.000000 0.000000 3.642300 
# 
# 
# High freq. dielectric constant tensor:
#      x y z
#    x 1.876090 0.000000 0.000000 
#    y 0.000000 1.854260 0.000000 
#    z 0.000000 0.000000 1.836720 
# 
# From -- ./inp_files/43437.got.cif
#   From: 2010.03.12/outbox.cif.g09.slc.cpg/sg63_22_cif.got.tgz:43437.got - 2010.04.10 19:34:48.
