data_PCOD8260659
_publ_section_title
;
Structure prediction by ZEFSAII (Michael W. Deem and Ramdas Pophale) SiO2 
 PCOD8260659
Probable space group: C M C M
;
_chemical_formula_sum "Si O2"
_cell_formula_units_Z 120
_cell_length_a 28.999837
_cell_length_b 15.746082
_cell_length_c 14.615635
_cell_angle_alpha 90.000000
_cell_angle_beta 90.000000
_cell_angle_gamma 90.000000
_cell_volume 6673.993116
_symmetry_space_group_name_H-M "C M C M"
_symmetry_group_IT_number 63
_symmetry_cell_setting 'orthorhombic'
loop_
_space_group_symop_operation_xyz
x,y,z
-x,-y,1/2+z
x,-y,-z
-x,y,1/2-z
-x,-y,-z
x,y,1/2-z
-x,y,z
x,-y,1/2+z
1/2+x,1/2+y,z
1/2-x,1/2-y,1/2+z
1/2+x,1/2-y,-z
1/2-x,1/2+y,1/2-z
1/2-x,1/2-y,-z
1/2+x,1/2+y,1/2-z
1/2-x,1/2+y,z
1/2+x,1/2-y,1/2+z
loop_
_atom_site_type_symbol
_atom_site_label
_atom_site_fract_x
_atom_site_fract_y
_atom_site_fract_z
Si Si1 0.305964 0.860790 0.614724
Si Si2 0.329973 0.403427 0.480999
Si Si3 0.849199 0.533035 0.651263
Si Si4 0.709745 0.320587 0.651062
Si Si5 0.413170 0.000000 0.500000
Si Si6 0.229754 0.363246 0.415840
Si Si7 0.375170 0.721360 0.852361
Si Si8 0.447405 0.135567 0.355717
O O1 0.255605 0.878805 0.658369
O O2 0.300178 0.861285 0.506882
O O3 0.326723 0.771294 0.646585
O O4 0.342691 0.931444 0.645311
O O5 0.344635 0.500000 0.500000
O O6 0.326844 0.354478 0.577896
O O7 0.280839 0.400368 0.429219
O O8 0.369916 0.359159 0.420462
O O9 0.871765 0.555322 0.750000
O O10 0.882026 0.560252 0.566825
O O11 0.798708 0.575167 0.650146
O O12 0.684880 0.317265 0.750000
O O13 0.731378 0.230667 0.623479
O O14 0.441870 0.059290 0.429979
O O15 0.384677 0.686878 0.750000
O O16 0.416310 0.783668 0.884529
O O17 0.435936 0.106504 0.250000
O O18 0.500000 0.166095 0.361226
#
# Coordination Sequence:
#
# PCOD8260659 Si02
#       8
#    16  16  16  16   8  16  16  16
#     4  11  18  34  49  70 100 142 186 229 263 303
#     4  11  23  36  53  75 109 144 185 233 280 324
#     4  12  22  31  50  77 110 150 187 221 259 313
#     4  11  21  33  50  72 105 147 191 233 267 306
#     4  12  21  34  54  82 120 146 180 220 273 316
#     4  11  19  34  47  70 109 151 189 226 260 304
#     4  11  20  35  58  79 101 135 179 229 280 328
#     4  10  22  40  62  87 112 141 180 226 279 337
#
# _framework density 17.980240999999999
#
# number of rings (size 3 to 8) (size 9 to 14) (size 15 to 20)
#    0.000    0.933    5.333    4.600    0.000    1.067 
#    0.000    0.000    0.000    0.400    0.000    0.000 
#    0.000    0.000    0.000    0.000    0.000    0.000 
#
# Total GULP energy -743648.765263 kJ/mol
# GULP energy per Si atom -12394.146088 kJ/mol
# Density = 1.793932 g / cm^3
# Si number density = 17.980241 Si / 1000 Ang^3
#
#
#
# Elastic Constant Matrix: (Units=GPa)
#
#
# Indices 1 2 3 4 5 6 
#
# 1 66.6355 26.9860 36.6621 0.0000 0.0000 0.0000
# 2 26.9860 94.9468 37.2378 0.0000 0.0000 0.0000
# 3 36.6621 37.2378 131.3473 0.0000 0.0000 0.0000
# 4 0.0000 0.0000 0.0000 16.5302 0.0000 0.0000
# 5 0.0000 0.0000 0.0000 0.0000 20.2838 0.0000
# 6 0.0000 0.0000 0.0000 0.0000 0.0000 -0.9346
#
#
#
# Elastic Compliance Matrix: (Units=1/GPa)
#
#
# Indices 1 2 3 4 5 6 
#
# 1 0.018818 -0.003700 -0.004204 0.000000 0.000000 0.000000
# 2 -0.003700 0.012577 -0.002533 0.000000 0.000000 0.000000
# 3 -0.004204 -0.002533 0.009505 0.000000 0.000000 0.000000
# 4 0.000000 0.000000 0.000000 0.060495 0.000000 0.000000
# 5 0.000000 0.000000 0.000000 0.000000 0.049300 0.000000
# 6 0.000000 0.000000 0.000000 0.000000 0.000000 -1.069993
#
#
# Mechanical properties :
#
#
# Convention : Reuss Voigt Hill
#
# Bulk Modulus (GPa) = 49.93208 54.96683 52.44945
# Shear Modulus (GPa) = -5.60697 19.97880 7.18591
#
# Velocity S-wave (km/s) = -1.76782 3.33701 2.00131
# Velocity P-wave (km/s) = 4.86456 6.74423 5.87999
#
# Compressibility (1/GPa) = 0.02002720
#
# Stress axis : x y z
#
# Youngs Moduli (GPa) = 53.14005 79.50872 105.20927
#
# Poissons Ratio (x) = 0.29417 0.44226
# Poissons Ratio (y) = 0.19661 0.26650
# Poissons Ratio (z) = 0.22338 0.20140
#
# Static dielectric constant tensor:
#      x y z
#    x 3.038740 0.000000 0.000000 
#    y 0.000000 3.236800 0.000000 
#    z 0.000000 0.000000 3.607890 
# 
# 
# High freq. dielectric constant tensor:
#      x y z
#    x 1.650410 0.000000 0.000000 
#    y 0.000000 1.676150 0.000000 
#    z 0.000000 0.000000 1.715140 
# 
# From -- ./inp_files/38761.got.cif
#   From: 2010.03.12/outbox.cif.g09.slc.cpg/sg63_20_cif.got.tgz:38761.got - 2010.04.10 19:34:48.
