data_PCOD8260314
_publ_section_title
;
Structure prediction by ZEFSAII (Michael W. Deem and Ramdas Pophale) SiO2 
 PCOD8260314
Probable space group: C M C M
;
_chemical_formula_sum "Si O2"
_cell_formula_units_Z 96
_cell_length_a 22.453503
_cell_length_b 11.781500
_cell_length_c 18.322514
_cell_angle_alpha 90.000000
_cell_angle_beta 90.000000
_cell_angle_gamma 90.000000
_cell_volume 4846.963567
_symmetry_space_group_name_H-M "C M C M"
_symmetry_group_IT_number 63
_symmetry_cell_setting 'orthorhombic'
loop_
_space_group_symop_operation_xyz
x,y,z
-x,-y,1/2+z
x,-y,-z
-x,y,1/2-z
-x,-y,-z
x,y,1/2-z
-x,y,z
x,-y,1/2+z
1/2+x,1/2+y,z
1/2-x,1/2-y,1/2+z
1/2+x,1/2-y,-z
1/2-x,1/2+y,1/2-z
1/2-x,1/2-y,-z
1/2+x,1/2+y,1/2-z
1/2-x,1/2+y,z
1/2+x,1/2-y,1/2+z
loop_
_atom_site_type_symbol
_atom_site_label
_atom_site_fract_x
_atom_site_fract_y
_atom_site_fract_z
Si Si1 0.271562 0.764189 0.081601
Si Si2 0.344699 0.792659 0.663279
Si Si3 0.388648 0.375712 0.916547
Si Si4 0.428520 0.628168 0.921212
Si Si5 0.432960 0.817025 0.328865
Si Si6 0.647403 0.971566 0.083466
O O1 0.218147 0.759267 0.139125
O O2 0.320497 0.665636 0.095276
O O3 0.295353 0.891420 0.091680
O O4 0.250000 0.750000 0.000000
O O5 0.349910 0.793503 0.750000
O O6 0.400880 0.722596 0.631898
O O7 0.345219 0.919065 0.632829
O O8 0.396431 0.509081 0.902649
O O9 0.428363 0.312067 0.856723
O O10 0.412404 0.339172 0.996135
O O11 0.500000 0.620736 0.911031
O O12 0.399918 0.827862 0.250000
O O13 0.500000 0.851527 0.317038
O O14 0.408918 0.902361 0.388985
O O15 0.635475 0.000000 0.000000
#
# Coordination Sequence:
#
# PCOD8260314 Si02
#       6
#    16  16  16  16  16  16
#     4  11  22  42  68  93 126 167 218 275 335 396
#     4  12  27  42  62  97 136 176 217 269 336 405
#     4  10  21  39  69  95 125 168 227 280 326 389
#     4  11  23  41  66  99 135 177 226 278 333 399
#     4  10  21  38  60  89 125 162 205 259 318 379
#     4  11  23  41  68  91 120 165 212 263 320 389
#
# _framework density 19.806215000000002
#
# number of rings (size 3 to 8) (size 9 to 14) (size 15 to 20)
#    0.000    1.167    3.333    3.500    2.333    5.333 
#    0.000    0.000    0.000    0.000    0.000    0.000 
#    0.000    0.000    0.000    0.000    0.000    0.000 
#
# Total GULP energy -595145.891807 kJ/mol
# GULP energy per Si atom -12398.872746 kJ/mol
# Density = 1.976114 g / cm^3
# Si number density = 19.806215 Si / 1000 Ang^3
#
#
#
# Elastic Constant Matrix: (Units=GPa)
#
#
# Indices 1 2 3 4 5 6 
#
# 1 106.3318 46.1950 41.6973 0.0000 0.0000 0.0000
# 2 46.1950 130.1084 53.6963 0.0000 0.0000 0.0000
# 3 41.6973 53.6963 115.4775 0.0000 0.0000 0.0000
# 4 0.0000 0.0000 0.0000 18.0243 0.0000 0.0000
# 5 0.0000 0.0000 0.0000 0.0000 33.6932 0.0000
# 6 0.0000 0.0000 0.0000 0.0000 0.0000 109.7631
#
#
#
# Elastic Compliance Matrix: (Units=1/GPa)
#
#
# Indices 1 2 3 4 5 6 
#
# 1 0.011843 -0.003019 -0.002872 0.000000 0.000000 0.000000
# 2 -0.003019 0.010281 -0.003690 0.000000 0.000000 0.000000
# 3 -0.002872 -0.003690 0.011413 0.000000 0.000000 0.000000
# 4 0.000000 0.000000 0.000000 0.055481 0.000000 0.000000
# 5 0.000000 0.000000 0.000000 0.000000 0.029680 0.000000
# 6 0.000000 0.000000 0.000000 0.000000 0.000000 0.009111
#
#
# Mechanical properties :
#
#
# Convention : Reuss Voigt Hill
#
# Bulk Modulus (GPa) = 69.57713 70.56611 70.07162
# Shear Modulus (GPa) = 32.94640 46.31807 39.63224
#
# Velocity S-wave (km/s) = 4.08295 4.84111 4.47811
# Velocity P-wave (km/s) = 7.57842 8.18255 7.88627
#
# Compressibility (1/GPa) = 0.01437254
#
# Stress axis : x y z
#
# Youngs Moduli (GPa) = 84.44117 97.26749 87.62099
#
# Poissons Ratio (x) = 0.29368 0.25167
# Poissons Ratio (y) = 0.25496 0.32335
# Poissons Ratio (z) = 0.24253 0.35895
#
# Static dielectric constant tensor:
#      x y z
#    x 3.784620 0.000000 0.000000 
#    y 0.000000 3.793050 0.000000 
#    z 0.000000 0.000000 3.725400 
# 
# 
# High freq. dielectric constant tensor:
#      x y z
#    x 1.776280 0.000000 0.000000 
#    y 0.000000 1.781810 0.000000 
#    z 0.000000 0.000000 1.776860 
# 
# From -- ./inp_files/47986.got.cif
#   From: 2010.03.12/outbox.cif.g09.slc.cpg/sg63_24_cif.got.tgz:47986.got - 2010.04.10 19:34:48.
