data_PCOD8260267
_publ_section_title
;
Structure prediction by ZEFSAII (Michael W. Deem and Ramdas Pophale) SiO2 
 PCOD8260267
Probable space group: C M C M
;
_chemical_formula_sum "Si O2"
_cell_formula_units_Z 96
_cell_length_a 8.572053
_cell_length_b 19.813815
_cell_length_c 29.825027
_cell_angle_alpha 90.000000
_cell_angle_beta 90.000000
_cell_angle_gamma 90.000000
_cell_volume 5065.633868
_symmetry_space_group_name_H-M "C M C M"
_symmetry_group_IT_number 63
_symmetry_cell_setting 'orthorhombic'
loop_
_space_group_symop_operation_xyz
x,y,z
-x,-y,1/2+z
x,-y,-z
-x,y,1/2-z
-x,-y,-z
x,y,1/2-z
-x,y,z
x,-y,1/2+z
1/2+x,1/2+y,z
1/2-x,1/2-y,1/2+z
1/2+x,1/2-y,-z
1/2-x,1/2+y,1/2-z
1/2-x,1/2-y,-z
1/2+x,1/2+y,1/2-z
1/2-x,1/2+y,z
1/2+x,1/2-y,1/2+z
loop_
_atom_site_type_symbol
_atom_site_label
_atom_site_fract_x
_atom_site_fract_y
_atom_site_fract_z
Si Si1 0.320920 0.703042 0.801779
Si Si2 0.182757 0.943664 0.535081
Si Si3 0.816642 0.700597 0.463148
Si Si4 0.679940 0.452237 0.301585
Si Si5 0.319146 0.051828 0.370690
Si Si6 0.818719 0.806182 0.632086
O O1 0.285715 0.718092 0.750000
O O2 0.500000 0.719889 0.813175
O O3 0.284690 0.625405 0.813008
O O4 0.208162 0.749025 0.831076
O O5 0.275999 0.875855 0.523502
O O6 0.222301 0.968797 0.585124
O O7 0.000000 0.928757 0.530989
O O8 0.237347 0.000000 0.500000
O O9 0.750000 0.750000 0.500000
O O10 0.741403 0.720387 0.415669
O O11 0.000000 0.709866 0.459544
O O12 0.720182 0.467355 0.250000
O O13 0.500000 0.469336 0.311392
O O14 0.789781 0.498046 0.331868
O O15 0.500000 0.052836 0.383364
O O16 0.269905 0.125728 0.353392
O O17 0.000000 0.823078 0.628469
#
# Coordination Sequence:
#
# PCOD8260267 Si02
#       6
#    16  16  16  16  16  16
#     4   9  19  37  59  82 110 144 182 225 274 326
#     4  10  21  38  59  82 110 144 181 223 271 323
#     4  11  22  38  59  82 111 144 182 226 271 322
#     4   9  19  37  59  81 108 143 181 223 271 323
#     4  11  22  36  56  81 111 145 181 225 271 319
#     4  11  22  37  57  81 111 145 183 226 272 323
#
# _framework density 18.951232000000001
#
# number of rings (size 3 to 8) (size 9 to 14) (size 15 to 20)
#    0.000    1.833    0.000    8.000    0.000    4.667 
#    0.000    3.333    0.000    0.000    0.000    0.000 
#    0.000    0.000    0.000    0.000    0.000    0.000 
#
# Total GULP energy -595408.766775 kJ/mol
# GULP energy per Si atom -12404.349308 kJ/mol
# Density = 1.890810 g / cm^3
# Si number density = 18.951232 Si / 1000 Ang^3
#
#
#
# Elastic Constant Matrix: (Units=GPa)
#
#
# Indices 1 2 3 4 5 6 
#
# 1 72.9509 23.7618 25.5877 0.0000 0.0000 0.0000
# 2 23.7618 91.2561 71.2056 0.0000 0.0000 0.0000
# 3 25.5877 71.2056 98.3361 0.0000 0.0000 0.0000
# 4 0.0000 0.0000 0.0000 45.3783 0.0000 0.0000
# 5 0.0000 0.0000 0.0000 0.0000 32.7817 0.0000
# 6 0.0000 0.0000 0.0000 0.0000 0.0000 33.6426
#
#
#
# Elastic Compliance Matrix: (Units=1/GPa)
#
#
# Indices 1 2 3 4 5 6 
#
# 1 0.015243 -0.002010 -0.002511 0.000000 0.000000 0.000000
# 2 -0.002010 0.025457 -0.017910 0.000000 0.000000 0.000000
# 3 -0.002511 -0.017910 0.023792 0.000000 0.000000 0.000000
# 4 0.000000 0.000000 0.000000 0.022037 0.000000 0.000000
# 5 0.000000 0.000000 0.000000 0.000000 0.030505 0.000000
# 6 0.000000 0.000000 0.000000 0.000000 0.000000 0.029724
#
#
# Mechanical properties :
#
#
# Convention : Reuss Voigt Hill
#
# Bulk Modulus (GPa) = 50.94485 55.96148 53.45317
# Shear Modulus (GPa) = 25.23178 31.82638 28.52908
#
# Velocity S-wave (km/s) = 3.65280 4.10247 3.88415
# Velocity P-wave (km/s) = 6.68813 7.21344 6.95574
#
# Compressibility (1/GPa) = 0.01962907
#
# Stress axis : x y z
#
# Youngs Moduli (GPa) = 65.60282 39.28256 42.03169
#
# Poissons Ratio (x) = 0.07895 0.10555
# Poissons Ratio (y) = 0.13184 0.75280
# Poissons Ratio (z) = 0.16474 0.70356
#
# Static dielectric constant tensor:
#      x y z
#    x 3.487110 0.000000 0.000000 
#    y 0.000000 3.418100 0.000000 
#    z 0.000000 0.000000 3.462100 
# 
# 
# High freq. dielectric constant tensor:
#      x y z
#    x 1.744530 0.000000 0.000000 
#    y 0.000000 1.737440 0.000000 
#    z 0.000000 0.000000 1.738980 
# 
# From -- ./inp_files/66999.got.cif
#   From: 2010.03.12/outbox.cif.g09.slc.cpg/sg63_34_cif.got.tgz:66999.got - 2010.04.10 19:34:48.
