data_PCOD8260275
_publ_section_title
;
Structure prediction by ZEFSAII (Michael W. Deem and Ramdas Pophale) SiO2 
 PCOD8260275
Probable space group: C M C M
;
_chemical_formula_sum "Si O2"
_cell_formula_units_Z 96
_cell_length_a 12.831715
_cell_length_b 13.578978
_cell_length_c 28.223607
_cell_angle_alpha 90.000000
_cell_angle_beta 90.000000
_cell_angle_gamma 90.000000
_cell_volume 4917.725755
_symmetry_space_group_name_H-M "C M C M"
_symmetry_group_IT_number 63
_symmetry_cell_setting 'orthorhombic'
loop_
_space_group_symop_operation_xyz
x,y,z
-x,-y,1/2+z
x,-y,-z
-x,y,1/2-z
-x,-y,-z
x,y,1/2-z
-x,y,z
x,-y,1/2+z
1/2+x,1/2+y,z
1/2-x,1/2-y,1/2+z
1/2+x,1/2-y,-z
1/2-x,1/2+y,1/2-z
1/2-x,1/2-y,-z
1/2+x,1/2+y,1/2-z
1/2-x,1/2+y,z
1/2+x,1/2-y,1/2+z
loop_
_atom_site_type_symbol
_atom_site_label
_atom_site_fract_x
_atom_site_fract_y
_atom_site_fract_z
Si Si1 0.117654 0.438839 0.100611
Si Si2 0.743587 0.399762 0.016127
Si Si3 0.692101 0.126534 0.351407
Si Si4 0.121845 0.585938 0.250000
Si Si5 0.878881 0.276080 0.944082
Si Si6 0.117069 0.750889 0.840606
Si Si7 0.624268 0.865872 0.250000
O O1 0.163308 0.439791 0.048610
O O2 0.180373 0.511722 0.135480
O O3 0.121333 0.326138 0.116693
O O4 0.000000 0.479543 0.099334
O O5 0.659557 0.334777 0.044775
O O6 0.684391 0.500000 0.000000
O O7 0.799213 0.345875 0.972306
O O8 0.654045 0.144495 0.297532
O O9 0.630114 0.197075 0.388317
O O10 0.814011 0.154634 0.353536
O O11 0.172313 0.475965 0.250000
O O12 0.000000 0.573686 0.250000
O O13 0.000000 0.286571 0.959798
O O14 0.163358 0.694332 0.795303
O O15 0.000000 0.789326 0.831856
O O16 0.500000 0.873804 0.250000
#
# Coordination Sequence:
#
# PCOD8260275 Si02
#       7
#    16  16  16   8  16  16   8
#     4  11  21  37  61  88 119 153 197 248 296 349
#     4  11  23  40  61  87 119 158 201 245 299 363
#     4  12  22  37  62  93 120 153 201 251 295 350
#     4  11  21  34  59  94 122 152 197 249 298 348
#     4  11  24  40  60  89 123 158 200 250 300 355
#     4  10  21  38  59  84 118 157 196 240 293 353
#     4   9  17  34  58  84 112 152 198 239 289 344
#
# _framework density 19.521218000000001
#
# number of rings (size 3 to 8) (size 9 to 14) (size 15 to 20)
#    0.000    1.167    5.000    2.500    0.000    1.000 
#    0.000    0.833    0.000    0.000    0.000    0.000 
#    0.000    0.000    0.000    0.000    0.000    0.000 
#
# Total GULP energy -595055.608789 kJ/mol
# GULP energy per Si atom -12396.991850 kJ/mol
# Density = 1.947679 g / cm^3
# Si number density = 19.521218 Si / 1000 Ang^3
#
#
#
# Elastic Constant Matrix: (Units=GPa)
#
#
# Indices 1 2 3 4 5 6 
#
# 1 87.6394 43.5572 17.7462 0.0000 0.0000 0.0000
# 2 43.5572 85.4438 24.4274 0.0000 0.0000 0.0000
# 3 17.7462 24.4274 108.6103 0.0000 0.0000 0.0000
# 4 0.0000 0.0000 0.0000 20.8923 0.0000 0.0000
# 5 0.0000 0.0000 0.0000 0.0000 24.0434 0.0000
# 6 0.0000 0.0000 0.0000 0.0000 0.0000 28.9703
#
#
#
# Elastic Compliance Matrix: (Units=1/GPa)
#
#
# Indices 1 2 3 4 5 6 
#
# 1 0.015347 -0.007595 -0.000799 0.000000 0.000000 0.000000
# 2 -0.007595 0.016266 -0.002417 0.000000 0.000000 0.000000
# 3 -0.000799 -0.002417 0.009882 0.000000 0.000000 0.000000
# 4 0.000000 0.000000 0.000000 0.047865 0.000000 0.000000
# 5 0.000000 0.000000 0.000000 0.000000 0.041591 0.000000
# 6 0.000000 0.000000 0.000000 0.000000 0.000000 0.034518
#
#
# Mechanical properties :
#
#
# Convention : Reuss Voigt Hill
#
# Bulk Modulus (GPa) = 50.32400 50.35056 50.33728
# Shear Modulus (GPa) = 25.81089 27.84538 26.82813
#
# Velocity S-wave (km/s) = 3.64015 3.78089 3.71119
# Velocity P-wave (km/s) = 6.59565 6.70141 6.64874
#
# Compressibility (1/GPa) = 0.01987123
#
# Stress axis : x y z
#
# Youngs Moduli (GPa) = 65.15926 61.47615 101.19855
#
# Poissons Ratio (x) = 0.46691 0.08090
# Poissons Ratio (y) = 0.49488 0.24465
# Poissons Ratio (z) = 0.05209 0.14862
#
# Static dielectric constant tensor:
#      x y z
#    x 3.407460 0.000000 0.000000 
#    y 0.000000 3.607170 0.000000 
#    z 0.000000 0.000000 3.784440 
# 
# 
# High freq. dielectric constant tensor:
#      x y z
#    x 1.735480 0.000000 0.000000 
#    y 0.000000 1.755060 0.000000 
#    z 0.000000 0.000000 1.775130 
# 
# From -- ./inp_files/72780.got.cif
#   From: 2010.03.12/outbox.cif.g09.slc.cpg/sg63_37_cif.got.tgz:72780.got - 2010.04.10 19:34:48.
