data_PCOD8260141
_publ_section_title
;
Structure prediction by ZEFSAII (Michael W. Deem and Ramdas Pophale) SiO2 
 PCOD8260141
Probable space group: C M C M
;
_chemical_formula_sum "Si O2"
_cell_formula_units_Z 80
_cell_length_a 9.333491
_cell_length_b 25.404813
_cell_length_c 17.668520
_cell_angle_alpha 90.000000
_cell_angle_beta 90.000000
_cell_angle_gamma 90.000000
_cell_volume 4189.481606
_symmetry_space_group_name_H-M "C M C M"
_symmetry_group_IT_number 63
_symmetry_cell_setting 'orthorhombic'
loop_
_space_group_symop_operation_xyz
x,y,z
-x,-y,1/2+z
x,-y,-z
-x,y,1/2-z
-x,-y,-z
x,y,1/2-z
-x,y,z
x,-y,1/2+z
1/2+x,1/2+y,z
1/2-x,1/2-y,1/2+z
1/2+x,1/2-y,-z
1/2-x,1/2+y,1/2-z
1/2-x,1/2-y,-z
1/2+x,1/2+y,1/2-z
1/2-x,1/2+y,z
1/2+x,1/2-y,1/2+z
loop_
_atom_site_type_symbol
_atom_site_label
_atom_site_fract_x
_atom_site_fract_y
_atom_site_fract_z
Si Si1 0.834249 0.790645 0.662929
Si Si2 0.166793 0.810957 0.162693
Si Si3 0.334495 0.401131 0.597681
Si Si4 0.166058 0.505321 0.337131
Si Si5 0.833788 0.915310 0.078380
O O1 0.795488 0.802480 0.750000
O O2 0.747243 0.740589 0.632112
O O3 0.789680 0.841045 0.613599
O O4 0.000000 0.777022 0.652888
O O5 0.204943 0.821870 0.250000
O O6 0.219879 0.860889 0.114895
O O7 0.000000 0.800874 0.150312
O O8 0.500000 0.410133 0.620307
O O9 0.236955 0.438096 0.649262
O O10 0.307444 0.413785 0.510551
O O11 0.186517 0.489268 0.250000
O O12 0.241888 0.462635 0.389248
O O13 0.000000 0.508404 0.359460
O O14 0.000000 0.925359 0.098219
#
# Coordination Sequence:
#
# PCOD8260141 Si02
#       5
#    16  16  16  16  16
#     4   9  18  33  53  77 106 141 180 220 261 308
#     4   9  18  33  53  77 106 141 180 220 261 308
#     4  10  21  37  57  81 109 142 180 220 265 320
#     4  11  24  39  56  80 108 139 178 223 270 320
#     4  10  21  37  57  81 109 142 180 220 265 320
#
# _framework density 19.09544
#
# number of rings (size 3 to 8) (size 9 to 14) (size 15 to 20)
#    0.000    2.200    0.000    2.400    0.000    8.800 
#    0.000    4.000    0.000    0.000    0.000    0.000 
#    0.000    0.000    0.000    0.000    0.000    0.000 
#
# Total GULP energy -496193.703924 kJ/mol
# GULP energy per Si atom -12404.842598 kJ/mol
# Density = 1.905198 g / cm^3
# Si number density = 19.095440 Si / 1000 Ang^3
#
#
#
# Elastic Constant Matrix: (Units=GPa)
#
#
# Indices 1 2 3 4 5 6 
#
# 1 66.4732 49.5614 27.7246 0.0000 0.0000 0.0000
# 2 49.5614 110.4182 22.8592 0.0000 0.0000 0.0000
# 3 27.7246 22.8592 47.3723 0.0000 0.0000 0.0000
# 4 0.0000 0.0000 0.0000 79.3580 0.0000 0.0000
# 5 0.0000 0.0000 0.0000 0.0000 23.8075 0.0000
# 6 0.0000 0.0000 0.0000 0.0000 0.0000 40.2310
#
#
#
# Elastic Compliance Matrix: (Units=1/GPa)
#
#
# Indices 1 2 3 4 5 6 
#
# 1 0.026973 -0.009820 -0.011047 0.000000 0.000000 0.000000
# 2 -0.009820 0.013637 -0.000833 0.000000 0.000000 0.000000
# 3 -0.011047 -0.000833 0.027977 0.000000 0.000000 0.000000
# 4 0.000000 0.000000 0.000000 0.012601 0.000000 0.000000
# 5 0.000000 0.000000 0.000000 0.000000 0.042004 0.000000
# 6 0.000000 0.000000 0.000000 0.000000 0.000000 0.024856
#
#
# Mechanical properties :
#
#
# Convention : Reuss Voigt Hill
#
# Bulk Modulus (GPa) = 39.70522 47.17267 43.43894
# Shear Modulus (GPa) = 25.01967 36.95387 30.98677
#
# Velocity S-wave (km/s) = 3.62365 4.40389 4.03268
# Velocity P-wave (km/s) = 6.19242 7.11451 6.66942
#
# Compressibility (1/GPa) = 0.02518561
#
# Stress axis : x y z
#
# Youngs Moduli (GPa) = 37.07466 73.33238 35.74383
#
# Poissons Ratio (x) = 0.72010 0.39487
# Poissons Ratio (y) = 0.36406 0.02978
# Poissons Ratio (z) = 0.40957 0.06111
#
# Static dielectric constant tensor:
#      x y z
#    x 3.465990 0.000000 0.000000 
#    y 0.000000 3.624490 0.000000 
#    z 0.000000 0.000000 3.475080 
# 
# 
# High freq. dielectric constant tensor:
#      x y z
#    x 1.734920 0.000000 0.000000 
#    y 0.000000 1.754590 0.000000 
#    z 0.000000 0.000000 1.742460 
# 
# From -- ./inp_files/40521.got.cif
#   From: 2010.03.12/outbox.cif.g09.slc.cpg/sg63_21_cif.got.tgz:40521.got - 2010.04.10 19:34:48.
