data_PCOD8260355
_publ_section_title
;
Structure prediction by ZEFSAII (Michael W. Deem and Ramdas Pophale) SiO2 
 PCOD8260355
Probable space group: C M C M
;
_chemical_formula_sum "Si O2"
_cell_formula_units_Z 56
_cell_length_a 25.846182
_cell_length_b 10.840379
_cell_length_c 9.739042
_cell_angle_alpha 90.000000
_cell_angle_beta 90.000000
_cell_angle_gamma 90.000000
_cell_volume 2728.708245
_symmetry_space_group_name_H-M "C M C M"
_symmetry_group_IT_number 63
_symmetry_cell_setting 'orthorhombic'
loop_
_space_group_symop_operation_xyz
x,y,z
-x,-y,1/2+z
x,-y,-z
-x,y,1/2-z
-x,-y,-z
x,y,1/2-z
-x,y,z
x,-y,1/2+z
1/2+x,1/2+y,z
1/2-x,1/2-y,1/2+z
1/2+x,1/2-y,-z
1/2-x,1/2+y,1/2-z
1/2-x,1/2-y,-z
1/2+x,1/2+y,1/2-z
1/2-x,1/2+y,z
1/2+x,1/2-y,1/2+z
loop_
_atom_site_type_symbol
_atom_site_label
_atom_site_fract_x
_atom_site_fract_y
_atom_site_fract_z
Si Si1 0.442319 0.680718 0.900012
Si Si2 0.202338 0.773119 0.597580
Si Si3 0.397202 0.879386 0.410250
Si Si4 0.361836 0.500000 0.500000
O O1 0.437548 0.746313 0.750000
O O2 0.500000 0.625253 0.918022
O O3 0.433616 0.774796 0.024939
O O4 0.399801 0.572158 0.896843
O O5 0.225221 0.769043 0.750000
O O6 0.250000 0.750000 0.500000
O O7 0.162097 0.662308 0.574836
O O8 0.174997 0.904938 0.579024
O O9 0.412012 0.899682 0.250000
O O10 0.406255 0.000000 0.500000
#
# Coordination Sequence:
#
# PCOD8260355 Si02
#       4
#    16  16  16   8
#     4  10  21  38  63  92 121 157 198 246 303 358
#     4  10  23  39  59  87 117 155 199 245 298 352
#     4  10  22  40  60  86 120 160 203 249 298 353
#     4  10  21  40  62  90 120 156 197 248 294 358
#
# _framework density 20.52253
#
# number of rings (size 3 to 8) (size 9 to 14) (size 15 to 20)
#    0.000    2.000    0.000    2.143    2.000    9.143 
#    0.000    0.000    0.000    0.000    0.000    0.000 
#    0.000    0.000    0.000    0.000    0.000    0.000 
#
# Total GULP energy -347076.966634 kJ/mol
# GULP energy per Si atom -12395.605951 kJ/mol
# Density = 2.047582 g / cm^3
# Si number density = 20.522530 Si / 1000 Ang^3
#
#
#
# Elastic Constant Matrix: (Units=GPa)
#
#
# Indices 1 2 3 4 5 6 
#
# 1 127.4234 42.1436 69.3335 0.0000 0.0000 0.0000
# 2 42.1436 105.2882 51.1436 0.0000 0.0000 0.0000
# 3 69.3335 51.1436 165.0841 0.0000 0.0000 0.0000
# 4 0.0000 0.0000 0.0000 31.1084 0.0000 0.0000
# 5 0.0000 0.0000 0.0000 0.0000 31.6805 0.0000
# 6 0.0000 0.0000 0.0000 0.0000 0.0000 15.5467
#
#
#
# Elastic Compliance Matrix: (Units=1/GPa)
#
#
# Indices 1 2 3 4 5 6 
#
# 1 0.010692 -0.002470 -0.003725 0.000000 0.000000 0.000000
# 2 -0.002470 0.011751 -0.002603 0.000000 0.000000 0.000000
# 3 -0.003725 -0.002603 0.008428 0.000000 0.000000 0.000000
# 4 0.000000 0.000000 0.000000 0.032146 0.000000 0.000000
# 5 0.000000 0.000000 0.000000 0.000000 0.031565 0.000000
# 6 0.000000 0.000000 0.000000 0.000000 0.000000 0.064322
#
#
# Mechanical properties :
#
#
# Convention : Reuss Voigt Hill
#
# Bulk Modulus (GPa) = 75.33252 80.33747 77.83499
# Shear Modulus (GPa) = 27.63567 31.34547 29.49057
#
# Velocity S-wave (km/s) = 3.67359 3.91240 3.79487
# Velocity P-wave (km/s) = 7.40139 7.72270 7.56375
#
# Compressibility (1/GPa) = 0.01327448
#
# Stress axis : x y z
#
# Youngs Moduli (GPa) = 93.53026 85.10015 118.64528
#
# Poissons Ratio (x) = 0.21020 0.44197
# Poissons Ratio (y) = 0.23103 0.30884
# Poissons Ratio (z) = 0.34842 0.22152
#
# Static dielectric constant tensor:
#      x y z
#    x 3.671700 0.000000 0.000000 
#    y 0.000000 3.691390 0.000000 
#    z 0.000000 0.000000 3.898510 
# 
# 
# High freq. dielectric constant tensor:
#      x y z
#    x 1.804730 0.000000 0.000000 
#    y 0.000000 1.793980 0.000000 
#    z 0.000000 0.000000 1.814780 
# 
# From -- ./inp_files/11438.got.cif
#   From: 2010.03.12/outbox.cif.g09.slc.cpg/sg63_6_cif.got.tgz:11438.got - 2010.04.10 19:34:48.
