data_PCOD8260319
_publ_section_title
;
Structure prediction by ZEFSAII (Michael W. Deem and Ramdas Pophale) SiO2 
 PCOD8260319
Probable space group: C M C M
;
_chemical_formula_sum "Si O2"
_cell_formula_units_Z 80
_cell_length_a 8.958071
_cell_length_b 27.302148
_cell_length_c 16.099400
_cell_angle_alpha 90.000000
_cell_angle_beta 90.000000
_cell_angle_gamma 90.000000
_cell_volume 3937.503997
_symmetry_space_group_name_H-M "C M C M"
_symmetry_group_IT_number 63
_symmetry_cell_setting 'orthorhombic'
loop_
_space_group_symop_operation_xyz
x,y,z
-x,-y,1/2+z
x,-y,-z
-x,y,1/2-z
-x,-y,-z
x,y,1/2-z
-x,y,z
x,-y,1/2+z
1/2+x,1/2+y,z
1/2-x,1/2-y,1/2+z
1/2+x,1/2-y,-z
1/2-x,1/2+y,1/2-z
1/2-x,1/2-y,-z
1/2+x,1/2+y,1/2-z
1/2-x,1/2+y,z
1/2+x,1/2-y,1/2+z
loop_
_atom_site_type_symbol
_atom_site_label
_atom_site_fract_x
_atom_site_fract_y
_atom_site_fract_z
Si Si1 0.829898 0.371671 0.750000
Si Si2 0.676589 0.271849 0.083385
Si Si3 0.172772 0.022673 0.841818
Si Si4 0.322662 0.270942 0.750000
Si Si5 0.170636 0.434159 0.588693
Si Si6 0.830101 0.116109 0.557927
O O1 0.710726 0.328393 0.750000
O O2 0.797646 0.405555 0.827601
O O3 0.000000 0.351216 0.750000
O O4 0.500000 0.259931 0.082961
O O5 0.750762 0.250670 0.166348
O O6 0.708847 0.329556 0.087440
O O7 0.750000 0.250000 0.000000
O O8 0.242183 0.015519 0.750000
O O9 0.199175 0.079102 0.866242
O O10 0.000000 0.009405 0.841410
O O11 0.248529 0.986746 0.908508
O O12 0.500000 0.261775 0.750000
O O13 0.225607 0.398600 0.517228
O O14 0.000000 0.446127 0.573328
O O15 0.000000 0.112848 0.526621
#
# Coordination Sequence:
#
# PCOD8260319 Si02
#       6
#     8  16  16   8  16  16
#     4  10  22  40  61  86 119 161 206 255 309 370
#     4  11  24  44  69  96 130 169 216 271 324 382
#     4  10  21  38  61  87 119 159 205 250 295 361
#     4  12  26  42  65  96 129 167 216 267 325 388
#     4  11  22  38  60  89 124 159 199 250 311 366
#     4  10  23  40  62  89 120 161 208 251 302 368
#
# _framework density 20.317439
#
# number of rings (size 3 to 8) (size 9 to 14) (size 15 to 20)
#    0.000    1.400    1.000    3.900    1.400    9.600 
#    0.000    0.000    0.000    0.000    0.000    0.000 
#    0.000    0.000    0.000    0.000    0.000    0.000 
#
# Total GULP energy -496086.758151 kJ/mol
# GULP energy per Si atom -12402.168954 kJ/mol
# Density = 2.027120 g / cm^3
# Si number density = 20.317439 Si / 1000 Ang^3
#
#
#
# Elastic Constant Matrix: (Units=GPa)
#
#
# Indices 1 2 3 4 5 6 
#
# 1 109.2217 58.7454 56.8942 0.0000 0.0000 0.0000
# 2 58.7454 117.4585 24.2025 0.0000 0.0000 0.0000
# 3 56.8942 24.2025 106.5638 0.0000 0.0000 0.0000
# 4 0.0000 0.0000 0.0000 17.3121 0.0000 0.0000
# 5 0.0000 0.0000 0.0000 0.0000 43.0752 0.0000
# 6 0.0000 0.0000 0.0000 0.0000 0.0000 29.0410
#
#
#
# Elastic Compliance Matrix: (Units=1/GPa)
#
#
# Indices 1 2 3 4 5 6 
#
# 1 0.016641 -0.006811 -0.007338 0.000000 0.000000 0.000000
# 2 -0.006811 0.011719 0.000975 0.000000 0.000000 0.000000
# 3 -0.007338 0.000975 0.013080 0.000000 0.000000 0.000000
# 4 0.000000 0.000000 0.000000 0.057763 0.000000 0.000000
# 5 0.000000 0.000000 0.000000 0.000000 0.023215 0.000000
# 6 0.000000 0.000000 0.000000 0.000000 0.000000 0.034434
#
#
# Mechanical properties :
#
#
# Convention : Reuss Voigt Hill
#
# Bulk Modulus (GPa) = 66.25741 68.10312 67.18027
# Shear Modulus (GPa) = 26.56292 30.77913 28.67103
#
# Velocity S-wave (km/s) = 3.61971 3.89641 3.76061
# Velocity P-wave (km/s) = 7.08178 7.33723 7.21064
#
# Compressibility (1/GPa) = 0.01509265
#
# Stress axis : x y z
#
# Youngs Moduli (GPa) = 60.09132 85.32992 76.45049
#
# Poissons Ratio (x) = 0.58118 0.56099
# Poissons Ratio (y) = 0.40928 -0.07452
# Poissons Ratio (z) = 0.44094 -0.08317
#
# Static dielectric constant tensor:
#      x y z
#    x 3.734500 0.000000 0.000000 
#    y 0.000000 3.819780 0.000000 
#    z 0.000000 0.000000 3.776560 
# 
# 
# High freq. dielectric constant tensor:
#      x y z
#    x 1.793720 0.000000 0.000000 
#    y 0.000000 1.808120 0.000000 
#    z 0.000000 0.000000 1.805930 
# 
# From -- ./inp_files/40621.got.cif
#   From: 2010.03.12/outbox.cif.g09.slc.cpg/sg63_21_cif.got.tgz:40621.got - 2010.04.10 19:34:48.
