data_PCOD8260178
_publ_section_title
;
Structure prediction by ZEFSAII (Michael W. Deem and Ramdas Pophale) SiO2 
 PCOD8260178
Probable space group: C M C M
;
_chemical_formula_sum "Si O2"
_cell_formula_units_Z 96
_cell_length_a 20.091505
_cell_length_b 14.490302
_cell_length_c 16.801855
_cell_angle_alpha 90.000000
_cell_angle_beta 90.000000
_cell_angle_gamma 90.000000
_cell_volume 4891.557231
_symmetry_space_group_name_H-M "C M C M"
_symmetry_group_IT_number 63
_symmetry_cell_setting 'orthorhombic'
loop_
_space_group_symop_operation_xyz
x,y,z
-x,-y,1/2+z
x,-y,-z
-x,y,1/2-z
-x,-y,-z
x,y,1/2-z
-x,y,z
x,-y,1/2+z
1/2+x,1/2+y,z
1/2-x,1/2-y,1/2+z
1/2+x,1/2-y,-z
1/2-x,1/2+y,1/2-z
1/2-x,1/2-y,-z
1/2+x,1/2+y,1/2-z
1/2-x,1/2+y,z
1/2+x,1/2-y,1/2+z
loop_
_atom_site_type_symbol
_atom_site_label
_atom_site_fract_x
_atom_site_fract_y
_atom_site_fract_z
Si Si1 0.925272 0.159935 0.658353
Si Si2 0.284085 0.336804 0.660558
Si Si3 0.680731 0.843034 0.420441
Si Si4 0.926131 0.513597 0.906024
Si Si5 0.644908 0.168339 0.398266
Si Si6 0.201324 0.044989 0.842906
O O1 0.921398 0.191489 0.750000
O O2 0.906546 0.247177 0.603515
O O3 0.874493 0.076456 0.641994
O O4 0.000000 0.127220 0.636134
O O5 0.311611 0.330479 0.750000
O O6 0.324123 0.262618 0.608161
O O7 0.205766 0.311853 0.661226
O O8 0.294337 0.439833 0.626045
O O9 0.618248 0.897957 0.383290
O O10 0.677673 0.845057 0.515333
O O11 0.749334 0.890640 0.393287
O O12 0.893155 0.422775 0.868236
O O13 0.000000 0.528179 0.870618
O O14 0.929821 0.500000 0.000000
O O15 0.221370 0.051791 0.750000
#
# Coordination Sequence:
#
# PCOD8260178 Si02
#       6
#    16  16  16  16  16  16
#     4  10  21  38  59  84 116 154 194 238 291 345
#     4  11  22  36  56  84 114 146 191 241 287 340
#     4  11  21  36  58  86 116 150 191 235 293 347
#     4   9  19  35  55  82 118 151 181 226 287 346
#     4  11  20  34  58  89 115 145 189 242 290 340
#     4  10  21  37  58  83 115 154 196 241 286 343
#
# _framework density 19.625651999999999
#
# number of rings (size 3 to 8) (size 9 to 14) (size 15 to 20)
#    0.000    1.667    3.333    2.000    0.000    0.667 
#    0.000    0.833    0.000    7.000    0.000    0.000 
#    0.000    0.000    0.000    0.000    0.000    0.000 
#
# Total GULP energy -595288.438334 kJ/mol
# GULP energy per Si atom -12401.842465 kJ/mol
# Density = 1.958098 g / cm^3
# Si number density = 19.625652 Si / 1000 Ang^3
#
#
#
# Elastic Constant Matrix: (Units=GPa)
#
#
# Indices 1 2 3 4 5 6 
#
# 1 142.4549 54.4283 29.4281 0.0000 0.0000 0.0000
# 2 54.4283 130.1666 29.1692 0.0000 0.0000 0.0000
# 3 29.4281 29.1692 42.6958 0.0000 0.0000 0.0000
# 4 0.0000 0.0000 0.0000 24.8172 0.0000 0.0000
# 5 0.0000 0.0000 0.0000 0.0000 14.5597 0.0000
# 6 0.0000 0.0000 0.0000 0.0000 0.0000 37.2591
#
#
#
# Elastic Compliance Matrix: (Units=1/GPa)
#
#
# Indices 1 2 3 4 5 6 
#
# 1 0.008970 -0.002793 -0.004274 0.000000 0.000000 0.000000
# 2 -0.002793 0.009941 -0.004866 0.000000 0.000000 0.000000
# 3 -0.004274 -0.004866 0.029692 0.000000 0.000000 0.000000
# 4 0.000000 0.000000 0.000000 0.040295 0.000000 0.000000
# 5 0.000000 0.000000 0.000000 0.000000 0.068683 0.000000
# 6 0.000000 0.000000 0.000000 0.000000 0.000000 0.026839
#
#
# Mechanical properties :
#
#
# Convention : Reuss Voigt Hill
#
# Bulk Modulus (GPa) = 40.42766 60.15206 50.28986
# Shear Modulus (GPa) = 23.09127 28.81332 25.95230
#
# Velocity S-wave (km/s) = 3.43386 3.83580 3.64038
# Velocity P-wave (km/s) = 6.03042 7.09465 6.58407
#
# Compressibility (1/GPa) = 0.02473554
#
# Stress axis : x y z
#
# Youngs Moduli (GPa) = 111.48473 100.59562 33.67867
#
# Poissons Ratio (x) = 0.28094 0.14396
# Poissons Ratio (y) = 0.31136 0.16390
# Poissons Ratio (z) = 0.47654 0.48954
#
# Static dielectric constant tensor:
#      x y z
#    x 3.692490 0.000000 0.000000 
#    y 0.000000 3.706710 0.000000 
#    z 0.000000 0.000000 3.306770 
# 
# 
# High freq. dielectric constant tensor:
#      x y z
#    x 1.759550 0.000000 0.000000 
#    y 0.000000 1.771400 0.000000 
#    z 0.000000 0.000000 1.742030 
# 
# From -- ./inp_files/35365.got.cif
#   From: 2010.03.12/outbox.cif.g09.slc.cpg/sg63_18_cif.got.tgz:35365.got - 2010.04.10 19:34:48.
