data_PCOD8260501
_publ_section_title
;
Structure prediction by ZEFSAII (Michael W. Deem and Ramdas Pophale) SiO2 
 PCOD8260501
Probable space group: C M C M
;
_chemical_formula_sum "Si O2"
_cell_formula_units_Z 96
_cell_length_a 13.646382
_cell_length_b 21.706950
_cell_length_c 15.313641
_cell_angle_alpha 90.000000
_cell_angle_beta 90.000000
_cell_angle_gamma 90.000000
_cell_volume 4536.227131
_symmetry_space_group_name_H-M "C M C M"
_symmetry_group_IT_number 63
_symmetry_cell_setting 'orthorhombic'
loop_
_space_group_symop_operation_xyz
x,y,z
-x,-y,1/2+z
x,-y,-z
-x,y,1/2-z
-x,-y,-z
x,y,1/2-z
-x,y,z
x,-y,1/2+z
1/2+x,1/2+y,z
1/2-x,1/2-y,1/2+z
1/2+x,1/2-y,-z
1/2-x,1/2+y,1/2-z
1/2-x,1/2-y,-z
1/2+x,1/2+y,1/2-z
1/2-x,1/2+y,z
1/2+x,1/2-y,1/2+z
loop_
_atom_site_type_symbol
_atom_site_label
_atom_site_fract_x
_atom_site_fract_y
_atom_site_fract_z
Si Si1 0.108066 0.829607 0.917350
Si Si2 0.387770 0.986299 0.900254
Si Si3 0.210758 0.603171 0.847106
Si Si4 0.109536 0.939622 0.447835
Si Si5 0.112307 0.694100 0.519710
Si Si6 0.193334 0.359500 0.653201
O O1 0.132341 0.765604 0.965236
O O2 0.190805 0.843962 0.846147
O O3 0.000000 0.826955 0.872723
O O4 0.110556 0.881308 0.990018
O O5 0.500000 0.965618 0.889160
O O6 0.368571 0.048301 0.846242
O O7 0.319405 0.931719 0.865876
O O8 0.360780 0.000000 0.000000
O O9 0.214353 0.632313 0.750000
O O10 0.316193 0.573542 0.869092
O O11 0.181789 0.655313 0.916374
O O12 0.000000 0.950383 0.409774
O O13 0.144980 0.000000 0.500000
O O14 0.136360 0.680253 0.418859
O O15 0.000000 0.675617 0.538497
O O16 0.152885 0.343620 0.750000
#
# Coordination Sequence:
#
# PCOD8260501 Si02
#       6
#    16  16  16  16  16  16
#     4  10  22  43  68  90 125 173 216 264 320 381
#     4  11  22  40  64  90 128 171 209 261 322 381
#     4  12  24  38  64  96 128 168 214 265 323 384
#     4  10  21  41  68  94 125 167 216 269 325 382
#     4  11  24  43  64  91 132 175 216 263 321 390
#     4  12  24  39  65  96 129 168 215 268 324 383
#
# _framework density 21.162960999999999
#
# number of rings (size 3 to 8) (size 9 to 14) (size 15 to 20)
#    0.000    1.000    3.333    3.500    0.000    4.667 
#    0.000    1.667    0.000    8.000    0.000    0.000 
#    0.000    0.000    0.000    0.000    0.000    0.000 
#
# Total GULP energy -595293.022406 kJ/mol
# GULP energy per Si atom -12401.937967 kJ/mol
# Density = 2.111479 g / cm^3
# Si number density = 21.162961 Si / 1000 Ang^3
#
#
#
# Elastic Constant Matrix: (Units=GPa)
#
#
# Indices 1 2 3 4 5 6 
#
# 1 106.3250 41.7707 47.5202 0.0000 0.0000 0.0000
# 2 41.7707 141.1435 42.7523 0.0000 0.0000 0.0000
# 3 47.5202 42.7523 143.3923 0.0000 0.0000 0.0000
# 4 0.0000 0.0000 0.0000 6.8759 0.0000 0.0000
# 5 0.0000 0.0000 0.0000 0.0000 13.3299 0.0000
# 6 0.0000 0.0000 0.0000 0.0000 0.0000 34.3298
#
#
#
# Elastic Compliance Matrix: (Units=1/GPa)
#
#
# Indices 1 2 3 4 5 6 
#
# 1 0.011814 -0.002540 -0.003158 0.000000 0.000000 0.000000
# 2 -0.002540 0.008334 -0.001643 0.000000 0.000000 0.000000
# 3 -0.003158 -0.001643 0.008510 0.000000 0.000000 0.000000
# 4 0.000000 0.000000 0.000000 0.145435 0.000000 0.000000
# 5 0.000000 0.000000 0.000000 0.000000 0.075019 0.000000
# 6 0.000000 0.000000 0.000000 0.000000 0.000000 0.029129
#
#
# Mechanical properties :
#
#
# Convention : Reuss Voigt Hill
#
# Bulk Modulus (GPa) = 71.54618 72.77191 72.15905
# Shear Modulus (GPa) = 16.80201 28.16162 22.48182
#
# Velocity S-wave (km/s) = 2.82074 3.65184 3.26286
# Velocity P-wave (km/s) = 6.67004 7.22789 6.95456
#
# Compressibility (1/GPa) = 0.01397699
#
# Stress axis : x y z
#
# Youngs Moduli (GPa) = 84.64283 119.98520 117.50385
#
# Poissons Ratio (x) = 0.30474 0.37108
# Poissons Ratio (y) = 0.21498 0.19308
# Poissons Ratio (z) = 0.26730 0.19716
#
# Static dielectric constant tensor:
#      x y z
#    x 4.305690 0.000000 0.000000 
#    y 0.000000 3.871300 0.000000 
#    z 0.000000 0.000000 3.370930 
# 
# 
# High freq. dielectric constant tensor:
#      x y z
#    x 1.847420 0.000000 0.000000 
#    y 0.000000 1.838120 0.000000 
#    z 0.000000 0.000000 1.804230 
# 
# From -- ./inp_files/31846.got.cif
#   From: 2010.03.12/outbox.cif.g09.slc.cpg/sg63_16_cif.got.tgz:31846.got - 2010.04.10 19:34:48.
