data_PCOD8260401
_publ_section_title
;
Structure prediction by ZEFSAII (Michael W. Deem and Ramdas Pophale) SiO2 
 PCOD8260401
Probable space group: C M C M
;
_chemical_formula_sum "Si O2"
_cell_formula_units_Z 88
_cell_length_a 19.632632
_cell_length_b 8.538426
_cell_length_c 24.929840
_cell_angle_alpha 90.000000
_cell_angle_beta 90.000000
_cell_angle_gamma 90.000000
_cell_volume 4179.033343
_symmetry_space_group_name_H-M "C M C M"
_symmetry_group_IT_number 63
_symmetry_cell_setting 'orthorhombic'
loop_
_space_group_symop_operation_xyz
x,y,z
-x,-y,1/2+z
x,-y,-z
-x,y,1/2-z
-x,-y,-z
x,y,1/2-z
-x,y,z
x,-y,1/2+z
1/2+x,1/2+y,z
1/2-x,1/2-y,1/2+z
1/2+x,1/2-y,-z
1/2-x,1/2+y,1/2-z
1/2-x,1/2-y,-z
1/2+x,1/2+y,1/2-z
1/2-x,1/2+y,z
1/2+x,1/2-y,1/2+z
loop_
_atom_site_type_symbol
_atom_site_label
_atom_site_fract_x
_atom_site_fract_y
_atom_site_fract_z
Si Si1 0.925444 0.951298 0.349077
Si Si2 0.820652 0.538837 0.631262
Si Si3 0.812211 0.555851 0.250000
Si Si4 0.344837 0.500000 0.500000
Si Si5 0.192246 0.800926 0.405755
Si Si6 0.575339 0.731411 0.422766
Si Si7 0.334558 0.422744 0.250000
O O1 0.885365 0.837720 0.389314
O O2 0.879676 0.976994 0.298479
O O3 0.000000 0.876873 0.336949
O O4 0.934819 0.123915 0.371458
O O5 0.844386 0.508852 0.693535
O O6 0.801995 0.385616 0.596080
O O7 0.750627 0.638138 0.635014
O O8 0.878185 0.624150 0.596118
O O9 0.732721 0.524779 0.250000
O O10 0.821756 0.739652 0.250000
O O11 0.296640 0.609868 0.537440
O O12 0.390915 0.373417 0.530904
O O13 0.500000 0.791053 0.441650
#
# Coordination Sequence:
#
# PCOD8260401 Si02
#       7
#    16  16   8   8  16  16   8
#     4  10  21  39  61  90 128 168 217 265 320 390
#     4  12  24  42  66  97 135 172 219 273 326 393
#     4  12  24  40  65  95 133 172 217 264 318 390
#     4  10  23  44  72  94 129 170 220 276 333 398
#     4  11  23  41  65  97 128 173 218 274 330 387
#     4  10  24  44  67  95 129 172 218 270 330 391
#     4  12  23  38  63  95 124 178 219 266 331 380
#
# _framework density 21.057500000000001
#
# number of rings (size 3 to 8) (size 9 to 14) (size 15 to 20)
#    0.000    1.091    3.636    2.727    2.545    5.091 
#    0.000    2.273    0.000    0.000    0.000    0.000 
#    0.000    0.000    0.000    0.000    0.000    0.000 
#
# Total GULP energy -545220.167193 kJ/mol
# GULP energy per Si atom -12391.367436 kJ/mol
# Density = 2.100957 g / cm^3
# Si number density = 21.057500 Si / 1000 Ang^3
#
#
#
# Elastic Constant Matrix: (Units=GPa)
#
#
# Indices 1 2 3 4 5 6 
#
# 1 78.1872 23.7353 7.5462 0.0000 0.0000 0.0000
# 2 23.7353 94.5175 32.1045 0.0000 0.0000 0.0000
# 3 7.5462 32.1045 110.4893 0.0000 0.0000 0.0000
# 4 0.0000 0.0000 0.0000 7.5254 0.0000 0.0000
# 5 0.0000 0.0000 0.0000 0.0000 11.4790 0.0000
# 6 0.0000 0.0000 0.0000 0.0000 0.0000 27.9284
#
#
#
# Elastic Compliance Matrix: (Units=1/GPa)
#
#
# Indices 1 2 3 4 5 6 
#
# 1 0.013846 -0.003501 0.000072 0.000000 0.000000 0.000000
# 2 -0.003501 0.012624 -0.003429 0.000000 0.000000 0.000000
# 3 0.000072 -0.003429 0.010042 0.000000 0.000000 0.000000
# 4 0.000000 0.000000 0.000000 0.132883 0.000000 0.000000
# 5 0.000000 0.000000 0.000000 0.000000 0.087116 0.000000
# 6 0.000000 0.000000 0.000000 0.000000 0.000000 0.035806
#
#
# Mechanical properties :
#
#
# Convention : Reuss Voigt Hill
#
# Bulk Modulus (GPa) = 43.86978 45.55179 44.71079
# Shear Modulus (GPa) = 15.94225 24.04041 19.99133
#
# Velocity S-wave (km/s) = 2.75450 3.38250 3.08452
# Velocity P-wave (km/s) = 5.56731 6.07735 5.82791
#
# Compressibility (1/GPa) = 0.02279474
#
# Stress axis : x y z
#
# Youngs Moduli (GPa) = 72.22405 79.21400 99.58070
#
# Poissons Ratio (x) = 0.27735 -0.00714
# Poissons Ratio (y) = 0.25288 0.34146
# Poissons Ratio (z) = -0.00518 0.27162
#
# Static dielectric constant tensor:
#      x y z
#    x 4.189320 0.000000 0.000000 
#    y 0.000000 3.731570 0.000000 
#    z 0.000000 0.000000 4.000180 
# 
# 
# High freq. dielectric constant tensor:
#      x y z
#    x 1.823830 0.000000 0.000000 
#    y 0.000000 1.821170 0.000000 
#    z 0.000000 0.000000 1.831960 
# 
# From -- ./inp_files/64460.got.cif
#   From: 2010.03.12/outbox.cif.g09.slc.cpg/sg63_33_cif.got.tgz:64460.got - 2010.04.10 19:34:48.
