data_PCOD8260037
_publ_section_title
;
Structure prediction by ZEFSAII (Michael W. Deem and Ramdas Pophale) SiO2 
 PCOD8260037
Probable space group: C M C M
;
_chemical_formula_sum "Si O2"
_cell_formula_units_Z 72
_cell_length_a 26.815160
_cell_length_b 14.559409
_cell_length_c 9.000752
_cell_angle_alpha 90.000000
_cell_angle_beta 90.000000
_cell_angle_gamma 90.000000
_cell_volume 3514.009527
_symmetry_space_group_name_H-M "C M C M"
_symmetry_group_IT_number 63
_symmetry_cell_setting 'orthorhombic'
loop_
_space_group_symop_operation_xyz
x,y,z
-x,-y,1/2+z
x,-y,-z
-x,y,1/2-z
-x,-y,-z
x,y,1/2-z
-x,y,z
x,-y,1/2+z
1/2+x,1/2+y,z
1/2-x,1/2-y,1/2+z
1/2+x,1/2-y,-z
1/2-x,1/2+y,1/2-z
1/2-x,1/2-y,-z
1/2+x,1/2+y,1/2-z
1/2-x,1/2+y,z
1/2+x,1/2-y,1/2+z
loop_
_atom_site_type_symbol
_atom_site_label
_atom_site_fract_x
_atom_site_fract_y
_atom_site_fract_z
Si Si1 0.000000 0.898802 0.426637
Si Si2 0.831883 0.914386 0.585632
Si Si3 0.371718 0.906522 0.425410
Si Si4 0.227701 0.338059 0.579038
Si Si5 0.915095 0.782703 0.577768
O O1 0.952794 0.838089 0.474833
O O2 0.000000 0.911332 0.250000
O O3 0.000000 0.000000 0.500000
O O4 0.848880 0.936325 0.750000
O O5 0.772479 0.911077 0.570735
O O6 0.859370 0.819796 0.539204
O O7 0.854690 0.000000 0.500000
O O8 0.364509 0.920727 0.250000
O O9 0.318425 0.881345 0.493601
O O10 0.412246 0.826247 0.458394
O O11 0.391975 0.000000 0.500000
O O12 0.213427 0.315875 0.750000
O O13 0.250000 0.250000 0.500000
O O14 0.930077 0.797004 0.750000
#
# Coordination Sequence:
#
# PCOD8260037 Si02
#       5
#     8  16  16  16  16
#     4  12  26  44  69 100 127 156 199 246 310 378
#     4  10  21  36  55  84 118 157 202 246 299 360
#     4  11  23  41  63  91 126 167 213 258 310 368
#     4  11  21  36  57  85 123 167 212 256 306 360
#     4  10  22  43  65  88 123 161 203 254 309 366
#
# _framework density 20.489414
#
# number of rings (size 3 to 8) (size 9 to 14) (size 15 to 20)
#    0.000    1.333    2.222    3.667    0.000    8.000 
#    0.000    0.556    0.000    0.000    0.000    0.000 
#    0.000    0.000    0.000    0.000    0.000    0.000 
#
# Total GULP energy -446228.851158 kJ/mol
# GULP energy per Si atom -12395.245865 kJ/mol
# Density = 2.044278 g / cm^3
# Si number density = 20.489414 Si / 1000 Ang^3
#
#
#
# Elastic Constant Matrix: (Units=GPa)
#
#
# Indices 1 2 3 4 5 6 
#
# 1 80.7697 40.7611 47.2734 0.0000 0.0000 0.0000
# 2 40.7611 164.8044 80.7974 0.0000 0.0000 0.0000
# 3 47.2734 80.7974 135.2473 0.0000 0.0000 0.0000
# 4 0.0000 0.0000 0.0000 41.3592 0.0000 0.0000
# 5 0.0000 0.0000 0.0000 0.0000 31.4437 0.0000
# 6 0.0000 0.0000 0.0000 0.0000 0.0000 27.7226
#
#
#
# Elastic Compliance Matrix: (Units=1/GPa)
#
#
# Indices 1 2 3 4 5 6 
#
# 1 0.015898 -0.001708 -0.004537 0.000000 0.000000 0.000000
# 2 -0.001708 0.008765 -0.004639 0.000000 0.000000 0.000000
# 3 -0.004537 -0.004639 0.011751 0.000000 0.000000 0.000000
# 4 0.000000 0.000000 0.000000 0.024178 0.000000 0.000000
# 5 0.000000 0.000000 0.000000 0.000000 0.031803 0.000000
# 6 0.000000 0.000000 0.000000 0.000000 0.000000 0.036072
#
#
# Mechanical properties :
#
#
# Convention : Reuss Voigt Hill
#
# Bulk Modulus (GPa) = 68.27592 79.83170 74.05381
# Shear Modulus (GPa) = 32.23405 34.23774 33.23590
#
# Velocity S-wave (km/s) = 3.97067 4.09222 4.03190
# Velocity P-wave (km/s) = 7.37675 7.83424 7.60894
#
# Compressibility (1/GPa) = 0.01464645
#
# Stress axis : x y z
#
# Youngs Moduli (GPa) = 62.90110 114.09591 85.09997
#
# Poissons Ratio (x) = 0.19487 0.38606
# Poissons Ratio (y) = 0.10743 0.39478
# Poissons Ratio (z) = 0.28535 0.52929
#
# Static dielectric constant tensor:
#      x y z
#    x 3.731650 0.000000 0.000000 
#    y 0.000000 3.665110 0.000000 
#    z 0.000000 0.000000 3.785040 
# 
# 
# High freq. dielectric constant tensor:
#      x y z
#    x 1.783500 0.000000 0.000000 
#    y 0.000000 1.813550 0.000000 
#    z 0.000000 0.000000 1.805310 
# 
# From -- ./inp_files/11694.got.cif
#   From: 2010.03.12/outbox.cif.g09.slc.cpg/sg63_6_cif.got.tgz:11694.got - 2010.04.10 19:34:48.
