data_PCOD8260763
_publ_section_title
;
Structure prediction by ZEFSAII (Michael W. Deem and Ramdas Pophale) SiO2 
 PCOD8260763
Probable space group: C M C M
;
_chemical_formula_sum "Si O2"
_cell_formula_units_Z 56
_cell_length_a 16.262136
_cell_length_b 17.488093
_cell_length_c 9.885392
_cell_angle_alpha 90.000000
_cell_angle_beta 90.000000
_cell_angle_gamma 90.000000
_cell_volume 2811.343669
_symmetry_space_group_name_H-M "C M C M"
_symmetry_group_IT_number 63
_symmetry_cell_setting 'orthorhombic'
loop_
_space_group_symop_operation_xyz
x,y,z
-x,-y,1/2+z
x,-y,-z
-x,y,1/2-z
-x,-y,-z
x,y,1/2-z
-x,y,z
x,-y,1/2+z
1/2+x,1/2+y,z
1/2-x,1/2-y,1/2+z
1/2+x,1/2-y,-z
1/2-x,1/2+y,1/2-z
1/2-x,1/2-y,-z
1/2+x,1/2+y,1/2-z
1/2-x,1/2+y,z
1/2+x,1/2-y,1/2+z
loop_
_atom_site_type_symbol
_atom_site_label
_atom_site_fract_x
_atom_site_fract_y
_atom_site_fract_z
Si Si1 0.402282 0.055861 0.250000
Si Si2 0.168599 0.338986 0.974329
Si Si3 0.661363 0.330984 0.402373
Si Si4 0.500000 0.575045 0.908816
Si Si5 0.403479 0.882196 0.250000
O O1 0.500000 0.063947 0.250000
O O2 0.366403 0.092537 0.385453
O O3 0.371189 0.969033 0.250000
O O4 0.146044 0.259841 0.901907
O O5 0.266610 0.351236 0.991675
O O6 0.127417 0.336760 0.120389
O O7 0.686668 0.355406 0.250000
O O8 0.579522 0.374986 0.447584
O O9 0.500000 0.553320 0.750000
O O10 0.500000 0.500000 0.000000
O O11 0.500000 0.882419 0.250000
#
# Coordination Sequence:
#
# PCOD8260763 Si02
#       5
#     8  16  16   8   8
#     4  11  24  39  64  95 129 168 205 248 316 380
#     4  11  22  41  66  93 125 169 213 253 315 373
#     4  10  22  42  66  93 124 165 216 261 310 375
#     4  10  24  46  66  94 127 167 214 264 323 377
#     4  11  24  39  58  97 133 162 203 258 306 374
#
# _framework density 19.9193
#
# number of rings (size 3 to 8) (size 9 to 14) (size 15 to 20)
#    0.000    1.429    2.857    1.714    4.000    4.571 
#    5.143    0.000    0.000    0.000    0.000    0.000 
#    0.000    0.000    0.000    0.000    0.000    0.000 
#
# Total GULP energy -347330.513693 kJ/mol
# GULP energy per Si atom -12404.661203 kJ/mol
# Density = 1.987396 g / cm^3
# Si number density = 19.919300 Si / 1000 Ang^3
#
#
#
# Elastic Constant Matrix: (Units=GPa)
#
#
# Indices 1 2 3 4 5 6 
#
# 1 106.8885 64.0494 36.3174 0.0000 0.0000 0.0000
# 2 64.0494 72.4990 16.9857 0.0000 0.0000 0.0000
# 3 36.3174 16.9857 90.4799 0.0000 0.0000 0.0000
# 4 0.0000 0.0000 0.0000 42.1770 0.0000 0.0000
# 5 0.0000 0.0000 0.0000 0.0000 28.8762 0.0000
# 6 0.0000 0.0000 0.0000 0.0000 0.0000 26.2803
#
#
#
# Elastic Compliance Matrix: (Units=1/GPa)
#
#
# Indices 1 2 3 4 5 6 
#
# 1 0.022196 -0.018328 -0.005468 0.000000 0.000000 0.000000
# 2 -0.018328 0.029562 0.001807 0.000000 0.000000 0.000000
# 3 -0.005468 0.001807 0.012908 0.000000 0.000000 0.000000
# 4 0.000000 0.000000 0.000000 0.023710 0.000000 0.000000
# 5 0.000000 0.000000 0.000000 0.000000 0.034631 0.000000
# 6 0.000000 0.000000 0.000000 0.000000 0.000000 0.038051
#
#
# Mechanical properties :
#
#
# Convention : Reuss Voigt Hill
#
# Bulk Modulus (GPa) = 48.33987 56.06360 52.20173
# Shear Modulus (GPa) = 23.59253 29.63436 26.61344
#
# Velocity S-wave (km/s) = 3.44525 3.86128 3.65919
# Velocity P-wave (km/s) = 6.33616 6.93439 6.64201
#
# Compressibility (1/GPa) = 0.02068686
#
# Stress axis : x y z
#
# Youngs Moduli (GPa) = 45.05327 33.82750 77.47171
#
# Poissons Ratio (x) = 0.61999 0.42365
# Poissons Ratio (y) = 0.82573 -0.13999
# Poissons Ratio (z) = 0.24637 -0.06112
#
# Static dielectric constant tensor:
#      x y z
#    x 3.734750 0.000000 0.000000 
#    y 0.000000 3.646080 0.000000 
#    z 0.000000 0.000000 3.591560 
# 
# 
# High freq. dielectric constant tensor:
#      x y z
#    x 1.788540 0.000000 0.000000 
#    y 0.000000 1.774650 0.000000 
#    z 0.000000 0.000000 1.783130 
# 
# From -- ./inp_files/4043.got.cif
#   From: 2010.03.12/outbox.cif.g09.slc.cpg/sg63_3_cif.got.tgz:4043.got - 2010.04.10 19:34:48.
