data_PCOD8260201
_publ_section_title
;
Structure prediction by ZEFSAII (Michael W. Deem and Ramdas Pophale) SiO2 
 PCOD8260201
Probable space group: C M C M
;
_chemical_formula_sum "Si O2"
_cell_formula_units_Z 80
_cell_length_a 18.015408
_cell_length_b 25.571279
_cell_length_c 8.876711
_cell_angle_alpha 90.000000
_cell_angle_beta 90.000000
_cell_angle_gamma 90.000000
_cell_volume 4089.296809
_symmetry_space_group_name_H-M "C M C M"
_symmetry_group_IT_number 63
_symmetry_cell_setting 'orthorhombic'
loop_
_space_group_symop_operation_xyz
x,y,z
-x,-y,1/2+z
x,-y,-z
-x,y,1/2-z
-x,-y,-z
x,y,1/2-z
-x,y,z
x,-y,1/2+z
1/2+x,1/2+y,z
1/2-x,1/2-y,1/2+z
1/2+x,1/2-y,-z
1/2-x,1/2+y,1/2-z
1/2-x,1/2-y,-z
1/2+x,1/2+y,1/2-z
1/2-x,1/2+y,z
1/2+x,1/2-y,1/2+z
loop_
_atom_site_type_symbol
_atom_site_label
_atom_site_fract_x
_atom_site_fract_y
_atom_site_fract_z
Si Si1 0.842522 0.445283 0.572274
Si Si2 0.086907 0.652725 0.922536
Si Si3 0.413786 0.352771 0.074892
Si Si4 0.169918 0.252041 0.572098
Si Si5 0.172206 0.054088 0.074108
O O1 0.866412 0.500000 0.500000
O O2 0.855928 0.447416 0.750000
O O3 0.894601 0.402173 0.498691
O O4 0.757078 0.432374 0.532056
O O5 0.114375 0.652450 0.750000
O O6 0.000000 0.662906 0.933434
O O7 0.127419 0.697807 0.012987
O O8 0.399892 0.363866 0.250000
O O9 0.500000 0.347506 0.036299
O O10 0.374859 0.299391 0.023340
O O11 0.380324 0.400080 0.981552
O O12 0.177619 0.256788 0.750000
O O13 0.250000 0.250000 0.500000
O O14 0.161860 0.047198 0.250000
O O15 0.146547 0.000000 0.000000
#
# Coordination Sequence:
#
# PCOD8260201 Si02
#       5
#    16  16  16  16  16
#     4  10  21  38  61  87 116 152 195 241 290 346
#     4  11  24  40  59  86 120 156 195 240 290 346
#     4  10  22  39  58  82 114 151 189 231 282 339
#     4  11  23  40  63  88 116 152 194 240 291 348
#     4  10  21  37  59  86 114 148 190 235 283 336
#
# _framework density 19.563265999999999
#
# number of rings (size 3 to 8) (size 9 to 14) (size 15 to 20)
#    0.000    1.600    0.000    4.200    0.000   10.800 
#    0.000    0.000    0.000    0.000    0.000    0.000 
#    0.000    0.000    0.000    0.000    0.000    0.000 
#
# Total GULP energy -496255.671794 kJ/mol
# GULP energy per Si atom -12406.391795 kJ/mol
# Density = 1.951874 g / cm^3
# Si number density = 19.563266 Si / 1000 Ang^3
#
#
#
# Elastic Constant Matrix: (Units=GPa)
#
#
# Indices 1 2 3 4 5 6 
#
# 1 90.3554 55.8840 45.9732 0.0000 0.0000 0.0000
# 2 55.8840 141.8165 58.3943 0.0000 0.0000 0.0000
# 3 45.9732 58.3943 90.6574 0.0000 0.0000 0.0000
# 4 0.0000 0.0000 0.0000 41.8065 0.0000 0.0000
# 5 0.0000 0.0000 0.0000 0.0000 33.9680 0.0000
# 6 0.0000 0.0000 0.0000 0.0000 0.0000 -104.1604
#
#
#
# Elastic Compliance Matrix: (Units=1/GPa)
#
#
# Indices 1 2 3 4 5 6 
#
# 1 0.016551 -0.004173 -0.005705 0.000000 0.000000 0.000000
# 2 -0.004173 0.010649 -0.004743 0.000000 0.000000 0.000000
# 3 -0.005705 -0.004743 0.016979 0.000000 0.000000 0.000000
# 4 0.000000 0.000000 0.000000 0.023920 0.000000 0.000000
# 5 0.000000 0.000000 0.000000 0.000000 0.029439 0.000000
# 6 0.000000 0.000000 0.000000 0.000000 0.000000 -0.009601
#
#
# Mechanical properties :
#
#
# Convention : Reuss Voigt Hill
#
# Bulk Modulus (GPa) = 66.95122 71.48137 69.21629
# Shear Modulus (GPa) = 40.93040 5.16136 23.04588
#
# Velocity S-wave (km/s) = 4.57903 1.62604 3.43595
# Velocity P-wave (km/s) = 7.89011 6.33587 7.15532
#
# Compressibility (1/GPa) = 0.01493625
#
# Stress axis : x y z
#
# Youngs Moduli (GPa) = 60.41839 93.90855 58.89689
#
# Poissons Ratio (x) = 0.39187 0.33603
# Poissons Ratio (y) = 0.25212 0.27934
# Poissons Ratio (z) = 0.34471 0.44540
#
# Static dielectric constant tensor:
#      x y z
#    x 3.615430 0.000000 0.000000 
#    y 0.000000 3.555860 0.000000 
#    z 0.000000 0.000000 3.667280 
# 
# 
# High freq. dielectric constant tensor:
#      x y z
#    x 1.766690 0.000000 0.000000 
#    y 0.000000 1.778470 0.000000 
#    z 0.000000 0.000000 1.775130 
# 
# From -- ./inp_files/6435.got.cif
#   From: 2010.03.12/outbox.cif.g09.slc.cpg/sg63_4_cif.got.tgz:6435.got - 2010.04.10 19:34:48.
