data_PCOD8260277
_publ_section_title
;
Structure prediction by ZEFSAII (Michael W. Deem and Ramdas Pophale) SiO2 
 PCOD8260277
Probable space group: C M C M
;
_chemical_formula_sum "Si O2"
_cell_formula_units_Z 96
_cell_length_a 8.607064
_cell_length_b 20.240021
_cell_length_c 28.266618
_cell_angle_alpha 90.000000
_cell_angle_beta 90.000000
_cell_angle_gamma 90.000000
_cell_volume 4924.247135
_symmetry_space_group_name_H-M "C M C M"
_symmetry_group_IT_number 63
_symmetry_cell_setting 'orthorhombic'
loop_
_space_group_symop_operation_xyz
x,y,z
-x,-y,1/2+z
x,-y,-z
-x,y,1/2-z
-x,-y,-z
x,y,1/2-z
-x,y,z
x,-y,1/2+z
1/2+x,1/2+y,z
1/2-x,1/2-y,1/2+z
1/2+x,1/2-y,-z
1/2-x,1/2+y,1/2-z
1/2-x,1/2-y,-z
1/2+x,1/2+y,1/2-z
1/2-x,1/2+y,z
1/2+x,1/2-y,1/2+z
loop_
_atom_site_type_symbol
_atom_site_label
_atom_site_fract_x
_atom_site_fract_y
_atom_site_fract_z
Si Si1 0.818262 0.200593 0.698700
Si Si2 0.677769 0.938788 0.302388
Si Si3 0.179717 0.634951 0.955970
Si Si4 0.679000 0.620781 0.442988
Si Si5 0.322165 0.004072 0.898663
Si Si6 0.817379 0.253441 0.601139
O O1 0.744389 0.221420 0.750000
O O2 0.785666 0.123991 0.688729
O O3 0.754086 0.243904 0.654956
O O4 0.000000 0.211079 0.701751
O O5 0.707649 0.969331 0.250000
O O6 0.500000 0.914678 0.307642
O O7 0.713273 0.993771 0.342284
O O8 0.212543 0.576663 0.919007
O O9 0.227498 0.704514 0.933701
O O10 0.000000 0.638314 0.970771
O O11 0.281083 0.621485 0.002019
O O12 0.500000 0.639274 0.436112
O O13 0.709130 0.547959 0.422856
O O14 0.783790 0.672017 0.413963
O O15 0.500000 0.983406 0.908898
O O16 0.000000 0.238340 0.597806
#
# Coordination Sequence:
#
# PCOD8260277 Si02
#       6
#    16  16  16  16  16  16
#     4   9  18  33  56  86 115 144 182 229 278 328
#     4   9  17  32  57  87 115 145 183 226 275 333
#     4  11  22  39  62  86 113 147 189 236 283 336
#     4  12  26  40  56  80 114 153 193 237 284 336
#     4  10  21  38  59  85 116 150 186 229 281 335
#     4  11  22  38  60  85 116 151 189 232 280 336
#
# _framework density 19.495367000000002
#
# number of rings (size 3 to 8) (size 9 to 14) (size 15 to 20)
#    0.000    1.667    1.667    3.500    0.000    4.667 
#    0.000    0.833    0.000    5.000    0.000    0.000 
#    0.000    0.000    0.000    0.000    0.000    0.000 
#
# Total GULP energy -595229.072590 kJ/mol
# GULP energy per Si atom -12400.605679 kJ/mol
# Density = 1.945099 g / cm^3
# Si number density = 19.495367 Si / 1000 Ang^3
#
#
#
# Elastic Constant Matrix: (Units=GPa)
#
#
# Indices 1 2 3 4 5 6 
#
# 1 40.6403 16.2103 27.3008 0.0000 0.0000 0.0000
# 2 16.2103 58.6289 22.3837 0.0000 0.0000 0.0000
# 3 27.3008 22.3837 135.1797 0.0000 0.0000 0.0000
# 4 0.0000 0.0000 0.0000 -8.0463 0.0000 0.0000
# 5 0.0000 0.0000 0.0000 0.0000 24.3715 0.0000
# 6 0.0000 0.0000 0.0000 0.0000 0.0000 29.3520
#
#
#
# Elastic Compliance Matrix: (Units=1/GPa)
#
#
# Indices 1 2 3 4 5 6 
#
# 1 0.030639 -0.006521 -0.005108 0.000000 0.000000 0.000000
# 2 -0.006521 0.019595 -0.001928 0.000000 0.000000 0.000000
# 3 -0.005108 -0.001928 0.008748 0.000000 0.000000 0.000000
# 4 0.000000 0.000000 0.000000 -0.124281 0.000000 0.000000
# 5 0.000000 0.000000 0.000000 0.000000 0.041032 0.000000
# 6 0.000000 0.000000 0.000000 0.000000 0.000000 0.034069
#
#
# Mechanical properties :
#
#
# Convention : Reuss Voigt Hill
#
# Bulk Modulus (GPa) = 31.37863 40.69317 36.03590
# Shear Modulus (GPa) = 105.17695 20.37237 62.77466
#
# Velocity S-wave (km/s) = 7.35302 3.23613 5.68064
# Velocity P-wave (km/s) = 9.39252 5.90609 7.84543
#
# Compressibility (1/GPa) = 0.03186882
#
# Stress axis : x y z
#
# Youngs Moduli (GPa) = 32.63858 51.03228 114.30722
#
# Poissons Ratio (x) = 0.33279 0.58388
# Poissons Ratio (y) = 0.21284 0.22035
# Poissons Ratio (z) = 0.16672 0.09838
#
# Static dielectric constant tensor:
#      x y z
#    x 3.490430 0.000000 0.000000 
#    y 0.000000 3.254030 0.000000 
#    z 0.000000 0.000000 4.091660 
# 
# 
# High freq. dielectric constant tensor:
#      x y z
#    x 1.753890 0.000000 0.000000 
#    y 0.000000 1.733420 0.000000 
#    z 0.000000 0.000000 1.782150 
# 
# From -- ./inp_files/66917.got.cif
#   From: 2010.03.12/outbox.cif.g09.slc.cpg/sg63_34_cif.got.tgz:66917.got - 2010.04.10 19:34:48.
