data_PCOD8260049
_publ_section_title
;
Structure prediction by ZEFSAII (Michael W. Deem and Ramdas Pophale) SiO2 
 PCOD8260049
Probable space group: C M C M
;
_chemical_formula_sum "Si O2"
_cell_formula_units_Z 112
_cell_length_a 23.436651
_cell_length_b 14.449950
_cell_length_c 14.775528
_cell_angle_alpha 90.000000
_cell_angle_beta 90.000000
_cell_angle_gamma 90.000000
_cell_volume 5003.857191
_symmetry_space_group_name_H-M "C M C M"
_symmetry_group_IT_number 63
_symmetry_cell_setting 'orthorhombic'
loop_
_space_group_symop_operation_xyz
x,y,z
-x,-y,1/2+z
x,-y,-z
-x,y,1/2-z
-x,-y,-z
x,y,1/2-z
-x,y,z
x,-y,1/2+z
1/2+x,1/2+y,z
1/2-x,1/2-y,1/2+z
1/2+x,1/2-y,-z
1/2-x,1/2+y,1/2-z
1/2-x,1/2-y,-z
1/2+x,1/2+y,1/2-z
1/2-x,1/2+y,z
1/2+x,1/2-y,1/2+z
loop_
_atom_site_type_symbol
_atom_site_label
_atom_site_fract_x
_atom_site_fract_y
_atom_site_fract_z
Si Si1 0.566641 0.807255 0.527568
Si Si2 0.436730 0.360576 0.151480
Si Si3 0.245331 0.728685 0.855186
Si Si4 0.118415 0.232735 0.355839
Si Si5 0.745600 0.984392 0.102743
Si Si6 0.660868 0.128415 0.351781
Si Si7 0.130280 0.029906 0.397195
O O1 0.500000 0.832869 0.541575
O O2 0.584254 0.710947 0.575768
O O3 0.579762 0.798717 0.420149
O O4 0.606706 0.881700 0.579879
O O5 0.435783 0.311089 0.250000
O O6 0.500000 0.394603 0.125917
O O7 0.397048 0.449386 0.161698
O O8 0.246029 0.747438 0.750000
O O9 0.183005 0.755515 0.891806
O O10 0.257243 0.622348 0.876832
O O11 0.295128 0.795025 0.895140
O O12 0.110026 0.260869 0.250000
O O13 0.099935 0.126418 0.371918
O O14 0.692991 0.029249 0.157233
O O15 0.803178 0.039284 0.128372
O O16 0.729182 0.000000 0.000000
O O17 0.640645 0.155374 0.250000
O O18 0.120743 0.000000 0.500000
#
# Coordination Sequence:
#
# PCOD8260049 Si02
#       7
#    16  16  16  16  16  16  16
#     4  11  24  41  62  89 124 164 216 268 314 381
#     4  10  21  36  56  83 118 162 208 256 309 367
#     4  10  22  39  62  93 128 165 207 262 320 385
#     4  11  23  40  62  88 127 170 214 267 327 390
#     4  11  23  36  61  95 129 167 209 261 322 389
#     4  11  23  40  66  97 132 172 213 263 327 389
#     4  11  21  36  58  90 125 168 211 256 309 380
#
# _framework density 22.382733000000002
#
# number of rings (size 3 to 8) (size 9 to 14) (size 15 to 20)
#    0.000    1.286    2.857    3.000    2.000    6.000 
#    0.000    0.000    0.000    3.857    0.000    4.000 
#    0.000    0.000    0.000    0.000    0.000    0.000 
#
# Total GULP energy -694262.005757 kJ/mol
# GULP energy per Si atom -12397.535817 kJ/mol
# Density = 2.233179 g / cm^3
# Si number density = 22.382733 Si / 1000 Ang^3
#
#
#
# Elastic Constant Matrix: (Units=GPa)
#
#
# Indices 1 2 3 4 5 6 
#
# 1 97.3987 5.1557 38.7213 0.0000 0.0000 0.0000
# 2 5.1557 44.6587 4.3659 0.0000 0.0000 0.0000
# 3 38.7213 4.3659 100.9859 0.0000 0.0000 0.0000
# 4 0.0000 0.0000 0.0000 18.7985 0.0000 0.0000
# 5 0.0000 0.0000 0.0000 0.0000 26.9686 0.0000
# 6 0.0000 0.0000 0.0000 0.0000 0.0000 31.0815
#
#
#
# Elastic Compliance Matrix: (Units=1/GPa)
#
#
# Indices 1 2 3 4 5 6 
#
# 1 0.012154 -0.000952 -0.004619 0.000000 0.000000 0.000000
# 2 -0.000952 0.022562 -0.000611 0.000000 0.000000 0.000000
# 3 -0.004619 -0.000611 0.011700 0.000000 0.000000 0.000000
# 4 0.000000 0.000000 0.000000 0.053196 0.000000 0.000000
# 5 0.000000 0.000000 0.000000 0.000000 0.037080 0.000000
# 6 0.000000 0.000000 0.000000 0.000000 0.000000 0.032173
#
#
# Mechanical properties :
#
#
# Convention : Reuss Voigt Hill
#
# Bulk Modulus (GPa) = 29.36601 37.72546 33.54574
# Shear Modulus (GPa) = 25.96353 28.35642 27.15998
#
# Velocity S-wave (km/s) = 3.40954 3.56320 3.48722
# Velocity P-wave (km/s) = 5.35242 5.81548 5.58875
#
# Compressibility (1/GPa) = 0.03405297
#
# Stress axis : x y z
#
# Youngs Moduli (GPa) = 82.27913 44.32312 85.47127
#
# Poissons Ratio (x) = 0.04218 0.39479
# Poissons Ratio (y) = 0.07829 0.05218
# Poissons Ratio (z) = 0.38005 0.02706
#
# Static dielectric constant tensor:
#      x y z
#    x 4.015330 0.000000 0.000000 
#    y 0.000000 3.702700 0.000000 
#    z 0.000000 0.000000 2.988930 
# 
# 
# High freq. dielectric constant tensor:
#      x y z
#    x 1.870940 0.000000 0.000000 
#    y 0.000000 1.855350 0.000000 
#    z 0.000000 0.000000 1.890180 
# 
# From -- ./inp_files/36869.got.cif
#   From: 2010.03.12/outbox.cif.g09.slc.cpg/sg63_19_cif.got.tgz:36869.got - 2010.04.10 19:34:48.
