data_PCOD8260005
_publ_section_title
;
Structure prediction by ZEFSAII (Michael W. Deem and Ramdas Pophale) SiO2 
 PCOD8260005
Probable space group: C M C M
;
_chemical_formula_sum "Si O2"
_cell_formula_units_Z 112
_cell_length_a 30.408282
_cell_length_b 12.682023
_cell_length_c 13.575599
_cell_angle_alpha 90.000000
_cell_angle_beta 90.000000
_cell_angle_gamma 90.000000
_cell_volume 5235.274066
_symmetry_space_group_name_H-M "C M C M"
_symmetry_group_IT_number 63
_symmetry_cell_setting 'orthorhombic'
loop_
_space_group_symop_operation_xyz
x,y,z
-x,-y,1/2+z
x,-y,-z
-x,y,1/2-z
-x,-y,-z
x,y,1/2-z
-x,y,z
x,-y,1/2+z
1/2+x,1/2+y,z
1/2-x,1/2-y,1/2+z
1/2+x,1/2-y,-z
1/2-x,1/2+y,1/2-z
1/2-x,1/2-y,-z
1/2+x,1/2+y,1/2-z
1/2-x,1/2+y,z
1/2+x,1/2-y,1/2+z
loop_
_atom_site_type_symbol
_atom_site_label
_atom_site_fract_x
_atom_site_fract_y
_atom_site_fract_z
Si Si1 0.330819 0.266427 0.496558
Si Si2 0.197183 0.410767 0.638254
Si Si3 0.865396 0.407918 0.134416
Si Si4 0.124257 0.918381 0.362756
Si Si5 0.294654 0.430643 0.859455
Si Si6 0.950261 0.921958 0.633583
Si Si7 0.452394 0.813159 0.133815
O O1 0.301261 0.196925 0.423097
O O2 0.348012 0.197218 0.585618
O O3 0.371261 0.316810 0.433483
O O4 0.301040 0.352634 0.549711
O O5 0.185951 0.379842 0.750000
O O6 0.158704 0.486917 0.594953
O O7 0.244135 0.470559 0.631052
O O8 0.856193 0.397611 0.250000
O O9 0.917550 0.405801 0.108341
O O10 0.114031 0.884321 0.250000
O O11 0.085671 0.993919 0.406262
O O12 0.171855 0.973258 0.369632
O O13 0.301087 0.378897 0.750000
O O14 0.945588 0.922099 0.750000
O O15 0.000000 0.955425 0.602312
O O16 0.939408 0.804016 0.593156
O O17 0.455962 0.800398 0.250000
O O18 0.500000 0.846708 0.090390
#
# Coordination Sequence:
#
# PCOD8260005 Si02
#       7
#    16  16  16  16  16  16  16
#     4  12  22  35  57  82 111 147 185 224 269 327
#     4  10  23  41  58  79 108 143 184 230 277 324
#     4  10  21  37  57  81 111 145 184 232 279 322
#     4  10  21  36  54  80 115 149 180 220 271 327
#     4  10  22  39  58  82 111 142 180 225 274 328
#     4   8  14  28  52  80 110 144 181 223 273 328
#     4   8  14  28  54  84 109 139 183 230 274 322
#
# _framework density 21.393339999999998
#
# number of rings (size 3 to 8) (size 9 to 14) (size 15 to 20)
#    0.000    2.286    0.000    3.857    0.000    5.714 
#    0.000    3.571    0.000    6.000    0.000    4.000 
#    0.000    0.000    0.000    0.000    0.000    1.143 
#
# Total GULP energy -693891.644377 kJ/mol
# GULP energy per Si atom -12390.922221 kJ/mol
# Density = 2.134465 g / cm^3
# Si number density = 21.393340 Si / 1000 Ang^3
#
#
#
# Elastic Constant Matrix: (Units=GPa)
#
#
# Indices 1 2 3 4 5 6 
#
# 1 88.9596 13.6017 16.7444 0.0000 0.0000 0.0000
# 2 13.6017 49.4475 27.5944 0.0000 0.0000 0.0000
# 3 16.7444 27.5944 71.2825 0.0000 0.0000 0.0000
# 4 0.0000 0.0000 0.0000 36.6479 0.0000 0.0000
# 5 0.0000 0.0000 0.0000 0.0000 -8.5317 0.0000
# 6 0.0000 0.0000 0.0000 0.0000 0.0000 9.5093
#
#
#
# Elastic Compliance Matrix: (Units=1/GPa)
#
#
# Indices 1 2 3 4 5 6 
#
# 1 0.011945 -0.002194 -0.001957 0.000000 0.000000 0.000000
# 2 -0.002194 0.026199 -0.009627 0.000000 0.000000 0.000000
# 3 -0.001957 -0.009627 0.018215 0.000000 0.000000 0.000000
# 4 0.000000 0.000000 0.000000 0.027287 0.000000 0.000000
# 5 0.000000 0.000000 0.000000 0.000000 -0.117210 0.000000
# 6 0.000000 0.000000 0.000000 0.000000 0.000000 0.105160
#
#
# Mechanical properties :
#
#
# Convention : Reuss Voigt Hill
#
# Bulk Modulus (GPa) = 34.71667 36.17453 35.44560
# Shear Modulus (GPa) = 45.97660 17.64171 31.80915
#
# Velocity S-wave (km/s) = 4.64088 2.87476 3.86018
# Velocity P-wave (km/s) = 6.70671 5.28819 6.03925
#
# Compressibility (1/GPa) = 0.02880461
#
# Stress axis : x y z
#
# Youngs Moduli (GPa) = 83.71868 38.16920 54.90000
#
# Poissons Ratio (x) = 0.08374 0.10742
# Poissons Ratio (y) = 0.18366 0.52851
# Poissons Ratio (z) = 0.16380 0.36744
#
# Static dielectric constant tensor:
#      x y z
#    x 4.227280 0.000000 0.000000 
#    y 0.000000 3.643480 0.000000 
#    z 0.000000 0.000000 3.893970 
# 
# 
# High freq. dielectric constant tensor:
#      x y z
#    x 1.840200 0.000000 0.000000 
#    y 0.000000 1.805960 0.000000 
#    z 0.000000 0.000000 1.843090 
# 
# From -- ./inp_files/38506.got.cif
#   From: 2010.03.12/outbox.cif.g09.slc.cpg/sg63_20_cif.got.tgz:38506.got - 2010.04.10 19:34:48.
