data_PCOD8260541
_publ_section_title
;
Structure prediction by ZEFSAII (Michael W. Deem and Ramdas Pophale) SiO2 
 PCOD8260541
Probable space group: C M C M
;
_chemical_formula_sum "Si O2"
_cell_formula_units_Z 88
_cell_length_a 15.760107
_cell_length_b 17.521010
_cell_length_c 15.688424
_cell_angle_alpha 90.000000
_cell_angle_beta 90.000000
_cell_angle_gamma 90.000000
_cell_volume 4332.091464
_symmetry_space_group_name_H-M "C M C M"
_symmetry_group_IT_number 63
_symmetry_cell_setting 'orthorhombic'
loop_
_space_group_symop_operation_xyz
x,y,z
-x,-y,1/2+z
x,-y,-z
-x,y,1/2-z
-x,-y,-z
x,y,1/2-z
-x,y,z
x,-y,1/2+z
1/2+x,1/2+y,z
1/2-x,1/2-y,1/2+z
1/2+x,1/2-y,-z
1/2-x,1/2+y,1/2-z
1/2-x,1/2-y,-z
1/2+x,1/2+y,1/2-z
1/2-x,1/2+y,z
1/2+x,1/2-y,1/2+z
loop_
_atom_site_type_symbol
_atom_site_label
_atom_site_fract_x
_atom_site_fract_y
_atom_site_fract_z
Si Si1 0.000000 0.730721 0.488028
Si Si2 0.686545 0.464996 0.085348
Si Si3 0.500000 0.140538 0.651512
Si Si4 0.637769 0.981695 0.345098
Si Si5 0.598286 0.401970 0.653558
Si Si6 0.500000 0.108201 0.343773
Si Si7 0.172435 0.811355 0.001895
O O1 0.914545 0.774582 0.467133
O O2 0.000000 0.712324 0.589121
O O3 0.000000 0.659878 0.425575
O O4 0.783803 0.491062 0.092683
O O5 0.628205 0.508248 0.155419
O O6 0.647549 0.500000 0.000000
O O7 0.686422 0.373108 0.078122
O O8 0.500000 0.167604 0.750000
O O9 0.582724 0.091535 0.629200
O O10 0.673184 0.969294 0.250000
O O11 0.583418 0.057581 0.350486
O O12 0.608748 0.370625 0.750000
O O13 0.500000 0.396018 0.624202
O O14 0.658764 0.351515 0.590800
O O15 0.500000 0.149293 0.250000
O O16 0.250000 0.750000 0.000000
#
# Coordination Sequence:
#
# PCOD8260541 Si02
#       7
#     8  16   8  16  16   8  16
#     4  12  24  39  63  82 132 174 196 252 326 382
#     4  10  22  36  63  87 118 155 210 254 304 365
#     4   9  20  34  56  89 122 158 205 254 310 378
#     4   9  18  36  58  87 119 150 200 263 308 363
#     4  10  22  43  69  92 118 163 219 271 318 368
#     4   9  22  38  58  89 122 158 205 254 318 388
#     4  11  25  42  61  95 130 168 209 254 321 392
#
# _framework density 20.313514999999999
#
# number of rings (size 3 to 8) (size 9 to 14) (size 15 to 20)
#    0.000    2.000    0.909    2.727    8.909    2.545 
#    0.000    3.636    0.000    0.000    0.000    0.000 
#    0.000    0.000    0.000    0.000    0.000    0.000 
#
# Total GULP energy -545167.604727 kJ/mol
# GULP energy per Si atom -12390.172835 kJ/mol
# Density = 2.026728 g / cm^3
# Si number density = 20.313515 Si / 1000 Ang^3
#
#
#
# Elastic Constant Matrix: (Units=GPa)
#
#
# Indices 1 2 3 4 5 6 
#
# 1 132.9091 49.6774 34.6586 0.0000 0.0000 0.0000
# 2 49.6774 98.8309 29.5718 0.0000 0.0000 0.0000
# 3 34.6586 29.5718 76.8595 0.0000 0.0000 0.0000
# 4 0.0000 0.0000 0.0000 20.7360 0.0000 0.0000
# 5 0.0000 0.0000 0.0000 0.0000 29.3094 0.0000
# 6 0.0000 0.0000 0.0000 0.0000 0.0000 19.5257
#
#
#
# Elastic Compliance Matrix: (Units=1/GPa)
#
#
# Indices 1 2 3 4 5 6 
#
# 1 0.009787 -0.004067 -0.002848 0.000000 0.000000 0.000000
# 2 -0.004067 0.013125 -0.003216 0.000000 0.000000 0.000000
# 3 -0.002848 -0.003216 0.015532 0.000000 0.000000 0.000000
# 4 0.000000 0.000000 0.000000 0.048225 0.000000 0.000000
# 5 0.000000 0.000000 0.000000 0.000000 0.034119 0.000000
# 6 0.000000 0.000000 0.000000 0.000000 0.000000 0.051215
#
#
# Mechanical properties :
#
#
# Convention : Reuss Voigt Hill
#
# Bulk Modulus (GPa) = 55.00076 59.60168 57.30122
# Shear Modulus (GPa) = 25.21102 26.89368 26.05235
#
# Velocity S-wave (km/s) = 3.52674 3.64253 3.58510
# Velocity P-wave (km/s) = 6.61200 6.86260 6.73847
#
# Compressibility (1/GPa) = 0.01818157
#
# Stress axis : x y z
#
# Youngs Moduli (GPa) = 102.17774 76.19141 64.38122
#
# Poissons Ratio (x) = 0.30988 0.18338
# Poissons Ratio (y) = 0.41557 0.20704
# Poissons Ratio (z) = 0.29104 0.24502
#
# Static dielectric constant tensor:
#      x y z
#    x 3.683480 0.000000 0.000000 
#    y 0.000000 3.746500 0.000000 
#    z 0.000000 0.000000 3.701850 
# 
# 
# High freq. dielectric constant tensor:
#      x y z
#    x 1.801280 0.000000 0.000000 
#    y 0.000000 1.784740 0.000000 
#    z 0.000000 0.000000 1.789760 
# 
# From -- ./inp_files/44159.got.cif
#   From: 2010.03.12/outbox.cif.g09.slc.cpg/sg63_23_cif.got.tgz:44159.got - 2010.04.10 19:34:48.
