data_PCOD8260696
_publ_section_title
;
Structure prediction by ZEFSAII (Michael W. Deem and Ramdas Pophale) SiO2 
 PCOD8260696
Probable space group: C M C M
;
_chemical_formula_sum "Si O2"
_cell_formula_units_Z 52
_cell_length_a 8.056802
_cell_length_b 19.661177
_cell_length_c 14.738839
_cell_angle_alpha 90.000000
_cell_angle_beta 90.000000
_cell_angle_gamma 90.000000
_cell_volume 2334.723628
_symmetry_space_group_name_H-M "C M C M"
_symmetry_group_IT_number 63
_symmetry_cell_setting 'orthorhombic'
loop_
_space_group_symop_operation_xyz
x,y,z
-x,-y,1/2+z
x,-y,-z
-x,y,1/2-z
-x,-y,-z
x,y,1/2-z
-x,y,z
x,-y,1/2+z
1/2+x,1/2+y,z
1/2-x,1/2-y,1/2+z
1/2+x,1/2-y,-z
1/2-x,1/2+y,1/2-z
1/2-x,1/2-y,-z
1/2+x,1/2+y,1/2-z
1/2-x,1/2+y,z
1/2+x,1/2-y,1/2+z
loop_
_atom_site_type_symbol
_atom_site_label
_atom_site_fract_x
_atom_site_fract_y
_atom_site_fract_z
Si Si1 0.500000 0.509180 0.110673
Si Si2 0.822153 0.450009 0.084759
Si Si3 0.310153 0.228370 0.250000
Si Si4 0.500000 0.372888 0.750000
Si Si5 0.810306 0.806655 0.432713
O O1 0.666225 0.471615 0.148156
O O2 0.500000 0.583989 0.155675
O O3 0.500000 0.500000 0.000000
O O4 0.799517 0.373231 0.049928
O O5 0.000000 0.455239 0.136505
O O6 0.827154 0.500000 0.000000
O O7 0.500000 0.197694 0.250000
O O8 0.282239 0.278350 0.333084
O O9 0.170343 0.169979 0.250000
O O10 0.750000 0.750000 0.500000
O O11 0.000000 0.826332 0.451789
#
# Coordination Sequence:
#
# PCOD8260696 Si02
#       5
#     8  16   8   4  16
#     4  10  24  44  68 100 142 177 232 290 338 424
#     4  10  22  40  66  99 136 177 229 278 343 413
#     4  10  28  47  67 107 145 179 243 296 353 431
#     4  12  28  46  78 102 140 192 234 288 368 426
#     4  11  24  43  71 102 142 186 236 296 355 422
#
# _framework density 22.272442000000002
#
# number of rings (size 3 to 8) (size 9 to 14) (size 15 to 20)
#    0.000    1.538    1.538    0.923   12.923    2.462 
#    0.000    1.538    0.000    0.000    0.000    0.000 
#    0.000    0.000    0.000    0.000    0.000    0.000 
#
# Total GULP energy -322138.935111 kJ/mol
# GULP energy per Si atom -12389.959043 kJ/mol
# Density = 2.222175 g / cm^3
# Si number density = 22.272442 Si / 1000 Ang^3
#
#
#
# Elastic Constant Matrix: (Units=GPa)
#
#
# Indices 1 2 3 4 5 6 
#
# 1 245.1817 86.7113 28.2331 0.0000 0.0000 0.0000
# 2 86.7113 168.6115 44.7682 0.0000 0.0000 0.0000
# 3 28.2331 44.7682 103.6155 0.0000 0.0000 0.0000
# 4 0.0000 0.0000 0.0000 28.1295 0.0000 0.0000
# 5 0.0000 0.0000 0.0000 0.0000 13.8133 0.0000
# 6 0.0000 0.0000 0.0000 0.0000 0.0000 37.0703
#
#
#
# Elastic Compliance Matrix: (Units=1/GPa)
#
#
# Indices 1 2 3 4 5 6 
#
# 1 0.004993 -0.002492 -0.000284 0.000000 0.000000 0.000000
# 2 -0.002492 0.007943 -0.002753 0.000000 0.000000 0.000000
# 3 -0.000284 -0.002753 0.010918 0.000000 0.000000 0.000000
# 4 0.000000 0.000000 0.000000 0.035550 0.000000 0.000000
# 5 0.000000 0.000000 0.000000 0.000000 0.072394 0.000000
# 6 0.000000 0.000000 0.000000 0.000000 0.000000 0.026976
#
#
# Mechanical properties :
#
#
# Convention : Reuss Voigt Hill
#
# Bulk Modulus (GPa) = 78.14784 92.98155 85.56470
# Shear Modulus (GPa) = 28.71971 39.64903 34.18437
#
# Velocity S-wave (km/s) = 3.59482 4.22380 3.92194
# Velocity P-wave (km/s) = 7.23835 8.10094 7.68176
#
# Compressibility (1/GPa) = 0.01279626
#
# Stress axis : x y z
#
# Youngs Moduli (GPa) = 200.29304 125.89029 91.59376
#
# Poissons Ratio (x) = 0.31375 0.02598
# Poissons Ratio (y) = 0.49919 0.25215
# Poissons Ratio (z) = 0.05680 0.34657
#
# Static dielectric constant tensor:
#      x y z
#    x 6.042130 0.000000 0.000000 
#    y 0.000000 4.061240 0.000000 
#    z 0.000000 0.000000 3.767220 
# 
# 
# High freq. dielectric constant tensor:
#      x y z
#    x 1.913520 0.000000 0.000000 
#    y 0.000000 1.885690 0.000000 
#    z 0.000000 0.000000 1.847900 
# 
# From -- ./inp_files/39532.got.cif
#   From: 2010.03.12/outbox.cif.g09.slc.cpg/sg63_20_cif.got.tgz:39532.got - 2010.04.10 19:34:48.
