data_PCOD8260836
_publ_section_title
;
Structure prediction by ZEFSAII (Michael W. Deem and Ramdas Pophale) SiO2 
 PCOD8260836
Probable space group: C M C M
;
_chemical_formula_sum "Si O2"
_cell_formula_units_Z 80
_cell_length_a 12.226338
_cell_length_b 14.371932
_cell_length_c 23.524064
_cell_angle_alpha 90.000000
_cell_angle_beta 90.000000
_cell_angle_gamma 90.000000
_cell_volume 4133.556743
_symmetry_space_group_name_H-M "C M C M"
_symmetry_group_IT_number 63
_symmetry_cell_setting 'orthorhombic'
loop_
_space_group_symop_operation_xyz
x,y,z
-x,-y,1/2+z
x,-y,-z
-x,y,1/2-z
-x,-y,-z
x,y,1/2-z
-x,y,z
x,-y,1/2+z
1/2+x,1/2+y,z
1/2-x,1/2-y,1/2+z
1/2+x,1/2-y,-z
1/2-x,1/2+y,1/2-z
1/2-x,1/2-y,-z
1/2+x,1/2+y,1/2-z
1/2-x,1/2+y,z
1/2+x,1/2-y,1/2+z
loop_
_atom_site_type_symbol
_atom_site_label
_atom_site_fract_x
_atom_site_fract_y
_atom_site_fract_z
Si Si1 0.126807 0.533932 0.315567
Si Si2 0.500000 0.384053 0.034428
Si Si3 0.214181 0.158303 0.118816
Si Si4 0.128787 0.355863 0.110695
Si Si5 0.500000 0.555706 0.403871
Si Si6 0.727600 0.609670 0.506589
O O1 0.155215 0.518106 0.250000
O O2 0.192880 0.622079 0.338977
O O3 0.160921 0.440627 0.348557
O O4 0.000000 0.556491 0.325043
O O5 0.500000 0.443716 0.093407
O O6 0.379517 0.335339 0.033558
O O7 0.500000 0.425279 0.970665
O O8 0.186360 0.263995 0.135466
O O9 0.106667 0.095033 0.127340
O O10 0.257298 0.154003 0.053975
O O11 0.168582 0.378055 0.047036
O O12 0.000000 0.338152 0.107535
O O13 0.698949 0.500000 0.500000
#
# Coordination Sequence:
#
# PCOD8260836 Si02
#       6
#    16   8  16  16   8  16
#     4  10  23  43  63  81 110 152 195 244 298 345
#     4   9  14  28  52  72 117 165 184 221 281 338
#     4  11  20  37  59  86 118 155 195 235 286 348
#     4  11  23  37  59  90 123 151 193 243 289 351
#     4   9  14  28  53  80 110 144 190 229 275 331
#     4  11  18  33  56  86 123 162 193 228 291 350
#
# _framework density 19.353793
#
# number of rings (size 3 to 8) (size 9 to 14) (size 15 to 20)
#    0.000    1.600    7.000    0.600    0.000    2.000 
#    1.800    0.500    0.000    0.000    0.000    0.000 
#    0.000    0.000    0.000    0.000    0.000    0.000 
#
# Total GULP energy -495609.205046 kJ/mol
# GULP energy per Si atom -12390.230126 kJ/mol
# Density = 1.930974 g / cm^3
# Si number density = 19.353793 Si / 1000 Ang^3
#
#
#
# Elastic Constant Matrix: (Units=GPa)
#
#
# Indices 1 2 3 4 5 6 
#
# 1 82.0585 50.3052 52.3616 0.0000 0.0000 0.0000
# 2 50.3052 80.8136 31.6219 0.0000 0.0000 0.0000
# 3 52.3616 31.6219 82.7932 0.0000 0.0000 0.0000
# 4 0.0000 0.0000 0.0000 11.4474 0.0000 0.0000
# 5 0.0000 0.0000 0.0000 0.0000 24.5855 0.0000
# 6 0.0000 0.0000 0.0000 0.0000 0.0000 29.6201
#
#
#
# Elastic Compliance Matrix: (Units=1/GPa)
#
#
# Indices 1 2 3 4 5 6 
#
# 1 0.028105 -0.012392 -0.013042 0.000000 0.000000 0.000000
# 2 -0.012392 0.020012 0.000194 0.000000 0.000000 0.000000
# 3 -0.013042 0.000194 0.020252 0.000000 0.000000 0.000000
# 4 0.000000 0.000000 0.000000 0.087356 0.000000 0.000000
# 5 0.000000 0.000000 0.000000 0.000000 0.040674 0.000000
# 6 0.000000 0.000000 0.000000 0.000000 0.000000 0.033761
#
#
# Mechanical properties :
#
#
# Convention : Reuss Voigt Hill
#
# Bulk Modulus (GPa) = 55.89801 57.13805 56.51803
# Shear Modulus (GPa) = 17.44565 20.55570 19.00068
#
# Velocity S-wave (km/s) = 3.00560 3.26253 3.13670
# Velocity P-wave (km/s) = 6.40232 6.61658 6.51033
#
# Compressibility (1/GPa) = 0.01788973
#
# Stress axis : x y z
#
# Youngs Moduli (GPa) = 35.58070 49.96978 49.37669
#
# Poissons Ratio (x) = 0.61922 0.64396
# Poissons Ratio (y) = 0.44091 -0.00956
# Poissons Ratio (z) = 0.46404 -0.00968
#
# Static dielectric constant tensor:
#      x y z
#    x 3.966680 0.000000 0.000000 
#    y 0.000000 3.553510 0.000000 
#    z 0.000000 0.000000 3.229330 
# 
# 
# High freq. dielectric constant tensor:
#      x y z
#    x 1.768100 0.000000 0.000000 
#    y 0.000000 1.740740 0.000000 
#    z 0.000000 0.000000 1.716280 
# 
# From -- ./inp_files/61164.got.cif
#   From: 2010.03.12/outbox.cif.g09.slc.cpg/sg63_31_cif.got.tgz:61164.got - 2010.04.10 19:34:48.
