data_PCOD8260548
_publ_section_title
;
Structure prediction by ZEFSAII (Michael W. Deem and Ramdas Pophale) SiO2 
 PCOD8260548
Probable space group: C M C M
;
_chemical_formula_sum "Si O2"
_cell_formula_units_Z 112
_cell_length_a 13.904649
_cell_length_b 13.290876
_cell_length_c 27.364513
_cell_angle_alpha 90.000000
_cell_angle_beta 90.000000
_cell_angle_gamma 90.000000
_cell_volume 5057.097886
_symmetry_space_group_name_H-M "C M C M"
_symmetry_group_IT_number 63
_symmetry_cell_setting 'orthorhombic'
loop_
_space_group_symop_operation_xyz
x,y,z
-x,-y,1/2+z
x,-y,-z
-x,y,1/2-z
-x,-y,-z
x,y,1/2-z
-x,y,z
x,-y,1/2+z
1/2+x,1/2+y,z
1/2-x,1/2-y,1/2+z
1/2+x,1/2-y,-z
1/2-x,1/2+y,1/2-z
1/2-x,1/2-y,-z
1/2+x,1/2+y,1/2-z
1/2-x,1/2+y,z
1/2+x,1/2-y,1/2+z
loop_
_atom_site_type_symbol
_atom_site_label
_atom_site_fract_x
_atom_site_fract_y
_atom_site_fract_z
Si Si1 0.111808 0.965745 0.448336
Si Si2 0.106367 0.283932 0.305293
Si Si3 0.887254 0.078095 0.350855
Si Si4 0.610818 0.110706 0.055723
Si Si5 0.610233 0.120931 0.556705
Si Si6 0.711636 0.287602 0.100704
Si Si7 0.290790 0.606345 0.804544
O O1 0.159593 0.859492 0.437849
O O2 0.000000 0.944506 0.453600
O O3 0.156222 0.000000 0.500000
O O4 0.132555 0.050707 0.407345
O O5 0.104643 0.241768 0.250000
O O6 0.146497 0.192250 0.339455
O O7 0.174511 0.382086 0.308526
O O8 0.000000 0.317443 0.321970
O O9 0.000000 0.065261 0.337604
O O10 0.824434 0.005922 0.316177
O O11 0.500000 0.127849 0.070728
O O12 0.682343 0.173308 0.090338
O O13 0.639681 0.995227 0.064371
O O14 0.625634 0.146524 0.000077
O O15 0.500000 0.140616 0.571763
O O16 0.673926 0.191527 0.592388
O O17 0.670657 0.315606 0.154672
O O18 0.326137 0.636404 0.750000
#
# Coordination Sequence:
#
# PCOD8260548 Si02
#       7
#    16  16  16  16  16  16  16
#     4   9  19  34  52  82 120 149 178 231 288 331
#     4   9  18  35  58  81 107 143 186 233 284 333
#     4   9  18  36  61  83 108 147 191 229 277 340
#     4   9  19  38  59  80 113 153 188 227 279 338
#     4   9  20  38  58  82 115 152 191 233 274 335
#     4  11  21  34  60  85 110 151 195 233 280 339
#     4  10  22  37  55  85 118 146 186 242 290 332
#
# _framework density 22.147089000000001
#
# number of rings (size 3 to 8) (size 9 to 14) (size 15 to 20)
#    0.000    2.571    0.000    2.143    2.000    4.286 
#    2.571    0.000    0.000    1.714    0.000    4.000 
#    0.000    0.000    0.000    0.000    0.000    0.000 
#
# Total GULP energy -694257.259493 kJ/mol
# GULP energy per Si atom -12397.451062 kJ/mol
# Density = 2.209668 g / cm^3
# Si number density = 22.147089 Si / 1000 Ang^3
#
#
#
# Elastic Constant Matrix: (Units=GPa)
#
#
# Indices 1 2 3 4 5 6 
#
# 1 74.8926 51.1836 33.0535 0.0000 0.0000 0.0000
# 2 51.1836 83.0454 39.8756 0.0000 0.0000 0.0000
# 3 33.0535 39.8756 124.8486 0.0000 0.0000 0.0000
# 4 0.0000 0.0000 0.0000 28.2552 0.0000 0.0000
# 5 0.0000 0.0000 0.0000 0.0000 23.2447 0.0000
# 6 0.0000 0.0000 0.0000 0.0000 0.0000 39.9053
#
#
#
# Elastic Compliance Matrix: (Units=1/GPa)
#
#
# Indices 1 2 3 4 5 6 
#
# 1 0.023437 -0.013543 -0.001880 0.000000 0.000000 0.000000
# 2 -0.013543 0.022048 -0.003457 0.000000 0.000000 0.000000
# 3 -0.001880 -0.003457 0.009611 0.000000 0.000000 0.000000
# 4 0.000000 0.000000 0.000000 0.035392 0.000000 0.000000
# 5 0.000000 0.000000 0.000000 0.000000 0.043021 0.000000
# 6 0.000000 0.000000 0.000000 0.000000 0.000000 0.025059
#
#
# Mechanical properties :
#
#
# Convention : Reuss Voigt Hill
#
# Bulk Modulus (GPa) = 57.67305 59.00131 58.33718
# Shear Modulus (GPa) = 24.73948 28.85931 26.79939
#
# Velocity S-wave (km/s) = 3.34586 3.61373 3.48237
# Velocity P-wave (km/s) = 6.40498 6.64158 6.52435
#
# Compressibility (1/GPa) = 0.01733912
#
# Stress axis : x y z
#
# Youngs Moduli (GPa) = 42.66672 45.35521 104.04394
#
# Poissons Ratio (x) = 0.61423 0.19556
# Poissons Ratio (y) = 0.57783 0.35964
# Poissons Ratio (z) = 0.08020 0.15677
#
# Static dielectric constant tensor:
#      x y z
#    x 4.068310 0.000000 0.000000 
#    y 0.000000 3.704270 0.000000 
#    z 0.000000 0.000000 4.201750 
# 
# 
# High freq. dielectric constant tensor:
#      x y z
#    x 1.874730 0.000000 0.000000 
#    y 0.000000 1.851290 0.000000 
#    z 0.000000 0.000000 1.880610 
# 
# From -- ./inp_files/73433.got.cif
#   From: 2010.03.12/outbox.cif.g09.slc.cpg/sg63_37_cif.got.tgz:73433.got - 2010.04.10 19:34:48.
