data_PCOD8261363
_publ_section_title
;
Structure prediction by ZEFSAII (Michael W. Deem and Ramdas Pophale) SiO2 
 PCOD8261363
Probable space group: C M C M
;
_chemical_formula_sum "Si O2"
_cell_formula_units_Z 112
_cell_length_a 9.556685
_cell_length_b 25.180949
_cell_length_c 27.267354
_cell_angle_alpha 90.000000
_cell_angle_beta 90.000000
_cell_angle_gamma 90.000000
_cell_volume 6561.790512
_symmetry_space_group_name_H-M "C M C M"
_symmetry_group_IT_number 63
_symmetry_cell_setting 'orthorhombic'
loop_
_space_group_symop_operation_xyz
x,y,z
-x,-y,1/2+z
x,-y,-z
-x,y,1/2-z
-x,-y,-z
x,y,1/2-z
-x,y,z
x,-y,1/2+z
1/2+x,1/2+y,z
1/2-x,1/2-y,1/2+z
1/2+x,1/2-y,-z
1/2-x,1/2+y,1/2-z
1/2-x,1/2-y,-z
1/2+x,1/2+y,1/2-z
1/2-x,1/2+y,z
1/2+x,1/2-y,1/2+z
loop_
_atom_site_type_symbol
_atom_site_label
_atom_site_fract_x
_atom_site_fract_y
_atom_site_fract_z
Si Si1 0.660088 0.010113 0.806266
Si Si2 0.834551 0.111693 0.806647
Si Si3 0.663343 0.808413 0.912301
Si Si4 0.838514 0.835792 0.494836
Si Si5 0.836268 0.193811 0.612378
Si Si6 0.159017 0.951445 0.968386
Si Si7 0.338714 0.922024 0.619671
O O1 0.688943 0.999300 0.750000
O O2 0.500000 0.026889 0.816878
O O3 0.759242 0.057782 0.824672
O O4 0.695851 0.953126 0.830436
O O5 0.795111 0.125360 0.750000
O O6 0.777293 0.159072 0.842050
O O7 0.000000 0.103197 0.811936
O O8 0.500000 0.808840 0.926601
O O9 0.699355 0.756231 0.879947
O O10 0.704510 0.859588 0.879004
O O11 0.748644 0.806538 0.963208
O O12 0.776509 0.822614 0.441045
O O13 0.823278 0.898633 0.499983
O O14 0.000000 0.817354 0.500358
O O15 0.000000 0.183349 0.611196
O O16 0.253020 0.952549 0.920923
O O17 0.000000 0.959858 0.951382
O O18 0.214247 0.000000 0.000000
O O19 0.500000 0.926557 0.605502
#
# Coordination Sequence:
#
# PCOD8261363 Si02
#       7
#    16  16  16  16  16  16  16
#     4   9  18  33  50  68  92 121 153 189 230 277
#     4   9  18  32  50  72  94 117 150 192 234 274
#     4   9  17  31  47  66  93 123 152 187 227 266
#     4   9  17  29  44  65  92 122 155 187 221 267
#     4   9  17  29  48  69  92 121 152 188 230 271
#     4   9  18  29  43  65  92 123 154 184 223 273
#     4   9  18  31  47  66  91 121 151 187 229 269
#
# _framework density 17.068511999999998
#
# number of rings (size 3 to 8) (size 9 to 14) (size 15 to 20)
#    0.000    3.000    0.000    0.429    2.000    0.857 
#    0.000    2.143    0.000    4.286    0.000    0.000 
#    0.000    5.714    0.000    0.000    0.000    0.000 
#
# Total GULP energy -694079.165551 kJ/mol
# GULP energy per Si atom -12394.270813 kJ/mol
# Density = 1.702966 g / cm^3
# Si number density = 17.068512 Si / 1000 Ang^3
#
#
#
# Elastic Constant Matrix: (Units=GPa)
#
#
# Indices 1 2 3 4 5 6 
#
# 1 35.6156 35.0577 32.3050 0.0000 0.0000 0.0000
# 2 35.0577 118.2653 74.4399 0.0000 0.0000 0.0000
# 3 32.3050 74.4399 92.0338 0.0000 0.0000 0.0000
# 4 0.0000 0.0000 0.0000 31.9770 0.0000 0.0000
# 5 0.0000 0.0000 0.0000 0.0000 21.8308 0.0000
# 6 0.0000 0.0000 0.0000 0.0000 0.0000 56.6795
#
#
#
# Elastic Compliance Matrix: (Units=1/GPa)
#
#
# Indices 1 2 3 4 5 6 
#
# 1 0.043662 -0.006715 -0.009895 0.000000 0.000000 0.000000
# 2 -0.006715 0.018257 -0.012410 0.000000 0.000000 0.000000
# 3 -0.009895 -0.012410 0.024377 0.000000 0.000000 0.000000
# 4 0.000000 0.000000 0.000000 0.031272 0.000000 0.000000
# 5 0.000000 0.000000 0.000000 0.000000 0.045807 0.000000
# 6 0.000000 0.000000 0.000000 0.000000 0.000000 0.017643
#
#
# Mechanical properties :
#
#
# Convention : Reuss Voigt Hill
#
# Bulk Modulus (GPa) = 35.39002 58.83553 47.11278
# Shear Modulus (GPa) = 20.12258 29.03828 24.58043
#
# Velocity S-wave (km/s) = 3.43728 4.12913 3.79899
# Velocity P-wave (km/s) = 6.04420 7.56822 6.84873
#
# Compressibility (1/GPa) = 0.02825655
#
# Stress axis : x y z
#
# Youngs Moduli (GPa) = 22.90308 54.77225 41.02302
#
# Poissons Ratio (x) = 0.36778 0.40592
# Poissons Ratio (y) = 0.15379 0.50910
# Poissons Ratio (z) = 0.22662 0.67974
#
# Static dielectric constant tensor:
#      x y z
#    x 3.112110 0.000000 0.000000 
#    y 0.000000 3.417930 0.000000 
#    z 0.000000 0.000000 3.227620 
# 
# 
# High freq. dielectric constant tensor:
#      x y z
#    x 1.640860 0.000000 0.000000 
#    y 0.000000 1.668950 0.000000 
#    z 0.000000 0.000000 1.643800 
# 
# From -- ./inp_files/61927.got.cif
#   From: 2010.03.12/outbox.cif.g09.slc.cpg/sg63_31_cif.got.tgz:61927.got - 2010.04.10 19:34:48.
