data_PCOD8261940
_publ_section_title
;
Structure prediction by ZEFSAII (Michael W. Deem and Ramdas Pophale) SiO2 
 PCOD8261940
Probable space group: C M C A
;
_chemical_formula_sum "Si O2"
_cell_formula_units_Z 72
_cell_length_a 17.215164
_cell_length_b 23.144175
_cell_length_c 9.228192
_cell_angle_alpha 90.000000
_cell_angle_beta 90.000000
_cell_angle_gamma 90.000000
_cell_volume 3676.795628
_symmetry_space_group_name_H-M "C M C A"
_symmetry_group_IT_number 64
_symmetry_cell_setting 'orthorhombic'
loop_
_space_group_symop_operation_xyz
x,y,z
-x,1/2-y,1/2+z
x,-y,-z
-x,1/2+y,1/2-z
-x,-y,-z
x,1/2+y,1/2-z
-x,y,z
x,1/2-y,1/2+z
1/2+x,1/2+y,z
1/2-x,-y,1/2+z
1/2+x,1/2-y,-z
1/2-x,y,1/2-z
1/2-x,1/2-y,-z
1/2+x,y,1/2-z
1/2-x,1/2+y,z
1/2+x,-y,1/2+z
loop_
_atom_site_type_symbol
_atom_site_label
_atom_site_fract_x
_atom_site_fract_y
_atom_site_fract_z
Si Si1 0.357729 0.653969 0.639981
Si Si2 0.000000 0.992189 0.747750
Si Si3 0.122355 0.000000 0.000000
Si Si4 0.500000 0.407672 0.488195
Si Si5 0.315409 0.120687 0.556014
Si Si6 0.304918 0.775638 0.620025
O O1 0.424003 0.632046 0.531488
O O2 0.367137 0.626827 0.799397
O O3 0.274897 0.634237 0.578526
O O4 0.364183 0.723736 0.660022
O O5 0.074003 0.995593 0.852066
O O6 0.000000 0.933609 0.650990
O O7 0.000000 0.044230 0.635320
O O8 0.177315 0.055762 0.000347
O O9 0.348712 0.166940 0.438505
O O10 0.250000 0.795135 0.750000
O O11 0.250000 0.750000 0.500000
#
# Coordination Sequence:
#
# PCOD8261940 Si02
#       6
#    16   8   8   8  16  16
#     4  10  20  40  62  91 121 162 203 256 315 362
#     4  10  24  40  60  86 129 167 199 245 323 373
#     4  11  22  42  62  91 122 166 208 257 308 372
#     4  11  22  42  62  86 125 168 199 252 316 374
#     4  10  21  38  65  90 122 159 210 256 305 364
#     4  10  18  36  63  88 118 154 197 253 310 355
#
# _framework density 19.582267999999999
#
# number of rings (size 3 to 8) (size 9 to 14) (size 15 to 20)
#    0.000    1.778    6.667    0.000    0.000    5.333 
#    4.000    3.333    0.000    0.000    0.000    0.000 
#    0.000    0.000    0.000    0.000    0.000    0.000 
#
# Total GULP energy -446188.149042 kJ/mol
# GULP energy per Si atom -12394.115251 kJ/mol
# Density = 1.953770 g / cm^3
# Si number density = 19.582268 Si / 1000 Ang^3
#
#
#
# Elastic Constant Matrix: (Units=GPa)
#
#
# Indices 1 2 3 4 5 6 
#
# 1 66.5587 38.1481 22.8330 0.0000 0.0000 0.0000
# 2 38.1481 178.7038 45.0539 0.0000 0.0000 0.0000
# 3 22.8330 45.0539 101.9178 0.0000 0.0000 0.0000
# 4 0.0000 0.0000 0.0000 38.3655 0.0000 0.0000
# 5 0.0000 0.0000 0.0000 0.0000 13.8759 0.0000
# 6 0.0000 0.0000 0.0000 0.0000 0.0000 18.6788
#
#
#
# Elastic Compliance Matrix: (Units=1/GPa)
#
#
# Indices 1 2 3 4 5 6 
#
# 1 0.017703 -0.003128 -0.002583 0.000000 0.000000 0.000000
# 2 -0.003128 0.006850 -0.002328 0.000000 0.000000 0.000000
# 3 -0.002583 -0.002328 0.011420 0.000000 0.000000 0.000000
# 4 0.000000 0.000000 0.000000 0.026065 0.000000 0.000000
# 5 0.000000 0.000000 0.000000 0.000000 0.072068 0.000000
# 6 0.000000 0.000000 0.000000 0.000000 0.000000 0.053537
#
#
# Mechanical properties :
#
#
# Convention : Reuss Voigt Hill
#
# Bulk Modulus (GPa) = 50.26246 62.13895 56.20070
# Shear Modulus (GPa) = 23.76968 30.26037 27.01502
#
# Velocity S-wave (km/s) = 3.48780 3.93529 3.71828
# Velocity P-wave (km/s) = 6.47632 7.24222 6.86995
#
# Compressibility (1/GPa) = 0.01989557
#
# Stress axis : x y z
#
# Youngs Moduli (GPa) = 56.48663 145.97770 87.56932
#
# Poissons Ratio (x) = 0.45659 0.22623
# Poissons Ratio (y) = 0.17668 0.20382
# Poissons Ratio (z) = 0.14593 0.33977
#
# Static dielectric constant tensor:
#      x y z
#    x 3.160220 0.000000 0.000000 
#    y 0.000000 4.435130 0.000000 
#    z 0.000000 0.000000 3.865160 
# 
# 
# High freq. dielectric constant tensor:
#      x y z
#    x 1.722540 0.000000 0.000000 
#    y 0.000000 1.777990 0.000000 
#    z 0.000000 0.000000 1.773280 
# 
# From -- ./inp_files/6918.got.cif
#   From: 2010.03.12/outbox.cif.g09.slc.cpg/sg64_4_cif.got.tgz:6918.got - 2010.04.10 20:19:32.
