data_PCOD8261327
_publ_section_title
;
Structure prediction by ZEFSAII (Michael W. Deem and Ramdas Pophale) SiO2 
 PCOD8261327
Probable space group: C M C M
;
_chemical_formula_sum "Si O2"
_cell_formula_units_Z 96
_cell_length_a 9.185700
_cell_length_b 25.223635
_cell_length_c 25.362647
_cell_angle_alpha 90.000000
_cell_angle_beta 90.000000
_cell_angle_gamma 90.000000
_cell_volume 5876.442730
_symmetry_space_group_name_H-M "C M C M"
_symmetry_group_IT_number 63
_symmetry_cell_setting 'orthorhombic'
loop_
_space_group_symop_operation_xyz
x,y,z
-x,-y,1/2+z
x,-y,-z
-x,y,1/2-z
-x,-y,-z
x,y,1/2-z
-x,y,z
x,-y,1/2+z
1/2+x,1/2+y,z
1/2-x,1/2-y,1/2+z
1/2+x,1/2-y,-z
1/2-x,1/2+y,1/2-z
1/2-x,1/2-y,-z
1/2+x,1/2+y,1/2-z
1/2-x,1/2+y,z
1/2+x,1/2-y,1/2+z
loop_
_atom_site_type_symbol
_atom_site_label
_atom_site_fract_x
_atom_site_fract_y
_atom_site_fract_z
Si Si1 0.330668 0.755265 0.445137
Si Si2 0.663441 0.936900 0.250000
Si Si3 0.331277 0.560162 0.852172
Si Si4 0.331942 0.638583 0.442484
Si Si5 0.328080 0.438304 0.853726
Si Si6 0.164643 0.437116 0.750000
Si Si7 0.828758 0.144527 0.938957
O O1 0.500000 0.768301 0.453417
O O2 0.250000 0.750000 0.500000
O O3 0.310726 0.697667 0.417552
O O4 0.253448 0.803864 0.414270
O O5 0.500000 0.914419 0.250000
O O6 0.743773 0.916370 0.197541
O O7 0.666917 0.999855 0.250000
O O8 0.500000 0.565040 0.837581
O O9 0.289336 0.499547 0.864727
O O10 0.290638 0.593842 0.903671
O O11 0.500000 0.624310 0.448012
O O12 0.263322 0.595567 0.402679
O O13 0.267147 0.633707 0.501835
O O14 0.500000 0.429878 0.845921
O O15 0.248576 0.416566 0.801598
O O16 0.000000 0.415167 0.750000
O O17 0.000000 0.157072 0.939740
#
# Coordination Sequence:
#
# PCOD8261327 Si02
#       7
#    16   8  16  16  16   8  16
#     4   9  16  28  45  64  86 115 150 184 214 252
#     4   9  17  29  45  62  85 116 149 182 216 253
#     4   9  17  28  45  67  90 115 145 178 215 259
#     4   8  15  27  44  66  90 113 143 179 214 253
#     4   9  16  28  46  66  87 115 146 177 214 258
#     4   9  17  29  43  62  87 114 145 182 216 253
#     4   9  17  29  44  66  93 118 143 176 216 260
#
# _framework density 16.336414000000001
#
# number of rings (size 3 to 8) (size 9 to 14) (size 15 to 20)
#    0.000    3.167    0.000    2.000    0.000    3.333 
#    0.000    7.500    0.000    1.000    0.000   10.500 
#    0.000    0.000    0.000    0.000    0.000    0.000 
#
# Total GULP energy -594840.819802 kJ/mol
# GULP energy per Si atom -12392.517079 kJ/mol
# Density = 1.629923 g / cm^3
# Si number density = 16.336414 Si / 1000 Ang^3
#
#
#
# Elastic Constant Matrix: (Units=GPa)
#
#
# Indices 1 2 3 4 5 6 
#
# 1 61.9919 40.2861 40.9977 0.0000 0.0000 0.0000
# 2 40.2861 92.2340 63.3898 0.0000 0.0000 0.0000
# 3 40.9977 63.3898 111.2457 0.0000 0.0000 0.0000
# 4 0.0000 0.0000 0.0000 6.3955 0.0000 0.0000
# 5 0.0000 0.0000 0.0000 0.0000 16.0271 0.0000
# 6 0.0000 0.0000 0.0000 0.0000 0.0000 21.5922
#
#
#
# Elastic Compliance Matrix: (Units=1/GPa)
#
#
# Indices 1 2 3 4 5 6 
#
# 1 0.023936 -0.007220 -0.004707 0.000000 0.000000 0.000000
# 2 -0.007220 0.019999 -0.008735 0.000000 0.000000 0.000000
# 3 -0.004707 -0.008735 0.015701 0.000000 0.000000 0.000000
# 4 0.000000 0.000000 0.000000 0.156359 0.000000 0.000000
# 5 0.000000 0.000000 0.000000 0.000000 0.062394 0.000000
# 6 0.000000 0.000000 0.000000 0.000000 0.000000 0.046313
#
#
# Mechanical properties :
#
#
# Convention : Reuss Voigt Hill
#
# Bulk Modulus (GPa) = 54.60852 61.64655 58.12754
# Shear Modulus (GPa) = 13.43617 16.85616 15.14617
#
# Velocity S-wave (km/s) = 2.87098 3.21567 3.04820
# Velocity P-wave (km/s) = 6.67009 7.18366 6.93163
#
# Compressibility (1/GPa) = 0.01831216
#
# Stress axis : x y z
#
# Youngs Moduli (GPa) = 41.77801 50.00333 63.68912
#
# Poissons Ratio (x) = 0.36100 0.29981
# Poissons Ratio (y) = 0.30162 0.55632
# Poissons Ratio (z) = 0.19666 0.43678
#
# Static dielectric constant tensor:
#      x y z
#    x 3.112140 0.000000 0.000000 
#    y 0.000000 3.447380 0.000000 
#    z 0.000000 0.000000 3.157050 
# 
# 
# High freq. dielectric constant tensor:
#      x y z
#    x 1.617560 0.000000 0.000000 
#    y 0.000000 1.615030 0.000000 
#    z 0.000000 0.000000 1.610500 
# 
# From -- ./inp_files/67305.got.cif
#   From: 2010.03.12/outbox.cif.g09.slc.cpg/sg63_34_cif.got.tgz:67305.got - 2010.04.10 19:34:48.
