data_PCOD8261104
_publ_section_title
;
Structure prediction by ZEFSAII (Michael W. Deem and Ramdas Pophale) SiO2 
 PCOD8261104
Probable space group: C M C M
;
_chemical_formula_sum "Si O2"
_cell_formula_units_Z 64
_cell_length_a 8.665546
_cell_length_b 15.287502
_cell_length_c 23.245305
_cell_angle_alpha 90.000000
_cell_angle_beta 90.000000
_cell_angle_gamma 90.000000
_cell_volume 3079.411361
_symmetry_space_group_name_H-M "C M C M"
_symmetry_group_IT_number 63
_symmetry_cell_setting 'orthorhombic'
loop_
_space_group_symop_operation_xyz
x,y,z
-x,-y,1/2+z
x,-y,-z
-x,y,1/2-z
-x,-y,-z
x,y,1/2-z
-x,y,z
x,-y,1/2+z
1/2+x,1/2+y,z
1/2-x,1/2-y,1/2+z
1/2+x,1/2-y,-z
1/2-x,1/2+y,1/2-z
1/2-x,1/2-y,-z
1/2+x,1/2+y,1/2-z
1/2-x,1/2+y,z
1/2+x,1/2-y,1/2+z
loop_
_atom_site_type_symbol
_atom_site_label
_atom_site_fract_x
_atom_site_fract_y
_atom_site_fract_z
Si Si1 0.321736 0.246255 0.183894
Si Si2 0.818317 0.596374 0.612109
Si Si3 0.818182 0.846011 0.502363
Si Si4 0.180548 0.083164 0.127156
O O1 0.297815 0.272460 0.250000
O O2 0.500000 0.232309 0.168342
O O3 0.255488 0.322815 0.145069
O O4 0.231993 0.156484 0.172163
O O5 0.757066 0.594266 0.546808
O O6 0.769876 0.506085 0.642497
O O7 0.000000 0.608696 0.613096
O O8 0.750000 0.750000 0.500000
O O9 0.774281 0.887618 0.563129
O O10 0.000000 0.842174 0.492754
O O11 0.000000 0.065830 0.133677
#
# Coordination Sequence:
#
# PCOD8261104 Si02
#       4
#    16  16  16  16
#     4  11  25  45  68  93 124 165 214 268 320 374
#     4  12  25  41  65  96 130 171 212 259 315 375
#     4  11  22  38  64  96 131 168 209 257 316 381
#     4  11  24  42  66  96 129 168 210 259 317 379
#
# _framework density 20.783193000000001
#
# number of rings (size 3 to 8) (size 9 to 14) (size 15 to 20)
#    0.000    0.750    2.500    5.250    0.000    9.000 
#    0.000    0.000    0.000    0.000    0.000    0.000 
#    0.000    0.000    0.000    0.000    0.000    0.000 
#
# Total GULP energy -397059.661219 kJ/mol
# GULP energy per Si atom -12408.114413 kJ/mol
# Density = 2.073589 g / cm^3
# Si number density = 20.783193 Si / 1000 Ang^3
#
#
#
# Elastic Constant Matrix: (Units=GPa)
#
#
# Indices 1 2 3 4 5 6 
#
# 1 844.7945 169.3852 -194.9742 0.0000 0.0000 0.0000
# 2 169.3852 138.4586 -40.7560 0.0000 0.0000 0.0000
# 3 -194.9742 -40.7560 135.8737 0.0000 0.0000 0.0000
# 4 0.0000 0.0000 0.0000 -155.4189 0.0000 0.0000
# 5 0.0000 0.0000 0.0000 0.0000 31.8286 0.0000
# 6 0.0000 0.0000 0.0000 0.0000 0.0000 41.9002
#
#
#
# Elastic Compliance Matrix: (Units=1/GPa)
#
#
# Indices 1 2 3 4 5 6 
#
# 1 0.002139 -0.001879 0.002505 0.000000 0.000000 0.000000
# 2 -0.001879 0.009573 0.000175 0.000000 0.000000 0.000000
# 3 0.002505 0.000175 0.011007 0.000000 0.000000 0.000000
# 4 0.000000 0.000000 0.000000 -0.006434 0.000000 0.000000
# 5 0.000000 0.000000 0.000000 0.000000 0.031418 0.000000
# 6 0.000000 0.000000 0.000000 0.000000 0.000000 0.023866
#
#
# Mechanical properties :
#
#
# Convention : Reuss Voigt Hill
#
# Bulk Modulus (GPa) = 41.11557 109.60410 75.35984
# Shear Modulus (GPa) = 64.04269 62.69343 63.36806
#
# Velocity S-wave (km/s) = 5.55712 5.49827 5.52777
# Velocity P-wave (km/s) = 7.81034 9.65191 8.77954
#
# Compressibility (1/GPa) = 0.02432169
#
# Stress axis : x y z
#
# Youngs Moduli (GPa) = 467.58123 104.46568 90.84825
#
# Poissons Ratio (x) = 0.19628 -0.22760
# Poissons Ratio (y) = 0.87854 -0.01591
# Poissons Ratio (z) = -1.17144 -0.01830
#
# Static dielectric constant tensor:
#      x y z
#    x 3.899810 0.000000 0.000000 
#    y 0.000000 3.928160 0.000000 
#    z 0.000000 0.000000 3.917230 
# 
# 
# High freq. dielectric constant tensor:
#      x y z
#    x 1.828960 0.000000 0.000000 
#    y 0.000000 1.829300 0.000000 
#    z 0.000000 0.000000 1.809790 
# 
# From -- ./inp_files/59051.got.cif
#   From: 2010.03.12/outbox.cif.g09.slc.cpg/sg63_30_cif.got.tgz:59051.got - 2010.04.10 19:34:48.
