data_PCOD8261479
_publ_section_title
;
Structure prediction by ZEFSAII (Michael W. Deem and Ramdas Pophale) SiO2 
 PCOD8261479
Probable space group: C M C A
;
_chemical_formula_sum "Si O2"
_cell_formula_units_Z 112
_cell_length_a 18.153237
_cell_length_b 20.644528
_cell_length_c 17.290880
_cell_angle_alpha 90.000000
_cell_angle_beta 90.000000
_cell_angle_gamma 90.000000
_cell_volume 6480.016808
_symmetry_space_group_name_H-M "C M C A"
_symmetry_group_IT_number 64
_symmetry_cell_setting 'orthorhombic'
loop_
_space_group_symop_operation_xyz
x,y,z
-x,1/2-y,1/2+z
x,-y,-z
-x,1/2+y,1/2-z
-x,-y,-z
x,1/2+y,1/2-z
-x,y,z
x,1/2-y,1/2+z
1/2+x,1/2+y,z
1/2-x,-y,1/2+z
1/2+x,1/2-y,-z
1/2-x,y,1/2-z
1/2-x,1/2-y,-z
1/2+x,y,1/2-z
1/2-x,1/2+y,z
1/2+x,-y,1/2+z
loop_
_atom_site_type_symbol
_atom_site_label
_atom_site_fract_x
_atom_site_fract_y
_atom_site_fract_z
Si Si1 0.913683 0.857778 0.671680
Si Si2 0.687029 0.830253 0.056390
Si Si3 0.086051 0.787327 0.141908
Si Si4 0.160732 0.817462 0.988944
Si Si5 0.412636 0.929714 0.975330
Si Si6 0.826807 0.710854 0.781161
Si Si7 0.586986 0.667209 0.162814
O O1 0.882742 0.787148 0.645638
O O2 0.886559 0.913684 0.612835
O O3 0.893626 0.876498 0.760922
O O4 0.000000 0.850370 0.663785
O O5 0.763048 0.851133 0.014555
O O6 0.693669 0.838328 0.149360
O O7 0.671146 0.756426 0.035265
O O8 0.620692 0.875842 0.031062
O O9 0.103573 0.819802 0.059857
O O10 0.130375 0.824728 0.210346
O O11 0.000000 0.792420 0.158227
O O12 0.127488 0.857259 0.915457
O O13 0.500000 0.926051 0.984792
O O14 0.382623 0.000000 0.000000
O O15 0.750000 0.741733 0.750000
O O16 0.884117 0.762122 0.815678
O O17 0.500000 0.670033 0.147134
#
# Coordination Sequence:
#
# PCOD8261479 Si02
#       7
#    16  16  16  16  16  16  16
#     4   8  15  28  44  66  99 129 159 207 255 287
#     4  10  20  31  47  71 105 132 164 213 259 310
#     4  10  17  27  45  69 101 137 167 198 246 313
#     4  10  18  28  46  74 102 136 164 200 264 316
#     4  10  20  34  54  75  98 136 181 220 261 307
#     4  10  18  29  43  66 101 138 168 197 255 320
#     4   9  18  28  44  70 101 135 171 206 243 310
#
# _framework density 17.283906000000002
#
# number of rings (size 3 to 8) (size 9 to 14) (size 15 to 20)
#    0.000    2.429    2.857    1.714    0.000    2.857 
#    0.000    0.000    0.000    1.714    0.000    0.000 
#    0.000    1.143    0.000    0.000    0.000    0.000 
#
# Total GULP energy -693761.248131 kJ/mol
# GULP energy per Si atom -12388.593717 kJ/mol
# Density = 1.724457 g / cm^3
# Si number density = 17.283906 Si / 1000 Ang^3
#
#
#
# Elastic Constant Matrix: (Units=GPa)
#
#
# Indices 1 2 3 4 5 6 
#
# 1 74.3745 12.8013 45.8709 0.0000 0.0000 0.0000
# 2 12.8013 36.0227 30.3225 0.0000 0.0000 0.0000
# 3 45.8709 30.3225 170.8708 0.0000 0.0000 0.0000
# 4 0.0000 0.0000 0.0000 10.5861 0.0000 0.0000
# 5 0.0000 0.0000 0.0000 0.0000 34.6016 0.0000
# 6 0.0000 0.0000 0.0000 0.0000 0.0000 11.7579
#
#
#
# Elastic Compliance Matrix: (Units=1/GPa)
#
#
# Indices 1 2 3 4 5 6 
#
# 1 0.016300 -0.002479 -0.003936 0.000000 0.000000 0.000000
# 2 -0.002479 0.033012 -0.005193 0.000000 0.000000 0.000000
# 3 -0.003936 -0.005193 0.007830 0.000000 0.000000 0.000000
# 4 0.000000 0.000000 0.000000 0.094463 0.000000 0.000000
# 5 0.000000 0.000000 0.000000 0.000000 0.028900 0.000000
# 6 0.000000 0.000000 0.000000 0.000000 0.000000 0.085049
#
#
# Mechanical properties :
#
#
# Convention : Reuss Voigt Hill
#
# Bulk Modulus (GPa) = 29.47529 51.02860 40.25194
# Shear Modulus (GPa) = 16.66220 24.20733 20.43477
#
# Velocity S-wave (km/s) = 3.10825 3.74648 3.44219
# Velocity P-wave (km/s) = 5.47469 6.95001 6.25599
#
# Compressibility (1/GPa) = 0.03392673
#
# Stress axis : x y z
#
# Youngs Moduli (GPa) = 61.35122 30.29161 127.70717
#
# Poissons Ratio (x) = 0.07511 0.50262
# Poissons Ratio (y) = 0.15212 0.66315
# Poissons Ratio (z) = 0.24146 0.15730
#
# Static dielectric constant tensor:
#      x y z
#    x 3.261520 0.000000 0.000000 
#    y 0.000000 2.668330 0.000000 
#    z 0.000000 0.000000 4.008880 
# 
# 
# High freq. dielectric constant tensor:
#      x y z
#    x 1.672820 0.000000 0.000000 
#    y 0.000000 1.572370 0.000000 
#    z 0.000000 0.000000 1.698330 
# 
# From -- ./inp_files/33589.got.cif
#   From: 2010.03.12/outbox.cif.g09.slc.cpg/sg64_17_cif.got.tgz:33589.got - 2010.04.10 20:19:32.
