data_PCOD8261870
_publ_section_title
;
Structure prediction by ZEFSAII (Michael W. Deem and Ramdas Pophale) SiO2 
 PCOD8261870
Probable space group: C M C A
;
_chemical_formula_sum "Si O2"
_cell_formula_units_Z 80
_cell_length_a 18.143733
_cell_length_b 14.887545
_cell_length_c 16.378528
_cell_angle_alpha 90.000000
_cell_angle_beta 90.000000
_cell_angle_gamma 90.000000
_cell_volume 4424.096598
_symmetry_space_group_name_H-M "C M C A"
_symmetry_group_IT_number 64
_symmetry_cell_setting 'orthorhombic'
loop_
_space_group_symop_operation_xyz
x,y,z
-x,1/2-y,1/2+z
x,-y,-z
-x,1/2+y,1/2-z
-x,-y,-z
x,1/2+y,1/2-z
-x,y,z
x,1/2-y,1/2+z
1/2+x,1/2+y,z
1/2-x,-y,1/2+z
1/2+x,1/2-y,-z
1/2-x,y,1/2-z
1/2-x,1/2-y,-z
1/2+x,y,1/2-z
1/2-x,1/2+y,z
1/2+x,-y,1/2+z
loop_
_atom_site_type_symbol
_atom_site_label
_atom_site_fract_x
_atom_site_fract_y
_atom_site_fract_z
Si Si1 0.327491 0.336666 0.209353
Si Si2 0.414940 0.510307 0.235969
Si Si3 0.413914 0.821414 0.842562
Si Si4 0.826817 0.780420 0.035875
Si Si5 0.914310 0.919404 0.941329
O O1 0.250000 0.315378 0.250000
O O2 0.363789 0.424190 0.249820
O O3 0.381584 0.250947 0.222804
O O4 0.315567 0.349688 0.111694
O O5 0.500000 0.479486 0.234245
O O6 0.399151 0.578351 0.310193
O O7 0.394372 0.558136 0.151457
O O8 0.500000 0.802444 0.853697
O O9 0.372646 0.806316 0.929752
O O10 0.750000 0.750000 0.000000
O O11 0.871480 0.828923 0.964348
O O12 0.000000 0.899215 0.953404
O O13 0.889207 0.000000 0.000000
#
# Coordination Sequence:
#
# PCOD8261870 Si02
#       5
#    16  16  16  16  16
#     4  10  22  35  53  83 118 147 181 234 287 340
#     4  10  20  35  59  83 107 149 195 235 285 340
#     4   9  20  38  58  81 112 152 194 233 280 341
#     4  10  22  34  54  81 118 146 179 231 299 338
#     4  10  18  33  58  85 108 140 194 246 281 328
#
# _framework density 18.082787
#
# number of rings (size 3 to 8) (size 9 to 14) (size 15 to 20)
#    1.200    1.000    2.000    1.200    2.800    2.400 
#    0.000    0.000    0.000    0.000    0.000    2.800 
#    0.000    0.000    0.000    0.000    0.000    0.000 
#
# Total GULP energy -495779.861307 kJ/mol
# GULP energy per Si atom -12394.496533 kJ/mol
# Density = 1.804163 g / cm^3
# Si number density = 18.082787 Si / 1000 Ang^3
#
#
#
# Elastic Constant Matrix: (Units=GPa)
#
#
# Indices 1 2 3 4 5 6 
#
# 1 105.1521 42.9713 20.2635 0.0000 0.0000 0.0000
# 2 42.9713 70.2112 1.8475 0.0000 0.0000 0.0000
# 3 20.2635 1.8475 23.9101 0.0000 0.0000 0.0000
# 4 0.0000 0.0000 0.0000 27.8303 0.0000 0.0000
# 5 0.0000 0.0000 0.0000 0.0000 36.6353 0.0000
# 6 0.0000 0.0000 0.0000 0.0000 0.0000 25.7238
#
#
#
# Elastic Compliance Matrix: (Units=1/GPa)
#
#
# Indices 1 2 3 4 5 6 
#
# 1 0.015745 -0.009304 -0.012625 0.000000 0.000000 0.000000
# 2 -0.009304 0.019770 0.006358 0.000000 0.000000 0.000000
# 3 -0.012625 0.006358 0.052032 0.000000 0.000000 0.000000
# 4 0.000000 0.000000 0.000000 0.035932 0.000000 0.000000
# 5 0.000000 0.000000 0.000000 0.000000 0.027296 0.000000
# 6 0.000000 0.000000 0.000000 0.000000 0.000000 0.038874
#
#
# Mechanical properties :
#
#
# Convention : Reuss Voigt Hill
#
# Bulk Modulus (GPa) = 17.72935 36.60422 27.16678
# Shear Modulus (GPa) = 20.86867 26.98397 23.92632
#
# Velocity S-wave (km/s) = 3.40083 3.86715 3.64147
# Velocity P-wave (km/s) = 5.02461 6.34242 5.72158
#
# Compressibility (1/GPa) = 0.05640364
#
# Stress axis : x y z
#
# Youngs Moduli (GPa) = 63.51126 50.58174 19.21911
#
# Poissons Ratio (x) = 0.47063 0.24264
# Poissons Ratio (y) = 0.59093 -0.12219
# Poissons Ratio (z) = 0.80183 -0.32158
#
# Static dielectric constant tensor:
#      x y z
#    x 3.254830 0.000000 0.000000 
#    y 0.000000 3.130240 0.000000 
#    z 0.000000 0.000000 3.171310 
# 
# 
# High freq. dielectric constant tensor:
#      x y z
#    x 1.704080 0.000000 0.000000 
#    y 0.000000 1.687500 0.000000 
#    z 0.000000 0.000000 1.684250 
# 
# From -- ./inp_files/32999.got.cif
#   From: 2010.03.12/outbox.cif.g09.slc.cpg/sg64_17_cif.got.tgz:32999.got - 2010.04.10 20:19:32.
