data_PCOD8261972
_publ_section_title
;
Structure prediction by ZEFSAII (Michael W. Deem and Ramdas Pophale) SiO2 
 PCOD8261972
Probable space group: C M C A
;
_chemical_formula_sum "Si O2"
_cell_formula_units_Z 128
_cell_length_a 24.210271
_cell_length_b 25.033680
_cell_length_c 11.769243
_cell_angle_alpha 90.000000
_cell_angle_beta 90.000000
_cell_angle_gamma 90.000000
_cell_volume 7133.010726
_symmetry_space_group_name_H-M "C M C A"
_symmetry_group_IT_number 64
_symmetry_cell_setting 'orthorhombic'
loop_
_space_group_symop_operation_xyz
x,y,z
-x,1/2-y,1/2+z
x,-y,-z
-x,1/2+y,1/2-z
-x,-y,-z
x,1/2+y,1/2-z
-x,y,z
x,1/2-y,1/2+z
1/2+x,1/2+y,z
1/2-x,-y,1/2+z
1/2+x,1/2-y,-z
1/2-x,y,1/2-z
1/2-x,1/2-y,-z
1/2+x,y,1/2-z
1/2-x,1/2+y,z
1/2+x,-y,1/2+z
loop_
_atom_site_type_symbol
_atom_site_label
_atom_site_fract_x
_atom_site_fract_y
_atom_site_fract_z
Si Si1 0.383835 0.696838 0.302937
Si Si2 0.218092 0.936815 0.009814
Si Si3 0.813158 0.755847 0.023218
Si Si4 0.614444 0.293592 0.336948
Si Si5 0.193546 0.147212 0.816749
Si Si6 0.339525 0.059340 0.043787
Si Si7 0.061250 0.363538 0.988008
Si Si8 0.687342 0.893031 0.723161
O O1 0.334806 0.710757 0.390877
O O2 0.410872 0.750645 0.251414
O O3 0.432929 0.665988 0.367152
O O4 0.353594 0.657417 0.215049
O O5 0.282313 0.917964 0.008509
O O6 0.183505 0.917966 0.901336
O O7 0.193540 0.912578 0.127956
O O8 0.215102 0.000000 0.000000
O O9 0.819471 0.814563 0.076292
O O10 0.750000 0.750000 0.000000
O O11 0.844535 0.745650 0.905576
O O12 0.645029 0.343062 0.274372
O O13 0.566718 0.319098 0.413146
O O14 0.250000 0.160193 0.750000
O O15 0.391265 0.092548 0.996590
O O16 0.334253 0.064562 0.181057
O O17 0.350032 0.000000 0.000000
O O18 0.000000 0.389078 0.995334
O O19 0.750000 0.875387 0.750000
#
# Coordination Sequence:
#
# PCOD8261972 Si02
#       8
#    16  16  16  16  16  16  16  16
#     4   9  20  31  48  74 101 132 168 198 240 302
#     4  10  21  33  48  73 106 142 168 195 247 309
#     4  10  19  28  46  74 106 134 165 196 244 298
#     4  10  20  33  48  75 103 135 167 204 249 298
#     4  11  20  29  48  72 104 139 171 206 240 301
#     4   9  19  35  53  74 100 126 168 213 251 302
#     4  10  21  37  53  71  96 127 170 220 258 289
#     4   9  18  30  49  72 104 141 165 193 241 301
#
# _framework density 17.944735999999999
#
# number of rings (size 3 to 8) (size 9 to 14) (size 15 to 20)
#    0.000    2.250    1.250    1.500    7.000    4.250 
#    0.000    0.000    0.000    0.000    0.000    0.875 
#    0.000    9.500    0.000    0.000    0.000    0.000 
#
# Total GULP energy -793024.511632 kJ/mol
# GULP energy per Si atom -12391.007994 kJ/mol
# Density = 1.790389 g / cm^3
# Si number density = 17.944736 Si / 1000 Ang^3
#
#
#
# Elastic Constant Matrix: (Units=GPa)
#
#
# Indices 1 2 3 4 5 6 
#
# 1 65.3146 35.4072 25.1929 0.0000 0.0000 0.0000
# 2 35.4072 87.9363 37.3607 0.0000 0.0000 0.0000
# 3 25.1929 37.3607 75.3164 0.0000 0.0000 0.0000
# 4 0.0000 0.0000 0.0000 31.3656 0.0000 0.0000
# 5 0.0000 0.0000 0.0000 0.0000 10.1802 0.0000
# 6 0.0000 0.0000 0.0000 0.0000 0.0000 15.8283
#
#
#
# Elastic Compliance Matrix: (Units=1/GPa)
#
#
# Indices 1 2 3 4 5 6 
#
# 1 0.020274 -0.006692 -0.003462 0.000000 0.000000 0.000000
# 2 -0.006692 0.016618 -0.006005 0.000000 0.000000 0.000000
# 3 -0.003462 -0.006005 0.017414 0.000000 0.000000 0.000000
# 4 0.000000 0.000000 0.000000 0.031882 0.000000 0.000000
# 5 0.000000 0.000000 0.000000 0.000000 0.098230 0.000000
# 6 0.000000 0.000000 0.000000 0.000000 0.000000 0.063178
#
#
# Mechanical properties :
#
#
# Convention : Reuss Voigt Hill
#
# Bulk Modulus (GPa) = 45.47976 47.16543 46.32259
# Shear Modulus (GPa) = 17.40695 20.18192 18.79444
#
# Velocity S-wave (km/s) = 3.11791 3.35725 3.23979
# Velocity P-wave (km/s) = 6.19364 6.43187 6.31388
#
# Compressibility (1/GPa) = 0.02198780
#
# Stress axis : x y z
#
# Youngs Moduli (GPa) = 49.32492 60.17692 57.42565
#
# Poissons Ratio (x) = 0.40273 0.19879
# Poissons Ratio (y) = 0.33010 0.34482
# Poissons Ratio (z) = 0.17075 0.36134
#
# Static dielectric constant tensor:
#      x y z
#    x 2.921360 0.000000 0.000000 
#    y 0.000000 3.310600 0.000000 
#    z 0.000000 0.000000 3.254360 
# 
# 
# High freq. dielectric constant tensor:
#      x y z
#    x 1.648760 0.000000 0.000000 
#    y 0.000000 1.690950 0.000000 
#    z 0.000000 0.000000 1.705690 
# 
# From -- ./inp_files/18707.got.cif
#   From: 2010.03.12/outbox.cif.g09.slc.cpg/sg64_10_cif.got.tgz:18707.got - 2010.04.10 20:19:32.
