data_PCOD8261160
_publ_section_title
;
Structure prediction by ZEFSAII (Michael W. Deem and Ramdas Pophale) SiO2 
 PCOD8261160
Probable space group: C M C M
;
_chemical_formula_sum "Si O2"
_cell_formula_units_Z 64
_cell_length_a 7.636977
_cell_length_b 21.437255
_cell_length_c 20.508283
_cell_angle_alpha 90.000000
_cell_angle_beta 90.000000
_cell_angle_gamma 90.000000
_cell_volume 3357.530437
_symmetry_space_group_name_H-M "C M C M"
_symmetry_group_IT_number 63
_symmetry_cell_setting 'orthorhombic'
loop_
_space_group_symop_operation_xyz
x,y,z
-x,-y,1/2+z
x,-y,-z
-x,y,1/2-z
-x,-y,-z
x,y,1/2-z
-x,y,z
x,-y,1/2+z
1/2+x,1/2+y,z
1/2-x,1/2-y,1/2+z
1/2+x,1/2-y,-z
1/2-x,1/2+y,1/2-z
1/2-x,1/2-y,-z
1/2+x,1/2+y,1/2-z
1/2-x,1/2+y,z
1/2+x,1/2-y,1/2+z
loop_
_atom_site_type_symbol
_atom_site_label
_atom_site_fract_x
_atom_site_fract_y
_atom_site_fract_z
Si Si1 0.206687 0.232264 0.676512
Si Si2 0.196889 0.197400 0.051243
Si Si3 0.000000 0.528965 0.599929
Si Si4 0.696048 0.590492 0.826062
Si Si5 0.000000 0.599650 0.034641
O O1 0.266767 0.250139 0.750000
O O2 0.300900 0.276462 0.624818
O O3 0.259929 0.161102 0.661000
O O4 0.000000 0.240365 0.669745
O O5 0.325331 0.139368 0.044747
O O6 0.000000 0.174683 0.035800
O O7 0.250000 0.250000 0.000000
O O8 0.824991 0.542440 0.639975
O O9 0.000000 0.455617 0.586748
O O10 0.000000 0.571828 0.536875
O O11 0.697388 0.576180 0.750000
O O12 0.500000 0.580823 0.854007
#
# Coordination Sequence:
#
# PCOD8261160 Si02
#       5
#    16  16   8  16   8
#     4   9  18  35  60  91 124 152 193 251 302 355
#     4  12  23  39  62  87 122 157 196 251 307 362
#     4  11  23  40  62  82 121 161 204 248 286 362
#     4   9  19  36  62  93 118 151 199 249 301 349
#     4  11  26  42  56  90 118 161 210 238 304 362
#
# _framework density 19.061627999999999
#
# number of rings (size 3 to 8) (size 9 to 14) (size 15 to 20)
#    0.000    1.750    2.500    3.375    1.750    4.500 
#    0.000    5.000    0.000    0.000    0.000    0.000 
#    0.000    0.000    0.000    0.000    0.000    0.000 
#
# Total GULP energy -396858.729526 kJ/mol
# GULP energy per Si atom -12401.835298 kJ/mol
# Density = 1.901824 g / cm^3
# Si number density = 19.061628 Si / 1000 Ang^3
#
#
#
# Elastic Constant Matrix: (Units=GPa)
#
#
# Indices 1 2 3 4 5 6 
#
# 1 143.4028 70.7553 39.9034 0.0000 0.0000 0.0000
# 2 70.7553 120.7364 54.9004 0.0000 0.0000 0.0000
# 3 39.9034 54.9004 74.2259 0.0000 0.0000 0.0000
# 4 0.0000 0.0000 0.0000 30.7752 0.0000 0.0000
# 5 0.0000 0.0000 0.0000 0.0000 28.7325 0.0000
# 6 0.0000 0.0000 0.0000 0.0000 0.0000 33.4593
#
#
#
# Elastic Compliance Matrix: (Units=1/GPa)
#
#
# Indices 1 2 3 4 5 6 
#
# 1 0.009928 -0.005110 -0.001558 0.000000 0.000000 0.000000
# 2 -0.005110 0.015110 -0.008429 0.000000 0.000000 0.000000
# 3 -0.001558 -0.008429 0.020544 0.000000 0.000000 0.000000
# 4 0.000000 0.000000 0.000000 0.032494 0.000000 0.000000
# 5 0.000000 0.000000 0.000000 0.000000 0.034804 0.000000
# 6 0.000000 0.000000 0.000000 0.000000 0.000000 0.029887
#
#
# Mechanical properties :
#
#
# Convention : Reuss Voigt Hill
#
# Bulk Modulus (GPa) = 64.98112 74.38703 69.68408
# Shear Modulus (GPa) = 28.07591 30.11379 29.09485
#
# Velocity S-wave (km/s) = 3.84200 3.97900 3.91110
# Velocity P-wave (km/s) = 7.33794 7.76010 7.55197
#
# Compressibility (1/GPa) = 0.01538909
#
# Stress axis : x y z
#
# Youngs Moduli (GPa) = 100.72500 66.18306 48.67583
#
# Poissons Ratio (x) = 0.33818 0.07583
# Poissons Ratio (y) = 0.51468 0.41027
# Poissons Ratio (z) = 0.15692 0.55784
#
# Static dielectric constant tensor:
#      x y z
#    x 2.887500 0.000000 0.000000 
#    y 0.000000 3.325890 0.000000 
#    z 0.000000 0.000000 3.645930 
# 
# 
# High freq. dielectric constant tensor:
#      x y z
#    x 1.753570 0.000000 0.000000 
#    y 0.000000 1.713840 0.000000 
#    z 0.000000 0.000000 1.752280 
# 
# From -- ./inp_files/50624.got.cif
#   From: 2010.03.12/outbox.cif.g09.slc.cpg/sg63_26_cif.got.tgz:50624.got - 2010.04.10 19:34:48.
