data_PCOD8261573
_publ_section_title
;
Structure prediction by ZEFSAII (Michael W. Deem and Ramdas Pophale) SiO2 
 PCOD8261573
Probable space group: C M C A
;
_chemical_formula_sum "Si O2"
_cell_formula_units_Z 80
_cell_length_a 15.350284
_cell_length_b 26.092364
_cell_length_c 9.309320
_cell_angle_alpha 90.000000
_cell_angle_beta 90.000000
_cell_angle_gamma 90.000000
_cell_volume 3728.617233
_symmetry_space_group_name_H-M "C M C A"
_symmetry_group_IT_number 64
_symmetry_cell_setting 'orthorhombic'
loop_
_space_group_symop_operation_xyz
x,y,z
-x,1/2-y,1/2+z
x,-y,-z
-x,1/2+y,1/2-z
-x,-y,-z
x,1/2+y,1/2-z
-x,y,z
x,1/2-y,1/2+z
1/2+x,1/2+y,z
1/2-x,-y,1/2+z
1/2+x,1/2-y,-z
1/2-x,y,1/2-z
1/2-x,1/2-y,-z
1/2+x,y,1/2-z
1/2-x,1/2+y,z
1/2+x,-y,1/2+z
loop_
_atom_site_type_symbol
_atom_site_label
_atom_site_fract_x
_atom_site_fract_y
_atom_site_fract_z
Si Si1 0.000000 0.586883 0.023781
Si Si2 0.500000 0.489542 0.272225
Si Si3 0.686241 0.734183 0.877841
Si Si4 0.139187 0.844274 0.650909
Si Si5 0.166563 0.638571 0.460309
Si Si6 0.677730 0.464722 0.125955
O O1 0.000000 0.541322 0.137606
O O2 0.917969 0.624570 0.037624
O O3 0.000000 0.562189 0.866644
O O4 0.587874 0.490043 0.178895
O O5 0.750000 0.717291 0.750000
O O6 0.622737 0.782435 0.843367
O O7 0.750000 0.750000 0.000000
O O8 0.633173 0.685075 0.937462
O O9 0.113349 0.864939 0.810585
O O10 0.236205 0.854010 0.598042
O O11 0.154748 0.589635 0.558942
O O12 0.750000 0.460428 0.250000
O O13 0.718110 0.500000 0.000000
#
# Coordination Sequence:
#
# PCOD8261573 Si02
#       6
#     8   8  16  16  16  16
#     4  11  24  42  69  85 140 167 223 260 356 406
#     4  11  27  48  63  99 136 179 214 292 343 402
#     4  10  17  35  62  92 125 165 217 264 328 385
#     4  10  20  38  63  96 121 180 213 273 327 402
#     4  10  21  38  67  95 133 167 229 270 325 397
#     4  12  27  43  71 103 135 177 230 278 341 404
#
# _framework density 21.455674999999999
#
# number of rings (size 3 to 8) (size 9 to 14) (size 15 to 20)
#    0.000    1.400    4.000    3.300    8.400    2.400 
#    0.000    2.000    0.000    0.000    0.000    0.000 
#    0.000    0.000    0.000    0.000    0.000    0.000 
#
# Total GULP energy -495689.550412 kJ/mol
# GULP energy per Si atom -12392.238760 kJ/mol
# Density = 2.140684 g / cm^3
# Si number density = 21.455675 Si / 1000 Ang^3
#
#
#
# Elastic Constant Matrix: (Units=GPa)
#
#
# Indices 1 2 3 4 5 6 
#
# 1 47.2692 5.9035 11.2410 0.0000 0.0000 0.0000
# 2 5.9035 115.5413 24.8673 0.0000 0.0000 0.0000
# 3 11.2410 24.8673 106.3640 0.0000 0.0000 0.0000
# 4 0.0000 0.0000 0.0000 46.9692 0.0000 0.0000
# 5 0.0000 0.0000 0.0000 0.0000 17.5664 0.0000
# 6 0.0000 0.0000 0.0000 0.0000 0.0000 -95.9947
#
#
#
# Elastic Compliance Matrix: (Units=1/GPa)
#
#
# Indices 1 2 3 4 5 6 
#
# 1 0.021747 -0.000649 -0.002147 0.000000 0.000000 0.000000
# 2 -0.000649 0.009133 -0.002067 0.000000 0.000000 0.000000
# 3 -0.002147 -0.002067 0.010112 0.000000 0.000000 0.000000
# 4 0.000000 0.000000 0.000000 0.021291 0.000000 0.000000
# 5 0.000000 0.000000 0.000000 0.000000 0.056927 0.000000
# 6 0.000000 0.000000 0.000000 0.000000 0.000000 -0.010417
#
#
# Mechanical properties :
#
#
# Convention : Reuss Voigt Hill
#
# Bulk Modulus (GPa) = 31.98270 39.24424 35.61347
# Shear Modulus (GPa) = 38.77816 8.85236 23.81526
#
# Velocity S-wave (km/s) = 4.25592 2.03343 3.33524
# Velocity P-wave (km/s) = 6.25214 4.88300 5.60950
#
# Compressibility (1/GPa) = 0.03126690
#
# Stress axis : x y z
#
# Youngs Moduli (GPa) = 45.98346 109.49462 98.89541
#
# Poissons Ratio (x) = 0.07108 0.21228
# Poissons Ratio (y) = 0.02985 0.20438
# Poissons Ratio (z) = 0.09871 0.22628
#
# Static dielectric constant tensor:
#      x y z
#    x 0.309320 0.000000 0.000000 
#    y 0.000000 53.303740 0.000000 
#    z 0.000000 0.000000 6.677210 
# 
# 
# High freq. dielectric constant tensor:
#      x y z
#    x 1.800870 0.000000 0.000000 
#    y 0.000000 1.861170 0.000000 
#    z 0.000000 0.000000 1.860160 
# 
# From -- ./inp_files/7187.got.cif
#   From: 2010.03.12/outbox.cif.g09.slc.cpg/sg64_4_cif.got.tgz:7187.got - 2010.04.10 20:19:32.
