data_PCOD8261020
_publ_section_title
;
Structure prediction by ZEFSAII (Michael W. Deem and Ramdas Pophale) SiO2 
 PCOD8261020
Probable space group: C M C M
;
_chemical_formula_sum "Si O2"
_cell_formula_units_Z 96
_cell_length_a 22.985621
_cell_length_b 9.340262
_cell_length_c 24.090442
_cell_angle_alpha 90.000000
_cell_angle_beta 90.000000
_cell_angle_gamma 90.000000
_cell_volume 5172.018486
_symmetry_space_group_name_H-M "C M C M"
_symmetry_group_IT_number 63
_symmetry_cell_setting 'orthorhombic'
loop_
_space_group_symop_operation_xyz
x,y,z
-x,-y,1/2+z
x,-y,-z
-x,y,1/2-z
-x,-y,-z
x,y,1/2-z
-x,y,z
x,-y,1/2+z
1/2+x,1/2+y,z
1/2-x,1/2-y,1/2+z
1/2+x,1/2-y,-z
1/2-x,1/2+y,1/2-z
1/2-x,1/2-y,-z
1/2+x,1/2+y,1/2-z
1/2-x,1/2+y,z
1/2+x,1/2-y,1/2+z
loop_
_atom_site_type_symbol
_atom_site_label
_atom_site_fract_x
_atom_site_fract_y
_atom_site_fract_z
Si Si1 0.124746 0.750938 0.093080
Si Si2 0.762169 0.628241 0.457214
Si Si3 0.145195 0.087005 0.396515
Si Si4 0.437216 0.333100 0.988444
Si Si5 0.432319 0.071380 0.312509
Si Si6 0.066004 0.754424 0.815617
O O1 0.180526 0.657140 0.078047
O O2 0.099310 0.685579 0.148891
O O3 0.137952 0.917370 0.101963
O O4 0.079340 0.740677 0.042448
O O5 0.768087 0.500000 0.500000
O O6 0.750000 0.750000 0.500000
O O7 0.712809 0.614338 0.409446
O O8 0.110962 0.183460 0.441502
O O9 0.117878 0.144918 0.339060
O O10 0.500000 0.275984 0.967806
O O11 0.441666 0.500000 0.000000
O O12 0.408029 0.090531 0.250000
O O13 0.500000 0.107250 0.313555
O O14 0.421431 0.909401 0.333399
O O15 0.068996 0.768740 0.750000
O O16 0.000000 0.799205 0.835179
#
# Coordination Sequence:
#
# PCOD8261020 Si02
#       6
#    16  16  16  16  16  16
#     4  11  22  35  58  86 115 150 196 243 287 344
#     4  12  23  41  58  82 118 157 195 236 289 347
#     4  11  21  36  56  85 114 151 196 237 290 347
#     4   9  17  30  49  78 114 143 175 226 285 342
#     4   9  20  39  60  85 118 153 190 237 295 352
#     4   9  20  39  61  86 118 155 192 236 295 355
#
# _framework density 18.561418
#
# number of rings (size 3 to 8) (size 9 to 14) (size 15 to 20)
#    0.000    1.833    3.333    2.500    2.333    2.667 
#    0.000    2.500    0.000    4.000    0.000    0.000 
#    0.000    0.000    0.000    0.000    0.000    0.000 
#
# Total GULP energy -594756.949608 kJ/mol
# GULP energy per Si atom -12390.769783 kJ/mol
# Density = 1.851917 g / cm^3
# Si number density = 18.561418 Si / 1000 Ang^3
#
#
#
# Elastic Constant Matrix: (Units=GPa)
#
#
# Indices 1 2 3 4 5 6 
#
# 1 114.0635 44.2863 44.3212 0.0000 0.0000 0.0000
# 2 44.2863 84.5772 39.9945 0.0000 0.0000 0.0000
# 3 44.3212 39.9945 78.6070 0.0000 0.0000 0.0000
# 4 0.0000 0.0000 0.0000 40.0680 0.0000 0.0000
# 5 0.0000 0.0000 0.0000 0.0000 32.7309 0.0000
# 6 0.0000 0.0000 0.0000 0.0000 0.0000 20.5774
#
#
#
# Elastic Compliance Matrix: (Units=1/GPa)
#
#
# Indices 1 2 3 4 5 6 
#
# 1 0.012237 -0.004141 -0.004793 0.000000 0.000000 0.000000
# 2 -0.004141 0.016971 -0.006300 0.000000 0.000000 0.000000
# 3 -0.004793 -0.006300 0.018629 0.000000 0.000000 0.000000
# 4 0.000000 0.000000 0.000000 0.024958 0.000000 0.000000
# 5 0.000000 0.000000 0.000000 0.000000 0.030552 0.000000
# 6 0.000000 0.000000 0.000000 0.000000 0.000000 0.048597
#
#
# Mechanical properties :
#
#
# Convention : Reuss Voigt Hill
#
# Bulk Modulus (GPa) = 57.57098 59.38352 58.47725
# Shear Modulus (GPa) = 26.56732 28.58497 27.57614
#
# Velocity S-wave (km/s) = 3.78738 3.92857 3.85862
# Velocity P-wave (km/s) = 7.08587 7.25539 7.17113
#
# Compressibility (1/GPa) = 0.01736986
#
# Stress axis : x y z
#
# Youngs Moduli (GPa) = 81.71787 58.92431 53.67981
#
# Poissons Ratio (x) = 0.24402 0.25727
# Poissons Ratio (y) = 0.33842 0.33816
# Poissons Ratio (z) = 0.39165 0.37120
#
# Static dielectric constant tensor:
#      x y z
#    x 3.497190 0.000000 0.000000 
#    y 0.000000 3.279030 0.000000 
#    z 0.000000 0.000000 3.346650 
# 
# 
# High freq. dielectric constant tensor:
#      x y z
#    x 1.720200 0.000000 0.000000 
#    y 0.000000 1.716680 0.000000 
#    z 0.000000 0.000000 1.715060 
# 
# From -- ./inp_files/64981.got.cif
#   From: 2010.03.12/outbox.cif.g09.slc.cpg/sg63_33_cif.got.tgz:64981.got - 2010.04.10 19:34:48.
