data_PCOD8261332
_publ_section_title
;
Structure prediction by ZEFSAII (Michael W. Deem and Ramdas Pophale) SiO2 
 PCOD8261332
Probable space group: C M C M
;
_chemical_formula_sum "Si O2"
_cell_formula_units_Z 80
_cell_length_a 27.969460
_cell_length_b 9.699437
_cell_length_c 16.363118
_cell_angle_alpha 90.000000
_cell_angle_beta 90.000000
_cell_angle_gamma 90.000000
_cell_volume 4439.117805
_symmetry_space_group_name_H-M "C M C M"
_symmetry_group_IT_number 63
_symmetry_cell_setting 'orthorhombic'
loop_
_space_group_symop_operation_xyz
x,y,z
-x,-y,1/2+z
x,-y,-z
-x,y,1/2-z
-x,-y,-z
x,y,1/2-z
-x,y,z
x,-y,1/2+z
1/2+x,1/2+y,z
1/2-x,1/2-y,1/2+z
1/2+x,1/2-y,-z
1/2-x,1/2+y,1/2-z
1/2-x,1/2-y,-z
1/2+x,1/2+y,1/2-z
1/2-x,1/2+y,z
1/2+x,1/2-y,1/2+z
loop_
_atom_site_type_symbol
_atom_site_label
_atom_site_fract_x
_atom_site_fract_y
_atom_site_fract_z
Si Si1 0.446811 0.136045 0.152874
Si Si2 0.113840 0.900182 0.575464
Si Si3 0.794869 0.154864 0.987371
Si Si4 0.443966 0.828084 0.158826
Si Si5 0.863694 0.837587 0.343058
O O1 0.449581 0.140898 0.250000
O O2 0.500000 0.173502 0.118100
O O3 0.406957 0.243013 0.121180
O O4 0.431942 0.981321 0.125559
O O5 0.163154 0.820613 0.553819
O O6 0.075399 0.784262 0.595421
O O7 0.098788 0.000000 0.500000
O O8 0.120376 0.002194 0.652657
O O9 0.816261 0.184055 0.897201
O O10 0.750000 0.250000 0.000000
O O11 0.776161 0.000000 0.000000
O O12 0.422052 0.807258 0.250000
O O13 0.500000 0.807431 0.163580
O O14 0.851520 0.797863 0.250000
#
# Coordination Sequence:
#
# PCOD8261332 Si02
#       5
#    16  16  16  16  16
#     4   8  15  28  47  73 102 128 158 198 238 278
#     4   9  19  33  49  70  97 129 160 198 246 293
#     4   9  20  37  52  69  96 127 157 198 252 297
#     4   9  17  30  48  71 100 132 165 200 237 281
#     4   9  17  32  53  75  98 124 161 202 238 286
#
# _framework density 18.021598999999998
#
# number of rings (size 3 to 8) (size 9 to 14) (size 15 to 20)
#    0.000    3.600    0.000    1.800    0.000    2.800 
#    0.000   13.000    0.000   10.200    0.000    0.000 
#    0.000    0.000    0.000    0.000    0.000    0.000 
#
# Total GULP energy -495620.746800 kJ/mol
# GULP energy per Si atom -12390.518670 kJ/mol
# Density = 1.798058 g / cm^3
# Si number density = 18.021599 Si / 1000 Ang^3
#
#
#
# Elastic Constant Matrix: (Units=GPa)
#
#
# Indices 1 2 3 4 5 6 
#
# 1 94.7383 79.7998 48.1575 0.0000 0.0000 0.0000
# 2 79.7998 103.1660 43.1164 0.0000 0.0000 0.0000
# 3 48.1575 43.1164 61.7276 0.0000 0.0000 0.0000
# 4 0.0000 0.0000 0.0000 21.8888 0.0000 0.0000
# 5 0.0000 0.0000 0.0000 0.0000 20.0119 0.0000
# 6 0.0000 0.0000 0.0000 0.0000 0.0000 41.5983
#
#
#
# Elastic Compliance Matrix: (Units=1/GPa)
#
#
# Indices 1 2 3 4 5 6 
#
# 1 0.035719 -0.022572 -0.012100 0.000000 0.000000 0.000000
# 2 -0.022572 0.027953 -0.001916 0.000000 0.000000 0.000000
# 3 -0.012100 -0.001916 0.026978 0.000000 0.000000 0.000000
# 4 0.000000 0.000000 0.000000 0.045686 0.000000 0.000000
# 5 0.000000 0.000000 0.000000 0.000000 0.049970 0.000000
# 6 0.000000 0.000000 0.000000 0.000000 0.000000 0.024039
#
#
# Mechanical properties :
#
#
# Convention : Reuss Voigt Hill
#
# Bulk Modulus (GPa) = 57.22356 66.86439 62.04398
# Shear Modulus (GPa) = 17.28040 22.60367 19.94204
#
# Velocity S-wave (km/s) = 3.09992 3.54539 3.33011
# Velocity P-wave (km/s) = 6.68090 7.34456 7.02058
#
# Compressibility (1/GPa) = 0.01747532
#
# Stress axis : x y z
#
# Youngs Moduli (GPa) = 27.99651 35.77420 37.06692
#
# Poissons Ratio (x) = 0.80749 0.44852
# Poissons Ratio (y) = 0.63193 0.07100
# Poissons Ratio (z) = 0.33876 0.06853
#
# Static dielectric constant tensor:
#      x y z
#    x 3.198520 0.000000 0.000000 
#    y 0.000000 3.507510 0.000000 
#    z 0.000000 0.000000 3.354890 
# 
# 
# High freq. dielectric constant tensor:
#      x y z
#    x 1.677940 0.000000 0.000000 
#    y 0.000000 1.701710 0.000000 
#    z 0.000000 0.000000 1.685180 
# 
# From -- ./inp_files/49426.got.cif
#   From: 2010.03.12/outbox.cif.g09.slc.cpg/sg63_25_cif.got.tgz:49426.got - 2010.04.10 19:34:48.
