data_PCOD8261009
_publ_section_title
;
Structure prediction by ZEFSAII (Michael W. Deem and Ramdas Pophale) SiO2 
 PCOD8261009
Probable space group: C M C M
;
_chemical_formula_sum "Si O2"
_cell_formula_units_Z 64
_cell_length_a 17.277014
_cell_length_b 9.884258
_cell_length_c 19.448997
_cell_angle_alpha 90.000000
_cell_angle_beta 90.000000
_cell_angle_gamma 90.000000
_cell_volume 3321.314239
_symmetry_space_group_name_H-M "C M C M"
_symmetry_group_IT_number 63
_symmetry_cell_setting 'orthorhombic'
loop_
_space_group_symop_operation_xyz
x,y,z
-x,-y,1/2+z
x,-y,-z
-x,y,1/2-z
-x,-y,-z
x,y,1/2-z
-x,y,z
x,-y,1/2+z
1/2+x,1/2+y,z
1/2-x,1/2-y,1/2+z
1/2+x,1/2-y,-z
1/2-x,1/2+y,1/2-z
1/2-x,1/2-y,-z
1/2+x,1/2+y,1/2-z
1/2-x,1/2+y,z
1/2+x,1/2-y,1/2+z
loop_
_atom_site_type_symbol
_atom_site_label
_atom_site_fract_x
_atom_site_fract_y
_atom_site_fract_z
Si Si1 0.410901 0.835838 0.829386
Si Si2 0.590922 0.681331 0.449909
Si Si3 0.349765 0.593141 0.594867
Si Si4 0.826293 0.550753 0.577712
O O1 0.395957 0.868203 0.750000
O O2 0.500000 0.856769 0.849428
O O3 0.386460 0.681375 0.844257
O O4 0.359649 0.933979 0.875014
O O5 0.500000 0.688043 0.463055
O O6 0.611963 0.555265 0.401014
O O7 0.633844 0.664663 0.522215
O O8 0.619459 0.818310 0.414272
O O9 0.258216 0.586228 0.605417
O O10 0.822320 0.500000 0.500000
#
# Coordination Sequence:
#
# PCOD8261009 Si02
#       4
#    16  16  16  16
#     4  11  25  43  61  85 122 164 202 243 301 368
#     4  11  21  34  59  93 120 149 194 249 296 347
#     4  11  21  38  60  88 120 155 193 247 299 354
#     4  12  22  38  63  92 122 155 200 253 303 351
#
# _framework density 19.269480999999999
#
# number of rings (size 3 to 8) (size 9 to 14) (size 15 to 20)
#    0.000    0.750    5.000    6.000    0.000    2.000 
#    0.000    1.250    0.000    4.500    0.000    0.000 
#    0.000    0.000    0.000    0.000    0.000    0.000 
#
# Total GULP energy -397007.526356 kJ/mol
# GULP energy per Si atom -12406.485199 kJ/mol
# Density = 1.922562 g / cm^3
# Si number density = 19.269481 Si / 1000 Ang^3
#
#
#
# Elastic Constant Matrix: (Units=GPa)
#
#
# Indices 1 2 3 4 5 6 
#
# 1 123.4766 12.2630 29.4807 0.0000 0.0000 0.0000
# 2 12.2630 80.0196 12.5394 0.0000 0.0000 0.0000
# 3 29.4807 12.5394 57.4501 0.0000 0.0000 0.0000
# 4 0.0000 0.0000 0.0000 21.9964 0.0000 0.0000
# 5 0.0000 0.0000 0.0000 0.0000 11.9260 0.0000
# 6 0.0000 0.0000 0.0000 0.0000 0.0000 35.2569
#
#
#
# Elastic Compliance Matrix: (Units=1/GPa)
#
#
# Indices 1 2 3 4 5 6 
#
# 1 0.009267 -0.000699 -0.004603 0.000000 0.000000 0.000000
# 2 -0.000699 0.012992 -0.002477 0.000000 0.000000 0.000000
# 3 -0.004603 -0.002477 0.020309 0.000000 0.000000 0.000000
# 4 0.000000 0.000000 0.000000 0.045462 0.000000 0.000000
# 5 0.000000 0.000000 0.000000 0.000000 0.083850 0.000000
# 6 0.000000 0.000000 0.000000 0.000000 0.000000 0.028363
#
#
# Mechanical properties :
#
#
# Convention : Reuss Voigt Hill
#
# Bulk Modulus (GPa) = 37.02256 41.05694 39.03975
# Shear Modulus (GPa) = 22.24148 27.61342 24.92745
#
# Velocity S-wave (km/s) = 3.40109 3.78962 3.60060
# Velocity P-wave (km/s) = 5.88880 6.36406 6.13104
#
# Compressibility (1/GPa) = 0.02701056
#
# Stress axis : x y z
#
# Youngs Moduli (GPa) = 107.90900 76.96911 49.23914
#
# Poissons Ratio (x) = 0.05379 0.22664
# Poissons Ratio (y) = 0.07542 0.12197
# Poissons Ratio (z) = 0.49669 0.19066
#
# Static dielectric constant tensor:
#      x y z
#    x 3.666190 0.000000 0.000000 
#    y 0.000000 3.848550 0.000000 
#    z 0.000000 0.000000 3.811120 
# 
# 
# High freq. dielectric constant tensor:
#      x y z
#    x 1.770700 0.000000 0.000000 
#    y 0.000000 1.768640 0.000000 
#    z 0.000000 0.000000 1.714000 
# 
# From -- ./inp_files/55008.got.cif
#   From: 2010.03.12/outbox.cif.g09.slc.cpg/sg63_28_cif.got.tgz:55008.got - 2010.04.10 19:34:48.
