data_PCOD8261703
_publ_section_title
;
Structure prediction by ZEFSAII (Michael W. Deem and Ramdas Pophale) SiO2 
 PCOD8261703
Probable space group: C M C A
;
_chemical_formula_sum "Si O2"
_cell_formula_units_Z 80
_cell_length_a 17.848734
_cell_length_b 8.804380
_cell_length_c 25.279684
_cell_angle_alpha 90.000000
_cell_angle_beta 90.000000
_cell_angle_gamma 90.000000
_cell_volume 3972.627428
_symmetry_space_group_name_H-M "C M C A"
_symmetry_group_IT_number 64
_symmetry_cell_setting 'orthorhombic'
loop_
_space_group_symop_operation_xyz
x,y,z
-x,1/2-y,1/2+z
x,-y,-z
-x,1/2+y,1/2-z
-x,-y,-z
x,1/2+y,1/2-z
-x,y,z
x,1/2-y,1/2+z
1/2+x,1/2+y,z
1/2-x,-y,1/2+z
1/2+x,1/2-y,-z
1/2-x,y,1/2-z
1/2-x,1/2-y,-z
1/2+x,y,1/2-z
1/2-x,1/2+y,z
1/2+x,-y,1/2+z
loop_
_atom_site_type_symbol
_atom_site_label
_atom_site_fract_x
_atom_site_fract_y
_atom_site_fract_z
Si Si1 0.332166 0.117862 0.774233
Si Si2 0.584351 0.674320 0.298219
Si Si3 0.653727 0.819294 0.905276
Si Si4 0.809478 0.666857 0.891203
Si Si5 0.332285 0.679892 0.007514
O O1 0.250000 0.136661 0.750000
O O2 0.350865 0.941637 0.780921
O O3 0.396675 0.177004 0.735370
O O4 0.339472 0.197337 0.831860
O O5 0.500000 0.619859 0.285948
O O6 0.590271 0.703471 0.361007
O O7 0.722127 0.707492 0.891096
O O8 0.618815 0.763219 0.961640
O O9 0.682617 0.991926 0.908640
O O10 0.856876 0.771435 0.932897
O O11 0.335273 0.500000 0.000000
O O12 0.250000 0.750000 0.000000
#
# Coordination Sequence:
#
# PCOD8261703 Si02
#       5
#    16  16  16  16  16
#     4  11  22  38  61  86 116 153 203 247 289 345
#     4  11  24  39  58  85 122 159 193 242 302 355
#     4  10  19  33  54  81 116 147 189 234 293 340
#     4  10  19  31  54  85 113 145 192 245 286 334
#     4  10  18  30  51  83 117 145 183 239 294 339
#
# _framework density 20.137805
#
# number of rings (size 3 to 8) (size 9 to 14) (size 15 to 20)
#    0.000    1.600    2.000    6.600    2.800    1.600 
#    0.000    0.000    0.000   11.400    0.000    0.000 
#    0.000    0.000    0.000    0.000    0.000    0.000 
#
# Total GULP energy -495733.612513 kJ/mol
# GULP energy per Si atom -12393.340313 kJ/mol
# Density = 2.009197 g / cm^3
# Si number density = 20.137805 Si / 1000 Ang^3
#
#
#
# Elastic Constant Matrix: (Units=GPa)
#
#
# Indices 1 2 3 4 5 6 
#
# 1 63.3789 22.8712 39.8744 0.0000 0.0000 0.0000
# 2 22.8712 108.7302 63.5527 0.0000 0.0000 0.0000
# 3 39.8744 63.5527 156.0707 0.0000 0.0000 0.0000
# 4 0.0000 0.0000 0.0000 34.8689 0.0000 0.0000
# 5 0.0000 0.0000 0.0000 0.0000 17.2772 0.0000
# 6 0.0000 0.0000 0.0000 0.0000 0.0000 14.5145
#
#
#
# Elastic Compliance Matrix: (Units=1/GPa)
#
#
# Indices 1 2 3 4 5 6 
#
# 1 0.018990 -0.001521 -0.004232 0.000000 0.000000 0.000000
# 2 -0.001521 0.012192 -0.004576 0.000000 0.000000 0.000000
# 3 -0.004232 -0.004576 0.009352 0.000000 0.000000 0.000000
# 4 0.000000 0.000000 0.000000 0.028679 0.000000 0.000000
# 5 0.000000 0.000000 0.000000 0.000000 0.057880 0.000000
# 6 0.000000 0.000000 0.000000 0.000000 0.000000 0.068897
#
#
# Mechanical properties :
#
#
# Convention : Reuss Voigt Hill
#
# Bulk Modulus (GPa) = 50.31378 64.53073 57.42225
# Shear Modulus (GPa) = 22.39426 26.79090 24.59258
#
# Velocity S-wave (km/s) = 3.33836 3.65139 3.49838
# Velocity P-wave (km/s) = 6.31653 7.06336 6.70036
#
# Compressibility (1/GPa) = 0.01987527
#
# Stress axis : x y z
#
# Youngs Moduli (GPa) = 52.66023 82.02386 106.92822
#
# Poissons Ratio (x) = 0.12472 0.45257
# Poissons Ratio (y) = 0.08007 0.48930
# Poissons Ratio (z) = 0.22288 0.37534
#
# Static dielectric constant tensor:
#      x y z
#    x 3.018260 0.000000 0.000000 
#    y 0.000000 3.601180 0.000000 
#    z 0.000000 0.000000 4.945870 
# 
# 
# High freq. dielectric constant tensor:
#      x y z
#    x 1.721630 0.000000 0.000000 
#    y 0.000000 1.790440 0.000000 
#    z 0.000000 0.000000 1.819380 
# 
# From -- ./inp_files/50309.got.cif
#   From: 2010.03.12/outbox.cif.g09.slc.cpg/sg64_26_cif.got.tgz:50309.got - 2010.04.10 20:19:32.
