data_PCOD8261123
_publ_section_title
;
Structure prediction by ZEFSAII (Michael W. Deem and Ramdas Pophale) SiO2 
 PCOD8261123
Probable space group: C M C M
;
_chemical_formula_sum "Si O2"
_cell_formula_units_Z 64
_cell_length_a 9.970925
_cell_length_b 17.243229
_cell_length_c 17.882066
_cell_angle_alpha 90.000000
_cell_angle_beta 90.000000
_cell_angle_gamma 90.000000
_cell_volume 3074.480472
_symmetry_space_group_name_H-M "C M C M"
_symmetry_group_IT_number 63
_symmetry_cell_setting 'orthorhombic'
loop_
_space_group_symop_operation_xyz
x,y,z
-x,-y,1/2+z
x,-y,-z
-x,y,1/2-z
-x,-y,-z
x,y,1/2-z
-x,y,z
x,-y,1/2+z
1/2+x,1/2+y,z
1/2-x,1/2-y,1/2+z
1/2+x,1/2-y,-z
1/2-x,1/2+y,1/2-z
1/2-x,1/2-y,-z
1/2+x,1/2+y,1/2-z
1/2-x,1/2+y,z
1/2+x,1/2-y,1/2+z
loop_
_atom_site_type_symbol
_atom_site_label
_atom_site_fract_x
_atom_site_fract_y
_atom_site_fract_z
Si Si1 0.000000 0.999248 0.161448
Si Si2 0.779826 0.117094 0.837160
Si Si3 0.500000 0.326448 0.660205
Si Si4 0.500000 0.934184 0.397008
Si Si5 0.269804 0.770425 0.914327
Si Si6 0.500000 0.890072 0.930805
O O1 0.131865 0.954582 0.132191
O O2 0.000000 0.004273 0.250000
O O3 0.000000 0.085738 0.129347
O O4 0.802493 0.128283 0.750000
O O5 0.626312 0.100344 0.854590
O O6 0.834167 0.194926 0.876098
O O7 0.500000 0.319776 0.750000
O O8 0.369852 0.285542 0.627055
O O9 0.500000 0.903051 0.480919
O O10 0.500000 0.027207 0.389904
O O11 0.367947 0.843662 0.905198
O O12 0.250000 0.750000 0.000000
#
# Coordination Sequence:
#
# PCOD8261123 Si02
#       6
#     8  16   8   8  16   8
#     4   9  21  40  62  91 124 162 212 267 319 381
#     4  11  22  41  66  92 127 171 217 266 325 391
#     4  11  24  44  68  95 129 171 217 265 325 391
#     4  11  22  41  63  94 128 171 218 265 321 395
#     4  12  23  42  63  97 132 172 215 274 322 387
#     4  11  24  41  63  94 135 167 213 271 331 379
#
# _framework density 20.816524999999999
#
# number of rings (size 3 to 8) (size 9 to 14) (size 15 to 20)
#    0.000    1.000    2.500    4.875    0.000    0.000 
#    0.000    6.875    0.000    0.000    0.000    0.000 
#    0.000    0.000    0.000    0.000    0.000    0.000 
#
# Total GULP energy -396923.016396 kJ/mol
# GULP energy per Si atom -12403.844262 kJ/mol
# Density = 2.076915 g / cm^3
# Si number density = 20.816525 Si / 1000 Ang^3
#
#
#
# Elastic Constant Matrix: (Units=GPa)
#
#
# Indices 1 2 3 4 5 6 
#
# 1 104.4832 18.3967 20.2230 0.0000 0.0000 0.0000
# 2 18.3967 125.8345 34.9815 0.0000 0.0000 0.0000
# 3 20.2230 34.9815 91.5782 0.0000 0.0000 0.0000
# 4 0.0000 0.0000 0.0000 33.7988 0.0000 0.0000
# 5 0.0000 0.0000 0.0000 0.0000 18.2911 0.0000
# 6 0.0000 0.0000 0.0000 0.0000 0.0000 41.7285
#
#
#
# Elastic Compliance Matrix: (Units=1/GPa)
#
#
# Indices 1 2 3 4 5 6 
#
# 1 0.010101 -0.000958 -0.001864 0.000000 0.000000 0.000000
# 2 -0.000958 0.008982 -0.003219 0.000000 0.000000 0.000000
# 3 -0.001864 -0.003219 0.012561 0.000000 0.000000 0.000000
# 4 0.000000 0.000000 0.000000 0.029587 0.000000 0.000000
# 5 0.000000 0.000000 0.000000 0.000000 0.054671 0.000000
# 6 0.000000 0.000000 0.000000 0.000000 0.000000 0.023964
#
#
# Mechanical properties :
#
#
# Convention : Reuss Voigt Hill
#
# Bulk Modulus (GPa) = 51.12636 52.12202 51.62419
# Shear Modulus (GPa) = 31.55163 35.31667 33.43415
#
# Velocity S-wave (km/s) = 3.89742 4.12341 4.01201
# Velocity P-wave (km/s) = 6.69828 6.91109 6.80552
#
# Compressibility (1/GPa) = 0.01955938
#
# Stress axis : x y z
#
# Youngs Moduli (GPa) = 99.00478 111.33347 79.61097
#
# Poissons Ratio (x) = 0.10670 0.14843
# Poissons Ratio (y) = 0.09488 0.25630
# Poissons Ratio (z) = 0.18458 0.35842
#
# Static dielectric constant tensor:
#      x y z
#    x 3.883360 0.000000 0.000000 
#    y 0.000000 4.247600 0.000000 
#    z 0.000000 0.000000 3.619140 
# 
# 
# High freq. dielectric constant tensor:
#      x y z
#    x 1.825420 0.000000 0.000000 
#    y 0.000000 1.840110 0.000000 
#    z 0.000000 0.000000 1.805110 
# 
# From -- ./inp_files/50422.got.cif
#   From: 2010.03.12/outbox.cif.g09.slc.cpg/sg63_26_cif.got.tgz:50422.got - 2010.04.10 19:34:48.
