data_PCOD8261092
_publ_section_title
;
Structure prediction by ZEFSAII (Michael W. Deem and Ramdas Pophale) SiO2 
 PCOD8261092
Probable space group: C M C M
;
_chemical_formula_sum "Si O2"
_cell_formula_units_Z 96
_cell_length_a 8.531090
_cell_length_b 25.567733
_cell_length_c 23.164359
_cell_angle_alpha 90.000000
_cell_angle_beta 90.000000
_cell_angle_gamma 90.000000
_cell_volume 5052.624609
_symmetry_space_group_name_H-M "C M C M"
_symmetry_group_IT_number 63
_symmetry_cell_setting 'orthorhombic'
loop_
_space_group_symop_operation_xyz
x,y,z
-x,-y,1/2+z
x,-y,-z
-x,y,1/2-z
-x,-y,-z
x,y,1/2-z
-x,y,z
x,-y,1/2+z
1/2+x,1/2+y,z
1/2-x,1/2-y,1/2+z
1/2+x,1/2-y,-z
1/2-x,1/2+y,1/2-z
1/2-x,1/2-y,-z
1/2+x,1/2+y,1/2-z
1/2-x,1/2+y,z
1/2+x,1/2-y,1/2+z
loop_
_atom_site_type_symbol
_atom_site_label
_atom_site_fract_x
_atom_site_fract_y
_atom_site_fract_z
Si Si1 0.816995 0.402100 0.384165
Si Si2 0.316964 0.908962 0.881876
Si Si3 0.684870 0.802664 0.314589
Si Si4 0.182622 0.939629 0.501748
Si Si5 0.319161 0.494536 0.183653
Si Si6 0.816031 0.693775 0.315704
O O1 0.753322 0.348120 0.356707
O O2 0.716991 0.412384 0.441172
O O3 0.789939 0.447699 0.337840
O O4 0.000000 0.399574 0.399879
O O5 0.500000 0.918488 0.869646
O O6 0.260759 0.853756 0.855945
O O7 0.215726 0.953684 0.852126
O O8 0.282313 0.909329 0.949931
O O9 0.755828 0.810284 0.250000
O O10 0.500000 0.806007 0.311378
O O11 0.735862 0.746489 0.339510
O O12 0.000000 0.935278 0.516542
O O13 0.236624 0.000000 0.500000
O O14 0.279463 0.505667 0.250000
O O15 0.500000 0.479088 0.174194
O O16 0.762467 0.682080 0.250000
O O17 0.000000 0.702008 0.319414
#
# Coordination Sequence:
#
# PCOD8261092 Si02
#       6
#    16  16  16  16  16  16
#     4  11  22  37  59  84 112 147 191 235 280 334
#     4  11  22  37  59  84 112 147 191 235 280 334
#     4   9  19  36  58  85 115 147 184 228 279 334
#     4  11  23  39  58  81 113 150 191 235 282 338
#     4  11  23  36  53  82 117 149 183 227 282 339
#     4   9  19  36  58  85 115 147 184 228 279 334
#
# _framework density 19.000025000000001
#
# number of rings (size 3 to 8) (size 9 to 14) (size 15 to 20)
#    0.000    1.667    1.667    3.000    0.000    6.000 
#    0.000    4.167    0.000    0.000    0.000    0.000 
#    0.000    0.000    0.000    0.000    0.000    0.000 
#
# Total GULP energy -595438.451344 kJ/mol
# GULP energy per Si atom -12404.967736 kJ/mol
# Density = 1.895678 g / cm^3
# Si number density = 19.000025 Si / 1000 Ang^3
#
#
#
# Elastic Constant Matrix: (Units=GPa)
#
#
# Indices 1 2 3 4 5 6 
#
# 1 28.0685 20.6097 22.0024 0.0000 0.0000 0.0000
# 2 20.6097 147.3949 59.7469 0.0000 0.0000 0.0000
# 3 22.0024 59.7469 95.8161 0.0000 0.0000 0.0000
# 4 0.0000 0.0000 0.0000 26.2892 0.0000 0.0000
# 5 0.0000 0.0000 0.0000 0.0000 28.8074 0.0000
# 6 0.0000 0.0000 0.0000 0.0000 0.0000 31.3486
#
#
#
# Elastic Compliance Matrix: (Units=1/GPa)
#
#
# Indices 1 2 3 4 5 6 
#
# 1 0.044277 -0.002770 -0.008440 0.000000 0.000000 0.000000
# 2 -0.002770 0.009253 -0.005134 0.000000 0.000000 0.000000
# 3 -0.008440 -0.005134 0.015576 0.000000 0.000000 0.000000
# 4 0.000000 0.000000 0.000000 0.038038 0.000000 0.000000
# 5 0.000000 0.000000 0.000000 0.000000 0.034713 0.000000
# 6 0.000000 0.000000 0.000000 0.000000 0.000000 0.031899
#
#
# Mechanical properties :
#
#
# Convention : Reuss Voigt Hill
#
# Bulk Modulus (GPa) = 27.45870 52.88860 40.17365
# Shear Modulus (GPa) = 22.87458 28.55042 25.71250
#
# Velocity S-wave (km/s) = 3.47352 3.88061 3.68270
# Velocity P-wave (km/s) = 5.52906 6.92642 6.26681
#
# Compressibility (1/GPa) = 0.03641834
#
# Stress axis : x y z
#
# Youngs Moduli (GPa) = 22.58510 108.07670 64.20187
#
# Poissons Ratio (x) = 0.29935 0.54188
# Poissons Ratio (y) = 0.06256 0.32958
# Poissons Ratio (z) = 0.19062 0.55482
#
# Static dielectric constant tensor:
#      x y z
#    x 3.395860 0.000000 0.000000 
#    y 0.000000 3.605490 0.000000 
#    z 0.000000 0.000000 3.599150 
# 
# 
# High freq. dielectric constant tensor:
#      x y z
#    x 1.738660 0.000000 0.000000 
#    y 0.000000 1.738500 0.000000 
#    z 0.000000 0.000000 1.737930 
# 
# From -- ./inp_files/51406.got.cif
#   From: 2010.03.12/outbox.cif.g09.slc.cpg/sg63_26_cif.got.tgz:51406.got - 2010.04.10 19:34:48.
