data_PCOD8261733
_publ_section_title
;
Structure prediction by ZEFSAII (Michael W. Deem and Ramdas Pophale) SiO2 
 PCOD8261733
Probable space group: C M C A
;
_chemical_formula_sum "Si O2"
_cell_formula_units_Z 80
_cell_length_a 7.711759
_cell_length_b 28.767710
_cell_length_c 20.042895
_cell_angle_alpha 90.000000
_cell_angle_beta 90.000000
_cell_angle_gamma 90.000000
_cell_volume 4446.509171
_symmetry_space_group_name_H-M "C M C A"
_symmetry_group_IT_number 64
_symmetry_cell_setting 'orthorhombic'
loop_
_space_group_symop_operation_xyz
x,y,z
-x,1/2-y,1/2+z
x,-y,-z
-x,1/2+y,1/2-z
-x,-y,-z
x,1/2+y,1/2-z
-x,y,z
x,1/2-y,1/2+z
1/2+x,1/2+y,z
1/2-x,-y,1/2+z
1/2+x,1/2-y,-z
1/2-x,y,1/2-z
1/2-x,1/2-y,-z
1/2+x,y,1/2-z
1/2-x,1/2+y,z
1/2+x,-y,1/2+z
loop_
_atom_site_type_symbol
_atom_site_label
_atom_site_fract_x
_atom_site_fract_y
_atom_site_fract_z
Si Si1 0.500000 0.559679 0.066438
Si Si2 0.807109 0.607015 0.897313
Si Si3 0.797062 0.270734 0.929310
Si Si4 0.500000 0.042555 0.589956
Si Si5 0.298817 0.373474 0.550300
Si Si6 0.296243 0.303043 0.174898
O O1 0.500000 0.512010 0.108991
O O2 0.324759 0.588017 0.084238
O O3 0.500000 0.547847 0.988957
O O4 0.671296 0.566475 0.879278
O O5 0.793120 0.648645 0.844604
O O6 0.000000 0.585477 0.892768
O O7 0.771257 0.627383 0.970706
O O8 0.731007 0.323715 0.922865
O O9 0.718475 0.238452 0.870915
O O10 0.000000 0.272278 0.921619
O O11 0.750000 0.250000 0.000000
O O12 0.500000 0.383877 0.568551
O O13 0.500000 0.308630 0.163726
O O14 0.250000 0.289998 0.250000
#
# Coordination Sequence:
#
# PCOD8261733 Si02
#       6
#     8  16  16   8  16  16
#     4   9  18  30  50  73 104 138 168 218 267 310
#     4  10  18  31  51  73 104 140 172 214 268 321
#     4  10  20  31  51  76 105 144 181 222 266 324
#     4   9  18  32  48  73 104 136 172 210 264 325
#     4   9  18  31  48  76 107 137 176 218 264 318
#     4  11  22  35  50  75 113 145 179 225 269 323
#
# _framework density 17.991643
#
# number of rings (size 3 to 8) (size 9 to 14) (size 15 to 20)
#    0.000    2.200    3.000    0.600    1.400    1.600 
#    0.000    4.000    0.000    0.000    0.000    1.400 
#    0.000    0.000    0.000    0.000    0.000    0.000 
#
# Total GULP energy -495929.173066 kJ/mol
# GULP energy per Si atom -12398.229327 kJ/mol
# Density = 1.795069 g / cm^3
# Si number density = 17.991643 Si / 1000 Ang^3
#
#
#
# Elastic Constant Matrix: (Units=GPa)
#
#
# Indices 1 2 3 4 5 6 
#
# 1 100.8755 64.2660 19.4100 0.0000 0.0000 0.0000
# 2 64.2660 165.9500 45.4213 0.0000 0.0000 0.0000
# 3 19.4100 45.4213 70.5472 0.0000 0.0000 0.0000
# 4 0.0000 0.0000 0.0000 15.3329 0.0000 0.0000
# 5 0.0000 0.0000 0.0000 0.0000 15.6764 0.0000
# 6 0.0000 0.0000 0.0000 0.0000 0.0000 25.0226
#
#
#
# Elastic Compliance Matrix: (Units=1/GPa)
#
#
# Indices 1 2 3 4 5 6 
#
# 1 0.013170 -0.004987 -0.000412 0.000000 0.000000 0.000000
# 2 -0.004987 0.009204 -0.004554 0.000000 0.000000 0.000000
# 3 -0.000412 -0.004554 0.017220 0.000000 0.000000 0.000000
# 4 0.000000 0.000000 0.000000 0.065219 0.000000 0.000000
# 5 0.000000 0.000000 0.000000 0.000000 0.063790 0.000000
# 6 0.000000 0.000000 0.000000 0.000000 0.000000 0.039964
#
#
# Mechanical properties :
#
#
# Convention : Reuss Voigt Hill
#
# Bulk Modulus (GPa) = 50.79462 66.17414 58.48438
# Shear Modulus (GPa) = 21.27337 25.09142 23.18239
#
# Velocity S-wave (km/s) = 3.44234 3.73851 3.59347
# Velocity P-wave (km/s) = 6.64027 7.44953 7.05651
#
# Compressibility (1/GPa) = 0.01968713
#
# Stress axis : x y z
#
# Youngs Moduli (GPa) = 75.93073 108.65292 58.07157
#
# Poissons Ratio (x) = 0.54189 0.02395
# Poissons Ratio (y) = 0.37869 0.26443
# Poissons Ratio (z) = 0.03132 0.49475
#
# Static dielectric constant tensor:
#      x y z
#    x 3.548480 0.000000 0.000000 
#    y 0.000000 3.604490 0.000000 
#    z 0.000000 0.000000 3.020770 
# 
# 
# High freq. dielectric constant tensor:
#      x y z
#    x 1.709560 0.000000 0.000000 
#    y 0.000000 1.694890 0.000000 
#    z 0.000000 0.000000 1.642960 
# 
# From -- ./inp_files/29860.got.cif
#   From: 2010.03.12/outbox.cif.g09.slc.cpg/sg64_15_cif.got.tgz:29860.got - 2010.04.10 20:19:32.
