data_PCOD8261290
_publ_section_title
;
Structure prediction by ZEFSAII (Michael W. Deem and Ramdas Pophale) SiO2 
 PCOD8261290
Probable space group: C M C M
;
_chemical_formula_sum "Si O2"
_cell_formula_units_Z 80
_cell_length_a 9.528244
_cell_length_b 27.456251
_cell_length_c 19.059069
_cell_angle_alpha 90.000000
_cell_angle_beta 90.000000
_cell_angle_gamma 90.000000
_cell_volume 4986.040351
_symmetry_space_group_name_H-M "C M C M"
_symmetry_group_IT_number 63
_symmetry_cell_setting 'orthorhombic'
loop_
_space_group_symop_operation_xyz
x,y,z
-x,-y,1/2+z
x,-y,-z
-x,y,1/2-z
-x,-y,-z
x,y,1/2-z
-x,y,z
x,-y,1/2+z
1/2+x,1/2+y,z
1/2-x,1/2-y,1/2+z
1/2+x,1/2-y,-z
1/2-x,1/2+y,1/2-z
1/2-x,1/2-y,-z
1/2+x,1/2+y,1/2-z
1/2-x,1/2+y,z
1/2+x,1/2-y,1/2+z
loop_
_atom_site_type_symbol
_atom_site_label
_atom_site_fract_x
_atom_site_fract_y
_atom_site_fract_z
Si Si1 0.334517 0.294727 0.530419
Si Si2 0.845586 0.102961 0.530652
Si Si3 0.842399 0.477764 0.077517
Si Si4 0.155910 0.059722 0.377516
Si Si5 0.833532 0.838990 0.826804
O O1 0.500000 0.283401 0.529448
O O2 0.250000 0.250000 0.500000
O O3 0.298558 0.341416 0.482380
O O4 0.279565 0.304323 0.610373
O O5 0.733090 0.075088 0.579139
O O6 0.856820 0.074891 0.457889
O O7 0.000000 0.101800 0.566469
O O8 0.759371 0.513750 0.130128
O O9 0.000000 0.470864 0.105961
O O10 0.844857 0.500000 0.000000
O O11 0.221163 0.105422 0.334782
O O12 0.000000 0.045342 0.349932
O O13 0.787262 0.818761 0.750000
O O14 0.000000 0.842060 0.834268
#
# Coordination Sequence:
#
# PCOD8261290 Si02
#       5
#    16  16  16  16  16
#     4   9  17  28  43  63  86 112 142 181 225 262
#     4   8  14  24  36  52  76 105 135 164 198 241
#     4   9  15  21  32  53  79 104 128 155 189 230
#     4   8  13  22  37  55  76 103 131 160 195 236
#     4   8  14  26  44  64  84 109 144 178 207 252
#
# _framework density 16.044795000000001
#
# number of rings (size 3 to 8) (size 9 to 14) (size 15 to 20)
#    0.000    3.600    0.000    3.000    0.000    3.200 
#    0.000    3.000    0.000    2.400    0.000    1.400 
#    0.000    1.600    0.000    0.000    0.000    0.000 
#
# Total GULP energy -495580.038307 kJ/mol
# GULP energy per Si atom -12389.500958 kJ/mol
# Density = 1.600828 g / cm^3
# Si number density = 16.044795 Si / 1000 Ang^3
#
#
#
# Elastic Constant Matrix: (Units=GPa)
#
#
# Indices 1 2 3 4 5 6 
#
# 1 85.0595 63.3580 26.9561 0.0000 0.0000 0.0000
# 2 63.3580 123.0562 45.0144 0.0000 0.0000 0.0000
# 3 26.9561 45.0144 57.7959 0.0000 0.0000 0.0000
# 4 0.0000 0.0000 0.0000 13.4941 0.0000 0.0000
# 5 0.0000 0.0000 0.0000 0.0000 7.5207 0.0000
# 6 0.0000 0.0000 0.0000 0.0000 0.0000 27.3171
#
#
#
# Elastic Compliance Matrix: (Units=1/GPa)
#
#
# Indices 1 2 3 4 5 6 
#
# 1 0.019197 -0.009242 -0.001755 0.000000 0.000000 0.000000
# 2 -0.009242 0.015813 -0.008006 0.000000 0.000000 0.000000
# 3 -0.001755 -0.008006 0.024356 0.000000 0.000000 0.000000
# 4 0.000000 0.000000 0.000000 0.074106 0.000000 0.000000
# 5 0.000000 0.000000 0.000000 0.000000 0.132966 0.000000
# 6 0.000000 0.000000 0.000000 0.000000 0.000000 0.036607
#
#
# Mechanical properties :
#
#
# Convention : Reuss Voigt Hill
#
# Bulk Modulus (GPa) = 46.81574 59.61872 53.21723
# Shear Modulus (GPa) = 14.36078 18.37195 16.36636
#
# Velocity S-wave (km/s) = 2.99497 3.38752 3.19727
# Velocity P-wave (km/s) = 6.41882 7.24836 6.84617
#
# Compressibility (1/GPa) = 0.02136034
#
# Stress axis : x y z
#
# Youngs Moduli (GPa) = 52.09272 63.23863 41.05704
#
# Poissons Ratio (x) = 0.58442 0.07207
# Poissons Ratio (y) = 0.48142 0.32869
# Poissons Ratio (z) = 0.09145 0.50628
#
# Static dielectric constant tensor:
#      x y z
#    x 3.116150 0.000000 0.000000 
#    y 0.000000 3.025660 0.000000 
#    z 0.000000 0.000000 2.787300 
# 
# 
# High freq. dielectric constant tensor:
#      x y z
#    x 1.600110 0.000000 0.000000 
#    y 0.000000 1.605400 0.000000 
#    z 0.000000 0.000000 1.566210 
# 
# From -- ./inp_files/40695.got.cif
#   From: 2010.03.12/outbox.cif.g09.slc.cpg/sg63_21_cif.got.tgz:40695.got - 2010.04.10 19:34:48.
