data_PCOD8261859
_publ_section_title
;
Structure prediction by ZEFSAII (Michael W. Deem and Ramdas Pophale) SiO2 
 PCOD8261859
Probable space group: C M C A
;
_chemical_formula_sum "Si O2"
_cell_formula_units_Z 96
_cell_length_a 22.386666
_cell_length_b 28.432022
_cell_length_c 7.821077
_cell_angle_alpha 90.000000
_cell_angle_beta 90.000000
_cell_angle_gamma 90.000000
_cell_volume 4978.101278
_symmetry_space_group_name_H-M "C M C A"
_symmetry_group_IT_number 64
_symmetry_cell_setting 'orthorhombic'
loop_
_space_group_symop_operation_xyz
x,y,z
-x,1/2-y,1/2+z
x,-y,-z
-x,1/2+y,1/2-z
-x,-y,-z
x,1/2+y,1/2-z
-x,y,z
x,1/2-y,1/2+z
1/2+x,1/2+y,z
1/2-x,-y,1/2+z
1/2+x,1/2-y,-z
1/2-x,y,1/2-z
1/2-x,1/2-y,-z
1/2+x,y,1/2-z
1/2-x,1/2+y,z
1/2+x,-y,1/2+z
loop_
_atom_site_type_symbol
_atom_site_label
_atom_site_fract_x
_atom_site_fract_y
_atom_site_fract_z
Si Si1 0.879266 0.396206 0.153571
Si Si2 0.431383 0.604716 0.306190
Si Si3 0.570136 0.802954 0.281510
Si Si4 0.768549 0.951100 0.435922
Si Si5 0.431227 0.797618 0.677221
Si Si6 0.637192 0.945388 0.507765
O O1 0.889270 0.340988 0.184482
O O2 0.813955 0.407171 0.072964
O O3 0.889340 0.423205 0.332419
O O4 0.924383 0.412490 0.002505
O O5 0.500000 0.601442 0.249562
O O6 0.407461 0.658739 0.290079
O O7 0.394265 0.573305 0.176264
O O8 0.500000 0.809303 0.231102
O O9 0.597721 0.752329 0.228467
O O10 0.579851 0.810450 0.481504
O O11 0.750000 0.966871 0.250000
O O12 0.708130 0.935469 0.534444
O O13 0.798484 0.000000 0.500000
O O14 0.500000 0.790148 0.720722
O O15 0.623463 0.000000 0.500000
#
# Coordination Sequence:
#
# PCOD8261859 Si02
#       6
#    16  16  16  16  16  16
#     4  11  22  35  60  89 117 149 194 252 294 342
#     4  11  23  37  58  89 122 158 195 232 295 361
#     4  10  18  33  56  83 119 155 194 244 293 346
#     4   9  21  38  62  87 107 147 203 252 288 341
#     4   9  18  33  55  83 116 158 202 239 281 345
#     4  10  23  42  61  84 116 156 198 247 295 345
#
# _framework density 19.284459999999999
#
# number of rings (size 3 to 8) (size 9 to 14) (size 15 to 20)
#    0.000    2.000    1.667    1.500    7.000    3.667 
#    0.000    0.833    0.000    1.000    4.333    0.000 
#    0.000    0.000    0.000    0.000    0.000    0.000 
#
# Total GULP energy -594826.534622 kJ/mol
# GULP energy per Si atom -12392.219471 kJ/mol
# Density = 1.924057 g / cm^3
# Si number density = 19.284460 Si / 1000 Ang^3
#
#
#
# Elastic Constant Matrix: (Units=GPa)
#
#
# Indices 1 2 3 4 5 6 
#
# 1 50.1658 38.2875 18.2725 0.0000 0.0000 0.0000
# 2 38.2875 105.9717 38.0892 0.0000 0.0000 0.0000
# 3 18.2725 38.0892 76.0815 0.0000 0.0000 0.0000
# 4 0.0000 0.0000 0.0000 32.3108 0.0000 0.0000
# 5 0.0000 0.0000 0.0000 0.0000 26.5842 0.0000
# 6 0.0000 0.0000 0.0000 0.0000 0.0000 23.3331
#
#
#
# Elastic Compliance Matrix: (Units=1/GPa)
#
#
# Indices 1 2 3 4 5 6 
#
# 1 0.027773 -0.009313 -0.002008 0.000000 0.000000 0.000000
# 2 -0.009313 0.014630 -0.005088 0.000000 0.000000 0.000000
# 3 -0.002008 -0.005088 0.016173 0.000000 0.000000 0.000000
# 4 0.000000 0.000000 0.000000 0.030949 0.000000 0.000000
# 5 0.000000 0.000000 0.000000 0.000000 0.037616 0.000000
# 6 0.000000 0.000000 0.000000 0.000000 0.000000 0.042857
#
#
# Mechanical properties :
#
#
# Convention : Reuss Voigt Hill
#
# Bulk Modulus (GPa) = 38.82083 46.83526 42.82804
# Shear Modulus (GPa) = 23.65167 25.61695 24.63431
#
# Velocity S-wave (km/s) = 3.50589 3.64864 3.57798
# Velocity P-wave (km/s) = 6.04671 6.48763 6.27104
#
# Compressibility (1/GPa) = 0.02575937
#
# Stress axis : x y z
#
# Youngs Moduli (GPa) = 36.00642 68.35401 61.83114
#
# Poissons Ratio (x) = 0.63655 0.12416
# Poissons Ratio (y) = 0.33531 0.31457
# Poissons Ratio (z) = 0.07230 0.34776
#
# Static dielectric constant tensor:
#      x y z
#    x 3.717410 0.000000 0.000000 
#    y 0.000000 3.662940 0.000000 
#    z 0.000000 0.000000 3.732270 
# 
# 
# High freq. dielectric constant tensor:
#      x y z
#    x 1.708440 0.000000 0.000000 
#    y 0.000000 1.753780 0.000000 
#    z 0.000000 0.000000 1.770960 
# 
# From -- ./inp_files/8423.got.cif
#   From: 2010.03.12/outbox.cif.g09.slc.cpg/sg64_5_cif.got.tgz:8423.got - 2010.04.10 20:19:32.
