data_PCOD8261194
_publ_section_title
;
Structure prediction by ZEFSAII (Michael W. Deem and Ramdas Pophale) SiO2 
 PCOD8261194
Probable space group: C M C M
;
_chemical_formula_sum "Si O2"
_cell_formula_units_Z 96
_cell_length_a 11.737101
_cell_length_b 24.932460
_cell_length_c 17.573647
_cell_angle_alpha 90.000000
_cell_angle_beta 90.000000
_cell_angle_gamma 90.000000
_cell_volume 5142.660696
_symmetry_space_group_name_H-M "C M C M"
_symmetry_group_IT_number 63
_symmetry_cell_setting 'orthorhombic'
loop_
_space_group_symop_operation_xyz
x,y,z
-x,-y,1/2+z
x,-y,-z
-x,y,1/2-z
-x,-y,-z
x,y,1/2-z
-x,y,z
x,-y,1/2+z
1/2+x,1/2+y,z
1/2-x,1/2-y,1/2+z
1/2+x,1/2-y,-z
1/2-x,1/2+y,1/2-z
1/2-x,1/2-y,-z
1/2+x,1/2+y,1/2-z
1/2-x,1/2+y,z
1/2+x,1/2-y,1/2+z
loop_
_atom_site_type_symbol
_atom_site_label
_atom_site_fract_x
_atom_site_fract_y
_atom_site_fract_z
Si Si1 0.630616 0.502473 0.338162
Si Si2 0.000000 0.478638 0.085650
Si Si3 0.500000 0.911455 0.661203
Si Si4 0.866194 0.197825 0.164179
Si Si5 0.630472 0.819569 0.339076
Si Si6 0.727296 0.916209 0.080483
Si Si7 0.760429 0.397482 0.595909
O O1 0.644304 0.488563 0.250000
O O2 0.500000 0.515173 0.359642
O O3 0.669034 0.450020 0.384685
O O4 0.706070 0.554621 0.355456
O O5 0.000000 0.525230 0.147671
O O6 0.889700 0.444330 0.102902
O O7 0.000000 0.500000 0.000000
O O8 0.500000 0.898014 0.750000
O O9 0.389382 0.885962 0.621585
O O10 0.825863 0.184503 0.250000
O O11 0.833345 0.258582 0.142883
O O12 0.806622 0.157814 0.105791
O O13 0.000000 0.189506 0.157683
O O14 0.641427 0.831720 0.250000
O O15 0.500000 0.829394 0.365628
O O16 0.719506 0.856547 0.384873
O O17 0.745121 0.914904 0.990960
#
# Coordination Sequence:
#
# PCOD8261194 Si02
#       7
#    16   8   8  16  16  16  16
#     4  11  24  40  58  83 114 151 193 234 280 342
#     4  12  20  38  54  84 120 154 180 231 291 330
#     4  12  24  36  56  86 116 154 198 229 279 349
#     4   9  19  38  61  84 110 144 193 243 281 328
#     4   9  19  36  61  87 109 145 193 238 282 334
#     4  12  22  36  60  84 120 150 186 234 290 343
#     4  12  23  36  58  85 117 153 184 239 289 339
#
# _framework density 18.667380000000001
#
# number of rings (size 3 to 8) (size 9 to 14) (size 15 to 20)
#    0.000    1.167    4.167    4.000    0.000    4.667 
#    0.000    0.000    1.833    0.000    0.000    0.000 
#    0.000    0.000    0.000    0.000    0.000    0.000 
#
# Total GULP energy -595385.661940 kJ/mol
# GULP energy per Si atom -12403.867957 kJ/mol
# Density = 1.862489 g / cm^3
# Si number density = 18.667380 Si / 1000 Ang^3
#
#
#
# Elastic Constant Matrix: (Units=GPa)
#
#
# Indices 1 2 3 4 5 6 
#
# 1 78.8551 34.7566 28.4318 0.0000 0.0000 0.0000
# 2 34.7566 94.9405 23.1155 0.0000 0.0000 0.0000
# 3 28.4318 23.1155 81.5488 0.0000 0.0000 0.0000
# 4 0.0000 0.0000 0.0000 25.0708 0.0000 0.0000
# 5 0.0000 0.0000 0.0000 0.0000 73.9141 0.0000
# 6 0.0000 0.0000 0.0000 0.0000 0.0000 31.2743
#
#
#
# Elastic Compliance Matrix: (Units=1/GPa)
#
#
# Indices 1 2 3 4 5 6 
#
# 1 0.016426 -0.004961 -0.004321 0.000000 0.000000 0.000000
# 2 -0.004961 0.012812 -0.001902 0.000000 0.000000 0.000000
# 3 -0.004321 -0.001902 0.014308 0.000000 0.000000 0.000000
# 4 0.000000 0.000000 0.000000 0.039887 0.000000 0.000000
# 5 0.000000 0.000000 0.000000 0.000000 0.013529 0.000000
# 6 0.000000 0.000000 0.000000 0.000000 0.000000 0.031975
#
#
# Mechanical properties :
#
#
# Convention : Reuss Voigt Hill
#
# Bulk Modulus (GPa) = 47.21751 47.55025 47.38388
# Shear Modulus (GPa) = 31.57254 37.32119 34.44686
#
# Velocity S-wave (km/s) = 4.11703 4.47617 4.30035
# Velocity P-wave (km/s) = 6.92452 7.22790 7.07783
#
# Compressibility (1/GPa) = 0.02117858
#
# Stress axis : x y z
#
# Youngs Moduli (GPa) = 60.87850 78.04991 69.89059
#
# Poissons Ratio (x) = 0.38724 0.30197
# Poissons Ratio (y) = 0.30205 0.13293
# Poissons Ratio (z) = 0.26303 0.14845
#
# Static dielectric constant tensor:
#      x y z
#    x 3.182430 0.000000 0.000000 
#    y 0.000000 3.481970 0.000000 
#    z 0.000000 0.000000 3.351690 
# 
# 
# High freq. dielectric constant tensor:
#      x y z
#    x 1.718710 0.000000 0.000000 
#    y 0.000000 1.726410 0.000000 
#    z 0.000000 0.000000 1.724800 
# 
# From -- ./inp_files/42568.got.cif
#   From: 2010.03.12/outbox.cif.g09.slc.cpg/sg63_22_cif.got.tgz:42568.got - 2010.04.10 19:34:48.
