data_PCOD8261856
_publ_section_title
;
Structure prediction by ZEFSAII (Michael W. Deem and Ramdas Pophale) SiO2 
 PCOD8261856
Probable space group: C M C A
;
_chemical_formula_sum "Si O2"
_cell_formula_units_Z 96
_cell_length_a 8.862232
_cell_length_b 20.710636
_cell_length_c 28.407103
_cell_angle_alpha 90.000000
_cell_angle_beta 90.000000
_cell_angle_gamma 90.000000
_cell_volume 5213.909597
_symmetry_space_group_name_H-M "C M C A"
_symmetry_group_IT_number 64
_symmetry_cell_setting 'orthorhombic'
loop_
_space_group_symop_operation_xyz
x,y,z
-x,1/2-y,1/2+z
x,-y,-z
-x,1/2+y,1/2-z
-x,-y,-z
x,1/2+y,1/2-z
-x,y,z
x,1/2-y,1/2+z
1/2+x,1/2+y,z
1/2-x,-y,1/2+z
1/2+x,1/2-y,-z
1/2-x,y,1/2-z
1/2-x,1/2-y,-z
1/2+x,y,1/2-z
1/2-x,1/2+y,z
1/2+x,-y,1/2+z
loop_
_atom_site_type_symbol
_atom_site_label
_atom_site_fract_x
_atom_site_fract_y
_atom_site_fract_z
Si Si1 0.321097 0.126100 0.049760
Si Si2 0.177763 0.299072 0.798300
Si Si3 0.320780 0.999500 0.104539
Si Si4 0.323103 0.948436 0.797733
Si Si5 0.679110 0.259072 0.891977
Si Si6 0.821020 0.870550 0.442616
O O1 0.500000 0.136756 0.054744
O O2 0.270399 0.057154 0.070189
O O3 0.237399 0.180935 0.078503
O O4 0.263901 0.129426 0.996212
O O5 0.250000 0.273356 0.750000
O O6 0.220337 0.373901 0.805922
O O7 0.249982 0.258099 0.840217
O O8 0.000000 0.287927 0.797142
O O9 0.500000 0.996888 0.106057
O O10 0.259889 0.011759 0.157529
O O11 0.253123 0.932576 0.084768
O O12 0.500000 0.956725 0.792418
O O13 0.250000 0.975824 0.750000
O O14 0.500000 0.261949 0.888098
O O15 0.735773 0.194041 0.917356
O O16 0.000000 0.875103 0.442349
#
# Coordination Sequence:
#
# PCOD8261856 Si02
#       6
#    16  16  16  16  16  16
#     4  10  18  33  56  78  99 135 184 226 260 301
#     4  10  19  34  55  81 104 133 174 217 261 306
#     4   9  16  31  53  78 102 130 174 223 262 304
#     4   9  17  30  51  77 100 125 163 211 257 301
#     4  11  21  33  50  78 111 143 172 210 262 314
#     4   9  19  32  51  77 106 138 176 219 263 311
#
# _framework density 18.412286000000002
#
# number of rings (size 3 to 8) (size 9 to 14) (size 15 to 20)
#    0.000    2.333    1.667    2.000    0.000    2.667 
#    0.000    1.667    0.000    9.000    0.000    0.000 
#    0.000    0.000    0.000    0.000    0.000    0.000 
#
# Total GULP energy -595228.705142 kJ/mol
# GULP energy per Si atom -12400.598024 kJ/mol
# Density = 1.837038 g / cm^3
# Si number density = 18.412286 Si / 1000 Ang^3
#
#
#
# Elastic Constant Matrix: (Units=GPa)
#
#
# Indices 1 2 3 4 5 6 
#
# 1 36.8356 23.6433 32.1438 0.0000 0.0000 0.0000
# 2 23.6433 95.6149 54.6301 0.0000 0.0000 0.0000
# 3 32.1438 54.6301 172.1435 0.0000 0.0000 0.0000
# 4 0.0000 0.0000 0.0000 13.3496 0.0000 0.0000
# 5 0.0000 0.0000 0.0000 0.0000 29.1239 0.0000
# 6 0.0000 0.0000 0.0000 0.0000 0.0000 13.4416
#
#
#
# Elastic Compliance Matrix: (Units=1/GPa)
#
#
# Indices 1 2 3 4 5 6 
#
# 1 0.035057 -0.006020 -0.004636 0.000000 0.000000 0.000000
# 2 -0.006020 0.013809 -0.003258 0.000000 0.000000 0.000000
# 3 -0.004636 -0.003258 0.007709 0.000000 0.000000 0.000000
# 4 0.000000 0.000000 0.000000 0.074909 0.000000 0.000000
# 5 0.000000 0.000000 0.000000 0.000000 0.034336 0.000000
# 6 0.000000 0.000000 0.000000 0.000000 0.000000 0.074396
#
#
# Mechanical properties :
#
#
# Convention : Reuss Voigt Hill
#
# Bulk Modulus (GPa) = 34.78668 58.38093 46.58381
# Shear Modulus (GPa) = 18.00990 24.12813 21.06901
#
# Velocity S-wave (km/s) = 3.13092 3.62392 3.38641
# Velocity P-wave (km/s) = 5.65725 7.02046 6.37539
#
# Compressibility (1/GPa) = 0.02874663
#
# Stress axis : x y z
#
# Youngs Moduli (GPa) = 28.52509 72.41746 129.72436
#
# Poissons Ratio (x) = 0.43597 0.60134
# Poissons Ratio (y) = 0.17173 0.42266
# Poissons Ratio (z) = 0.13223 0.23595
#
# Static dielectric constant tensor:
#      x y z
#    x 3.066880 0.000000 0.000000 
#    y 0.000000 3.454060 0.000000 
#    z 0.000000 0.000000 3.786540 
# 
# 
# High freq. dielectric constant tensor:
#      x y z
#    x 1.681070 0.000000 0.000000 
#    y 0.000000 1.701120 0.000000 
#    z 0.000000 0.000000 1.735500 
# 
# From -- ./inp_files/48079.got.cif
#   From: 2010.03.12/outbox.cif.g09.slc.cpg/sg64_25_cif.got.tgz:48079.got - 2010.04.10 20:19:32.
