data_PCOD8261163
_publ_section_title
;
Structure prediction by ZEFSAII (Michael W. Deem and Ramdas Pophale) SiO2 
 PCOD8261163
Probable space group: C M C M
;
_chemical_formula_sum "Si O2"
_cell_formula_units_Z 96
_cell_length_a 9.849529
_cell_length_b 22.192554
_cell_length_c 22.675452
_cell_angle_alpha 90.000000
_cell_angle_beta 90.000000
_cell_angle_gamma 90.000000
_cell_volume 4956.540981
_symmetry_space_group_name_H-M "C M C M"
_symmetry_group_IT_number 63
_symmetry_cell_setting 'orthorhombic'
loop_
_space_group_symop_operation_xyz
x,y,z
-x,-y,1/2+z
x,-y,-z
-x,y,1/2-z
-x,-y,-z
x,y,1/2-z
-x,y,z
x,-y,1/2+z
1/2+x,1/2+y,z
1/2-x,1/2-y,1/2+z
1/2+x,1/2-y,-z
1/2-x,1/2+y,1/2-z
1/2-x,1/2-y,-z
1/2+x,1/2+y,1/2-z
1/2-x,1/2+y,z
1/2+x,1/2-y,1/2+z
loop_
_atom_site_type_symbol
_atom_site_label
_atom_site_fract_x
_atom_site_fract_y
_atom_site_fract_z
Si Si1 0.658384 0.252372 0.318352
Si Si2 0.730854 0.364115 0.111885
Si Si3 0.500000 0.067648 0.432591
Si Si4 0.650356 0.694603 0.495483
Si Si5 0.500000 0.570745 0.682283
Si Si6 0.000000 0.928676 0.816654
Si Si7 0.753385 0.133488 0.120382
Si Si8 0.000000 0.575518 0.931355
O O1 0.693870 0.259259 0.250000
O O2 0.500000 0.266252 0.330976
O O3 0.748820 0.299850 0.355146
O O4 0.693507 0.185295 0.338140
O O5 0.634642 0.406062 0.150577
O O6 0.873018 0.397396 0.103645
O O7 0.667767 0.353293 0.047682
O O8 0.367502 0.090354 0.399255
O O9 0.500000 0.093672 0.499487
O O10 0.500000 0.996105 0.428649
O O11 0.500000 0.722343 0.498024
O O12 0.750000 0.750000 0.500000
O O13 0.670036 0.660247 0.435166
O O14 0.500000 0.593732 0.750000
O O15 0.500000 0.499790 0.678350
O O16 0.862608 0.905342 0.845285
O O17 0.000000 0.905952 0.750000
#
# Coordination Sequence:
#
# PCOD8261163 Si02
#       8
#    16  16   8  16   8   8  16   8
#     4  11  23  40  66  94 125 169 220 271 322 388
#     4  12  23  42  67  97 131 168 217 268 329 393
#     4  11  24  43  65  95 134 182 215 257 325 400
#     4  12  25  39  64  99 135 175 213 266 337 404
#     4  11  24  46  71  91 126 179 228 269 319 392
#     4  11  26  46  67  95 130 173 222 279 329 376
#     4  12  23  43  67  96 134 169 220 269 331 395
#     4  11  26  41  63  99 138 172 213 267 329 388
#
# _framework density 19.368347
#
# number of rings (size 3 to 8) (size 9 to 14) (size 15 to 20)
#    0.000    0.500    6.667    2.000    2.333    0.667 
#    0.000    3.333    0.000    5.000    0.000    0.000 
#    0.000    0.000    0.000    0.000    0.000    0.000 
#
# Total GULP energy -595431.846033 kJ/mol
# GULP energy per Si atom -12404.830126 kJ/mol
# Density = 1.932426 g / cm^3
# Si number density = 19.368347 Si / 1000 Ang^3
#
#
#
# Elastic Constant Matrix: (Units=GPa)
#
#
# Indices 1 2 3 4 5 6 
#
# 1 167.5937 57.2273 65.2802 0.0000 0.0000 0.0000
# 2 57.2273 85.2690 37.5629 0.0000 0.0000 0.0000
# 3 65.2802 37.5629 110.6577 0.0000 0.0000 0.0000
# 4 0.0000 0.0000 0.0000 34.0171 0.0000 0.0000
# 5 0.0000 0.0000 0.0000 0.0000 6.2967 0.0000
# 6 0.0000 0.0000 0.0000 0.0000 0.0000 70.9194
#
#
#
# Elastic Compliance Matrix: (Units=1/GPa)
#
#
# Indices 1 2 3 4 5 6 
#
# 1 0.008919 -0.004313 -0.003797 0.000000 0.000000 0.000000
# 2 -0.004313 0.015875 -0.002845 0.000000 0.000000 0.000000
# 3 -0.003797 -0.002845 0.012243 0.000000 0.000000 0.000000
# 4 0.000000 0.000000 0.000000 0.029397 0.000000 0.000000
# 5 0.000000 0.000000 0.000000 0.000000 0.158813 0.000000
# 6 0.000000 0.000000 0.000000 0.000000 0.000000 0.014101
#
#
# Mechanical properties :
#
#
# Convention : Reuss Voigt Hill
#
# Bulk Modulus (GPa) = 66.10733 75.96235 71.03484
# Shear Modulus (GPa) = 18.77594 35.80999 27.29297
#
# Velocity S-wave (km/s) = 3.11692 4.30454 3.75794
# Velocity P-wave (km/s) = 6.86726 8.00065 7.45552
#
# Compressibility (1/GPa) = 0.01512692
#
# Stress axis : x y z
#
# Youngs Moduli (GPa) = 112.12514 62.99137 81.68164
#
# Poissons Ratio (x) = 0.27167 0.31017
# Poissons Ratio (y) = 0.48357 0.23235
# Poissons Ratio (z) = 0.42578 0.17919
#
# Static dielectric constant tensor:
#      x y z
#    x 3.615760 0.000000 0.000000 
#    y 0.000000 3.655220 0.000000 
#    z 0.000000 0.000000 3.688920 
# 
# 
# High freq. dielectric constant tensor:
#      x y z
#    x 1.760630 0.000000 0.000000 
#    y 0.000000 1.763360 0.000000 
#    z 0.000000 0.000000 1.770910 
# 
# From -- ./inp_files/60130.got.cif
#   From: 2010.03.12/outbox.cif.g09.slc.cpg/sg63_31_cif.got.tgz:60130.got - 2010.04.10 19:34:48.
