data_PCOD8261159
_publ_section_title
;
Structure prediction by ZEFSAII (Michael W. Deem and Ramdas Pophale) SiO2 
 PCOD8261159
Probable space group: C M C M
;
_chemical_formula_sum "Si O2"
_cell_formula_units_Z 48
_cell_length_a 12.393691
_cell_length_b 15.640470
_cell_length_c 12.267123
_cell_angle_alpha 90.000000
_cell_angle_beta 90.000000
_cell_angle_gamma 90.000000
_cell_volume 2377.897792
_symmetry_space_group_name_H-M "C M C M"
_symmetry_group_IT_number 63
_symmetry_cell_setting 'orthorhombic'
loop_
_space_group_symop_operation_xyz
x,y,z
-x,-y,1/2+z
x,-y,-z
-x,y,1/2-z
-x,-y,-z
x,y,1/2-z
-x,y,z
x,-y,1/2+z
1/2+x,1/2+y,z
1/2-x,1/2-y,1/2+z
1/2+x,1/2-y,-z
1/2-x,1/2+y,1/2-z
1/2-x,1/2-y,-z
1/2+x,1/2+y,1/2-z
1/2-x,1/2+y,z
1/2+x,1/2-y,1/2+z
loop_
_atom_site_type_symbol
_atom_site_label
_atom_site_fract_x
_atom_site_fract_y
_atom_site_fract_z
Si Si1 0.677861 0.760547 0.250000
Si Si2 0.324312 0.099296 0.250000
Si Si3 0.812661 0.931273 0.250000
Si Si4 0.000000 0.866020 0.366141
Si Si5 0.000000 0.746760 0.927463
Si Si6 0.500000 0.916089 0.930610
O O1 0.775529 0.694103 0.250000
O O2 0.720610 0.858009 0.250000
O O3 0.607324 0.742623 0.356828
O O4 0.393550 0.089097 0.358391
O O5 0.234754 0.025739 0.250000
O O6 0.889845 0.922494 0.357932
O O7 0.000000 0.815117 0.476527
O O8 0.000000 0.809682 0.250000
O O9 0.000000 0.654643 0.978070
O O10 0.500000 0.000000 0.000000
#
# Coordination Sequence:
#
# PCOD8261159 Si02
#       6
#     8   8   8   8   8   8
#     4  11  24  39  62  92 126 165 204 255 304 370
#     4  11  24  41  64  94 122 159 216 247 308 374
#     4   9  20  41  62  88 126 159 200 257 312 356
#     4   8  21  39  63  83 118 164 200 252 309 355
#     4  11  23  40  61  91 126 160 210 251 307 365
#     4  11  24  39  62  92 125 163 203 261 305 366
#
# _framework density 20.185896
#
# number of rings (size 3 to 8) (size 9 to 14) (size 15 to 20)
#    1.000    0.667    0.000    4.000    2.333   13.333 
#    0.000    1.667    0.000    0.000    0.000    0.000 
#    0.000    0.000    0.000    0.000    0.000    0.000 
#
# Total GULP energy -297420.555256 kJ/mol
# GULP energy per Si atom -12392.523136 kJ/mol
# Density = 2.013995 g / cm^3
# Si number density = 20.185896 Si / 1000 Ang^3
#
#
#
# Elastic Constant Matrix: (Units=GPa)
#
#
# Indices 1 2 3 4 5 6 
#
# 1 105.9804 24.4005 43.2427 0.0000 0.0000 0.0000
# 2 24.4005 89.0969 34.6654 0.0000 0.0000 0.0000
# 3 43.2427 34.6654 132.0670 0.0000 0.0000 0.0000
# 4 0.0000 0.0000 0.0000 33.8043 0.0000 0.0000
# 5 0.0000 0.0000 0.0000 0.0000 12.2138 0.0000
# 6 0.0000 0.0000 0.0000 0.0000 0.0000 26.8296
#
#
#
# Elastic Compliance Matrix: (Units=1/GPa)
#
#
# Indices 1 2 3 4 5 6 
#
# 1 0.011149 -0.001819 -0.003173 0.000000 0.000000 0.000000
# 2 -0.001819 0.012797 -0.002763 0.000000 0.000000 0.000000
# 3 -0.003173 -0.002763 0.009336 0.000000 0.000000 0.000000
# 4 0.000000 0.000000 0.000000 0.029582 0.000000 0.000000
# 5 0.000000 0.000000 0.000000 0.000000 0.081875 0.000000
# 6 0.000000 0.000000 0.000000 0.000000 0.000000 0.037272
#
#
# Mechanical properties :
#
#
# Convention : Reuss Voigt Hill
#
# Bulk Modulus (GPa) = 56.26945 59.08459 57.67702
# Shear Modulus (GPa) = 24.57648 29.55856 27.06752
#
# Velocity S-wave (km/s) = 3.49307 3.83079 3.66582
# Velocity P-wave (km/s) = 6.64867 6.99288 6.82295
#
# Compressibility (1/GPa) = 0.01777163
#
# Stress axis : x y z
#
# Youngs Moduli (GPa) = 89.69259 78.14308 107.10905
#
# Poissons Ratio (x) = 0.14212 0.33988
# Poissons Ratio (y) = 0.16313 0.29599
# Poissons Ratio (z) = 0.28461 0.21595
#
# Static dielectric constant tensor:
#      x y z
#    x 3.888990 0.000000 0.000000 
#    y 0.000000 3.951120 0.000000 
#    z 0.000000 0.000000 3.688180 
# 
# 
# High freq. dielectric constant tensor:
#      x y z
#    x 1.807210 0.000000 0.000000 
#    y 0.000000 1.782260 0.000000 
#    z 0.000000 0.000000 1.789770 
# 
# From -- ./inp_files/18573.got.cif
#   From: 2010.03.12/outbox.cif.g09.slc.cpg/sg63_10_cif.got.tgz:18573.got - 2010.04.10 19:34:48.
