data_PCOD8261199
_publ_section_title
;
Structure prediction by ZEFSAII (Michael W. Deem and Ramdas Pophale) SiO2 
 PCOD8261199
Probable space group: C M C M
;
_chemical_formula_sum "Si O2"
_cell_formula_units_Z 56
_cell_length_a 33.668092
_cell_length_b 4.998164
_cell_length_c 14.436898
_cell_angle_alpha 90.000000
_cell_angle_beta 90.000000
_cell_angle_gamma 90.000000
_cell_volume 2429.421639
_symmetry_space_group_name_H-M "C M C M"
_symmetry_group_IT_number 63
_symmetry_cell_setting 'orthorhombic'
loop_
_space_group_symop_operation_xyz
x,y,z
-x,-y,1/2+z
x,-y,-z
-x,y,1/2-z
-x,-y,-z
x,y,1/2-z
-x,y,z
x,-y,1/2+z
1/2+x,1/2+y,z
1/2-x,1/2-y,1/2+z
1/2+x,1/2-y,-z
1/2-x,1/2+y,1/2-z
1/2-x,1/2-y,-z
1/2+x,1/2+y,1/2-z
1/2-x,1/2+y,z
1/2+x,1/2-y,1/2+z
loop_
_atom_site_type_symbol
_atom_site_label
_atom_site_fract_x
_atom_site_fract_y
_atom_site_fract_z
Si Si1 0.324268 0.761937 0.061641
Si Si2 0.593095 0.119541 0.647849
Si Si3 0.723672 0.313825 0.750000
Si Si4 0.544409 0.606699 0.897065
O O1 0.369918 0.830001 0.081080
O O2 0.301967 0.732198 0.158416
O O3 0.320866 0.500000 0.000000
O O4 0.305233 0.000000 0.000000
O O5 0.607555 0.027848 0.750000
O O6 0.568469 0.391885 0.662662
O O7 0.565780 0.892141 0.603301
O O8 0.738691 0.617773 0.750000
O O9 0.500000 0.641813 0.856455
O O10 0.542684 0.500000 0.000000
#
# Coordination Sequence:
#
# PCOD8261199 Si02
#       4
#    16  16   8  16
#     4  12  26  47  76 106 144 190 234 283 351 416
#     4  12  24  42  67  98 137 181 239 293 342 411
#     4  12  28  50  76 112 149 178 231 288 344 426
#     4  11  24  41  63  94 135 183 237 294 351 410
#
# _framework density 23.050753
#
# number of rings (size 3 to 8) (size 9 to 14) (size 15 to 20)
#    0.000    0.286    1.429    8.571    0.000    9.143 
#    0.000    0.000    0.000    0.000    0.000    0.000 
#    0.000    0.000    0.000    0.000    0.000    0.000 
#
# Total GULP energy -347325.603968 kJ/mol
# GULP energy per Si atom -12404.485856 kJ/mol
# Density = 2.299829 g / cm^3
# Si number density = 23.050753 Si / 1000 Ang^3
#
#
#
# Elastic Constant Matrix: (Units=GPa)
#
#
# Indices 1 2 3 4 5 6 
#
# 1 105.8845 44.3536 47.8170 0.0000 0.0000 0.0000
# 2 44.3536 138.8385 44.3662 0.0000 0.0000 0.0000
# 3 47.8170 44.3662 162.2906 0.0000 0.0000 0.0000
# 4 0.0000 0.0000 0.0000 34.4349 0.0000 0.0000
# 5 0.0000 0.0000 0.0000 0.0000 79.1446 0.0000
# 6 0.0000 0.0000 0.0000 0.0000 0.0000 6.8175
#
#
#
# Elastic Compliance Matrix: (Units=1/GPa)
#
#
# Indices 1 2 3 4 5 6 
#
# 1 0.011894 -0.002936 -0.002702 0.000000 0.000000 0.000000
# 2 -0.002936 0.008617 -0.001490 0.000000 0.000000 0.000000
# 3 -0.002702 -0.001490 0.007365 0.000000 0.000000 0.000000
# 4 0.000000 0.000000 0.000000 0.029040 0.000000 0.000000
# 5 0.000000 0.000000 0.000000 0.000000 0.012635 0.000000
# 6 0.000000 0.000000 0.000000 0.000000 0.000000 0.146682
#
#
# Mechanical properties :
#
#
# Convention : Reuss Voigt Hill
#
# Bulk Modulus (GPa) = 73.42549 75.56525 74.49537
# Shear Modulus (GPa) = 21.27375 42.11118 31.69247
#
# Velocity S-wave (km/s) = 3.04124 4.27885 3.71199
# Velocity P-wave (km/s) = 6.65245 7.56734 7.12460
#
# Compressibility (1/GPa) = 0.01361925
#
# Stress axis : x y z
#
# Youngs Moduli (GPa) = 84.07312 116.04989 135.77188
#
# Poissons Ratio (x) = 0.34077 0.36683
# Poissons Ratio (y) = 0.24688 0.20237
# Poissons Ratio (z) = 0.22715 0.17297
#
# Static dielectric constant tensor:
#      x y z
#    x 4.259560 0.000000 0.000000 
#    y 0.000000 4.353210 0.000000 
#    z 0.000000 0.000000 6.100110 
# 
# 
# High freq. dielectric constant tensor:
#      x y z
#    x 1.907240 0.000000 0.000000 
#    y 0.000000 1.923540 0.000000 
#    z 0.000000 0.000000 1.936960 
# 
# From -- ./inp_files/38192.got.cif
#   From: 2010.03.12/outbox.cif.g09.slc.cpg/sg63_20_cif.got.tgz:38192.got - 2010.04.10 19:34:48.
