data_PCOD8261043
_publ_section_title
;
Structure prediction by ZEFSAII (Michael W. Deem and Ramdas Pophale) SiO2 
 PCOD8261043
Probable space group: C M C M
;
_chemical_formula_sum "Si O2"
_cell_formula_units_Z 112
_cell_length_a 19.710414
_cell_length_b 12.213754
_cell_length_c 23.902236
_cell_angle_alpha 90.000000
_cell_angle_beta 90.000000
_cell_angle_gamma 90.000000
_cell_volume 5754.180024
_symmetry_space_group_name_H-M "C M C M"
_symmetry_group_IT_number 63
_symmetry_cell_setting 'orthorhombic'
loop_
_space_group_symop_operation_xyz
x,y,z
-x,-y,1/2+z
x,-y,-z
-x,y,1/2-z
-x,-y,-z
x,y,1/2-z
-x,y,z
x,-y,1/2+z
1/2+x,1/2+y,z
1/2-x,1/2-y,1/2+z
1/2+x,1/2-y,-z
1/2-x,1/2+y,1/2-z
1/2-x,1/2-y,-z
1/2+x,1/2+y,1/2-z
1/2-x,1/2+y,z
1/2+x,1/2-y,1/2+z
loop_
_atom_site_type_symbol
_atom_site_label
_atom_site_fract_x
_atom_site_fract_y
_atom_site_fract_z
Si Si1 0.648787 0.851005 0.381251
Si Si2 0.305293 0.080927 0.115613
Si Si3 0.339154 0.507755 0.856600
Si Si4 0.777476 0.219438 0.686050
Si Si5 0.923315 0.097485 0.543270
Si Si6 0.424448 0.686306 0.187307
Si Si7 0.326060 0.791095 0.994086
O O1 0.713072 0.790649 0.354036
O O2 0.584625 0.787448 0.355738
O O3 0.649747 0.843251 0.448061
O O4 0.647371 0.979284 0.365408
O O5 0.227678 0.038074 0.112288
O O6 0.317730 0.175847 0.161495
O O7 0.328487 0.118389 0.054306
O O8 0.321753 0.609165 0.815993
O O9 0.394452 0.549862 0.899712
O O10 0.370957 0.410878 0.820522
O O11 0.756240 0.242576 0.750000
O O12 0.876174 0.193414 0.520893
O O13 0.000000 0.141235 0.552785
O O14 0.923410 0.000000 0.500000
O O15 0.415301 0.732172 0.250000
O O16 0.500000 0.639762 0.177697
O O17 0.250000 0.750000 0.000000
#
# Coordination Sequence:
#
# PCOD8261043 Si02
#       7
#    16  16  16  16  16  16  16
#     4  11  23  37  60  86 124 158 198 249 301 368
#     4  11  22  38  61  94 121 162 195 253 312 367
#     4  11  21  39  61  90 124 159 199 258 314 372
#     4  11  22  37  60  92 122 154 201 257 314 364
#     4  11  23  37  60  92 128 164 202 254 315 377
#     4  11  23  40  62  87 118 161 211 253 298 362
#     4  12  20  39  60  91 125 160 205 251 307 373
#
# _framework density 19.464110999999999
#
# number of rings (size 3 to 8) (size 9 to 14) (size 15 to 20)
#    0.000    0.857    4.286    4.286    0.000    4.571 
#    0.000    0.714    0.000    1.714    0.000    0.000 
#    0.000    0.000    0.000    0.000    0.000    0.000 
#
# Total GULP energy -694462.242558 kJ/mol
# GULP energy per Si atom -12401.111474 kJ/mol
# Density = 1.941981 g / cm^3
# Si number density = 19.464111 Si / 1000 Ang^3
#
#
#
# Elastic Constant Matrix: (Units=GPa)
#
#
# Indices 1 2 3 4 5 6 
#
# 1 90.0464 39.4222 24.8932 0.0000 0.0000 0.0000
# 2 39.4222 136.0346 44.6878 0.0000 0.0000 0.0000
# 3 24.8932 44.6878 123.0931 0.0000 0.0000 0.0000
# 4 0.0000 0.0000 0.0000 27.9593 0.0000 0.0000
# 5 0.0000 0.0000 0.0000 0.0000 26.8858 0.0000
# 6 0.0000 0.0000 0.0000 0.0000 0.0000 27.3668
#
#
#
# Elastic Compliance Matrix: (Units=1/GPa)
#
#
# Indices 1 2 3 4 5 6 
#
# 1 0.012936 -0.003281 -0.001425 0.000000 0.000000 0.000000
# 2 -0.003281 0.009178 -0.002669 0.000000 0.000000 0.000000
# 3 -0.001425 -0.002669 0.009381 0.000000 0.000000 0.000000
# 4 0.000000 0.000000 0.000000 0.035766 0.000000 0.000000
# 5 0.000000 0.000000 0.000000 0.000000 0.037194 0.000000
# 6 0.000000 0.000000 0.000000 0.000000 0.000000 0.036541
#
#
# Mechanical properties :
#
#
# Convention : Reuss Voigt Hill
#
# Bulk Modulus (GPa) = 59.71423 63.02006 61.36715
# Shear Modulus (GPa) = 30.99296 32.45376 31.72336
#
# Velocity S-wave (km/s) = 3.99471 4.08777 4.04151
# Velocity P-wave (km/s) = 7.21268 7.39781 7.30583
#
# Compressibility (1/GPa) = 0.01674643
#
# Stress axis : x y z
#
# Youngs Moduli (GPa) = 77.30640 108.95102 106.59888
#
# Poissons Ratio (x) = 0.35742 0.15190
# Poissons Ratio (y) = 0.25361 0.28448
# Poissons Ratio (z) = 0.11016 0.29076
#
# Static dielectric constant tensor:
#      x y z
#    x 3.591430 0.000000 0.000000 
#    y 0.000000 3.764490 0.000000 
#    z 0.000000 0.000000 3.671540 
# 
# 
# High freq. dielectric constant tensor:
#      x y z
#    x 1.734560 0.000000 0.000000 
#    y 0.000000 1.769510 0.000000 
#    z 0.000000 0.000000 1.765750 
# 
# From -- ./inp_files/64612.got.cif
#   From: 2010.03.12/outbox.cif.g09.slc.cpg/sg63_33_cif.got.tgz:64612.got - 2010.04.10 19:34:48.
