data_PCOD8261230
_publ_section_title
;
Structure prediction by ZEFSAII (Michael W. Deem and Ramdas Pophale) SiO2 
 PCOD8261230
Probable space group: C M C M
;
_chemical_formula_sum "Si O2"
_cell_formula_units_Z 64
_cell_length_a 20.174623
_cell_length_b 9.243983
_cell_length_c 16.012912
_cell_angle_alpha 90.000000
_cell_angle_beta 90.000000
_cell_angle_gamma 90.000000
_cell_volume 2986.309962
_symmetry_space_group_name_H-M "C M C M"
_symmetry_group_IT_number 63
_symmetry_cell_setting 'orthorhombic'
loop_
_space_group_symop_operation_xyz
x,y,z
-x,-y,1/2+z
x,-y,-z
-x,y,1/2-z
-x,-y,-z
x,y,1/2-z
-x,y,z
x,-y,1/2+z
1/2+x,1/2+y,z
1/2-x,1/2-y,1/2+z
1/2+x,1/2-y,-z
1/2-x,1/2+y,1/2-z
1/2-x,1/2-y,-z
1/2+x,1/2+y,1/2-z
1/2-x,1/2+y,z
1/2+x,1/2-y,1/2+z
loop_
_atom_site_type_symbol
_atom_site_label
_atom_site_fract_x
_atom_site_fract_y
_atom_site_fract_z
Si Si1 0.372690 0.758524 0.341955
Si Si2 0.882328 0.583251 0.349423
Si Si3 0.000000 0.891830 0.612026
Si Si4 0.000000 0.223350 0.576229
Si Si5 0.753916 0.127692 0.435867
O O1 0.345346 0.792603 0.250000
O O2 0.437709 0.663061 0.336918
O O3 0.320489 0.653275 0.384993
O O4 0.388330 0.916644 0.382201
O O5 0.894853 0.598474 0.250000
O O6 0.935025 0.684336 0.397937
O O7 0.807854 0.629338 0.372489
O O8 0.000000 0.814317 0.521599
O O9 0.000000 0.065693 0.618315
O O10 0.750000 0.250000 0.500000
O O11 0.760439 0.000000 0.500000
#
# Coordination Sequence:
#
# PCOD8261230 Si02
#       5
#    16  16   8   8  16
#     4  11  25  45  69  99 136 178 223 278 338 401
#     4  11  25  46  69  98 136 180 224 274 338 405
#     4  11  26  43  68 102 137 170 224 279 331 394
#     4  11  26  43  70 100 134 177 223 274 335 396
#     4  12  25  44  69  98 133 176 225 278 334 398
#
# _framework density 21.43113
#
# number of rings (size 3 to 8) (size 9 to 14) (size 15 to 20)
#    0.000    0.750    2.500    3.750    7.000    5.000 
#    0.000    0.000    0.000    0.000    0.000    0.000 
#    0.000    0.000    0.000    0.000    0.000    0.000 
#
# Total GULP energy -396450.858244 kJ/mol
# GULP energy per Si atom -12389.089320 kJ/mol
# Density = 2.138235 g / cm^3
# Si number density = 21.431130 Si / 1000 Ang^3
#
#
#
# Elastic Constant Matrix: (Units=GPa)
#
#
# Indices 1 2 3 4 5 6 
#
# 1 162.1527 61.5596 31.5872 0.0000 0.0000 0.0000
# 2 61.5596 146.8704 36.4744 0.0000 0.0000 0.0000
# 3 31.5872 36.4744 72.9003 0.0000 0.0000 0.0000
# 4 0.0000 0.0000 0.0000 27.7146 0.0000 0.0000
# 5 0.0000 0.0000 0.0000 0.0000 37.0155 0.0000
# 6 0.0000 0.0000 0.0000 0.0000 0.0000 42.9438
#
#
#
# Elastic Compliance Matrix: (Units=1/GPa)
#
#
# Indices 1 2 3 4 5 6 
#
# 1 0.007565 -0.002691 -0.001931 0.000000 0.000000 0.000000
# 2 -0.002691 0.008732 -0.003203 0.000000 0.000000 0.000000
# 3 -0.001931 -0.003203 0.016157 0.000000 0.000000 0.000000
# 4 0.000000 0.000000 0.000000 0.036082 0.000000 0.000000
# 5 0.000000 0.000000 0.000000 0.000000 0.027016 0.000000
# 6 0.000000 0.000000 0.000000 0.000000 0.000000 0.023286
#
#
# Mechanical properties :
#
#
# Convention : Reuss Voigt Hill
#
# Bulk Modulus (GPa) = 59.51339 71.24065 65.37702
# Shear Modulus (GPa) = 35.69146 38.35494 37.02320
#
# Velocity S-wave (km/s) = 4.08536 4.23505 4.16088
# Velocity P-wave (km/s) = 7.07697 7.56492 7.32501
#
# Compressibility (1/GPa) = 0.01680294
#
# Stress axis : x y z
#
# Youngs Moduli (GPa) = 132.18915 114.51974 61.89373
#
# Poissons Ratio (x) = 0.30819 0.11954
# Poissons Ratio (y) = 0.35574 0.19824
# Poissons Ratio (z) = 0.25530 0.36680
#
# Static dielectric constant tensor:
#      x y z
#    x 3.897610 0.000000 0.000000 
#    y 0.000000 4.002920 0.000000 
#    z 0.000000 0.000000 3.952530 
# 
# 
# High freq. dielectric constant tensor:
#      x y z
#    x 1.849880 0.000000 0.000000 
#    y 0.000000 1.862060 0.000000 
#    z 0.000000 0.000000 1.852050 
# 
# From -- ./inp_files/46540.got.cif
#   From: 2010.03.12/outbox.cif.g09.slc.cpg/sg63_24_cif.got.tgz:46540.got - 2010.04.10 19:34:48.
