data_PCOD8261694
_publ_section_title
;
Structure prediction by ZEFSAII (Michael W. Deem and Ramdas Pophale) SiO2 
 PCOD8261694
Probable space group: C M C A
;
_chemical_formula_sum "Si O2"
_cell_formula_units_Z 112
_cell_length_a 9.071365
_cell_length_b 28.333177
_cell_length_c 24.283501
_cell_angle_alpha 90.000000
_cell_angle_beta 90.000000
_cell_angle_gamma 90.000000
_cell_volume 6241.359759
_symmetry_space_group_name_H-M "C M C A"
_symmetry_group_IT_number 64
_symmetry_cell_setting 'orthorhombic'
loop_
_space_group_symop_operation_xyz
x,y,z
-x,1/2-y,1/2+z
x,-y,-z
-x,1/2+y,1/2-z
-x,-y,-z
x,1/2+y,1/2-z
-x,y,z
x,1/2-y,1/2+z
1/2+x,1/2+y,z
1/2-x,-y,1/2+z
1/2+x,1/2-y,-z
1/2-x,y,1/2-z
1/2-x,1/2-y,-z
1/2+x,y,1/2-z
1/2-x,1/2+y,z
1/2+x,-y,1/2+z
loop_
_atom_site_type_symbol
_atom_site_label
_atom_site_fract_x
_atom_site_fract_y
_atom_site_fract_z
Si Si1 0.169013 0.579577 0.194763
Si Si2 0.825809 0.359444 0.307076
Si Si3 0.824934 0.333889 0.875639
Si Si4 0.330276 0.481053 0.591141
Si Si5 0.674933 0.413629 0.405639
Si Si6 0.674629 0.606975 0.474248
Si Si7 0.827054 0.751743 0.193873
O O1 0.250000 0.565662 0.250000
O O2 0.233798 0.627513 0.168054
O O3 0.191718 0.536133 0.153452
O O4 0.000000 0.587331 0.209478
O O5 0.750000 0.374784 0.250000
O O6 0.761787 0.390625 0.355770
O O7 0.785381 0.305264 0.321148
O O8 0.000000 0.367208 0.301767
O O9 0.766580 0.348884 0.936855
O O10 0.770963 0.282034 0.856192
O O11 0.000000 0.335539 0.876631
O O12 0.500000 0.486200 0.575309
O O13 0.262316 0.533315 0.586262
O O14 0.258974 0.442748 0.549001
O O15 0.500000 0.412264 0.393441
O O16 0.715615 0.385468 0.461891
O O17 0.500000 0.603553 0.466599
O O18 0.750000 0.735448 0.250000
O O19 0.000000 0.745910 0.203440
#
# Coordination Sequence:
#
# PCOD8261694 Si02
#       7
#    16  16  16  16  16  16  16
#     4   9  16  26  41  63  92 119 145 183 228 273
#     4  10  21  36  51  68  92 120 153 193 232 272
#     4   8  14  26  45  69  93 117 147 184 227 272
#     4   8  15  27  44  68  94 121 156 194 226 261
#     4  10  18  30  51  73  92 120 157 193 228 266
#     4   8  14  26  47  73  96 119 153 192 224 267
#     4   9  17  30  49  69  90 119 153 189 229 273
#
# _framework density 17.944807999999998
#
# number of rings (size 3 to 8) (size 9 to 14) (size 15 to 20)
#    0.000    3.143    0.000    3.000    0.000    2.857 
#    0.000    2.857    0.000    6.000    0.000    0.000 
#    0.000    0.000    0.000    0.000    0.000    0.000 
#
# Total GULP energy -693914.783336 kJ/mol
# GULP energy per Si atom -12391.335417 kJ/mol
# Density = 1.790396 g / cm^3
# Si number density = 17.944808 Si / 1000 Ang^3
#
#
#
# Elastic Constant Matrix: (Units=GPa)
#
#
# Indices 1 2 3 4 5 6 
#
# 1 31.7246 18.6234 34.7246 0.0000 0.0000 0.0000
# 2 18.6234 84.9241 59.8653 0.0000 0.0000 0.0000
# 3 34.7246 59.8653 133.7351 0.0000 0.0000 0.0000
# 4 0.0000 0.0000 0.0000 23.4225 0.0000 0.0000
# 5 0.0000 0.0000 0.0000 0.0000 23.5770 0.0000
# 6 0.0000 0.0000 0.0000 0.0000 0.0000 13.1144
#
#
#
# Elastic Compliance Matrix: (Units=1/GPa)
#
#
# Indices 1 2 3 4 5 6 
#
# 1 0.044355 -0.002350 -0.010465 0.000000 0.000000 0.000000
# 2 -0.002350 0.017328 -0.007147 0.000000 0.000000 0.000000
# 3 -0.010465 -0.007147 0.013394 0.000000 0.000000 0.000000
# 4 0.000000 0.000000 0.000000 0.042694 0.000000 0.000000
# 5 0.000000 0.000000 0.000000 0.000000 0.042414 0.000000
# 6 0.000000 0.000000 0.000000 0.000000 0.000000 0.076252
#
#
# Mechanical properties :
#
#
# Convention : Reuss Voigt Hill
#
# Bulk Modulus (GPa) = 28.44586 52.97892 40.71239
# Shear Modulus (GPa) = 17.35632 21.16750 19.26191
#
# Velocity S-wave (km/s) = 3.11337 3.43824 3.27983
# Velocity P-wave (km/s) = 5.36753 6.73419 6.08932
#
# Compressibility (1/GPa) = 0.03515450
#
# Stress axis : x y z
#
# Youngs Moduli (GPa) = 22.54514 57.70843 74.66049
#
# Poissons Ratio (x) = 0.13560 0.78133
# Poissons Ratio (y) = 0.05298 0.53359
# Poissons Ratio (z) = 0.23594 0.41243
#
# Static dielectric constant tensor:
#      x y z
#    x 2.858690 0.000000 0.000000 
#    y 0.000000 3.534310 0.000000 
#    z 0.000000 0.000000 3.468890 
# 
# 
# High freq. dielectric constant tensor:
#      x y z
#    x 1.643170 0.000000 0.000000 
#    y 0.000000 1.692140 0.000000 
#    z 0.000000 0.000000 1.698810 
# 
# From -- ./inp_files/38558.got.cif
#   From: 2010.03.12/outbox.cif.g09.slc.cpg/sg64_20_cif.got.tgz:38558.got - 2010.04.10 20:19:32.
