data_PCOD8261610
_publ_section_title
;
Structure prediction by ZEFSAII (Michael W. Deem and Ramdas Pophale) SiO2 
 PCOD8261610
Probable space group: C M C A
;
_chemical_formula_sum "Si O2"
_cell_formula_units_Z 80
_cell_length_a 9.496931
_cell_length_b 27.510509
_cell_length_c 18.051070
_cell_angle_alpha 90.000000
_cell_angle_beta 90.000000
_cell_angle_gamma 90.000000
_cell_volume 4716.120128
_symmetry_space_group_name_H-M "C M C A"
_symmetry_group_IT_number 64
_symmetry_cell_setting 'orthorhombic'
loop_
_space_group_symop_operation_xyz
x,y,z
-x,1/2-y,1/2+z
x,-y,-z
-x,1/2+y,1/2-z
-x,-y,-z
x,1/2+y,1/2-z
-x,y,z
x,1/2-y,1/2+z
1/2+x,1/2+y,z
1/2-x,-y,1/2+z
1/2+x,1/2-y,-z
1/2-x,y,1/2-z
1/2-x,1/2-y,-z
1/2+x,y,1/2-z
1/2-x,1/2+y,z
1/2+x,-y,1/2+z
loop_
_atom_site_type_symbol
_atom_site_label
_atom_site_fract_x
_atom_site_fract_y
_atom_site_fract_z
Si Si1 0.666716 0.897936 0.035202
Si Si2 0.663438 0.296360 0.523633
Si Si3 0.662343 0.339879 0.681217
Si Si4 0.666789 0.059472 0.114546
Si Si5 0.667667 0.457420 0.323500
O O1 0.500000 0.897995 0.027052
O O2 0.713218 0.918203 0.114626
O O3 0.719082 0.842589 0.023945
O O4 0.725829 0.932505 0.969082
O O5 0.500000 0.286592 0.507474
O O6 0.750000 0.250000 0.500000
O O7 0.689055 0.306031 0.610384
O O8 0.500000 0.339469 0.703892
O O9 0.750000 0.318786 0.750000
O O10 0.713358 0.394862 0.664436
O O11 0.500000 0.055831 0.110803
O O12 0.725351 0.009883 0.149797
O O13 0.500000 0.457307 0.309619
O O14 0.750000 0.442044 0.250000
#
# Coordination Sequence:
#
# PCOD8261610 Si02
#       5
#    16  16  16  16  16
#     4   8  15  29  48  67  87 116 154 188 217 260
#     4   9  18  33  51  69  89 116 153 193 230 269
#     4   9  17  29  46  70  96 117 143 185 231 272
#     4   8  14  26  46  69  90 116 152 186 215 257
#     4  10  18  28  45  68  94 123 151 180 216 260
#
# _framework density 16.963096
#
# number of rings (size 3 to 8) (size 9 to 14) (size 15 to 20)
#    0.000    3.200    0.000    3.600    0.000    3.200 
#    0.000    2.000    0.000    9.600    0.000    0.000 
#    0.000    0.000    0.000    0.000    0.000    0.000 
#
# Total GULP energy -495786.654509 kJ/mol
# GULP energy per Si atom -12394.666363 kJ/mol
# Density = 1.692449 g / cm^3
# Si number density = 16.963096 Si / 1000 Ang^3
#
#
#
# Elastic Constant Matrix: (Units=GPa)
#
#
# Indices 1 2 3 4 5 6 
#
# 1 39.3285 33.7183 48.4560 0.0000 0.0000 0.0000
# 2 33.7183 95.1308 60.3149 0.0000 0.0000 0.0000
# 3 48.4560 60.3149 132.4205 0.0000 0.0000 0.0000
# 4 0.0000 0.0000 0.0000 17.2955 0.0000 0.0000
# 5 0.0000 0.0000 0.0000 0.0000 29.9917 0.0000
# 6 0.0000 0.0000 0.0000 0.0000 0.0000 21.4933
#
#
#
# Elastic Compliance Matrix: (Units=1/GPa)
#
#
# Indices 1 2 3 4 5 6 
#
# 1 0.051041 -0.008787 -0.014675 0.000000 0.000000 0.000000
# 2 -0.008787 0.016293 -0.004206 0.000000 0.000000 0.000000
# 3 -0.014675 -0.004206 0.014837 0.000000 0.000000 0.000000
# 4 0.000000 0.000000 0.000000 0.057818 0.000000 0.000000
# 5 0.000000 0.000000 0.000000 0.000000 0.033343 0.000000
# 6 0.000000 0.000000 0.000000 0.000000 0.000000 0.046526
#
#
# Mechanical properties :
#
#
# Convention : Reuss Voigt Hill
#
# Bulk Modulus (GPa) = 37.26327 61.31756 49.29042
# Shear Modulus (GPa) = 17.59703 22.04880 19.82292
#
# Velocity S-wave (km/s) = 3.22432 3.60920 3.42217
# Velocity P-wave (km/s) = 5.98971 7.32083 6.68846
#
# Compressibility (1/GPa) = 0.02683608
#
# Stress axis : x y z
#
# Youngs Moduli (GPa) = 19.59206 61.37689 67.39781
#
# Poissons Ratio (x) = 0.53931 0.98906
# Poissons Ratio (y) = 0.17215 0.28346
# Poissons Ratio (z) = 0.28751 0.25813
#
# Static dielectric constant tensor:
#      x y z
#    x 2.723530 0.000000 0.000000 
#    y 0.000000 3.221320 0.000000 
#    z 0.000000 0.000000 3.284820 
# 
# 
# High freq. dielectric constant tensor:
#      x y z
#    x 1.609500 0.000000 0.000000 
#    y 0.000000 1.647100 0.000000 
#    z 0.000000 0.000000 1.660400 
# 
# From -- ./inp_files/22331.got.cif
#   From: 2010.03.12/outbox.cif.g09.slc.cpg/sg64_12_cif.got.tgz:22331.got - 2010.04.10 20:19:32.
