data_PCOD8261380
_publ_section_title
;
Structure prediction by ZEFSAII (Michael W. Deem and Ramdas Pophale) SiO2 
 PCOD8261380
Probable space group: C M C A
;
_chemical_formula_sum "Si O2"
_cell_formula_units_Z 96
_cell_length_a 18.736682
_cell_length_b 24.427011
_cell_length_c 13.004290
_cell_angle_alpha 90.000000
_cell_angle_beta 90.000000
_cell_angle_gamma 90.000000
_cell_volume 5951.818237
_symmetry_space_group_name_H-M "C M C A"
_symmetry_group_IT_number 64
_symmetry_cell_setting 'orthorhombic'
loop_
_space_group_symop_operation_xyz
x,y,z
-x,1/2-y,1/2+z
x,-y,-z
-x,1/2+y,1/2-z
-x,-y,-z
x,1/2+y,1/2-z
-x,y,z
x,1/2-y,1/2+z
1/2+x,1/2+y,z
1/2-x,-y,1/2+z
1/2+x,1/2-y,-z
1/2-x,y,1/2-z
1/2-x,1/2-y,-z
1/2+x,y,1/2-z
1/2-x,1/2+y,z
1/2+x,-y,1/2+z
loop_
_atom_site_type_symbol
_atom_site_label
_atom_site_fract_x
_atom_site_fract_y
_atom_site_fract_z
Si Si1 0.177836 0.231853 0.809976
Si Si2 0.579242 0.218478 0.342948
Si Si3 0.292308 0.349984 0.642665
Si Si4 0.916445 0.554706 0.447180
Si Si5 0.665485 0.158161 0.502391
Si Si6 0.579101 0.601799 0.266028
O O1 0.250000 0.223916 0.750000
O O2 0.111769 0.234177 0.729722
O O3 0.178437 0.288594 0.873839
O O4 0.172569 0.179298 0.882278
O O5 0.500000 0.236645 0.378392
O O6 0.631286 0.208952 0.439457
O O7 0.575815 0.161286 0.284166
O O8 0.250000 0.353650 0.750000
O O9 0.240427 0.362252 0.547124
O O10 0.358295 0.394237 0.647240
O O11 0.884565 0.500000 0.500000
O O12 0.885057 0.605962 0.508078
O O13 0.899855 0.558412 0.324207
O O14 0.000000 0.557615 0.465390
O O15 0.500000 0.587549 0.312186
#
# Coordination Sequence:
#
# PCOD8261380 Si02
#       6
#    16  16  16  16  16  16
#     4  10  19  30  45  65  95 126 156 190 234 284
#     4   9  17  28  42  66  92 118 156 190 225 283
#     4  10  15  27  45  69  89 123 157 190 226 279
#     4   9  17  29  46  69  93 118 153 198 245 285
#     4  11  18  29  50  66  93 129 161 193 240 287
#     4   8  14  26  43  64  93 118 146 194 235 271
#
# _framework density 16.129525000000001
#
# number of rings (size 3 to 8) (size 9 to 14) (size 15 to 20)
#    0.000    2.500    6.667    2.000    0.000    1.333 
#    0.000    0.000    3.667    0.000    0.000    0.000 
#    0.000    0.667    0.000    0.000    0.000    0.000 
#
# Total GULP energy -594732.625677 kJ/mol
# GULP energy per Si atom -12390.263035 kJ/mol
# Density = 1.609281 g / cm^3
# Si number density = 16.129525 Si / 1000 Ang^3
#
#
#
# Elastic Constant Matrix: (Units=GPa)
#
#
# Indices 1 2 3 4 5 6 
#
# 1 96.3031 25.8340 39.2844 0.0000 0.0000 0.0000
# 2 25.8340 58.5216 39.4007 0.0000 0.0000 0.0000
# 3 39.2844 39.4007 61.6524 0.0000 0.0000 0.0000
# 4 0.0000 0.0000 0.0000 20.3791 0.0000 0.0000
# 5 0.0000 0.0000 0.0000 0.0000 12.8966 0.0000
# 6 0.0000 0.0000 0.0000 0.0000 0.0000 6.8056
#
#
#
# Elastic Compliance Matrix: (Units=1/GPa)
#
#
# Indices 1 2 3 4 5 6 
#
# 1 0.014034 -0.000307 -0.008746 0.000000 0.000000 0.000000
# 2 -0.000307 0.029999 -0.018977 0.000000 0.000000 0.000000
# 3 -0.008746 -0.018977 0.033921 0.000000 0.000000 0.000000
# 4 0.000000 0.000000 0.000000 0.049070 0.000000 0.000000
# 5 0.000000 0.000000 0.000000 0.000000 0.077540 0.000000
# 6 0.000000 0.000000 0.000000 0.000000 0.000000 0.146937
#
#
# Mechanical properties :
#
#
# Convention : Reuss Voigt Hill
#
# Bulk Modulus (GPa) = 45.67287 47.27949 46.47618
# Shear Modulus (GPa) = 12.05229 15.48012 13.76620
#
# Velocity S-wave (km/s) = 2.73650 3.10132 2.92460
# Velocity P-wave (km/s) = 6.19373 6.49618 6.34676
#
# Compressibility (1/GPa) = 0.02189484
#
# Stress axis : x y z
#
# Youngs Moduli (GPa) = 71.25543 33.33402 29.48049
#
# Poissons Ratio (x) = 0.01022 0.25785
# Poissons Ratio (y) = 0.02184 0.55944
# Poissons Ratio (z) = 0.62323 0.63257
#
# Static dielectric constant tensor:
#      x y z
#    x 3.624480 0.000000 0.000000 
#    y 0.000000 2.865850 0.000000 
#    z 0.000000 0.000000 2.831520 
# 
# 
# High freq. dielectric constant tensor:
#      x y z
#    x 1.635310 0.000000 0.000000 
#    y 0.000000 1.571380 0.000000 
#    z 0.000000 0.000000 1.584620 
# 
# From -- ./inp_files/16313.got.cif
#   From: 2010.03.12/outbox.cif.g09.slc.cpg/sg64_9_cif.got.tgz:16313.got - 2010.04.10 20:19:32.
