data_PCOD8261255
_publ_section_title
;
Structure prediction by ZEFSAII (Michael W. Deem and Ramdas Pophale) SiO2 
 PCOD8261255
Probable space group: C M C M
;
_chemical_formula_sum "Si O2"
_cell_formula_units_Z 40
_cell_length_a 9.792241
_cell_length_b 10.630321
_cell_length_c 14.809255
_cell_angle_alpha 90.000000
_cell_angle_beta 90.000000
_cell_angle_gamma 90.000000
_cell_volume 1541.564440
_symmetry_space_group_name_H-M "C M C M"
_symmetry_group_IT_number 63
_symmetry_cell_setting 'orthorhombic'
loop_
_space_group_symop_operation_xyz
x,y,z
-x,-y,1/2+z
x,-y,-z
-x,y,1/2-z
-x,-y,-z
x,y,1/2-z
-x,y,z
x,-y,1/2+z
1/2+x,1/2+y,z
1/2-x,1/2-y,1/2+z
1/2+x,1/2-y,-z
1/2-x,1/2+y,1/2-z
1/2-x,1/2-y,-z
1/2+x,1/2+y,1/2-z
1/2-x,1/2+y,z
1/2+x,1/2-y,1/2+z
loop_
_atom_site_type_symbol
_atom_site_label
_atom_site_fract_x
_atom_site_fract_y
_atom_site_fract_z
Si Si1 0.500000 0.357466 0.348280
Si Si2 0.000000 0.505907 0.651201
Si Si3 0.500000 0.255123 0.545815
Si Si4 0.716739 0.447825 0.902338
O O1 0.500000 0.285778 0.250000
O O2 0.500000 0.266835 0.436393
O O3 0.368053 0.447784 0.348434
O O4 0.863324 0.420287 0.643718
O O5 0.000000 0.570587 0.750000
O O6 0.000000 0.610006 0.572204
O O7 0.365544 0.317522 0.589581
O O8 0.746899 0.500000 0.000000
#
# Coordination Sequence:
#
# PCOD8261255 Si02
#       4
#     8   8   8  16
#     4   9  17  35  63  90 121 162 204 251 307 367
#     4  12  24  37  62  95 124 164 214 257 304 369
#     4   9  22  42  65  89 124 170 203 250 320 370
#     4   9  20  40  62  87 123 162 204 259 311 364
#
# _framework density 25.947666000000002
#
# number of rings (size 3 to 8) (size 9 to 14) (size 15 to 20)
#    0.000    2.400    0.000    4.200    0.000   11.200 
#    0.000    4.000    0.000   21.600    0.000    0.000 
#    0.000    0.000    0.000    0.000    0.000    0.000 
#
# Total GULP energy -247902.962054 kJ/mol
# GULP energy per Si atom -12395.148103 kJ/mol
# Density = 2.588861 g / cm^3
# Si number density = 25.947666 Si / 1000 Ang^3
#
#
#
# Elastic Constant Matrix: (Units=GPa)
#
#
# Indices 1 2 3 4 5 6 
#
# 1 231.4699 42.1189 55.1331 0.0000 0.0000 0.0000
# 2 42.1189 68.1493 34.2529 0.0000 0.0000 0.0000
# 3 55.1331 34.2529 169.1557 0.0000 0.0000 0.0000
# 4 0.0000 0.0000 0.0000 31.8221 0.0000 0.0000
# 5 0.0000 0.0000 0.0000 0.0000 22.9614 0.0000
# 6 0.0000 0.0000 0.0000 0.0000 0.0000 28.7371
#
#
#
# Elastic Compliance Matrix: (Units=1/GPa)
#
#
# Indices 1 2 3 4 5 6 
#
# 1 0.005054 -0.002556 -0.001130 0.000000 0.000000 0.000000
# 2 -0.002556 0.017629 -0.002737 0.000000 0.000000 0.000000
# 3 -0.001130 -0.002737 0.006834 0.000000 0.000000 0.000000
# 4 0.000000 0.000000 0.000000 0.031425 0.000000 0.000000
# 5 0.000000 0.000000 0.000000 0.000000 0.043551 0.000000
# 6 0.000000 0.000000 0.000000 0.000000 0.000000 0.034798
#
#
# Mechanical properties :
#
#
# Convention : Reuss Voigt Hill
#
# Bulk Modulus (GPa) = 59.97906 81.30941 70.64423
# Shear Modulus (GPa) = 31.70699 39.18879 35.44789
#
# Velocity S-wave (km/s) = 3.49945 3.89048 3.70013
# Velocity P-wave (km/s) = 6.28440 7.18227 6.74829
#
# Compressibility (1/GPa) = 0.01667249
#
# Stress axis : x y z
#
# Youngs Moduli (GPa) = 197.84681 56.72524 146.32477
#
# Poissons Ratio (x) = 0.14499 0.16532
# Poissons Ratio (y) = 0.50569 0.40044
# Poissons Ratio (z) = 0.22353 0.15524
#
# Static dielectric constant tensor:
#      x y z
#    x 5.597680 0.000000 0.000000 
#    y 0.000000 4.129600 0.000000 
#    z 0.000000 0.000000 4.679370 
# 
# 
# High freq. dielectric constant tensor:
#      x y z
#    x 2.061600 0.000000 0.000000 
#    y 0.000000 2.008960 0.000000 
#    z 0.000000 0.000000 2.039940 
# 
# From -- ./inp_files/26715.got.cif
#   From: 2010.03.12/outbox.cif.g09.slc.cpg/sg63_14_cif.got.tgz:26715.got - 2010.04.10 19:34:48.
