data_PCOD8261710
_publ_section_title
;
Structure prediction by ZEFSAII (Michael W. Deem and Ramdas Pophale) SiO2 
 PCOD8261710
Probable space group: C M C A
;
_chemical_formula_sum "Si O2"
_cell_formula_units_Z 80
_cell_length_a 11.504725
_cell_length_b 21.502661
_cell_length_c 18.223851
_cell_angle_alpha 90.000000
_cell_angle_beta 90.000000
_cell_angle_gamma 90.000000
_cell_volume 4508.256382
_symmetry_space_group_name_H-M "C M C A"
_symmetry_group_IT_number 64
_symmetry_cell_setting 'orthorhombic'
loop_
_space_group_symop_operation_xyz
x,y,z
-x,1/2-y,1/2+z
x,-y,-z
-x,1/2+y,1/2-z
-x,-y,-z
x,1/2+y,1/2-z
-x,y,z
x,1/2-y,1/2+z
1/2+x,1/2+y,z
1/2-x,-y,1/2+z
1/2+x,1/2-y,-z
1/2-x,y,1/2-z
1/2-x,1/2-y,-z
1/2+x,y,1/2-z
1/2-x,1/2+y,z
1/2+x,-y,1/2+z
loop_
_atom_site_type_symbol
_atom_site_label
_atom_site_fract_x
_atom_site_fract_y
_atom_site_fract_z
Si Si1 0.364137 0.273582 0.404728
Si Si2 0.136880 0.934102 0.032428
Si Si3 0.000000 0.952520 0.398205
Si Si4 0.717266 0.166974 0.050389
Si Si5 0.500000 0.594145 0.441355
Si Si6 0.279288 0.896339 0.165766
O O1 0.500000 0.262432 0.386488
O O2 0.349104 0.292018 0.489532
O O3 0.288602 0.210381 0.392846
O O4 0.309390 0.324785 0.351125
O O5 0.174152 0.923438 0.116675
O O6 0.000000 0.929283 0.026923
O O7 0.191118 0.880036 0.984141
O O8 0.181758 0.000000 0.000000
O O9 0.111217 0.939387 0.349629
O O10 0.000000 0.906368 0.468991
O O11 0.000000 0.023881 0.417291
O O12 0.614617 0.128319 0.090373
O O13 0.250000 0.903220 0.250000
#
# Coordination Sequence:
#
# PCOD8261710 Si02
#       6
#    16  16   8  16   8  16
#     4  10  18  33  51  77 114 141 181 227 278 334
#     4  10  20  34  53  82 113 143 188 240 287 334
#     4  11  20  36  59  84 115 146 191 244 284 340
#     4  10  18  30  52  83 108 142 180 228 282 331
#     4  11  18  34  61  86 114 144 191 242 289 334
#     4  11  22  36  56  83 112 150 190 234 290 341
#
# _framework density 17.745218999999999
#
# number of rings (size 3 to 8) (size 9 to 14) (size 15 to 20)
#    0.000    1.600    6.000    1.800    1.400    0.000 
#    1.800    0.000    0.000    4.800    0.000    0.000 
#    0.000    0.000    0.000    0.000    0.000    0.000 
#
# Total GULP energy -495940.689710 kJ/mol
# GULP energy per Si atom -12398.517243 kJ/mol
# Density = 1.770483 g / cm^3
# Si number density = 17.745219 Si / 1000 Ang^3
#
#
#
# Elastic Constant Matrix: (Units=GPa)
#
#
# Indices 1 2 3 4 5 6 
#
# 1 116.4173 61.5149 39.5095 0.0000 0.0000 0.0000
# 2 61.5149 100.9167 39.1782 0.0000 0.0000 0.0000
# 3 39.5095 39.1782 76.3089 0.0000 0.0000 0.0000
# 4 0.0000 0.0000 0.0000 15.6701 0.0000 0.0000
# 5 0.0000 0.0000 0.0000 0.0000 15.5926 0.0000
# 6 0.0000 0.0000 0.0000 0.0000 0.0000 34.7495
#
#
#
# Elastic Compliance Matrix: (Units=1/GPa)
#
#
# Indices 1 2 3 4 5 6 
#
# 1 0.013347 -0.006810 -0.003414 0.000000 0.000000 0.000000
# 2 -0.006810 0.015851 -0.004612 0.000000 0.000000 0.000000
# 3 -0.003414 -0.004612 0.017240 0.000000 0.000000 0.000000
# 4 0.000000 0.000000 0.000000 0.063816 0.000000 0.000000
# 5 0.000000 0.000000 0.000000 0.000000 0.064133 0.000000
# 6 0.000000 0.000000 0.000000 0.000000 0.000000 0.028777
#
#
# Mechanical properties :
#
#
# Convention : Reuss Voigt Hill
#
# Bulk Modulus (GPa) = 59.64675 63.78312 61.71494
# Shear Modulus (GPa) = 20.97090 23.43179 22.20135
#
# Velocity S-wave (km/s) = 3.44143 3.63775 3.54095
# Velocity P-wave (km/s) = 7.03399 7.32572 7.18134
#
# Compressibility (1/GPa) = 0.01676537
#
# Stress axis : x y z
#
# Youngs Moduli (GPa) = 74.92285 63.08729 58.00436
#
# Poissons Ratio (x) = 0.42965 0.19802
# Poissons Ratio (y) = 0.51026 0.26752
# Poissons Ratio (z) = 0.25578 0.29096
#
# Static dielectric constant tensor:
#      x y z
#    x 3.469460 0.000000 0.000000 
#    y 0.000000 3.576580 0.000000 
#    z 0.000000 0.000000 2.870840 
# 
# 
# High freq. dielectric constant tensor:
#      x y z
#    x 1.707510 0.000000 0.000000 
#    y 0.000000 1.701670 0.000000 
#    z 0.000000 0.000000 1.626590 
# 
# From -- ./inp_files/30873.got.cif
#   From: 2010.03.12/outbox.cif.g09.slc.cpg/sg64_16_cif.got.tgz:30873.got - 2010.04.10 20:19:32.
