data_PCOD8261105
_publ_section_title
;
Structure prediction by ZEFSAII (Michael W. Deem and Ramdas Pophale) SiO2 
 PCOD8261105
Probable space group: C M C M
;
_chemical_formula_sum "Si O2"
_cell_formula_units_Z 96
_cell_length_a 21.868272
_cell_length_b 11.538992
_cell_length_c 18.380609
_cell_angle_alpha 90.000000
_cell_angle_beta 90.000000
_cell_angle_gamma 90.000000
_cell_volume 4638.122726
_symmetry_space_group_name_H-M "C M C M"
_symmetry_group_IT_number 63
_symmetry_cell_setting 'orthorhombic'
loop_
_space_group_symop_operation_xyz
x,y,z
-x,-y,1/2+z
x,-y,-z
-x,y,1/2-z
-x,-y,-z
x,y,1/2-z
-x,y,z
x,-y,1/2+z
1/2+x,1/2+y,z
1/2-x,1/2-y,1/2+z
1/2+x,1/2-y,-z
1/2-x,1/2+y,1/2-z
1/2-x,1/2-y,-z
1/2+x,1/2+y,1/2-z
1/2-x,1/2+y,z
1/2+x,1/2-y,1/2+z
loop_
_atom_site_type_symbol
_atom_site_label
_atom_site_fract_x
_atom_site_fract_y
_atom_site_fract_z
Si Si1 0.318735 0.426541 0.167956
Si Si2 0.500000 0.762848 0.165027
Si Si3 0.818477 0.766283 0.469902
Si Si4 0.106419 0.550362 0.428688
Si Si5 0.680483 0.891030 0.170333
Si Si6 0.630077 0.666731 0.383325
Si Si7 0.000000 0.461023 0.666355
O O1 0.337365 0.383963 0.250000
O O2 0.328472 0.330388 0.106581
O O3 0.246442 0.450539 0.167467
O O4 0.357594 0.540317 0.149387
O O5 0.500000 0.735629 0.250000
O O6 0.439803 0.705111 0.130306
O O7 0.500000 0.901042 0.151228
O O8 0.750000 0.750000 0.500000
O O9 0.842913 0.639127 0.454826
O O10 0.858192 0.834532 0.529993
O O11 0.072251 0.500000 0.500000
O O12 0.138992 0.442416 0.391602
O O13 0.057824 0.600966 0.371649
O O14 0.651150 0.913799 0.250000
O O15 0.679199 0.752831 0.155288
O O16 0.000000 0.427484 0.750000
#
# Coordination Sequence:
#
# PCOD8261105 Si02
#       7
#    16   8  16  16  16  16   8
#     4  11  25  42  65  99 137 177 226 284 349 418
#     4  11  22  41  69 101 140 185 237 294 341 404
#     4  12  24  44  68  97 139 180 225 282 354 421
#     4  12  22  39  63  93 131 174 219 277 342 407
#     4  11  22  38  64  97 130 170 223 286 348 405
#     4  12  23  44  69  98 135 179 237 283 345 408
#     4  11  23  39  62  97 134 173 229 286 342 401
#
# _framework density 20.698029999999999
#
# number of rings (size 3 to 8) (size 9 to 14) (size 15 to 20)
#    0.000    0.500    5.000    3.750    0.000    2.000 
#    0.000    2.500    0.000    1.000    0.000    0.000 
#    0.000    0.000    0.000    0.000    0.000    0.000 
#
# Total GULP energy -594996.213731 kJ/mol
# GULP energy per Si atom -12395.754453 kJ/mol
# Density = 2.065092 g / cm^3
# Si number density = 20.698030 Si / 1000 Ang^3
#
#
#
# Elastic Constant Matrix: (Units=GPa)
#
#
# Indices 1 2 3 4 5 6 
#
# 1 105.4491 25.7296 48.7931 0.0000 0.0000 0.0000
# 2 25.7296 60.6977 35.7092 0.0000 0.0000 0.0000
# 3 48.7931 35.7092 196.5356 0.0000 0.0000 0.0000
# 4 0.0000 0.0000 0.0000 32.2159 0.0000 0.0000
# 5 0.0000 0.0000 0.0000 0.0000 36.4829 0.0000
# 6 0.0000 0.0000 0.0000 0.0000 0.0000 31.7401
#
#
#
# Elastic Compliance Matrix: (Units=1/GPa)
#
#
# Indices 1 2 3 4 5 6 
#
# 1 0.011352 -0.003532 -0.002177 0.000000 0.000000 0.000000
# 2 -0.003532 0.019546 -0.002675 0.000000 0.000000 0.000000
# 3 -0.002177 -0.002675 0.006114 0.000000 0.000000 0.000000
# 4 0.000000 0.000000 0.000000 0.031041 0.000000 0.000000
# 5 0.000000 0.000000 0.000000 0.000000 0.027410 0.000000
# 6 0.000000 0.000000 0.000000 0.000000 0.000000 0.031506
#
#
# Mechanical properties :
#
#
# Convention : Reuss Voigt Hill
#
# Bulk Modulus (GPa) = 49.39097 64.79401 57.09249
# Shear Modulus (GPa) = 33.22627 36.91780 35.07203
#
# Velocity S-wave (km/s) = 4.01095 4.22790 4.12085
# Velocity P-wave (km/s) = 6.73533 7.43006 7.09121
#
# Compressibility (1/GPa) = 0.02024662
#
# Stress axis : x y z
#
# Youngs Moduli (GPa) = 88.08906 51.16243 163.54631
#
# Poissons Ratio (x) = 0.18068 0.35599
# Poissons Ratio (y) = 0.31109 0.43741
# Poissons Ratio (z) = 0.19174 0.13684
#
# Static dielectric constant tensor:
#      x y z
#    x 3.832440 0.000000 0.000000 
#    y 0.000000 3.473830 0.000000 
#    z 0.000000 0.000000 4.410340 
# 
# 
# High freq. dielectric constant tensor:
#      x y z
#    x 1.802150 0.000000 0.000000 
#    y 0.000000 1.785820 0.000000 
#    z 0.000000 0.000000 1.843430 
# 
# From -- ./inp_files/48077.got.cif
#   From: 2010.03.12/outbox.cif.g09.slc.cpg/sg63_25_cif.got.tgz:48077.got - 2010.04.10 19:34:48.
