data_PCOD8261946
_publ_section_title
;
Structure prediction by ZEFSAII (Michael W. Deem and Ramdas Pophale) SiO2 
 PCOD8261946
Probable space group: C M C A
;
_chemical_formula_sum "Si O2"
_cell_formula_units_Z 112
_cell_length_a 15.942377
_cell_length_b 14.662165
_cell_length_c 26.438113
_cell_angle_alpha 90.000000
_cell_angle_beta 90.000000
_cell_angle_gamma 90.000000
_cell_volume 6179.902623
_symmetry_space_group_name_H-M "C M C A"
_symmetry_group_IT_number 64
_symmetry_cell_setting 'orthorhombic'
loop_
_space_group_symop_operation_xyz
x,y,z
-x,1/2-y,1/2+z
x,-y,-z
-x,1/2+y,1/2-z
-x,-y,-z
x,1/2+y,1/2-z
-x,y,z
x,1/2-y,1/2+z
1/2+x,1/2+y,z
1/2-x,-y,1/2+z
1/2+x,1/2-y,-z
1/2-x,y,1/2-z
1/2-x,1/2-y,-z
1/2+x,y,1/2-z
1/2-x,1/2+y,z
1/2+x,-y,1/2+z
loop_
_atom_site_type_symbol
_atom_site_label
_atom_site_fract_x
_atom_site_fract_y
_atom_site_fract_z
Si Si1 0.736291 0.415218 0.374060
Si Si2 0.180985 0.158169 0.208133
Si Si3 0.406540 0.842528 0.197605
Si Si4 0.805439 0.223145 0.953362
Si Si5 0.244738 0.115534 0.099503
Si Si6 0.095966 0.899096 0.979213
Si Si7 0.164286 0.957195 0.219582
O O1 0.653941 0.385792 0.343926
O O2 0.752908 0.345047 0.418380
O O3 0.718663 0.513855 0.398683
O O4 0.817855 0.420579 0.337160
O O5 0.250000 0.182156 0.250000
O O6 0.112492 0.237096 0.208247
O O7 0.227987 0.154057 0.154918
O O8 0.133891 0.062304 0.218624
O O9 0.500000 0.850590 0.176042
O O10 0.403042 0.895581 0.251427
O O11 0.818044 0.318654 0.923326
O O12 0.750000 0.250000 0.000000
O O13 0.888583 0.173002 0.974612
O O14 0.158151 0.119803 0.067438
O O15 0.000000 0.888053 0.960679
O O16 0.113025 0.000000 0.000000
O O17 0.250000 0.951520 0.250000
#
# Coordination Sequence:
#
# PCOD8261946 Si02
#       7
#    16  16  16  16  16  16  16
#     4  10  18  37  57  77 110 144 191 229 266 340
#     4  10  19  35  59  81 103 143 192 227 268 331
#     4  11  22  35  53  82 115 146 177 230 285 326
#     4  10  20  34  56  85 108 146 189 224 276 341
#     4  10  20  35  61  84 106 154 193 224 277 342
#     4  10  20  36  57  86 119 143 181 247 295 320
#     4   8  18  34  55  75 102 146 184 223 267 327
#
# _framework density 18.123263000000001
#
# number of rings (size 3 to 8) (size 9 to 14) (size 15 to 20)
#    0.000    2.143    2.857    2.143    0.000    1.143 
#    0.000    3.571    0.000    0.000    0.000    4.000 
#    0.000    0.000    0.000    0.000    0.000    0.000 
#
# Total GULP energy -694108.793218 kJ/mol
# GULP energy per Si atom -12394.799879 kJ/mol
# Density = 1.808201 g / cm^3
# Si number density = 18.123263 Si / 1000 Ang^3
#
#
#
# Elastic Constant Matrix: (Units=GPa)
#
#
# Indices 1 2 3 4 5 6 
#
# 1 77.4871 36.9072 27.7012 0.0000 0.0000 0.0000
# 2 36.9072 129.6562 50.0124 0.0000 0.0000 0.0000
# 3 27.7012 50.0124 99.0726 0.0000 0.0000 0.0000
# 4 0.0000 0.0000 0.0000 39.0790 0.0000 0.0000
# 5 0.0000 0.0000 0.0000 0.0000 17.7022 0.0000
# 6 0.0000 0.0000 0.0000 0.0000 0.0000 2.6570
#
#
#
# Elastic Compliance Matrix: (Units=1/GPa)
#
#
# Indices 1 2 3 4 5 6 
#
# 1 0.015454 -0.003393 -0.002608 0.000000 0.000000 0.000000
# 2 -0.003393 0.010323 -0.004262 0.000000 0.000000 0.000000
# 3 -0.002608 -0.004262 0.012974 0.000000 0.000000 0.000000
# 4 0.000000 0.000000 0.000000 0.025589 0.000000 0.000000
# 5 0.000000 0.000000 0.000000 0.000000 0.056490 0.000000
# 6 0.000000 0.000000 0.000000 0.000000 0.000000 0.376365
#
#
# Mechanical properties :
#
#
# Convention : Reuss Voigt Hill
#
# Bulk Modulus (GPa) = 54.87213 59.49527 57.18370
# Shear Modulus (GPa) = 9.54570 24.66063 17.10316
#
# Velocity S-wave (km/s) = 2.29751 3.69279 3.07532
# Velocity P-wave (km/s) = 6.11400 7.14714 6.65066
#
# Compressibility (1/GPa) = 0.01822419
#
# Stress axis : x y z
#
# Youngs Moduli (GPa) = 64.70876 96.87490 77.07443
#
# Poissons Ratio (x) = 0.32869 0.20103
# Poissons Ratio (y) = 0.21955 0.32851
# Poissons Ratio (z) = 0.16877 0.41290
#
# Static dielectric constant tensor:
#      x y z
#    x 2.817410 0.000000 0.000000 
#    y 0.000000 3.934620 0.000000 
#    z 0.000000 0.000000 3.685010 
# 
# 
# High freq. dielectric constant tensor:
#      x y z
#    x 1.651610 0.000000 0.000000 
#    y 0.000000 1.726100 0.000000 
#    z 0.000000 0.000000 1.714630 
# 
# From -- ./inp_files/50065.got.cif
#   From: 2010.03.12/outbox.cif.g09.slc.cpg/sg64_26_cif.got.tgz:50065.got - 2010.04.10 20:19:32.
