data_PCOD8261545
_publ_section_title
;
Structure prediction by ZEFSAII (Michael W. Deem and Ramdas Pophale) SiO2 
 PCOD8261545
Probable space group: C M C A
;
_chemical_formula_sum "Si O2"
_cell_formula_units_Z 80
_cell_length_a 18.346273
_cell_length_b 14.063220
_cell_length_c 14.473937
_cell_angle_alpha 90.000000
_cell_angle_beta 90.000000
_cell_angle_gamma 90.000000
_cell_volume 3734.386810
_symmetry_space_group_name_H-M "C M C A"
_symmetry_group_IT_number 64
_symmetry_cell_setting 'orthorhombic'
loop_
_space_group_symop_operation_xyz
x,y,z
-x,1/2-y,1/2+z
x,-y,-z
-x,1/2+y,1/2-z
-x,-y,-z
x,1/2+y,1/2-z
-x,y,z
x,1/2-y,1/2+z
1/2+x,1/2+y,z
1/2-x,-y,1/2+z
1/2+x,1/2-y,-z
1/2-x,y,1/2-z
1/2-x,1/2-y,-z
1/2+x,y,1/2-z
1/2-x,1/2+y,z
1/2+x,-y,1/2+z
loop_
_atom_site_type_symbol
_atom_site_label
_atom_site_fract_x
_atom_site_fract_y
_atom_site_fract_z
Si Si1 0.821254 0.080594 0.700377
Si Si2 0.342182 0.219686 0.067815
Si Si3 0.268993 0.097494 0.531237
Si Si4 0.335204 0.371664 0.751689
Si Si5 0.414934 0.236699 0.875715
O O1 0.750000 0.125704 0.750000
O O2 0.795917 0.058096 0.596109
O O3 0.887332 0.155086 0.694983
O O4 0.847438 0.985063 0.751455
O O5 0.324996 0.332096 0.083659
O O6 0.375009 0.176757 0.162473
O O7 0.267250 0.160398 0.050293
O O8 0.397879 0.210816 0.982096
O O9 0.309538 0.000000 0.500000
O O10 0.250000 0.345392 0.750000
O O11 0.372882 0.333187 0.845520
O O12 0.500000 0.250516 0.862524
#
# Coordination Sequence:
#
# PCOD8261545 Si02
#       5
#    16  16  16  16  16
#     4  10  21  36  63  91 118 150 203 262 311 358
#     4  10  21  36  58  88 123 152 197 248 311 360
#     4  10  17  31  57  89 114 144 187 251 307 357
#     4  11  21  39  65  95 118 155 206 265 317 355
#     4  11  25  41  58  87 128 170 207 242 299 379
#
# _framework density 21.422528
#
# number of rings (size 3 to 8) (size 9 to 14) (size 15 to 20)
#    0.000    1.600    2.000    5.400    2.800    1.600 
#    0.000    1.000    0.000    0.600    0.000    0.000 
#    0.000    0.000    0.000    0.000    0.000    0.000 
#
# Total GULP energy -495826.454169 kJ/mol
# GULP energy per Si atom -12395.661354 kJ/mol
# Density = 2.137377 g / cm^3
# Si number density = 21.422528 Si / 1000 Ang^3
#
#
#
# Elastic Constant Matrix: (Units=GPa)
#
#
# Indices 1 2 3 4 5 6 
#
# 1 103.6548 32.2044 11.3397 0.0000 0.0000 0.0000
# 2 32.2044 123.1502 -1.4673 0.0000 0.0000 0.0000
# 3 11.3397 -1.4673 61.7334 0.0000 0.0000 0.0000
# 4 0.0000 0.0000 0.0000 29.2026 0.0000 0.0000
# 5 0.0000 0.0000 0.0000 0.0000 21.4612 0.0000
# 6 0.0000 0.0000 0.0000 0.0000 0.0000 13.2490
#
#
#
# Elastic Compliance Matrix: (Units=1/GPa)
#
#
# Indices 1 2 3 4 5 6 
#
# 1 0.010752 -0.002836 -0.002042 0.000000 0.000000 0.000000
# 2 -0.002836 0.008871 0.000732 0.000000 0.000000 0.000000
# 3 -0.002042 0.000732 0.016591 0.000000 0.000000 0.000000
# 4 0.000000 0.000000 0.000000 0.034244 0.000000 0.000000
# 5 0.000000 0.000000 0.000000 0.000000 0.046596 0.000000
# 6 0.000000 0.000000 0.000000 0.000000 0.000000 0.075477
#
#
# Mechanical properties :
#
#
# Convention : Reuss Voigt Hill
#
# Bulk Modulus (GPa) = 35.81610 41.41023 38.61316
# Shear Modulus (GPa) = 23.79475 29.21333 26.50404
#
# Velocity S-wave (km/s) = 3.33638 3.69680 3.52121
# Velocity P-wave (km/s) = 5.62113 6.13139 5.88180
#
# Compressibility (1/GPa) = 0.02792041
#
# Stress axis : x y z
#
# Youngs Moduli (GPa) = 93.00620 112.73288 60.27272
#
# Poissons Ratio (x) = 0.31971 0.12310
# Poissons Ratio (y) = 0.26377 -0.04411
# Poissons Ratio (z) = 0.18996 -0.08250
#
# Static dielectric constant tensor:
#      x y z
#    x 3.218040 0.000000 0.000000 
#    y 0.000000 3.957110 0.000000 
#    z 0.000000 0.000000 4.053570 
# 
# 
# High freq. dielectric constant tensor:
#      x y z
#    x 1.763210 0.000000 0.000000 
#    y 0.000000 1.853570 0.000000 
#    z 0.000000 0.000000 1.856770 
# 
# From -- ./inp_files/26146.got.cif
#   From: 2010.03.12/outbox.cif.g09.slc.cpg/sg64_14_cif.got.tgz:26146.got - 2010.04.10 20:19:32.
