data_PCOD8261629
_publ_section_title
;
Structure prediction by ZEFSAII (Michael W. Deem and Ramdas Pophale) SiO2 
 PCOD8261629
Probable space group: C M C A
;
_chemical_formula_sum "Si O2"
_cell_formula_units_Z 120
_cell_length_a 20.507149
_cell_length_b 10.509787
_cell_length_c 29.636690
_cell_angle_alpha 90.000000
_cell_angle_beta 90.000000
_cell_angle_gamma 90.000000
_cell_volume 6387.470372
_symmetry_space_group_name_H-M "C M C A"
_symmetry_group_IT_number 64
_symmetry_cell_setting 'orthorhombic'
loop_
_space_group_symop_operation_xyz
x,y,z
-x,1/2-y,1/2+z
x,-y,-z
-x,1/2+y,1/2-z
-x,-y,-z
x,1/2+y,1/2-z
-x,y,z
x,1/2-y,1/2+z
1/2+x,1/2+y,z
1/2-x,-y,1/2+z
1/2+x,1/2-y,-z
1/2-x,y,1/2-z
1/2-x,1/2-y,-z
1/2+x,y,1/2-z
1/2-x,1/2+y,z
1/2+x,-y,1/2+z
loop_
_atom_site_type_symbol
_atom_site_label
_atom_site_fract_x
_atom_site_fract_y
_atom_site_fract_z
Si Si1 0.317181 0.706860 0.852771
Si Si2 0.662457 0.688405 0.649761
Si Si3 0.608931 0.500000 0.500000
Si Si4 0.673939 0.947102 0.795155
Si Si5 0.172433 0.130149 0.025228
Si Si6 0.927164 0.793257 0.433536
Si Si7 0.807531 0.822477 0.554133
Si Si8 0.671579 0.450529 0.806119
O O1 0.239777 0.690237 0.856906
O O2 0.344552 0.813481 0.818555
O O3 0.338768 0.750584 0.902869
O O4 0.348921 0.573474 0.836251
O O5 0.643043 0.571190 0.681799
O O6 0.621731 0.657737 0.604949
O O7 0.642347 0.824850 0.670451
O O8 0.566484 0.608638 0.524408
O O9 0.652102 0.551926 0.458303
O O10 0.644278 0.952254 0.744832
O O11 0.751428 0.951597 0.799197
O O12 0.103928 0.160406 0.049284
O O13 0.231937 0.132517 0.061904
O O14 0.189107 0.235821 0.989213
O O15 0.165365 0.000000 0.000000
O O16 0.000000 0.768176 0.414859
#
# Coordination Sequence:
#
# PCOD8261629 Si02
#       8
#    16  16   8  16  16  16  16  16
#     4  10  18  28  50  78 109 139 170 209 267 329
#     4  10  19  31  51  75 102 141 178 215 257 315
#     4  10  21  38  56  78 103 140 176 230 268 310
#     4   9  17  30  47  76 111 141 169 209 269 329
#     4  10  21  33  52  75 109 139 170 218 269 318
#     4  11  23  38  54  75 104 144 187 218 256 311
#     4  10  19  31  52  82 107 134 171 216 274 321
#     4   9  18  29  47  77 113 139 163 214 275 328
#
# _framework density 18.78678
#
# number of rings (size 3 to 8) (size 9 to 14) (size 15 to 20)
#    0.000    2.133    2.000    1.800    1.867    4.533 
#    0.000    0.000    0.000    0.800    0.000    0.000 
#    0.000    0.000    0.000    0.000    0.000    0.000 
#
# Total GULP energy -743444.119719 kJ/mol
# GULP energy per Si atom -12390.735329 kJ/mol
# Density = 1.874402 g / cm^3
# Si number density = 18.786780 Si / 1000 Ang^3
#
#
#
# Elastic Constant Matrix: (Units=GPa)
#
#
# Indices 1 2 3 4 5 6 
#
# 1 54.1762 20.3248 15.2489 0.0000 0.0000 0.0000
# 2 20.3248 98.2843 18.7881 0.0000 0.0000 0.0000
# 3 15.2489 18.7881 88.5004 0.0000 0.0000 0.0000
# 4 0.0000 0.0000 0.0000 36.1307 0.0000 0.0000
# 5 0.0000 0.0000 0.0000 0.0000 9.6900 0.0000
# 6 0.0000 0.0000 0.0000 0.0000 0.0000 7.0227
#
#
#
# Elastic Compliance Matrix: (Units=1/GPa)
#
#
# Indices 1 2 3 4 5 6 
#
# 1 0.020639 -0.003740 -0.002762 0.000000 0.000000 0.000000
# 2 -0.003740 0.011283 -0.001751 0.000000 0.000000 0.000000
# 3 -0.002762 -0.001751 0.012147 0.000000 0.000000 0.000000
# 4 0.000000 0.000000 0.000000 0.027677 0.000000 0.000000
# 5 0.000000 0.000000 0.000000 0.000000 0.103199 0.000000
# 6 0.000000 0.000000 0.000000 0.000000 0.000000 0.142395
#
#
# Mechanical properties :
#
#
# Convention : Reuss Voigt Hill
#
# Bulk Modulus (GPa) = 36.28114 38.85385 37.56749
# Shear Modulus (GPa) = 14.57586 23.00862 18.79224
#
# Velocity S-wave (km/s) = 2.78844 3.50340 3.16617
# Velocity P-wave (km/s) = 5.45172 6.09028 5.77982
#
# Compressibility (1/GPa) = 0.02756253
#
# Stress axis : x y z
#
# Youngs Moduli (GPa) = 48.45225 88.63150 82.32481
#
# Poissons Ratio (x) = 0.33148 0.22739
# Poissons Ratio (y) = 0.18121 0.14414
# Poissons Ratio (z) = 0.13383 0.15518
#
# Static dielectric constant tensor:
#      x y z
#    x 2.894650 0.000000 0.000000 
#    y 0.000000 3.105310 0.000000 
#    z 0.000000 0.000000 3.567690 
# 
# 
# High freq. dielectric constant tensor:
#      x y z
#    x 1.654940 0.000000 0.000000 
#    y 0.000000 1.744140 0.000000 
#    z 0.000000 0.000000 1.738950 
# 
# From -- ./inp_files/53816.got.cif
#   From: 2010.03.12/outbox.cif.g09.slc.cpg/sg64_27_cif.got.tgz:53816.got - 2010.04.10 20:19:32.
