data_PCOD8261113
_publ_section_title
;
Structure prediction by ZEFSAII (Michael W. Deem and Ramdas Pophale) SiO2 
 PCOD8261113
Probable space group: C M C M
;
_chemical_formula_sum "Si O2"
_cell_formula_units_Z 112
_cell_length_a 27.680778
_cell_length_b 12.334229
_cell_length_c 15.047100
_cell_angle_alpha 90.000000
_cell_angle_beta 90.000000
_cell_angle_gamma 90.000000
_cell_volume 5137.396753
_symmetry_space_group_name_H-M "C M C M"
_symmetry_group_IT_number 63
_symmetry_cell_setting 'orthorhombic'
loop_
_space_group_symop_operation_xyz
x,y,z
-x,-y,1/2+z
x,-y,-z
-x,y,1/2-z
-x,-y,-z
x,y,1/2-z
-x,y,z
x,-y,1/2+z
1/2+x,1/2+y,z
1/2-x,1/2-y,1/2+z
1/2+x,1/2-y,-z
1/2-x,1/2+y,1/2-z
1/2-x,1/2-y,-z
1/2+x,1/2+y,1/2-z
1/2-x,1/2+y,z
1/2+x,1/2-y,1/2+z
loop_
_atom_site_type_symbol
_atom_site_label
_atom_site_fract_x
_atom_site_fract_y
_atom_site_fract_z
Si Si1 0.613588 0.670378 0.653054
Si Si2 0.945206 0.195925 0.020471
Si Si3 0.302372 0.804125 0.903540
Si Si4 0.383247 0.425483 0.849270
Si Si5 0.844149 0.481687 0.149719
Si Si6 0.554057 0.899890 0.352389
Si Si7 0.195346 0.247623 0.395948
O O1 0.587262 0.676253 0.750000
O O2 0.579123 0.713580 0.575130
O O3 0.660011 0.746908 0.661335
O O4 0.632611 0.549065 0.634267
O O5 0.923456 0.097086 0.076471
O O6 0.938062 0.301324 0.080914
O O7 0.000000 0.167539 0.001240
O O8 0.249179 0.783068 0.864718
O O9 0.315633 0.932302 0.911765
O O10 0.308195 0.747389 0.998404
O O11 0.404880 0.410844 0.750000
O O12 0.337728 0.347373 0.858852
O O13 0.836918 0.521580 0.250000
O O14 0.902030 0.482802 0.126855
O O15 0.821376 0.362842 0.141492
O O16 0.558786 0.859203 0.250000
O O17 0.500000 0.951249 0.367241
#
# Coordination Sequence:
#
# PCOD8261113 Si02
#       7
#    16  16  16  16  16  16  16
#     4  11  25  43  63  92 135 177 218 264 319 392
#     4  11  22  40  67  97 129 168 216 273 330 386
#     4  11  25  43  65  94 129 178 222 263 328 400
#     4  11  23  41  67  97 128 167 217 273 328 388
#     4  11  22  39  65  96 135 171 214 275 332 395
#     4   9  18  36  66 102 135 172 223 281 335 387
#     4  11  24  42  67  94 129 170 221 275 325 389
#
# _framework density 21.800923999999998
#
# number of rings (size 3 to 8) (size 9 to 14) (size 15 to 20)
#    0.000    1.286    2.857    2.143    2.000    4.571 
#    0.000    2.143    0.000    4.286    0.000    0.000 
#    0.000    0.000    0.000    0.000    0.000    0.000 
#
# Total GULP energy -694314.463735 kJ/mol
# GULP energy per Si atom -12398.472567 kJ/mol
# Density = 2.175130 g / cm^3
# Si number density = 21.800924 Si / 1000 Ang^3
#
#
#
# Elastic Constant Matrix: (Units=GPa)
#
#
# Indices 1 2 3 4 5 6 
#
# 1 163.2013 62.1564 50.4911 0.0000 0.0000 0.0000
# 2 62.1564 93.2692 20.6737 0.0000 0.0000 0.0000
# 3 50.4911 20.6737 107.1436 0.0000 0.0000 0.0000
# 4 0.0000 0.0000 0.0000 21.4969 0.0000 0.0000
# 5 0.0000 0.0000 0.0000 0.0000 20.6948 0.0000
# 6 0.0000 0.0000 0.0000 0.0000 0.0000 20.8135
#
#
#
# Elastic Compliance Matrix: (Units=1/GPa)
#
#
# Indices 1 2 3 4 5 6 
#
# 1 0.009205 -0.005404 -0.003295 0.000000 0.000000 0.000000
# 2 -0.005404 0.014373 -0.000227 0.000000 0.000000 0.000000
# 3 -0.003295 -0.000227 0.010930 0.000000 0.000000 0.000000
# 4 0.000000 0.000000 0.000000 0.046518 0.000000 0.000000
# 5 0.000000 0.000000 0.000000 0.000000 0.048321 0.000000
# 6 0.000000 0.000000 0.000000 0.000000 0.000000 0.048046
#
#
# Mechanical properties :
#
#
# Convention : Reuss Voigt Hill
#
# Bulk Modulus (GPa) = 60.03713 70.02850 65.03282
# Shear Modulus (GPa) = 24.90074 27.95390 26.42732
#
# Velocity S-wave (km/s) = 3.38329 3.58472 3.48546
# Velocity P-wave (km/s) = 6.54682 7.02318 6.78918
#
# Compressibility (1/GPa) = 0.01665636
#
# Stress axis : x y z
#
# Youngs Moduli (GPa) = 108.63673 69.57371 91.49272
#
# Poissons Ratio (x) = 0.37598 0.30148
# Poissons Ratio (y) = 0.58707 0.02075
# Poissons Ratio (z) = 0.35797 0.01578
#
# Static dielectric constant tensor:
#      x y z
#    x 4.168240 0.000000 0.000000 
#    y 0.000000 3.752640 0.000000 
#    z 0.000000 0.000000 4.079550 
# 
# 
# High freq. dielectric constant tensor:
#      x y z
#    x 1.853250 0.000000 0.000000 
#    y 0.000000 1.849040 0.000000 
#    z 0.000000 0.000000 1.872740 
# 
# From -- ./inp_files/38495.got.cif
#   From: 2010.03.12/outbox.cif.g09.slc.cpg/sg63_20_cif.got.tgz:38495.got - 2010.04.10 19:34:48.
