data_PCOD8261720
_publ_section_title
;
Structure prediction by ZEFSAII (Michael W. Deem and Ramdas Pophale) SiO2 
 PCOD8261720
Probable space group: C M C A
;
_chemical_formula_sum "Si O2"
_cell_formula_units_Z 128
_cell_length_a 19.301782
_cell_length_b 20.034233
_cell_length_c 19.711810
_cell_angle_alpha 90.000000
_cell_angle_beta 90.000000
_cell_angle_gamma 90.000000
_cell_volume 7622.485923
_symmetry_space_group_name_H-M "C M C A"
_symmetry_group_IT_number 64
_symmetry_cell_setting 'orthorhombic'
loop_
_space_group_symop_operation_xyz
x,y,z
-x,1/2-y,1/2+z
x,-y,-z
-x,1/2+y,1/2-z
-x,-y,-z
x,1/2+y,1/2-z
-x,y,z
x,1/2-y,1/2+z
1/2+x,1/2+y,z
1/2-x,-y,1/2+z
1/2+x,1/2-y,-z
1/2-x,y,1/2-z
1/2-x,1/2-y,-z
1/2+x,y,1/2-z
1/2-x,1/2+y,z
1/2+x,-y,1/2+z
loop_
_atom_site_type_symbol
_atom_site_label
_atom_site_fract_x
_atom_site_fract_y
_atom_site_fract_z
Si Si1 0.078495 0.036040 0.685925
Si Si2 0.362020 0.916244 0.747583
Si Si3 0.420713 0.213058 0.196469
Si Si4 0.244486 0.914447 0.859477
Si Si5 0.313339 0.529065 0.571669
Si Si6 0.189934 0.815445 0.429667
Si Si7 0.580173 0.812844 0.186297
Si Si8 0.306977 0.786616 0.918855
O O1 0.120477 0.017858 0.618778
O O2 0.091813 0.111274 0.710473
O O3 0.000000 0.024193 0.664866
O O4 0.099688 0.987420 0.747414
O O5 0.415532 0.857776 0.765598
O O6 0.298664 0.913116 0.798887
O O7 0.332936 0.908442 0.671130
O O8 0.500000 0.224697 0.173861
O O9 0.395837 0.268472 0.250259
O O10 0.373118 0.216969 0.130037
O O11 0.259415 0.851815 0.907807
O O12 0.249617 0.984206 0.900485
O O13 0.336939 0.500000 0.500000
O O14 0.291641 0.606179 0.569269
O O15 0.127224 0.797665 0.379084
O O16 0.259700 0.778257 0.405831
O O17 0.166248 0.789722 0.503750
O O18 0.500000 0.798946 0.166788
#
# Coordination Sequence:
#
# PCOD8261720 Si02
#       8
#    16  16  16  16  16  16  16  16
#     4   9  18  31  47  70  99 129 163 202 245 299
#     4   9  17  29  47  71  96 126 163 202 247 293
#     4  10  20  34  52  74 100 130 169 214 258 305
#     4   9  17  30  47  68  98 129 160 203 245 291
#     4  10  18  31  48  70 100 131 162 200 247 299
#     4  10  20  33  50  73 102 133 169 207 253 308
#     4   9  19  34  50  70 100 135 169 208 253 302
#     4  10  20  33  50  74 101 131 169 211 255 302
#
# _framework density 16.792421999999998
#
# number of rings (size 3 to 8) (size 9 to 14) (size 15 to 20)
#    0.000    2.500    1.250    1.125    0.000    3.250 
#    0.000    2.500    0.000    0.000    0.000    0.000 
#    0.000    1.500    0.000    0.000    0.000    0.000 
#
# Total GULP energy -793502.639479 kJ/mol
# GULP energy per Si atom -12398.478742 kJ/mol
# Density = 1.675420 g / cm^3
# Si number density = 16.792422 Si / 1000 Ang^3
#
#
#
# Elastic Constant Matrix: (Units=GPa)
#
#
# Indices 1 2 3 4 5 6 
#
# 1 75.3678 48.5164 49.9701 0.0000 0.0000 0.0000
# 2 48.5164 109.5434 44.4517 0.0000 0.0000 0.0000
# 3 49.9701 44.4517 87.0317 0.0000 0.0000 0.0000
# 4 0.0000 0.0000 0.0000 26.9424 0.0000 0.0000
# 5 0.0000 0.0000 0.0000 0.0000 24.0292 0.0000
# 6 0.0000 0.0000 0.0000 0.0000 0.0000 24.9440
#
#
#
# Elastic Compliance Matrix: (Units=1/GPa)
#
#
# Indices 1 2 3 4 5 6 
#
# 1 0.024638 -0.006524 -0.010814 0.000000 0.000000 0.000000
# 2 -0.006524 0.013243 -0.003018 0.000000 0.000000 0.000000
# 3 -0.010814 -0.003018 0.019241 0.000000 0.000000 0.000000
# 4 0.000000 0.000000 0.000000 0.037116 0.000000 0.000000
# 5 0.000000 0.000000 0.000000 0.000000 0.041616 0.000000
# 6 0.000000 0.000000 0.000000 0.000000 0.000000 0.040090
#
#
# Mechanical properties :
#
#
# Convention : Reuss Voigt Hill
#
# Bulk Modulus (GPa) = 60.94077 61.97992 61.46035
# Shear Modulus (GPa) = 22.50992 23.78345 23.14668
#
# Velocity S-wave (km/s) = 3.66523 3.76749 3.71671
# Velocity P-wave (km/s) = 7.36758 7.47762 7.42281
#
# Compressibility (1/GPa) = 0.01640937
#
# Stress axis : x y z
#
# Youngs Moduli (GPa) = 40.58845 75.51230 51.97364
#
# Poissons Ratio (x) = 0.49262 0.56204
# Poissons Ratio (y) = 0.26479 0.15687
# Poissons Ratio (z) = 0.43892 0.22791
#
# Static dielectric constant tensor:
#      x y z
#    x 3.043340 0.000000 0.000000 
#    y 0.000000 3.373140 0.000000 
#    z 0.000000 0.000000 3.126500 
# 
# 
# High freq. dielectric constant tensor:
#      x y z
#    x 1.629680 0.000000 0.000000 
#    y 0.000000 1.661860 0.000000 
#    z 0.000000 0.000000 1.637430 
# 
# From -- ./inp_files/34642.got.cif
#   From: 2010.03.12/outbox.cif.g09.slc.cpg/sg64_18_cif.got.tgz:34642.got - 2010.04.10 20:19:32.
