data_PCOD8261172
_publ_section_title
;
Structure prediction by ZEFSAII (Michael W. Deem and Ramdas Pophale) SiO2 
 PCOD8261172
Probable space group: C M C M
;
_chemical_formula_sum "Si O2"
_cell_formula_units_Z 64
_cell_length_a 10.045544
_cell_length_b 27.784258
_cell_length_c 11.466267
_cell_angle_alpha 90.000000
_cell_angle_beta 90.000000
_cell_angle_gamma 90.000000
_cell_volume 3200.326692
_symmetry_space_group_name_H-M "C M C M"
_symmetry_group_IT_number 63
_symmetry_cell_setting 'orthorhombic'
loop_
_space_group_symop_operation_xyz
x,y,z
-x,-y,1/2+z
x,-y,-z
-x,y,1/2-z
-x,-y,-z
x,y,1/2-z
-x,y,z
x,-y,1/2+z
1/2+x,1/2+y,z
1/2-x,1/2-y,1/2+z
1/2+x,1/2-y,-z
1/2-x,1/2+y,1/2-z
1/2-x,1/2-y,-z
1/2+x,1/2+y,1/2-z
1/2-x,1/2+y,z
1/2+x,1/2-y,1/2+z
loop_
_atom_site_type_symbol
_atom_site_label
_atom_site_fract_x
_atom_site_fract_y
_atom_site_fract_z
Si Si1 0.706693 0.595138 0.750000
Si Si2 0.500000 0.676625 0.750000
Si Si3 0.000000 0.794794 0.995132
Si Si4 0.500000 0.184751 0.510972
Si Si5 0.151553 0.053499 0.994757
Si Si6 0.000000 0.628082 0.750000
Si Si7 0.758322 0.853299 0.611600
O O1 0.638418 0.647312 0.750000
O O2 0.652546 0.567513 0.860758
O O3 0.866891 0.596084 0.750000
O O4 0.500000 0.709215 0.635226
O O5 0.125885 0.823599 0.949245
O O6 0.000000 0.740395 0.951568
O O7 0.500000 0.159050 0.634149
O O8 0.624182 0.170579 0.432398
O O9 0.000000 0.053528 0.041891
O O10 0.236308 0.090680 0.073039
O O11 0.214191 0.000000 0.000000
O O12 0.769453 0.849543 0.750000
#
# Coordination Sequence:
#
# PCOD8261172 Si02
#       7
#     8   4   8   8  16   4  16
#     4  12  20  44  64  98 129 169 219 279 316 386
#     4  12  20  42  72  90 132 168 224 286 314 372
#     4  12  25  44  69  98 127 176 227 271 324 380
#     4  12  27  46  65  98 131 182 217 265 332 388
#     4  11  23  41  70 101 127 170 218 272 332 384
#     4  12  24  42  72  86 134 174 226 264 322 388
#     4  12  25  45  65  98 139 170 215 274 328 391
#
# _framework density 19.997959000000002
#
# number of rings (size 3 to 8) (size 9 to 14) (size 15 to 20)
#    0.000    0.250    7.500    1.500    5.250    0.000 
#    0.000    2.500    0.000    0.000    0.000    0.000 
#    0.000    0.000    0.000    0.000    0.000    0.000 
#
# Total GULP energy -396881.198936 kJ/mol
# GULP energy per Si atom -12402.537467 kJ/mol
# Density = 1.995244 g / cm^3
# Si number density = 19.997959 Si / 1000 Ang^3
#
#
#
# Elastic Constant Matrix: (Units=GPa)
#
#
# Indices 1 2 3 4 5 6 
#
# 1 126.4214 31.9737 14.0887 0.0000 0.0000 0.0000
# 2 31.9737 124.1931 20.6211 0.0000 0.0000 0.0000
# 3 14.0887 20.6211 147.2196 0.0000 0.0000 0.0000
# 4 0.0000 0.0000 0.0000 -51.3656 0.0000 0.0000
# 5 0.0000 0.0000 0.0000 0.0000 596.6937 0.0000
# 6 0.0000 0.0000 0.0000 0.0000 0.0000 -33.9512
#
#
#
# Elastic Compliance Matrix: (Units=1/GPa)
#
#
# Indices 1 2 3 4 5 6 
#
# 1 0.008500 -0.002102 -0.000519 0.000000 0.000000 0.000000
# 2 -0.002102 0.008764 -0.001026 0.000000 0.000000 0.000000
# 3 -0.000519 -0.001026 0.006986 0.000000 0.000000 0.000000
# 4 0.000000 0.000000 0.000000 -0.019468 0.000000 0.000000
# 5 0.000000 0.000000 0.000000 0.000000 0.001676 0.000000
# 6 0.000000 0.000000 0.000000 0.000000 0.000000 -0.029454
#
#
# Mechanical properties :
#
#
# Convention : Reuss Voigt Hill
#
# Bulk Modulus (GPa) = 58.98182 59.02234 59.00208
# Shear Modulus (GPa) = -497.45672 124.35209 -186.55231
#
# Velocity S-wave (km/s) = -15.78904 7.89414 -9.66893
# Velocity P-wave (km/s) = 17.40212 10.61452 9.75104
#
# Compressibility (1/GPa) = 0.01695438
#
# Stress axis : x y z
#
# Youngs Moduli (GPa) = 117.65361 114.10875 143.14345
#
# Poissons Ratio (x) = 0.23986 0.07428
# Poissons Ratio (y) = 0.24731 0.14692
# Poissons Ratio (z) = 0.06106 0.11712
#
# Static dielectric constant tensor:
#      x y z
#    x 3.898430 0.000000 0.000000 
#    y 0.000000 3.761050 0.000000 
#    z 0.000000 0.000000 3.678640 
# 
# 
# High freq. dielectric constant tensor:
#      x y z
#    x 1.782670 0.000000 0.000000 
#    y 0.000000 1.781080 0.000000 
#    z 0.000000 0.000000 1.798270 
# 
# From -- ./inp_files/16339.got.cif
#   From: 2010.03.12/outbox.cif.g09.slc.cpg/sg63_9_cif.got.tgz:16339.got - 2010.04.10 19:34:48.
