data_PCOD8261182
_publ_section_title
;
Structure prediction by ZEFSAII (Michael W. Deem and Ramdas Pophale) SiO2 
 PCOD8261182
Probable space group: C M C M
;
_chemical_formula_sum "Si O2"
_cell_formula_units_Z 64
_cell_length_a 15.144790
_cell_length_b 11.661292
_cell_length_c 15.256669
_cell_angle_alpha 90.000000
_cell_angle_beta 90.000000
_cell_angle_gamma 90.000000
_cell_volume 2694.447029
_symmetry_space_group_name_H-M "C M C M"
_symmetry_group_IT_number 63
_symmetry_cell_setting 'orthorhombic'
loop_
_space_group_symop_operation_xyz
x,y,z
-x,-y,1/2+z
x,-y,-z
-x,y,1/2-z
-x,-y,-z
x,y,1/2-z
-x,y,z
x,-y,1/2+z
1/2+x,1/2+y,z
1/2-x,1/2-y,1/2+z
1/2+x,1/2-y,-z
1/2-x,1/2+y,1/2-z
1/2-x,1/2-y,-z
1/2+x,1/2+y,1/2-z
1/2-x,1/2+y,z
1/2+x,1/2-y,1/2+z
loop_
_atom_site_type_symbol
_atom_site_label
_atom_site_fract_x
_atom_site_fract_y
_atom_site_fract_z
Si Si1 0.899905 0.696138 0.153898
Si Si2 0.399480 0.265470 0.651733
Si Si3 0.154430 0.466522 0.089117
Si Si4 0.341145 0.620145 0.983137
O O1 0.879259 0.748706 0.250000
O O2 0.835761 0.586175 0.141593
O O3 0.890530 0.796330 0.083014
O O4 0.000000 0.650663 0.148571
O O5 0.369621 0.302178 0.750000
O O6 0.500000 0.305616 0.634315
O O7 0.396597 0.127162 0.646218
O O8 0.334073 0.318482 0.578547
O O9 0.247223 0.411712 0.058354
O O10 0.101346 0.500000 0.000000
O O11 0.393340 0.500000 0.000000
#
# Coordination Sequence:
#
# PCOD8261182 Si02
#       4
#    16  16  16  16
#     4  11  25  45  72 106 141 184 239 297 354 413
#     4  11  24  43  70 103 139 185 238 294 355 417
#     4  11  23  42  70 100 137 177 236 294 352 415
#     4  11  26  45  69 100 144 187 233 284 349 425
#
# _framework density 23.752555000000001
#
# number of rings (size 3 to 8) (size 9 to 14) (size 15 to 20)
#    0.000    1.000    2.500    3.000    3.500    8.000 
#    0.000    6.250    0.000    0.000    0.000    0.000 
#    0.000    0.000    0.000    0.000    0.000    0.000 
#
# Total GULP energy -396499.084823 kJ/mol
# GULP energy per Si atom -12390.596401 kJ/mol
# Density = 2.369849 g / cm^3
# Si number density = 23.752555 Si / 1000 Ang^3
#
#
#
# Elastic Constant Matrix: (Units=GPa)
#
#
# Indices 1 2 3 4 5 6 
#
# 1 78.8821 26.1551 39.5318 0.0000 0.0000 0.0000
# 2 26.1551 163.8635 72.3804 0.0000 0.0000 0.0000
# 3 39.5318 72.3804 196.5191 0.0000 0.0000 0.0000
# 4 0.0000 0.0000 0.0000 18.6084 0.0000 0.0000
# 5 0.0000 0.0000 0.0000 0.0000 24.7084 0.0000
# 6 0.0000 0.0000 0.0000 0.0000 0.0000 27.8709
#
#
#
# Elastic Compliance Matrix: (Units=1/GPa)
#
#
# Indices 1 2 3 4 5 6 
#
# 1 0.014296 -0.001208 -0.002431 0.000000 0.000000 0.000000
# 2 -0.001208 0.007390 -0.002479 0.000000 0.000000 0.000000
# 3 -0.002431 -0.002479 0.006491 0.000000 0.000000 0.000000
# 4 0.000000 0.000000 0.000000 0.053739 0.000000 0.000000
# 5 0.000000 0.000000 0.000000 0.000000 0.040472 0.000000
# 6 0.000000 0.000000 0.000000 0.000000 0.000000 0.035880
#
#
# Mechanical properties :
#
#
# Convention : Reuss Voigt Hill
#
# Bulk Modulus (GPa) = 62.73069 79.48880 71.10974
# Shear Modulus (GPa) = 28.43858 34.31737 31.37797
#
# Velocity S-wave (km/s) = 3.46393 3.80516 3.63855
# Velocity P-wave (km/s) = 6.51658 7.26936 6.90324
#
# Compressibility (1/GPa) = 0.01594116
#
# Stress axis : x y z
#
# Youngs Moduli (GPa) = 69.95003 135.30944 154.06948
#
# Poissons Ratio (x) = 0.16347 0.37451
# Poissons Ratio (y) = 0.08451 0.38193
# Poissons Ratio (z) = 0.17003 0.33543
#
# Static dielectric constant tensor:
#      x y z
#    x 3.883510 0.000000 0.000000 
#    y 0.000000 4.701890 0.000000 
#    z 0.000000 0.000000 4.517890 
# 
# 
# High freq. dielectric constant tensor:
#      x y z
#    x 1.919470 0.000000 0.000000 
#    y 0.000000 1.947840 0.000000 
#    z 0.000000 0.000000 1.953990 
# 
# From -- ./inp_files/33352.got.cif
#   From: 2010.03.12/outbox.cif.g09.slc.cpg/sg63_17_cif.got.tgz:33352.got - 2010.04.10 19:34:48.
