data_PCOD8261690
_publ_section_title
;
Structure prediction by ZEFSAII (Michael W. Deem and Ramdas Pophale) SiO2 
 PCOD8261690
Probable space group: C M C A
;
_chemical_formula_sum "Si O2"
_cell_formula_units_Z 88
_cell_length_a 9.192380
_cell_length_b 23.427005
_cell_length_c 23.022394
_cell_angle_alpha 90.000000
_cell_angle_beta 90.000000
_cell_angle_gamma 90.000000
_cell_volume 4957.870987
_symmetry_space_group_name_H-M "C M C A"
_symmetry_group_IT_number 64
_symmetry_cell_setting 'orthorhombic'
loop_
_space_group_symop_operation_xyz
x,y,z
-x,1/2-y,1/2+z
x,-y,-z
-x,1/2+y,1/2-z
-x,-y,-z
x,1/2+y,1/2-z
-x,y,z
x,1/2-y,1/2+z
1/2+x,1/2+y,z
1/2-x,-y,1/2+z
1/2+x,1/2-y,-z
1/2-x,y,1/2-z
1/2-x,1/2-y,-z
1/2+x,y,1/2-z
1/2-x,1/2+y,z
1/2+x,-y,1/2+z
loop_
_atom_site_type_symbol
_atom_site_label
_atom_site_fract_x
_atom_site_fract_y
_atom_site_fract_z
Si Si1 0.673690 0.442355 0.187801
Si Si2 0.250000 0.250380 0.250000
Si Si3 0.170563 0.550623 0.189348
Si Si4 0.334070 0.245943 0.440426
Si Si5 0.340682 0.163490 0.845298
Si Si6 0.339935 0.674657 0.353570
O O1 0.500000 0.448057 0.191734
O O2 0.750000 0.438294 0.250000
O O3 0.746556 0.497874 0.156770
O O4 0.714354 0.383788 0.155540
O O5 0.343062 0.291892 0.291555
O O6 0.340793 0.208647 0.207816
O O7 0.250000 0.560226 0.250000
O O8 0.192568 0.607874 0.153172
O O9 0.000000 0.536533 0.198786
O O10 0.500000 0.232143 0.454575
O O11 0.250000 0.250000 0.500000
O O12 0.314726 0.304885 0.405989
O O13 0.276398 0.195256 0.400022
O O14 0.500000 0.134190 0.844532
O O15 0.500000 0.683412 0.380241
#
# Coordination Sequence:
#
# PCOD8261690 Si02
#       6
#    16   8  16  16  16  16
#     4  11  21  32  49  73 106 143 177 214 256 309
#     4  10  18  30  50  78 108 138 172 210 256 316
#     4  10  19  32  50  74 107 143 176 213 256 310
#     4  10  22  38  57  79 105 138 177 220 265 315
#     4  10  20  33  52  77 106 138 173 214 260 310
#     4  10  20  33  53  79 108 141 175 216 262 314
#
# _framework density 17.749555000000001
#
# number of rings (size 3 to 8) (size 9 to 14) (size 15 to 20)
#    0.000    1.818    1.818    4.364    0.000    5.818 
#    0.000    0.000    0.000    1.091    0.000    7.636 
#    0.000    0.000    0.000    0.000    0.000    0.000 
#
# Total GULP energy -545291.106210 kJ/mol
# GULP energy per Si atom -12392.979687 kJ/mol
# Density = 1.770916 g / cm^3
# Si number density = 17.749555 Si / 1000 Ang^3
#
#
#
# Elastic Constant Matrix: (Units=GPa)
#
#
# Indices 1 2 3 4 5 6 
#
# 1 164.8757 73.6170 51.8403 0.0000 0.0000 0.0000
# 2 73.6170 118.7086 34.7383 0.0000 0.0000 0.0000
# 3 51.8403 34.7383 87.4746 0.0000 0.0000 0.0000
# 4 0.0000 0.0000 0.0000 11.7570 0.0000 0.0000
# 5 0.0000 0.0000 0.0000 0.0000 25.2108 0.0000
# 6 0.0000 0.0000 0.0000 0.0000 0.0000 31.2364
#
#
#
# Elastic Compliance Matrix: (Units=1/GPa)
#
#
# Indices 1 2 3 4 5 6 
#
# 1 0.009315 -0.004709 -0.003651 0.000000 0.000000 0.000000
# 2 -0.004709 0.011912 -0.001940 0.000000 0.000000 0.000000
# 3 -0.003651 -0.001940 0.014366 0.000000 0.000000 0.000000
# 4 0.000000 0.000000 0.000000 0.085056 0.000000 0.000000
# 5 0.000000 0.000000 0.000000 0.000000 0.039665 0.000000
# 6 0.000000 0.000000 0.000000 0.000000 0.000000 0.032014
#
#
# Mechanical properties :
#
#
# Convention : Reuss Voigt Hill
#
# Bulk Modulus (GPa) = 66.69156 76.82778 71.75967
# Shear Modulus (GPa) = 22.94368 27.69839 25.32104
#
# Velocity S-wave (km/s) = 3.59922 3.95462 3.78110
# Velocity P-wave (km/s) = 7.41133 8.01438 7.71875
#
# Compressibility (1/GPa) = 0.01499440
#
# Stress axis : x y z
#
# Youngs Moduli (GPa) = 107.34864 83.95080 69.60959
#
# Poissons Ratio (x) = 0.39529 0.25413
# Poissons Ratio (y) = 0.50546 0.13504
# Poissons Ratio (z) = 0.39190 0.16286
#
# Static dielectric constant tensor:
#      x y z
#    x 3.418130 0.000000 0.000000 
#    y 0.000000 3.815100 0.000000 
#    z 0.000000 0.000000 2.975740 
# 
# 
# High freq. dielectric constant tensor:
#      x y z
#    x 1.702260 0.000000 0.000000 
#    y 0.000000 1.698080 0.000000 
#    z 0.000000 0.000000 1.642380 
# 
# From -- ./inp_files/36825.got.cif
#   From: 2010.03.12/outbox.cif.g09.slc.cpg/sg64_19_cif.got.tgz:36825.got - 2010.04.10 20:19:32.
