data_PCOD8261656
_publ_section_title
;
Structure prediction by ZEFSAII (Michael W. Deem and Ramdas Pophale) SiO2 
 PCOD8261656
Probable space group: C M C A
;
_chemical_formula_sum "Si O2"
_cell_formula_units_Z 112
_cell_length_a 17.523042
_cell_length_b 16.962802
_cell_length_c 18.860141
_cell_angle_alpha 90.000000
_cell_angle_beta 90.000000
_cell_angle_gamma 90.000000
_cell_volume 5605.986272
_symmetry_space_group_name_H-M "C M C A"
_symmetry_group_IT_number 64
_symmetry_cell_setting 'orthorhombic'
loop_
_space_group_symop_operation_xyz
x,y,z
-x,1/2-y,1/2+z
x,-y,-z
-x,1/2+y,1/2-z
-x,-y,-z
x,1/2+y,1/2-z
-x,y,z
x,1/2-y,1/2+z
1/2+x,1/2+y,z
1/2-x,-y,1/2+z
1/2+x,1/2-y,-z
1/2-x,y,1/2-z
1/2-x,1/2-y,-z
1/2+x,y,1/2-z
1/2-x,1/2+y,z
1/2+x,-y,1/2+z
loop_
_atom_site_type_symbol
_atom_site_label
_atom_site_fract_x
_atom_site_fract_y
_atom_site_fract_z
Si Si1 0.413956 0.043450 0.218634
Si Si2 0.865150 0.053755 0.124303
Si Si3 0.777127 0.862522 0.671905
Si Si4 0.664079 0.883756 0.236671
Si Si5 0.148505 0.624016 0.604859
Si Si6 0.085669 0.196260 0.027899
Si Si7 0.707934 0.286785 0.389641
O O1 0.500000 0.051859 0.190889
O O2 0.411186 0.060641 0.302365
O O3 0.363698 0.105633 0.173495
O O4 0.384967 0.954751 0.204406
O O5 0.776149 0.069427 0.139246
O O6 0.900937 0.116241 0.071080
O O7 0.870626 0.967251 0.090313
O O8 0.750000 0.840106 0.750000
O O9 0.767455 0.784319 0.624766
O O10 0.750000 0.915784 0.250000
O O11 0.631420 0.854549 0.312688
O O12 0.662600 0.810706 0.182154
O O13 0.095252 0.677322 0.555172
O O14 0.237950 0.641266 0.584963
O O15 0.145572 0.263659 0.051575
O O16 0.000000 0.227348 0.040951
#
# Coordination Sequence:
#
# PCOD8261656 Si02
#       7
#    16  16  16  16  16  16  16
#     4  10  18  29  50  80 109 135 169 219 273 316
#     4   9  19  34  52  73 103 142 181 217 258 312
#     4   9  16  30  51  74 101 137 177 214 253 306
#     4   9  18  34  55  78 103 135 180 223 259 306
#     4  10  19  34  55  77 102 137 179 220 260 311
#     4  11  23  36  52  78 111 141 171 216 271 321
#     4  10  20  36  56  77 104 142 182 215 257 316
#
# _framework density 19.978643000000002
#
# number of rings (size 3 to 8) (size 9 to 14) (size 15 to 20)
#    0.000    2.286    0.000    5.571    0.000    4.000 
#    0.000    0.714    0.000    7.714    0.000    0.000 
#    0.000   17.143    0.000    0.000    0.000    0.000 
#
# Total GULP energy -694259.474307 kJ/mol
# GULP energy per Si atom -12397.490613 kJ/mol
# Density = 1.993317 g / cm^3
# Si number density = 19.978643 Si / 1000 Ang^3
#
#
#
# Elastic Constant Matrix: (Units=GPa)
#
#
# Indices 1 2 3 4 5 6 
#
# 1 120.3145 19.3705 12.3616 0.0000 0.0000 0.0000
# 2 19.3705 42.8544 7.2956 0.0000 0.0000 0.0000
# 3 12.3616 7.2956 47.7121 0.0000 0.0000 0.0000
# 4 0.0000 0.0000 0.0000 19.4641 0.0000 0.0000
# 5 0.0000 0.0000 0.0000 0.0000 19.9672 0.0000
# 6 0.0000 0.0000 0.0000 0.0000 0.0000 21.5747
#
#
#
# Elastic Compliance Matrix: (Units=1/GPa)
#
#
# Indices 1 2 3 4 5 6 
#
# 1 0.009108 -0.003815 -0.001777 0.000000 0.000000 0.000000
# 2 -0.003815 0.025556 -0.002919 0.000000 0.000000 0.000000
# 3 -0.001777 -0.002919 0.021866 0.000000 0.000000 0.000000
# 4 0.000000 0.000000 0.000000 0.051377 0.000000 0.000000
# 5 0.000000 0.000000 0.000000 0.000000 0.050082 0.000000
# 6 0.000000 0.000000 0.000000 0.000000 0.000000 0.046351
#
#
# Mechanical properties :
#
#
# Convention : Reuss Voigt Hill
#
# Bulk Modulus (GPa) = 25.31073 32.10404 28.70738
# Shear Modulus (GPa) = 21.31925 23.65810 22.48868
#
# Velocity S-wave (km/s) = 3.27020 3.44491 3.35869
# Velocity P-wave (km/s) = 5.19185 5.65042 5.42598
#
# Compressibility (1/GPa) = 0.03950893
#
# Stress axis : x y z
#
# Youngs Moduli (GPa) = 109.79098 39.12973 45.73370
#
# Poissons Ratio (x) = 0.14926 0.08125
# Poissons Ratio (y) = 0.41880 0.13352
# Poissons Ratio (z) = 0.19505 0.11424
#
# Static dielectric constant tensor:
#      x y z
#    x 3.500370 0.000000 0.000000 
#    y 0.000000 3.549880 0.000000 
#    z 0.000000 0.000000 3.533730 
# 
# 
# High freq. dielectric constant tensor:
#      x y z
#    x 1.760210 0.000000 0.000000 
#    y 0.000000 1.772690 0.000000 
#    z 0.000000 0.000000 1.762430 
# 
# From -- ./inp_files/40367.got.cif
#   From: 2010.03.12/outbox.cif.g09.slc.cpg/sg64_21_cif.got.tgz:40367.got - 2010.04.10 20:19:32.
