data_PCOD8261750
_publ_section_title
;
Structure prediction by ZEFSAII (Michael W. Deem and Ramdas Pophale) SiO2 
 PCOD8261750
Probable space group: C M C A
;
_chemical_formula_sum "Si O2"
_cell_formula_units_Z 64
_cell_length_a 16.306543
_cell_length_b 17.964967
_cell_length_c 8.958828
_cell_angle_alpha 90.000000
_cell_angle_beta 90.000000
_cell_angle_gamma 90.000000
_cell_volume 2624.457368
_symmetry_space_group_name_H-M "C M C A"
_symmetry_group_IT_number 64
_symmetry_cell_setting 'orthorhombic'
loop_
_space_group_symop_operation_xyz
x,y,z
-x,1/2-y,1/2+z
x,-y,-z
-x,1/2+y,1/2-z
-x,-y,-z
x,1/2+y,1/2-z
-x,y,z
x,1/2-y,1/2+z
1/2+x,1/2+y,z
1/2-x,-y,1/2+z
1/2+x,1/2-y,-z
1/2-x,y,1/2-z
1/2-x,1/2-y,-z
1/2+x,y,1/2-z
1/2-x,1/2+y,z
1/2+x,-y,1/2+z
loop_
_atom_site_type_symbol
_atom_site_label
_atom_site_fract_x
_atom_site_fract_y
_atom_site_fract_z
Si Si1 0.500000 0.496935 0.774906
Si Si2 0.791738 0.853659 0.399406
Si Si3 0.648872 0.198081 0.393722
Si Si4 0.000000 0.373596 0.472903
Si Si5 0.164318 0.068688 0.327828
O O1 0.500000 0.585144 0.813678
O O2 0.586595 0.485662 0.691295
O O3 0.500000 0.441434 0.912857
O O4 0.750000 0.885982 0.250000
O O5 0.731998 0.822035 0.525064
O O6 0.852220 0.785919 0.351636
O O7 0.831494 0.922645 0.490318
O O8 0.577271 0.179822 0.509541
O O9 0.641439 0.149723 0.242644
O O10 0.250000 0.039284 0.250000
#
# Coordination Sequence:
#
# PCOD8261750 Si02
#       5
#     8  16  16   8  16
#     4   9  18  35  57  83 115 157 218 275 312 382
#     4  10  18  31  52  82 118 154 197 253 321 394
#     4   9  17  31  52  79 112 149 193 248 316 393
#     4   9  18  33  55  81 111 151 202 258 318 381
#     4   9  18  33  56  84 115 157 208 264 327 387
#
# _framework density 24.385994
#
# number of rings (size 3 to 8) (size 9 to 14) (size 15 to 20)
#    0.000    2.750    0.000    3.750    0.000    1.000 
#    0.000    6.250    0.000    6.000    0.000    1.750 
#    0.000    0.000    0.000    0.000    0.000    0.000 
#
# Total GULP energy -396497.488655 kJ/mol
# GULP energy per Si atom -12390.546520 kJ/mol
# Density = 2.433049 g / cm^3
# Si number density = 24.385994 Si / 1000 Ang^3
#
#
#
# Elastic Constant Matrix: (Units=GPa)
#
#
# Indices 1 2 3 4 5 6 
#
# 1 153.5741 54.7132 34.0130 0.0000 0.0000 0.0000
# 2 54.7132 62.2790 36.1889 0.0000 0.0000 0.0000
# 3 34.0130 36.1889 136.2192 0.0000 0.0000 0.0000
# 4 0.0000 0.0000 0.0000 27.9424 0.0000 0.0000
# 5 0.0000 0.0000 0.0000 0.0000 29.3487 0.0000
# 6 0.0000 0.0000 0.0000 0.0000 0.0000 0.0851
#
#
#
# Elastic Compliance Matrix: (Units=1/GPa)
#
#
# Indices 1 2 3 4 5 6 
#
# 1 0.009482 -0.008224 -0.000183 0.000000 0.000000 0.000000
# 2 -0.008224 0.026121 -0.004886 0.000000 0.000000 0.000000
# 3 -0.000183 -0.004886 0.008685 0.000000 0.000000 0.000000
# 4 0.000000 0.000000 0.000000 0.035788 0.000000 0.000000
# 5 0.000000 0.000000 0.000000 0.000000 0.034073 0.000000
# 6 0.000000 0.000000 0.000000 0.000000 0.000000 11.750209
#
#
# Mechanical properties :
#
#
# Convention : Reuss Voigt Hill
#
# Bulk Modulus (GPa) = 56.49000 66.87808 61.68404
# Shear Modulus (GPa) = 0.42028 26.61905 13.51966
#
# Velocity S-wave (km/s) = 0.41559 3.30748 2.35713
# Velocity P-wave (km/s) = 4.84206 6.48615 5.72345
#
# Compressibility (1/GPa) = 0.01770225
#
# Stress axis : x y z
#
# Youngs Moduli (GPa) = 105.46477 38.28393 115.14389
#
# Poissons Ratio (x) = 0.31484 0.02105
# Poissons Ratio (y) = 0.86732 0.56259
# Poissons Ratio (z) = 0.01928 0.18705
#
# Static dielectric constant tensor:
#      x y z
#    x 4.479090 0.000000 0.000000 
#    y 0.000000 4.448670 0.000000 
#    z 0.000000 0.000000 4.370110 
# 
# 
# High freq. dielectric constant tensor:
#      x y z
#    x 1.953210 0.000000 0.000000 
#    y 0.000000 1.964060 0.000000 
#    z 0.000000 0.000000 1.963630 
# 
# From -- ./inp_files/6631.got.cif
#   From: 2010.03.12/outbox.cif.g09.slc.cpg/sg64_4_cif.got.tgz:6631.got - 2010.04.10 20:19:32.
