data_PCOD8261039
_publ_section_title
;
Structure prediction by ZEFSAII (Michael W. Deem and Ramdas Pophale) SiO2 
 PCOD8261039
Probable space group: C M C M
;
_chemical_formula_sum "Si O2"
_cell_formula_units_Z 80
_cell_length_a 11.619863
_cell_length_b 23.225799
_cell_length_c 15.148245
_cell_angle_alpha 90.000000
_cell_angle_beta 90.000000
_cell_angle_gamma 90.000000
_cell_volume 4088.217487
_symmetry_space_group_name_H-M "C M C M"
_symmetry_group_IT_number 63
_symmetry_cell_setting 'orthorhombic'
loop_
_space_group_symop_operation_xyz
x,y,z
-x,-y,1/2+z
x,-y,-z
-x,y,1/2-z
-x,-y,-z
x,y,1/2-z
-x,y,z
x,-y,1/2+z
1/2+x,1/2+y,z
1/2-x,1/2-y,1/2+z
1/2+x,1/2-y,-z
1/2-x,1/2+y,1/2-z
1/2-x,1/2-y,-z
1/2+x,1/2+y,1/2-z
1/2-x,1/2+y,z
1/2+x,1/2-y,1/2+z
loop_
_atom_site_type_symbol
_atom_site_label
_atom_site_fract_x
_atom_site_fract_y
_atom_site_fract_z
Si Si1 0.247653 0.385278 0.598813
Si Si2 0.272383 0.105389 0.899677
Si Si3 0.500000 0.031766 0.908756
Si Si4 0.500000 0.089090 0.153026
Si Si5 0.367623 0.683267 0.250000
Si Si6 0.128228 0.999788 0.104935
Si Si7 0.633850 0.180646 0.750000
O O1 0.274291 0.372969 0.495377
O O2 0.304402 0.337075 0.660667
O O3 0.295006 0.446273 0.635450
O O4 0.110244 0.385723 0.603333
O O5 0.389556 0.070772 0.904571
O O6 0.295296 0.158917 0.835455
O O7 0.179252 0.060567 0.859460
O O8 0.500000 0.980517 0.837358
O O9 0.500000 0.000000 0.000000
O O10 0.500000 0.115599 0.250000
O O11 0.500000 0.661928 0.250000
O O12 0.362049 0.751467 0.250000
O O13 0.000000 0.006947 0.143302
O O14 0.128552 0.000000 0.000000
O O15 0.500000 0.158865 0.750000
#
# Coordination Sequence:
#
# PCOD8261039 Si02
#       7
#    16  16   8   8   8  16   8
#     4  11  21  38  64  90 123 159 198 256 306 362
#     4  11  21  37  63  91 128 161 194 248 312 374
#     4  12  18  32  56 100 136 155 193 242 309 399
#     4  12  22  32  58  99 129 160 194 244 321 369
#     4  11  26  46  63  85 116 159 222 265 297 359
#     4   9  18  33  57  92 124 156 192 234 300 373
#     4  11  26  43  62  88 119 165 215 260 302 360
#
# _framework density 19.568431
#
# number of rings (size 3 to 8) (size 9 to 14) (size 15 to 20)
#    0.000    1.200    6.000    1.200    1.400    2.400 
#    0.000    1.500    4.400    0.000    0.000    0.000 
#    0.000    0.000    0.000    0.000    0.000    0.000 
#
# Total GULP energy -495863.172140 kJ/mol
# GULP energy per Si atom -12396.579303 kJ/mol
# Density = 1.952389 g / cm^3
# Si number density = 19.568431 Si / 1000 Ang^3
#
#
#
# Elastic Constant Matrix: (Units=GPa)
#
#
# Indices 1 2 3 4 5 6 
#
# 1 133.1185 40.4481 24.6911 0.0000 0.0000 0.0000
# 2 40.4481 85.8803 42.0232 0.0000 0.0000 0.0000
# 3 24.6911 42.0232 100.2318 0.0000 0.0000 0.0000
# 4 0.0000 0.0000 0.0000 32.7017 0.0000 0.0000
# 5 0.0000 0.0000 0.0000 0.0000 -273.9208 0.0000
# 6 0.0000 0.0000 0.0000 0.0000 0.0000 16.3026
#
#
#
# Elastic Compliance Matrix: (Units=1/GPa)
#
#
# Indices 1 2 3 4 5 6 
#
# 1 0.008790 -0.003875 -0.000541 0.000000 0.000000 0.000000
# 2 -0.003875 0.016358 -0.005904 0.000000 0.000000 0.000000
# 3 -0.000541 -0.005904 0.012585 0.000000 0.000000 0.000000
# 4 0.000000 0.000000 0.000000 0.030579 0.000000 0.000000
# 5 0.000000 0.000000 0.000000 0.000000 -0.003651 0.000000
# 6 0.000000 0.000000 0.000000 0.000000 0.000000 0.061340
#
#
# Mechanical properties :
#
#
# Convention : Reuss Voigt Hill
#
# Bulk Modulus (GPa) = 58.49964 59.28391 58.89177
# Shear Modulus (GPa) = 32.82149 -30.84544 0.98802
#
# Velocity S-wave (km/s) = 4.09989 -3.97455 0.71134
# Velocity P-wave (km/s) = 7.23684 3.04938 5.55295
#
# Compressibility (1/GPa) = 0.01709412
#
# Stress axis : x y z
#
# Youngs Moduli (GPa) = 113.76693 61.13158 79.45847
#
# Poissons Ratio (x) = 0.23691 0.04295
# Poissons Ratio (y) = 0.44089 0.46910
# Poissons Ratio (z) = 0.06149 0.36090
#
# Static dielectric constant tensor:
#      x y z
#    x 3.370550 0.000000 0.000000 
#    y 0.000000 2.899630 0.000000 
#    z 0.000000 0.000000 3.676910 
# 
# 
# High freq. dielectric constant tensor:
#      x y z
#    x 1.771540 0.000000 0.000000 
#    y 0.000000 1.731370 0.000000 
#    z 0.000000 0.000000 1.763480 
# 
# From -- ./inp_files/42216.got.cif
#   From: 2010.03.12/outbox.cif.g09.slc.cpg/sg63_22_cif.got.tgz:42216.got - 2010.04.10 19:34:48.
