data_PCOD8261691
_publ_section_title
;
Structure prediction by ZEFSAII (Michael W. Deem and Ramdas Pophale) SiO2 
 PCOD8261691
Probable space group: C M C A
;
_chemical_formula_sum "Si O2"
_cell_formula_units_Z 128
_cell_length_a 18.142498
_cell_length_b 17.042383
_cell_length_c 21.722505
_cell_angle_alpha 90.000000
_cell_angle_beta 90.000000
_cell_angle_gamma 90.000000
_cell_volume 6716.411721
_symmetry_space_group_name_H-M "C M C A"
_symmetry_group_IT_number 64
_symmetry_cell_setting 'orthorhombic'
loop_
_space_group_symop_operation_xyz
x,y,z
-x,1/2-y,1/2+z
x,-y,-z
-x,1/2+y,1/2-z
-x,-y,-z
x,1/2+y,1/2-z
-x,y,z
x,1/2-y,1/2+z
1/2+x,1/2+y,z
1/2-x,-y,1/2+z
1/2+x,1/2-y,-z
1/2-x,y,1/2-z
1/2-x,1/2-y,-z
1/2+x,y,1/2-z
1/2-x,1/2+y,z
1/2+x,-y,1/2+z
loop_
_atom_site_type_symbol
_atom_site_label
_atom_site_fract_x
_atom_site_fract_y
_atom_site_fract_z
Si Si1 0.914981 0.664665 0.768135
Si Si2 0.821294 0.088688 0.074266
Si Si3 0.582530 0.025826 0.854506
Si Si4 0.846025 0.622822 0.095103
Si Si5 0.320727 0.778834 0.345422
Si Si6 0.344677 0.758542 0.631744
Si Si7 0.857376 0.623627 0.957994
Si Si8 0.693223 0.583458 0.937598
O O1 0.891955 0.579675 0.796650
O O2 0.857842 0.686548 0.715279
O O3 0.907541 0.729059 0.822087
O O4 0.000000 0.664204 0.745431
O O5 0.739315 0.122393 0.079112
O O6 0.864993 0.150211 0.117571
O O7 0.829824 0.998490 0.096060
O O8 0.847244 0.093111 0.003248
O O9 0.500000 0.996185 0.843800
O O10 0.583809 0.077403 0.916702
O O11 0.633142 0.949293 0.860689
O O12 0.865292 0.702162 0.132054
O O13 0.886598 0.622367 0.028433
O O14 0.234745 0.757267 0.335394
O O15 0.331255 0.845068 0.396380
O O16 0.347119 0.712508 0.566442
O O17 0.780597 0.576981 0.949493
#
# Coordination Sequence:
#
# PCOD8261691 Si02
#       8
#    16  16  16  16  16  16  16  16
#     4  10  22  40  55  69 102 148 186 220 264 314
#     4   9  16  29  52  83 111 130 166 212 267 322
#     4  10  20  33  50  73 105 146 182 214 263 326
#     4  10  18  30  50  80 107 132 168 219 268 319
#     4  10  20  34  55  78 105 139 182 221 265 307
#     4   9  18  33  55  80 106 137 178 220 260 314
#     4   9  16  29  50  77 112 136 161 209 274 325
#     4   9  16  29  52  81 110 137 162 212 269 317
#
# _framework density 19.057796
#
# number of rings (size 3 to 8) (size 9 to 14) (size 15 to 20)
#    0.000    2.500    1.250    1.500    0.000    4.500 
#    2.250    0.000    0.000    2.250    0.000    1.750 
#    0.000    0.000    0.000    0.000    0.000    0.000 
#
# Total GULP energy -793218.815782 kJ/mol
# GULP energy per Si atom -12394.043997 kJ/mol
# Density = 1.901442 g / cm^3
# Si number density = 19.057796 Si / 1000 Ang^3
#
#
#
# Elastic Constant Matrix: (Units=GPa)
#
#
# Indices 1 2 3 4 5 6 
#
# 1 28.3925 23.9858 20.9545 0.0000 0.0000 0.0000
# 2 23.9858 146.7836 49.6250 0.0000 0.0000 0.0000
# 3 20.9545 49.6250 85.2688 0.0000 0.0000 0.0000
# 4 0.0000 0.0000 0.0000 25.7268 0.0000 0.0000
# 5 0.0000 0.0000 0.0000 0.0000 11.3998 0.0000
# 6 0.0000 0.0000 0.0000 0.0000 0.0000 13.1558
#
#
#
# Elastic Compliance Matrix: (Units=1/GPa)
#
#
# Indices 1 2 3 4 5 6 
#
# 1 0.045323 -0.004532 -0.008500 0.000000 0.000000 0.000000
# 2 -0.004532 0.008935 -0.004086 0.000000 0.000000 0.000000
# 3 -0.008500 -0.004086 0.016195 0.000000 0.000000 0.000000
# 4 0.000000 0.000000 0.000000 0.038870 0.000000 0.000000
# 5 0.000000 0.000000 0.000000 0.000000 0.087721 0.000000
# 6 0.000000 0.000000 0.000000 0.000000 0.000000 0.076012
#
#
# Mechanical properties :
#
#
# Convention : Reuss Voigt Hill
#
# Bulk Modulus (GPa) = 27.61289 49.95284 38.78286
# Shear Modulus (GPa) = 15.65612 21.11513 18.38562
#
# Velocity S-wave (km/s) = 2.86930 3.33220 3.10938
# Velocity P-wave (km/s) = 5.04952 6.40881 5.76934
#
# Compressibility (1/GPa) = 0.03621497
#
# Stress axis : x y z
#
# Youngs Moduli (GPa) = 22.06387 111.92162 61.74925
#
# Poissons Ratio (x) = 0.50728 0.52488
# Poissons Ratio (y) = 0.10000 0.25231
# Poissons Ratio (z) = 0.18755 0.45732
#
# Static dielectric constant tensor:
#      x y z
#    x 3.043990 0.000000 0.000000 
#    y 0.000000 3.624150 0.000000 
#    z 0.000000 0.000000 3.426170 
# 
# 
# High freq. dielectric constant tensor:
#      x y z
#    x 1.692860 0.000000 0.000000 
#    y 0.000000 1.753020 0.000000 
#    z 0.000000 0.000000 1.728020 
# 
# From -- ./inp_files/41163.got.cif
#   From: 2010.03.12/outbox.cif.g09.slc.cpg/sg64_21_cif.got.tgz:41163.got - 2010.04.10 20:19:32.
