data_PCOD8261873
_publ_section_title
;
Structure prediction by ZEFSAII (Michael W. Deem and Ramdas Pophale) SiO2 
 PCOD8261873
Probable space group: C M C A
;
_chemical_formula_sum "Si O2"
_cell_formula_units_Z 80
_cell_length_a 18.049476
_cell_length_b 14.500522
_cell_length_c 15.272815
_cell_angle_alpha 90.000000
_cell_angle_beta 90.000000
_cell_angle_gamma 90.000000
_cell_volume 3997.305361
_symmetry_space_group_name_H-M "C M C A"
_symmetry_group_IT_number 64
_symmetry_cell_setting 'orthorhombic'
loop_
_space_group_symop_operation_xyz
x,y,z
-x,1/2-y,1/2+z
x,-y,-z
-x,1/2+y,1/2-z
-x,-y,-z
x,1/2+y,1/2-z
-x,y,z
x,1/2-y,1/2+z
1/2+x,1/2+y,z
1/2-x,-y,1/2+z
1/2+x,1/2-y,-z
1/2-x,y,1/2-z
1/2-x,1/2-y,-z
1/2+x,y,1/2-z
1/2-x,1/2+y,z
1/2+x,-y,1/2+z
loop_
_atom_site_type_symbol
_atom_site_label
_atom_site_fract_x
_atom_site_fract_y
_atom_site_fract_z
Si Si1 0.683033 0.392879 0.007141
Si Si2 0.081090 0.419332 0.061379
Si Si3 0.286367 0.070848 0.836689
Si Si4 0.916775 0.760561 0.572873
Si Si5 0.221914 0.354082 0.842524
O O1 0.745444 0.384596 0.080995
O O2 0.610076 0.339092 0.038691
O O3 0.659930 0.500000 0.000000
O O4 0.717294 0.343769 0.920460
O O5 0.127834 0.401986 0.149875
O O6 0.000000 0.454219 0.090497
O O7 0.117887 0.500000 0.000000
O O8 0.076626 0.324262 0.011270
O O9 0.250000 0.114386 0.750000
O O10 0.288004 0.961908 0.831000
O O11 0.856585 0.804448 0.638897
O O12 0.000000 0.751317 0.615116
O O13 0.250000 0.311917 0.750000
#
# Coordination Sequence:
#
# PCOD8261873 Si02
#       5
#    16  16  16  16  16
#     4  10  21  40  59  83 122 163 206 244 292 361
#     4  10  18  33  58  86 118 150 190 251 311 352
#     4  10  19  34  59  89 118 159 202 243 298 358
#     4  11  22  37  60  87 117 155 199 249 304 357
#     4  10  20  36  61  90 118 154 202 251 299 354
#
# _framework density 20.013482
#
# number of rings (size 3 to 8) (size 9 to 14) (size 15 to 20)
#    0.000    1.800    4.000    1.200    0.000    1.200 
#    0.000    2.000    0.000    7.200    0.000    0.000 
#    0.000    0.000    0.000    0.000    0.000    0.000 
#
# Total GULP energy -495658.216841 kJ/mol
# GULP energy per Si atom -12391.455421 kJ/mol
# Density = 1.996793 g / cm^3
# Si number density = 20.013482 Si / 1000 Ang^3
#
#
#
# Elastic Constant Matrix: (Units=GPa)
#
#
# Indices 1 2 3 4 5 6 
#
# 1 154.1239 40.6813 72.2014 0.0000 0.0000 0.0000
# 2 40.6813 58.8422 21.1096 0.0000 0.0000 0.0000
# 3 72.2014 21.1096 136.1662 0.0000 0.0000 0.0000
# 4 0.0000 0.0000 0.0000 8.3568 0.0000 0.0000
# 5 0.0000 0.0000 0.0000 0.0000 17.7069 0.0000
# 6 0.0000 0.0000 0.0000 0.0000 0.0000 18.7279
#
#
#
# Elastic Compliance Matrix: (Units=1/GPa)
#
#
# Indices 1 2 3 4 5 6 
#
# 1 0.009981 -0.005296 -0.004471 0.000000 0.000000 0.000000
# 2 -0.005296 0.020806 -0.000417 0.000000 0.000000 0.000000
# 3 -0.004471 -0.000417 0.009779 0.000000 0.000000 0.000000
# 4 0.000000 0.000000 0.000000 0.119664 0.000000 0.000000
# 5 0.000000 0.000000 0.000000 0.000000 0.056475 0.000000
# 6 0.000000 0.000000 0.000000 0.000000 0.000000 0.053396
#
#
# Mechanical properties :
#
#
# Convention : Reuss Voigt Hill
#
# Bulk Modulus (GPa) = 49.51265 68.56856 59.04061
# Shear Modulus (GPa) = 16.82349 23.30096 20.06222
#
# Velocity S-wave (km/s) = 2.90247 3.41583 3.16956
# Velocity P-wave (km/s) = 6.00215 7.06348 6.55433
#
# Compressibility (1/GPa) = 0.02019686
#
# Stress axis : x y z
#
# Youngs Moduli (GPa) = 100.19155 48.06317 102.25491
#
# Poissons Ratio (x) = 0.25456 0.45720
# Poissons Ratio (y) = 0.53065 0.04265
# Poissons Ratio (z) = 0.44798 0.02005
#
# Static dielectric constant tensor:
#      x y z
#    x 3.963990 0.000000 0.000000 
#    y 0.000000 3.668500 0.000000 
#    z 0.000000 0.000000 3.807820 
# 
# 
# High freq. dielectric constant tensor:
#      x y z
#    x 1.775630 0.000000 0.000000 
#    y 0.000000 1.787950 0.000000 
#    z 0.000000 0.000000 1.757560 
# 
# From -- ./inp_files/33000.got.cif
#   From: 2010.03.12/outbox.cif.g09.slc.cpg/sg64_17_cif.got.tgz:33000.got - 2010.04.10 20:19:32.
