data_PCOD8261712
_publ_section_title
;
Structure prediction by ZEFSAII (Michael W. Deem and Ramdas Pophale) SiO2 
 PCOD8261712
Probable space group: C M C A
;
_chemical_formula_sum "Si O2"
_cell_formula_units_Z 80
_cell_length_a 19.025286
_cell_length_b 12.506952
_cell_length_c 19.774108
_cell_angle_alpha 90.000000
_cell_angle_beta 90.000000
_cell_angle_gamma 90.000000
_cell_volume 4705.216150
_symmetry_space_group_name_H-M "C M C A"
_symmetry_group_IT_number 64
_symmetry_cell_setting 'orthorhombic'
loop_
_space_group_symop_operation_xyz
x,y,z
-x,1/2-y,1/2+z
x,-y,-z
-x,1/2+y,1/2-z
-x,-y,-z
x,1/2+y,1/2-z
-x,y,z
x,1/2-y,1/2+z
1/2+x,1/2+y,z
1/2-x,-y,1/2+z
1/2+x,1/2-y,-z
1/2-x,y,1/2-z
1/2-x,1/2-y,-z
1/2+x,y,1/2-z
1/2-x,1/2+y,z
1/2+x,-y,1/2+z
loop_
_atom_site_type_symbol
_atom_site_label
_atom_site_fract_x
_atom_site_fract_y
_atom_site_fract_z
Si Si1 0.418437 0.506575 0.076993
Si Si2 0.918364 0.710189 0.337486
Si Si3 0.667525 0.590795 0.677970
Si Si4 0.326154 0.637327 0.285681
Si Si5 0.180211 0.359373 0.335378
O O1 0.500000 0.476438 0.084348
O O2 0.404125 0.627428 0.101685
O O3 0.377169 0.418630 0.119997
O O4 0.392860 0.500000 0.000000
O O5 0.887451 0.827384 0.356649
O O6 0.883043 0.661194 0.271364
O O7 0.000000 0.724631 0.322285
O O8 0.647934 0.466029 0.671969
O O9 0.742293 0.606206 0.641273
O O10 0.669958 0.614981 0.757145
O O11 0.250000 0.620080 0.250000
O O12 0.324734 0.730928 0.341657
#
# Coordination Sequence:
#
# PCOD8261712 Si02
#       5
#    16  16  16  16  16
#     4  10  21  38  57  76 106 146 187 227 261 312
#     4  10  20  32  50  76 105 137 179 217 264 320
#     4  10  18  30  53  78 112 135 164 221 280 319
#     4  11  17  31  52  79 108 139 164 216 278 319
#     4  10  18  30  54  79 104 140 175 212 266 326
#
# _framework density 17.002407000000002
#
# number of rings (size 3 to 8) (size 9 to 14) (size 15 to 20)
#    0.000    1.800    8.000    0.000    0.000    4.000 
#    0.000    1.000    0.000    0.000    0.000    4.200 
#    0.000    0.000    0.000    0.000    0.000    0.000 
#
# Total GULP energy -495807.183739 kJ/mol
# GULP energy per Si atom -12395.179593 kJ/mol
# Density = 1.696371 g / cm^3
# Si number density = 17.002407 Si / 1000 Ang^3
#
#
#
# Elastic Constant Matrix: (Units=GPa)
#
#
# Indices 1 2 3 4 5 6 
#
# 1 88.7293 46.5418 28.8325 0.0000 0.0000 0.0000
# 2 46.5418 157.9601 28.1641 0.0000 0.0000 0.0000
# 3 28.8325 28.1641 46.1265 0.0000 0.0000 0.0000
# 4 0.0000 0.0000 0.0000 14.1641 0.0000 0.0000
# 5 0.0000 0.0000 0.0000 0.0000 17.9972 0.0000
# 6 0.0000 0.0000 0.0000 0.0000 0.0000 30.9353
#
#
#
# Elastic Compliance Matrix: (Units=1/GPa)
#
#
# Indices 1 2 3 4 5 6 
#
# 1 0.015442 -0.003174 -0.007714 0.000000 0.000000 0.000000
# 2 -0.003174 0.007757 -0.002752 0.000000 0.000000 0.000000
# 3 -0.007714 -0.002752 0.028182 0.000000 0.000000 0.000000
# 4 0.000000 0.000000 0.000000 0.070601 0.000000 0.000000
# 5 0.000000 0.000000 0.000000 0.000000 0.055564 0.000000
# 6 0.000000 0.000000 0.000000 0.000000 0.000000 0.032326
#
#
# Mechanical properties :
#
#
# Convention : Reuss Voigt Hill
#
# Bulk Modulus (GPa) = 41.49465 55.54364 48.51914
# Shear Modulus (GPa) = 20.39275 25.23783 22.81529
#
# Velocity S-wave (km/s) = 3.46700 3.85693 3.66715
# Velocity P-wave (km/s) = 6.36278 7.25076 6.82123
#
# Compressibility (1/GPa) = 0.02409949
#
# Stress axis : x y z
#
# Youngs Moduli (GPa) = 64.75819 128.92095 35.48407
#
# Poissons Ratio (x) = 0.40925 0.27373
# Poissons Ratio (y) = 0.20557 0.09765
# Poissons Ratio (z) = 0.49956 0.35477
#
# Static dielectric constant tensor:
#      x y z
#    x 3.262680 0.000000 0.000000 
#    y 0.000000 3.883080 0.000000 
#    z 0.000000 0.000000 2.791060 
# 
# 
# High freq. dielectric constant tensor:
#      x y z
#    x 1.658690 0.000000 0.000000 
#    y 0.000000 1.678420 0.000000 
#    z 0.000000 0.000000 1.598100 
# 
# From -- ./inp_files/40129.got.cif
#   From: 2010.03.12/outbox.cif.g09.slc.cpg/sg64_21_cif.got.tgz:40129.got - 2010.04.10 20:19:32.
