data_PCOD8261869
_publ_section_title
;
Structure prediction by ZEFSAII (Michael W. Deem and Ramdas Pophale) SiO2 
 PCOD8261869
Probable space group: C M C A
;
_chemical_formula_sum "Si O2"
_cell_formula_units_Z 96
_cell_length_a 8.592389
_cell_length_b 29.619910
_cell_length_c 19.217598
_cell_angle_alpha 90.000000
_cell_angle_beta 90.000000
_cell_angle_gamma 90.000000
_cell_volume 4890.989939
_symmetry_space_group_name_H-M "C M C A"
_symmetry_group_IT_number 64
_symmetry_cell_setting 'orthorhombic'
loop_
_space_group_symop_operation_xyz
x,y,z
-x,1/2-y,1/2+z
x,-y,-z
-x,1/2+y,1/2-z
-x,-y,-z
x,1/2+y,1/2-z
-x,y,z
x,1/2-y,1/2+z
1/2+x,1/2+y,z
1/2-x,-y,1/2+z
1/2+x,1/2-y,-z
1/2-x,y,1/2-z
1/2-x,1/2-y,-z
1/2+x,y,1/2-z
1/2-x,1/2+y,z
1/2+x,-y,1/2+z
loop_
_atom_site_type_symbol
_atom_site_label
_atom_site_fract_x
_atom_site_fract_y
_atom_site_fract_z
Si Si1 0.184334 0.164111 0.940226
Si Si2 0.181572 0.605446 0.175690
Si Si3 0.816691 0.267184 0.326548
Si Si4 0.321010 0.020222 0.094083
Si Si5 0.817514 0.315990 0.593464
Si Si6 0.682375 0.436709 0.041748
O O1 0.252712 0.193417 0.876430
O O2 0.242459 0.112390 0.933490
O O3 0.000000 0.164647 0.937535
O O4 0.237786 0.186799 0.013067
O O5 0.250000 0.617830 0.250000
O O6 0.209346 0.552427 0.160232
O O7 0.276032 0.633954 0.118918
O O8 0.000000 0.618115 0.172410
O O9 0.750000 0.273231 0.250000
O O10 0.774080 0.219197 0.359101
O O11 0.000000 0.270824 0.321212
O O12 0.500000 0.005974 0.089092
O O13 0.219116 0.974352 0.101070
O O14 0.276889 0.048691 0.025958
O O15 0.000000 0.306954 0.601175
O O16 0.500000 0.435846 0.024411
#
# Coordination Sequence:
#
# PCOD8261869 Si02
#       6
#    16  16  16  16  16  16
#     4   9  20  37  60  87 114 145 189 238 279 335
#     4  11  23  37  55  81 116 155 192 236 288 342
#     4  11  23  41  59  82 115 151 190 232 283 340
#     4  10  20  34  52  81 115 146 183 231 279 331
#     4  11  21  38  61  86 113 145 188 237 288 342
#     4  10  18  33  58  84 109 145 185 228 278 331
#
# _framework density 19.627928000000001
#
# number of rings (size 3 to 8) (size 9 to 14) (size 15 to 20)
#    0.000    1.667    1.667    4.500    0.000    2.000 
#    0.000    6.667    0.000    4.000    0.000    0.000 
#    0.000    0.000    0.000    0.000    0.000    0.000 
#
# Total GULP energy -595184.099716 kJ/mol
# GULP energy per Si atom -12399.668744 kJ/mol
# Density = 1.958325 g / cm^3
# Si number density = 19.627928 Si / 1000 Ang^3
#
#
#
# Elastic Constant Matrix: (Units=GPa)
#
#
# Indices 1 2 3 4 5 6 
#
# 1 47.3742 18.5700 26.4456 0.0000 0.0000 0.0000
# 2 18.5700 100.4352 55.2363 0.0000 0.0000 0.0000
# 3 26.4456 55.2363 127.9054 0.0000 0.0000 0.0000
# 4 0.0000 0.0000 0.0000 20.1048 0.0000 0.0000
# 5 0.0000 0.0000 0.0000 0.0000 21.7124 0.0000
# 6 0.0000 0.0000 0.0000 0.0000 0.0000 24.4340
#
#
#
# Elastic Compliance Matrix: (Units=1/GPa)
#
#
# Indices 1 2 3 4 5 6 
#
# 1 0.024249 -0.002264 -0.004036 0.000000 0.000000 0.000000
# 2 -0.002264 0.013269 -0.005262 0.000000 0.000000 0.000000
# 3 -0.004036 -0.005262 0.010925 0.000000 0.000000 0.000000
# 4 0.000000 0.000000 0.000000 0.049739 0.000000 0.000000
# 5 0.000000 0.000000 0.000000 0.000000 0.046057 0.000000
# 6 0.000000 0.000000 0.000000 0.000000 0.000000 0.040927
#
#
# Mechanical properties :
#
#
# Convention : Reuss Voigt Hill
#
# Bulk Modulus (GPa) = 39.49570 52.91318 46.20444
# Shear Modulus (GPa) = 23.07013 24.94777 24.00895
#
# Velocity S-wave (km/s) = 3.43209 3.56902 3.50123
# Velocity P-wave (km/s) = 5.98929 6.63329 6.31950
#
# Compressibility (1/GPa) = 0.02531921
#
# Stress axis : x y z
#
# Youngs Moduli (GPa) = 41.23893 75.36158 91.53045
#
# Poissons Ratio (x) = 0.17060 0.36942
# Poissons Ratio (y) = 0.09336 0.48166
# Poissons Ratio (z) = 0.16644 0.39658
#
# Static dielectric constant tensor:
#      x y z
#    x 3.475770 0.000000 0.000000 
#    y 0.000000 3.974420 0.000000 
#    z 0.000000 0.000000 4.022730 
# 
# 
# High freq. dielectric constant tensor:
#      x y z
#    x 1.760650 0.000000 0.000000 
#    y 0.000000 1.775980 0.000000 
#    z 0.000000 0.000000 1.749450 
# 
# From -- ./inp_files/37051.got.cif
#   From: 2010.03.12/outbox.cif.g09.slc.cpg/sg64_19_cif.got.tgz:37051.got - 2010.04.10 20:19:32.
