data_PCOD8261257
_publ_section_title
;
Structure prediction by ZEFSAII (Michael W. Deem and Ramdas Pophale) SiO2 
 PCOD8261257
Probable space group: C M C M
;
_chemical_formula_sum "Si O2"
_cell_formula_units_Z 80
_cell_length_a 25.947366
_cell_length_b 8.704379
_cell_length_c 17.803174
_cell_angle_alpha 90.000000
_cell_angle_beta 90.000000
_cell_angle_gamma 90.000000
_cell_volume 4020.948463
_symmetry_space_group_name_H-M "C M C M"
_symmetry_group_IT_number 63
_symmetry_cell_setting 'orthorhombic'
loop_
_space_group_symop_operation_xyz
x,y,z
-x,-y,1/2+z
x,-y,-z
-x,y,1/2-z
-x,-y,-z
x,y,1/2-z
-x,y,z
x,-y,1/2+z
1/2+x,1/2+y,z
1/2-x,1/2-y,1/2+z
1/2+x,1/2-y,-z
1/2-x,1/2+y,1/2-z
1/2-x,1/2-y,-z
1/2+x,1/2+y,1/2-z
1/2-x,1/2+y,z
1/2+x,1/2-y,1/2+z
loop_
_atom_site_type_symbol
_atom_site_label
_atom_site_fract_x
_atom_site_fract_y
_atom_site_fract_z
Si Si1 0.789929 0.749339 0.165827
Si Si2 0.794267 0.939757 0.917063
Si Si3 0.611298 0.887172 0.889702
Si Si4 0.000000 0.281071 0.442923
Si Si5 0.000000 0.599470 0.110918
Si Si6 0.611109 0.232092 0.553532
O O1 0.766957 0.744623 0.250000
O O2 0.751664 0.672613 0.106424
O O3 0.844355 0.659734 0.167937
O O4 0.798607 0.924511 0.142585
O O5 0.847836 0.848787 0.912966
O O6 0.781507 0.000000 0.000000
O O7 0.554627 0.841181 0.854845
O O8 0.613804 0.069049 0.904578
O O9 0.622145 0.791774 0.965641
O O10 0.945904 0.189292 0.434126
O O11 0.000000 0.359698 0.523755
O O12 0.000000 0.415493 0.380947
#
# Coordination Sequence:
#
# PCOD8261257 Si02
#       6
#    16  16  16   8   8  16
#     4  12  26  41  57  82 117 153 191 240 299 348
#     4  12  24  40  60  85 112 152 196 244 285 346
#     4   9  17  33  59  87 118 147 189 231 281 335
#     4   7  12  26  50  86 122 141 176 232 281 323
#     4   7  12  26  52  85 115 150 180 225 273 331
#     4   9  17  32  59  90 115 147 188 235 279 328
#
# _framework density 19.895803999999998
#
# number of rings (size 3 to 8) (size 9 to 14) (size 15 to 20)
#    0.000    2.200    2.000    4.800    2.800    0.000 
#    0.000    3.000    0.000    0.000    0.000    4.900 
#    0.000    0.000    0.000    0.000    0.000    0.000 
#
# Total GULP energy -495648.708750 kJ/mol
# GULP energy per Si atom -12391.217719 kJ/mol
# Density = 1.985052 g / cm^3
# Si number density = 19.895804 Si / 1000 Ang^3
#
#
#
# Elastic Constant Matrix: (Units=GPa)
#
#
# Indices 1 2 3 4 5 6 
#
# 1 185.5264 60.1376 35.6110 0.0000 0.0000 0.0000
# 2 60.1376 74.4965 25.2871 0.0000 0.0000 0.0000
# 3 35.6110 25.2871 58.8355 0.0000 0.0000 0.0000
# 4 0.0000 0.0000 0.0000 14.3151 0.0000 0.0000
# 5 0.0000 0.0000 0.0000 0.0000 9.1043 0.0000
# 6 0.0000 0.0000 0.0000 0.0000 0.0000 28.7640
#
#
#
# Elastic Compliance Matrix: (Units=1/GPa)
#
#
# Indices 1 2 3 4 5 6 
#
# 1 0.007554 -0.005322 -0.002285 0.000000 0.000000 0.000000
# 2 -0.005322 0.019466 -0.005145 0.000000 0.000000 0.000000
# 3 -0.002285 -0.005145 0.020591 0.000000 0.000000 0.000000
# 4 0.000000 0.000000 0.000000 0.069856 0.000000 0.000000
# 5 0.000000 0.000000 0.000000 0.000000 0.109838 0.000000
# 6 0.000000 0.000000 0.000000 0.000000 0.000000 0.034766
#
#
# Mechanical properties :
#
#
# Convention : Reuss Voigt Hill
#
# Bulk Modulus (GPa) = 45.23483 62.32552 53.78018
# Shear Modulus (GPa) = 16.95236 23.62485 20.28861
#
# Velocity S-wave (km/s) = 2.92217 3.44965 3.19681
# Velocity P-wave (km/s) = 5.84557 6.87464 6.38088
#
# Compressibility (1/GPa) = 0.02210686
#
# Stress axis : x y z
#
# Youngs Moduli (GPa) = 132.38362 51.37056 48.56582
#
# Poissons Ratio (x) = 0.27341 0.11095
# Poissons Ratio (y) = 0.70460 0.24987
# Poissons Ratio (z) = 0.30243 0.26431
#
# Static dielectric constant tensor:
#      x y z
#    x 4.124460 0.000000 0.000000 
#    y 0.000000 3.408850 0.000000 
#    z 0.000000 0.000000 3.154990 
# 
# 
# High freq. dielectric constant tensor:
#      x y z
#    x 1.803600 0.000000 0.000000 
#    y 0.000000 1.754560 0.000000 
#    z 0.000000 0.000000 1.730460 
# 
# From -- ./inp_files/48881.got.cif
#   From: 2010.03.12/outbox.cif.g09.slc.cpg/sg63_25_cif.got.tgz:48881.got - 2010.04.10 19:34:48.
