data_PCOD8261730
_publ_section_title
;
Structure prediction by ZEFSAII (Michael W. Deem and Ramdas Pophale) SiO2 
 PCOD8261730
Probable space group: C M C A
;
_chemical_formula_sum "Si O2"
_cell_formula_units_Z 80
_cell_length_a 8.571765
_cell_length_b 25.812228
_cell_length_c 19.641163
_cell_angle_alpha 90.000000
_cell_angle_beta 90.000000
_cell_angle_gamma 90.000000
_cell_volume 4345.732085
_symmetry_space_group_name_H-M "C M C A"
_symmetry_group_IT_number 64
_symmetry_cell_setting 'orthorhombic'
loop_
_space_group_symop_operation_xyz
x,y,z
-x,1/2-y,1/2+z
x,-y,-z
-x,1/2+y,1/2-z
-x,-y,-z
x,1/2+y,1/2-z
-x,y,z
x,1/2-y,1/2+z
1/2+x,1/2+y,z
1/2-x,-y,1/2+z
1/2+x,1/2-y,-z
1/2-x,y,1/2-z
1/2-x,1/2-y,-z
1/2+x,y,1/2-z
1/2-x,1/2+y,z
1/2+x,-y,1/2+z
loop_
_atom_site_type_symbol
_atom_site_label
_atom_site_fract_x
_atom_site_fract_y
_atom_site_fract_z
Si Si1 0.817301 0.143510 0.824629
Si Si2 0.684183 0.558131 0.425557
Si Si3 0.315473 0.748200 0.674339
Si Si4 0.815360 0.058579 0.578949
Si Si5 0.314794 0.354105 0.674411
O O1 0.750000 0.132725 0.750000
O O2 0.741158 0.194681 0.860486
O O3 0.781023 0.094536 0.870958
O O4 0.000000 0.152512 0.818179
O O5 0.500000 0.561319 0.425658
O O6 0.733574 0.500387 0.403306
O O7 0.740189 0.570966 0.502037
O O8 0.753142 0.599756 0.372500
O O9 0.500000 0.752211 0.673265
O O10 0.250000 0.745268 0.750000
O O11 0.243783 0.800040 0.640665
O O12 0.000000 0.067365 0.588427
O O13 0.500000 0.354172 0.677307
O O14 0.250000 0.361828 0.750000
#
# Coordination Sequence:
#
# PCOD8261730 Si02
#       5
#    16  16  16  16  16
#     4  11  21  34  52  77 103 132 166 208 252 298
#     4   8  17  33  55  75 100 136 171 204 250 301
#     4  10  18  31  50  73  99 132 165 203 250 299
#     4   9  17  35  56  75  99 134 172 208 249 299
#     4  10  18  31  50  76 103 132 166 205 247 295
#
# _framework density 18.408867000000001
#
# number of rings (size 3 to 8) (size 9 to 14) (size 15 to 20)
#    0.000    2.400    0.000    7.800    0.000    0.800 
#    0.000    9.000    0.000    0.000    0.000    0.000 
#    0.000    0.000    0.000    0.000    0.000    0.000 
#
# Total GULP energy -495819.011955 kJ/mol
# GULP energy per Si atom -12395.475299 kJ/mol
# Density = 1.836697 g / cm^3
# Si number density = 18.408867 Si / 1000 Ang^3
#
#
#
# Elastic Constant Matrix: (Units=GPa)
#
#
# Indices 1 2 3 4 5 6 
#
# 1 90.8872 37.7940 25.7031 0.0000 0.0000 0.0000
# 2 37.7940 165.4323 76.4704 0.0000 0.0000 0.0000
# 3 25.7031 76.4704 77.4327 0.0000 0.0000 0.0000
# 4 0.0000 0.0000 0.0000 8.3758 0.0000 0.0000
# 5 0.0000 0.0000 0.0000 0.0000 18.0396 0.0000
# 6 0.0000 0.0000 0.0000 0.0000 0.0000 23.1024
#
#
#
# Elastic Compliance Matrix: (Units=1/GPa)
#
#
# Indices 1 2 3 4 5 6 
#
# 1 0.012400 -0.001712 -0.002426 0.000000 0.000000 0.000000
# 2 -0.001712 0.011358 -0.010649 0.000000 0.000000 0.000000
# 3 -0.002426 -0.010649 0.024236 0.000000 0.000000 0.000000
# 4 0.000000 0.000000 0.000000 0.119392 0.000000 0.000000
# 5 0.000000 0.000000 0.000000 0.000000 0.055434 0.000000
# 6 0.000000 0.000000 0.000000 0.000000 0.000000 0.043286
#
#
# Mechanical properties :
#
#
# Convention : Reuss Voigt Hill
#
# Bulk Modulus (GPa) = 54.28252 68.18745 61.23499
# Shear Modulus (GPa) = 16.56620 22.82252 19.69436
#
# Velocity S-wave (km/s) = 3.00309 3.52484 3.27437
# Velocity P-wave (km/s) = 6.44794 7.32714 6.90155
#
# Compressibility (1/GPa) = 0.01842214
#
# Stress axis : x y z
#
# Youngs Moduli (GPa) = 80.64229 88.04203 41.26049
#
# Poissons Ratio (x) = 0.15069 0.10009
# Poissons Ratio (y) = 0.13803 0.43938
# Poissons Ratio (z) = 0.19563 0.93755
#
# Static dielectric constant tensor:
#      x y z
#    x 3.219600 0.000000 0.000000 
#    y 0.000000 4.210860 0.000000 
#    z 0.000000 0.000000 3.358890 
# 
# 
# High freq. dielectric constant tensor:
#      x y z
#    x 1.706550 0.000000 0.000000 
#    y 0.000000 1.735210 0.000000 
#    z 0.000000 0.000000 1.682660 
# 
# From -- ./inp_files/29735.got.cif
#   From: 2010.03.12/outbox.cif.g09.slc.cpg/sg64_15_cif.got.tgz:29735.got - 2010.04.10 20:19:32.
