data_PCOD8261001
_publ_section_title
;
Structure prediction by ZEFSAII (Michael W. Deem and Ramdas Pophale) SiO2 
 PCOD8261001
Probable space group: C M C M
;
_chemical_formula_sum "Si O2"
_cell_formula_units_Z 104
_cell_length_a 26.177148
_cell_length_b 21.852424
_cell_length_c 8.591101
_cell_angle_alpha 90.000000
_cell_angle_beta 90.000000
_cell_angle_gamma 90.000000
_cell_volume 4914.403048
_symmetry_space_group_name_H-M "C M C M"
_symmetry_group_IT_number 63
_symmetry_cell_setting 'orthorhombic'
loop_
_space_group_symop_operation_xyz
x,y,z
-x,-y,1/2+z
x,-y,-z
-x,y,1/2-z
-x,-y,-z
x,y,1/2-z
-x,y,z
x,-y,1/2+z
1/2+x,1/2+y,z
1/2-x,1/2-y,1/2+z
1/2+x,1/2-y,-z
1/2-x,1/2+y,1/2-z
1/2-x,1/2-y,-z
1/2+x,1/2+y,1/2-z
1/2-x,1/2+y,z
1/2+x,1/2-y,1/2+z
loop_
_atom_site_type_symbol
_atom_site_label
_atom_site_fract_x
_atom_site_fract_y
_atom_site_fract_z
Si Si1 0.209447 0.146454 0.066305
Si Si2 0.700510 0.937059 0.564974
Si Si3 0.356142 0.245712 0.927979
Si Si4 0.057014 0.841237 0.573938
Si Si5 0.104888 0.381836 0.435223
Si Si6 0.376733 0.564818 0.929340
Si Si7 0.500000 0.068555 0.434565
O O1 0.206416 0.152620 0.250000
O O2 0.265342 0.122513 0.013251
O O3 0.190803 0.213188 0.996840
O O4 0.170581 0.093888 0.019040
O O5 0.696397 0.940327 0.750000
O O6 0.644738 0.933952 0.486217
O O7 0.725633 0.000000 0.500000
O O8 0.342072 0.232960 0.750000
O O9 0.408360 0.282210 0.947673
O O10 0.368956 0.180300 0.005805
O O11 0.061823 0.866641 0.750000
O O12 0.073077 0.894096 0.454576
O O13 0.000000 0.820169 0.534262
O O14 0.097954 0.379493 0.250000
O O15 0.049871 0.394642 0.509490
O O16 0.362583 0.559589 0.750000
O O17 0.389618 0.500000 0.000000
O O18 0.500000 0.064653 0.250000
O O19 0.500000 0.000000 0.500000
#
# Coordination Sequence:
#
# PCOD8261001 Si02
#       7
#    16  16  16  16  16  16   8
#     4   9  19  38  61  85 116 156 198 242 290 348
#     4  11  23  39  61  89 123 159 201 249 300 352
#     4   8  17  35  60  88 117 153 196 237 288 355
#     4   9  18  34  56  78 105 145 190 239 291 351
#     4  11  23  40  65  94 124 159 200 243 297 364
#     4  11  21  33  51  76 109 147 191 243 296 353
#     4  12  26  46  68  92 124 160 203 254 307 358
#
# _framework density 21.162286000000002
#
# number of rings (size 3 to 8) (size 9 to 14) (size 15 to 20)
#    0.000    2.000    0.000    4.846    1.077    3.692 
#    0.000    6.154    0.000    0.000    0.000    0.000 
#    0.000    0.000    0.000    0.000    0.000    0.000 
#
# Total GULP energy -644435.214558 kJ/mol
# GULP energy per Si atom -12392.984895 kJ/mol
# Density = 2.111412 g / cm^3
# Si number density = 21.162286 Si / 1000 Ang^3
#
#
#
# Elastic Constant Matrix: (Units=GPa)
#
#
# Indices 1 2 3 4 5 6 
#
# 1 132.3028 40.9259 34.2776 0.0000 0.0000 0.0000
# 2 40.9259 117.1641 36.9594 0.0000 0.0000 0.0000
# 3 34.2776 36.9594 28.4718 0.0000 0.0000 0.0000
# 4 0.0000 0.0000 0.0000 24.9190 0.0000 0.0000
# 5 0.0000 0.0000 0.0000 0.0000 28.6908 0.0000
# 6 0.0000 0.0000 0.0000 0.0000 0.0000 23.1644
#
#
#
# Elastic Compliance Matrix: (Units=1/GPa)
#
#
# Indices 1 2 3 4 5 6 
#
# 1 0.011007 0.000568 -0.013989 0.000000 0.000000 0.000000
# 2 0.000568 0.014483 -0.019484 0.000000 0.000000 0.000000
# 3 -0.013989 -0.019484 0.077256 0.000000 0.000000 0.000000
# 4 0.000000 0.000000 0.000000 0.040130 0.000000 0.000000
# 5 0.000000 0.000000 0.000000 0.000000 0.034854 0.000000
# 6 0.000000 0.000000 0.000000 0.000000 0.000000 0.043170
#
#
# Mechanical properties :
#
#
# Convention : Reuss Voigt Hill
#
# Bulk Modulus (GPa) = 27.07368 55.80716 41.44042
# Shear Modulus (GPa) = 16.72117 26.40655 21.56386
#
# Velocity S-wave (km/s) = 2.81399 3.53627 3.19560
# Velocity P-wave (km/s) = 4.83521 6.56520 5.76546
#
# Compressibility (1/GPa) = 0.03693624
#
# Stress axis : x y z
#
# Youngs Moduli (GPa) = 90.85125 69.04691 12.94395
#
# Poissons Ratio (x) = -0.03922 0.18107
# Poissons Ratio (y) = -0.05160 0.25220
# Poissons Ratio (z) = 1.27090 1.34532
#
# Static dielectric constant tensor:
#      x y z
#    x 4.015940 0.000000 0.000000 
#    y 0.000000 4.050350 0.000000 
#    z 0.000000 0.000000 3.621090 
# 
# 
# High freq. dielectric constant tensor:
#      x y z
#    x 1.835180 0.000000 0.000000 
#    y 0.000000 1.838820 0.000000 
#    z 0.000000 0.000000 1.806930 
# 
# From -- ./inp_files/12523.got.cif
#   From: 2010.03.12/outbox.cif.g09.slc.cpg/sg63_7_cif.got.tgz:12523.got - 2010.04.10 19:34:48.
