data_PCOD8261073
_publ_section_title
;
Structure prediction by ZEFSAII (Michael W. Deem and Ramdas Pophale) SiO2 
 PCOD8261073
Probable space group: C M C M
;
_chemical_formula_sum "Si O2"
_cell_formula_units_Z 80
_cell_length_a 13.504897
_cell_length_b 17.060241
_cell_length_c 18.957525
_cell_angle_alpha 90.000000
_cell_angle_beta 90.000000
_cell_angle_gamma 90.000000
_cell_volume 4367.753049
_symmetry_space_group_name_H-M "C M C M"
_symmetry_group_IT_number 63
_symmetry_cell_setting 'orthorhombic'
loop_
_space_group_symop_operation_xyz
x,y,z
-x,-y,1/2+z
x,-y,-z
-x,y,1/2-z
-x,-y,-z
x,y,1/2-z
-x,y,z
x,-y,1/2+z
1/2+x,1/2+y,z
1/2-x,1/2-y,1/2+z
1/2+x,1/2-y,-z
1/2-x,1/2+y,1/2-z
1/2-x,1/2-y,-z
1/2+x,1/2+y,1/2-z
1/2-x,1/2+y,z
1/2+x,1/2-y,1/2+z
loop_
_atom_site_type_symbol
_atom_site_label
_atom_site_fract_x
_atom_site_fract_y
_atom_site_fract_z
Si Si1 0.888036 0.167735 0.830901
Si Si2 0.887194 0.740963 0.832327
Si Si3 0.699531 0.924365 0.330485
Si Si4 0.887818 0.449915 0.570005
Si Si5 0.280438 0.788089 0.573507
O O1 0.874482 0.197600 0.750000
O O2 0.815647 0.093938 0.844198
O O3 0.861433 0.237401 0.884227
O O4 0.000000 0.139847 0.845101
O O5 0.863927 0.753801 0.750000
O O6 0.864513 0.651217 0.854303
O O7 0.817451 0.798043 0.877936
O O8 0.000000 0.760942 0.850830
O O9 0.677587 0.943344 0.250000
O O10 0.668055 0.001667 0.370499
O O11 0.887914 0.500000 0.500000
O O12 0.827346 0.371324 0.556303
O O13 0.000000 0.430844 0.593888
O O14 0.250000 0.750000 0.500000
#
# Coordination Sequence:
#
# PCOD8261073 Si02
#       5
#    16  16  16  16  16
#     4   9  18  35  58  81 107 141 179 218 262 315
#     4   9  18  35  57  78 104 141 181 218 259 313
#     4   9  18  33  55  82 109 138 173 213 261 316
#     4  11  23  37  53  76 107 140 173 214 266 319
#     4  11  22  35  54  79 108 140 179 224 268 314
#
# _framework density 18.316054000000001
#
# number of rings (size 3 to 8) (size 9 to 14) (size 15 to 20)
#    0.000    2.200    0.000    5.400    0.000    6.000 
#    0.000    1.000    0.000    4.800    0.000    0.000 
#    0.000    0.000    0.000    0.000    0.000    0.000 
#
# Total GULP energy -495991.778093 kJ/mol
# GULP energy per Si atom -12399.794452 kJ/mol
# Density = 1.827437 g / cm^3
# Si number density = 18.316054 Si / 1000 Ang^3
#
#
#
# Elastic Constant Matrix: (Units=GPa)
#
#
# Indices 1 2 3 4 5 6 
#
# 1 159.3648 55.9138 54.4246 0.0000 0.0000 0.0000
# 2 55.9138 101.0263 45.1806 0.0000 0.0000 0.0000
# 3 54.4246 45.1806 82.9915 0.0000 0.0000 0.0000
# 4 0.0000 0.0000 0.0000 33.0290 0.0000 0.0000
# 5 0.0000 0.0000 0.0000 0.0000 15.6654 0.0000
# 6 0.0000 0.0000 0.0000 0.0000 0.0000 22.2082
#
#
#
# Elastic Compliance Matrix: (Units=1/GPa)
#
#
# Indices 1 2 3 4 5 6 
#
# 1 0.008723 -0.003000 -0.004087 0.000000 0.000000 0.000000
# 2 -0.003000 0.014116 -0.005717 0.000000 0.000000 0.000000
# 3 -0.004087 -0.005717 0.017842 0.000000 0.000000 0.000000
# 4 0.000000 0.000000 0.000000 0.030276 0.000000 0.000000
# 5 0.000000 0.000000 0.000000 0.000000 0.063835 0.000000
# 6 0.000000 0.000000 0.000000 0.000000 0.000000 0.045028
#
#
# Mechanical properties :
#
#
# Convention : Reuss Voigt Hill
#
# Bulk Modulus (GPa) = 66.34803 72.71341 69.53072
# Shear Modulus (GPa) = 23.75812 26.70476 25.23144
#
# Velocity S-wave (km/s) = 3.60546 3.82252 3.71557
# Velocity P-wave (km/s) = 7.32360 7.69855 7.51341
#
# Compressibility (1/GPa) = 0.01507204
#
# Stress axis : x y z
#
# Youngs Moduli (GPa) = 114.63426 70.84350 56.04652
#
# Poissons Ratio (x) = 0.21254 0.22909
# Poissons Ratio (y) = 0.34391 0.32043
# Poissons Ratio (z) = 0.46856 0.40502
#
# Static dielectric constant tensor:
#      x y z
#    x 3.691880 0.000000 0.000000 
#    y 0.000000 3.087240 0.000000 
#    z 0.000000 0.000000 3.536010 
# 
# 
# High freq. dielectric constant tensor:
#      x y z
#    x 1.724160 0.000000 0.000000 
#    y 0.000000 1.678670 0.000000 
#    z 0.000000 0.000000 1.719490 
# 
# From -- ./inp_files/54006.got.cif
#   From: 2010.03.12/outbox.cif.g09.slc.cpg/sg63_28_cif.got.tgz:54006.got - 2010.04.10 19:34:48.
