data_PCOD8261896
_publ_section_title
;
Structure prediction by ZEFSAII (Michael W. Deem and Ramdas Pophale) SiO2 
 PCOD8261896
Probable space group: C M C A
;
_chemical_formula_sum "Si O2"
_cell_formula_units_Z 112
_cell_length_a 19.347599
_cell_length_b 11.669607
_cell_length_c 27.273762
_cell_angle_alpha 90.000000
_cell_angle_beta 90.000000
_cell_angle_gamma 90.000000
_cell_volume 6157.839348
_symmetry_space_group_name_H-M "C M C A"
_symmetry_group_IT_number 64
_symmetry_cell_setting 'orthorhombic'
loop_
_space_group_symop_operation_xyz
x,y,z
-x,1/2-y,1/2+z
x,-y,-z
-x,1/2+y,1/2-z
-x,-y,-z
x,1/2+y,1/2-z
-x,y,z
x,1/2-y,1/2+z
1/2+x,1/2+y,z
1/2-x,-y,1/2+z
1/2+x,1/2-y,-z
1/2-x,y,1/2-z
1/2-x,1/2-y,-z
1/2+x,y,1/2-z
1/2-x,1/2+y,z
1/2+x,-y,1/2+z
loop_
_atom_site_type_symbol
_atom_site_label
_atom_site_fract_x
_atom_site_fract_y
_atom_site_fract_z
Si Si1 0.165722 0.322969 0.212375
Si Si2 0.310178 0.874883 0.321493
Si Si3 0.078273 0.465879 0.150061
Si Si4 0.669892 0.841960 0.884007
Si Si5 0.421746 0.233561 0.921162
Si Si6 0.920320 0.375423 0.978841
Si Si7 0.322469 0.881349 0.642337
O O1 0.228588 0.395586 0.188059
O O2 0.161427 0.322235 0.270787
O O3 0.094990 0.382409 0.195444
O O4 0.175509 0.194689 0.191756
O O5 0.328466 0.787247 0.364513
O O6 0.344804 0.993482 0.338604
O O7 0.124832 0.578850 0.151878
O O8 0.093808 0.392742 0.100927
O O9 0.000000 0.506790 0.153668
O O10 0.634629 0.843131 0.937244
O O11 0.748286 0.888022 0.884369
O O12 0.500000 0.268755 0.908545
O O13 0.374353 0.332796 0.898630
O O14 0.410336 0.221218 0.979288
O O15 0.000000 0.373720 0.959108
O O16 0.902909 0.500000 0.000000
#
# Coordination Sequence:
#
# PCOD8261896 Si02
#       7
#    16  16  16  16  16  16  16
#     4   9  20  35  58  81 106 153 196 224 278 343
#     4  10  21  35  57  83 114 148 187 235 285 340
#     4  10  18  34  57  82 112 142 186 241 279 324
#     4  11  21  33  56  88 117 143 189 242 286 326
#     4   9  19  37  60  81 108 153 193 229 281 342
#     4  10  19  35  60  85 111 150 195 236 281 334
#     4  10  21  37  56  84 119 148 188 234 287 345
#
# _framework density 18.188198
#
# number of rings (size 3 to 8) (size 9 to 14) (size 15 to 20)
#    0.000    2.143    2.857    0.429    2.000    1.714 
#    0.000    4.286    0.000    1.714    0.000    0.000 
#    0.000    0.000    0.000    0.000    0.000    0.000 
#
# Total GULP energy -694183.312345 kJ/mol
# GULP energy per Si atom -12396.130578 kJ/mol
# Density = 1.814680 g / cm^3
# Si number density = 18.188198 Si / 1000 Ang^3
#
#
#
# Elastic Constant Matrix: (Units=GPa)
#
#
# Indices 1 2 3 4 5 6 
#
# 1 87.4569 38.2180 45.5980 0.0000 0.0000 0.0000
# 2 38.2180 89.8444 40.4578 0.0000 0.0000 0.0000
# 3 45.5980 40.4578 111.5535 0.0000 0.0000 0.0000
# 4 0.0000 0.0000 0.0000 20.6504 0.0000 0.0000
# 5 0.0000 0.0000 0.0000 0.0000 20.4363 0.0000
# 6 0.0000 0.0000 0.0000 0.0000 0.0000 29.0291
#
#
#
# Elastic Compliance Matrix: (Units=1/GPa)
#
#
# Indices 1 2 3 4 5 6 
#
# 1 0.015983 -0.004610 -0.004861 0.000000 0.000000 0.000000
# 2 -0.004610 0.014632 -0.003423 0.000000 0.000000 0.000000
# 3 -0.004861 -0.003423 0.012193 0.000000 0.000000 0.000000
# 4 0.000000 0.000000 0.000000 0.048425 0.000000 0.000000
# 5 0.000000 0.000000 0.000000 0.000000 0.048932 0.000000
# 6 0.000000 0.000000 0.000000 0.000000 0.000000 0.034448
#
#
# Mechanical properties :
#
#
# Convention : Reuss Voigt Hill
#
# Bulk Modulus (GPa) = 58.75119 59.71139 59.23129
# Shear Modulus (GPa) = 24.26297 24.99525 24.62911
#
# Velocity S-wave (km/s) = 3.65635 3.71112 3.68384
# Velocity P-wave (km/s) = 7.08500 7.15990 7.12255
#
# Compressibility (1/GPa) = 0.01702093
#
# Stress axis : x y z
#
# Youngs Moduli (GPa) = 62.56540 68.34105 82.01639
#
# Poissons Ratio (x) = 0.31504 0.39871
# Poissons Ratio (y) = 0.28842 0.28071
# Poissons Ratio (z) = 0.30415 0.23390
#
# Static dielectric constant tensor:
#      x y z
#    x 3.359870 0.000000 0.000000 
#    y 0.000000 3.173340 0.000000 
#    z 0.000000 0.000000 3.314170 
# 
# 
# High freq. dielectric constant tensor:
#      x y z
#    x 1.697370 0.000000 0.000000 
#    y 0.000000 1.694450 0.000000 
#    z 0.000000 0.000000 1.700190 
# 
# From -- ./inp_files/50854.got.cif
#   From: 2010.03.12/outbox.cif.g09.slc.cpg/sg64_26_cif.got.tgz:50854.got - 2010.04.10 20:19:32.
