data_PCOD8261450
_publ_section_title
;
Structure prediction by ZEFSAII (Michael W. Deem and Ramdas Pophale) SiO2 
 PCOD8261450
Probable space group: C M C A
;
_chemical_formula_sum "Si O2"
_cell_formula_units_Z 88
_cell_length_a 19.018341
_cell_length_b 18.652539
_cell_length_c 11.584328
_cell_angle_alpha 90.000000
_cell_angle_beta 90.000000
_cell_angle_gamma 90.000000
_cell_volume 4109.428537
_symmetry_space_group_name_H-M "C M C A"
_symmetry_group_IT_number 64
_symmetry_cell_setting 'orthorhombic'
loop_
_space_group_symop_operation_xyz
x,y,z
-x,1/2-y,1/2+z
x,-y,-z
-x,1/2+y,1/2-z
-x,-y,-z
x,1/2+y,1/2-z
-x,y,z
x,1/2-y,1/2+z
1/2+x,1/2+y,z
1/2-x,-y,1/2+z
1/2+x,1/2-y,-z
1/2-x,y,1/2-z
1/2-x,1/2-y,-z
1/2+x,y,1/2-z
1/2-x,1/2+y,z
1/2+x,-y,1/2+z
loop_
_atom_site_type_symbol
_atom_site_label
_atom_site_fract_x
_atom_site_fract_y
_atom_site_fract_z
Si Si1 0.750000 0.248569 0.250000
Si Si2 0.872929 0.713387 0.377453
Si Si3 0.579826 0.391240 0.695157
Si Si4 0.346465 0.867945 0.049037
Si Si5 0.315173 0.853885 0.413100
Si Si6 0.331585 0.977531 0.249647
O O1 0.791573 0.199779 0.160168
O O2 0.689295 0.297989 0.192834
O O3 0.922147 0.679024 0.278526
O O4 0.886279 0.798087 0.397883
O O5 0.875895 0.671134 0.498666
O O6 0.500000 0.412619 0.666697
O O7 0.621007 0.380794 0.576153
O O8 0.618861 0.453968 0.765525
O O9 0.263291 0.855268 0.032872
O O10 0.355982 0.935916 0.133396
O O11 0.341690 0.929130 0.363215
O O12 0.250000 0.000880 0.250000
#
# Coordination Sequence:
#
# PCOD8261450 Si02
#       6
#     8  16  16  16  16  16
#     4  10  16  36  62 108 130 152 208 276 324 378
#     4  11  21  36  66  96 130 165 208 265 328 380
#     4  12  28  44  61  93 134 179 222 259 318 391
#     4  10  21  40  69  94 125 164 217 272 319 376
#     4  10  18  36  64 102 130 154 203 269 333 382
#     4  10  22  42  65  98 131 163 213 265 324 384
#
# _framework density 21.414169000000001
#
# number of rings (size 3 to 8) (size 9 to 14) (size 15 to 20)
#    0.000    1.455    4.545    4.909    3.818    2.909 
#    0.000    1.818    0.000    0.000    0.000    0.000 
#    0.000    0.000    0.000    0.000    0.000    0.000 
#
# Total GULP energy -545250.217487 kJ/mol
# GULP energy per Si atom -12392.050397 kJ/mol
# Density = 2.136543 g / cm^3
# Si number density = 21.414169 Si / 1000 Ang^3
#
#
#
# Elastic Constant Matrix: (Units=GPa)
#
#
# Indices 1 2 3 4 5 6 
#
# 1 65.1069 38.1068 38.1380 0.0000 0.0000 0.0000
# 2 38.1068 91.2244 33.9769 0.0000 0.0000 0.0000
# 3 38.1380 33.9769 101.3013 0.0000 0.0000 0.0000
# 4 0.0000 0.0000 0.0000 35.8776 0.0000 0.0000
# 5 0.0000 0.0000 0.0000 0.0000 11.4881 0.0000
# 6 0.0000 0.0000 0.0000 0.0000 0.0000 12.9943
#
#
#
# Elastic Compliance Matrix: (Units=1/GPa)
#
#
# Indices 1 2 3 4 5 6 
#
# 1 0.023408 -0.007423 -0.006323 0.000000 0.000000 0.000000
# 2 -0.007423 0.014881 -0.002196 0.000000 0.000000 0.000000
# 3 -0.006323 -0.002196 0.012989 0.000000 0.000000 0.000000
# 4 0.000000 0.000000 0.000000 0.027873 0.000000 0.000000
# 5 0.000000 0.000000 0.000000 0.000000 0.087047 0.000000
# 6 0.000000 0.000000 0.000000 0.000000 0.000000 0.076957
#
#
# Mechanical properties :
#
#
# Convention : Reuss Voigt Hill
#
# Bulk Modulus (GPa) = 51.56614 53.11955 52.34284
# Shear Modulus (GPa) = 17.76183 21.89939 19.83061
#
# Velocity S-wave (km/s) = 2.88313 3.20137 3.04641
# Velocity P-wave (km/s) = 5.93430 6.20683 6.07209
#
# Compressibility (1/GPa) = 0.01939257
#
# Stress axis : x y z
#
# Youngs Moduli (GPa) = 42.72072 67.20031 76.99008
#
# Poissons Ratio (x) = 0.49883 0.48680
# Poissons Ratio (y) = 0.31712 0.16911
# Poissons Ratio (z) = 0.27012 0.14760
#
# Static dielectric constant tensor:
#      x y z
#    x 3.362060 0.000000 0.000000 
#    y 0.000000 3.927330 0.000000 
#    z 0.000000 0.000000 3.946590 
# 
# 
# High freq. dielectric constant tensor:
#      x y z
#    x 1.784670 0.000000 0.000000 
#    y 0.000000 1.842190 0.000000 
#    z 0.000000 0.000000 1.857840 
# 
# From -- ./inp_files/17158.got.cif
#   From: 2010.03.12/outbox.cif.g09.slc.cpg/sg64_9_cif.got.tgz:17158.got - 2010.04.10 20:19:32.
