data_PCOD8261155
_publ_section_title
;
Structure prediction by ZEFSAII (Michael W. Deem and Ramdas Pophale) SiO2 
 PCOD8261155
Probable space group: C M C M
;
_chemical_formula_sum "Si O2"
_cell_formula_units_Z 80
_cell_length_a 14.860739
_cell_length_b 16.963680
_cell_length_c 14.838270
_cell_angle_alpha 90.000000
_cell_angle_beta 90.000000
_cell_angle_gamma 90.000000
_cell_volume 3740.621342
_symmetry_space_group_name_H-M "C M C M"
_symmetry_group_IT_number 63
_symmetry_cell_setting 'orthorhombic'
loop_
_space_group_symop_operation_xyz
x,y,z
-x,-y,1/2+z
x,-y,-z
-x,y,1/2-z
-x,-y,-z
x,y,1/2-z
-x,y,z
x,-y,1/2+z
1/2+x,1/2+y,z
1/2-x,1/2-y,1/2+z
1/2+x,1/2-y,-z
1/2-x,1/2+y,1/2-z
1/2-x,1/2-y,-z
1/2+x,1/2+y,1/2-z
1/2-x,1/2+y,z
1/2+x,1/2-y,1/2+z
loop_
_atom_site_type_symbol
_atom_site_label
_atom_site_fract_x
_atom_site_fract_y
_atom_site_fract_z
Si Si1 0.599363 0.828546 0.648874
Si Si2 0.600389 0.889797 0.348070
Si Si3 0.353542 0.249609 0.520330
Si Si4 0.722452 0.973174 0.601597
Si Si5 0.898751 0.105883 0.352025
O O1 0.623361 0.798391 0.750000
O O2 0.500000 0.867392 0.649068
O O3 0.599078 0.755614 0.578080
O O4 0.673889 0.890027 0.616209
O O5 0.602837 0.848038 0.250000
O O6 0.500000 0.923488 0.367512
O O7 0.623546 0.828029 0.424227
O O8 0.671585 0.960816 0.341324
O O9 0.250000 0.250000 0.500000
O O10 0.385359 0.325528 0.574824
O O11 0.826693 0.963984 0.631242
O O12 0.716830 0.000000 0.500000
O O13 0.886247 0.138687 0.250000
O O14 0.000000 0.071835 0.363946
#
# Coordination Sequence:
#
# PCOD8261155 Si02
#       5
#    16  16  16  16  16
#     4  11  23  39  62  91 128 169 207 258 320 382
#     4  11  23  39  64  96 129 164 207 266 323 376
#     4  12  23  40  63  94 130 167 211 262 317 380
#     4  12  23  40  62  94 129 168 211 260 318 379
#     4  11  24  43  67  93 128 174 218 263 315 380
#
# _framework density 21.386821000000001
#
# number of rings (size 3 to 8) (size 9 to 14) (size 15 to 20)
#    0.000    0.600    4.000    4.800    0.000    5.200 
#    0.000    0.000    0.000    0.000    0.000    5.600 
#    0.000    0.000    0.000    0.000    0.000    0.000 
#
# Total GULP energy -495829.136171 kJ/mol
# GULP energy per Si atom -12395.728404 kJ/mol
# Density = 2.133814 g / cm^3
# Si number density = 21.386821 Si / 1000 Ang^3
#
#
#
# Elastic Constant Matrix: (Units=GPa)
#
#
# Indices 1 2 3 4 5 6 
#
# 1 171.2557 42.6275 54.9965 0.0000 0.0000 0.0000
# 2 42.6275 65.9657 41.6725 0.0000 0.0000 0.0000
# 3 54.9965 41.6725 185.4104 0.0000 0.0000 0.0000
# 4 0.0000 0.0000 0.0000 10.0150 0.0000 0.0000
# 5 0.0000 0.0000 0.0000 0.0000 27.1211 0.0000
# 6 0.0000 0.0000 0.0000 0.0000 0.0000 31.8452
#
#
#
# Elastic Compliance Matrix: (Units=1/GPa)
#
#
# Indices 1 2 3 4 5 6 
#
# 1 0.007207 -0.003854 -0.001272 0.000000 0.000000 0.000000
# 2 -0.003854 0.019729 -0.003291 0.000000 0.000000 0.000000
# 3 -0.001272 -0.003291 0.006510 0.000000 0.000000 0.000000
# 4 0.000000 0.000000 0.000000 0.099850 0.000000 0.000000
# 5 0.000000 0.000000 0.000000 0.000000 0.036872 0.000000
# 6 0.000000 0.000000 0.000000 0.000000 0.000000 0.031402
#
#
# Mechanical properties :
#
#
# Convention : Reuss Voigt Hill
#
# Bulk Modulus (GPa) = 60.19356 77.91388 69.05372
# Shear Modulus (GPa) = 22.32741 32.68528 27.50634
#
# Velocity S-wave (km/s) = 3.23457 3.91358 3.59016
# Velocity P-wave (km/s) = 6.49278 7.54528 7.03873
#
# Compressibility (1/GPa) = 0.01661307
#
# Stress axis : x y z
#
# Youngs Moduli (GPa) = 138.75753 50.68718 153.60284
#
# Poissons Ratio (x) = 0.19534 0.19531
# Poissons Ratio (y) = 0.53475 0.50552
# Poissons Ratio (z) = 0.17643 0.16682
#
# Static dielectric constant tensor:
#      x y z
#    x 4.280630 0.000000 0.000000 
#    y 0.000000 3.609440 0.000000 
#    z 0.000000 0.000000 5.123530 
# 
# 
# High freq. dielectric constant tensor:
#      x y z
#    x 1.859790 0.000000 0.000000 
#    y 0.000000 1.792220 0.000000 
#    z 0.000000 0.000000 1.868730 
# 
# From -- ./inp_files/31632.got.cif
#   From: 2010.03.12/outbox.cif.g09.slc.cpg/sg63_16_cif.got.tgz:31632.got - 2010.04.10 19:34:48.
