data_PCOD8261518
_publ_section_title
;
Structure prediction by ZEFSAII (Michael W. Deem and Ramdas Pophale) SiO2 
 PCOD8261518
Probable space group: C M C A
;
_chemical_formula_sum "Si O2"
_cell_formula_units_Z 96
_cell_length_a 18.721477
_cell_length_b 24.080225
_cell_length_c 10.125153
_cell_angle_alpha 90.000000
_cell_angle_beta 90.000000
_cell_angle_gamma 90.000000
_cell_volume 4564.594932
_symmetry_space_group_name_H-M "C M C A"
_symmetry_group_IT_number 64
_symmetry_cell_setting 'orthorhombic'
loop_
_space_group_symop_operation_xyz
x,y,z
-x,1/2-y,1/2+z
x,-y,-z
-x,1/2+y,1/2-z
-x,-y,-z
x,1/2+y,1/2-z
-x,y,z
x,1/2-y,1/2+z
1/2+x,1/2+y,z
1/2-x,-y,1/2+z
1/2+x,1/2-y,-z
1/2-x,y,1/2-z
1/2-x,1/2-y,-z
1/2+x,y,1/2-z
1/2-x,1/2+y,z
1/2+x,-y,1/2+z
loop_
_atom_site_type_symbol
_atom_site_label
_atom_site_fract_x
_atom_site_fract_y
_atom_site_fract_z
Si Si1 0.079598 0.952952 0.298627
Si Si2 0.918441 0.076773 0.228673
Si Si3 0.636381 0.397349 0.046000
Si Si4 0.584360 0.806166 0.814961
Si Si5 0.773416 0.546892 0.892184
Si Si6 0.584929 0.220665 0.474922
O O1 0.087307 0.930451 0.150530
O O2 0.144415 0.929983 0.389240
O O3 0.000000 0.936806 0.352178
O O4 0.089311 0.019666 0.307406
O O5 0.891091 0.129087 0.317285
O O6 0.000000 0.088660 0.187720
O O7 0.874314 0.073263 0.094331
O O8 0.720583 0.401765 0.079068
O O9 0.615425 0.333343 0.047698
O O10 0.500000 0.801670 0.822277
O O11 0.610878 0.777428 0.677553
O O12 0.615295 0.773583 0.942705
O O13 0.750000 0.521197 0.750000
O O14 0.762797 0.500000 0.000000
O O15 0.500000 0.217426 0.480700
#
# Coordination Sequence:
#
# PCOD8261518 Si02
#       6
#    16  16  16  16  16  16
#     4  10  19  31  50  79 110 138 174 221 271 318
#     4   9  16  28  50  79 110 142 179 220 258 309
#     4  10  17  29  51  79 108 142 181 217 256 312
#     4   8  15  27  44  72 107 140 173 210 255 306
#     4  10  21  36  53  76 105 143 179 213 263 319
#     4   9  16  28  48  75 108 141 175 215 260 312
#
# _framework density 21.031438999999999
#
# number of rings (size 3 to 8) (size 9 to 14) (size 15 to 20)
#    0.000    2.667    0.000    5.000    0.000    1.667 
#    0.000    3.333    0.000    6.000    0.000   67.667 
#    0.000    0.000    0.000    0.000    0.000    0.000 
#
# Total GULP energy -594827.522383 kJ/mol
# GULP energy per Si atom -12392.240050 kJ/mol
# Density = 2.098357 g / cm^3
# Si number density = 21.031439 Si / 1000 Ang^3
#
#
#
# Elastic Constant Matrix: (Units=GPa)
#
#
# Indices 1 2 3 4 5 6 
#
# 1 109.9911 6.5207 8.4177 0.0000 0.0000 0.0000
# 2 6.5207 36.0753 -4.9138 0.0000 0.0000 0.0000
# 3 8.4177 -4.9138 35.0362 0.0000 0.0000 0.0000
# 4 0.0000 0.0000 0.0000 33.4080 0.0000 0.0000
# 5 0.0000 0.0000 0.0000 0.0000 15.3366 0.0000
# 6 0.0000 0.0000 0.0000 0.0000 0.0000 15.2102
#
#
#
# Elastic Compliance Matrix: (Units=1/GPa)
#
#
# Indices 1 2 3 4 5 6 
#
# 1 0.009408 -0.002048 -0.002548 0.000000 0.000000 0.000000
# 2 -0.002048 0.028705 0.004518 0.000000 0.000000 0.000000
# 3 -0.002548 0.004518 0.029788 0.000000 0.000000 0.000000
# 4 0.000000 0.000000 0.000000 0.029933 0.000000 0.000000
# 5 0.000000 0.000000 0.000000 0.000000 0.065203 0.000000
# 6 0.000000 0.000000 0.000000 0.000000 0.000000 0.065745
#
#
# Mechanical properties :
#
#
# Convention : Reuss Voigt Hill
#
# Bulk Modulus (GPa) = 14.76091 22.35019 18.55555
# Shear Modulus (GPa) = 19.87921 24.19616 22.03768
#
# Velocity S-wave (km/s) = 3.07777 3.39555 3.24055
# Velocity P-wave (km/s) = 4.43440 5.10128 4.77949
#
# Compressibility (1/GPa) = 0.06774651
#
# Stress axis : x y z
#
# Youngs Moduli (GPa) = 106.29260 34.83684 33.57099
#
# Poissons Ratio (x) = 0.07133 0.08552
# Poissons Ratio (y) = 0.21763 -0.15167
# Poissons Ratio (z) = 0.27078 -0.15739
#
# Static dielectric constant tensor:
#      x y z
#    x 3.769840 0.000000 0.000000 
#    y 0.000000 3.788410 0.000000 
#    z 0.000000 0.000000 3.864110 
# 
# 
# High freq. dielectric constant tensor:
#      x y z
#    x 1.800880 0.000000 0.000000 
#    y 0.000000 1.804590 0.000000 
#    z 0.000000 0.000000 1.820360 
# 
# From -- ./inp_files/16356.got.cif
#   From: 2010.03.12/outbox.cif.g09.slc.cpg/sg64_9_cif.got.tgz:16356.got - 2010.04.10 20:19:32.
