data_PCOD8261269
_publ_section_title
;
Structure prediction by ZEFSAII (Michael W. Deem and Ramdas Pophale) SiO2 
 PCOD8261269
Probable space group: C M C M
;
_chemical_formula_sum "Si O2"
_cell_formula_units_Z 64
_cell_length_a 9.323376
_cell_length_b 40.616424
_cell_length_c 10.124754
_cell_angle_alpha 90.000000
_cell_angle_beta 90.000000
_cell_angle_gamma 90.000000
_cell_volume 3834.064046
_symmetry_space_group_name_H-M "C M C M"
_symmetry_group_IT_number 63
_symmetry_cell_setting 'orthorhombic'
loop_
_space_group_symop_operation_xyz
x,y,z
-x,-y,1/2+z
x,-y,-z
-x,y,1/2-z
-x,-y,-z
x,y,1/2-z
-x,y,z
x,-y,1/2+z
1/2+x,1/2+y,z
1/2-x,1/2-y,1/2+z
1/2+x,1/2-y,-z
1/2-x,1/2+y,1/2-z
1/2-x,1/2-y,-z
1/2+x,1/2+y,1/2-z
1/2-x,1/2+y,z
1/2+x,1/2-y,1/2+z
loop_
_atom_site_type_symbol
_atom_site_label
_atom_site_fract_x
_atom_site_fract_y
_atom_site_fract_z
Si Si1 0.670616 0.152129 0.103674
Si Si2 0.670708 0.099843 0.602419
Si Si3 0.167916 0.273633 0.901674
Si Si4 0.329301 0.973658 0.102286
O O1 0.727113 0.142869 0.250000
O O2 0.500000 0.150319 0.102755
O O3 0.718301 0.189105 0.066901
O O4 0.737445 0.126316 0.999211
O O5 0.724792 0.108453 0.750000
O O6 0.500000 0.101343 0.598560
O O7 0.722035 0.063096 0.562628
O O8 0.205008 0.264723 0.750000
O O9 0.000000 0.269651 0.927581
O O10 0.250000 0.250000 0.000000
O O11 0.275536 0.982311 0.250000
O O12 0.500000 0.975137 0.098415
O O13 0.262517 0.000000 0.000000
#
# Coordination Sequence:
#
# PCOD8261269 Si02
#       4
#    16  16  16  16
#     4   8  14  24  36  50  69  92 119 154 193 231
#     4   8  13  20  29  42  60  82 112 150 187 224
#     4   9  18  31  45  63  86 109 137 173 209 249
#     4   8  13  19  25  35  53  77 107 144 182 219
#
# _framework density 16.692471000000001
#
# number of rings (size 3 to 8) (size 9 to 14) (size 15 to 20)
#    0.000    3.750    0.000    3.000    0.000    2.500 
#    0.000    7.500    0.000    0.000    0.000    0.000 
#    0.000    0.000    0.000    0.000    0.000    1.250 
#
# Total GULP energy -396505.632800 kJ/mol
# GULP energy per Si atom -12390.801025 kJ/mol
# Density = 1.665448 g / cm^3
# Si number density = 16.692471 Si / 1000 Ang^3
#
#
#
# Elastic Constant Matrix: (Units=GPa)
#
#
# Indices 1 2 3 4 5 6 
#
# 1 10.1459 18.4165 20.4592 0.0000 0.0000 0.0000
# 2 18.4165 157.4111 124.8704 0.0000 0.0000 0.0000
# 3 20.4592 124.8704 151.7247 0.0000 0.0000 0.0000
# 4 0.0000 0.0000 0.0000 44.5513 0.0000 0.0000
# 5 0.0000 0.0000 0.0000 0.0000 12.7089 0.0000
# 6 0.0000 0.0000 0.0000 0.0000 0.0000 10.1547
#
#
#
# Elastic Compliance Matrix: (Units=1/GPa)
#
#
# Indices 1 2 3 4 5 6 
#
# 1 0.136212 -0.003935 -0.015129 0.000000 0.000000 0.000000
# 2 -0.003935 0.018415 -0.014625 0.000000 0.000000 0.000000
# 3 -0.015129 -0.014625 0.020667 0.000000 0.000000 0.000000
# 4 0.000000 0.000000 0.000000 0.022446 0.000000 0.000000
# 5 0.000000 0.000000 0.000000 0.000000 0.078685 0.000000
# 6 0.000000 0.000000 0.000000 0.000000 0.000000 0.098477
#
#
# Mechanical properties :
#
#
# Convention : Reuss Voigt Hill
#
# Bulk Modulus (GPa) = 9.26640 71.86375 40.56508
# Shear Modulus (GPa) = 10.45477 23.85203 17.15340
#
# Velocity S-wave (km/s) = 2.50535 3.78419 3.20912
# Velocity P-wave (km/s) = 3.73260 7.88914 6.17134
#
# Compressibility (1/GPa) = 0.10791675
#
# Stress axis : x y z
#
# Youngs Moduli (GPa) = 7.34149 54.30479 48.38579
#
# Poissons Ratio (x) = 0.21367 0.73204
# Poissons Ratio (y) = 0.02889 0.70763
# Poissons Ratio (z) = 0.11107 0.79419
#
# Static dielectric constant tensor:
#      x y z
#    x 2.362090 0.000000 0.000000 
#    y 0.000000 3.461700 0.000000 
#    z 0.000000 0.000000 3.519800 
# 
# 
# High freq. dielectric constant tensor:
#      x y z
#    x 1.555140 0.000000 0.000000 
#    y 0.000000 1.653150 0.000000 
#    z 0.000000 0.000000 1.652710 
# 
# From -- ./inp_files/16185.got.cif
#   From: 2010.03.12/outbox.cif.g09.slc.cpg/sg63_9_cif.got.tgz:16185.got - 2010.04.10 19:34:48.
