data_PCOD8261933
_publ_section_title
;
Structure prediction by ZEFSAII (Michael W. Deem and Ramdas Pophale) SiO2 
 PCOD8261933
Probable space group: C M C A
;
_chemical_formula_sum "Si O2"
_cell_formula_units_Z 80
_cell_length_a 13.858312
_cell_length_b 19.256725
_cell_length_c 14.582540
_cell_angle_alpha 90.000000
_cell_angle_beta 90.000000
_cell_angle_gamma 90.000000
_cell_volume 3891.579791
_symmetry_space_group_name_H-M "C M C A"
_symmetry_group_IT_number 64
_symmetry_cell_setting 'orthorhombic'
loop_
_space_group_symop_operation_xyz
x,y,z
-x,1/2-y,1/2+z
x,-y,-z
-x,1/2+y,1/2-z
-x,-y,-z
x,1/2+y,1/2-z
-x,y,z
x,1/2-y,1/2+z
1/2+x,1/2+y,z
1/2-x,-y,1/2+z
1/2+x,1/2-y,-z
1/2-x,y,1/2-z
1/2-x,1/2-y,-z
1/2+x,y,1/2-z
1/2-x,1/2+y,z
1/2+x,-y,1/2+z
loop_
_atom_site_type_symbol
_atom_site_label
_atom_site_fract_x
_atom_site_fract_y
_atom_site_fract_z
Si Si1 0.723150 0.486944 0.599758
Si Si2 0.390952 0.220062 0.928378
Si Si3 0.351778 0.108236 0.781405
Si Si4 0.105555 0.080712 0.913569
Si Si5 0.737139 0.840828 0.555762
O O1 0.673967 0.500000 0.500000
O O2 0.664188 0.530558 0.675301
O O3 0.836195 0.508639 0.593978
O O4 0.728190 0.404401 0.620956
O O5 0.500000 0.242046 0.955467
O O6 0.399613 0.159102 0.854271
O O7 0.334837 0.195125 0.019359
O O8 0.330811 0.286508 0.889159
O O9 0.250000 0.139540 0.750000
O O10 0.416203 0.105572 0.690574
O O11 0.174581 0.133560 0.968143
O O12 0.000000 0.071700 0.960435
#
# Coordination Sequence:
#
# PCOD8261933 Si02
#       5
#    16  16  16  16  16
#     4   9  17  34  56  77 111 144 184 228 279 324
#     4  11  21  35  58  84 114 150 188 228 286 347
#     4  10  18  36  56  81 113 149 186 230 286 336
#     4  10  19  33  59  83 109 147 193 235 278 334
#     4  10  21  37  56  83 114 147 189 242 279 330
#
# _framework density 20.557203999999999
#
# number of rings (size 3 to 8) (size 9 to 14) (size 15 to 20)
#    0.000    2.000    6.000    1.200    0.000    4.400 
#    0.000    6.000    0.000    0.000    0.000    0.000 
#    0.000    0.000    0.000    0.000    0.000    0.000 
#
# Total GULP energy -495545.936890 kJ/mol
# GULP energy per Si atom -12388.648422 kJ/mol
# Density = 2.051042 g / cm^3
# Si number density = 20.557204 Si / 1000 Ang^3
#
#
#
# Elastic Constant Matrix: (Units=GPa)
#
#
# Indices 1 2 3 4 5 6 
#
# 1 85.6378 15.3068 3.4859 0.0000 0.0000 0.0000
# 2 15.3068 130.3878 10.3581 0.0000 0.0000 0.0000
# 3 3.4859 10.3581 53.5057 0.0000 0.0000 0.0000
# 4 0.0000 0.0000 0.0000 20.8929 0.0000 0.0000
# 5 0.0000 0.0000 0.0000 0.0000 13.4061 0.0000
# 6 0.0000 0.0000 0.0000 0.0000 0.0000 10.9712
#
#
#
# Elastic Compliance Matrix: (Units=1/GPa)
#
#
# Indices 1 2 3 4 5 6 
#
# 1 0.011941 -0.001361 -0.000515 0.000000 0.000000 0.000000
# 2 -0.001361 0.007944 -0.001449 0.000000 0.000000 0.000000
# 3 -0.000515 -0.001449 0.019004 0.000000 0.000000 0.000000
# 4 0.000000 0.000000 0.000000 0.047863 0.000000 0.000000
# 5 0.000000 0.000000 0.000000 0.000000 0.074593 0.000000
# 6 0.000000 0.000000 0.000000 0.000000 0.000000 0.091148
#
#
# Mechanical properties :
#
#
# Convention : Reuss Voigt Hill
#
# Bulk Modulus (GPa) = 31.01756 36.42590 33.72173
# Shear Modulus (GPa) = 18.52612 25.07940 21.80276
#
# Velocity S-wave (km/s) = 3.00525 3.49661 3.26020
# Velocity P-wave (km/s) = 5.21184 5.83605 5.53275
#
# Compressibility (1/GPa) = 0.03223981
#
# Stress axis : x y z
#
# Youngs Moduli (GPa) = 83.74310 125.87599 52.62135
#
# Poissons Ratio (x) = 0.17131 0.02707
# Poissons Ratio (y) = 0.11397 0.07626
# Poissons Ratio (z) = 0.04309 0.18243
#
# Static dielectric constant tensor:
#      x y z
#    x 3.581810 0.000000 0.000000 
#    y 0.000000 3.859110 0.000000 
#    z 0.000000 0.000000 3.661080 
# 
# 
# High freq. dielectric constant tensor:
#      x y z
#    x 1.796320 0.000000 0.000000 
#    y 0.000000 1.800630 0.000000 
#    z 0.000000 0.000000 1.775720 
# 
# From -- ./inp_files/23675.got.cif
#   From: 2010.03.12/outbox.cif.g09.slc.cpg/sg64_12_cif.got.tgz:23675.got - 2010.04.10 20:19:32.
