data_PCOD8261500
_publ_section_title
;
Structure prediction by ZEFSAII (Michael W. Deem and Ramdas Pophale) SiO2 
 PCOD8261500
Probable space group: C M C A
;
_chemical_formula_sum "Si O2"
_cell_formula_units_Z 80
_cell_length_a 8.571607
_cell_length_b 15.056458
_cell_length_c 30.054602
_cell_angle_alpha 90.000000
_cell_angle_beta 90.000000
_cell_angle_gamma 90.000000
_cell_volume 3878.788051
_symmetry_space_group_name_H-M "C M C A"
_symmetry_group_IT_number 64
_symmetry_cell_setting 'orthorhombic'
loop_
_space_group_symop_operation_xyz
x,y,z
-x,1/2-y,1/2+z
x,-y,-z
-x,1/2+y,1/2-z
-x,-y,-z
x,1/2+y,1/2-z
-x,y,z
x,1/2-y,1/2+z
1/2+x,1/2+y,z
1/2-x,-y,1/2+z
1/2+x,1/2-y,-z
1/2-x,y,1/2-z
1/2-x,1/2-y,-z
1/2+x,y,1/2-z
1/2-x,1/2+y,z
1/2+x,-y,1/2+z
loop_
_atom_site_type_symbol
_atom_site_label
_atom_site_fract_x
_atom_site_fract_y
_atom_site_fract_z
Si Si1 0.681826 0.104338 0.704792
Si Si2 0.819178 0.099393 0.389578
Si Si3 0.685509 0.245906 0.549171
Si Si4 0.818477 0.411573 0.792413
Si Si5 0.814866 0.898809 0.387650
O O1 0.500000 0.125570 0.702477
O O2 0.750000 0.149473 0.750000
O O3 0.760202 0.142249 0.659689
O O4 0.715531 0.000069 0.706499
O O5 0.744083 0.168986 0.424096
O O6 0.793357 0.138206 0.339384
O O7 0.000000 0.092357 0.400601
O O8 0.749963 0.999822 0.393670
O O9 0.500000 0.246596 0.548962
O O10 0.750000 0.250000 0.500000
O O11 0.744227 0.156211 0.571884
O O12 0.750000 0.355625 0.750000
O O13 0.000000 0.436008 0.786073
O O14 0.000000 0.896217 0.389332
#
# Coordination Sequence:
#
# PCOD8261500 Si02
#       5
#    16  16  16  16  16
#     4  10  17  28  49  80 114 150 185 224 268 320
#     4   8  18  36  58  79 110 150 185 218 272 336
#     4  11  23  41  60  82 109 143 184 235 288 339
#     4   9  15  27  48  77 109 146 183 220 263 318
#     4  10  20  38  60  84 111 147 187 227 273 331
#
# _framework density 20.625
#
# number of rings (size 3 to 8) (size 9 to 14) (size 15 to 20)
#    0.000    2.400    0.000    6.000    0.000    0.800 
#    0.000   17.000    0.000    2.400    0.000    0.000 
#    0.000    0.000    0.000    0.000    0.000    0.000 
#
# Total GULP energy -495662.315312 kJ/mol
# GULP energy per Si atom -12391.557883 kJ/mol
# Density = 2.057806 g / cm^3
# Si number density = 20.625000 Si / 1000 Ang^3
#
#
#
# Elastic Constant Matrix: (Units=GPa)
#
#
# Indices 1 2 3 4 5 6 
#
# 1 89.2363 27.1590 52.8522 0.0000 0.0000 0.0000
# 2 27.1590 81.8702 69.5445 0.0000 0.0000 0.0000
# 3 52.8522 69.5445 207.6509 0.0000 0.0000 0.0000
# 4 0.0000 0.0000 0.0000 4.2445 0.0000 0.0000
# 5 0.0000 0.0000 0.0000 0.0000 40.4441 0.0000
# 6 0.0000 0.0000 0.0000 0.0000 0.0000 17.2378
#
#
#
# Elastic Compliance Matrix: (Units=1/GPa)
#
#
# Indices 1 2 3 4 5 6 
#
# 1 0.013467 -0.002174 -0.002699 0.000000 0.000000 0.000000
# 2 -0.002174 0.017422 -0.005281 0.000000 0.000000 0.000000
# 3 -0.002699 -0.005281 0.007272 0.000000 0.000000 0.000000
# 4 0.000000 0.000000 0.000000 0.235597 0.000000 0.000000
# 5 0.000000 0.000000 0.000000 0.000000 0.024725 0.000000
# 6 0.000000 0.000000 0.000000 0.000000 0.000000 0.058012
#
#
# Mechanical properties :
#
#
# Convention : Reuss Voigt Hill
#
# Bulk Modulus (GPa) = 56.02203 75.31876 65.67039
# Shear Modulus (GPa) = 13.06316 27.66538 20.36427
#
# Velocity S-wave (km/s) = 2.51941 3.66642 3.14564
# Velocity P-wave (km/s) = 5.97364 7.38383 6.71585
#
# Compressibility (1/GPa) = 0.01785012
#
# Stress axis : x y z
#
# Youngs Moduli (GPa) = 74.25695 57.39856 137.52053
#
# Poissons Ratio (x) = 0.12480 0.37122
# Poissons Ratio (y) = 0.16146 0.72630
# Poissons Ratio (z) = 0.20045 0.30315
#
# Static dielectric constant tensor:
#      x y z
#    x 3.592300 0.000000 0.000000 
#    y 0.000000 3.590340 0.000000 
#    z 0.000000 0.000000 4.278210 
# 
# 
# High freq. dielectric constant tensor:
#      x y z
#    x 1.795640 0.000000 0.000000 
#    y 0.000000 1.774950 0.000000 
#    z 0.000000 0.000000 1.824080 
# 
# From -- ./inp_files/47881.got.cif
#   From: 2010.03.12/outbox.cif.g09.slc.cpg/sg64_24_cif.got.tgz:47881.got - 2010.04.10 20:19:32.
