data_PCOD8261578
_publ_section_title
;
Structure prediction by ZEFSAII (Michael W. Deem and Ramdas Pophale) SiO2 
 PCOD8261578
Probable space group: C M C A
;
_chemical_formula_sum "Si O2"
_cell_formula_units_Z 64
_cell_length_a 10.486944
_cell_length_b 16.027167
_cell_length_c 19.698763
_cell_angle_alpha 90.000000
_cell_angle_beta 90.000000
_cell_angle_gamma 90.000000
_cell_volume 3310.889345
_symmetry_space_group_name_H-M "C M C A"
_symmetry_group_IT_number 64
_symmetry_cell_setting 'orthorhombic'
loop_
_space_group_symop_operation_xyz
x,y,z
-x,1/2-y,1/2+z
x,-y,-z
-x,1/2+y,1/2-z
-x,-y,-z
x,1/2+y,1/2-z
-x,y,z
x,1/2-y,1/2+z
1/2+x,1/2+y,z
1/2-x,-y,1/2+z
1/2+x,1/2-y,-z
1/2-x,y,1/2-z
1/2-x,1/2-y,-z
1/2+x,y,1/2-z
1/2-x,1/2+y,z
1/2+x,-y,1/2+z
loop_
_atom_site_type_symbol
_atom_site_label
_atom_site_fract_x
_atom_site_fract_y
_atom_site_fract_z
Si Si1 0.785440 0.000000 0.500000
Si Si2 0.230348 0.916298 0.131201
Si Si3 0.750000 0.450410 0.750000
Si Si4 0.500000 0.075149 0.082344
Si Si5 0.000000 0.093106 0.660999
Si Si6 0.000000 0.149726 0.284751
Si Si7 0.500000 0.163742 0.697391
O O1 0.699692 0.046678 0.556270
O O2 0.875093 0.069784 0.464509
O O3 0.368286 0.868065 0.131174
O O4 0.124048 0.849339 0.150763
O O5 0.237437 0.992666 0.183560
O O6 0.873855 0.391950 0.754048
O O7 0.500000 0.154920 0.131870
O O8 0.500000 0.003138 0.139563
O O9 0.000000 0.094971 0.742740
O O10 0.000000 0.247451 0.265103
#
# Coordination Sequence:
#
# PCOD8261578 Si02
#       7
#     8  16   8   8   8   8   8
#     4   9  18  33  66  86 108 154 214 236 278 346
#     4  11  20  38  64  90 111 157 204 247 277 359
#     4  12  20  40  62  88 118 148 208 240 288 342
#     4   9  16  38  60  86 112 155 210 234 280 362
#     4  10  17  36  60  85 109 155 202 235 279 351
#     4  12  25  36  59  94 125 154 181 259 302 344
#     4  12  24  35  55  92 132 147 189 246 313 337
#
# _framework density 19.330154
#
# number of rings (size 3 to 8) (size 9 to 14) (size 15 to 20)
#    0.000    1.250    7.500    1.500    3.500    0.500 
#    0.000    1.250    0.000    0.000    0.000    0.000 
#    0.000    0.000    0.000    0.000    0.000    0.000 
#
# Total GULP energy -396575.618353 kJ/mol
# GULP energy per Si atom -12392.988074 kJ/mol
# Density = 1.928616 g / cm^3
# Si number density = 19.330154 Si / 1000 Ang^3
#
#
#
# Elastic Constant Matrix: (Units=GPa)
#
#
# Indices 1 2 3 4 5 6 
#
# 1 141.0685 37.5828 15.0358 0.0000 0.0000 0.0000
# 2 37.5828 60.5635 17.3034 0.0000 0.0000 0.0000
# 3 15.0358 17.3034 107.6085 0.0000 0.0000 0.0000
# 4 0.0000 0.0000 0.0000 16.6092 0.0000 0.0000
# 5 0.0000 0.0000 0.0000 0.0000 29.7539 0.0000
# 6 0.0000 0.0000 0.0000 0.0000 0.0000 12.6738
#
#
#
# Elastic Compliance Matrix: (Units=1/GPa)
#
#
# Indices 1 2 3 4 5 6 
#
# 1 0.008506 -0.005177 -0.000356 0.000000 0.000000 0.000000
# 2 -0.005177 0.020457 -0.002566 0.000000 0.000000 0.000000
# 3 -0.000356 -0.002566 0.009755 0.000000 0.000000 0.000000
# 4 0.000000 0.000000 0.000000 0.060208 0.000000 0.000000
# 5 0.000000 0.000000 0.000000 0.000000 0.033609 0.000000
# 6 0.000000 0.000000 0.000000 0.000000 0.000000 0.078903
#
#
# Mechanical properties :
#
#
# Convention : Reuss Voigt Hill
#
# Bulk Modulus (GPa) = 44.40389 49.89829 47.15109
# Shear Modulus (GPa) = 21.26368 27.76193 24.51280
#
# Velocity S-wave (km/s) = 3.32026 3.79383 3.56492
# Velocity P-wave (km/s) = 6.14166 6.71272 6.43353
#
# Compressibility (1/GPa) = 0.02252055
#
# Stress axis : x y z
#
# Youngs Moduli (GPa) = 117.56647 48.88281 102.50790
#
# Poissons Ratio (x) = 0.25305 0.03650
# Poissons Ratio (y) = 0.60859 0.26305
# Poissons Ratio (z) = 0.04187 0.12544
#
# Static dielectric constant tensor:
#      x y z
#    x 4.035180 0.000000 0.000000 
#    y 0.000000 3.097370 0.000000 
#    z 0.000000 0.000000 3.704280 
# 
# 
# High freq. dielectric constant tensor:
#      x y z
#    x 1.762910 0.000000 0.000000 
#    y 0.000000 1.700400 0.000000 
#    z 0.000000 0.000000 1.758040 
# 
# From -- ./inp_files/30544.got.cif
#   From: 2010.03.12/outbox.cif.g09.slc.cpg/sg64_16_cif.got.tgz:30544.got - 2010.04.10 20:19:32.
