data_PCOD8261999
_publ_section_title
;
Structure prediction by ZEFSAII (Michael W. Deem and Ramdas Pophale) SiO2 
 PCOD8261999
Probable space group: C M C A
;
_chemical_formula_sum "Si O2"
_cell_formula_units_Z 96
_cell_length_a 8.930095
_cell_length_b 27.255306
_cell_length_c 24.050702
_cell_angle_alpha 90.000000
_cell_angle_beta 90.000000
_cell_angle_gamma 90.000000
_cell_volume 5853.759809
_symmetry_space_group_name_H-M "C M C A"
_symmetry_group_IT_number 64
_symmetry_cell_setting 'orthorhombic'
loop_
_space_group_symop_operation_xyz
x,y,z
-x,1/2-y,1/2+z
x,-y,-z
-x,1/2+y,1/2-z
-x,-y,-z
x,1/2+y,1/2-z
-x,y,z
x,1/2-y,1/2+z
1/2+x,1/2+y,z
1/2-x,-y,1/2+z
1/2+x,1/2-y,-z
1/2-x,y,1/2-z
1/2-x,1/2-y,-z
1/2+x,y,1/2-z
1/2-x,1/2+y,z
1/2+x,-y,1/2+z
loop_
_atom_site_type_symbol
_atom_site_label
_atom_site_fract_x
_atom_site_fract_y
_atom_site_fract_z
Si Si1 0.823431 0.567525 0.475098
Si Si2 0.326107 0.321779 0.981513
Si Si3 0.324447 0.569771 0.694023
Si Si4 0.178426 0.520261 0.919905
Si Si5 0.823712 0.772915 0.418441
Si Si6 0.676471 0.818165 0.194146
O O1 0.790044 0.623901 0.459424
O O2 0.754621 0.556176 0.535436
O O3 0.741641 0.534616 0.428557
O O4 0.000000 0.556117 0.475954
O O5 0.500000 0.315274 0.994757
O O6 0.274543 0.282383 0.934851
O O7 0.240592 0.312471 0.038743
O O8 0.500000 0.566558 0.702450
O O9 0.250000 0.548360 0.750000
O O10 0.273320 0.537628 0.641348
O O11 0.272665 0.625741 0.683898
O O12 0.000000 0.521415 0.928192
O O13 0.763264 0.785327 0.356999
O O14 0.000000 0.779718 0.419753
O O15 0.500000 0.814186 0.200555
O O16 0.750000 0.796944 0.250000
#
# Coordination Sequence:
#
# PCOD8261999 Si02
#       6
#    16  16  16  16  16  16
#     4  10  19  30  45  67  93 120 149 181 222 265
#     4   9  18  30  45  67  92 118 148 181 218 262
#     4   9  18  30  45  66  89 114 144 179 220 264
#     4  10  19  31  47  67  90 117 150 184 221 265
#     4   9  17  30  47  66  90 119 148 180 219 260
#     4   9  17  29  45  65  89 115 143 177 218 261
#
# _framework density 16.399716999999999
#
# number of rings (size 3 to 8) (size 9 to 14) (size 15 to 20)
#    0.000    2.667    0.000    3.000    0.000    4.667 
#    0.000    3.333    0.000    1.000    0.000    4.667 
#    0.000    0.000    0.000    0.000    0.000    0.000 
#
# Total GULP energy -595129.681673 kJ/mol
# GULP energy per Si atom -12398.535035 kJ/mol
# Density = 1.636239 g / cm^3
# Si number density = 16.399717 Si / 1000 Ang^3
#
#
#
# Elastic Constant Matrix: (Units=GPa)
#
#
# Indices 1 2 3 4 5 6 
#
# 1 41.8993 28.8192 38.8674 0.0000 0.0000 0.0000
# 2 28.8192 100.9165 66.2243 0.0000 0.0000 0.0000
# 3 38.8674 66.2243 154.8615 0.0000 0.0000 0.0000
# 4 0.0000 0.0000 0.0000 23.8555 0.0000 0.0000
# 5 0.0000 0.0000 0.0000 0.0000 28.2994 0.0000
# 6 0.0000 0.0000 0.0000 0.0000 0.0000 20.7330
#
#
#
# Elastic Compliance Matrix: (Units=1/GPa)
#
#
# Indices 1 2 3 4 5 6 
#
# 1 0.033228 -0.005583 -0.005952 0.000000 0.000000 0.000000
# 2 -0.005583 0.014713 -0.004890 0.000000 0.000000 0.000000
# 3 -0.005952 -0.004890 0.010043 0.000000 0.000000 0.000000
# 4 0.000000 0.000000 0.000000 0.041919 0.000000 0.000000
# 5 0.000000 0.000000 0.000000 0.000000 0.035336 0.000000
# 6 0.000000 0.000000 0.000000 0.000000 0.000000 0.048232
#
#
# Mechanical properties :
#
#
# Convention : Reuss Voigt Hill
#
# Bulk Modulus (GPa) = 39.78955 62.83323 51.31139
# Shear Modulus (GPa) = 22.25182 25.49534 23.87358
#
# Velocity S-wave (km/s) = 3.68753 3.94715 3.81954
# Velocity P-wave (km/s) = 6.51502 7.69221 7.12796
#
# Compressibility (1/GPa) = 0.02513222
#
# Stress axis : x y z
#
# Youngs Moduli (GPa) = 30.09473 67.96777 99.57588
#
# Poissons Ratio (x) = 0.37948 0.59269
# Poissons Ratio (y) = 0.16803 0.48697
# Poissons Ratio (z) = 0.17913 0.33239
#
# Static dielectric constant tensor:
#      x y z
#    x 3.084650 0.000000 0.000000 
#    y 0.000000 3.180060 0.000000 
#    z 0.000000 0.000000 3.159470 
# 
# 
# High freq. dielectric constant tensor:
#      x y z
#    x 1.633970 0.000000 0.000000 
#    y 0.000000 1.621260 0.000000 
#    z 0.000000 0.000000 1.622360 
# 
# From -- ./inp_files/43202.got.cif
#   From: 2010.03.12/outbox.cif.g09.slc.cpg/sg64_22_cif.got.tgz:43202.got - 2010.04.10 20:19:32.
