data_PCOD8261528
_publ_section_title
;
Structure prediction by ZEFSAII (Michael W. Deem and Ramdas Pophale) SiO2 
 PCOD8261528
Probable space group: C M C A
;
_chemical_formula_sum "Si O2"
_cell_formula_units_Z 128
_cell_length_a 17.591191
_cell_length_b 19.420848
_cell_length_c 20.932612
_cell_angle_alpha 90.000000
_cell_angle_beta 90.000000
_cell_angle_gamma 90.000000
_cell_volume 7151.330621
_symmetry_space_group_name_H-M "C M C A"
_symmetry_group_IT_number 64
_symmetry_cell_setting 'orthorhombic'
loop_
_space_group_symop_operation_xyz
x,y,z
-x,1/2-y,1/2+z
x,-y,-z
-x,1/2+y,1/2-z
-x,-y,-z
x,1/2+y,1/2-z
-x,y,z
x,1/2-y,1/2+z
1/2+x,1/2+y,z
1/2-x,-y,1/2+z
1/2+x,1/2-y,-z
1/2-x,y,1/2-z
1/2-x,1/2-y,-z
1/2+x,y,1/2-z
1/2-x,1/2+y,z
1/2+x,-y,1/2+z
loop_
_atom_site_type_symbol
_atom_site_label
_atom_site_fract_x
_atom_site_fract_y
_atom_site_fract_z
Si Si1 0.909851 0.467655 0.064599
Si Si2 0.587290 0.182948 0.240477
Si Si3 0.587103 0.324412 0.889027
Si Si4 0.660729 0.675698 0.754528
Si Si5 0.090301 0.460895 0.808509
Si Si6 0.090148 0.325505 0.118107
Si Si7 0.909151 0.032974 0.065165
Si Si8 0.090381 0.548818 0.689043
O O1 0.876297 0.508710 0.125475
O O2 0.887944 0.386571 0.069155
O O3 0.000000 0.476127 0.063984
O O4 0.874560 0.500000 0.000000
O O5 0.500000 0.202335 0.225864
O O6 0.596229 0.161092 0.314030
O O7 0.639623 0.247490 0.222866
O O8 0.615355 0.118739 0.197737
O O9 0.500000 0.322038 0.909354
O O10 0.622277 0.248827 0.906480
O O11 0.624272 0.388943 0.926925
O O12 0.750000 0.668376 0.750000
O O13 0.623602 0.656456 0.686963
O O14 0.628335 0.623883 0.807747
O O15 0.121492 0.504306 0.748694
O O16 0.000000 0.465795 0.807508
O O17 0.000000 0.320652 0.128242
O O18 0.000000 0.035653 0.065046
O O19 0.881014 0.986455 0.123916
O O20 0.877133 0.000000 0.000000
O O21 0.000000 0.556238 0.690235
#
# Coordination Sequence:
#
# PCOD8261528 Si02
#       8
#    16  16  16  16  16  16  16  16
#     4   9  16  26  44  75 105 126 155 201 247 288
#     4   9  16  29  49  71  94 125 162 200 244 296
#     4   8  13  23  42  67  92 122 159 191 230 286
#     4  11  21  31  46  72 101 126 161 209 247 287
#     4   9  15  26  48  73  97 123 157 199 244 291
#     4   9  16  29  50  69  94 131 165 196 240 299
#     4   9  16  26  44  74 105 127 157 203 245 284
#     4  10  17  30  51  73  98 128 160 197 246 294
#
# _framework density 17.898765999999998
#
# number of rings (size 3 to 8) (size 9 to 14) (size 15 to 20)
#    0.000    2.750    2.500    1.875    0.000    0.000 
#    0.000    1.875    0.000    6.750    0.000    4.375 
#    0.000    0.000    0.000    0.000    0.000    0.000 
#
# Total GULP energy -793203.190823 kJ/mol
# GULP energy per Si atom -12393.799857 kJ/mol
# Density = 1.785803 g / cm^3
# Si number density = 17.898766 Si / 1000 Ang^3
#
#
#
# Elastic Constant Matrix: (Units=GPa)
#
#
# Indices 1 2 3 4 5 6 
#
# 1 25.5371 23.0255 12.6251 0.0000 0.0000 0.0000
# 2 23.0255 167.6350 83.2909 0.0000 0.0000 0.0000
# 3 12.6251 83.2909 119.0602 0.0000 0.0000 0.0000
# 4 0.0000 0.0000 0.0000 30.0981 0.0000 0.0000
# 5 0.0000 0.0000 0.0000 0.0000 3.8105 0.0000
# 6 0.0000 0.0000 0.0000 0.0000 0.0000 4.6011
#
#
#
# Elastic Compliance Matrix: (Units=1/GPa)
#
#
# Indices 1 2 3 4 5 6 
#
# 1 0.044730 -0.005805 -0.000682 0.000000 0.000000 0.000000
# 2 -0.005805 0.009897 -0.006308 0.000000 0.000000 0.000000
# 3 -0.000682 -0.006308 0.012884 0.000000 0.000000 0.000000
# 4 0.000000 0.000000 0.000000 0.033225 0.000000 0.000000
# 5 0.000000 0.000000 0.000000 0.000000 0.262434 0.000000
# 6 0.000000 0.000000 0.000000 0.000000 0.000000 0.217339
#
#
# Mechanical properties :
#
#
# Convention : Reuss Voigt Hill
#
# Bulk Modulus (GPa) = 23.85445 61.12393 42.48919
# Shear Modulus (GPa) = 8.06357 20.58799 14.32578
#
# Velocity S-wave (km/s) = 2.12482 3.39521 2.83216
# Velocity P-wave (km/s) = 4.40184 7.04229 5.87239
#
# Compressibility (1/GPa) = 0.04192091
#
# Stress axis : x y z
#
# Youngs Moduli (GPa) = 22.35639 101.04218 77.61367
#
# Poissons Ratio (x) = 0.58654 0.05295
# Poissons Ratio (y) = 0.12978 0.48959
# Poissons Ratio (z) = 0.01525 0.63737
#
# Static dielectric constant tensor:
#      x y z
#    x 2.689840 0.000000 0.000000 
#    y 0.000000 3.737640 0.000000 
#    z 0.000000 0.000000 3.287540 
# 
# 
# High freq. dielectric constant tensor:
#      x y z
#    x 1.626330 0.000000 0.000000 
#    y 0.000000 1.717210 0.000000 
#    z 0.000000 0.000000 1.667330 
# 
# From -- ./inp_files/46016.got.cif
#   From: 2010.03.12/outbox.cif.g09.slc.cpg/sg64_24_cif.got.tgz:46016.got - 2010.04.10 20:19:32.
