data_PCOD8261756
_publ_section_title
;
Structure prediction by ZEFSAII (Michael W. Deem and Ramdas Pophale) SiO2 
 PCOD8261756
Probable space group: C M C A
;
_chemical_formula_sum "Si O2"
_cell_formula_units_Z 96
_cell_length_a 17.379786
_cell_length_b 20.267395
_cell_length_c 14.959314
_cell_angle_alpha 90.000000
_cell_angle_beta 90.000000
_cell_angle_gamma 90.000000
_cell_volume 5269.313460
_symmetry_space_group_name_H-M "C M C A"
_symmetry_group_IT_number 64
_symmetry_cell_setting 'orthorhombic'
loop_
_space_group_symop_operation_xyz
x,y,z
-x,1/2-y,1/2+z
x,-y,-z
-x,1/2+y,1/2-z
-x,-y,-z
x,1/2+y,1/2-z
-x,y,z
x,1/2-y,1/2+z
1/2+x,1/2+y,z
1/2-x,-y,1/2+z
1/2+x,1/2-y,-z
1/2-x,y,1/2-z
1/2-x,1/2-y,-z
1/2+x,y,1/2-z
1/2-x,1/2+y,z
1/2+x,-y,1/2+z
loop_
_atom_site_type_symbol
_atom_site_label
_atom_site_fract_x
_atom_site_fract_y
_atom_site_fract_z
Si Si1 0.589978 0.655612 0.307040
Si Si2 0.090872 0.193008 0.499534
Si Si3 0.908738 0.459268 0.583244
Si Si4 0.909568 0.686671 0.388023
Si Si5 0.660285 0.981784 0.766802
Si Si6 0.909291 0.946271 0.425932
O O1 0.500000 0.635633 0.309807
O O2 0.612966 0.698143 0.394377
O O3 0.608787 0.697400 0.217505
O O4 0.637630 0.588341 0.309073
O O5 0.128420 0.254632 0.553422
O O6 0.121044 0.124545 0.540379
O O7 0.000000 0.195195 0.510966
O O8 0.874355 0.500000 0.500000
O O9 0.876147 0.384205 0.580653
O O10 0.882915 0.494884 0.673693
O O11 0.000000 0.458391 0.580267
O O12 0.000000 0.686618 0.404286
O O13 0.750000 0.984727 0.750000
O O14 0.635238 0.039154 0.834351
O O15 0.000000 0.946677 0.407054
O O16 0.887207 0.000000 0.500000
#
# Coordination Sequence:
#
# PCOD8261756 Si02
#       6
#    16  16  16  16  16  16
#     4   9  16  31  53  73  99 134 171 206 255 308
#     4   9  16  28  50  79 104 128 163 213 262 302
#     4   9  18  35  55  73  99 136 174 210 254 309
#     4   8  15  28  48  76 103 126 162 211 256 302
#     4  11  21  32  50  75 103 136 171 214 257 307
#     4  10  18  31  53  79 103 129 168 216 266 305
#
# _framework density 18.218692000000001
#
# number of rings (size 3 to 8) (size 9 to 14) (size 15 to 20)
#    0.000    2.667    1.667    2.500    0.000    0.667 
#    3.000    0.000    0.000    8.000    0.000    0.000 
#    0.000    0.000    0.000    0.000    0.000    0.000 
#
# Total GULP energy -595030.471804 kJ/mol
# GULP energy per Si atom -12396.468163 kJ/mol
# Density = 1.817723 g / cm^3
# Si number density = 18.218692 Si / 1000 Ang^3
#
#
#
# Elastic Constant Matrix: (Units=GPa)
#
#
# Indices 1 2 3 4 5 6 
#
# 1 26.3113 20.3257 24.7673 0.0000 0.0000 0.0000
# 2 20.3257 117.4186 97.7058 0.0000 0.0000 0.0000
# 3 24.7673 97.7058 177.6916 0.0000 0.0000 0.0000
# 4 0.0000 0.0000 0.0000 36.4733 0.0000 0.0000
# 5 0.0000 0.0000 0.0000 0.0000 9.0261 0.0000
# 6 0.0000 0.0000 0.0000 0.0000 0.0000 6.3444
#
#
#
# Elastic Compliance Matrix: (Units=1/GPa)
#
#
# Indices 1 2 3 4 5 6 
#
# 1 0.045141 -0.004753 -0.003678 0.000000 0.000000 0.000000
# 2 -0.004753 0.016201 -0.008246 0.000000 0.000000 0.000000
# 3 -0.003678 -0.008246 0.010674 0.000000 0.000000 0.000000
# 4 0.000000 0.000000 0.000000 0.027417 0.000000 0.000000
# 5 0.000000 0.000000 0.000000 0.000000 0.110790 0.000000
# 6 0.000000 0.000000 0.000000 0.000000 0.000000 0.157620
#
#
# Mechanical properties :
#
#
# Convention : Reuss Voigt Hill
#
# Bulk Modulus (GPa) = 25.86550 67.44657 46.65604
# Shear Modulus (GPa) = 12.07484 22.27695 17.17589
#
# Velocity S-wave (km/s) = 2.57723 3.50058 3.07377
# Velocity P-wave (km/s) = 4.80460 7.31024 6.18562
#
# Compressibility (1/GPa) = 0.03866154
#
# Stress axis : x y z
#
# Youngs Moduli (GPa) = 22.15285 61.72600 93.68286
#
# Poissons Ratio (x) = 0.29341 0.34458
# Poissons Ratio (y) = 0.10530 0.77247
# Poissons Ratio (z) = 0.08148 0.50896
#
# Static dielectric constant tensor:
#      x y z
#    x 2.885910 0.000000 0.000000 
#    y 0.000000 3.562830 0.000000 
#    z 0.000000 0.000000 3.704710 
# 
# 
# High freq. dielectric constant tensor:
#      x y z
#    x 1.657990 0.000000 0.000000 
#    y 0.000000 1.690660 0.000000 
#    z 0.000000 0.000000 1.721960 
# 
# From -- ./inp_files/26643.got.cif
#   From: 2010.03.12/outbox.cif.g09.slc.cpg/sg64_14_cif.got.tgz:26643.got - 2010.04.10 20:19:32.
