data_PCOD8261307
_publ_section_title
;
Structure prediction by ZEFSAII (Michael W. Deem and Ramdas Pophale) SiO2 
 PCOD8261307
Probable space group: C M C M
;
_chemical_formula_sum "Si O2"
_cell_formula_units_Z 112
_cell_length_a 10.079891
_cell_length_b 22.776753
_cell_length_c 31.500671
_cell_angle_alpha 90.000000
_cell_angle_beta 90.000000
_cell_angle_gamma 90.000000
_cell_volume 7232.150462
_symmetry_space_group_name_H-M "C M C M"
_symmetry_group_IT_number 63
_symmetry_cell_setting 'orthorhombic'
loop_
_space_group_symop_operation_xyz
x,y,z
-x,-y,1/2+z
x,-y,-z
-x,y,1/2-z
-x,-y,-z
x,y,1/2-z
-x,y,z
x,-y,1/2+z
1/2+x,1/2+y,z
1/2-x,1/2-y,1/2+z
1/2+x,1/2-y,-z
1/2-x,1/2+y,1/2-z
1/2-x,1/2-y,-z
1/2+x,1/2+y,1/2-z
1/2-x,1/2+y,z
1/2+x,1/2-y,1/2+z
loop_
_atom_site_type_symbol
_atom_site_label
_atom_site_fract_x
_atom_site_fract_y
_atom_site_fract_z
Si Si1 0.349370 0.949550 0.797566
Si Si2 0.854658 0.689605 0.296979
Si Si3 0.352587 0.334633 0.490598
Si Si4 0.157231 0.046996 0.033762
Si Si5 0.349378 0.694884 0.364029
Si Si6 0.153862 0.056719 0.371385
Si Si7 0.853316 0.730992 0.943920
O O1 0.311341 0.973291 0.750000
O O2 0.500000 0.969647 0.809023
O O3 0.341318 0.880005 0.796020
O O4 0.245665 0.971415 0.833956
O O5 0.834931 0.715282 0.250000
O O6 0.741866 0.717673 0.325919
O O7 0.000000 0.707077 0.314510
O O8 0.500000 0.349836 0.472489
O O9 0.297157 0.388329 0.518879
O O10 0.249053 0.322305 0.452470
O O11 0.361990 0.275569 0.517236
O O12 0.203709 0.033517 0.082278
O O13 0.000000 0.044499 0.034202
O O14 0.215847 0.000000 0.000000
O O15 0.500000 0.708239 0.351380
O O16 0.329603 0.626594 0.373760
O O17 0.302557 0.732294 0.403994
O O18 0.000000 0.039831 0.362373
O O19 0.000000 0.704123 0.936019
#
# Coordination Sequence:
#
# PCOD8261307 Si02
#       7
#    16  16  16  16  16  16  16
#     4   8  14  24  36  51  74 103 130 157 193 236
#     4   8  14  23  33  48  73 102 129 156 186 226
#     4   9  16  27  41  57  76 100 133 166 195 232
#     4   9  16  27  43  60  80 108 139 170 204 240
#     4   9  15  23  36  53  75 101 129 161 193 228
#     4   9  15  24  38  56  77 101 133 166 193 230
#     4   9  16  26  39  56  79 102 127 164 201 228
#
# _framework density 15.486402999999999
#
# number of rings (size 3 to 8) (size 9 to 14) (size 15 to 20)
#    0.000    3.286    1.429    0.857    0.000    1.143 
#    0.000    3.571    0.000    1.714    0.000    0.000 
#    0.000    1.143    0.000    5.714    0.000    4.000 
#
# Total GULP energy -693780.216403 kJ/mol
# GULP energy per Si atom -12388.932436 kJ/mol
# Density = 1.545116 g / cm^3
# Si number density = 15.486403 Si / 1000 Ang^3
#
#
#
# Elastic Constant Matrix: (Units=GPa)
#
#
# Indices 1 2 3 4 5 6 
#
# 1 75.5817 14.1613 61.1852 0.0000 0.0000 0.0000
# 2 14.1613 18.4175 14.4623 0.0000 0.0000 0.0000
# 3 61.1852 14.4623 108.3733 0.0000 0.0000 0.0000
# 4 0.0000 0.0000 0.0000 15.0109 0.0000 0.0000
# 5 0.0000 0.0000 0.0000 0.0000 29.7911 0.0000
# 6 0.0000 0.0000 0.0000 0.0000 0.0000 8.6757
#
#
#
# Elastic Compliance Matrix: (Units=1/GPa)
#
#
# Indices 1 2 3 4 5 6 
#
# 1 0.025735 -0.009359 -0.013281 0.000000 0.000000 0.000000
# 2 -0.009359 0.064056 -0.003264 0.000000 0.000000 0.000000
# 3 -0.013281 -0.003264 0.017161 0.000000 0.000000 0.000000
# 4 0.000000 0.000000 0.000000 0.066618 0.000000 0.000000
# 5 0.000000 0.000000 0.000000 0.000000 0.033567 0.000000
# 6 0.000000 0.000000 0.000000 0.000000 0.000000 0.115264
#
#
# Mechanical properties :
#
#
# Convention : Reuss Voigt Hill
#
# Bulk Modulus (GPa) = 18.13438 42.44334 30.28886
# Shear Modulus (GPa) = 12.73589 18.19978 15.46783
#
# Velocity S-wave (km/s) = 2.87085 3.43185 3.16381
# Velocity P-wave (km/s) = 4.76700 6.57037 5.73995
#
# Compressibility (1/GPa) = 0.05514387
#
# Stress axis : x y z
#
# Youngs Moduli (GPa) = 38.85707 15.61139 58.27205
#
# Poissons Ratio (x) = 0.14611 0.77389
# Poissons Ratio (y) = 0.36368 0.19020
# Poissons Ratio (z) = 0.51605 0.05096
#
# Static dielectric constant tensor:
#      x y z
#    x 3.205240 0.000000 0.000000 
#    y 0.000000 2.512700 0.000000 
#    z 0.000000 0.000000 3.260390 
# 
# 
# High freq. dielectric constant tensor:
#      x y z
#    x 1.588220 0.000000 0.000000 
#    y 0.000000 1.528540 0.000000 
#    z 0.000000 0.000000 1.594440 
# 
# From -- ./inp_files/68629.got.cif
#   From: 2010.03.12/outbox.cif.g09.slc.cpg/sg63_35_cif.got.tgz:68629.got - 2010.04.10 19:34:48.
