data_PCOD8261517
_publ_section_title
;
Structure prediction by ZEFSAII (Michael W. Deem and Ramdas Pophale) SiO2 
 PCOD8261517
Probable space group: C M C A
;
_chemical_formula_sum "Si O2"
_cell_formula_units_Z 88
_cell_length_a 16.110382
_cell_length_b 20.081871
_cell_length_c 15.681160
_cell_angle_alpha 90.000000
_cell_angle_beta 90.000000
_cell_angle_gamma 90.000000
_cell_volume 5073.272584
_symmetry_space_group_name_H-M "C M C A"
_symmetry_group_IT_number 64
_symmetry_cell_setting 'orthorhombic'
loop_
_space_group_symop_operation_xyz
x,y,z
-x,1/2-y,1/2+z
x,-y,-z
-x,1/2+y,1/2-z
-x,-y,-z
x,1/2+y,1/2-z
-x,y,z
x,1/2-y,1/2+z
1/2+x,1/2+y,z
1/2-x,-y,1/2+z
1/2+x,1/2-y,-z
1/2-x,y,1/2-z
1/2-x,1/2-y,-z
1/2+x,y,1/2-z
1/2-x,1/2+y,z
1/2+x,-y,1/2+z
loop_
_atom_site_type_symbol
_atom_site_label
_atom_site_fract_x
_atom_site_fract_y
_atom_site_fract_z
Si Si1 0.905037 0.648216 0.836400
Si Si2 0.815203 0.500000 0.500000
Si Si3 0.658697 0.818782 0.341879
Si Si4 0.595305 0.861698 0.516380
Si Si5 0.268816 0.450410 0.339557
Si Si6 0.202673 0.244219 0.087577
O O1 0.896525 0.682876 0.743010
O O2 0.864171 0.574546 0.842687
O O3 0.865385 0.697259 0.906087
O O4 0.000000 0.637931 0.859310
O O5 0.875076 0.562935 0.493822
O O6 0.754620 0.502258 0.581895
O O7 0.601674 0.821791 0.426554
O O8 0.714309 0.884216 0.341040
O O9 0.723669 0.755744 0.342229
O O10 0.500000 0.861095 0.546900
O O11 0.653132 0.826059 0.588697
O O12 0.250000 0.488512 0.250000
O O13 0.250000 0.250000 0.000000
#
# Coordination Sequence:
#
# PCOD8261517 Si02
#       6
#    16   8  16  16  16  16
#     4  10  17  29  51  76  94 116 156 209 252 289
#     4  10  19  32  49  66  94 138 176 200 239 288
#     4   8  16  30  49  70  93 120 152 196 252 303
#     4  10  18  29  46  72  98 125 163 206 238 277
#     4   8  16  31  48  68  93 124 164 203 245 297
#     4   9  17  29  45  67  96 123 146 181 240 304
#
# _framework density 17.345807000000001
#
# number of rings (size 3 to 8) (size 9 to 14) (size 15 to 20)
#    0.000    2.909    0.000    4.091    0.000    0.000 
#    0.000    3.182    0.000    0.000    0.000    2.545 
#    0.000    0.000    0.000    0.000    0.000    0.000 
#
# Total GULP energy -545116.301509 kJ/mol
# GULP energy per Si atom -12389.006852 kJ/mol
# Density = 1.730633 g / cm^3
# Si number density = 17.345807 Si / 1000 Ang^3
#
#
#
# Elastic Constant Matrix: (Units=GPa)
#
#
# Indices 1 2 3 4 5 6 
#
# 1 116.6364 38.9952 31.1632 0.0000 0.0000 0.0000
# 2 38.9952 62.0716 26.6677 0.0000 0.0000 0.0000
# 3 31.1632 26.6677 84.8437 0.0000 0.0000 0.0000
# 4 0.0000 0.0000 0.0000 24.7967 0.0000 0.0000
# 5 0.0000 0.0000 0.0000 0.0000 24.0656 0.0000
# 6 0.0000 0.0000 0.0000 0.0000 0.0000 21.7943
#
#
#
# Elastic Compliance Matrix: (Units=1/GPa)
#
#
# Indices 1 2 3 4 5 6 
#
# 1 0.011197 -0.006090 -0.002199 0.000000 0.000000 0.000000
# 2 -0.006090 0.021938 -0.004659 0.000000 0.000000 0.000000
# 3 -0.002199 -0.004659 0.014058 0.000000 0.000000 0.000000
# 4 0.000000 0.000000 0.000000 0.040328 0.000000 0.000000
# 5 0.000000 0.000000 0.000000 0.000000 0.041553 0.000000
# 6 0.000000 0.000000 0.000000 0.000000 0.000000 0.045884
#
#
# Mechanical properties :
#
#
# Convention : Reuss Voigt Hill
#
# Bulk Modulus (GPa) = 46.95041 50.80043 48.87542
# Shear Modulus (GPa) = 24.04414 25.24637 24.64526
#
# Velocity S-wave (km/s) = 3.72716 3.81921 3.77346
# Velocity P-wave (km/s) = 6.75636 6.98562 6.87195
#
# Compressibility (1/GPa) = 0.02129907
#
# Stress axis : x y z
#
# Youngs Moduli (GPa) = 89.30912 45.58382 71.13298
#
# Poissons Ratio (x) = 0.27759 0.15639
# Poissons Ratio (y) = 0.54387 0.33138
# Poissons Ratio (z) = 0.19635 0.21235
#
# Static dielectric constant tensor:
#      x y z
#    x 3.358670 0.000000 0.000000 
#    y 0.000000 3.153540 0.000000 
#    z 0.000000 0.000000 3.649780 
# 
# 
# High freq. dielectric constant tensor:
#      x y z
#    x 1.672100 0.000000 0.000000 
#    y 0.000000 1.630930 0.000000 
#    z 0.000000 0.000000 1.665030 
# 
# From -- ./inp_files/25551.got.cif
#   From: 2010.03.12/outbox.cif.g09.slc.cpg/sg64_13_cif.got.tgz:25551.got - 2010.04.10 20:19:32.
