data_PCOD8261860
_publ_section_title
;
Structure prediction by ZEFSAII (Michael W. Deem and Ramdas Pophale) SiO2 
 PCOD8261860
Probable space group: C M C A
;
_chemical_formula_sum "Si O2"
_cell_formula_units_Z 80
_cell_length_a 13.240555
_cell_length_b 17.729363
_cell_length_c 18.479316
_cell_angle_alpha 90.000000
_cell_angle_beta 90.000000
_cell_angle_gamma 90.000000
_cell_volume 4337.956711
_symmetry_space_group_name_H-M "C M C A"
_symmetry_group_IT_number 64
_symmetry_cell_setting 'orthorhombic'
loop_
_space_group_symop_operation_xyz
x,y,z
-x,1/2-y,1/2+z
x,-y,-z
-x,1/2+y,1/2-z
-x,-y,-z
x,1/2+y,1/2-z
-x,y,z
x,1/2-y,1/2+z
1/2+x,1/2+y,z
1/2-x,-y,1/2+z
1/2+x,1/2-y,-z
1/2-x,y,1/2-z
1/2-x,1/2-y,-z
1/2+x,y,1/2-z
1/2-x,1/2+y,z
1/2+x,-y,1/2+z
loop_
_atom_site_type_symbol
_atom_site_label
_atom_site_fract_x
_atom_site_fract_y
_atom_site_fract_z
Si Si1 0.613077 0.241466 0.428211
Si Si2 0.692635 0.402928 0.434557
Si Si3 0.285568 0.808872 0.831487
Si Si4 0.118983 0.940519 0.591574
Si Si5 0.885377 0.680964 0.586079
O O1 0.500000 0.219449 0.405487
O O2 0.632901 0.328712 0.409224
O O3 0.687637 0.188613 0.383036
O O4 0.630290 0.229918 0.513517
O O5 0.676884 0.415931 0.519385
O O6 0.651176 0.473921 0.388711
O O7 0.811994 0.391653 0.417434
O O8 0.250000 0.803600 0.750000
O O9 0.348948 0.885566 0.843316
O O10 0.355924 0.736559 0.848353
O O11 0.000000 0.935628 0.577566
O O12 0.000000 0.652220 0.595520
#
# Coordination Sequence:
#
# PCOD8261860 Si02
#       5
#    16  16  16  16  16
#     4  10  18  34  57  82 108 141 188 237 280 329
#     4  10  18  33  56  86 109 138 185 236 278 323
#     4  11  22  36  54  80 116 149 186 229 282 342
#     4  11  20  33  55  83 114 147 184 230 280 330
#     4  10  19  36  60  83 111 144 185 238 285 328
#
# _framework density 18.441862
#
# number of rings (size 3 to 8) (size 9 to 14) (size 15 to 20)
#    0.000    1.600    4.000    4.200    0.000    1.600 
#    0.000    7.000    0.000    4.800    0.000    0.000 
#    0.000    0.000    0.000    0.000    0.000    0.000 
#
# Total GULP energy -496041.070818 kJ/mol
# GULP energy per Si atom -12401.026770 kJ/mol
# Density = 1.839989 g / cm^3
# Si number density = 18.441862 Si / 1000 Ang^3
#
#
#
# Elastic Constant Matrix: (Units=GPa)
#
#
# Indices 1 2 3 4 5 6 
#
# 1 123.5141 42.8498 36.7414 0.0000 0.0000 0.0000
# 2 42.8498 95.6917 28.3904 0.0000 0.0000 0.0000
# 3 36.7414 28.3904 78.6919 0.0000 0.0000 0.0000
# 4 0.0000 0.0000 0.0000 10.5919 0.0000 0.0000
# 5 0.0000 0.0000 0.0000 0.0000 17.6875 0.0000
# 6 0.0000 0.0000 0.0000 0.0000 0.0000 27.7424
#
#
#
# Elastic Compliance Matrix: (Units=1/GPa)
#
#
# Indices 1 2 3 4 5 6 
#
# 1 0.010405 -0.003604 -0.003558 0.000000 0.000000 0.000000
# 2 -0.003604 0.012951 -0.002990 0.000000 0.000000 0.000000
# 3 -0.003558 -0.002990 0.015448 0.000000 0.000000 0.000000
# 4 0.000000 0.000000 0.000000 0.094411 0.000000 0.000000
# 5 0.000000 0.000000 0.000000 0.000000 0.056537 0.000000
# 6 0.000000 0.000000 0.000000 0.000000 0.000000 0.036046
#
#
# Mechanical properties :
#
#
# Convention : Reuss Voigt Hill
#
# Bulk Modulus (GPa) = 54.05231 57.09564 55.57398
# Shear Modulus (GPa) = 19.82023 23.86544 21.84283
#
# Velocity S-wave (km/s) = 3.28188 3.60125 3.44527
# Velocity P-wave (km/s) = 6.61318 6.95119 6.78429
#
# Compressibility (1/GPa) = 0.01850060
#
# Stress axis : x y z
#
# Youngs Moduli (GPa) = 96.10986 77.21450 64.73466
#
# Poissons Ratio (x) = 0.27825 0.23032
# Poissons Ratio (y) = 0.34634 0.19355
# Poissons Ratio (z) = 0.34195 0.23086
#
# Static dielectric constant tensor:
#      x y z
#    x 3.641190 0.000000 0.000000 
#    y 0.000000 3.529130 0.000000 
#    z 0.000000 0.000000 3.017300 
# 
# 
# High freq. dielectric constant tensor:
#      x y z
#    x 1.732040 0.000000 0.000000 
#    y 0.000000 1.707460 0.000000 
#    z 0.000000 0.000000 1.673160 
# 
# From -- ./inp_files/32077.got.cif
#   From: 2010.03.12/outbox.cif.g09.slc.cpg/sg64_17_cif.got.tgz:32077.got - 2010.04.10 20:19:32.
