data_PCOD8261022
_publ_section_title
;
Structure prediction by ZEFSAII (Michael W. Deem and Ramdas Pophale) SiO2 
 PCOD8261022
Probable space group: C M C M
;
_chemical_formula_sum "Si O2"
_cell_formula_units_Z 96
_cell_length_a 8.906509
_cell_length_b 19.958650
_cell_length_c 28.828395
_cell_angle_alpha 90.000000
_cell_angle_beta 90.000000
_cell_angle_gamma 90.000000
_cell_volume 5124.590150
_symmetry_space_group_name_H-M "C M C M"
_symmetry_group_IT_number 63
_symmetry_cell_setting 'orthorhombic'
loop_
_space_group_symop_operation_xyz
x,y,z
-x,-y,1/2+z
x,-y,-z
-x,y,1/2-z
-x,-y,-z
x,y,1/2-z
-x,y,z
x,-y,1/2+z
1/2+x,1/2+y,z
1/2-x,1/2-y,1/2+z
1/2+x,1/2-y,-z
1/2-x,1/2+y,1/2-z
1/2-x,1/2-y,-z
1/2+x,1/2+y,1/2-z
1/2-x,1/2+y,z
1/2+x,1/2-y,1/2+z
loop_
_atom_site_type_symbol
_atom_site_label
_atom_site_fract_x
_atom_site_fract_y
_atom_site_fract_z
Si Si1 0.676686 0.240130 0.372718
Si Si2 0.676751 0.567605 0.521082
Si Si3 0.821194 0.107530 0.621698
Si Si4 0.669945 0.354764 0.695476
Si Si5 0.324014 0.698000 0.034162
Si Si6 0.821329 0.005061 0.698317
O O1 0.500000 0.237869 0.381233
O O2 0.732456 0.316807 0.368052
O O3 0.719929 0.199787 0.326713
O O4 0.757960 0.203626 0.414894
O O5 0.748468 0.500000 0.500000
O O6 0.500000 0.558962 0.527329
O O7 0.744588 0.584507 0.571834
O O8 0.715919 0.624762 0.484406
O O9 0.755556 0.058589 0.661604
O O10 0.000000 0.104109 0.621493
O O11 0.675536 0.343405 0.750000
O O12 0.500000 0.344486 0.676981
O O13 0.726806 0.429936 0.683307
O O14 0.500000 0.711443 0.035088
O O15 0.250000 0.750000 0.000000
O O16 0.759267 0.021886 0.750000
O O17 0.000000 0.008152 0.699572
#
# Coordination Sequence:
#
# PCOD8261022 Si02
#       6
#    16  16  16  16  16  16
#     4  11  22  35  53  81 113 144 178 217 265 320
#     4   9  18  31  50  77 103 134 178 225 265 305
#     4   9  17  30  48  74 107 136 175 224 262 306
#     4   9  19  36  57  82 108 136 176 222 268 319
#     4  11  21  36  57  79 108 144 179 218 268 319
#     4   8  15  29  51  77 103 132 171 222 270 309
#
# _framework density 18.733205000000002
#
# number of rings (size 3 to 8) (size 9 to 14) (size 15 to 20)
#    0.000    2.500    1.667    2.000    2.333    1.000 
#    0.000    1.667    0.000    6.000    0.000    0.000 
#    0.000    0.000    0.000    0.000    0.000    0.000 
#
# Total GULP energy -595127.706370 kJ/mol
# GULP energy per Si atom -12398.493883 kJ/mol
# Density = 1.869057 g / cm^3
# Si number density = 18.733205 Si / 1000 Ang^3
#
#
#
# Elastic Constant Matrix: (Units=GPa)
#
#
# Indices 1 2 3 4 5 6 
#
# 1 36.6053 39.4533 24.6498 0.0000 0.0000 0.0000
# 2 39.4533 169.5383 88.7963 0.0000 0.0000 0.0000
# 3 24.6498 88.7963 111.5444 0.0000 0.0000 0.0000
# 4 0.0000 0.0000 0.0000 37.6867 0.0000 0.0000
# 5 0.0000 0.0000 0.0000 0.0000 26.2179 0.0000
# 6 0.0000 0.0000 0.0000 0.0000 0.0000 23.3367
#
#
#
# Elastic Compliance Matrix: (Units=1/GPa)
#
#
# Indices 1 2 3 4 5 6 
#
# 1 0.036792 -0.007381 -0.002255 0.000000 0.000000 0.000000
# 2 -0.007381 0.011597 -0.007601 0.000000 0.000000 0.000000
# 3 -0.002255 -0.007601 0.015514 0.000000 0.000000 0.000000
# 4 0.000000 0.000000 0.000000 0.026535 0.000000 0.000000
# 5 0.000000 0.000000 0.000000 0.000000 0.038142 0.000000
# 6 0.000000 0.000000 0.000000 0.000000 0.000000 0.042851
#
#
# Mechanical properties :
#
#
# Convention : Reuss Voigt Hill
#
# Bulk Modulus (GPa) = 33.97913 69.27629 51.62771
# Shear Modulus (GPa) = 23.17892 28.43419 25.80655
#
# Velocity S-wave (km/s) = 3.52137 3.90019 3.71561
# Velocity P-wave (km/s) = 5.89162 7.57250 6.78432
#
# Compressibility (1/GPa) = 0.02942983
#
# Stress axis : x y z
#
# Youngs Moduli (GPa) = 27.17986 86.22975 64.45769
#
# Poissons Ratio (x) = 0.63645 0.14534
# Poissons Ratio (y) = 0.20061 0.48993
# Poissons Ratio (z) = 0.06129 0.65542
#
# Static dielectric constant tensor:
#      x y z
#    x 3.014470 0.000000 0.000000 
#    y 0.000000 3.630760 0.000000 
#    z 0.000000 0.000000 3.535520 
# 
# 
# High freq. dielectric constant tensor:
#      x y z
#    x 1.675510 0.000000 0.000000 
#    y 0.000000 1.739700 0.000000 
#    z 0.000000 0.000000 1.738070 
# 
# From -- ./inp_files/66887.got.cif
#   From: 2010.03.12/outbox.cif.g09.slc.cpg/sg63_34_cif.got.tgz:66887.got - 2010.04.10 19:34:48.
