data_PCOD8261950
_publ_section_title
;
Structure prediction by ZEFSAII (Michael W. Deem and Ramdas Pophale) SiO2 
 PCOD8261950
Probable space group: C M C A
;
_chemical_formula_sum "Si O2"
_cell_formula_units_Z 96
_cell_length_a 10.869155
_cell_length_b 19.019361
_cell_length_c 25.337269
_cell_angle_alpha 90.000000
_cell_angle_beta 90.000000
_cell_angle_gamma 90.000000
_cell_volume 5237.831294
_symmetry_space_group_name_H-M "C M C A"
_symmetry_group_IT_number 64
_symmetry_cell_setting 'orthorhombic'
loop_
_space_group_symop_operation_xyz
x,y,z
-x,1/2-y,1/2+z
x,-y,-z
-x,1/2+y,1/2-z
-x,-y,-z
x,1/2+y,1/2-z
-x,y,z
x,1/2-y,1/2+z
1/2+x,1/2+y,z
1/2-x,-y,1/2+z
1/2+x,1/2-y,-z
1/2-x,y,1/2-z
1/2-x,1/2-y,-z
1/2+x,y,1/2-z
1/2-x,1/2+y,z
1/2+x,-y,1/2+z
loop_
_atom_site_type_symbol
_atom_site_label
_atom_site_fract_x
_atom_site_fract_y
_atom_site_fract_z
Si Si1 0.641084 0.153768 0.975592
Si Si2 0.500000 0.050429 0.302851
Si Si3 0.258409 0.408080 0.864353
Si Si4 0.757934 0.275261 0.923662
Si Si5 0.203635 0.526229 0.555623
Si Si6 0.000000 0.239374 0.866325
Si Si7 0.000000 0.918090 0.133516
Si Si8 0.500000 0.385369 0.687125
O O1 0.500000 0.149547 0.992915
O O2 0.659764 0.212308 0.929770
O O3 0.681691 0.077048 0.956231
O O4 0.726648 0.179280 0.023279
O O5 0.627861 0.074380 0.327570
O O6 0.500000 0.083045 0.245286
O O7 0.500000 0.966067 0.313306
O O8 0.290332 0.328163 0.879352
O O9 0.248084 0.456785 0.915560
O O10 0.124493 0.415550 0.838016
O O11 0.886636 0.243648 0.905750
O O12 0.143108 0.500000 0.500000
O O13 0.113914 0.567623 0.594747
O O14 0.000000 0.160603 0.842314
O O15 0.000000 0.299591 0.820223
#
# Coordination Sequence:
#
# PCOD8261950 Si02
#       8
#    16   8  16  16  16   8   8   8
#     4  11  22  32  52  78 121 161 190 226 274 324
#     4  10  22  41  64  85 109 142 194 255 296 347
#     4  10  22  37  62  86 110 153 191 239 293 345
#     4  10  20  36  51  82 114 151 191 228 273 339
#     4  11  21  35  54  84 122 155 193 227 274 342
#     4  10  18  37  61  79 110 145 189 229 290 348
#     4  10  21  38  58  85 116 150 190 234 292 343
#     4  10  22  40  66  84 108 144 195 245 307 347
#
# _framework density 18.328195999999998
#
# number of rings (size 3 to 8) (size 9 to 14) (size 15 to 20)
#    0.000    1.667    4.167    0.750    2.333    0.333 
#    0.000    0.000    3.667    4.000    0.000    0.000 
#    0.000    0.000    0.000    0.000    0.000    0.000 
#
# Total GULP energy -594734.043543 kJ/mol
# GULP energy per Si atom -12390.292574 kJ/mol
# Density = 1.828648 g / cm^3
# Si number density = 18.328196 Si / 1000 Ang^3
#
#
#
# Elastic Constant Matrix: (Units=GPa)
#
#
# Indices 1 2 3 4 5 6 
#
# 1 86.5856 27.3151 20.8699 0.0000 0.0000 0.0000
# 2 27.3151 108.8942 43.9328 0.0000 0.0000 0.0000
# 3 20.8699 43.9328 94.0821 0.0000 0.0000 0.0000
# 4 0.0000 0.0000 0.0000 24.2139 0.0000 0.0000
# 5 0.0000 0.0000 0.0000 0.0000 92.2541 0.0000
# 6 0.0000 0.0000 0.0000 0.0000 0.0000 28.4126
#
#
#
# Elastic Compliance Matrix: (Units=1/GPa)
#
#
# Indices 1 2 3 4 5 6 
#
# 1 0.012745 -0.002534 -0.001644 0.000000 0.000000 0.000000
# 2 -0.002534 0.011819 -0.004957 0.000000 0.000000 0.000000
# 3 -0.001644 -0.004957 0.013308 0.000000 0.000000 0.000000
# 4 0.000000 0.000000 0.000000 0.041299 0.000000 0.000000
# 5 0.000000 0.000000 0.000000 0.000000 0.010840 0.000000
# 6 0.000000 0.000000 0.000000 0.000000 0.000000 0.035196
#
#
# Mechanical properties :
#
#
# Convention : Reuss Voigt Hill
#
# Bulk Modulus (GPa) = 51.01312 52.64415 51.82864
# Shear Modulus (GPa) = 33.33141 42.13908 37.73525
#
# Velocity S-wave (km/s) = 4.26912 4.80014 4.54239
# Velocity P-wave (km/s) = 7.22454 7.71409 7.47332
#
# Compressibility (1/GPa) = 0.01960280
#
# Stress axis : x y z
#
# Youngs Moduli (GPa) = 78.46334 84.61266 75.14087
#
# Poissons Ratio (x) = 0.21438 0.12353
# Poissons Ratio (y) = 0.19880 0.37246
# Poissons Ratio (z) = 0.12899 0.41941
#
# Static dielectric constant tensor:
#      x y z
#    x 3.315660 0.000000 0.000000 
#    y 0.000000 3.649000 0.000000 
#    z 0.000000 0.000000 3.232600 
# 
# 
# High freq. dielectric constant tensor:
#      x y z
#    x 1.712550 0.000000 0.000000 
#    y 0.000000 1.726170 0.000000 
#    z 0.000000 0.000000 1.684290 
# 
# From -- ./inp_files/44268.got.cif
#   From: 2010.03.12/outbox.cif.g09.slc.cpg/sg64_23_cif.got.tgz:44268.got - 2010.04.10 20:19:32.
