data_PCOD8261303
_publ_section_title
;
Structure prediction by ZEFSAII (Michael W. Deem and Ramdas Pophale) SiO2 
 PCOD8261303
Probable space group: C M C M
;
_chemical_formula_sum "Si O2"
_cell_formula_units_Z 96
_cell_length_a 14.206210
_cell_length_b 23.944868
_cell_length_c 14.305306
_cell_angle_alpha 90.000000
_cell_angle_beta 90.000000
_cell_angle_gamma 90.000000
_cell_volume 4866.176192
_symmetry_space_group_name_H-M "C M C M"
_symmetry_group_IT_number 63
_symmetry_cell_setting 'orthorhombic'
loop_
_space_group_symop_operation_xyz
x,y,z
-x,-y,1/2+z
x,-y,-z
-x,y,1/2-z
-x,-y,-z
x,y,1/2-z
-x,y,z
x,-y,1/2+z
1/2+x,1/2+y,z
1/2-x,1/2-y,1/2+z
1/2+x,1/2-y,-z
1/2-x,1/2+y,1/2-z
1/2-x,1/2-y,-z
1/2+x,1/2+y,1/2-z
1/2-x,1/2+y,z
1/2+x,1/2-y,1/2+z
loop_
_atom_site_type_symbol
_atom_site_label
_atom_site_fract_x
_atom_site_fract_y
_atom_site_fract_z
Si Si1 0.108830 0.415533 0.139706
Si Si2 0.288996 0.975486 0.860941
Si Si3 0.388930 0.864235 0.646308
Si Si4 0.112005 0.797863 0.854402
Si Si5 0.111603 0.306310 0.466022
Si Si6 0.396302 0.578651 0.361112
O O1 0.122830 0.410003 0.250000
O O2 0.169682 0.467134 0.097063
O O3 0.148060 0.358936 0.094019
O O4 0.000000 0.426397 0.114317
O O5 0.295212 0.978964 0.750000
O O6 0.350398 0.922668 0.893621
O O7 0.180436 0.966938 0.894406
O O8 0.348683 0.850146 0.750000
O O9 0.500000 0.870632 0.649928
O O10 0.358895 0.814806 0.574828
O O11 0.151585 0.786526 0.750000
O O12 0.154428 0.751283 0.925160
O O13 0.140727 0.859551 0.891291
O O14 0.000000 0.794880 0.851390
O O15 0.000000 0.303848 0.456404
O O16 0.404503 0.579294 0.250000
O O17 0.500000 0.564940 0.403798
#
# Coordination Sequence:
#
# PCOD8261303 Si02
#       6
#    16  16  16  16  16  16
#     4   9  16  25  39  62  91 118 140 164 199 249
#     4   9  16  26  39  56  82 112 140 173 210 245
#     4   9  17  28  40  56  82 115 147 175 202 240
#     4   8  13  23  40  61  85 111 137 169 211 254
#     4   9  16  25  39  60  86 115 142 167 203 253
#     4   8  14  25  42  62  82 106 138 177 217 251
#
# _framework density 19.728017000000001
#
# number of rings (size 3 to 8) (size 9 to 14) (size 15 to 20)
#    0.000    3.333    0.000    2.000    0.000    4.667 
#    0.000    3.333    0.000    0.000    0.000    2.333 
#    0.000    4.000    0.000   29.167    0.000    1.000 
#
# Total GULP energy -594805.541427 kJ/mol
# GULP energy per Si atom -12391.782113 kJ/mol
# Density = 1.968311 g / cm^3
# Si number density = 19.728017 Si / 1000 Ang^3
#
#
#
# Elastic Constant Matrix: (Units=GPa)
#
#
# Indices 1 2 3 4 5 6 
#
# 1 47.8734 40.3424 14.9038 0.0000 0.0000 0.0000
# 2 40.3424 87.9173 23.8425 0.0000 0.0000 0.0000
# 3 14.9038 23.8425 47.5206 0.0000 0.0000 0.0000
# 4 0.0000 0.0000 0.0000 10.1814 0.0000 0.0000
# 5 0.0000 0.0000 0.0000 0.0000 6.1696 0.0000
# 6 0.0000 0.0000 0.0000 0.0000 0.0000 19.0961
#
#
#
# Elastic Compliance Matrix: (Units=1/GPa)
#
#
# Indices 1 2 3 4 5 6 
#
# 1 0.034508 -0.014931 -0.003331 0.000000 0.000000 0.000000
# 2 -0.014931 0.019626 -0.005164 0.000000 0.000000 0.000000
# 3 -0.003331 -0.005164 0.024679 0.000000 0.000000 0.000000
# 4 0.000000 0.000000 0.000000 0.098218 0.000000 0.000000
# 5 0.000000 0.000000 0.000000 0.000000 0.162084 0.000000
# 6 0.000000 0.000000 0.000000 0.000000 0.000000 0.052367
#
#
# Mechanical properties :
#
#
# Convention : Reuss Voigt Hill
#
# Bulk Modulus (GPa) = 31.28893 37.94318 34.61606
# Shear Modulus (GPa) = 11.13614 14.03761 12.58688
#
# Velocity S-wave (km/s) = 2.37846 2.67040 2.52865
# Velocity P-wave (km/s) = 4.84122 5.36497 5.10981
#
# Compressibility (1/GPa) = 0.03196018
#
# Stress axis : x y z
#
# Youngs Moduli (GPa) = 28.97898 50.95221 40.51976
#
# Poissons Ratio (x) = 0.76077 0.13498
# Poissons Ratio (y) = 0.43269 0.20925
# Poissons Ratio (z) = 0.09654 0.26313
#
# Static dielectric constant tensor:
#      x y z
#    x 3.479530 0.000000 0.000000 
#    y 0.000000 3.777690 0.000000 
#    z 0.000000 0.000000 3.562280 
# 
# 
# High freq. dielectric constant tensor:
#      x y z
#    x 1.746900 0.000000 0.000000 
#    y 0.000000 1.756600 0.000000 
#    z 0.000000 0.000000 1.748060 
# 
# From -- ./inp_files/31862.got.cif
#   From: 2010.03.12/outbox.cif.g09.slc.cpg/sg63_16_cif.got.tgz:31862.got - 2010.04.10 19:34:48.
