data_PCOD8261176
_publ_section_title
;
Structure prediction by ZEFSAII (Michael W. Deem and Ramdas Pophale) SiO2 
 PCOD8261176
Probable space group: C M C M
;
_chemical_formula_sum "Si O2"
_cell_formula_units_Z 64
_cell_length_a 27.769726
_cell_length_b 11.314845
_cell_length_c 10.204369
_cell_angle_alpha 90.000000
_cell_angle_beta 90.000000
_cell_angle_gamma 90.000000
_cell_volume 3206.316267
_symmetry_space_group_name_H-M "C M C M"
_symmetry_group_IT_number 63
_symmetry_cell_setting 'orthorhombic'
loop_
_space_group_symop_operation_xyz
x,y,z
-x,-y,1/2+z
x,-y,-z
-x,y,1/2-z
-x,-y,-z
x,y,1/2-z
-x,y,z
x,-y,1/2+z
1/2+x,1/2+y,z
1/2-x,1/2-y,1/2+z
1/2+x,1/2-y,-z
1/2-x,1/2+y,1/2-z
1/2-x,1/2-y,-z
1/2+x,1/2+y,1/2-z
1/2-x,1/2+y,z
1/2+x,1/2-y,1/2+z
loop_
_atom_site_type_symbol
_atom_site_label
_atom_site_fract_x
_atom_site_fract_y
_atom_site_fract_z
Si Si1 0.694612 0.745900 0.750000
Si Si2 0.352540 0.360446 0.994424
Si Si3 0.194047 0.739470 0.750000
Si Si4 0.053770 0.742258 0.902032
Si Si5 0.085889 0.500000 0.500000
Si Si6 0.351279 0.982936 0.750000
O O1 0.667538 0.693754 0.626123
O O2 0.749886 0.708779 0.750000
O O3 0.692257 0.888773 0.750000
O O4 0.319596 0.313660 0.877220
O O5 0.408369 0.324082 0.977769
O O6 0.349017 0.500000 0.000000
O O7 0.166569 0.616125 0.750000
O O8 0.068986 0.738618 0.750000
O O9 0.000000 0.794759 0.920185
O O10 0.052962 0.609327 0.957189
O O11 0.118409 0.542767 0.379813
#
# Coordination Sequence:
#
# PCOD8261176 Si02
#       6
#     8  16   8  16   8   8
#     4  12  27  42  69 102 129 174 225 273 324 378
#     4  12  25  45  67  96 137 172 222 271 321 390
#     4  12  25  48  65  96 133 180 219 265 330 394
#     4  11  23  42  68  96 130 176 216 264 335 394
#     4  12  19  42  62 100 132 164 214 276 327 384
#     4  12  22  40  73  90 134 168 217 278 326 370
#
# _framework density 19.960602000000002
#
# number of rings (size 3 to 8) (size 9 to 14) (size 15 to 20)
#    0.000    0.250    7.500    1.875    3.500    0.500 
#    0.000    1.875    0.000    0.000    0.000    0.000 
#    0.000    0.000    0.000    0.000    0.000    0.000 
#
# Total GULP energy -396947.056491 kJ/mol
# GULP energy per Si atom -12404.595515 kJ/mol
# Density = 1.991517 g / cm^3
# Si number density = 19.960602 Si / 1000 Ang^3
#
#
#
# Elastic Constant Matrix: (Units=GPa)
#
#
# Indices 1 2 3 4 5 6 
#
# 1 138.4424 39.4477 63.1132 0.0000 0.0000 0.0000
# 2 39.4477 136.6803 41.5637 0.0000 0.0000 0.0000
# 3 63.1132 41.5637 153.1767 0.0000 0.0000 0.0000
# 4 0.0000 0.0000 0.0000 19.8938 0.0000 0.0000
# 5 0.0000 0.0000 0.0000 0.0000 28.2147 0.0000
# 6 0.0000 0.0000 0.0000 0.0000 0.0000 17.8635
#
#
#
# Elastic Compliance Matrix: (Units=1/GPa)
#
#
# Indices 1 2 3 4 5 6 
#
# 1 0.009220 -0.001641 -0.003353 0.000000 0.000000 0.000000
# 2 -0.001641 0.008266 -0.001567 0.000000 0.000000 0.000000
# 3 -0.003353 -0.001567 0.008335 0.000000 0.000000 0.000000
# 4 0.000000 0.000000 0.000000 0.050267 0.000000 0.000000
# 5 0.000000 0.000000 0.000000 0.000000 0.035443 0.000000
# 6 0.000000 0.000000 0.000000 0.000000 0.000000 0.055980
#
#
# Mechanical properties :
#
#
# Convention : Reuss Voigt Hill
#
# Bulk Modulus (GPa) = 78.74954 79.61653 79.18303
# Shear Modulus (GPa) = 27.04655 32.13939 29.59297
#
# Velocity S-wave (km/s) = 3.68502 4.01701 3.85459
# Velocity P-wave (km/s) = 7.59236 7.84147 7.71792
#
# Compressibility (1/GPa) = 0.01269849
#
# Stress axis : x y z
#
# Youngs Moduli (GPa) = 108.46445 120.97054 119.97196
#
# Poissons Ratio (x) = 0.19853 0.40232
# Poissons Ratio (y) = 0.17801 0.18798
# Poissons Ratio (z) = 0.36373 0.18955
#
# Static dielectric constant tensor:
#      x y z
#    x 3.631280 0.000000 0.000000 
#    y 0.000000 3.657280 0.000000 
#    z 0.000000 0.000000 3.891500 
# 
# 
# High freq. dielectric constant tensor:
#      x y z
#    x 1.784590 0.000000 0.000000 
#    y 0.000000 1.782140 0.000000 
#    z 0.000000 0.000000 1.795740 
# 
# From -- ./inp_files/13793.got.cif
#   From: 2010.03.12/outbox.cif.g09.slc.cpg/sg63_7_cif.got.tgz:13793.got - 2010.04.10 19:34:48.
