data_PCOD8261329
_publ_section_title
;
Structure prediction by ZEFSAII (Michael W. Deem and Ramdas Pophale) SiO2 
 PCOD8261329
Probable space group: C M C M
;
_chemical_formula_sum "Si O2"
_cell_formula_units_Z 80
_cell_length_a 19.443396
_cell_length_b 25.999131
_cell_length_c 9.118859
_cell_angle_alpha 90.000000
_cell_angle_beta 90.000000
_cell_angle_gamma 90.000000
_cell_volume 4609.687177
_symmetry_space_group_name_H-M "C M C M"
_symmetry_group_IT_number 63
_symmetry_cell_setting 'orthorhombic'
loop_
_space_group_symop_operation_xyz
x,y,z
-x,-y,1/2+z
x,-y,-z
-x,y,1/2-z
-x,-y,-z
x,y,1/2-z
-x,y,z
x,-y,1/2+z
1/2+x,1/2+y,z
1/2-x,1/2-y,1/2+z
1/2+x,1/2-y,-z
1/2-x,1/2+y,1/2-z
1/2-x,1/2-y,-z
1/2+x,1/2+y,1/2-z
1/2-x,1/2+y,z
1/2+x,1/2-y,1/2+z
loop_
_atom_site_type_symbol
_atom_site_label
_atom_site_fract_x
_atom_site_fract_y
_atom_site_fract_z
Si Si1 0.421240 0.052028 0.576718
Si Si2 0.921310 0.051251 0.921613
Si Si3 0.325754 0.141897 0.920695
Si Si4 0.322443 0.254511 0.578098
Si Si5 0.669798 0.353261 0.076136
O O1 0.412360 0.045592 0.750000
O O2 0.500000 0.063959 0.534855
O O3 0.375362 0.098615 0.510424
O O4 0.395575 0.000000 0.500000
O O5 0.912886 0.042466 0.750000
O O6 0.875736 0.098855 0.975816
O O7 0.000000 0.062704 0.965506
O O8 0.894012 0.000000 0.000000
O O9 0.321086 0.130615 0.750000
O O10 0.358596 0.198836 0.948184
O O11 0.247735 0.137705 0.981811
O O12 0.313073 0.265381 0.750000
O O13 0.250000 0.250000 0.500000
O O14 0.362104 0.302179 0.501936
O O15 0.666626 0.344693 0.250000
#
# Coordination Sequence:
#
# PCOD8261329 Si02
#       5
#    16  16  16  16  16
#     4   9  17  30  46  62  84 114 144 175 214 258
#     4   9  18  32  48  65  88 119 151 184 227 275
#     4   8  15  28  45  64  86 113 143 175 213 257
#     4   9  16  28  46  67  91 118 148 181 221 267
#     4   9  17  30  47  66  90 118 148 184 224 266
#
# _framework density 17.354756999999999
#
# number of rings (size 3 to 8) (size 9 to 14) (size 15 to 20)
#    0.000    3.200    0.000    1.800    0.000    1.600 
#    0.000    6.000    0.000    1.200    0.000    0.000 
#    0.000    0.000    0.000    0.000    0.000    0.000 
#
# Total GULP energy -495691.303829 kJ/mol
# GULP energy per Si atom -12392.282596 kJ/mol
# Density = 1.731526 g / cm^3
# Si number density = 17.354757 Si / 1000 Ang^3
#
#
#
# Elastic Constant Matrix: (Units=GPa)
#
#
# Indices 1 2 3 4 5 6 
#
# 1 63.2226 75.7274 20.4005 0.0000 0.0000 0.0000
# 2 75.7274 196.8039 50.1411 0.0000 0.0000 0.0000
# 3 20.4005 50.1411 40.5456 0.0000 0.0000 0.0000
# 4 0.0000 0.0000 0.0000 34.2159 0.0000 0.0000
# 5 0.0000 0.0000 0.0000 0.0000 14.4538 0.0000
# 6 0.0000 0.0000 0.0000 0.0000 0.0000 17.6024
#
#
#
# Elastic Compliance Matrix: (Units=1/GPa)
#
#
# Indices 1 2 3 4 5 6 
#
# 1 0.029378 -0.011006 -0.001171 0.000000 0.000000 0.000000
# 2 -0.011006 0.011542 -0.008736 0.000000 0.000000 0.000000
# 3 -0.001171 -0.008736 0.036056 0.000000 0.000000 0.000000
# 4 0.000000 0.000000 0.000000 0.029226 0.000000 0.000000
# 5 0.000000 0.000000 0.000000 0.000000 0.069186 0.000000
# 6 0.000000 0.000000 0.000000 0.000000 0.000000 0.056810
#
#
# Mechanical properties :
#
#
# Convention : Reuss Voigt Hill
#
# Bulk Modulus (GPa) = 28.44923 65.90113 47.17518
# Shear Modulus (GPa) = 17.49850 23.54129 20.51990
#
# Velocity S-wave (km/s) = 3.17879 3.68703 3.44230
# Velocity P-wave (km/s) = 5.46821 7.49540 6.56057
#
# Compressibility (1/GPa) = 0.03515033
#
# Stress axis : x y z
#
# Youngs Moduli (GPa) = 34.03963 86.64256 27.73489
#
# Poissons Ratio (x) = 0.95356 0.03248
# Poissons Ratio (y) = 0.37463 0.24228
# Poissons Ratio (z) = 0.03986 0.75687
#
# Static dielectric constant tensor:
#      x y z
#    x 3.300000 0.000000 0.000000 
#    y 0.000000 3.110790 0.000000 
#    z 0.000000 0.000000 3.123350 
# 
# 
# High freq. dielectric constant tensor:
#      x y z
#    x 1.638800 0.000000 0.000000 
#    y 0.000000 1.689040 0.000000 
#    z 0.000000 0.000000 1.650080 
# 
# From -- ./inp_files/6421.got.cif
#   From: 2010.03.12/outbox.cif.g09.slc.cpg/sg63_4_cif.got.tgz:6421.got - 2010.04.10 19:34:48.
