data_PCOD8261966
_publ_section_title
;
Structure prediction by ZEFSAII (Michael W. Deem and Ramdas Pophale) SiO2 
 PCOD8261966
Probable space group: C M C A
;
_chemical_formula_sum "Si O2"
_cell_formula_units_Z 88
_cell_length_a 18.689265
_cell_length_b 12.125966
_cell_length_c 17.652962
_cell_angle_alpha 90.000000
_cell_angle_beta 90.000000
_cell_angle_gamma 90.000000
_cell_volume 4000.609432
_symmetry_space_group_name_H-M "C M C A"
_symmetry_group_IT_number 64
_symmetry_cell_setting 'orthorhombic'
loop_
_space_group_symop_operation_xyz
x,y,z
-x,1/2-y,1/2+z
x,-y,-z
-x,1/2+y,1/2-z
-x,-y,-z
x,1/2+y,1/2-z
-x,y,z
x,1/2-y,1/2+z
1/2+x,1/2+y,z
1/2-x,-y,1/2+z
1/2+x,1/2-y,-z
1/2-x,y,1/2-z
1/2-x,1/2-y,-z
1/2+x,y,1/2-z
1/2-x,1/2+y,z
1/2+x,-y,1/2+z
loop_
_atom_site_type_symbol
_atom_site_label
_atom_site_fract_x
_atom_site_fract_y
_atom_site_fract_z
Si Si1 0.000000 0.863792 0.354409
Si Si2 0.154124 0.636135 0.093513
Si Si3 0.153997 0.607516 0.629838
Si Si4 0.244861 0.500000 0.500000
Si Si5 0.500000 0.842891 0.379588
Si Si6 0.500000 0.166962 0.259100
Si Si7 0.000000 0.350953 0.970280
Si Si8 0.120647 0.998833 0.275505
O O1 0.000000 0.733454 0.338128
O O2 0.000000 0.890293 0.443555
O O3 0.071620 0.909273 0.316788
O O4 0.167198 0.762607 0.117184
O O5 0.071798 0.606873 0.071694
O O6 0.173539 0.556361 0.163792
O O7 0.206279 0.604099 0.024415
O O8 0.195869 0.536923 0.568987
O O9 0.069205 0.580191 0.624575
O O10 0.171684 0.563384 0.714372
O O11 0.500000 0.750465 0.312801
O O12 0.500000 0.781652 0.461468
O O13 0.428606 0.094504 0.259599
#
# Coordination Sequence:
#
# PCOD8261966 Si02
#       8
#     8  16  16   8   8   8   8  16
#     4  11  20  31  59 106 133 161 217 276 341 415
#     4  11  23  46  68  99 140 174 233 299 338 420
#     4  11  24  45  68  99 137 178 228 293 344 416
#     4  12  28  44  66  94 138 198 234 268 358 422
#     4  10  18  42  67  93 138 168 207 288 341 396
#     4  11  18  37  62 106 138 163 209 293 344 414
#     4  10  20  37  70  97 125 167 215 290 352 374
#     4  11  20  36  68  93 131 177 221 274 359 396
#
# _framework density 21.996648
#
# number of rings (size 3 to 8) (size 9 to 14) (size 15 to 20)
#    0.000    1.091    5.455    2.727    0.000    5.091 
#    0.000    7.273    0.000    0.000    0.000    0.000 
#    0.000    0.000    0.000    0.000    0.000    0.000 
#
# Total GULP energy -545412.301739 kJ/mol
# GULP energy per Si atom -12395.734130 kJ/mol
# Density = 2.194658 g / cm^3
# Si number density = 21.996648 Si / 1000 Ang^3
#
#
#
# Elastic Constant Matrix: (Units=GPa)
#
#
# Indices 1 2 3 4 5 6 
#
# 1 77.4107 27.1720 43.8280 0.0000 0.0000 0.0000
# 2 27.1720 87.7015 51.3312 0.0000 0.0000 0.0000
# 3 43.8280 51.3312 146.1734 0.0000 0.0000 0.0000
# 4 0.0000 0.0000 0.0000 37.5047 0.0000 0.0000
# 5 0.0000 0.0000 0.0000 0.0000 22.0196 0.0000
# 6 0.0000 0.0000 0.0000 0.0000 0.0000 -69.5754
#
#
#
# Elastic Compliance Matrix: (Units=1/GPa)
#
#
# Indices 1 2 3 4 5 6 
#
# 1 0.016057 -0.002715 -0.003861 0.000000 0.000000 0.000000
# 2 -0.002715 0.014811 -0.004387 0.000000 0.000000 0.000000
# 3 -0.003861 -0.004387 0.009540 0.000000 0.000000 0.000000
# 4 0.000000 0.000000 0.000000 0.026663 0.000000 0.000000
# 5 0.000000 0.000000 0.000000 0.000000 0.045414 0.000000
# 6 0.000000 0.000000 0.000000 0.000000 0.000000 -0.014373
#
#
# Mechanical properties :
#
#
# Convention : Reuss Voigt Hill
#
# Bulk Modulus (GPa) = 54.10842 61.77198 57.94020
# Shear Modulus (GPa) = 39.61982 10.58673 25.10327
#
# Velocity S-wave (km/s) = 4.24863 2.19621 3.38188
# Velocity P-wave (km/s) = 6.97995 5.88001 6.45346
#
# Compressibility (1/GPa) = 0.01848141
#
# Stress axis : x y z
#
# Youngs Moduli (GPa) = 62.27745 67.51612 104.82721
#
# Poissons Ratio (x) = 0.18331 0.40475
# Poissons Ratio (y) = 0.16908 0.45989
# Poissons Ratio (z) = 0.24046 0.29620
#
# Static dielectric constant tensor:
#      x y z
#    x 3.841540 0.000000 0.000000 
#    y 0.000000 4.001730 0.000000 
#    z 0.000000 0.000000 4.118430 
# 
# 
# High freq. dielectric constant tensor:
#      x y z
#    x 1.848130 0.000000 0.000000 
#    y 0.000000 1.866050 0.000000 
#    z 0.000000 0.000000 1.867730 
# 
# From -- ./inp_files/34192.got.cif
#   From: 2010.03.12/outbox.cif.g09.slc.cpg/sg64_18_cif.got.tgz:34192.got - 2010.04.10 20:19:32.
