data_PCOD8261932
_publ_section_title
;
Structure prediction by ZEFSAII (Michael W. Deem and Ramdas Pophale) SiO2 
 PCOD8261932
Probable space group: C M C A
;
_chemical_formula_sum "Si O2"
_cell_formula_units_Z 80
_cell_length_a 17.801295
_cell_length_b 25.552658
_cell_length_c 9.986409
_cell_angle_alpha 90.000000
_cell_angle_beta 90.000000
_cell_angle_gamma 90.000000
_cell_volume 4542.521887
_symmetry_space_group_name_H-M "C M C A"
_symmetry_group_IT_number 64
_symmetry_cell_setting 'orthorhombic'
loop_
_space_group_symop_operation_xyz
x,y,z
-x,1/2-y,1/2+z
x,-y,-z
-x,1/2+y,1/2-z
-x,-y,-z
x,1/2+y,1/2-z
-x,y,z
x,1/2-y,1/2+z
1/2+x,1/2+y,z
1/2-x,-y,1/2+z
1/2+x,1/2-y,-z
1/2-x,y,1/2-z
1/2-x,1/2-y,-z
1/2+x,y,1/2-z
1/2-x,1/2+y,z
1/2+x,-y,1/2+z
loop_
_atom_site_type_symbol
_atom_site_label
_atom_site_fract_x
_atom_site_fract_y
_atom_site_fract_z
Si Si1 0.416781 0.393506 0.993587
Si Si2 0.000000 0.299152 0.903545
Si Si3 0.000000 0.299169 0.596446
Si Si4 0.162013 0.075000 0.749994
Si Si5 0.589479 0.538060 0.250029
Si Si6 0.416780 0.393484 0.506392
O O1 0.500000 0.414141 0.038003
O O2 0.361662 0.391979 0.119949
O O3 0.425995 0.334825 0.932818
O O4 0.381346 0.431901 0.882061
O O5 0.000000 0.280080 0.749988
O O6 0.000000 0.249985 0.999971
O O7 0.074006 0.334804 0.932834
O O8 0.250000 0.065673 0.750000
O O9 0.138339 0.108045 0.619975
O O10 0.120615 0.019823 0.749939
O O11 0.500000 0.539423 0.250028
O O12 0.618655 0.568119 0.382087
O O13 0.500000 0.414118 0.461975
#
# Coordination Sequence:
#
# PCOD8261932 Si02
#       6
#    16   8   8  16  16  16
#     4   9  19  37  55  82 112 143 184 234 277 326
#     4  10  20  36  63  97 104 130 179 241 291 330
#     4  10  20  36  63  97 104 130 179 241 291 330
#     4  12  24  32  50  84 118 158 192 216 262 326
#     4  10  18  36  56  76 114 148 192 228 276 330
#     4   9  19  37  55  82 112 143 184 234 277 326
#
# _framework density 17.611362
#
# number of rings (size 3 to 8) (size 9 to 14) (size 15 to 20)
#    1.200    0.800    2.000    3.000    2.800    6.400 
#    0.000    0.000    0.000    1.200    0.000    0.000 
#    0.000    0.000    0.000    0.000    0.000    0.000 
#
# Total GULP energy -495789.903888 kJ/mol
# GULP energy per Si atom -12394.747597 kJ/mol
# Density = 1.757128 g / cm^3
# Si number density = 17.611362 Si / 1000 Ang^3
#
#
#
# Elastic Constant Matrix: (Units=GPa)
#
#
# Indices 1 2 3 4 5 6 
#
# 1 19.6779 0.6415 30.0076 0.0000 0.0000 0.0000
# 2 0.6415 94.0254 44.2782 0.0000 0.0000 0.0000
# 3 30.0076 44.2782 152.7339 0.0000 0.0000 0.0000
# 4 0.0000 0.0000 0.0000 38.1374 0.0000 0.0000
# 5 0.0000 0.0000 0.0000 0.0000 5.1649 0.0000
# 6 0.0000 0.0000 0.0000 0.0000 0.0000 2.1758
#
#
#
# Elastic Compliance Matrix: (Units=1/GPa)
#
#
# Indices 1 2 3 4 5 6 
#
# 1 0.077026 0.007645 -0.017350 0.000000 0.000000 0.000000
# 2 0.007645 0.013076 -0.005293 0.000000 0.000000 0.000000
# 3 -0.017350 -0.005293 0.011490 0.000000 0.000000 0.000000
# 4 0.000000 0.000000 0.000000 0.026221 0.000000 0.000000
# 5 0.000000 0.000000 0.000000 0.000000 0.193613 0.000000
# 6 0.000000 0.000000 0.000000 0.000000 0.000000 0.459604
#
#
# Mechanical properties :
#
#
# Convention : Reuss Voigt Hill
#
# Bulk Modulus (GPa) = 13.96699 46.25463 30.11081
# Shear Modulus (GPa) = 5.98880 21.86295 13.92587
#
# Velocity S-wave (km/s) = 1.84605 3.52719 2.81505
# Velocity P-wave (km/s) = 3.53437 6.55051 5.26312
#
# Compressibility (1/GPa) = 0.07159740
#
# Stress axis : x y z
#
# Youngs Moduli (GPa) = 12.98256 76.47792 87.02945
#
# Poissons Ratio (x) = -0.58465 1.50992
# Poissons Ratio (y) = -0.09925 0.46062
# Poissons Ratio (z) = 0.22524 0.40477
#
# Static dielectric constant tensor:
#      x y z
#    x 2.846020 0.000000 0.000000 
#    y 0.000000 3.070370 0.000000 
#    z 0.000000 0.000000 3.411680 
# 
# 
# High freq. dielectric constant tensor:
#      x y z
#    x 1.631020 0.000000 0.000000 
#    y 0.000000 1.666780 0.000000 
#    z 0.000000 0.000000 1.702450 
# 
# From -- ./inp_files/7292.got.cif
#   From: 2010.03.12/outbox.cif.g09.slc.cpg/sg64_4_cif.got.tgz:7292.got - 2010.04.10 20:19:32.
