data_PCOD8261455
_publ_section_title
;
Structure prediction by ZEFSAII (Michael W. Deem and Ramdas Pophale) SiO2 
 PCOD8261455
Probable space group: C M C A
;
_chemical_formula_sum "Si O2"
_cell_formula_units_Z 80
_cell_length_a 8.487103
_cell_length_b 28.201128
_cell_length_c 18.348237
_cell_angle_alpha 90.000000
_cell_angle_beta 90.000000
_cell_angle_gamma 90.000000
_cell_volume 4391.574895
_symmetry_space_group_name_H-M "C M C A"
_symmetry_group_IT_number 64
_symmetry_cell_setting 'orthorhombic'
loop_
_space_group_symop_operation_xyz
x,y,z
-x,1/2-y,1/2+z
x,-y,-z
-x,1/2+y,1/2-z
-x,-y,-z
x,1/2+y,1/2-z
-x,y,z
x,1/2-y,1/2+z
1/2+x,1/2+y,z
1/2-x,-y,1/2+z
1/2+x,1/2-y,-z
1/2-x,y,1/2-z
1/2-x,1/2-y,-z
1/2+x,y,1/2-z
1/2-x,1/2+y,z
1/2+x,-y,1/2+z
loop_
_atom_site_type_symbol
_atom_site_label
_atom_site_fract_x
_atom_site_fract_y
_atom_site_fract_z
Si Si1 0.685397 0.800430 0.022549
Si Si2 0.682405 0.393080 0.981167
Si Si3 0.182656 0.832984 0.175158
Si Si4 0.817593 0.924837 0.370338
Si Si5 0.680690 0.477974 0.579030
O O1 0.500000 0.802309 0.011338
O O2 0.726621 0.810572 0.106885
O O3 0.750000 0.750000 0.000000
O O4 0.768022 0.838488 0.967564
O O5 0.500000 0.395504 0.003421
O O6 0.717458 0.429182 0.913433
O O7 0.795473 0.409944 0.045954
O O8 0.250000 0.810659 0.250000
O O9 0.210184 0.890212 0.178512
O O10 0.000000 0.821134 0.167760
O O11 0.000000 0.917288 0.349545
O O12 0.769517 0.980787 0.362678
O O13 0.711673 0.500000 0.500000
O O14 0.500000 0.464390 0.591182
#
# Coordination Sequence:
#
# PCOD8261455 Si02
#       5
#    16  16  16  16  16
#     4  11  21  35  52  72  99 130 167 213 263 309
#     4  10  17  25  40  64  92 122 156 194 238 286
#     4  11  21  34  51  73 100 131 166 204 251 305
#     4   9  16  27  42  62  90 123 156 191 233 281
#     4   8  14  24  38  58  87 121 152 183 223 270
#
# _framework density 18.216698999999998
#
# number of rings (size 3 to 8) (size 9 to 14) (size 15 to 20)
#    0.000    2.200    0.000    9.600    0.000    4.400 
#    0.000    0.000    0.000    0.000    0.000    1.400 
#    0.000    6.400    0.000    0.000    0.000    0.000 
#
# Total GULP energy -495524.803767 kJ/mol
# GULP energy per Si atom -12388.120094 kJ/mol
# Density = 1.817524 g / cm^3
# Si number density = 18.216699 Si / 1000 Ang^3
#
#
#
# Elastic Constant Matrix: (Units=GPa)
#
#
# Indices 1 2 3 4 5 6 
#
# 1 81.9318 29.2928 11.2009 0.0000 0.0000 0.0000
# 2 29.2928 132.1648 25.1523 0.0000 0.0000 0.0000
# 3 11.2009 25.1523 36.3225 0.0000 0.0000 0.0000
# 4 0.0000 0.0000 0.0000 12.5012 0.0000 0.0000
# 5 0.0000 0.0000 0.0000 0.0000 18.6709 0.0000
# 6 0.0000 0.0000 0.0000 0.0000 0.0000 32.8363
#
#
#
# Elastic Compliance Matrix: (Units=1/GPa)
#
#
# Indices 1 2 3 4 5 6 
#
# 1 0.013434 -0.002521 -0.002397 0.000000 0.000000 0.000000
# 2 -0.002521 0.009188 -0.005585 0.000000 0.000000 0.000000
# 3 -0.002397 -0.005585 0.032138 0.000000 0.000000 0.000000
# 4 0.000000 0.000000 0.000000 0.079992 0.000000 0.000000
# 5 0.000000 0.000000 0.000000 0.000000 0.053559 0.000000
# 6 0.000000 0.000000 0.000000 0.000000 0.000000 0.030454
#
#
# Mechanical properties :
#
#
# Convention : Reuss Voigt Hill
#
# Bulk Modulus (GPa) = 29.62630 42.41235 36.01933
# Shear Modulus (GPa) = 19.91847 25.11988 22.51918
#
# Velocity S-wave (km/s) = 3.31027 3.71745 3.51975
# Velocity P-wave (km/s) = 5.55960 6.46209 6.02776
#
# Compressibility (1/GPa) = 0.03375379
#
# Stress axis : x y z
#
# Youngs Moduli (GPa) = 74.43562 108.83739 31.11623
#
# Poissons Ratio (x) = 0.27443 0.07458
# Poissons Ratio (y) = 0.18769 0.17378
# Poissons Ratio (z) = 0.17841 0.60784
#
# Static dielectric constant tensor:
#      x y z
#    x 3.314700 0.000000 0.000000 
#    y 0.000000 4.114960 0.000000 
#    z 0.000000 0.000000 3.790410 
# 
# 
# High freq. dielectric constant tensor:
#      x y z
#    x 1.716580 0.000000 0.000000 
#    y 0.000000 1.708860 0.000000 
#    z 0.000000 0.000000 1.639000 
# 
# From -- ./inp_files/29976.got.cif
#   From: 2010.03.12/outbox.cif.g09.slc.cpg/sg64_15_cif.got.tgz:29976.got - 2010.04.10 20:19:32.
