data_PCOD8261326
_publ_section_title
;
Structure prediction by ZEFSAII (Michael W. Deem and Ramdas Pophale) SiO2 
 PCOD8261326
Probable space group: C M C M
;
_chemical_formula_sum "Si O2"
_cell_formula_units_Z 112
_cell_length_a 16.510846
_cell_length_b 26.121716
_cell_length_c 16.852380
_cell_angle_alpha 90.000000
_cell_angle_beta 90.000000
_cell_angle_gamma 90.000000
_cell_volume 7268.290442
_symmetry_space_group_name_H-M "C M C M"
_symmetry_group_IT_number 63
_symmetry_cell_setting 'orthorhombic'
loop_
_space_group_symop_operation_xyz
x,y,z
-x,-y,1/2+z
x,-y,-z
-x,y,1/2-z
-x,-y,-z
x,y,1/2-z
-x,y,z
x,-y,1/2+z
1/2+x,1/2+y,z
1/2-x,1/2-y,1/2+z
1/2+x,1/2-y,-z
1/2-x,1/2+y,1/2-z
1/2-x,1/2-y,-z
1/2+x,1/2+y,1/2-z
1/2-x,1/2+y,z
1/2+x,1/2-y,1/2+z
loop_
_atom_site_type_symbol
_atom_site_label
_atom_site_fract_x
_atom_site_fract_y
_atom_site_fract_z
Si Si1 0.716798 0.656473 0.542489
Si Si2 0.213985 0.265821 0.158639
Si Si3 0.336964 0.193693 0.091297
Si Si4 0.710044 0.947162 0.035169
Si Si5 0.591566 0.090628 0.098057
Si Si6 0.410264 0.015785 0.661353
Si Si7 0.092864 0.228872 0.475817
O O1 0.749979 0.680874 0.624518
O O2 0.773802 0.675347 0.473262
O O3 0.718527 0.594369 0.549512
O O4 0.628362 0.676838 0.516223
O O5 0.185618 0.273204 0.250000
O O6 0.288163 0.225424 0.157329
O O7 0.139415 0.245773 0.104700
O O8 0.379044 0.145043 0.133615
O O9 0.402300 0.227781 0.043869
O O10 0.662576 0.957146 0.116247
O O11 0.642839 0.924051 0.978312
O O12 0.747416 0.000000 0.000000
O O13 0.500000 0.096438 0.068963
O O14 0.601444 0.045854 0.162674
O O15 0.405491 0.036582 0.750000
O O16 0.500000 0.028351 0.625321
O O17 0.000000 0.218946 0.452642
#
# Coordination Sequence:
#
# PCOD8261326 Si02
#       7
#    16  16  16  16  16  16  16
#     4   8  16  29  43  60  81 109 143 175 206 241
#     4   9  17  28  42  63  90 113 134 165 207 256
#     4   8  15  27  42  60  82 112 144 167 193 239
#     4   9  16  27  43  58  75 106 147 181 208 245
#     4   9  15  24  40  59  79 106 140 173 200 232
#     4   9  17  26  35  54  84 110 133 167 211 252
#     4   9  16  28  46  64  84 111 141 173 210 250
#
# _framework density 15.4094
#
# number of rings (size 3 to 8) (size 9 to 14) (size 15 to 20)
#    0.000    3.286    0.000    2.571    0.000    3.143 
#    0.000    0.714    0.000   10.714    0.000    0.000 
#    0.000    0.000    0.000    1.286    0.000    0.000 
#
# Total GULP energy -693750.119550 kJ/mol
# GULP energy per Si atom -12388.394992 kJ/mol
# Density = 1.537433 g / cm^3
# Si number density = 15.409400 Si / 1000 Ang^3
#
#
#
# Elastic Constant Matrix: (Units=GPa)
#
#
# Indices 1 2 3 4 5 6 
#
# 1 68.8201 36.1987 25.1629 0.0000 0.0000 0.0000
# 2 36.1987 102.5301 19.7235 0.0000 0.0000 0.0000
# 3 25.1629 19.7235 64.0176 0.0000 0.0000 0.0000
# 4 0.0000 0.0000 0.0000 11.3141 0.0000 0.0000
# 5 0.0000 0.0000 0.0000 0.0000 16.8211 0.0000
# 6 0.0000 0.0000 0.0000 0.0000 0.0000 19.4893
#
#
#
# Elastic Compliance Matrix: (Units=1/GPa)
#
#
# Indices 1 2 3 4 5 6 
#
# 1 0.019786 -0.005835 -0.005979 0.000000 0.000000 0.000000
# 2 -0.005835 0.012089 -0.001431 0.000000 0.000000 0.000000
# 3 -0.005979 -0.001431 0.018412 0.000000 0.000000 0.000000
# 4 0.000000 0.000000 0.000000 0.088385 0.000000 0.000000
# 5 0.000000 0.000000 0.000000 0.000000 0.059449 0.000000
# 6 0.000000 0.000000 0.000000 0.000000 0.000000 0.051310
#
#
# Mechanical properties :
#
#
# Convention : Reuss Voigt Hill
#
# Bulk Modulus (GPa) = 42.02456 44.17090 43.09773
# Shear Modulus (GPa) = 17.61467 19.81041 18.71254
#
# Velocity S-wave (km/s) = 3.38466 3.58942 3.48855
# Velocity P-wave (km/s) = 6.52731 6.77538 6.65250
#
# Compressibility (1/GPa) = 0.02379561
#
# Stress axis : x y z
#
# Youngs Moduli (GPa) = 50.54014 82.72196 54.31302
#
# Poissons Ratio (x) = 0.48272 0.32476
# Poissons Ratio (y) = 0.29492 0.07771
# Poissons Ratio (z) = 0.30220 0.11836
#
# Static dielectric constant tensor:
#      x y z
#    x 2.827840 0.000000 0.000000 
#    y 0.000000 3.507250 0.000000 
#    z 0.000000 0.000000 2.723590 
# 
# 
# High freq. dielectric constant tensor:
#      x y z
#    x 1.559840 0.000000 0.000000 
#    y 0.000000 1.590180 0.000000 
#    z 0.000000 0.000000 1.574430 
# 
# From -- ./inp_files/46246.got.cif
#   From: 2010.03.12/outbox.cif.g09.slc.cpg/sg63_24_cif.got.tgz:46246.got - 2010.04.10 19:34:48.
