data_PCOD8261714
_publ_section_title
;
Structure prediction by ZEFSAII (Michael W. Deem and Ramdas Pophale) SiO2 
 PCOD8261714
Probable space group: C M C A
;
_chemical_formula_sum "Si O2"
_cell_formula_units_Z 96
_cell_length_a 20.010460
_cell_length_b 8.244319
_cell_length_c 30.899037
_cell_angle_alpha 90.000000
_cell_angle_beta 90.000000
_cell_angle_gamma 90.000000
_cell_volume 5097.494953
_symmetry_space_group_name_H-M "C M C A"
_symmetry_group_IT_number 64
_symmetry_cell_setting 'orthorhombic'
loop_
_space_group_symop_operation_xyz
x,y,z
-x,1/2-y,1/2+z
x,-y,-z
-x,1/2+y,1/2-z
-x,-y,-z
x,1/2+y,1/2-z
-x,y,z
x,1/2-y,1/2+z
1/2+x,1/2+y,z
1/2-x,-y,1/2+z
1/2+x,1/2-y,-z
1/2-x,y,1/2-z
1/2-x,1/2-y,-z
1/2+x,y,1/2-z
1/2-x,1/2+y,z
1/2+x,-y,1/2+z
loop_
_atom_site_type_symbol
_atom_site_label
_atom_site_fract_x
_atom_site_fract_y
_atom_site_fract_z
Si Si1 0.662546 0.585573 0.858748
Si Si2 0.577608 0.635485 0.386021
Si Si3 0.579305 0.070430 0.287756
Si Si4 0.771849 0.212782 0.101045
Si Si5 0.331997 0.503487 0.551117
Si Si6 0.077853 0.063902 0.695170
O O1 0.609195 0.685198 0.887036
O O2 0.627336 0.558496 0.812192
O O3 0.733020 0.685972 0.860716
O O4 0.674866 0.408682 0.878339
O O5 0.500000 0.657064 0.380462
O O6 0.594749 0.544699 0.430821
O O7 0.609693 0.528978 0.346216
O O8 0.500000 0.040557 0.298000
O O9 0.603680 0.251780 0.299813
O O10 0.593563 0.043276 0.237245
O O11 0.719568 0.124477 0.070350
O O12 0.814232 0.320144 0.068263
O O13 0.332342 0.500000 0.500000
O O14 0.000000 0.075621 0.686761
#
# Coordination Sequence:
#
# PCOD8261714 Si02
#       6
#    16  16  16  16  16  16
#     4  10  19  34  55  74 104 137 172 215 251 302
#     4  10  20  34  53  79 108 136 168 213 269 314
#     4  10  18  30  53  81 105 133 169 208 251 298
#     4   9  20  35  53  78 101 135 179 213 255 302
#     4  10  19  34  57  78 102 134 172 218 259 312
#     4   9  18  31  50  79 109 137 170 206 248 305
#
# _framework density 18.83278
#
# number of rings (size 3 to 8) (size 9 to 14) (size 15 to 20)
#    0.000    2.333    0.000    3.000    0.000    3.000 
#    0.000    0.833    0.000   35.000    0.000    0.000 
#    0.000    0.000    0.000    0.000    0.000    0.000 
#
# Total GULP energy -594840.661800 kJ/mol
# GULP energy per Si atom -12392.513788 kJ/mol
# Density = 1.878992 g / cm^3
# Si number density = 18.832780 Si / 1000 Ang^3
#
#
#
# Elastic Constant Matrix: (Units=GPa)
#
#
# Indices 1 2 3 4 5 6 
#
# 1 50.3147 33.2560 41.9465 0.0000 0.0000 0.0000
# 2 33.2560 103.5990 32.8151 0.0000 0.0000 0.0000
# 3 41.9465 32.8151 89.6696 0.0000 0.0000 0.0000
# 4 0.0000 0.0000 0.0000 20.2199 0.0000 0.0000
# 5 0.0000 0.0000 0.0000 0.0000 19.4352 0.0000
# 6 0.0000 0.0000 0.0000 0.0000 0.0000 28.3087
#
#
#
# Elastic Compliance Matrix: (Units=1/GPa)
#
#
# Indices 1 2 3 4 5 6 
#
# 1 0.036775 -0.007189 -0.014572 0.000000 0.000000 0.000000
# 2 -0.007189 0.012324 -0.001147 0.000000 0.000000 0.000000
# 3 -0.014572 -0.001147 0.018388 0.000000 0.000000 0.000000
# 4 0.000000 0.000000 0.000000 0.049456 0.000000 0.000000
# 5 0.000000 0.000000 0.000000 0.000000 0.051453 0.000000
# 6 0.000000 0.000000 0.000000 0.000000 0.000000 0.035325
#
#
# Mechanical properties :
#
#
# Convention : Reuss Voigt Hill
#
# Bulk Modulus (GPa) = 46.14503 51.06870 48.60686
# Shear Modulus (GPa) = 19.47333 22.63048 21.05190
#
# Velocity S-wave (km/s) = 3.21909 3.47025 3.34703
# Velocity P-wave (km/s) = 6.19455 6.57515 6.38769
#
# Compressibility (1/GPa) = 0.02167081
#
# Stress axis : x y z
#
# Youngs Moduli (GPa) = 27.19220 81.14451 54.38213
#
# Poissons Ratio (x) = 0.58338 0.79246
# Poissons Ratio (y) = 0.19550 0.06237
# Poissons Ratio (z) = 0.39625 0.09306
#
# Static dielectric constant tensor:
#      x y z
#    x 3.356950 0.000000 0.000000 
#    y 0.000000 3.754570 0.000000 
#    z 0.000000 0.000000 3.334040 
# 
# 
# High freq. dielectric constant tensor:
#      x y z
#    x 1.715340 0.000000 0.000000 
#    y 0.000000 1.750410 0.000000 
#    z 0.000000 0.000000 1.713290 
# 
# From -- ./inp_files/50646.got.cif
#   From: 2010.03.12/outbox.cif.g09.slc.cpg/sg64_26_cif.got.tgz:50646.got - 2010.04.10 20:19:32.
