data_PCOD8261070
_publ_section_title
;
Structure prediction by ZEFSAII (Michael W. Deem and Ramdas Pophale) SiO2 
 PCOD8261070
Probable space group: C M C M
;
_chemical_formula_sum "Si O2"
_cell_formula_units_Z 96
_cell_length_a 9.205543
_cell_length_b 28.063741
_cell_length_c 20.613147
_cell_angle_alpha 90.000000
_cell_angle_beta 90.000000
_cell_angle_gamma 90.000000
_cell_volume 5325.241097
_symmetry_space_group_name_H-M "C M C M"
_symmetry_group_IT_number 63
_symmetry_cell_setting 'orthorhombic'
loop_
_space_group_symop_operation_xyz
x,y,z
-x,-y,1/2+z
x,-y,-z
-x,y,1/2-z
-x,-y,-z
x,y,1/2-z
-x,y,z
x,-y,1/2+z
1/2+x,1/2+y,z
1/2-x,1/2-y,1/2+z
1/2+x,1/2-y,-z
1/2-x,1/2+y,1/2-z
1/2-x,1/2-y,-z
1/2+x,1/2+y,1/2-z
1/2-x,1/2+y,z
1/2+x,1/2-y,1/2+z
loop_
_atom_site_type_symbol
_atom_site_label
_atom_site_fract_x
_atom_site_fract_y
_atom_site_fract_z
Si Si1 0.673143 0.257675 0.824224
Si Si2 0.161394 0.564256 0.896215
Si Si3 0.336583 0.848307 0.324053
Si Si4 0.172701 0.287129 0.548816
Si Si5 0.838577 0.979092 0.572316
Si Si6 0.340492 0.894984 0.536978
O O1 0.707907 0.274527 0.750000
O O2 0.500000 0.261212 0.836049
O O3 0.732461 0.203689 0.833768
O O4 0.761877 0.286682 0.878137
O O5 0.243855 0.609235 0.862543
O O6 0.250227 0.516085 0.882959
O O7 0.000000 0.556640 0.866768
O O8 0.149662 0.575682 0.971307
O O9 0.335860 0.863246 0.250000
O O10 0.500000 0.845129 0.351810
O O11 0.250000 0.250000 0.500000
O O12 0.209295 0.340556 0.524308
O O13 0.000000 0.276795 0.549490
O O14 0.770547 0.926021 0.580035
O O15 0.000000 0.975013 0.600258
O O16 0.840600 0.000000 0.500000
O O17 0.500000 0.894226 0.570294
#
# Coordination Sequence:
#
# PCOD8261070 Si02
#       6
#    16  16  16  16  16  16
#     4   9  18  34  54  74 100 135 172 207 247 299
#     4   9  15  26  46  67  90 120 153 188 228 279
#     4   8  14  26  46  70  93 121 158 194 228 277
#     4  11  22  34  51  76 105 133 167 212 255 296
#     4   9  17  28  43  65  91 117 146 184 233 287
#     4   9  18  31  46  66  92 124 159 194 234 282
#
# _framework density 18.027353999999999
#
# number of rings (size 3 to 8) (size 9 to 14) (size 15 to 20)
#    0.000    2.833    0.000    3.000    0.000    6.333 
#    0.000    4.167    0.000    2.500    0.000    2.333 
#    0.000    0.000    0.000    0.000    0.000    0.000 
#
# Total GULP energy -594643.434708 kJ/mol
# GULP energy per Si atom -12388.404890 kJ/mol
# Density = 1.798632 g / cm^3
# Si number density = 18.027354 Si / 1000 Ang^3
#
#
#
# Elastic Constant Matrix: (Units=GPa)
#
#
# Indices 1 2 3 4 5 6 
#
# 1 89.8478 54.1188 24.2890 0.0000 0.0000 0.0000
# 2 54.1188 111.3429 13.5506 0.0000 0.0000 0.0000
# 3 24.2890 13.5506 37.8896 0.0000 0.0000 0.0000
# 4 0.0000 0.0000 0.0000 26.1414 0.0000 0.0000
# 5 0.0000 0.0000 0.0000 0.0000 16.4010 0.0000
# 6 0.0000 0.0000 0.0000 0.0000 0.0000 22.5123
#
#
#
# Elastic Compliance Matrix: (Units=1/GPa)
#
#
# Indices 1 2 3 4 5 6 
#
# 1 0.018216 -0.007771 -0.008898 0.000000 0.000000 0.000000
# 2 -0.007771 0.012705 0.000438 0.000000 0.000000 0.000000
# 3 -0.008898 0.000438 0.031940 0.000000 0.000000 0.000000
# 4 0.000000 0.000000 0.000000 0.038253 0.000000 0.000000
# 5 0.000000 0.000000 0.000000 0.000000 0.060972 0.000000
# 6 0.000000 0.000000 0.000000 0.000000 0.000000 0.044420
#
#
# Mechanical properties :
#
#
# Convention : Reuss Voigt Hill
#
# Bulk Modulus (GPa) = 32.89640 46.99966 39.94803
# Shear Modulus (GPa) = 20.07201 22.81908 21.44555
#
# Velocity S-wave (km/s) = 3.34041 3.56167 3.45282
# Velocity P-wave (km/s) = 5.75895 6.56063 6.17282
#
# Compressibility (1/GPa) = 0.03039846
#
# Stress axis : x y z
#
# Youngs Moduli (GPa) = 54.89578 78.70794 31.30860
#
# Poissons Ratio (x) = 0.61166 0.27859
# Poissons Ratio (y) = 0.42661 -0.01371
# Poissons Ratio (z) = 0.48848 -0.03447
#
# Static dielectric constant tensor:
#      x y z
#    x 3.353770 0.000000 0.000000 
#    y 0.000000 3.469650 0.000000 
#    z 0.000000 0.000000 3.056770 
# 
# 
# High freq. dielectric constant tensor:
#      x y z
#    x 1.678730 0.000000 0.000000 
#    y 0.000000 1.703380 0.000000 
#    z 0.000000 0.000000 1.660260 
# 
# From -- ./inp_files/51421.got.cif
#   From: 2010.03.12/outbox.cif.g09.slc.cpg/sg63_26_cif.got.tgz:51421.got - 2010.04.10 19:34:48.
