data_PCOD8261084
_publ_section_title
;
Structure prediction by ZEFSAII (Michael W. Deem and Ramdas Pophale) SiO2 
 PCOD8261084
Probable space group: C M C M
;
_chemical_formula_sum "Si O2"
_cell_formula_units_Z 96
_cell_length_a 22.863849
_cell_length_b 15.082859
_cell_length_c 14.795551
_cell_angle_alpha 90.000000
_cell_angle_beta 90.000000
_cell_angle_gamma 90.000000
_cell_volume 5102.278470
_symmetry_space_group_name_H-M "C M C M"
_symmetry_group_IT_number 63
_symmetry_cell_setting 'orthorhombic'
loop_
_space_group_symop_operation_xyz
x,y,z
-x,-y,1/2+z
x,-y,-z
-x,y,1/2-z
-x,-y,-z
x,y,1/2-z
-x,y,z
x,-y,1/2+z
1/2+x,1/2+y,z
1/2-x,1/2-y,1/2+z
1/2+x,1/2-y,-z
1/2-x,1/2+y,1/2-z
1/2-x,1/2-y,-z
1/2+x,1/2+y,1/2-z
1/2-x,1/2+y,z
1/2+x,1/2-y,1/2+z
loop_
_atom_site_type_symbol
_atom_site_label
_atom_site_fract_x
_atom_site_fract_y
_atom_site_fract_z
Si Si1 0.851161 0.902396 0.016601
Si Si2 0.751668 0.138057 0.650431
Si Si3 0.567057 0.298567 0.148567
Si Si4 0.314617 0.019724 0.400400
Si Si5 0.935418 0.408429 0.645521
Si Si6 0.779590 0.164427 0.353980
O O1 0.796105 0.908780 0.082810
O O2 0.899935 0.845213 0.066557
O O3 0.832709 0.863684 0.919028
O O4 0.876750 0.000000 0.000000
O O5 0.779619 0.146943 0.750000
O O6 0.735846 0.235720 0.615305
O O7 0.696425 0.070816 0.656005
O O8 0.590523 0.322797 0.250000
O O9 0.500000 0.327283 0.142275
O O10 0.575033 0.195078 0.131606
O O11 0.383750 0.039038 0.403760
O O12 0.277958 0.102904 0.361693
O O13 0.291792 0.000000 0.500000
O O14 0.932349 0.433413 0.750000
O O15 0.000000 0.435038 0.607456
O O16 0.801670 0.162236 0.250000
#
# Coordination Sequence:
#
# PCOD8261084 Si02
#       6
#    16  16  16  16  16  16
#     4  12  22  35  57  85 113 150 184 235 288 340
#     4  11  22  36  56  82 114 153 189 231 284 337
#     4   9  20  39  63  88 111 142 188 239 287 334
#     4  12  22  35  56  85 117 151 187 236 283 341
#     4   9  19  37  60  84 112 148 189 236 284 329
#     4  11  23  38  55  79 116 156 193 235 280 333
#
# _framework density 18.815123
#
# number of rings (size 3 to 8) (size 9 to 14) (size 15 to 20)
#    0.000    1.333    3.333    4.500    2.333    4.000 
#    0.000    0.000    0.000    0.500    0.000    0.000 
#    0.000    0.000    0.000    0.000    0.000    0.000 
#
# Total GULP energy -595012.370731 kJ/mol
# GULP energy per Si atom -12396.091057 kJ/mol
# Density = 1.877230 g / cm^3
# Si number density = 18.815123 Si / 1000 Ang^3
#
#
#
# Elastic Constant Matrix: (Units=GPa)
#
#
# Indices 1 2 3 4 5 6 
#
# 1 93.4289 46.1809 32.8015 0.0000 0.0000 0.0000
# 2 46.1809 109.4333 23.2856 0.0000 0.0000 0.0000
# 3 32.8015 23.2856 92.0022 0.0000 0.0000 0.0000
# 4 0.0000 0.0000 0.0000 27.5601 0.0000 0.0000
# 5 0.0000 0.0000 0.0000 0.0000 31.1996 0.0000
# 6 0.0000 0.0000 0.0000 0.0000 0.0000 22.8577
#
#
#
# Elastic Compliance Matrix: (Units=1/GPa)
#
#
# Indices 1 2 3 4 5 6 
#
# 1 0.014733 -0.005390 -0.003888 0.000000 0.000000 0.000000
# 2 -0.005390 0.011630 -0.001022 0.000000 0.000000 0.000000
# 3 -0.003888 -0.001022 0.012514 0.000000 0.000000 0.000000
# 4 0.000000 0.000000 0.000000 0.036284 0.000000 0.000000
# 5 0.000000 0.000000 0.000000 0.000000 0.032052 0.000000
# 6 0.000000 0.000000 0.000000 0.000000 0.000000 0.043749
#
#
# Mechanical properties :
#
#
# Convention : Reuss Voigt Hill
#
# Bulk Modulus (GPa) = 54.71491 55.48893 55.10192
# Shear Modulus (GPa) = 28.14457 29.16325 28.65391
#
# Velocity S-wave (km/s) = 3.87182 3.94126 3.90669
# Velocity P-wave (km/s) = 7.00938 7.08993 7.04977
#
# Compressibility (1/GPa) = 0.01827655
#
# Stress axis : x y z
#
# Youngs Moduli (GPa) = 67.87664 85.98517 79.90862
#
# Poissons Ratio (x) = 0.46344 0.31072
# Poissons Ratio (y) = 0.36584 0.08166
# Poissons Ratio (z) = 0.26394 0.08787
#
# Static dielectric constant tensor:
#      x y z
#    x 3.340170 0.000000 0.000000 
#    y 0.000000 3.500180 0.000000 
#    z 0.000000 0.000000 3.502590 
# 
# 
# High freq. dielectric constant tensor:
#      x y z
#    x 1.709500 0.000000 0.000000 
#    y 0.000000 1.733740 0.000000 
#    z 0.000000 0.000000 1.738480 
# 
# From -- ./inp_files/35286.got.cif
#   From: 2010.03.12/outbox.cif.g09.slc.cpg/sg63_18_cif.got.tgz:35286.got - 2010.04.10 19:34:48.
