data_PCOD8261373
_publ_section_title
;
Structure prediction by ZEFSAII (Michael W. Deem and Ramdas Pophale) SiO2 
 PCOD8261373
Probable space group: C M C M
;
_chemical_formula_sum "Si O2"
_cell_formula_units_Z 56
_cell_length_a 12.000000
_cell_length_b 24.000000
_cell_length_c 21.000000
_cell_angle_alpha 90.000000
_cell_angle_beta 90.000000
_cell_angle_gamma 90.000000
_cell_volume 6048.000000
_symmetry_space_group_name_H-M "C M C M"
_symmetry_group_IT_number 63
_symmetry_cell_setting 'orthorhombic'
loop_
_space_group_symop_operation_xyz
x,y,z
-x,-y,1/2+z
x,-y,-z
-x,y,1/2-z
-x,-y,-z
x,y,1/2-z
-x,y,z
x,-y,1/2+z
1/2+x,1/2+y,z
1/2-x,1/2-y,1/2+z
1/2+x,1/2-y,-z
1/2-x,1/2+y,1/2-z
1/2-x,1/2-y,-z
1/2+x,1/2+y,1/2-z
1/2-x,1/2+y,z
1/2+x,1/2-y,1/2+z
loop_
_atom_site_type_symbol
_atom_site_label
_atom_site_fract_x
_atom_site_fract_y
_atom_site_fract_z
Si Si1 0.276133 0.251185 0.901922
Si Si2 0.122009 0.450925 0.825065
Si Si3 0.124223 0.342616 0.321445
Si Si4 0.221877 0.051466 0.824848
Si Si5 0.872666 0.947353 0.039770
Si Si6 0.869268 0.824671 0.007553
Si Si7 0.124439 0.671378 0.175029
O O1 0.361078 0.208465 0.869439
O O2 0.191677 0.216600 0.944636
O O3 0.205155 0.280815 0.847991
O O4 0.344634 0.299603 0.937866
O O5 0.109602 0.451059 0.750000
O O6 0.204797 0.499018 0.845665
O O7 0.165846 0.390131 0.847498
O O8 0.000000 0.462490 0.855191
O O9 0.140668 0.319860 0.250000
O O10 0.209680 0.392247 0.334065
O O11 0.000000 0.366883 0.330831
O O12 0.177823 0.047033 0.750000
O O13 0.131815 0.049995 0.882140
O O14 0.821897 0.888067 0.015029
O O15 0.000000 0.946918 0.019754
O O16 0.817912 0.000000 0.000000
O O17 0.000000 0.823231 0.022609
O O18 0.122343 0.674735 0.250000
O O19 0.000000 0.681449 0.147970
#
# Coordination Sequence:
#
# PCOD8261373 Si02
#       7
#    16  16  16  16  16  16  16
#     4  11  20  34  56  78 104 144 181 221 260 323
#     4   8  15  29  50  77 107 136 166 207 263 321
#     4  10  20  34  54  83 115 143 176 222 275 327
#     4  10  19  34  59  85 107 138 181 226 275 329
#     4  10  22  40  59  78 107 144 182 227 278 328
#     4  10  22  38  54  75 103 141 184 222 265 320
#     4   9  18  32  52  80 110 138 173 218 269 323
#
# _framework density 9.2592590000000001
#
# number of rings (size 3 to 8) (size 9 to 14) (size 15 to 20)
#    0.000    2.286    1.429    2.571    2.000    2.000 
#    0.000    0.000    0.000    1.714    0.000    0.000 
#    0.000    0.000    0.000    0.000    0.000    0.000 
#
# Total GULP energy -693772.019506 kJ/mol
# GULP energy per Si atom -12388.786063 kJ/mol
# Density = 0.923818 g / cm^3
# Si number density = 9.259259 Si / 1000 Ang^3
#
#
#
# Elastic Constant Matrix: (Units=GPa)
#
#
# Indices 1 2 3 4 5 6 
#
# 1 36.2855 20.7132 13.5803 0.0000 0.0000 0.0000
# 2 20.7132 108.3447 26.9722 0.0000 0.0000 0.0000
# 3 13.5803 26.9722 73.6166 0.0000 0.0000 0.0000
# 4 0.0000 0.0000 0.0000 32.7124 0.0000 0.0000
# 5 0.0000 0.0000 0.0000 0.0000 19.4762 0.0000
# 6 0.0000 0.0000 0.0000 0.0000 0.0000 25.4084
#
#
#
# Elastic Compliance Matrix: (Units=1/GPa)
#
#
# Indices 1 2 3 4 5 6 
#
# 1 0.031985 -0.005112 -0.004027 0.000000 0.000000 0.000000
# 2 -0.005112 0.010973 -0.003077 0.000000 0.000000 0.000000
# 3 -0.004027 -0.003077 0.015454 0.000000 0.000000 0.000000
# 4 0.000000 0.000000 0.000000 0.030569 0.000000 0.000000
# 5 0.000000 0.000000 0.000000 0.000000 0.051345 0.000000
# 6 0.000000 0.000000 0.000000 0.000000 0.000000 0.039357
#
#
# Mechanical properties :
#
#
# Convention : Reuss Voigt Hill
#
# Bulk Modulus (GPa) = 29.43036 37.86427 33.64731
# Shear Modulus (GPa) = 23.20795 25.98482 24.59638
#
# Velocity S-wave (km/s) = 3.54394 3.74997 3.64841
# Velocity P-wave (km/s) = 5.71602 6.26425 5.99640
#
# Compressibility (1/GPa) = 0.03397852
#
# Stress axis : x y z
#
# Youngs Moduli (GPa) = 31.26494 91.13068 64.70670
#
# Poissons Ratio (x) = 0.46588 0.26059
# Poissons Ratio (y) = 0.15983 0.19913
# Poissons Ratio (z) = 0.12591 0.28045
#
# Static dielectric constant tensor:
#      x y z
#    x 3.307680 0.000000 0.000000 
#    y 0.000000 3.889570 0.000000 
#    z 0.000000 0.000000 3.375610 
# 
# 
# High freq. dielectric constant tensor:
#      x y z
#    x 1.693570 0.000000 0.000000 
#    y 0.000000 1.739860 0.000000 
#    z 0.000000 0.000000 1.710190 
# 
# From -- ./inp_files/53140.got.cif
#   From: 2010.03.12/outbox.ucp.g09.slc.cvg/sg63_27_cif.got.tgz:53140.got - 2010.05.04 19:38:17.
