data_PCOD8261085
_publ_section_title
;
Structure prediction by ZEFSAII (Michael W. Deem and Ramdas Pophale) SiO2 
 PCOD8261085
Probable space group: C M C M
;
_chemical_formula_sum "Si O2"
_cell_formula_units_Z 88
_cell_length_a 16.871291
_cell_length_b 30.434975
_cell_length_c 8.685123
_cell_angle_alpha 90.000000
_cell_angle_beta 90.000000
_cell_angle_gamma 90.000000
_cell_volume 4459.613680
_symmetry_space_group_name_H-M "C M C M"
_symmetry_group_IT_number 63
_symmetry_cell_setting 'orthorhombic'
loop_
_space_group_symop_operation_xyz
x,y,z
-x,-y,1/2+z
x,-y,-z
-x,y,1/2-z
-x,-y,-z
x,y,1/2-z
-x,y,z
x,-y,1/2+z
1/2+x,1/2+y,z
1/2-x,1/2-y,1/2+z
1/2+x,1/2-y,-z
1/2-x,1/2+y,1/2-z
1/2-x,1/2-y,-z
1/2+x,1/2+y,1/2-z
1/2-x,1/2+y,z
1/2+x,1/2-y,1/2+z
loop_
_atom_site_type_symbol
_atom_site_label
_atom_site_fract_x
_atom_site_fract_y
_atom_site_fract_z
Si Si1 0.000000 0.450708 0.567315
Si Si2 0.807940 0.876019 0.066603
Si Si3 0.630076 0.887123 0.070036
Si Si4 0.910585 0.044247 0.932014
Si Si5 0.409025 0.799420 0.582113
Si Si6 0.410521 0.704191 0.933184
O O1 0.000000 0.500000 0.500000
O O2 0.078457 0.424109 0.515995
O O3 0.000000 0.454050 0.750000
O O4 0.805854 0.874313 0.250000
O O5 0.719633 0.885928 0.005492
O O6 0.861274 0.915305 0.002624
O O7 0.847037 0.831169 0.000932
O O8 0.624727 0.897865 0.250000
O O9 0.598622 0.838066 0.041134
O O10 0.906823 0.042373 0.750000
O O11 0.000000 0.049867 0.992192
O O12 0.872567 0.000000 0.000000
O O13 0.371605 0.812246 0.750000
O O14 0.500000 0.789132 0.610639
O O15 0.376049 0.752485 0.519365
O O16 0.413782 0.700274 0.750000
O O17 0.500000 0.695146 0.998090
#
# Coordination Sequence:
#
# PCOD8261085 Si02
#       6
#     8  16  16  16  16  16
#     4  12  26  46  68  86 106 136 182 234 285 344
#     4   9  18  31  49  78 113 143 180 227 271 321
#     4  11  22  36  56  83 113 145 178 222 278 331
#     4   9  17  31  52  75 101 137 177 216 258 311
#     4   9  17  31  53  78 106 145 190 230 267 321
#     4   8  14  27  50  79 110 149 192 229 265 313
#
# _framework density 19.732651000000001
#
# number of rings (size 3 to 8) (size 9 to 14) (size 15 to 20)
#    0.000    2.545    0.909    3.000    0.000    3.636 
#    0.000    3.636    0.000    2.182    0.000    2.545 
#    0.000    0.000    0.000    0.000    0.000    0.000 
#
# Total GULP energy -545225.693135 kJ/mol
# GULP energy per Si atom -12391.493026 kJ/mol
# Density = 1.968774 g / cm^3
# Si number density = 19.732651 Si / 1000 Ang^3
#
#
#
# Elastic Constant Matrix: (Units=GPa)
#
#
# Indices 1 2 3 4 5 6 
#
# 1 107.1881 76.0793 25.6132 0.0000 0.0000 0.0000
# 2 76.0793 187.4090 33.8296 0.0000 0.0000 0.0000
# 3 25.6132 33.8296 46.6218 0.0000 0.0000 0.0000
# 4 0.0000 0.0000 0.0000 26.5509 0.0000 0.0000
# 5 0.0000 0.0000 0.0000 0.0000 14.0352 0.0000
# 6 0.0000 0.0000 0.0000 0.0000 0.0000 9.4900
#
#
#
# Elastic Compliance Matrix: (Units=1/GPa)
#
#
# Indices 1 2 3 4 5 6 
#
# 1 0.013732 -0.004848 -0.004027 0.000000 0.000000 0.000000
# 2 -0.004848 0.007852 -0.003034 0.000000 0.000000 0.000000
# 3 -0.004027 -0.003034 0.025863 0.000000 0.000000 0.000000
# 4 0.000000 0.000000 0.000000 0.037664 0.000000 0.000000
# 5 0.000000 0.000000 0.000000 0.000000 0.071249 0.000000
# 6 0.000000 0.000000 0.000000 0.000000 0.000000 0.105374
#
#
# Mechanical properties :
#
#
# Convention : Reuss Voigt Hill
#
# Bulk Modulus (GPa) = 42.31912 68.02924 55.17418
# Shear Modulus (GPa) = 17.03997 23.72834 20.38415
#
# Velocity S-wave (km/s) = 2.94180 3.47146 3.21754
# Velocity P-wave (km/s) = 5.74732 7.11466 6.46723
#
# Compressibility (1/GPa) = 0.02362998
#
# Stress axis : x y z
#
# Youngs Moduli (GPa) = 72.82001 127.36263 38.66549
#
# Poissons Ratio (x) = 0.61744 0.15569
# Poissons Ratio (y) = 0.35302 0.11731
# Poissons Ratio (z) = 0.29322 0.38641
#
# Static dielectric constant tensor:
#      x y z
#    x 3.785780 0.000000 0.000000 
#    y 0.000000 3.863370 0.000000 
#    z 0.000000 0.000000 3.130620 
# 
# 
# High freq. dielectric constant tensor:
#      x y z
#    x 1.761770 0.000000 0.000000 
#    y 0.000000 1.784280 0.000000 
#    z 0.000000 0.000000 1.726590 
# 
# From -- ./inp_files/6899.got.cif
#   From: 2010.03.12/outbox.cif.g09.slc.cpg/sg63_4_cif.got.tgz:6899.got - 2010.04.10 19:34:48.
