data_PCOD8261443
_publ_section_title
;
Structure prediction by ZEFSAII (Michael W. Deem and Ramdas Pophale) SiO2 
 PCOD8261443
Probable space group: C M C A
;
_chemical_formula_sum "Si O2"
_cell_formula_units_Z 104
_cell_length_a 8.939597
_cell_length_b 28.482410
_cell_length_c 20.746793
_cell_angle_alpha 90.000000
_cell_angle_beta 90.000000
_cell_angle_gamma 90.000000
_cell_volume 5282.574720
_symmetry_space_group_name_H-M "C M C A"
_symmetry_group_IT_number 64
_symmetry_cell_setting 'orthorhombic'
loop_
_space_group_symop_operation_xyz
x,y,z
-x,1/2-y,1/2+z
x,-y,-z
-x,1/2+y,1/2-z
-x,-y,-z
x,1/2+y,1/2-z
-x,y,z
x,1/2-y,1/2+z
1/2+x,1/2+y,z
1/2-x,-y,1/2+z
1/2+x,1/2-y,-z
1/2-x,y,1/2-z
1/2-x,1/2-y,-z
1/2+x,y,1/2-z
1/2-x,1/2+y,z
1/2+x,-y,1/2+z
loop_
_atom_site_type_symbol
_atom_site_label
_atom_site_fract_x
_atom_site_fract_y
_atom_site_fract_z
Si Si1 0.335711 0.695957 0.853315
Si Si2 0.250000 0.626508 0.750000
Si Si3 0.323760 0.122445 0.549899
Si Si4 0.179620 0.203158 0.317429
Si Si5 0.165430 0.057343 0.643116
Si Si6 0.178613 0.045325 0.317345
Si Si7 0.678228 0.623920 0.098817
O O1 0.500000 0.710937 0.876135
O O2 0.352949 0.660654 0.792790
O O3 0.255643 0.668383 0.912745
O O4 0.255746 0.744734 0.834216
O O5 0.154792 0.593536 0.797306
O O6 0.500000 0.122277 0.559764
O O7 0.264768 0.075267 0.583803
O O8 0.277417 0.123919 0.476083
O O9 0.250000 0.186841 0.250000
O O10 0.242169 0.169218 0.371990
O O11 0.000000 0.200461 0.312921
O O12 0.000000 0.049904 0.615456
O O13 0.229347 0.007794 0.667773
O O14 0.250000 0.061373 0.250000
O O15 0.250648 0.077142 0.372366
O O16 0.000000 0.051754 0.314592
O O17 0.500000 0.625354 0.109698
#
# Coordination Sequence:
#
# PCOD8261443 Si02
#       7
#    16   8  16  16  16  16  16
#     4   9  18  33  57  86 117 149 186 233 287 345
#     4  10  16  34  56  86 122 150 184 226 292 344
#     4   9  21  40  60  84 118 158 196 236 287 348
#     4  11  22  38  60  88 117 151 191 239 293 343
#     4  10  21  35  59  91 120 150 190 238 292 345
#     4  11  23  40  61  89 118 152 194 243 293 344
#     4  11  24  42  60  81 114 159 203 242 286 340
#
# _framework density 19.687369
#
# number of rings (size 3 to 8) (size 9 to 14) (size 15 to 20)
#    0.000    1.846    1.538    2.308    0.000    4.308 
#    0.000    3.846    0.000    0.000    0.000    0.000 
#    0.000    0.000    0.000    0.000    0.000    0.000 
#
# Total GULP energy -644617.971161 kJ/mol
# GULP energy per Si atom -12396.499445 kJ/mol
# Density = 1.964256 g / cm^3
# Si number density = 19.687369 Si / 1000 Ang^3
#
#
#
# Elastic Constant Matrix: (Units=GPa)
#
#
# Indices 1 2 3 4 5 6 
#
# 1 74.1892 32.6243 46.2954 0.0000 0.0000 0.0000
# 2 32.6243 135.2541 67.8825 0.0000 0.0000 0.0000
# 3 46.2954 67.8825 160.8723 0.0000 0.0000 0.0000
# 4 0.0000 0.0000 0.0000 20.3662 0.0000 0.0000
# 5 0.0000 0.0000 0.0000 0.0000 28.4704 0.0000
# 6 0.0000 0.0000 0.0000 0.0000 0.0000 25.8538
#
#
#
# Elastic Compliance Matrix: (Units=1/GPa)
#
#
# Indices 1 2 3 4 5 6 
#
# 1 0.016875 -0.002072 -0.003982 0.000000 0.000000 0.000000
# 2 -0.002072 0.009634 -0.003469 0.000000 0.000000 0.000000
# 3 -0.003982 -0.003469 0.008826 0.000000 0.000000 0.000000
# 4 0.000000 0.000000 0.000000 0.049101 0.000000 0.000000
# 5 0.000000 0.000000 0.000000 0.000000 0.035124 0.000000
# 6 0.000000 0.000000 0.000000 0.000000 0.000000 0.038679
#
#
# Mechanical properties :
#
#
# Convention : Reuss Voigt Hill
#
# Bulk Modulus (GPa) = 61.39011 73.76890 67.57951
# Shear Modulus (GPa) = 27.36501 29.83897 28.60199
#
# Velocity S-wave (km/s) = 3.73229 3.89735 3.81571
# Velocity P-wave (km/s) = 7.05857 7.60289 7.33578
#
# Compressibility (1/GPa) = 0.01628927
#
# Stress axis : x y z
#
# Youngs Moduli (GPa) = 59.25938 103.79522 113.30311
#
# Poissons Ratio (x) = 0.21505 0.45117
# Poissons Ratio (y) = 0.12278 0.39306
# Poissons Ratio (z) = 0.23597 0.36008
#
# Static dielectric constant tensor:
#      x y z
#    x 3.389490 0.000000 0.000000 
#    y 0.000000 3.769480 0.000000 
#    z 0.000000 0.000000 3.610350 
# 
# 
# High freq. dielectric constant tensor:
#      x y z
#    x 1.754810 0.000000 0.000000 
#    y 0.000000 1.779080 0.000000 
#    z 0.000000 0.000000 1.767500 
# 
# From -- ./inp_files/37221.got.cif
#   From: 2010.03.12/outbox.cif.g09.slc.cpg/sg64_19_cif.got.tgz:37221.got - 2010.04.10 20:19:32.
