data_PCOD8261048
_publ_section_title
;
Structure prediction by ZEFSAII (Michael W. Deem and Ramdas Pophale) SiO2 
 PCOD8261048
Probable space group: C M C M
;
_chemical_formula_sum "Si O2"
_cell_formula_units_Z 80
_cell_length_a 11.724597
_cell_length_b 23.556495
_cell_length_c 14.501631
_cell_angle_alpha 90.000000
_cell_angle_beta 90.000000
_cell_angle_gamma 90.000000
_cell_volume 4005.211420
_symmetry_space_group_name_H-M "C M C M"
_symmetry_group_IT_number 63
_symmetry_cell_setting 'orthorhombic'
loop_
_space_group_symop_operation_xyz
x,y,z
-x,-y,1/2+z
x,-y,-z
-x,y,1/2-z
-x,-y,-z
x,y,1/2-z
-x,y,z
x,-y,1/2+z
1/2+x,1/2+y,z
1/2-x,1/2-y,1/2+z
1/2+x,1/2-y,-z
1/2-x,1/2+y,1/2-z
1/2-x,1/2-y,-z
1/2+x,1/2+y,1/2-z
1/2-x,1/2+y,z
1/2+x,1/2-y,1/2+z
loop_
_atom_site_type_symbol
_atom_site_label
_atom_site_fract_x
_atom_site_fract_y
_atom_site_fract_z
Si Si1 0.743437 0.251501 0.892435
Si Si2 0.000000 0.591044 0.638751
Si Si3 0.869845 0.137668 0.647092
Si Si4 0.000000 0.283110 0.352765
Si Si5 0.868339 0.634443 0.352936
Si Si6 0.284986 0.936868 0.475548
O O1 0.796759 0.194990 0.850108
O O2 0.609436 0.255457 0.871212
O O3 0.806604 0.305082 0.850652
O O4 0.750000 0.250000 0.000000
O O5 0.000000 0.655509 0.596571
O O6 0.889487 0.560538 0.596439
O O7 0.000000 0.584610 0.750000
O O8 0.862836 0.111149 0.750000
O O9 0.821088 0.094037 0.572614
O O10 0.000000 0.151696 0.619789
O O11 0.000000 0.304954 0.250000
O O12 0.855437 0.607792 0.250000
O O13 0.813735 0.593679 0.428482
O O14 0.000000 0.644529 0.377722
O O15 0.245996 0.000000 0.500000
#
# Coordination Sequence:
#
# PCOD8261048 Si02
#       6
#    16   8  16   8  16  16
#     4  12  23  37  65  95 130 164 206 258 320 381
#     4  11  21  39  66  96 129 164 208 263 317 372
#     4  11  24  43  68  95 124 164 213 263 321 385
#     4  11  22  37  61  94 129 162 204 253 306 374
#     4  11  24  42  63  92 132 171 209 259 318 382
#     4  12  25  43  65  93 128 166 220 265 316 372
#
# _framework density 19.973977000000001
#
# number of rings (size 3 to 8) (size 9 to 14) (size 15 to 20)
#    0.000    0.600    5.000    3.300    2.800    3.600 
#    0.000    0.000    0.000    0.000    0.000    0.000 
#    0.000    0.000    0.000    0.000    0.000    0.000 
#
# Total GULP energy -496041.137785 kJ/mol
# GULP energy per Si atom -12401.028445 kJ/mol
# Density = 1.992851 g / cm^3
# Si number density = 19.973977 Si / 1000 Ang^3
#
#
#
# Elastic Constant Matrix: (Units=GPa)
#
#
# Indices 1 2 3 4 5 6 
#
# 1 143.3190 44.3460 48.0756 0.0000 0.0000 0.0000
# 2 44.3460 121.3610 41.5000 0.0000 0.0000 0.0000
# 3 48.0756 41.5000 136.6220 0.0000 0.0000 0.0000
# 4 0.0000 0.0000 0.0000 9.3547 0.0000 0.0000
# 5 0.0000 0.0000 0.0000 0.0000 30.8699 0.0000
# 6 0.0000 0.0000 0.0000 0.0000 0.0000 6.6989
#
#
#
# Elastic Compliance Matrix: (Units=1/GPa)
#
#
# Indices 1 2 3 4 5 6 
#
# 1 0.008455 -0.002312 -0.002273 0.000000 0.000000 0.000000
# 2 -0.002312 0.009827 -0.002171 0.000000 0.000000 0.000000
# 3 -0.002273 -0.002171 0.008779 0.000000 0.000000 0.000000
# 4 0.000000 0.000000 0.000000 0.106898 0.000000 0.000000
# 5 0.000000 0.000000 0.000000 0.000000 0.032394 0.000000
# 6 0.000000 0.000000 0.000000 0.000000 0.000000 0.149279
#
#
# Mechanical properties :
#
#
# Convention : Reuss Voigt Hill
#
# Bulk Modulus (GPa) = 73.81113 74.34945 74.08029
# Shear Modulus (GPa) = 14.98520 27.21005 21.09763
#
# Velocity S-wave (km/s) = 2.74202 3.69491 3.25353
# Velocity P-wave (km/s) = 6.85994 7.45031 7.16121
#
# Compressibility (1/GPa) = 0.01354809
#
# Stress axis : x y z
#
# Youngs Moduli (GPa) = 118.26766 101.75647 113.90984
#
# Poissons Ratio (x) = 0.23530 0.25891
# Poissons Ratio (y) = 0.27348 0.24735
# Poissons Ratio (z) = 0.26881 0.22096
#
# Static dielectric constant tensor:
#      x y z
#    x 3.638390 0.000000 0.000000 
#    y 0.000000 4.175850 0.000000 
#    z 0.000000 0.000000 3.901480 
# 
# 
# High freq. dielectric constant tensor:
#      x y z
#    x 1.783150 0.000000 0.000000 
#    y 0.000000 1.757530 0.000000 
#    z 0.000000 0.000000 1.804900 
# 
# From -- ./inp_files/29753.got.cif
#   From: 2010.03.12/outbox.cif.g09.slc.cpg/sg63_15_cif.got.tgz:29753.got - 2010.04.10 19:34:48.
