data_PCOD8261196
_publ_section_title
;
Structure prediction by ZEFSAII (Michael W. Deem and Ramdas Pophale) SiO2 
 PCOD8261196
Probable space group: C M C M
;
_chemical_formula_sum "Si O2"
_cell_formula_units_Z 80
_cell_length_a 8.751138
_cell_length_b 18.255550
_cell_length_c 25.156651
_cell_angle_alpha 90.000000
_cell_angle_beta 90.000000
_cell_angle_gamma 90.000000
_cell_volume 4018.947001
_symmetry_space_group_name_H-M "C M C M"
_symmetry_group_IT_number 63
_symmetry_cell_setting 'orthorhombic'
loop_
_space_group_symop_operation_xyz
x,y,z
-x,-y,1/2+z
x,-y,-z
-x,y,1/2-z
-x,-y,-z
x,y,1/2-z
-x,y,z
x,-y,1/2+z
1/2+x,1/2+y,z
1/2-x,1/2-y,1/2+z
1/2+x,1/2-y,-z
1/2-x,1/2+y,1/2-z
1/2-x,1/2-y,-z
1/2+x,1/2+y,1/2-z
1/2-x,1/2+y,z
1/2+x,1/2-y,1/2+z
loop_
_atom_site_type_symbol
_atom_site_label
_atom_site_fract_x
_atom_site_fract_y
_atom_site_fract_z
Si Si1 0.676302 0.666172 0.688802
Si Si2 0.824022 0.334737 0.811426
Si Si3 0.178020 0.582432 0.903506
Si Si4 0.820698 0.829509 0.001235
Si Si5 0.678576 0.574644 0.098879
O O1 0.712716 0.649379 0.750000
O O2 0.500000 0.648884 0.676030
O O3 0.713142 0.750457 0.675478
O O4 0.783942 0.613954 0.654526
O O5 0.790394 0.351623 0.750000
O O6 0.713792 0.385816 0.845630
O O7 0.000000 0.352024 0.825093
O O8 0.223958 0.498305 0.906448
O O9 0.000000 0.590525 0.915056
O O10 0.269913 0.627783 0.946773
O O11 0.768588 0.873125 0.948964
O O12 0.000000 0.820240 0.002833
O O13 0.750000 0.750000 0.000000
O O14 0.500000 0.555301 0.095918
#
# Coordination Sequence:
#
# PCOD8261196 Si02
#       5
#    16  16  16  16  16
#     4   9  19  38  63  88 117 155 196 240 291 345
#     4   9  19  37  61  88 117 151 192 237 286 342
#     4  12  25  39  59  87 119 156 195 239 292 345
#     4  11  24  42  64  89 117 150 192 240 290 348
#     4  11  24  40  59  85 117 154 194 238 289 343
#
# _framework density 19.905712999999999
#
# number of rings (size 3 to 8) (size 9 to 14) (size 15 to 20)
#    0.000    1.600    0.000    6.000    0.000   11.200 
#    0.000    2.000    0.000    0.000    0.000    0.000 
#    0.000    0.000    0.000    0.000    0.000    0.000 
#
# Total GULP energy -496239.960333 kJ/mol
# GULP energy per Si atom -12405.999008 kJ/mol
# Density = 1.986041 g / cm^3
# Si number density = 19.905713 Si / 1000 Ang^3
#
#
#
# Elastic Constant Matrix: (Units=GPa)
#
#
# Indices 1 2 3 4 5 6 
#
# 1 39.1667 32.9968 27.3167 0.0000 0.0000 0.0000
# 2 32.9968 128.9855 62.4681 0.0000 0.0000 0.0000
# 3 27.3167 62.4681 107.0257 0.0000 0.0000 0.0000
# 4 0.0000 0.0000 0.0000 14.4618 0.0000 0.0000
# 5 0.0000 0.0000 0.0000 0.0000 35.8221 0.0000
# 6 0.0000 0.0000 0.0000 0.0000 0.0000 30.1284
#
#
#
# Elastic Compliance Matrix: (Units=1/GPa)
#
#
# Indices 1 2 3 4 5 6 
#
# 1 0.034421 -0.006344 -0.005083 0.000000 0.000000 0.000000
# 2 -0.006344 0.011977 -0.005372 0.000000 0.000000 0.000000
# 3 -0.005083 -0.005372 0.013776 0.000000 0.000000 0.000000
# 4 0.000000 0.000000 0.000000 0.069148 0.000000 0.000000
# 5 0.000000 0.000000 0.000000 0.000000 0.027916 0.000000
# 6 0.000000 0.000000 0.000000 0.000000 0.000000 0.033191
#
#
# Mechanical properties :
#
#
# Convention : Reuss Voigt Hill
#
# Bulk Modulus (GPa) = 37.62494 57.86012 47.74253
# Shear Modulus (GPa) = 21.46980 26.24223 23.85602
#
# Velocity S-wave (km/s) = 3.28773 3.63482 3.46562
# Velocity P-wave (km/s) = 5.77536 6.83711 6.32854
#
# Compressibility (1/GPa) = 0.02657811
#
# Stress axis : x y z
#
# Youngs Moduli (GPa) = 29.05165 83.49196 72.58968
#
# Poissons Ratio (x) = 0.52968 0.36895
# Poissons Ratio (y) = 0.18431 0.38992
# Poissons Ratio (z) = 0.14766 0.44848
#
# Static dielectric constant tensor:
#      x y z
#    x 3.559290 0.000000 0.000000 
#    y 0.000000 3.566340 0.000000 
#    z 0.000000 0.000000 3.681090 
# 
# 
# High freq. dielectric constant tensor:
#      x y z
#    x 1.776780 0.000000 0.000000 
#    y 0.000000 1.784360 0.000000 
#    z 0.000000 0.000000 1.790640 
# 
# From -- ./inp_files/66629.got.cif
#   From: 2010.03.12/outbox.cif.g09.slc.cpg/sg63_34_cif.got.tgz:66629.got - 2010.04.10 19:34:48.
