data_PCOD8261486
_publ_section_title
;
Structure prediction by ZEFSAII (Michael W. Deem and Ramdas Pophale) SiO2 
 PCOD8261486
Probable space group: C M C A
;
_chemical_formula_sum "Si O2"
_cell_formula_units_Z 112
_cell_length_a 17.211722
_cell_length_b 20.213235
_cell_length_c 16.800059
_cell_angle_alpha 90.000000
_cell_angle_beta 90.000000
_cell_angle_gamma 90.000000
_cell_volume 5844.817496
_symmetry_space_group_name_H-M "C M C A"
_symmetry_group_IT_number 64
_symmetry_cell_setting 'orthorhombic'
loop_
_space_group_symop_operation_xyz
x,y,z
-x,1/2-y,1/2+z
x,-y,-z
-x,1/2+y,1/2-z
-x,-y,-z
x,1/2+y,1/2-z
-x,y,z
x,1/2-y,1/2+z
1/2+x,1/2+y,z
1/2-x,-y,1/2+z
1/2+x,1/2-y,-z
1/2-x,y,1/2-z
1/2-x,1/2-y,-z
1/2+x,y,1/2-z
1/2-x,1/2+y,z
1/2+x,-y,1/2+z
loop_
_atom_site_type_symbol
_atom_site_label
_atom_site_fract_x
_atom_site_fract_y
_atom_site_fract_z
Si Si1 0.840736 0.658720 0.746410
Si Si2 0.411219 0.637820 0.581685
Si Si3 0.162535 0.484497 0.277188
Si Si4 0.806138 0.380530 0.674596
Si Si5 0.835149 0.863257 0.576142
Si Si6 0.409956 0.205720 0.222530
Si Si7 0.413661 0.488796 0.614645
O O1 0.750000 0.673732 0.750000
O O2 0.872603 0.657521 0.836014
O O3 0.861958 0.590792 0.697171
O O4 0.881425 0.720137 0.703515
O O5 0.500000 0.664596 0.577431
O O6 0.358639 0.667930 0.509335
O O7 0.410449 0.558999 0.571244
O O8 0.250000 0.472630 0.250000
O O9 0.158131 0.545016 0.341832
O O10 0.105135 0.505837 0.207552
O O11 0.750000 0.391306 0.750000
O O12 0.756223 0.353805 0.598980
O O13 0.869692 0.325801 0.698421
O O14 0.891625 0.835250 0.643863
O O15 0.851078 0.941689 0.572982
O O16 0.500000 0.205263 0.241462
O O17 0.500000 0.458545 0.606407
#
# Coordination Sequence:
#
# PCOD8261486 Si02
#       7
#    16  16  16  16  16  16  16
#     4  10  21  36  55  75 107 150 187 222 271 336
#     4  10  21  34  52  85 121 146 176 231 294 346
#     4   9  15  30  50  72 103 144 179 219 263 325
#     4   9  17  31  52  77 108 143 184 227 267 334
#     4  11  19  32  54  81 114 143 179 226 287 341
#     4  11  21  35  54  78 108 147 193 240 280 325
#     4  10  17  27  47  79 113 141 170 216 282 340
#
# _framework density 19.162275000000001
#
# number of rings (size 3 to 8) (size 9 to 14) (size 15 to 20)
#    0.000    2.000    4.286    3.429    0.000    1.714 
#    0.000    2.857    0.000    0.000    0.000    1.000 
#    0.000    3.429    0.000    0.286    0.000    0.000 
#
# Total GULP energy -693800.993205 kJ/mol
# GULP energy per Si atom -12389.303450 kJ/mol
# Density = 1.911866 g / cm^3
# Si number density = 19.162275 Si / 1000 Ang^3
#
#
#
# Elastic Constant Matrix: (Units=GPa)
#
#
# Indices 1 2 3 4 5 6 
#
# 1 84.4712 29.4316 24.6134 0.0000 0.0000 0.0000
# 2 29.4316 81.8252 5.8896 0.0000 0.0000 0.0000
# 3 24.6134 5.8896 47.9325 0.0000 0.0000 0.0000
# 4 0.0000 0.0000 0.0000 -1.2983 0.0000 0.0000
# 5 0.0000 0.0000 0.0000 0.0000 25.3236 0.0000
# 6 0.0000 0.0000 0.0000 0.0000 0.0000 145.9761
#
#
#
# Elastic Compliance Matrix: (Units=1/GPa)
#
#
# Indices 1 2 3 4 5 6 
#
# 1 0.015814 -0.005149 -0.007488 0.000000 0.000000 0.000000
# 2 -0.005149 0.014007 0.000923 0.000000 0.000000 0.000000
# 3 -0.007488 0.000923 0.024594 0.000000 0.000000 0.000000
# 4 0.000000 0.000000 0.000000 -0.770257 0.000000 0.000000
# 5 0.000000 0.000000 0.000000 0.000000 0.039489 0.000000
# 6 0.000000 0.000000 0.000000 0.000000 0.000000 0.006850
#
#
# Mechanical properties :
#
#
# Convention : Reuss Voigt Hill
#
# Bulk Modulus (GPa) = 32.27136 37.12200 34.69668
# Shear Modulus (GPa) = -7.86479 44.28658 18.21090
#
# Velocity S-wave (km/s) = -2.02811 4.81264 3.08612
# Velocity P-wave (km/s) = 3.37540 7.09200 5.55382
#
# Compressibility (1/GPa) = 0.03098723
#
# Stress axis : x y z
#
# Youngs Moduli (GPa) = 63.23381 71.39357 40.65979
#
# Poissons Ratio (x) = 0.36762 0.30446
# Poissons Ratio (y) = 0.32561 -0.03753
# Poissons Ratio (z) = 0.47349 -0.06590
#
# Static dielectric constant tensor:
#      x y z
#    x 3.662210 0.000000 0.000000 
#    y 0.000000 3.802760 0.000000 
#    z 0.000000 0.000000 3.177260 
# 
# 
# High freq. dielectric constant tensor:
#      x y z
#    x 1.739600 0.000000 0.000000 
#    y 0.000000 1.751620 0.000000 
#    z 0.000000 0.000000 1.694850 
# 
# From -- ./inp_files/33585.got.cif
#   From: 2010.03.12/outbox.cif.g09.slc.cpg/sg64_17_cif.got.tgz:33585.got - 2010.04.10 20:19:32.
