data_PCOD8261422
_publ_section_title
;
Structure prediction by ZEFSAII (Michael W. Deem and Ramdas Pophale) SiO2 
 PCOD8261422
Probable space group: C M C A
;
_chemical_formula_sum "Si O2"
_cell_formula_units_Z 56
_cell_length_a 33.920854
_cell_length_b 5.176283
_cell_length_c 14.632771
_cell_angle_alpha 90.000000
_cell_angle_beta 90.000000
_cell_angle_gamma 90.000000
_cell_volume 2569.279584
_symmetry_space_group_name_H-M "C M C A"
_symmetry_group_IT_number 64
_symmetry_cell_setting 'orthorhombic'
loop_
_space_group_symop_operation_xyz
x,y,z
-x,1/2-y,1/2+z
x,-y,-z
-x,1/2+y,1/2-z
-x,-y,-z
x,1/2+y,1/2-z
-x,y,z
x,1/2-y,1/2+z
1/2+x,1/2+y,z
1/2-x,-y,1/2+z
1/2+x,1/2-y,-z
1/2-x,y,1/2-z
1/2-x,1/2-y,-z
1/2+x,y,1/2-z
1/2-x,1/2+y,z
1/2+x,-y,1/2+z
loop_
_atom_site_type_symbol
_atom_site_label
_atom_site_fract_x
_atom_site_fract_y
_atom_site_fract_z
Si Si1 0.143299 0.779817 0.190767
Si Si2 0.000000 0.258331 0.809079
Si Si3 0.232859 0.759411 0.148705
Si Si4 0.072417 0.746246 0.559507
O O1 0.136700 0.496703 0.232477
O O2 0.186477 0.808808 0.148150
O O3 0.112831 0.825893 0.109631
O O4 0.038635 0.308955 0.868223
O O5 0.000000 0.466245 0.727701
O O6 0.250000 0.707202 0.250000
O O7 0.244582 0.493454 0.097367
O O8 0.059287 0.500000 0.500000
O O9 0.079361 0.000000 0.500000
#
# Coordination Sequence:
#
# PCOD8261422 Si02
#       4
#    16   8  16  16
#     4  12  21  36  63  93 120 158 221 268 296 360
#     4  12  24  46  74 100 122 156 220 264 290 362
#     4  10  16  30  52  89 112 149 204 272 311 339
#     4  12  26  44  63  93 136 173 195 244 329 386
#
# _framework density 21.795992999999999
#
# number of rings (size 3 to 8) (size 9 to 14) (size 15 to 20)
#    0.000    0.571    5.714    6.000    0.000    0.000 
#    0.000    0.000    0.000    5.143    0.000    0.000 
#    0.000    0.000    0.000    0.000    0.000    0.000 
#
# Total GULP energy -347295.458678 kJ/mol
# GULP energy per Si atom -12403.409239 kJ/mol
# Density = 2.174638 g / cm^3
# Si number density = 21.795993 Si / 1000 Ang^3
#
#
#
# Elastic Constant Matrix: (Units=GPa)
#
#
# Indices 1 2 3 4 5 6 
#
# 1 131.6594 -2.4430 37.4484 0.0000 0.0000 0.0000
# 2 -2.4430 133.6661 10.5772 0.0000 0.0000 0.0000
# 3 37.4484 10.5772 50.2936 0.0000 0.0000 0.0000
# 4 0.0000 0.0000 0.0000 13.4984 0.0000 0.0000
# 5 0.0000 0.0000 0.0000 0.0000 -14.2709 0.0000
# 6 0.0000 0.0000 0.0000 0.0000 0.0000 34.0674
#
#
#
# Elastic Compliance Matrix: (Units=1/GPa)
#
#
# Indices 1 2 3 4 5 6 
#
# 1 0.009712 0.000762 -0.007392 0.000000 0.000000 0.000000
# 2 0.000762 0.007668 -0.002180 0.000000 0.000000 0.000000
# 3 -0.007392 -0.002180 0.025846 0.000000 0.000000 0.000000
# 4 0.000000 0.000000 0.000000 0.074083 0.000000 0.000000
# 5 0.000000 0.000000 0.000000 0.000000 -0.070072 0.000000
# 6 0.000000 0.000000 0.000000 0.000000 0.000000 0.029354
#
#
# Mechanical properties :
#
#
# Convention : Reuss Voigt Hill
#
# Bulk Modulus (GPa) = 39.05326 45.19825 42.12576
# Shear Modulus (GPa) = 48.66436 24.66139 36.66287
#
# Velocity S-wave (km/s) = 4.73029 3.36737 4.10578
# Velocity P-wave (km/s) = 6.91309 5.99174 6.46884
#
# Compressibility (1/GPa) = 0.02560605
#
# Stress axis : x y z
#
# Youngs Moduli (GPa) = 102.96542 130.41559 38.69108
#
# Poissons Ratio (x) = -0.09943 0.28600
# Poissons Ratio (y) = -0.07850 0.08436
# Poissons Ratio (z) = 0.76111 0.28435
#
# Static dielectric constant tensor:
#      x y z
#    x 3.999170 0.000000 0.000000 
#    y 0.000000 4.685310 0.000000 
#    z 0.000000 0.000000 3.634400 
# 
# 
# High freq. dielectric constant tensor:
#      x y z
#    x 1.869860 0.000000 0.000000 
#    y 0.000000 1.889700 0.000000 
#    z 0.000000 0.000000 1.827580 
# 
# From -- ./inp_files/28217.got.cif
#   From: 2010.03.12/outbox.cif.g09.slc.cpg/sg64_15_cif.got.tgz:28217.got - 2010.04.10 20:19:32.
