data_PCOD8261414
_publ_section_title
;
Structure prediction by ZEFSAII (Michael W. Deem and Ramdas Pophale) SiO2 
 PCOD8261414
Probable space group: C M C A
;
_chemical_formula_sum "Si O2"
_cell_formula_units_Z 104
_cell_length_a 9.471513
_cell_length_b 28.768389
_cell_length_c 20.801118
_cell_angle_alpha 90.000000
_cell_angle_beta 90.000000
_cell_angle_gamma 90.000000
_cell_volume 5667.892177
_symmetry_space_group_name_H-M "C M C A"
_symmetry_group_IT_number 64
_symmetry_cell_setting 'orthorhombic'
loop_
_space_group_symop_operation_xyz
x,y,z
-x,1/2-y,1/2+z
x,-y,-z
-x,1/2+y,1/2-z
-x,-y,-z
x,1/2+y,1/2-z
-x,y,z
x,1/2-y,1/2+z
1/2+x,1/2+y,z
1/2-x,-y,1/2+z
1/2+x,1/2-y,-z
1/2-x,y,1/2-z
1/2-x,1/2-y,-z
1/2+x,y,1/2-z
1/2-x,1/2+y,z
1/2+x,-y,1/2+z
loop_
_atom_site_type_symbol
_atom_site_label
_atom_site_fract_x
_atom_site_fract_y
_atom_site_fract_z
Si Si1 0.341211 0.189510 0.858994
Si Si2 0.666155 0.373440 0.905209
Si Si3 0.656726 0.944543 0.352351
Si Si4 0.668643 0.956255 0.686207
Si Si5 0.830762 0.871258 0.049638
Si Si6 0.666748 0.291145 0.814156
Si Si7 0.750000 0.876104 0.250000
O O1 0.500000 0.191339 0.886414
O O2 0.236399 0.173212 0.915128
O O3 0.289304 0.240346 0.838333
O O4 0.342095 0.156014 0.796912
O O5 0.500000 0.372079 0.911556
O O6 0.712963 0.420128 0.868945
O O7 0.718217 0.327896 0.867587
O O8 0.728503 0.373444 0.977299
O O9 0.500000 0.958736 0.372257
O O10 0.724658 0.917893 0.413572
O O11 0.650070 0.909568 0.291866
O O12 0.731491 0.993337 0.335197
O O13 0.500000 0.956564 0.699162
O O14 0.750000 0.940497 0.750000
O O15 0.000000 0.866812 0.054483
O O16 0.500000 0.294905 0.800405
O O17 0.750000 0.303695 0.750000
#
# Coordination Sequence:
#
# PCOD8261414 Si02
#       7
#    16  16  16  16  16  16   8
#     4  10  20  32  51  77 105 132 165 210 254 298
#     4   9  19  35  54  72 101 136 172 211 246 295
#     4   9  17  28  48  75 100 126 165 205 248 301
#     4  10  19  33  52  77 101 130 167 210 256 298
#     4   9  19  35  52  74 102 138 171 203 250 302
#     4  10  20  35  53  77 102 132 170 210 255 298
#     4  10  16  30  48  72 104 134 160 198 256 302
#
# _framework density 18.348972
#
# number of rings (size 3 to 8) (size 9 to 14) (size 15 to 20)
#    0.000    2.462    1.538    0.923    0.000    2.462 
#    0.000    4.615    0.000    0.000    0.000    3.231 
#    0.000    0.000    0.000    0.000    0.000    0.000 
#
# Total GULP energy -644594.773361 kJ/mol
# GULP energy per Si atom -12396.053334 kJ/mol
# Density = 1.830721 g / cm^3
# Si number density = 18.348972 Si / 1000 Ang^3
#
#
#
# Elastic Constant Matrix: (Units=GPa)
#
#
# Indices 1 2 3 4 5 6 
#
# 1 34.6691 15.2226 29.9454 0.0000 0.0000 0.0000
# 2 15.2226 137.3079 78.0187 0.0000 0.0000 0.0000
# 3 29.9454 78.0187 169.2978 0.0000 0.0000 0.0000
# 4 0.0000 0.0000 0.0000 24.2031 0.0000 0.0000
# 5 0.0000 0.0000 0.0000 0.0000 25.2492 0.0000
# 6 0.0000 0.0000 0.0000 0.0000 0.0000 17.7339
#
#
#
# Elastic Compliance Matrix: (Units=1/GPa)
#
#
# Indices 1 2 3 4 5 6 
#
# 1 0.034069 -0.000478 -0.005806 0.000000 0.000000 0.000000
# 2 -0.000478 0.009873 -0.004465 0.000000 0.000000 0.000000
# 3 -0.005806 -0.004465 0.008991 0.000000 0.000000 0.000000
# 4 0.000000 0.000000 0.000000 0.041317 0.000000 0.000000
# 5 0.000000 0.000000 0.000000 0.000000 0.039605 0.000000
# 6 0.000000 0.000000 0.000000 0.000000 0.000000 0.056389
#
#
# Mechanical properties :
#
#
# Convention : Reuss Voigt Hill
#
# Bulk Modulus (GPa) = 31.81176 65.29424 48.55300
# Shear Modulus (GPa) = 22.50008 27.97646 25.23827
#
# Velocity S-wave (km/s) = 3.50556 3.90896 3.71274
# Velocity P-wave (km/s) = 5.81033 7.48567 6.70057
#
# Compressibility (1/GPa) = 0.03143492
#
# Stress axis : x y z
#
# Youngs Moduli (GPa) = 29.35235 101.28515 111.21677
#
# Poissons Ratio (x) = 0.04843 0.64569
# Poissons Ratio (y) = 0.01404 0.49662
# Poissons Ratio (z) = 0.17041 0.45227
#
# Static dielectric constant tensor:
#      x y z
#    x 2.994810 0.000000 0.000000 
#    y 0.000000 3.585210 0.000000 
#    z 0.000000 0.000000 3.520770 
# 
# 
# High freq. dielectric constant tensor:
#      x y z
#    x 1.673780 0.000000 0.000000 
#    y 0.000000 1.724390 0.000000 
#    z 0.000000 0.000000 1.711650 
# 
# From -- ./inp_files/37222.got.cif
#   From: 2010.03.12/outbox.cif.g09.slc.cpg/sg64_19_cif.got.tgz:37222.got - 2010.04.10 20:19:32.
