data_PCOD8261984
_publ_section_title
;
Structure prediction by ZEFSAII (Michael W. Deem and Ramdas Pophale) SiO2 
 PCOD8261984
Probable space group: C M C A
;
_chemical_formula_sum "Si O2"
_cell_formula_units_Z 112
_cell_length_a 9.468322
_cell_length_b 25.163862
_cell_length_c 28.943590
_cell_angle_alpha 90.000000
_cell_angle_beta 90.000000
_cell_angle_gamma 90.000000
_cell_volume 6896.086676
_symmetry_space_group_name_H-M "C M C A"
_symmetry_group_IT_number 64
_symmetry_cell_setting 'orthorhombic'
loop_
_space_group_symop_operation_xyz
x,y,z
-x,1/2-y,1/2+z
x,-y,-z
-x,1/2+y,1/2-z
-x,-y,-z
x,1/2+y,1/2-z
-x,y,z
x,1/2-y,1/2+z
1/2+x,1/2+y,z
1/2-x,-y,1/2+z
1/2+x,1/2-y,-z
1/2-x,y,1/2-z
1/2-x,1/2-y,-z
1/2+x,y,1/2-z
1/2-x,1/2+y,z
1/2+x,-y,1/2+z
loop_
_atom_site_type_symbol
_atom_site_label
_atom_site_fract_x
_atom_site_fract_y
_atom_site_fract_z
Si Si1 0.166792 0.771786 0.393365
Si Si2 0.337635 0.231045 0.293567
Si Si3 0.336099 0.892477 0.706374
Si Si4 0.667456 0.355240 0.051393
Si Si5 0.832108 0.069905 0.108898
Si Si6 0.667130 0.169026 0.448277
Si Si7 0.667665 0.475645 0.047306
O O1 0.204145 0.762612 0.339728
O O2 0.250981 0.823761 0.408863
O O3 0.223330 0.722293 0.423805
O O4 0.000000 0.780022 0.400451
O O5 0.500000 0.239775 0.281118
O O6 0.250000 0.253108 0.250000
O O7 0.304944 0.169344 0.302710
O O8 0.500000 0.902800 0.716014
O O9 0.250000 0.914278 0.750000
O O10 0.280890 0.924401 0.661624
O O11 0.500000 0.350519 0.059192
O O12 0.721324 0.415916 0.055025
O O13 0.713104 0.331723 0.001704
O O14 0.768562 0.117481 0.077573
O O15 0.000000 0.074254 0.107117
O O16 0.780653 0.013075 0.089412
O O17 0.500000 0.166647 0.443822
O O18 0.500000 0.474904 0.043624
O O19 0.730167 0.500000 0.000000
#
# Coordination Sequence:
#
# PCOD8261984 Si02
#       7
#    16  16  16  16  16  16  16
#     4  10  19  31  46  65  94 128 153 177 225 288
#     4   9  17  29  46  67  89 116 149 185 227 274
#     4   9  16  27  45  68  92 116 145 183 229 277
#     4  10  19  29  45  70  95 121 157 196 223 253
#     4   9  14  24  45  69  92 118 148 186 229 269
#     4   9  15  26  44  67  94 122 151 183 223 270
#     4   9  15  25  44  70  93 115 151 196 230 256
#
# _framework density 16.241095000000001
#
# number of rings (size 3 to 8) (size 9 to 14) (size 15 to 20)
#    0.000    2.714    2.857    0.429    0.000    0.571 
#    0.000    0.000    0.000    3.000    0.000    4.000 
#    0.000    0.000    0.000    0.000    0.000    0.000 
#
# Total GULP energy -694255.072892 kJ/mol
# GULP energy per Si atom -12397.412016 kJ/mol
# Density = 1.620413 g / cm^3
# Si number density = 16.241095 Si / 1000 Ang^3
#
#
#
# Elastic Constant Matrix: (Units=GPa)
#
#
# Indices 1 2 3 4 5 6 
#
# 1 28.9284 29.7797 42.9162 0.0000 0.0000 0.0000
# 2 29.7797 113.6709 73.2280 0.0000 0.0000 0.0000
# 3 42.9162 73.2280 148.1730 0.0000 0.0000 0.0000
# 4 0.0000 0.0000 0.0000 26.3161 0.0000 0.0000
# 5 0.0000 0.0000 0.0000 0.0000 23.4108 0.0000
# 6 0.0000 0.0000 0.0000 0.0000 0.0000 14.2352
#
#
#
# Elastic Compliance Matrix: (Units=1/GPa)
#
#
# Indices 1 2 3 4 5 6 
#
# 1 0.064307 -0.007113 -0.015110 0.000000 0.000000 0.000000
# 2 -0.007113 0.013693 -0.004707 0.000000 0.000000 0.000000
# 3 -0.015110 -0.004707 0.013452 0.000000 0.000000 0.000000
# 4 0.000000 0.000000 0.000000 0.038000 0.000000 0.000000
# 5 0.000000 0.000000 0.000000 0.000000 0.042715 0.000000
# 6 0.000000 0.000000 0.000000 0.000000 0.000000 0.070248
#
#
# Mechanical properties :
#
#
# Convention : Reuss Voigt Hill
#
# Bulk Modulus (GPa) = 26.60207 64.73556 45.66881
# Shear Modulus (GPa) = 16.19138 22.44900 19.32019
#
# Velocity S-wave (km/s) = 3.16086 3.72187 3.45278
# Velocity P-wave (km/s) = 5.45311 7.64300 6.63897
#
# Compressibility (1/GPa) = 0.03759106
#
# Stress axis : x y z
#
# Youngs Moduli (GPa) = 15.55037 73.02927 74.34055
#
# Poissons Ratio (x) = 0.51946 1.12331
# Poissons Ratio (y) = 0.11061 0.34992
# Poissons Ratio (z) = 0.23497 0.34375
#
# Static dielectric constant tensor:
#      x y z
#    x 2.635080 0.000000 0.000000 
#    y 0.000000 3.066050 0.000000 
#    z 0.000000 0.000000 3.215580 
# 
# 
# High freq. dielectric constant tensor:
#      x y z
#    x 1.577220 0.000000 0.000000 
#    y 0.000000 1.611270 0.000000 
#    z 0.000000 0.000000 1.631450 
# 
# From -- ./inp_files/49586.got.cif
#   From: 2010.03.12/outbox.cif.g09.slc.cpg/sg64_25_cif.got.tgz:49586.got - 2010.04.10 20:19:32.
