data_PCOD8261911
_publ_section_title
;
Structure prediction by ZEFSAII (Michael W. Deem and Ramdas Pophale) SiO2 
 PCOD8261911
Probable space group: C M C A
;
_chemical_formula_sum "Si O2"
_cell_formula_units_Z 112
_cell_length_a 18.520406
_cell_length_b 17.782953
_cell_length_c 18.233291
_cell_angle_alpha 90.000000
_cell_angle_beta 90.000000
_cell_angle_gamma 90.000000
_cell_volume 6005.088980
_symmetry_space_group_name_H-M "C M C A"
_symmetry_group_IT_number 64
_symmetry_cell_setting 'orthorhombic'
loop_
_space_group_symop_operation_xyz
x,y,z
-x,1/2-y,1/2+z
x,-y,-z
-x,1/2+y,1/2-z
-x,-y,-z
x,1/2+y,1/2-z
-x,y,z
x,1/2-y,1/2+z
1/2+x,1/2+y,z
1/2-x,-y,1/2+z
1/2+x,1/2-y,-z
1/2-x,y,1/2-z
1/2-x,1/2-y,-z
1/2+x,y,1/2-z
1/2-x,1/2+y,z
1/2+x,-y,1/2+z
loop_
_atom_site_type_symbol
_atom_site_label
_atom_site_fract_x
_atom_site_fract_y
_atom_site_fract_z
Si Si1 0.212745 0.212664 0.677848
Si Si2 0.813349 0.285213 0.454789
Si Si3 0.584195 0.389358 0.374948
Si Si4 0.628490 0.131001 0.038041
Si Si5 0.706827 0.577244 0.040870
Si Si6 0.316060 0.387958 0.797996
Si Si7 0.918696 0.549908 0.179671
O O1 0.250000 0.179398 0.750000
O O2 0.278110 0.195664 0.622764
O O3 0.137254 0.174085 0.656625
O O4 0.193369 0.300033 0.685613
O O5 0.750000 0.250000 0.500000
O O6 0.875775 0.221974 0.452034
O O7 0.840281 0.360400 0.496438
O O8 0.500000 0.371857 0.355947
O O9 0.591214 0.394722 0.462861
O O10 0.612120 0.466952 0.338537
O O11 0.709701 0.100281 0.040555
O O12 0.585071 0.099137 0.106405
O O13 0.679522 0.569236 0.124366
O O14 0.693700 0.500000 0.000000
O O15 0.250000 0.419046 0.750000
O O16 0.384796 0.407669 0.749086
O O17 0.000000 0.539710 0.203767
#
# Coordination Sequence:
#
# PCOD8261911 Si02
#       7
#    16  16  16  16  16  16  16
#     4  11  21  37  58  84 115 153 194 241 291 334
#     4  10  18  35  55  82 115 146 184 241 279 333
#     4  11  23  37  56  84 120 155 190 235 290 348
#     4  11  18  36  59  84 115 151 186 233 289 346
#     4  11  20  32  58  88 113 144 189 234 286 338
#     4  11  21  37  57  82 113 149 188 240 282 338
#     4  11  24  38  55  84 121 154 186 234 294 346
#
# _framework density 18.650848
#
# number of rings (size 3 to 8) (size 9 to 14) (size 15 to 20)
#    0.000    1.143    7.143    2.571    0.000    3.429 
#    0.000    0.000    0.000    0.429    0.000    0.000 
#    0.000    0.000    0.000    0.000    0.000    0.000 
#
# Total GULP energy -694083.421626 kJ/mol
# GULP energy per Si atom -12394.346815 kJ/mol
# Density = 1.860840 g / cm^3
# Si number density = 18.650848 Si / 1000 Ang^3
#
#
#
# Elastic Constant Matrix: (Units=GPa)
#
#
# Indices 1 2 3 4 5 6 
#
# 1 46.9606 17.9191 29.2905 0.0000 0.0000 0.0000
# 2 17.9191 92.2993 48.0826 0.0000 0.0000 0.0000
# 3 29.2905 48.0826 156.8244 0.0000 0.0000 0.0000
# 4 0.0000 0.0000 0.0000 23.9700 0.0000 0.0000
# 5 0.0000 0.0000 0.0000 0.0000 20.1748 0.0000
# 6 0.0000 0.0000 0.0000 0.0000 0.0000 24.1487
#
#
#
# Elastic Compliance Matrix: (Units=1/GPa)
#
#
# Indices 1 2 3 4 5 6 
#
# 1 0.024716 -0.002849 -0.003743 0.000000 0.000000 0.000000
# 2 -0.002849 0.013222 -0.003522 0.000000 0.000000 0.000000
# 3 -0.003743 -0.003522 0.008155 0.000000 0.000000 0.000000
# 4 0.000000 0.000000 0.000000 0.041719 0.000000 0.000000
# 5 0.000000 0.000000 0.000000 0.000000 0.049567 0.000000
# 6 0.000000 0.000000 0.000000 0.000000 0.000000 0.041410
#
#
# Mechanical properties :
#
#
# Convention : Reuss Voigt Hill
#
# Bulk Modulus (GPa) = 38.65960 54.07430 46.36695
# Shear Modulus (GPa) = 24.08038 27.04484 25.56261
#
# Velocity S-wave (km/s) = 3.59711 3.81210 3.70616
# Velocity P-wave (km/s) = 6.16647 6.95931 6.57485
#
# Compressibility (1/GPa) = 0.02586680
#
# Stress axis : x y z
#
# Youngs Moduli (GPa) = 40.45970 75.63138 122.61762
#
# Poissons Ratio (x) = 0.21544 0.45895
# Poissons Ratio (y) = 0.11525 0.43184
# Poissons Ratio (z) = 0.15144 0.26636
#
# Static dielectric constant tensor:
#      x y z
#    x 0.000000 0.000000 0.000000 
#    y 0.000000 0.000000 0.000000 
#    z 0.000000 0.000000 0.000000 
# 
# 
# High freq. dielectric constant tensor:
#      x y z
#    x 1.687410 0.000000 0.000000 
#    y 0.000000 1.728610 0.000000 
#    z 0.000000 0.000000 1.739530 
# 
# From -- ./inp_files/34494.got.cif
#   From: 2010.03.12/outbox.cif.g09.slc.cpg/sg64_18_cif.got.tgz:34494.got - 2010.04.10 20:19:32.
