data_PCOD8261678
_publ_section_title
;
Structure prediction by ZEFSAII (Michael W. Deem and Ramdas Pophale) SiO2 
 PCOD8261678
Probable space group: C M C A
;
_chemical_formula_sum "Si O2"
_cell_formula_units_Z 96
_cell_length_a 8.678010
_cell_length_b 23.736954
_cell_length_c 25.769020
_cell_angle_alpha 90.000000
_cell_angle_beta 90.000000
_cell_angle_gamma 90.000000
_cell_volume 5308.148168
_symmetry_space_group_name_H-M "C M C A"
_symmetry_group_IT_number 64
_symmetry_cell_setting 'orthorhombic'
loop_
_space_group_symop_operation_xyz
x,y,z
-x,1/2-y,1/2+z
x,-y,-z
-x,1/2+y,1/2-z
-x,-y,-z
x,1/2+y,1/2-z
-x,y,z
x,1/2-y,1/2+z
1/2+x,1/2+y,z
1/2-x,-y,1/2+z
1/2+x,1/2-y,-z
1/2-x,y,1/2-z
1/2-x,1/2-y,-z
1/2+x,y,1/2-z
1/2-x,1/2+y,z
1/2+x,-y,1/2+z
loop_
_atom_site_type_symbol
_atom_site_label
_atom_site_fract_x
_atom_site_fract_y
_atom_site_fract_z
Si Si1 0.176144 0.073947 0.040616
Si Si2 0.682092 0.410227 0.806749
Si Si3 0.822265 0.774298 0.051907
Si Si4 0.679109 0.498056 0.377904
Si Si5 0.678865 0.663671 0.392833
Si Si6 0.823783 0.603183 0.575342
O O1 0.233504 0.135260 0.058739
O O2 0.000000 0.064548 0.059063
O O3 0.283642 0.027300 0.067136
O O4 0.188644 0.069846 0.978976
O O5 0.500000 0.406104 0.804392
O O6 0.750000 0.406189 0.750000
O O7 0.730529 0.469493 0.832479
O O8 0.747144 0.357132 0.839135
O O9 0.800857 0.730729 0.099683
O O10 0.750078 0.834264 0.069639
O O11 0.000000 0.785019 0.038725
O O12 0.750000 0.750000 0.000000
O O13 0.500000 0.501096 0.365168
O O14 0.731142 0.432711 0.381610
O O15 0.500000 0.645929 0.393736
O O16 0.000000 0.607231 0.593860
#
# Coordination Sequence:
#
# PCOD8261678 Si02
#       6
#    16  16  16  16  16  16
#     4  10  18  30  49  71 103 144 181 217 261 312
#     4  11  22  39  62  83 105 133 169 219 275 326
#     4  10  20  33  51  75 109 149 187 223 260 310
#     4  11  22  34  50  76 106 136 176 221 267 317
#     4  10  19  32  52  80 110 140 179 223 265 310
#     4  10  20  33  48  71 106 148 185 216 260 312
#
# _framework density 18.085404
#
# number of rings (size 3 to 8) (size 9 to 14) (size 15 to 20)
#    0.000    1.667    1.667    6.500    0.000    4.667 
#    0.000    0.000    0.000    1.000    0.000    4.667 
#    0.000    0.000    0.000    0.000    0.000    0.000 
#
# Total GULP energy -595140.995689 kJ/mol
# GULP energy per Si atom -12398.770744 kJ/mol
# Density = 1.804424 g / cm^3
# Si number density = 18.085404 Si / 1000 Ang^3
#
#
#
# Elastic Constant Matrix: (Units=GPa)
#
#
# Indices 1 2 3 4 5 6 
#
# 1 84.7644 24.1737 36.7689 0.0000 0.0000 0.0000
# 2 24.1737 103.5801 36.9809 0.0000 0.0000 0.0000
# 3 36.7689 36.9809 84.0384 0.0000 0.0000 0.0000
# 4 0.0000 0.0000 0.0000 15.0713 0.0000 0.0000
# 5 0.0000 0.0000 0.0000 0.0000 25.1385 0.0000
# 6 0.0000 0.0000 0.0000 0.0000 0.0000 26.0061
#
#
#
# Elastic Compliance Matrix: (Units=1/GPa)
#
#
# Indices 1 2 3 4 5 6 
#
# 1 0.014718 -0.001348 -0.005846 0.000000 0.000000 0.000000
# 2 -0.001348 0.011577 -0.004505 0.000000 0.000000 0.000000
# 3 -0.005846 -0.004505 0.016440 0.000000 0.000000 0.000000
# 4 0.000000 0.000000 0.000000 0.066351 0.000000 0.000000
# 5 0.000000 0.000000 0.000000 0.000000 0.039780 0.000000
# 6 0.000000 0.000000 0.000000 0.000000 0.000000 0.038453
#
#
# Mechanical properties :
#
#
# Convention : Reuss Voigt Hill
#
# Bulk Modulus (GPa) = 51.71469 52.02555 51.87012
# Shear Modulus (GPa) = 23.02433 24.87380 23.94906
#
# Velocity S-wave (km/s) = 3.57191 3.71260 3.64293
# Velocity P-wave (km/s) = 6.75782 6.87073 6.81451
#
# Compressibility (1/GPa) = 0.01933687
#
# Stress axis : x y z
#
# Youngs Moduli (GPa) = 67.94521 86.37630 60.82850
#
# Poissons Ratio (x) = 0.11639 0.35563
# Poissons Ratio (y) = 0.09156 0.27403
# Poissons Ratio (z) = 0.39724 0.38912
#
# Static dielectric constant tensor:
#      x y z
#    x 3.426510 0.000000 0.000000 
#    y 0.000000 3.604040 0.000000 
#    z 0.000000 0.000000 3.051440 
# 
# 
# High freq. dielectric constant tensor:
#      x y z
#    x 1.708290 0.000000 0.000000 
#    y 0.000000 1.706370 0.000000 
#    z 0.000000 0.000000 1.663240 
# 
# From -- ./inp_files/48366.got.cif
#   From: 2010.03.12/outbox.cif.g09.slc.cpg/sg64_25_cif.got.tgz:48366.got - 2010.04.10 20:19:32.
