data_PCOD8261497
_publ_section_title
;
Structure prediction by ZEFSAII (Michael W. Deem and Ramdas Pophale) SiO2 
 PCOD8261497
Probable space group: C M C A
;
_chemical_formula_sum "Si O2"
_cell_formula_units_Z 128
_cell_length_a 16.209720
_cell_length_b 22.870208
_cell_length_c 19.330013
_cell_angle_alpha 90.000000
_cell_angle_beta 90.000000
_cell_angle_gamma 90.000000
_cell_volume 7166.016002
_symmetry_space_group_name_H-M "C M C A"
_symmetry_group_IT_number 64
_symmetry_cell_setting 'orthorhombic'
loop_
_space_group_symop_operation_xyz
x,y,z
-x,1/2-y,1/2+z
x,-y,-z
-x,1/2+y,1/2-z
-x,-y,-z
x,1/2+y,1/2-z
-x,y,z
x,1/2-y,1/2+z
1/2+x,1/2+y,z
1/2-x,-y,1/2+z
1/2+x,1/2-y,-z
1/2-x,y,1/2-z
1/2-x,1/2-y,-z
1/2+x,y,1/2-z
1/2-x,1/2+y,z
1/2+x,-y,1/2+z
loop_
_atom_site_type_symbol
_atom_site_label
_atom_site_fract_x
_atom_site_fract_y
_atom_site_fract_z
Si Si1 0.350302 0.191810 0.812009
Si Si2 0.097808 0.345294 0.756650
Si Si3 0.909302 0.295763 0.616742
Si Si4 0.903786 0.377079 0.978958
Si Si5 0.903548 0.076338 0.627780
Si Si6 0.903209 0.947654 0.649296
Si Si7 0.168690 0.763605 0.170354
Si Si8 0.401306 0.745727 0.975183
O O1 0.417594 0.228690 0.855131
O O2 0.350304 0.124096 0.831250
O O3 0.266176 0.225963 0.831400
O O4 0.369303 0.194942 0.730079
O O5 0.132192 0.335416 0.677867
O O6 0.115224 0.412178 0.779750
O O7 0.145627 0.303287 0.810395
O O8 0.000000 0.330859 0.761053
O O9 0.866341 0.293035 0.540535
O O10 0.000000 0.321547 0.605377
O O11 0.863497 0.412150 0.914876
O O12 0.866121 0.311772 0.984120
O O13 0.000000 0.369318 0.964661
O O14 0.886596 0.415426 0.046714
O O15 0.000000 0.084401 0.645468
O O16 0.867936 0.013521 0.652192
O O17 0.000000 0.954150 0.635634
O O18 0.130969 0.781520 0.096358
O O19 0.500000 0.744896 0.976868
#
# Coordination Sequence:
#
# PCOD8261497 Si02
#       8
#    16  16  16  16  16  16  16  16
#     4  10  20  32  44  65  94 129 162 197 235 276
#     4   9  16  29  48  71  96 124 156 194 237 285
#     4   9  17  29  46  66  95 126 156 196 239 281
#     4   9  15  25  41  69 102 121 145 184 230 290
#     4  10  18  29  46  69  97 125 156 190 232 287
#     4   9  16  26  45  72  97 123 152 187 235 289
#     4  10  20  31  46  65  95 127 160 199 233 284
#     4  10  17  28  47  72  98 127 155 189 241 292
#
# _framework density 17.862086999999999
#
# number of rings (size 3 to 8) (size 9 to 14) (size 15 to 20)
#    0.000    2.500    2.500    1.125    0.000    3.500 
#    0.000    0.000    0.000    6.000    0.000    0.875 
#    0.000    5.000    0.000    0.000    0.000    0.250 
#
# Total GULP energy -792888.049309 kJ/mol
# GULP energy per Si atom -12388.875770 kJ/mol
# Density = 1.782143 g / cm^3
# Si number density = 17.862087 Si / 1000 Ang^3
#
#
#
# Elastic Constant Matrix: (Units=GPa)
#
#
# Indices 1 2 3 4 5 6 
#
# 1 28.6366 19.4353 16.0175 0.0000 0.0000 0.0000
# 2 19.4353 99.6277 50.5763 0.0000 0.0000 0.0000
# 3 16.0175 50.5763 144.3877 0.0000 0.0000 0.0000
# 4 0.0000 0.0000 0.0000 26.4470 0.0000 0.0000
# 5 0.0000 0.0000 0.0000 0.0000 16.2080 0.0000
# 6 0.0000 0.0000 0.0000 0.0000 0.0000 12.8130
#
#
#
# Elastic Compliance Matrix: (Units=1/GPa)
#
#
# Indices 1 2 3 4 5 6 
#
# 1 0.040772 -0.006881 -0.002113 0.000000 0.000000 0.000000
# 2 -0.006881 0.013370 -0.003920 0.000000 0.000000 0.000000
# 3 -0.002113 -0.003920 0.008533 0.000000 0.000000 0.000000
# 4 0.000000 0.000000 0.000000 0.037811 0.000000 0.000000
# 5 0.000000 0.000000 0.000000 0.000000 0.061698 0.000000
# 6 0.000000 0.000000 0.000000 0.000000 0.000000 0.078046
#
#
# Mechanical properties :
#
#
# Convention : Reuss Voigt Hill
#
# Bulk Modulus (GPa) = 27.13875 49.41223 38.27549
# Shear Modulus (GPa) = 17.96363 23.53514 20.74938
#
# Velocity S-wave (km/s) = 3.17469 3.63382 3.41199
# Velocity P-wave (km/s) = 5.35394 6.73271 6.08252
#
# Compressibility (1/GPa) = 0.03684768
#
# Stress axis : x y z
#
# Youngs Moduli (GPa) = 24.52645 74.79629 117.18967
#
# Poissons Ratio (x) = 0.51470 0.24758
# Poissons Ratio (y) = 0.16877 0.45936
# Poissons Ratio (z) = 0.05182 0.29318
#
# Static dielectric constant tensor:
#      x y z
#    x 2.900700 0.000000 0.000000 
#    y 0.000000 3.202060 0.000000 
#    z 0.000000 0.000000 3.566890 
# 
# 
# High freq. dielectric constant tensor:
#      x y z
#    x 1.645480 0.000000 0.000000 
#    y 0.000000 1.661000 0.000000 
#    z 0.000000 0.000000 1.703710 
# 
# From -- ./inp_files/40573.got.cif
#   From: 2010.03.12/outbox.cif.g09.slc.cpg/sg64_21_cif.got.tgz:40573.got - 2010.04.10 20:19:32.
