data_PCOD8261325
_publ_section_title
;
Structure prediction by ZEFSAII (Michael W. Deem and Ramdas Pophale) SiO2 
 PCOD8261325
Probable space group: C M C M
;
_chemical_formula_sum "Si O2"
_cell_formula_units_Z 88
_cell_length_a 17.205964
_cell_length_b 32.732497
_cell_length_c 9.287304
_cell_angle_alpha 90.000000
_cell_angle_beta 90.000000
_cell_angle_gamma 90.000000
_cell_volume 5230.555421
_symmetry_space_group_name_H-M "C M C M"
_symmetry_group_IT_number 63
_symmetry_cell_setting 'orthorhombic'
loop_
_space_group_symop_operation_xyz
x,y,z
-x,-y,1/2+z
x,-y,-z
-x,y,1/2-z
-x,-y,-z
x,y,1/2-z
-x,y,z
x,-y,1/2+z
1/2+x,1/2+y,z
1/2-x,1/2-y,1/2+z
1/2+x,1/2-y,-z
1/2-x,1/2+y,1/2-z
1/2-x,1/2-y,-z
1/2+x,1/2+y,1/2-z
1/2-x,1/2+y,z
1/2+x,1/2-y,1/2+z
loop_
_atom_site_type_symbol
_atom_site_label
_atom_site_fract_x
_atom_site_fract_y
_atom_site_fract_z
Si Si1 0.693114 0.195426 0.088271
Si Si2 0.331179 0.042254 0.917514
Si Si3 0.255833 0.378626 0.081207
Si Si4 0.138126 0.765961 0.588731
Si Si5 0.914731 0.840180 0.085697
Si Si6 0.500000 0.040791 0.585786
O O1 0.661745 0.187505 0.250000
O O2 0.774096 0.218809 0.095222
O O3 0.702252 0.152700 0.006068
O O4 0.632515 0.223727 0.000681
O O5 0.321801 0.032066 0.750000
O O6 0.267509 0.075615 0.966292
O O7 0.417255 0.062599 0.949516
O O8 0.316580 0.000000 0.000000
O O9 0.239550 0.371670 0.250000
O O10 0.347062 0.372197 0.042396
O O11 0.106255 0.758432 0.750000
O O12 0.086014 0.799983 0.511926
O O13 0.901091 0.826027 0.250000
O O14 0.000000 0.860954 0.067093
O O15 0.500000 0.027668 0.750000
O O16 0.500000 0.000000 0.500000
#
# Coordination Sequence:
#
# PCOD8261325 Si02
#       6
#    16  16  16  16  16   8
#     4   9  16  26  42  64  87 113 145 182 223 267
#     4   9  17  29  47  69  92 117 146 181 221 270
#     4   9  17  29  45  66  90 118 152 188 228 271
#     4   9  16  26  42  63  86 112 145 184 225 269
#     4   9  17  29  45  64  87 117 154 195 232 266
#     4   8  14  26  44  66  88 110 136 168 210 258
#
# _framework density 16.824217000000001
#
# number of rings (size 3 to 8) (size 9 to 14) (size 15 to 20)
#    0.000    3.091    0.000    1.091    0.000    5.455 
#    0.000    0.000    2.000    0.545    0.000    0.000 
#    0.000    0.000    0.000    0.000    0.000    0.000 
#
# Total GULP energy -545151.516727 kJ/mol
# GULP energy per Si atom -12389.807198 kJ/mol
# Density = 1.678592 g / cm^3
# Si number density = 16.824217 Si / 1000 Ang^3
#
#
#
# Elastic Constant Matrix: (Units=GPa)
#
#
# Indices 1 2 3 4 5 6 
#
# 1 87.2654 57.5014 33.3749 0.0000 0.0000 0.0000
# 2 57.5014 113.0708 51.0584 0.0000 0.0000 0.0000
# 3 33.3749 51.0584 80.4801 0.0000 0.0000 0.0000
# 4 0.0000 0.0000 0.0000 25.5638 0.0000 0.0000
# 5 0.0000 0.0000 0.0000 0.0000 14.3293 0.0000
# 6 0.0000 0.0000 0.0000 0.0000 0.0000 17.8517
#
#
#
# Elastic Compliance Matrix: (Units=1/GPa)
#
#
# Indices 1 2 3 4 5 6 
#
# 1 0.017523 -0.007890 -0.002261 0.000000 0.000000 0.000000
# 2 -0.007890 0.015948 -0.006846 0.000000 0.000000 0.000000
# 3 -0.002261 -0.006846 0.017706 0.000000 0.000000 0.000000
# 4 0.000000 0.000000 0.000000 0.039118 0.000000 0.000000
# 5 0.000000 0.000000 0.000000 0.000000 0.069787 0.000000
# 6 0.000000 0.000000 0.000000 0.000000 0.000000 0.056017
#
#
# Mechanical properties :
#
#
# Convention : Reuss Voigt Hill
#
# Bulk Modulus (GPa) = 58.19625 62.74284 60.46955
# Shear Modulus (GPa) = 19.54498 20.80773 20.17636
#
# Velocity S-wave (km/s) = 3.41209 3.52059 3.46677
# Velocity P-wave (km/s) = 7.08442 7.34168 7.21420
#
# Compressibility (1/GPa) = 0.01718324
#
# Stress axis : x y z
#
# Youngs Moduli (GPa) = 57.06738 62.70491 56.47793
#
# Poissons Ratio (x) = 0.49476 0.12770
# Poissons Ratio (y) = 0.45028 0.38662
# Poissons Ratio (z) = 0.12903 0.42925
#
# Static dielectric constant tensor:
#      x y z
#    x 3.603180 0.000000 0.000000 
#    y 0.000000 2.887210 0.000000 
#    z 0.000000 0.000000 3.326540 
# 
# 
# High freq. dielectric constant tensor:
#      x y z
#    x 1.629880 0.000000 0.000000 
#    y 0.000000 1.615580 0.000000 
#    z 0.000000 0.000000 1.656870 
# 
# From -- ./inp_files/8993.got.cif
#   From: 2010.03.12/outbox.cif.g09.slc.cpg/sg63_5_cif.got.tgz:8993.got - 2010.04.10 19:34:48.
