data_PCOD8261118
_publ_section_title
;
Structure prediction by ZEFSAII (Michael W. Deem and Ramdas Pophale) SiO2 
 PCOD8261118
Probable space group: C M C M
;
_chemical_formula_sum "Si O2"
_cell_formula_units_Z 68
_cell_length_a 9.653699
_cell_length_b 19.801417
_cell_length_c 18.243943
_cell_angle_alpha 90.000000
_cell_angle_beta 90.000000
_cell_angle_gamma 90.000000
_cell_volume 3487.455943
_symmetry_space_group_name_H-M "C M C M"
_symmetry_group_IT_number 63
_symmetry_cell_setting 'orthorhombic'
loop_
_space_group_symop_operation_xyz
x,y,z
-x,-y,1/2+z
x,-y,-z
-x,y,1/2-z
-x,-y,-z
x,y,1/2-z
-x,y,z
x,-y,1/2+z
1/2+x,1/2+y,z
1/2-x,1/2-y,1/2+z
1/2+x,1/2-y,-z
1/2-x,1/2+y,1/2-z
1/2-x,1/2-y,-z
1/2+x,1/2+y,1/2-z
1/2-x,1/2+y,z
1/2+x,1/2-y,1/2+z
loop_
_atom_site_type_symbol
_atom_site_label
_atom_site_fract_x
_atom_site_fract_y
_atom_site_fract_z
Si Si1 0.201929 0.097931 0.250000
Si Si2 0.500000 0.344298 0.636558
Si Si3 0.160205 0.938311 0.250000
Si Si4 0.000000 0.077668 0.509522
Si Si5 0.500000 0.149132 0.250000
Si Si6 0.000000 0.747967 0.385881
Si Si7 0.721214 0.640917 0.609737
Si Si8 0.000000 0.296783 0.443880
O O1 0.139079 0.137825 0.180823
O O2 0.366776 0.101364 0.250000
O O3 0.162364 0.019270 0.250000
O O4 0.500000 0.392439 0.569255
O O5 0.500000 0.267172 0.610296
O O6 0.238830 0.906865 0.319657
O O7 0.000000 0.914541 0.250000
O O8 0.138490 0.099049 0.550009
O O9 0.000000 0.000000 0.500000
O O10 0.500000 0.190089 0.325605
O O11 0.138382 0.790909 0.370984
O O12 0.000000 0.722441 0.470182
O O13 0.867953 0.658024 0.574537
#
# Coordination Sequence:
#
# PCOD8261118 Si02
#       8
#     8   8   8   8   4   8  16   8
#     4  11  26  41  67  94 128 169 212 272 306 386
#     4  11  22  42  66  91 131 169 210 260 321 379
#     4  12  21  47  65  90 126 167 232 253 310 388
#     4  11  22  40  65  93 120 174 223 249 312 387
#     4  12  26  40  64  98 132 170 204 260 346 364
#     4  11  22  43  65  93 134 167 213 253 315 404
#     4  11  24  40  69  93 125 175 204 273 315 376
#     4  12  25  41  63 103 136 156 213 270 333 379
#
# _framework density 19.498453000000001
#
# number of rings (size 3 to 8) (size 9 to 14) (size 15 to 20)
#    0.000    0.706    5.882    4.235    3.294    3.294 
#    0.000    0.588    0.000    0.000    0.000    0.000 
#    0.000    0.000    0.000    0.000    0.000    0.000 
#
# Total GULP energy -421628.456864 kJ/mol
# GULP energy per Si atom -12400.836967 kJ/mol
# Density = 1.945407 g / cm^3
# Si number density = 19.498453 Si / 1000 Ang^3
#
#
#
# Elastic Constant Matrix: (Units=GPa)
#
#
# Indices 1 2 3 4 5 6 
#
# 1 147.3301 51.2668 45.3788 0.0000 0.0000 0.0000
# 2 51.2668 115.1482 61.8236 0.0000 0.0000 0.0000
# 3 45.3788 61.8236 159.4660 0.0000 0.0000 0.0000
# 4 0.0000 0.0000 0.0000 47.6760 0.0000 0.0000
# 5 0.0000 0.0000 0.0000 0.0000 8.9388 0.0000
# 6 0.0000 0.0000 0.0000 0.0000 0.0000 -64.7551
#
#
#
# Elastic Compliance Matrix: (Units=1/GPa)
#
#
# Indices 1 2 3 4 5 6 
#
# 1 0.008198 -0.003028 -0.001159 0.000000 0.000000 0.000000
# 2 -0.003028 0.012085 -0.003824 0.000000 0.000000 0.000000
# 3 -0.001159 -0.003824 0.008083 0.000000 0.000000 0.000000
# 4 0.000000 0.000000 0.000000 0.020975 0.000000 0.000000
# 5 0.000000 0.000000 0.000000 0.000000 0.111871 0.000000
# 6 0.000000 0.000000 0.000000 0.000000 0.000000 -0.015443
#
#
# Mechanical properties :
#
#
# Convention : Reuss Voigt Hill
#
# Bulk Modulus (GPa) = 81.00084 82.09807 81.54945
# Shear Modulus (GPa) = 30.13745 15.93696 23.03720
#
# Velocity S-wave (km/s) = 3.93572 2.86203 3.44101
# Velocity P-wave (km/s) = 7.89212 7.28820 7.59617
#
# Compressibility (1/GPa) = 0.01234555
#
# Stress axis : x y z
#
# Youngs Moduli (GPa) = 121.98067 82.74380 123.71254
#
# Poissons Ratio (x) = 0.25052 0.14339
# Poissons Ratio (y) = 0.36931 0.47306
# Poissons Ratio (z) = 0.14139 0.31640
#
# Static dielectric constant tensor:
#      x y z
#    x 3.593650 0.000000 0.000000 
#    y 0.000000 3.542720 0.000000 
#    z 0.000000 0.000000 3.812900 
# 
# 
# High freq. dielectric constant tensor:
#      x y z
#    x 1.757630 0.000000 0.000000 
#    y 0.000000 1.762270 0.000000 
#    z 0.000000 0.000000 1.779470 
# 
# From -- ./inp_files/40056.got.cif
#   From: 2010.03.12/outbox.cif.g09.slc.cpg/sg63_21_cif.got.tgz:40056.got - 2010.04.10 19:34:48.
