data_PCOD8261803
_publ_section_title
;
Structure prediction by ZEFSAII (Michael W. Deem and Ramdas Pophale) SiO2 
 PCOD8261803
Probable space group: C M C A
;
_chemical_formula_sum "Si O2"
_cell_formula_units_Z 96
_cell_length_a 23.006772
_cell_length_b 9.797158
_cell_length_c 24.401770
_cell_angle_alpha 90.000000
_cell_angle_beta 90.000000
_cell_angle_gamma 90.000000
_cell_volume 5500.182880
_symmetry_space_group_name_H-M "C M C A"
_symmetry_group_IT_number 64
_symmetry_cell_setting 'orthorhombic'
loop_
_space_group_symop_operation_xyz
x,y,z
-x,1/2-y,1/2+z
x,-y,-z
-x,1/2+y,1/2-z
-x,-y,-z
x,1/2+y,1/2-z
-x,y,z
x,1/2-y,1/2+z
1/2+x,1/2+y,z
1/2-x,-y,1/2+z
1/2+x,1/2-y,-z
1/2-x,y,1/2-z
1/2-x,1/2-y,-z
1/2+x,y,1/2-z
1/2-x,1/2+y,z
1/2+x,-y,1/2+z
loop_
_atom_site_type_symbol
_atom_site_label
_atom_site_fract_x
_atom_site_fract_y
_atom_site_fract_z
Si Si1 0.565873 0.749679 0.802334
Si Si2 0.352015 0.426691 0.401933
Si Si3 0.067385 0.936395 0.299258
Si Si4 0.937597 0.658613 0.987297
Si Si5 0.762068 0.372206 0.459754
Si Si6 0.127641 0.742529 0.086032
O O1 0.500000 0.719277 0.819469
O O2 0.584963 0.652925 0.752850
O O3 0.604991 0.715035 0.854527
O O4 0.573228 0.905545 0.783123
O O5 0.383407 0.400246 0.343982
O O6 0.387187 0.327651 0.442869
O O7 0.285261 0.381326 0.410153
O O8 0.351198 0.586306 0.416145
O O9 0.000000 0.906891 0.318636
O O10 0.000000 0.711108 0.964876
O O11 0.943686 0.500000 0.000000
O O12 0.923085 0.749877 0.040634
O O13 0.763488 0.500000 0.500000
O O14 0.750000 0.250000 0.500000
O O15 0.822471 0.350130 0.428458
#
# Coordination Sequence:
#
# PCOD8261803 Si02
#       6
#    16  16  16  16  16  16
#     4   9  18  35  57  80 107 139 176 220 271 321
#     4  10  18  32  53  77 104 137 180 220 261 319
#     4   9  18  34  56  80 106 137 174 221 273 321
#     4   9  15  25  47  78 103 126 167 217 261 313
#     4  12  21  37  55  77 108 144 178 218 266 318
#     4  10  19  33  53  77 105 140 178 217 267 321
#
# _framework density 17.453965
#
# number of rings (size 3 to 8) (size 9 to 14) (size 15 to 20)
#    0.000    2.167    3.333    1.500    0.000    4.000 
#    3.000    0.833    0.000    6.000    0.000    0.000 
#    0.000    0.000    0.000    0.000    0.000    0.000 
#
# Total GULP energy -594755.249818 kJ/mol
# GULP energy per Si atom -12390.734371 kJ/mol
# Density = 1.741424 g / cm^3
# Si number density = 17.453965 Si / 1000 Ang^3
#
#
#
# Elastic Constant Matrix: (Units=GPa)
#
#
# Indices 1 2 3 4 5 6 
#
# 1 122.2448 41.6618 65.1188 0.0000 0.0000 0.0000
# 2 41.6618 64.2511 55.6420 0.0000 0.0000 0.0000
# 3 65.1188 55.6420 120.1197 0.0000 0.0000 0.0000
# 4 0.0000 0.0000 0.0000 30.5324 0.0000 0.0000
# 5 0.0000 0.0000 0.0000 0.0000 34.7144 0.0000
# 6 0.0000 0.0000 0.0000 0.0000 0.0000 7.8691
#
#
#
# Elastic Compliance Matrix: (Units=1/GPa)
#
#
# Indices 1 2 3 4 5 6 
#
# 1 0.011975 -0.003578 -0.004834 0.000000 0.000000 0.000000
# 2 -0.003578 0.027059 -0.010595 0.000000 0.000000 0.000000
# 3 -0.004834 -0.010595 0.015853 0.000000 0.000000 0.000000
# 4 0.000000 0.000000 0.000000 0.032752 0.000000 0.000000
# 5 0.000000 0.000000 0.000000 0.000000 0.028807 0.000000
# 6 0.000000 0.000000 0.000000 0.000000 0.000000 0.127079
#
#
# Mechanical properties :
#
#
# Convention : Reuss Voigt Hill
#
# Bulk Modulus (GPa) = 59.26525 70.16232 64.71379
# Shear Modulus (GPa) = 17.41167 24.23604 20.82385
#
# Velocity S-wave (km/s) = 3.16187 3.73039 3.45784
# Velocity P-wave (km/s) = 6.88177 7.67074 7.28694
#
# Compressibility (1/GPa) = 0.01687330
#
# Stress axis : x y z
#
# Youngs Moduli (GPa) = 83.50719 36.95603 63.07795
#
# Poissons Ratio (x) = 0.13224 0.30494
# Poissons Ratio (y) = 0.29882 0.66828
# Poissons Ratio (z) = 0.40370 0.39153
#
# Static dielectric constant tensor:
#      x y z
#    x 3.724080 0.000000 0.000000 
#    y 0.000000 3.005740 0.000000 
#    z 0.000000 0.000000 3.206980 
# 
# 
# High freq. dielectric constant tensor:
#      x y z
#    x 1.677540 0.000000 0.000000 
#    y 0.000000 1.650530 0.000000 
#    z 0.000000 0.000000 1.666040 
# 
# From -- ./inp_files/50971.got.cif
#   From: 2010.03.12/outbox.cif.g09.slc.cpg/sg64_26_cif.got.tgz:50971.got - 2010.04.10 20:19:32.
