data_PCOD8261772
_publ_section_title
;
Structure prediction by ZEFSAII (Michael W. Deem and Ramdas Pophale) SiO2 
 PCOD8261772
Probable space group: C M C A
;
_chemical_formula_sum "Si O2"
_cell_formula_units_Z 112
_cell_length_a 16.280579
_cell_length_b 20.970535
_cell_length_c 18.251701
_cell_angle_alpha 90.000000
_cell_angle_beta 90.000000
_cell_angle_gamma 90.000000
_cell_volume 6231.357987
_symmetry_space_group_name_H-M "C M C A"
_symmetry_group_IT_number 64
_symmetry_cell_setting 'orthorhombic'
loop_
_space_group_symop_operation_xyz
x,y,z
-x,1/2-y,1/2+z
x,-y,-z
-x,1/2+y,1/2-z
-x,-y,-z
x,1/2+y,1/2-z
-x,y,z
x,1/2-y,1/2+z
1/2+x,1/2+y,z
1/2-x,-y,1/2+z
1/2+x,1/2-y,-z
1/2-x,y,1/2-z
1/2-x,1/2-y,-z
1/2+x,y,1/2-z
1/2-x,1/2+y,z
1/2+x,-y,1/2+z
loop_
_atom_site_type_symbol
_atom_site_label
_atom_site_fract_x
_atom_site_fract_y
_atom_site_fract_z
Si Si1 0.587612 0.590595 0.666652
Si Si2 0.360827 0.520223 0.417162
Si Si3 0.801884 0.666588 0.939830
Si Si4 0.702986 0.739558 0.828121
Si Si5 0.094008 0.385186 0.326844
Si Si6 0.300524 0.954582 0.437824
Si Si7 0.901601 0.666388 0.083021
O O1 0.500000 0.625846 0.658367
O O2 0.578861 0.520231 0.633245
O O3 0.653632 0.634378 0.628532
O O4 0.607878 0.579158 0.750937
O O5 0.378628 0.500000 0.500000
O O6 0.267644 0.498684 0.397020
O O7 0.380831 0.593152 0.403737
O O8 0.760992 0.728262 0.900304
O O9 0.739880 0.611446 0.970188
O O10 0.863180 0.688681 0.004580
O O11 0.750000 0.752808 0.750000
O O12 0.647305 0.677890 0.821584
O O13 0.642445 0.797585 0.849359
O O14 0.125006 0.435587 0.386128
O O15 0.000000 0.367187 0.344236
O O16 0.338992 0.000000 0.500000
O O17 0.000000 0.678773 0.082321
#
# Coordination Sequence:
#
# PCOD8261772 Si02
#       7
#    16  16  16  16  16  16  16
#     4  10  18  31  55  86 111 141 188 240 289 333
#     4  10  19  34  55  84 112 146 179 231 293 354
#     4  10  19  35  60  83 110 151 196 237 286 351
#     4  11  23  41  57  80 116 160 200 236 291 359
#     4  10  21  36  59  85 112 151 200 244 280 334
#     4   9  17  34  56  84 116 148 189 228 286 346
#     4  12  23  37  58  88 117 145 189 250 302 351
#
# _framework density 17.973610000000001
#
# number of rings (size 3 to 8) (size 9 to 14) (size 15 to 20)
#    0.000    1.714    5.714    1.714    0.000    0.857 
#    2.571    0.000    0.000    0.000    0.000    0.000 
#    0.000    0.000    0.000    0.000    0.000    0.000 
#
# Total GULP energy -693792.347191 kJ/mol
# GULP energy per Si atom -12389.149057 kJ/mol
# Density = 1.793270 g / cm^3
# Si number density = 17.973610 Si / 1000 Ang^3
#
#
#
# Elastic Constant Matrix: (Units=GPa)
#
#
# Indices 1 2 3 4 5 6 
#
# 1 98.7606 37.8272 60.1614 0.0000 0.0000 0.0000
# 2 37.8272 82.3589 35.6932 0.0000 0.0000 0.0000
# 3 60.1614 35.6932 81.4743 0.0000 0.0000 0.0000
# 4 0.0000 0.0000 0.0000 29.5716 0.0000 0.0000
# 5 0.0000 0.0000 0.0000 0.0000 106.4701 0.0000
# 6 0.0000 0.0000 0.0000 0.0000 0.0000 46.7343
#
#
#
# Elastic Compliance Matrix: (Units=1/GPa)
#
#
# Indices 1 2 3 4 5 6 
#
# 1 0.019097 -0.003283 -0.012663 0.000000 0.000000 0.000000
# 2 -0.003283 0.015552 -0.004389 0.000000 0.000000 0.000000
# 3 -0.012663 -0.004389 0.023547 0.000000 0.000000 0.000000
# 4 0.000000 0.000000 0.000000 0.033816 0.000000 0.000000
# 5 0.000000 0.000000 0.000000 0.000000 0.009392 0.000000
# 6 0.000000 0.000000 0.000000 0.000000 0.000000 0.021398
#
#
# Mechanical properties :
#
#
# Convention : Reuss Voigt Hill
#
# Bulk Modulus (GPa) = 57.05868 58.88416 57.97142
# Shear Modulus (GPa) = 29.53095 45.14932 37.34014
#
# Velocity S-wave (km/s) = 4.05781 5.01740 4.56290
# Velocity P-wave (km/s) = 7.33275 8.14852 7.75137
#
# Compressibility (1/GPa) = 0.01752582
#
# Stress axis : x y z
#
# Youngs Moduli (GPa) = 52.36476 64.30035 42.46825
#
# Poissons Ratio (x) = 0.21111 0.53777
# Poissons Ratio (y) = 0.17192 0.18639
# Poissons Ratio (z) = 0.66309 0.28221
#
# Static dielectric constant tensor:
#      x y z
#    x 3.504100 0.000000 0.000000 
#    y 0.000000 3.338710 0.000000 
#    z 0.000000 0.000000 3.423700 
# 
# 
# High freq. dielectric constant tensor:
#      x y z
#    x 1.699120 0.000000 0.000000 
#    y 0.000000 1.681900 0.000000 
#    z 0.000000 0.000000 1.690190 
# 
# From -- ./inp_files/33612.got.cif
#   From: 2010.03.12/outbox.cif.g09.slc.cpg/sg64_17_cif.got.tgz:33612.got - 2010.04.10 20:19:32.
