data_PCOD8261554
_publ_section_title
;
Structure prediction by ZEFSAII (Michael W. Deem and Ramdas Pophale) SiO2 
 PCOD8261554
Probable space group: C M C A
;
_chemical_formula_sum "Si O2"
_cell_formula_units_Z 72
_cell_length_a 14.587935
_cell_length_b 15.046473
_cell_length_c 18.357804
_cell_angle_alpha 90.000000
_cell_angle_beta 90.000000
_cell_angle_gamma 90.000000
_cell_volume 4029.482356
_symmetry_space_group_name_H-M "C M C A"
_symmetry_group_IT_number 64
_symmetry_cell_setting 'orthorhombic'
loop_
_space_group_symop_operation_xyz
x,y,z
-x,1/2-y,1/2+z
x,-y,-z
-x,1/2+y,1/2-z
-x,-y,-z
x,1/2+y,1/2-z
-x,y,z
x,1/2-y,1/2+z
1/2+x,1/2+y,z
1/2-x,-y,1/2+z
1/2+x,1/2-y,-z
1/2-x,y,1/2-z
1/2-x,1/2-y,-z
1/2+x,y,1/2-z
1/2-x,1/2+y,z
1/2+x,-y,1/2+z
loop_
_atom_site_type_symbol
_atom_site_label
_atom_site_fract_x
_atom_site_fract_y
_atom_site_fract_z
Si Si1 0.000000 0.133081 0.356882
Si Si2 0.196015 0.387876 0.924148
Si Si3 0.189143 0.586090 0.909355
Si Si4 0.000000 0.062428 0.657791
Si Si5 0.299367 0.244856 0.325435
Si Si6 0.000000 0.259962 0.223908
O O1 0.908994 0.137031 0.405761
O O2 0.000000 0.218160 0.304053
O O3 0.000000 0.039142 0.312047
O O4 0.226893 0.486431 0.897833
O O5 0.266856 0.322751 0.886412
O O6 0.209506 0.378145 0.010211
O O7 0.081266 0.580702 0.897885
O O8 0.229791 0.655486 0.850423
O O9 0.000000 0.131263 0.726398
O O10 0.250000 0.223221 0.250000
O O11 0.408572 0.229905 0.318623
#
# Coordination Sequence:
#
# PCOD8261554 Si02
#       6
#     8  16  16   8  16   8
#     4  10  17  32  55  79 103 136 179 214 252 304
#     4  10  19  34  56  80 104 139 175 217 258 304
#     4   9  19  34  54  79 107 133 178 218 257 306
#     4   8  17  32  53  77 103 138 169 220 262 290
#     4  11  21  35  54  76 107 140 171 213 265 311
#     4  10  20  36  48  75 110 133 172 214 258 316
#
# _framework density 17.868300000000001
#
# number of rings (size 3 to 8) (size 9 to 14) (size 15 to 20)
#    0.000    2.222    2.222    1.333    0.000    3.556 
#    4.000    0.000    0.000    2.667    0.000    0.000 
#    0.000    0.000    0.000    0.000    0.000    0.000 
#
# Total GULP energy -446151.532552 kJ/mol
# GULP energy per Si atom -12393.098126 kJ/mol
# Density = 1.782763 g / cm^3
# Si number density = 17.868300 Si / 1000 Ang^3
#
#
#
# Elastic Constant Matrix: (Units=GPa)
#
#
# Indices 1 2 3 4 5 6 
#
# 1 74.9251 20.6578 8.8066 0.0000 0.0000 0.0000
# 2 20.6578 65.3843 20.1678 0.0000 0.0000 0.0000
# 3 8.8066 20.1678 51.4725 0.0000 0.0000 0.0000
# 4 0.0000 0.0000 0.0000 35.7324 0.0000 0.0000
# 5 0.0000 0.0000 0.0000 0.0000 18.5048 0.0000
# 6 0.0000 0.0000 0.0000 0.0000 0.0000 22.1180
#
#
#
# Elastic Compliance Matrix: (Units=1/GPa)
#
#
# Indices 1 2 3 4 5 6 
#
# 1 0.014648 -0.004385 -0.000788 0.000000 0.000000 0.000000
# 2 -0.004385 0.018709 -0.006580 0.000000 0.000000 0.000000
# 3 -0.000788 -0.006580 0.022141 0.000000 0.000000 0.000000
# 4 0.000000 0.000000 0.000000 0.027986 0.000000 0.000000
# 5 0.000000 0.000000 0.000000 0.000000 0.054040 0.000000
# 6 0.000000 0.000000 0.000000 0.000000 0.000000 0.045212
#
#
# Mechanical properties :
#
#
# Convention : Reuss Voigt Hill
#
# Bulk Modulus (GPa) = 31.25814 32.33848 31.79831
# Shear Modulus (GPa) = 23.05134 24.74770 23.89952
#
# Velocity S-wave (km/s) = 3.59565 3.72560 3.66120
# Velocity P-wave (km/s) = 5.89660 6.05346 5.97554
#
# Compressibility (1/GPa) = 0.03199166
#
# Stress axis : x y z
#
# Youngs Moduli (GPa) = 68.26741 53.44929 45.16513
#
# Poissons Ratio (x) = 0.23437 0.03560
# Poissons Ratio (y) = 0.29935 0.29720
# Poissons Ratio (z) = 0.05380 0.35172
#
# Static dielectric constant tensor:
#      x y z
#    x 3.228340 0.000000 0.000000 
#    y 0.000000 3.667650 0.000000 
#    z 0.000000 0.000000 3.145300 
# 
# 
# High freq. dielectric constant tensor:
#      x y z
#    x 1.680420 0.000000 0.000000 
#    y 0.000000 1.701890 0.000000 
#    z 0.000000 0.000000 1.677950 
# 
# From -- ./inp_files/25152.got.cif
#   From: 2010.03.12/outbox.cif.g09.slc.cpg/sg64_13_cif.got.tgz:25152.got - 2010.04.10 20:19:32.
