data_PCOD8261640
_publ_section_title
;
Structure prediction by ZEFSAII (Michael W. Deem and Ramdas Pophale) SiO2 
 PCOD8261640
Probable space group: C M C A
;
_chemical_formula_sum "Si O2"
_cell_formula_units_Z 96
_cell_length_a 9.285669
_cell_length_b 23.816852
_cell_length_c 25.483561
_cell_angle_alpha 90.000000
_cell_angle_beta 90.000000
_cell_angle_gamma 90.000000
_cell_volume 5635.827236
_symmetry_space_group_name_H-M "C M C A"
_symmetry_group_IT_number 64
_symmetry_cell_setting 'orthorhombic'
loop_
_space_group_symop_operation_xyz
x,y,z
-x,1/2-y,1/2+z
x,-y,-z
-x,1/2+y,1/2-z
-x,-y,-z
x,1/2+y,1/2-z
-x,y,z
x,1/2-y,1/2+z
1/2+x,1/2+y,z
1/2-x,-y,1/2+z
1/2+x,1/2-y,-z
1/2-x,y,1/2-z
1/2-x,1/2-y,-z
1/2+x,y,1/2-z
1/2-x,1/2+y,z
1/2+x,-y,1/2+z
loop_
_atom_site_type_symbol
_atom_site_label
_atom_site_fract_x
_atom_site_fract_y
_atom_site_fract_z
Si Si1 0.335415 0.339035 0.897432
Si Si2 0.665293 0.414919 0.803363
Si Si3 0.668828 0.492931 0.113019
Si Si4 0.162862 0.895190 0.423875
Si Si5 0.336176 0.925021 0.958252
Si Si6 0.165643 0.272633 0.049941
O O1 0.500000 0.358487 0.909389
O O2 0.292701 0.361352 0.839647
O O3 0.229297 0.365476 0.940428
O O4 0.320767 0.271792 0.902084
O O5 0.500000 0.412820 0.787743
O O6 0.750000 0.411468 0.750000
O O7 0.701782 0.472711 0.833825
O O8 0.500000 0.487220 0.102675
O O9 0.739093 0.430821 0.116623
O O10 0.739424 0.525182 0.064223
O O11 0.166816 0.927298 0.479223
O O12 0.226690 0.832146 0.429480
O O13 0.000000 0.892976 0.401946
O O14 0.500000 0.930968 0.937543
O O15 0.000000 0.281027 0.032590
O O16 0.250000 0.250000 0.000000
#
# Coordination Sequence:
#
# PCOD8261640 Si02
#       6
#    16  16  16  16  16  16
#     4   9  18  32  50  73 102 132 166 204 245 292
#     4   9  19  35  54  76  95 119 159 208 259 305
#     4  10  21  34  48  70  98 128 165 204 250 302
#     4  10  20  31  45  70 102 136 171 201 237 285
#     4  10  18  29  46  70 101 132 167 205 237 283
#     4  10  19  32  49  71 103 140 173 203 237 286
#
# _framework density 17.033878000000001
#
# number of rings (size 3 to 8) (size 9 to 14) (size 15 to 20)
#    0.000    2.333    1.667    2.500    0.000    7.333 
#    0.000    0.000    0.000    1.000    0.000    4.667 
#    0.000    0.000    0.000    0.000    0.000    0.000 
#
# Total GULP energy -595075.333357 kJ/mol
# GULP energy per Si atom -12397.402778 kJ/mol
# Density = 1.699511 g / cm^3
# Si number density = 17.033878 Si / 1000 Ang^3
#
#
#
# Elastic Constant Matrix: (Units=GPa)
#
#
# Indices 1 2 3 4 5 6 
#
# 1 75.8845 44.0397 38.5263 0.0000 0.0000 0.0000
# 2 44.0397 122.5811 41.6031 0.0000 0.0000 0.0000
# 3 38.5263 41.6031 75.7205 0.0000 0.0000 0.0000
# 4 0.0000 0.0000 0.0000 14.2222 0.0000 0.0000
# 5 0.0000 0.0000 0.0000 0.0000 26.3794 0.0000
# 6 0.0000 0.0000 0.0000 0.0000 0.0000 27.2554
#
#
#
# Elastic Compliance Matrix: (Units=1/GPa)
#
#
# Indices 1 2 3 4 5 6 
#
# 1 0.019594 -0.004494 -0.007500 0.000000 0.000000 0.000000
# 2 -0.004494 0.011058 -0.003789 0.000000 0.000000 0.000000
# 3 -0.007500 -0.003789 0.019104 0.000000 0.000000 0.000000
# 4 0.000000 0.000000 0.000000 0.070312 0.000000 0.000000
# 5 0.000000 0.000000 0.000000 0.000000 0.037908 0.000000
# 6 0.000000 0.000000 0.000000 0.000000 0.000000 0.036690
#
#
# Mechanical properties :
#
#
# Convention : Reuss Voigt Hill
#
# Bulk Modulus (GPa) = 54.97566 58.05827 56.51696
# Shear Modulus (GPa) = 21.52411 23.57255 22.54833
#
# Velocity S-wave (km/s) = 3.55858 3.72407 3.64226
# Velocity P-wave (km/s) = 7.01634 7.25600 7.13718
#
# Compressibility (1/GPa) = 0.01818987
#
# Stress axis : x y z
#
# Youngs Moduli (GPa) = 51.03653 90.42828 52.34379
#
# Poissons Ratio (x) = 0.40638 0.39258
# Poissons Ratio (y) = 0.22936 0.19835
# Poissons Ratio (z) = 0.38278 0.34266
#
# Static dielectric constant tensor:
#      x y z
#    x 3.291170 0.000000 0.000000 
#    y 0.000000 3.470640 0.000000 
#    z 0.000000 0.000000 2.821590 
# 
# 
# High freq. dielectric constant tensor:
#      x y z
#    x 1.662950 0.000000 0.000000 
#    y 0.000000 1.665290 0.000000 
#    z 0.000000 0.000000 1.613670 
# 
# From -- ./inp_files/48341.got.cif
#   From: 2010.03.12/outbox.cif.g09.slc.cpg/sg64_25_cif.got.tgz:48341.got - 2010.04.10 20:19:32.
