data_PCOD8261615
_publ_section_title
;
Structure prediction by ZEFSAII (Michael W. Deem and Ramdas Pophale) SiO2 
 PCOD8261615
Probable space group: C M C A
;
_chemical_formula_sum "Si O2"
_cell_formula_units_Z 128
_cell_length_a 19.536320
_cell_length_b 19.912504
_cell_length_c 20.186707
_cell_angle_alpha 90.000000
_cell_angle_beta 90.000000
_cell_angle_gamma 90.000000
_cell_volume 7852.973209
_symmetry_space_group_name_H-M "C M C A"
_symmetry_group_IT_number 64
_symmetry_cell_setting 'orthorhombic'
loop_
_space_group_symop_operation_xyz
x,y,z
-x,1/2-y,1/2+z
x,-y,-z
-x,1/2+y,1/2-z
-x,-y,-z
x,1/2+y,1/2-z
-x,y,z
x,1/2-y,1/2+z
1/2+x,1/2+y,z
1/2-x,-y,1/2+z
1/2+x,1/2-y,-z
1/2-x,y,1/2-z
1/2-x,1/2-y,-z
1/2+x,y,1/2-z
1/2-x,1/2+y,z
1/2+x,-y,1/2+z
loop_
_atom_site_type_symbol
_atom_site_label
_atom_site_fract_x
_atom_site_fract_y
_atom_site_fract_z
Si Si1 0.817396 0.965554 0.934500
Si Si2 0.079590 0.812436 0.823116
Si Si3 0.743111 0.931903 0.138659
Si Si4 0.146750 0.927485 0.252163
Si Si5 0.708354 0.709894 0.910995
Si Si6 0.575956 0.534644 0.177457
Si Si7 0.168756 0.781417 0.231011
Si Si8 0.826574 0.311323 0.554824
O O1 0.876524 0.982598 0.883423
O O2 0.799832 0.887614 0.941299
O O3 0.749276 0.005746 0.911877
O O4 0.845959 0.000000 0.000000
O O5 0.087438 0.889006 0.798813
O O6 0.129851 0.774701 0.772688
O O7 0.105697 0.802960 0.899409
O O8 0.000000 0.788821 0.819694
O O9 0.793580 0.942019 0.200042
O O10 0.667935 0.935826 0.170816
O O11 0.756183 0.862087 0.100877
O O12 0.126310 0.849517 0.244559
O O13 0.087335 0.981599 0.237408
O O14 0.663148 0.732726 0.847837
O O15 0.767517 0.764453 0.917431
O O16 0.660630 0.706860 0.977133
O O17 0.500000 0.525581 0.150454
O O18 0.250000 0.788379 0.250000
#
# Coordination Sequence:
#
# PCOD8261615 Si02
#       8
#    16  16  16  16  16  16  16  16
#     4  10  18  28  46  68  98 127 160 195 242 297
#     4  10  21  37  52  72 105 142 177 214 257 311
#     4   9  15  28  44  70  98 123 151 203 249 295
#     4   9  16  29  49  70  98 128 156 207 256 291
#     4  10  18  30  50  75 103 126 168 209 263 303
#     4   9  20  34  47  68 100 135 171 201 241 305
#     4  11  18  33  54  79 103 132 170 220 263 306
#     4  10  19  31  49  73  99 137 165 209 255 312
#
# _framework density 16.299558999999999
#
# number of rings (size 3 to 8) (size 9 to 14) (size 15 to 20)
#    0.000    2.250    5.000    0.000    0.000    1.750 
#    2.250    0.625    0.000    0.000    0.000    0.000 
#    0.000    0.500    0.000    0.500    0.000    0.000 
#
# Total GULP energy -792910.659886 kJ/mol
# GULP energy per Si atom -12389.229061 kJ/mol
# Density = 1.626246 g / cm^3
# Si number density = 16.299559 Si / 1000 Ang^3
#
#
#
# Elastic Constant Matrix: (Units=GPa)
#
#
# Indices 1 2 3 4 5 6 
#
# 1 57.3852 44.0149 42.2400 0.0000 0.0000 0.0000
# 2 44.0149 96.6773 48.0704 0.0000 0.0000 0.0000
# 3 42.2400 48.0704 105.5360 0.0000 0.0000 0.0000
# 4 0.0000 0.0000 0.0000 24.8616 0.0000 0.0000
# 5 0.0000 0.0000 0.0000 0.0000 12.4684 0.0000
# 6 0.0000 0.0000 0.0000 0.0000 0.0000 19.2590
#
#
#
# Elastic Compliance Matrix: (Units=1/GPa)
#
#
# Indices 1 2 3 4 5 6 
#
# 1 0.030987 -0.010266 -0.007726 0.000000 0.000000 0.000000
# 2 -0.010266 0.016773 -0.003531 0.000000 0.000000 0.000000
# 3 -0.007726 -0.003531 0.014176 0.000000 0.000000 0.000000
# 4 0.000000 0.000000 0.000000 0.040223 0.000000 0.000000
# 5 0.000000 0.000000 0.000000 0.000000 0.080203 0.000000
# 6 0.000000 0.000000 0.000000 0.000000 0.000000 0.051924
#
#
# Mechanical properties :
#
#
# Convention : Reuss Voigt Hill
#
# Bulk Modulus (GPa) = 52.93858 58.69434 55.81646
# Shear Modulus (GPa) = 17.62857 19.66935 18.64896
#
# Velocity S-wave (km/s) = 3.29224 3.47759 3.38618
# Velocity P-wave (km/s) = 6.85572 7.22584 7.04321
#
# Compressibility (1/GPa) = 0.01888982
#
# Stress axis : x y z
#
# Youngs Moduli (GPa) = 32.27111 59.61834 70.54037
#
# Poissons Ratio (x) = 0.61205 0.54502
# Poissons Ratio (y) = 0.33130 0.24909
# Poissons Ratio (z) = 0.24934 0.21052
#
# Static dielectric constant tensor:
#      x y z
#    x 2.867850 0.000000 0.000000 
#    y 0.000000 3.298030 0.000000 
#    z 0.000000 0.000000 3.369730 
# 
# 
# High freq. dielectric constant tensor:
#      x y z
#    x 1.581950 0.000000 0.000000 
#    y 0.000000 1.640520 0.000000 
#    z 0.000000 0.000000 1.631340 
# 
# From -- ./inp_files/41151.got.cif
#   From: 2010.03.12/outbox.cif.g09.slc.cpg/sg64_21_cif.got.tgz:41151.got - 2010.04.10 20:19:32.
