data_PCOD8261549
_publ_section_title
;
Structure prediction by ZEFSAII (Michael W. Deem and Ramdas Pophale) SiO2 
 PCOD8261549
Probable space group: C M C A
;
_chemical_formula_sum "Si O2"
_cell_formula_units_Z 128
_cell_length_a 17.703379
_cell_length_b 23.370584
_cell_length_c 19.258552
_cell_angle_alpha 90.000000
_cell_angle_beta 90.000000
_cell_angle_gamma 90.000000
_cell_volume 7968.000681
_symmetry_space_group_name_H-M "C M C A"
_symmetry_group_IT_number 64
_symmetry_cell_setting 'orthorhombic'
loop_
_space_group_symop_operation_xyz
x,y,z
-x,1/2-y,1/2+z
x,-y,-z
-x,1/2+y,1/2-z
-x,-y,-z
x,1/2+y,1/2-z
-x,y,z
x,1/2-y,1/2+z
1/2+x,1/2+y,z
1/2-x,-y,1/2+z
1/2+x,1/2-y,-z
1/2-x,y,1/2-z
1/2-x,1/2-y,-z
1/2+x,y,1/2-z
1/2-x,1/2+y,z
1/2+x,-y,1/2+z
loop_
_atom_site_type_symbol
_atom_site_label
_atom_site_fract_x
_atom_site_fract_y
_atom_site_fract_z
Si Si1 0.914796 0.351354 0.254877
Si Si2 0.413133 0.423555 0.860621
Si Si3 0.668616 0.825878 0.722297
Si Si4 0.795716 0.293174 0.178221
Si Si5 0.914643 0.263849 0.841400
Si Si6 0.589499 0.551027 0.854451
Si Si7 0.805526 0.219730 0.946490
Si Si8 0.087185 0.879437 0.013572
O O1 0.865270 0.337311 0.186521
O O2 0.910213 0.300194 0.310731
O O3 0.882812 0.408721 0.291214
O O4 0.000000 0.359987 0.228702
O O5 0.500000 0.418159 0.837296
O O6 0.364722 0.379178 0.817666
O O7 0.379666 0.486744 0.844972
O O8 0.404916 0.412617 0.941968
O O9 0.750000 0.844494 0.750000
O O10 0.674545 0.772011 0.669348
O O11 0.613763 0.809931 0.785904
O O12 0.750000 0.294773 0.250000
O O13 0.745635 0.311319 0.112566
O O14 0.860175 0.266021 0.908709
O O15 0.000000 0.279376 0.863048
O O16 0.500000 0.549125 0.855599
O O17 0.616468 0.577439 0.927304
O O18 0.750000 0.250000 0.000000
O O19 0.858237 0.175318 0.987115
O O20 0.000000 0.859761 0.026463
#
# Coordination Sequence:
#
# PCOD8261549 Si02
#       8
#    16  16  16  16  16  16  16  16
#     4   9  16  29  52  72  90 122 166 207 242 288
#     4  10  20  31  47  72  99 128 163 204 251 296
#     4  10  18  32  48  68  99 129 158 199 248 300
#     4  10  17  32  48  70  97 130 161 198 251 293
#     4  10  18  32  52  70  93 130 169 198 240 302
#     4   9  16  30  50  72  96 126 167 209 246 293
#     4  12  21  31  48  75 101 133 166 203 249 293
#     4  10  19  32  49  69  98 133 167 201 245 303
#
# _framework density 16.064254999999999
#
# number of rings (size 3 to 8) (size 9 to 14) (size 15 to 20)
#    0.000    2.000    5.000    1.875    0.000    2.000 
#    0.000    3.125    0.000    0.000    0.000    0.000 
#    0.000    0.000    0.000    6.875    0.000    0.000 
#
# Total GULP energy -793409.242844 kJ/mol
# GULP energy per Si atom -12397.019419 kJ/mol
# Density = 1.602769 g / cm^3
# Si number density = 16.064255 Si / 1000 Ang^3
#
#
#
# Elastic Constant Matrix: (Units=GPa)
#
#
# Indices 1 2 3 4 5 6 
#
# 1 97.7974 43.3005 43.5722 0.0000 0.0000 0.0000
# 2 43.3005 96.4846 29.3240 0.0000 0.0000 0.0000
# 3 43.5722 29.3240 54.2500 0.0000 0.0000 0.0000
# 4 0.0000 0.0000 0.0000 21.1049 0.0000 0.0000
# 5 0.0000 0.0000 0.0000 0.0000 26.9544 0.0000
# 6 0.0000 0.0000 0.0000 0.0000 0.0000 15.8629
#
#
#
# Elastic Compliance Matrix: (Units=1/GPa)
#
#
# Indices 1 2 3 4 5 6 
#
# 1 0.017252 -0.004225 -0.011572 0.000000 0.000000 0.000000
# 2 -0.004225 0.013437 -0.003869 0.000000 0.000000 0.000000
# 3 -0.011572 -0.003869 0.029819 0.000000 0.000000 0.000000
# 4 0.000000 0.000000 0.000000 0.047382 0.000000 0.000000
# 5 0.000000 0.000000 0.000000 0.000000 0.037100 0.000000
# 6 0.000000 0.000000 0.000000 0.000000 0.000000 0.063040
#
#
# Mechanical properties :
#
#
# Convention : Reuss Voigt Hill
#
# Bulk Modulus (GPa) = 47.22798 53.43614 50.33206
# Shear Modulus (GPa) = 19.65241 21.60680 20.62960
#
# Velocity S-wave (km/s) = 3.50145 3.67143 3.58745
# Velocity P-wave (km/s) = 6.76832 7.16302 6.96846
#
# Compressibility (1/GPa) = 0.02117389
#
# Stress axis : x y z
#
# Youngs Moduli (GPa) = 57.96483 74.42403 33.53531
#
# Poissons Ratio (x) = 0.31446 0.38808
# Poissons Ratio (y) = 0.24491 0.12976
# Poissons Ratio (z) = 0.67079 0.28797
#
# Static dielectric constant tensor:
#      x y z
#    x 3.313790 0.000000 0.000000 
#    y 0.000000 3.050220 0.000000 
#    z 0.000000 0.000000 2.926340 
# 
# 
# High freq. dielectric constant tensor:
#      x y z
#    x 1.617610 0.000000 0.000000 
#    y 0.000000 1.596570 0.000000 
#    z 0.000000 0.000000 1.599790 
# 
# From -- ./inp_files/33754.got.cif
#   From: 2010.03.12/outbox.cif.g09.slc.cpg/sg64_17_cif.got.tgz:33754.got - 2010.04.10 20:19:32.
