data_PCOD8261063
_publ_section_title
;
Structure prediction by ZEFSAII (Michael W. Deem and Ramdas Pophale) SiO2 
 PCOD8261063
Probable space group: C M C M
;
_chemical_formula_sum "Si O2"
_cell_formula_units_Z 80
_cell_length_a 9.277085
_cell_length_b 18.395212
_cell_length_c 26.210897
_cell_angle_alpha 90.000000
_cell_angle_beta 90.000000
_cell_angle_gamma 90.000000
_cell_volume 4472.992983
_symmetry_space_group_name_H-M "C M C M"
_symmetry_group_IT_number 63
_symmetry_cell_setting 'orthorhombic'
loop_
_space_group_symop_operation_xyz
x,y,z
-x,-y,1/2+z
x,-y,-z
-x,y,1/2-z
-x,-y,-z
x,y,1/2-z
-x,y,z
x,-y,1/2+z
1/2+x,1/2+y,z
1/2-x,1/2-y,1/2+z
1/2+x,1/2-y,-z
1/2-x,1/2+y,1/2-z
1/2-x,1/2-y,-z
1/2+x,1/2+y,1/2-z
1/2-x,1/2+y,z
1/2+x,1/2-y,1/2+z
loop_
_atom_site_type_symbol
_atom_site_label
_atom_site_fract_x
_atom_site_fract_y
_atom_site_fract_z
Si Si1 0.832789 0.345486 0.152476
Si Si2 0.328652 0.069050 0.750000
Si Si3 0.337488 0.325061 0.662933
Si Si4 0.164915 0.168690 0.943138
Si Si5 0.170615 0.596373 0.250000
Si Si6 0.836189 0.186415 0.052129
O O1 0.767780 0.390733 0.199765
O O2 0.802545 0.260682 0.162327
O O3 0.756093 0.372757 0.100261
O O4 0.000000 0.362024 0.145440
O O5 0.500000 0.074882 0.750000
O O6 0.274472 0.986409 0.750000
O O7 0.500000 0.337629 0.683149
O O8 0.226708 0.364839 0.699417
O O9 0.318962 0.357654 0.605405
O O10 0.216049 0.251609 0.947727
O O11 0.000000 0.166351 0.925550
O O12 0.184135 0.136263 0.001131
O O13 0.000000 0.600848 0.250000
O O14 0.000000 0.219923 0.051433
#
# Coordination Sequence:
#
# PCOD8261063 Si02
#       6
#    16   8  16  16   8  16
#     4   9  17  32  52  69  89 123 161 189 221 274
#     4   9  19  35  51  65  88 125 162 192 228 279
#     4   9  17  31  51  71  91 121 157 186 220 275
#     4   9  15  24  42  71 100 118 143 190 235 265
#     4  11  22  33  47  69  94 119 152 198 242 271
#     4   8  15  27  43  65  95 128 154 177 218 278
#
# _framework density 17.885116
#
# number of rings (size 3 to 8) (size 9 to 14) (size 15 to 20)
#    0.000    3.000    0.000    2.700    0.000    5.600 
#    0.000    2.500    0.000    1.200    0.000    8.400 
#    0.000    0.000    0.000    0.000    0.000    0.000 
#
# Total GULP energy -495563.099536 kJ/mol
# GULP energy per Si atom -12389.077488 kJ/mol
# Density = 1.784441 g / cm^3
# Si number density = 17.885116 Si / 1000 Ang^3
#
#
#
# Elastic Constant Matrix: (Units=GPa)
#
#
# Indices 1 2 3 4 5 6 
#
# 1 68.5138 27.6313 60.1585 0.0000 0.0000 0.0000
# 2 27.6313 46.8755 48.3720 0.0000 0.0000 0.0000
# 3 60.1585 48.3720 186.1009 0.0000 0.0000 0.0000
# 4 0.0000 0.0000 0.0000 0.0886 0.0000 0.0000
# 5 0.0000 0.0000 0.0000 0.0000 34.7145 0.0000
# 6 0.0000 0.0000 0.0000 0.0000 0.0000 14.0888
#
#
#
# Elastic Compliance Matrix: (Units=1/GPa)
#
#
# Indices 1 2 3 4 5 6 
#
# 1 0.022285 -0.007793 -0.005178 0.000000 0.000000 0.000000
# 2 -0.007793 0.031877 -0.005767 0.000000 0.000000 0.000000
# 3 -0.005178 -0.005767 0.008546 0.000000 0.000000 0.000000
# 4 0.000000 0.000000 0.000000 11.292612 0.000000 0.000000
# 5 0.000000 0.000000 0.000000 0.000000 0.028806 0.000000
# 6 0.000000 0.000000 0.000000 0.000000 0.000000 0.070979
#
#
# Mechanical properties :
#
#
# Convention : Reuss Voigt Hill
#
# Bulk Modulus (GPa) = 39.62983 63.75711 51.69347
# Shear Modulus (GPa) = 0.43475 20.80026 10.61750
#
# Velocity S-wave (km/s) = 0.49356 3.41397 2.43914
# Velocity P-wave (km/s) = 4.74667 7.16001 6.07440
#
# Compressibility (1/GPa) = 0.02523352
#
# Stress axis : x y z
#
# Youngs Moduli (GPa) = 44.87288 31.37034 117.01023
#
# Poissons Ratio (x) = 0.24446 0.60592
# Poissons Ratio (y) = 0.34968 0.67475
# Poissons Ratio (z) = 0.23237 0.18090
#
# Static dielectric constant tensor:
#      x y z
#    x 3.233480 0.000000 0.000000 
#    y 0.000000 2.793090 0.000000 
#    z 0.000000 0.000000 3.984160 
# 
# 
# High freq. dielectric constant tensor:
#      x y z
#    x 1.685690 0.000000 0.000000 
#    y 0.000000 1.619730 0.000000 
#    z 0.000000 0.000000 1.725880 
# 
# From -- ./inp_files/66832.got.cif
#   From: 2010.03.12/outbox.cif.g09.slc.cpg/sg63_34_cif.got.tgz:66832.got - 2010.04.10 19:34:48.
