data_PCOD8261058
_publ_section_title
;
Structure prediction by ZEFSAII (Michael W. Deem and Ramdas Pophale) SiO2 
 PCOD8261058
Probable space group: C M C M
;
_chemical_formula_sum "Si O2"
_cell_formula_units_Z 64
_cell_length_a 27.616291
_cell_length_b 9.558305
_cell_length_c 12.716726
_cell_angle_alpha 90.000000
_cell_angle_beta 90.000000
_cell_angle_gamma 90.000000
_cell_volume 3356.769718
_symmetry_space_group_name_H-M "C M C M"
_symmetry_group_IT_number 63
_symmetry_cell_setting 'orthorhombic'
loop_
_space_group_symop_operation_xyz
x,y,z
-x,-y,1/2+z
x,-y,-z
-x,y,1/2-z
-x,-y,-z
x,y,1/2-z
-x,y,z
x,-y,1/2+z
1/2+x,1/2+y,z
1/2-x,1/2-y,1/2+z
1/2+x,1/2-y,-z
1/2-x,1/2+y,1/2-z
1/2-x,1/2-y,-z
1/2+x,1/2+y,1/2-z
1/2-x,1/2+y,z
1/2+x,1/2-y,1/2+z
loop_
_atom_site_type_symbol
_atom_site_label
_atom_site_fract_x
_atom_site_fract_y
_atom_site_fract_z
Si Si1 0.423972 0.959343 0.750000
Si Si2 0.327189 0.787220 0.750000
Si Si3 0.500000 0.115716 0.416432
Si Si4 0.500000 0.363950 0.928760
Si Si5 0.075478 0.203625 0.250000
Si Si6 0.755062 0.623086 0.423571
Si Si7 0.822518 0.954259 0.750000
O O1 0.374781 0.877327 0.750000
O O2 0.451594 0.903876 0.850932
O O3 0.419345 0.128096 0.750000
O O4 0.299561 0.837841 0.648247
O O5 0.334616 0.619512 0.750000
O O6 0.500000 0.260162 0.474791
O O7 0.500000 0.000000 0.500000
O O8 0.452755 0.347061 0.854696
O O9 0.500000 0.500000 0.000000
O O10 0.128124 0.133637 0.250000
O O11 0.770494 0.500000 0.500000
O O12 0.750000 0.750000 0.500000
O O13 0.707439 0.586625 0.354709
#
# Coordination Sequence:
#
# PCOD8261058 Si02
#       7
#     8   8   8   8   8  16   8
#     4  11  25  40  68  95 127 168 211 267 308 376
#     4  11  26  42  64  99 128 162 215 263 316 375
#     4  11  21  45  65  89 128 168 217 255 309 374
#     4  11  25  43  67  92 128 174 208 259 318 377
#     4  11  25  44  62  95 133 162 213 265 318 370
#     4  11  24  45  66  89 129 172 208 257 319 376
#     4  11  26  42  64  97 132 160 211 271 310 377
#
# _framework density 19.065947000000001
#
# number of rings (size 3 to 8) (size 9 to 14) (size 15 to 20)
#    0.000    1.000    5.000    0.750    7.000    5.000 
#    0.000    0.000    0.000    0.000    0.000    0.000 
#    0.000    0.000    0.000    0.000    0.000    0.000 
#
# Total GULP energy -396559.590586 kJ/mol
# GULP energy per Si atom -12392.487206 kJ/mol
# Density = 1.902255 g / cm^3
# Si number density = 19.065947 Si / 1000 Ang^3
#
#
#
# Elastic Constant Matrix: (Units=GPa)
#
#
# Indices 1 2 3 4 5 6 
#
# 1 154.8245 76.6549 75.9060 0.0000 0.0000 0.0000
# 2 76.6549 198.8042 96.7328 0.0000 0.0000 0.0000
# 3 75.9060 96.7328 166.3786 0.0000 0.0000 0.0000
# 4 0.0000 0.0000 0.0000 50.3876 0.0000 0.0000
# 5 0.0000 0.0000 0.0000 0.0000 -5.9271 0.0000
# 6 0.0000 0.0000 0.0000 0.0000 0.0000 37.1747
#
#
#
# Elastic Compliance Matrix: (Units=1/GPa)
#
#
# Indices 1 2 3 4 5 6 
#
# 1 0.008867 -0.002023 -0.002869 0.000000 0.000000 0.000000
# 2 -0.002023 0.007476 -0.003424 0.000000 0.000000 0.000000
# 3 -0.002869 -0.003424 0.009310 0.000000 0.000000 0.000000
# 4 0.000000 0.000000 0.000000 0.019846 0.000000 0.000000
# 5 0.000000 0.000000 0.000000 0.000000 -0.168717 0.000000
# 6 0.000000 0.000000 0.000000 0.000000 0.000000 0.026900
#
#
# Mechanical properties :
#
#
# Convention : Reuss Voigt Hill
#
# Bulk Modulus (GPa) = 110.84750 113.17719 112.01235
# Shear Modulus (GPa) = -65.20653 34.37462 -15.41596
#
# Velocity S-wave (km/s) = -5.85447 4.25070 -2.84660
# Velocity P-wave (km/s) = 3.54479 9.14227 6.93349
#
# Compressibility (1/GPa) = 0.00902140
#
# Stress axis : x y z
#
# Youngs Moduli (GPa) = 112.77484 133.76325 107.41202
#
# Poissons Ratio (x) = 0.27059 0.30820
# Poissons Ratio (y) = 0.22813 0.36774
# Poissons Ratio (z) = 0.32359 0.45795
#
# Static dielectric constant tensor:
#      x y z
#    x 3.464850 0.000000 0.000000 
#    y 0.000000 3.660760 0.000000 
#    z 0.000000 0.000000 3.795720 
# 
# 
# High freq. dielectric constant tensor:
#      x y z
#    x 1.741360 0.000000 0.000000 
#    y 0.000000 1.765650 0.000000 
#    z 0.000000 0.000000 1.767870 
# 
# From -- ./inp_files/25552.got.cif
#   From: 2010.03.12/outbox.cif.g09.slc.cpg/sg63_13_cif.got.tgz:25552.got - 2010.04.10 19:34:48.
