data_PCOD8261827
_publ_section_title
;
Structure prediction by ZEFSAII (Michael W. Deem and Ramdas Pophale) SiO2 
 PCOD8261827
Probable space group: C M C A
;
_chemical_formula_sum "Si O2"
_cell_formula_units_Z 88
_cell_length_a 9.390017
_cell_length_b 24.126893
_cell_length_c 19.428165
_cell_angle_alpha 90.000000
_cell_angle_beta 90.000000
_cell_angle_gamma 90.000000
_cell_volume 4401.488383
_symmetry_space_group_name_H-M "C M C A"
_symmetry_group_IT_number 64
_symmetry_cell_setting 'orthorhombic'
loop_
_space_group_symop_operation_xyz
x,y,z
-x,1/2-y,1/2+z
x,-y,-z
-x,1/2+y,1/2-z
-x,-y,-z
x,1/2+y,1/2-z
-x,y,z
x,1/2-y,1/2+z
1/2+x,1/2+y,z
1/2-x,-y,1/2+z
1/2+x,1/2-y,-z
1/2-x,y,1/2-z
1/2-x,1/2-y,-z
1/2+x,y,1/2-z
1/2-x,1/2+y,z
1/2+x,-y,1/2+z
loop_
_atom_site_type_symbol
_atom_site_label
_atom_site_fract_x
_atom_site_fract_y
_atom_site_fract_z
Si Si1 0.669997 0.650279 0.819143
Si Si2 0.658524 0.044859 0.863413
Si Si3 0.664106 0.703024 0.960783
Si Si4 0.655206 0.392423 0.936925
Si Si5 0.836051 0.422429 0.815261
Si Si6 0.239420 0.000000 0.000000
O O1 0.500000 0.646912 0.807680
O O2 0.750000 0.671015 0.750000
O O3 0.724633 0.588972 0.838865
O O4 0.707664 0.693538 0.880724
O O5 0.500000 0.067313 0.846078
O O6 0.688516 0.987935 0.823136
O O7 0.662879 0.032294 0.944860
O O8 0.500000 0.719908 0.965337
O O9 0.750000 0.750000 0.000000
O O10 0.696998 0.645544 0.998819
O O11 0.500000 0.375513 0.906930
O O12 0.776843 0.387403 0.879663
O O13 0.640365 0.455576 0.962276
O O14 0.750000 0.400854 0.750000
O O15 0.000000 0.406872 0.806719
#
# Coordination Sequence:
#
# PCOD8261827 Si02
#       6
#    16  16  16  16  16   8
#     4  11  23  40  61  90 122 155 201 251 305 365
#     4  10  20  33  53  84 122 162 202 245 295 353
#     4  10  23  43  64  90 119 154 202 249 300 360
#     4  10  20  36  59  86 116 154 197 243 296 353
#     4  10  21  35  52  81 119 160 202 243 292 355
#     4  10  18  32  56  88 124 156 200 242 294 350
#
# _framework density 19.993238000000002
#
# number of rings (size 3 to 8) (size 9 to 14) (size 15 to 20)
#    0.000    1.818    1.818    2.182    0.000    8.000 
#    0.000    0.909    0.000    2.182    0.000    0.000 
#    0.000    0.000    0.000    0.000    0.000    0.000 
#
# Total GULP energy -545477.317001 kJ/mol
# GULP energy per Si atom -12397.211750 kJ/mol
# Density = 1.994773 g / cm^3
# Si number density = 19.993238 Si / 1000 Ang^3
#
#
#
# Elastic Constant Matrix: (Units=GPa)
#
#
# Indices 1 2 3 4 5 6 
#
# 1 129.9756 41.5108 78.8700 0.0000 0.0000 0.0000
# 2 41.5108 61.0948 40.3078 0.0000 0.0000 0.0000
# 3 78.8700 40.3078 157.3329 0.0000 0.0000 0.0000
# 4 0.0000 0.0000 0.0000 25.5747 0.0000 0.0000
# 5 0.0000 0.0000 0.0000 0.0000 35.2691 0.0000
# 6 0.0000 0.0000 0.0000 0.0000 0.0000 28.6950
#
#
#
# Elastic Compliance Matrix: (Units=1/GPa)
#
#
# Indices 1 2 3 4 5 6 
#
# 1 0.012270 -0.005149 -0.004832 0.000000 0.000000 0.000000
# 2 -0.005149 0.021858 -0.003019 0.000000 0.000000 0.000000
# 3 -0.004832 -0.003019 0.009551 0.000000 0.000000 0.000000
# 4 0.000000 0.000000 0.000000 0.039101 0.000000 0.000000
# 5 0.000000 0.000000 0.000000 0.000000 0.028353 0.000000
# 6 0.000000 0.000000 0.000000 0.000000 0.000000 0.034849
#
#
# Mechanical properties :
#
#
# Convention : Reuss Voigt Hill
#
# Bulk Modulus (GPa) = 56.55928 74.42005 65.48966
# Shear Modulus (GPa) = 28.10936 30.42207 29.26571
#
# Velocity S-wave (km/s) = 3.75366 3.90502 3.83009
# Velocity P-wave (km/s) = 6.86566 7.59182 7.23785
#
# Compressibility (1/GPa) = 0.01768056
#
# Stress axis : x y z
#
# Youngs Moduli (GPa) = 81.49802 45.74941 104.69585
#
# Poissons Ratio (x) = 0.23557 0.50587
# Poissons Ratio (y) = 0.41965 0.31605
# Poissons Ratio (z) = 0.39378 0.13810
#
# Static dielectric constant tensor:
#      x y z
#    x 3.590740 0.000000 0.000000 
#    y 0.000000 3.300520 0.000000 
#    z 0.000000 0.000000 3.837710 
# 
# 
# High freq. dielectric constant tensor:
#      x y z
#    x 1.784450 0.000000 0.000000 
#    y 0.000000 1.743250 0.000000 
#    z 0.000000 0.000000 1.791350 
# 
# From -- ./inp_files/36774.got.cif
#   From: 2010.03.12/outbox.cif.g09.slc.cpg/sg64_19_cif.got.tgz:36774.got - 2010.04.10 20:19:32.
