data_PCOD8261566
_publ_section_title
;
Structure prediction by ZEFSAII (Michael W. Deem and Ramdas Pophale) SiO2 
 PCOD8261566
Probable space group: C M C A
;
_chemical_formula_sum "Si O2"
_cell_formula_units_Z 64
_cell_length_a 12.741059
_cell_length_b 22.398593
_cell_length_c 9.891758
_cell_angle_alpha 90.000000
_cell_angle_beta 90.000000
_cell_angle_gamma 90.000000
_cell_volume 2822.927653
_symmetry_space_group_name_H-M "C M C A"
_symmetry_group_IT_number 64
_symmetry_cell_setting 'orthorhombic'
loop_
_space_group_symop_operation_xyz
x,y,z
-x,1/2-y,1/2+z
x,-y,-z
-x,1/2+y,1/2-z
-x,-y,-z
x,1/2+y,1/2-z
-x,y,z
x,1/2-y,1/2+z
1/2+x,1/2+y,z
1/2-x,-y,1/2+z
1/2+x,1/2-y,-z
1/2-x,y,1/2-z
1/2-x,1/2-y,-z
1/2+x,y,1/2-z
1/2-x,1/2+y,z
1/2+x,-y,1/2+z
loop_
_atom_site_type_symbol
_atom_site_label
_atom_site_fract_x
_atom_site_fract_y
_atom_site_fract_z
Si Si1 0.500000 0.697698 0.758753
Si Si2 0.116112 0.605273 0.587080
Si Si3 0.880232 0.515020 0.805316
Si Si4 0.178124 0.904979 0.551124
Si Si5 0.000000 0.313300 0.942208
O O1 0.396707 0.659353 0.804124
O O2 0.500000 0.709095 0.598186
O O3 0.500000 0.758965 0.839186
O O4 0.158440 0.545824 0.665436
O O5 0.203585 0.619761 0.474978
O O6 0.000000 0.593644 0.520896
O O7 0.874569 0.564256 0.922167
O O8 0.000000 0.495787 0.789620
O O9 0.814514 0.454768 0.831163
O O10 0.105082 0.849913 0.592439
#
# Coordination Sequence:
#
# PCOD8261566 Si02
#       5
#     8  16  16  16   8
#     4  10  24  41  66  93 134 182 221 267 328 394
#     4   9  20  39  61  93 136 178 205 264 347 400
#     4  10  17  33  63  99 120 168 214 261 333 406
#     4  11  18  34  69  96 125 161 223 272 324 400
#     4  12  22  40  71  97 125 177 233 275 324 382
#
# _framework density 22.671498
#
# number of rings (size 3 to 8) (size 9 to 14) (size 15 to 20)
#    0.750    1.000    5.000    1.500    0.000    1.000 
#    0.000    2.500   24.750    0.000    0.000    0.000 
#    0.000    0.000    0.000    0.000    0.000    0.000 
#
# Total GULP energy -396604.457955 kJ/mol
# GULP energy per Si atom -12393.889311 kJ/mol
# Density = 2.261990 g / cm^3
# Si number density = 22.671498 Si / 1000 Ang^3
#
#
#
# Elastic Constant Matrix: (Units=GPa)
#
#
# Indices 1 2 3 4 5 6 
#
# 1 113.1231 50.4901 42.7092 0.0000 0.0000 0.0000
# 2 50.4901 137.7742 48.0369 0.0000 0.0000 0.0000
# 3 42.7092 48.0369 44.7251 0.0000 0.0000 0.0000
# 4 0.0000 0.0000 0.0000 34.5562 0.0000 0.0000
# 5 0.0000 0.0000 0.0000 0.0000 3.3106 0.0000
# 6 0.0000 0.0000 0.0000 0.0000 0.0000 13.7468
#
#
#
# Elastic Compliance Matrix: (Units=1/GPa)
#
#
# Indices 1 2 3 4 5 6 
#
# 1 0.013871 -0.000743 -0.012448 0.000000 0.000000 0.000000
# 2 -0.000743 0.011643 -0.011796 0.000000 0.000000 0.000000
# 3 -0.012448 -0.011796 0.046915 0.000000 0.000000 0.000000
# 4 0.000000 0.000000 0.000000 0.028938 0.000000 0.000000
# 5 0.000000 0.000000 0.000000 0.000000 0.302063 0.000000
# 6 0.000000 0.000000 0.000000 0.000000 0.000000 0.072744
#
#
# Mechanical properties :
#
#
# Convention : Reuss Voigt Hill
#
# Bulk Modulus (GPa) = 44.53194 64.23277 54.38235
# Shear Modulus (GPa) = 9.36973 20.61513 14.99243
#
# Velocity S-wave (km/s) = 2.03514 3.01873 2.57435
# Velocity P-wave (km/s) = 5.02069 6.36740 5.73372
#
# Compressibility (1/GPa) = 0.02245579
#
# Stress axis : x y z
#
# Youngs Moduli (GPa) = 72.09152 85.88538 21.31535
#
# Poissons Ratio (x) = 0.06384 0.26533
# Poissons Ratio (y) = 0.05359 0.25143
# Poissons Ratio (z) = 0.89737 1.01308
#
# Static dielectric constant tensor:
#      x y z
#    x 4.030400 0.000000 0.000000 
#    y 0.000000 3.872530 0.000000 
#    z 0.000000 0.000000 3.779870 
# 
# 
# High freq. dielectric constant tensor:
#      x y z
#    x 1.908240 0.000000 0.000000 
#    y 0.000000 1.871790 0.000000 
#    z 0.000000 0.000000 1.870520 
# 
# From -- ./inp_files/5755.got.cif
#   From: 2010.03.12/outbox.cif.g09.slc.cpg/sg64_3_cif.got.tgz:5755.got - 2010.04.10 20:19:32.
