data_PCOD8261136
_publ_section_title
;
Structure prediction by ZEFSAII (Michael W. Deem and Ramdas Pophale) SiO2 
 PCOD8261136
Probable space group: C M C M
;
_chemical_formula_sum "Si O2"
_cell_formula_units_Z 112
_cell_length_a 14.606881
_cell_length_b 14.681063
_cell_length_c 26.307428
_cell_angle_alpha 90.000000
_cell_angle_beta 90.000000
_cell_angle_gamma 90.000000
_cell_volume 5641.484301
_symmetry_space_group_name_H-M "C M C M"
_symmetry_group_IT_number 63
_symmetry_cell_setting 'orthorhombic'
loop_
_space_group_symop_operation_xyz
x,y,z
-x,-y,1/2+z
x,-y,-z
-x,y,1/2-z
-x,-y,-z
x,y,1/2-z
-x,y,z
x,-y,1/2+z
1/2+x,1/2+y,z
1/2-x,1/2-y,1/2+z
1/2+x,1/2-y,-z
1/2-x,1/2+y,1/2-z
1/2-x,1/2-y,-z
1/2+x,1/2+y,1/2-z
1/2-x,1/2+y,z
1/2+x,1/2-y,1/2+z
loop_
_atom_site_type_symbol
_atom_site_label
_atom_site_fract_x
_atom_site_fract_y
_atom_site_fract_z
Si Si1 0.247659 0.034504 0.378024
Si Si2 0.897697 0.437142 0.956254
Si Si3 0.601679 0.575126 0.039333
Si Si4 0.500000 0.404234 0.310636
Si Si5 0.000000 0.885282 0.690196
Si Si6 0.196014 0.816000 0.809639
Si Si7 0.152341 0.761908 0.025126
Si Si8 0.317864 0.335593 0.137345
O O1 0.344738 0.050945 0.403889
O O2 0.168997 0.078343 0.413260
O O3 0.247100 0.090528 0.325412
O O4 0.235844 0.929526 0.366820
O O5 0.899178 0.333596 0.974843
O O6 0.000000 0.471220 0.945663
O O7 0.852088 0.500000 0.000000
O O8 0.500000 0.550080 0.059240
O O9 0.638719 0.500000 0.000000
O O10 0.595382 0.670851 0.010500
O O11 0.500000 0.399196 0.250000
O O12 0.500000 0.509605 0.330679
O O13 0.589297 0.350625 0.330811
O O14 0.089394 0.827609 0.673101
O O15 0.000000 0.896505 0.750000
O O16 0.205014 0.802243 0.750000
O O17 0.245756 0.731757 0.836386
O O18 0.156730 0.800051 0.081949
O O19 0.250000 0.750000 0.000000
#
# Coordination Sequence:
#
# PCOD8261136 Si02
#       8
#    16  16  16   8   8  16  16  16
#     4  12  23  41  66  96 128 172 219 277 330 400
#     4  11  24  42  63  86 125 177 223 266 324 400
#     4  11  23  36  61  95 133 164 201 261 332 399
#     4  11  24  42  70 105 134 168 229 292 348 409
#     4   9  20  42  70  94 128 172 216 278 344 402
#     4  11  24  44  67  96 132 173 220 276 339 401
#     4  12  22  40  62  91 131 171 213 266 332 404
#     4  12  25  39  69  99 133 174 221 279 342 404
#
# _framework density 19.852931000000002
#
# number of rings (size 3 to 8) (size 9 to 14) (size 15 to 20)
#    0.000    0.714    5.714    2.143    4.000    0.571 
#    1.286    0.000    0.000    0.000    0.000    0.000 
#    0.000    0.000    0.000    0.000    0.000    0.000 
#
# Total GULP energy -694457.523507 kJ/mol
# GULP energy per Si atom -12401.027205 kJ/mol
# Density = 1.980775 g / cm^3
# Si number density = 19.852931 Si / 1000 Ang^3
#
#
#
# Elastic Constant Matrix: (Units=GPa)
#
#
# Indices 1 2 3 4 5 6 
#
# 1 113.9271 28.7758 26.5981 0.0000 0.0000 0.0000
# 2 28.7758 143.6421 29.2302 0.0000 0.0000 0.0000
# 3 26.5981 29.2302 67.4994 0.0000 0.0000 0.0000
# 4 0.0000 0.0000 0.0000 32.6420 0.0000 0.0000
# 5 0.0000 0.0000 0.0000 0.0000 16.3049 0.0000
# 6 0.0000 0.0000 0.0000 0.0000 0.0000 62.4643
#
#
#
# Elastic Compliance Matrix: (Units=1/GPa)
#
#
# Indices 1 2 3 4 5 6 
#
# 1 0.009884 -0.001302 -0.003331 0.000000 0.000000 0.000000
# 2 -0.001302 0.007806 -0.002867 0.000000 0.000000 0.000000
# 3 -0.003331 -0.002867 0.017369 0.000000 0.000000 0.000000
# 4 0.000000 0.000000 0.000000 0.030635 0.000000 0.000000
# 5 0.000000 0.000000 0.000000 0.000000 0.061331 0.000000
# 6 0.000000 0.000000 0.000000 0.000000 0.000000 0.016009
#
#
# Mechanical properties :
#
#
# Convention : Reuss Voigt Hill
#
# Bulk Modulus (GPa) = 49.85403 54.91965 52.38684
# Shear Modulus (GPa) = 30.35416 38.31319 34.33368
#
# Velocity S-wave (km/s) = 3.91442 4.39777 4.16312
# Velocity P-wave (km/s) = 6.75252 7.31509 7.03942
#
# Compressibility (1/GPa) = 0.02005856
#
# Stress axis : x y z
#
# Youngs Moduli (GPa) = 101.17236 128.10505 57.57342
#
# Poissons Ratio (x) = 0.16683 0.19177
# Poissons Ratio (y) = 0.13175 0.16508
# Poissons Ratio (z) = 0.33699 0.36731
#
# Static dielectric constant tensor:
#      x y z
#    x 4.311240 0.000000 0.000000 
#    y 0.000000 4.227560 0.000000 
#    z 0.000000 0.000000 3.684580 
# 
# 
# High freq. dielectric constant tensor:
#      x y z
#    x 1.779970 0.000000 0.000000 
#    y 0.000000 1.782160 0.000000 
#    z 0.000000 0.000000 1.775290 
# 
# From -- ./inp_files/69458.got.cif
#   From: 2010.03.12/outbox.cif.g09.slc.cpg/sg63_35_cif.got.tgz:69458.got - 2010.04.10 19:34:48.
