data_PCOD8261866
_publ_section_title
;
Structure prediction by ZEFSAII (Michael W. Deem and Ramdas Pophale) SiO2 
 PCOD8261866
Probable space group: C M C A
;
_chemical_formula_sum "Si O2"
_cell_formula_units_Z 96
_cell_length_a 13.933216
_cell_length_b 22.807503
_cell_length_c 16.947709
_cell_angle_alpha 90.000000
_cell_angle_beta 90.000000
_cell_angle_gamma 90.000000
_cell_volume 5385.674586
_symmetry_space_group_name_H-M "C M C A"
_symmetry_group_IT_number 64
_symmetry_cell_setting 'orthorhombic'
loop_
_space_group_symop_operation_xyz
x,y,z
-x,1/2-y,1/2+z
x,-y,-z
-x,1/2+y,1/2-z
-x,-y,-z
x,1/2+y,1/2-z
-x,y,z
x,1/2-y,1/2+z
1/2+x,1/2+y,z
1/2-x,-y,1/2+z
1/2+x,1/2-y,-z
1/2-x,y,1/2-z
1/2-x,1/2-y,-z
1/2+x,y,1/2-z
1/2-x,1/2+y,z
1/2+x,-y,1/2+z
loop_
_atom_site_type_symbol
_atom_site_label
_atom_site_fract_x
_atom_site_fract_y
_atom_site_fract_z
Si Si1 0.201729 0.628357 0.672141
Si Si2 0.500000 0.190207 0.157048
Si Si3 0.177830 0.267454 0.105277
Si Si4 0.702337 0.566890 0.989617
Si Si5 0.000000 0.671333 0.645533
Si Si6 0.678338 0.670138 0.447301
Si Si7 0.500000 0.294327 0.832974
Si Si8 0.500000 0.116853 0.476950
O O1 0.250000 0.600627 0.750000
O O2 0.252719 0.689399 0.651935
O O3 0.209938 0.581355 0.602807
O O4 0.090809 0.642662 0.688595
O O5 0.500000 0.259670 0.152930
O O6 0.406159 0.163392 0.115804
O O7 0.500000 0.172271 0.249068
O O8 0.234441 0.208681 0.084537
O O9 0.090893 0.248783 0.161168
O O10 0.137739 0.299197 0.026593
O O11 0.779088 0.605831 0.036897
O O12 0.594632 0.576572 0.022289
O O13 0.732394 0.500000 0.000000
O O14 0.000000 0.659717 0.551924
O O15 0.500000 0.343309 0.899880
#
# Coordination Sequence:
#
# PCOD8261866 Si02
#       8
#    16   8  16  16   8  16   8   8
#     4  10  20  34  56  87 113 139 186 235 281 324
#     4  12  22  32  51  81 122 152 172 222 285 338
#     4  10  19  33  55  80 113 146 177 225 280 348
#     4  10  21  39  61  79 106 152 195 232 275 327
#     4  10  18  33  58  80 113 147 175 224 283 345
#     4  10  20  35  55  79 110 148 188 223 277 343
#     4  12  22  31  52  87 121 145 177 222 285 347
#     4  10  19  36  58  84 106 138 190 236 280 332
#
# _framework density 17.825064999999999
#
# number of rings (size 3 to 8) (size 9 to 14) (size 15 to 20)
#    0.000    1.667    3.333    2.750    0.000    0.000 
#    0.000    2.917    0.000    0.000    0.000    0.000 
#    0.000    0.000    0.000    0.000    0.000    0.000 
#
# Total GULP energy -595354.597919 kJ/mol
# GULP energy per Si atom -12403.220790 kJ/mol
# Density = 1.778449 g / cm^3
# Si number density = 17.825065 Si / 1000 Ang^3
#
#
#
# Elastic Constant Matrix: (Units=GPa)
#
#
# Indices 1 2 3 4 5 6 
#
# 1 122.1791 47.9577 67.6771 0.0000 0.0000 0.0000
# 2 47.9577 113.9282 36.9392 0.0000 0.0000 0.0000
# 3 67.6771 36.9392 109.5763 0.0000 0.0000 0.0000
# 4 0.0000 0.0000 0.0000 12.9072 0.0000 0.0000
# 5 0.0000 0.0000 0.0000 0.0000 22.9387 0.0000
# 6 0.0000 0.0000 0.0000 0.0000 0.0000 11.9041
#
#
#
# Elastic Compliance Matrix: (Units=1/GPa)
#
#
# Indices 1 2 3 4 5 6 
#
# 1 0.013486 -0.003342 -0.007203 0.000000 0.000000 0.000000
# 2 -0.003342 0.010683 -0.001537 0.000000 0.000000 0.000000
# 3 -0.007203 -0.001537 0.014093 0.000000 0.000000 0.000000
# 4 0.000000 0.000000 0.000000 0.077476 0.000000 0.000000
# 5 0.000000 0.000000 0.000000 0.000000 0.043594 0.000000
# 6 0.000000 0.000000 0.000000 0.000000 0.000000 0.084004
#
#
# Mechanical properties :
#
#
# Convention : Reuss Voigt Hill
#
# Bulk Modulus (GPa) = 70.93172 72.31462 71.62317
# Shear Modulus (GPa) = 18.36885 22.42397 20.39641
#
# Velocity S-wave (km/s) = 3.21363 3.55068 3.38635
# Velocity P-wave (km/s) = 7.32459 7.58069 7.45374
#
# Compressibility (1/GPa) = 0.01409806
#
# Stress axis : x y z
#
# Youngs Moduli (GPa) = 74.15012 93.61077 70.95707
#
# Poissons Ratio (x) = 0.31280 0.51110
# Poissons Ratio (y) = 0.24778 0.10909
# Poissons Ratio (z) = 0.53410 0.14391
#
# Static dielectric constant tensor:
#      x y z
#    x 3.447580 0.000000 0.000000 
#    y 0.000000 2.956470 0.000000 
#    z 0.000000 0.000000 3.434940 
# 
# 
# High freq. dielectric constant tensor:
#      x y z
#    x 1.700960 0.000000 0.000000 
#    y 0.000000 1.657340 0.000000 
#    z 0.000000 0.000000 1.690320 
# 
# From -- ./inp_files/24016.got.cif
#   From: 2010.03.12/outbox.cif.g09.slc.cpg/sg64_13_cif.got.tgz:24016.got - 2010.04.10 20:19:32.
