data_PCOD8261130
_publ_section_title
;
Structure prediction by ZEFSAII (Michael W. Deem and Ramdas Pophale) SiO2 
 PCOD8261130
Probable space group: C M C M
;
_chemical_formula_sum "Si O2"
_cell_formula_units_Z 80
_cell_length_a 9.201699
_cell_length_b 27.585942
_cell_length_c 17.896948
_cell_angle_alpha 90.000000
_cell_angle_beta 90.000000
_cell_angle_gamma 90.000000
_cell_volume 4542.917163
_symmetry_space_group_name_H-M "C M C M"
_symmetry_group_IT_number 63
_symmetry_cell_setting 'orthorhombic'
loop_
_space_group_symop_operation_xyz
x,y,z
-x,-y,1/2+z
x,-y,-z
-x,y,1/2-z
-x,-y,-z
x,y,1/2-z
-x,y,z
x,-y,1/2+z
1/2+x,1/2+y,z
1/2-x,1/2-y,1/2+z
1/2+x,1/2-y,-z
1/2-x,1/2+y,1/2-z
1/2-x,1/2-y,-z
1/2+x,1/2+y,1/2-z
1/2-x,1/2+y,z
1/2+x,1/2-y,1/2+z
loop_
_atom_site_type_symbol
_atom_site_label
_atom_site_fract_x
_atom_site_fract_y
_atom_site_fract_z
Si Si1 0.167033 0.396682 0.556034
Si Si2 0.328872 0.798305 0.023476
Si Si3 0.827279 0.349882 0.168097
Si Si4 0.171740 0.039324 0.336249
Si Si5 0.331655 0.948541 0.402035
O O1 0.211633 0.342405 0.531709
O O2 0.266108 0.411779 0.626094
O O3 0.190726 0.434462 0.488397
O O4 0.000000 0.397746 0.581351
O O5 0.500000 0.789177 0.023361
O O6 0.271266 0.811703 0.106643
O O7 0.250000 0.750000 0.000000
O O8 0.768466 0.334947 0.250000
O O9 0.775563 0.404128 0.148975
O O10 0.000000 0.350274 0.164911
O O11 0.220678 0.037638 0.250000
O O12 0.000000 0.039283 0.344065
O O13 0.234893 0.994123 0.381355
O O14 0.500000 0.960997 0.386358
#
# Coordination Sequence:
#
# PCOD8261130 Si02
#       5
#    16  16  16  16  16
#     4   9  19  35  53  73  96 126 167 205 237 288
#     4   9  18  33  53  75  97 123 158 199 242 289
#     4   8  14  27  49  75  98 121 154 195 237 284
#     4  11  23  34  45  69 104 136 166 200 240 286
#     4   9  17  31  53  76  96 124 163 201 239 289
#
# _framework density 17.609829000000001
#
# number of rings (size 3 to 8) (size 9 to 14) (size 15 to 20)
#    0.000    2.800    0.000    4.200    0.000    6.400 
#    0.000    4.000    0.000    5.400    0.000    0.000 
#    0.000    0.000    0.000    0.000    0.000    0.000 
#
# Total GULP energy -495887.233898 kJ/mol
# GULP energy per Si atom -12397.180847 kJ/mol
# Density = 1.756975 g / cm^3
# Si number density = 17.609829 Si / 1000 Ang^3
#
#
#
# Elastic Constant Matrix: (Units=GPa)
#
#
# Indices 1 2 3 4 5 6 
#
# 1 53.9220 45.1334 40.2072 0.0000 0.0000 0.0000
# 2 45.1334 121.6248 60.9189 0.0000 0.0000 0.0000
# 3 40.2072 60.9189 89.7081 0.0000 0.0000 0.0000
# 4 0.0000 0.0000 0.0000 18.1223 0.0000 0.0000
# 5 0.0000 0.0000 0.0000 0.0000 25.2061 0.0000
# 6 0.0000 0.0000 0.0000 0.0000 0.0000 32.2666
#
#
#
# Elastic Compliance Matrix: (Units=1/GPa)
#
#
# Indices 1 2 3 4 5 6 
#
# 1 0.031309 -0.006955 -0.009309 0.000000 0.000000 0.000000
# 2 -0.006955 0.014005 -0.006393 0.000000 0.000000 0.000000
# 3 -0.009309 -0.006393 0.019661 0.000000 0.000000 0.000000
# 4 0.000000 0.000000 0.000000 0.055181 0.000000 0.000000
# 5 0.000000 0.000000 0.000000 0.000000 0.039673 0.000000
# 6 0.000000 0.000000 0.000000 0.000000 0.000000 0.030992
#
#
# Mechanical properties :
#
#
# Convention : Reuss Voigt Hill
#
# Bulk Modulus (GPa) = 50.86678 61.97490 56.42084
# Shear Modulus (GPa) = 20.60244 23.05201 21.82722
#
# Velocity S-wave (km/s) = 3.42415 3.62199 3.52446
# Velocity P-wave (km/s) = 6.67692 7.26371 6.97649
#
# Compressibility (1/GPa) = 0.01965919
#
# Stress axis : x y z
#
# Youngs Moduli (GPa) = 31.94013 71.40134 50.86150
#
# Poissons Ratio (x) = 0.49663 0.47348
# Poissons Ratio (y) = 0.22216 0.32517
# Poissons Ratio (z) = 0.29734 0.45649
#
# Static dielectric constant tensor:
#      x y z
#    x 2.976430 0.000000 0.000000 
#    y 0.000000 3.176280 0.000000 
#    z 0.000000 0.000000 3.556300 
# 
# 
# High freq. dielectric constant tensor:
#      x y z
#    x 1.654550 0.000000 0.000000 
#    y 0.000000 1.673360 0.000000 
#    z 0.000000 0.000000 1.685720 
# 
# From -- ./inp_files/40468.got.cif
#   From: 2010.03.12/outbox.cif.g09.slc.cpg/sg63_21_cif.got.tgz:40468.got - 2010.04.10 19:34:48.
