data_PCOD8261198
_publ_section_title
;
Structure prediction by ZEFSAII (Michael W. Deem and Ramdas Pophale) SiO2 
 PCOD8261198
Probable space group: C M C M
;
_chemical_formula_sum "Si O2"
_cell_formula_units_Z 48
_cell_length_a 8.825978
_cell_length_b 22.308535
_cell_length_c 12.614441
_cell_angle_alpha 90.000000
_cell_angle_beta 90.000000
_cell_angle_gamma 90.000000
_cell_volume 2483.715808
_symmetry_space_group_name_H-M "C M C M"
_symmetry_group_IT_number 63
_symmetry_cell_setting 'orthorhombic'
loop_
_space_group_symop_operation_xyz
x,y,z
-x,-y,1/2+z
x,-y,-z
-x,y,1/2-z
-x,-y,-z
x,y,1/2-z
-x,y,z
x,-y,1/2+z
1/2+x,1/2+y,z
1/2-x,1/2-y,1/2+z
1/2+x,1/2-y,-z
1/2-x,1/2+y,1/2-z
1/2-x,1/2-y,-z
1/2+x,1/2+y,1/2-z
1/2-x,1/2+y,z
1/2+x,1/2-y,1/2+z
loop_
_atom_site_type_symbol
_atom_site_label
_atom_site_fract_x
_atom_site_fract_y
_atom_site_fract_z
Si Si1 0.680924 0.140639 0.250000
Si Si2 0.329556 0.592926 0.866476
Si Si3 0.677503 0.995887 0.750000
Si Si4 0.181324 0.812104 0.536402
O O1 0.500000 0.146412 0.250000
O O2 0.750862 0.173395 0.149780
O O3 0.736761 0.071892 0.250000
O O4 0.325360 0.625098 0.750000
O O5 0.500000 0.575791 0.898598
O O6 0.236957 0.530232 0.856213
O O7 0.260263 0.637231 0.953902
O O8 0.500000 0.997626 0.750000
O O9 0.250000 0.750000 0.500000
O O10 0.000000 0.808458 0.539271
#
# Coordination Sequence:
#
# PCOD8261198 Si02
#       4
#     8  16   8  16
#     4  11  25  42  59  88 125 158 198 249 298 353
#     4   8  18  38  61  85 116 154 193 239 298 359
#     4   9  19  36  61  90 119 154 198 247 296 351
#     4  11  24  41  63  89 120 160 202 248 301 360
#
# _framework density 19.325883000000001
#
# number of rings (size 3 to 8) (size 9 to 14) (size 15 to 20)
#    1.000    1.333    0.000    1.500    2.333    6.667 
#    0.000    6.667    0.000    0.000    0.000    0.000 
#    0.000    0.000    0.000    0.000    0.000    0.000 
#
# Total GULP energy -297433.608324 kJ/mol
# GULP energy per Si atom -12393.067013 kJ/mol
# Density = 1.928190 g / cm^3
# Si number density = 19.325883 Si / 1000 Ang^3
#
#
#
# Elastic Constant Matrix: (Units=GPa)
#
#
# Indices 1 2 3 4 5 6 
#
# 1 74.8330 59.5724 44.5737 0.0000 0.0000 0.0000
# 2 59.5724 167.3380 83.2686 0.0000 0.0000 0.0000
# 3 44.5737 83.2686 137.9003 0.0000 0.0000 0.0000
# 4 0.0000 0.0000 0.0000 44.4013 0.0000 0.0000
# 5 0.0000 0.0000 0.0000 0.0000 26.9497 0.0000
# 6 0.0000 0.0000 0.0000 0.0000 0.0000 33.5654
#
#
#
# Elastic Compliance Matrix: (Units=1/GPa)
#
#
# Indices 1 2 3 4 5 6 
#
# 1 0.019488 -0.005437 -0.003016 0.000000 0.000000 0.000000
# 2 -0.005437 0.010060 -0.004317 0.000000 0.000000 0.000000
# 3 -0.003016 -0.004317 0.010833 0.000000 0.000000 0.000000
# 4 0.000000 0.000000 0.000000 0.022522 0.000000 0.000000
# 5 0.000000 0.000000 0.000000 0.000000 0.037106 0.000000
# 6 0.000000 0.000000 0.000000 0.000000 0.000000 0.029793
#
#
# Mechanical properties :
#
#
# Convention : Reuss Voigt Hill
#
# Bulk Modulus (GPa) = 67.38198 83.87787 75.62992
# Shear Modulus (GPa) = 31.19389 33.82704 32.51047
#
# Velocity S-wave (km/s) = 4.02194 4.18826 4.10594
# Velocity P-wave (km/s) = 7.51731 8.17831 7.85476
#
# Compressibility (1/GPa) = 0.01484076
#
# Stress axis : x y z
#
# Youngs Moduli (GPa) = 51.31448 99.40778 92.30850
#
# Poissons Ratio (x) = 0.54046 0.27841
# Poissons Ratio (y) = 0.27899 0.39849
# Poissons Ratio (z) = 0.15477 0.42914
#
# Static dielectric constant tensor:
#      x y z
#    x 3.500560 0.000000 0.000000 
#    y 0.000000 3.666460 0.000000 
#    z 0.000000 0.000000 3.429400 
# 
# 
# High freq. dielectric constant tensor:
#      x y z
#    x 1.753930 0.000000 0.000000 
#    y 0.000000 1.750750 0.000000 
#    z 0.000000 0.000000 1.750970 
# 
# From -- ./inp_files/15690.got.cif
#   From: 2010.03.12/outbox.cif.g09.slc.cpg/sg63_8_cif.got.tgz:15690.got - 2010.04.10 19:34:48.
