data_PCOD8261461
_publ_section_title
;
Structure prediction by ZEFSAII (Michael W. Deem and Ramdas Pophale) SiO2 
 PCOD8261461
Probable space group: C M C A
;
_chemical_formula_sum "Si O2"
_cell_formula_units_Z 96
_cell_length_a 8.821839
_cell_length_b 30.676508
_cell_length_c 19.862959
_cell_angle_alpha 90.000000
_cell_angle_beta 90.000000
_cell_angle_gamma 90.000000
_cell_volume 5375.377817
_symmetry_space_group_name_H-M "C M C A"
_symmetry_group_IT_number 64
_symmetry_cell_setting 'orthorhombic'
loop_
_space_group_symop_operation_xyz
x,y,z
-x,1/2-y,1/2+z
x,-y,-z
-x,1/2+y,1/2-z
-x,-y,-z
x,1/2+y,1/2-z
-x,y,z
x,1/2-y,1/2+z
1/2+x,1/2+y,z
1/2-x,-y,1/2+z
1/2+x,1/2-y,-z
1/2-x,y,1/2-z
1/2-x,1/2-y,-z
1/2+x,y,1/2-z
1/2-x,1/2+y,z
1/2+x,-y,1/2+z
loop_
_atom_site_type_symbol
_atom_site_label
_atom_site_fract_x
_atom_site_fract_y
_atom_site_fract_z
Si Si1 0.678537 0.631365 0.322551
Si Si2 0.680247 0.455645 0.824546
Si Si3 0.323749 0.698800 0.928607
Si Si4 0.824462 0.798694 0.566521
Si Si5 0.676413 0.460195 0.322579
Si Si6 0.824275 0.864149 0.322549
O O1 0.500000 0.623807 0.314348
O O2 0.750000 0.641154 0.250000
O O3 0.753494 0.588500 0.357590
O O4 0.717488 0.672229 0.369372
O O5 0.500000 0.454392 0.824032
O O6 0.750000 0.456815 0.750000
O O7 0.739778 0.499848 0.862254
O O8 0.500000 0.689405 0.921569
O O9 0.282214 0.749164 0.915198
O O10 0.238551 0.671145 0.873192
O O11 0.271202 0.684712 0.002917
O O12 0.000000 0.802908 0.546904
O O13 0.500000 0.471744 0.316419
O O14 0.750000 0.456700 0.250000
O O15 0.702583 0.412487 0.355349
O O16 0.750000 0.858664 0.250000
O O17 0.000000 0.855576 0.311559
#
# Coordination Sequence:
#
# PCOD8261461 Si02
#       6
#    16  16  16  16  16  16
#     4  10  19  32  50  73 102 131 164 205 247 291
#     4  10  17  26  43  68  98 129 162 199 242 290
#     4  10  20  35  55  76  99 130 168 207 250 300
#     4   9  20  37  54  73  98 132 170 205 246 299
#     4   9  16  27  44  67  96 130 164 198 240 288
#     4  10  20  33  51  76 105 134 167 207 249 294
#
# _framework density 17.859209
#
# number of rings (size 3 to 8) (size 9 to 14) (size 15 to 20)
#    0.000    2.333    0.000    5.500    0.000    4.667 
#    0.000    1.667    0.000    1.000    0.000    7.000 
#    0.000    0.000    0.000    0.000    0.000    0.000 
#
# Total GULP energy -594933.803301 kJ/mol
# GULP energy per Si atom -12394.454235 kJ/mol
# Density = 1.781856 g / cm^3
# Si number density = 17.859209 Si / 1000 Ang^3
#
#
#
# Elastic Constant Matrix: (Units=GPa)
#
#
# Indices 1 2 3 4 5 6 
#
# 1 127.8853 71.2333 49.5161 0.0000 0.0000 0.0000
# 2 71.2333 134.5487 67.6622 0.0000 0.0000 0.0000
# 3 49.5161 67.6622 71.9185 0.0000 0.0000 0.0000
# 4 0.0000 0.0000 0.0000 0.4337 0.0000 0.0000
# 5 0.0000 0.0000 0.0000 0.0000 26.3064 0.0000
# 6 0.0000 0.0000 0.0000 0.0000 0.0000 30.2042
#
#
#
# Elastic Compliance Matrix: (Units=1/GPa)
#
#
# Indices 1 2 3 4 5 6 
#
# 1 0.011734 -0.004080 -0.004241 0.000000 0.000000 0.000000
# 2 -0.004080 0.015525 -0.011797 0.000000 0.000000 0.000000
# 3 -0.004241 -0.011797 0.027923 0.000000 0.000000 0.000000
# 4 0.000000 0.000000 0.000000 2.305636 0.000000 0.000000
# 5 0.000000 0.000000 0.000000 0.000000 0.038014 0.000000
# 6 0.000000 0.000000 0.000000 0.000000 0.000000 0.033108
#
#
# Mechanical properties :
#
#
# Convention : Reuss Voigt Hill
#
# Bulk Modulus (GPa) = 66.90250 79.01951 72.96101
# Shear Modulus (GPa) = 2.01844 21.11827 11.56836
#
# Velocity S-wave (km/s) = 1.06426 3.44246 2.54786
# Velocity P-wave (km/s) = 6.24921 7.75516 7.04256
#
# Compressibility (1/GPa) = 0.01494712
#
# Stress axis : x y z
#
# Youngs Moduli (GPa) = 85.22381 64.41374 35.81269
#
# Poissons Ratio (x) = 0.26279 0.15186
# Poissons Ratio (y) = 0.34768 0.42248
# Poissons Ratio (z) = 0.36139 0.75989
#
# Static dielectric constant tensor:
#      x y z
#    x 3.473480 0.000000 0.000000 
#    y 0.000000 4.283250 0.000000 
#    z 0.000000 0.000000 2.924710 
# 
# 
# High freq. dielectric constant tensor:
#      x y z
#    x 1.709700 0.000000 0.000000 
#    y 0.000000 1.713900 0.000000 
#    z 0.000000 0.000000 1.638200 
# 
# From -- ./inp_files/36945.got.cif
#   From: 2010.03.12/outbox.cif.g09.slc.cpg/sg64_19_cif.got.tgz:36945.got - 2010.04.10 20:19:32.
