data_PCOD8261985
_publ_section_title
;
Structure prediction by ZEFSAII (Michael W. Deem and Ramdas Pophale) SiO2 
 PCOD8261985
Probable space group: C M C A
;
_chemical_formula_sum "Si O2"
_cell_formula_units_Z 96
_cell_length_a 9.180568
_cell_length_b 25.121721
_cell_length_c 23.737461
_cell_angle_alpha 90.000000
_cell_angle_beta 90.000000
_cell_angle_gamma 90.000000
_cell_volume 5474.610223
_symmetry_space_group_name_H-M "C M C A"
_symmetry_group_IT_number 64
_symmetry_cell_setting 'orthorhombic'
loop_
_space_group_symop_operation_xyz
x,y,z
-x,1/2-y,1/2+z
x,-y,-z
-x,1/2+y,1/2-z
-x,-y,-z
x,1/2+y,1/2-z
-x,y,z
x,1/2-y,1/2+z
1/2+x,1/2+y,z
1/2-x,-y,1/2+z
1/2+x,1/2-y,-z
1/2-x,y,1/2-z
1/2-x,1/2-y,-z
1/2+x,y,1/2-z
1/2-x,1/2+y,z
1/2+x,-y,1/2+z
loop_
_atom_site_type_symbol
_atom_site_label
_atom_site_fract_x
_atom_site_fract_y
_atom_site_fract_z
Si Si1 0.672619 0.901655 0.879979
Si Si2 0.168709 0.000202 0.307679
Si Si3 0.826724 0.940099 0.501575
Si Si4 0.830402 0.805464 0.693664
Si Si5 0.828780 0.183760 0.807582
Si Si6 0.168932 0.897491 0.382882
O O1 0.500000 0.907148 0.882716
O O2 0.732383 0.947197 0.838002
O O3 0.735183 0.910164 0.942955
O O4 0.721079 0.843715 0.857280
O O5 0.250000 0.989075 0.250000
O O6 0.000000 0.007307 0.293470
O O7 0.196632 0.951094 0.348699
O O8 0.777548 0.907197 0.446734
O O9 0.000000 0.943572 0.502696
O O10 0.762964 0.000000 0.500000
O O11 0.750000 0.823726 0.750000
O O12 0.792400 0.744945 0.677638
O O13 0.000000 0.812722 0.705726
O O14 0.750000 0.166246 0.750000
O O15 0.767497 0.149703 0.858951
O O16 0.000000 0.173786 0.800037
O O17 0.000000 0.880464 0.380141
#
# Coordination Sequence:
#
# PCOD8261985 Si02
#       6
#    16  16  16  16  16  16
#     4   9  16  29  49  72  97 124 160 204 244 284
#     4  10  19  29  45  71  99 123 152 196 247 293
#     4   9  15  28  50  74  98 128 166 204 238 283
#     4   9  18  32  51  73  97 128 163 201 247 293
#     4  10  20  34  51  71  98 131 165 201 243 292
#     4  10  19  31  50  75  99 127 164 202 243 288
#
# _framework density 17.535495999999998
#
# number of rings (size 3 to 8) (size 9 to 14) (size 15 to 20)
#    0.000    2.500    1.667    1.500    0.000    2.667 
#    0.000    0.833    0.000    2.500    0.000    0.000 
#    0.000    0.000    0.000    0.000    0.000    0.000 
#
# Total GULP energy -595179.759854 kJ/mol
# GULP energy per Si atom -12399.578330 kJ/mol
# Density = 1.749558 g / cm^3
# Si number density = 17.535496 Si / 1000 Ang^3
#
#
#
# Elastic Constant Matrix: (Units=GPa)
#
#
# Indices 1 2 3 4 5 6 
#
# 1 39.6424 35.9140 42.9320 0.0000 0.0000 0.0000
# 2 35.9140 100.3937 62.1312 0.0000 0.0000 0.0000
# 3 42.9320 62.1312 136.6471 0.0000 0.0000 0.0000
# 4 0.0000 0.0000 0.0000 27.9836 0.0000 0.0000
# 5 0.0000 0.0000 0.0000 0.0000 20.2088 0.0000
# 6 0.0000 0.0000 0.0000 0.0000 0.0000 16.3592
#
#
#
# Elastic Compliance Matrix: (Units=1/GPa)
#
#
# Indices 1 2 3 4 5 6 
#
# 1 0.044586 -0.010131 -0.009401 0.000000 0.000000 0.000000
# 2 -0.010131 0.016163 -0.004166 0.000000 0.000000 0.000000
# 3 -0.009401 -0.004166 0.012166 0.000000 0.000000 0.000000
# 4 0.000000 0.000000 0.000000 0.035735 0.000000 0.000000
# 5 0.000000 0.000000 0.000000 0.000000 0.049483 0.000000
# 6 0.000000 0.000000 0.000000 0.000000 0.000000 0.061128
#
#
# Mechanical properties :
#
#
# Convention : Reuss Voigt Hill
#
# Bulk Modulus (GPa) = 39.18909 62.07084 50.62997
# Shear Modulus (GPa) = 18.17091 21.95740 20.06415
#
# Velocity S-wave (km/s) = 3.22255 3.54244 3.38628
# Velocity P-wave (km/s) = 6.02025 7.22537 6.65016
#
# Compressibility (1/GPa) = 0.02551731
#
# Stress axis : x y z
#
# Youngs Moduli (GPa) = 22.42878 61.86805 82.19532
#
# Poissons Ratio (x) = 0.62681 0.77275
# Poissons Ratio (y) = 0.22723 0.34244
# Poissons Ratio (z) = 0.21086 0.25775
#
# Static dielectric constant tensor:
#      x y z
#    x 2.924950 0.000000 0.000000 
#    y 0.000000 3.359500 0.000000 
#    z 0.000000 0.000000 3.502520 
# 
# 
# High freq. dielectric constant tensor:
#      x y z
#    x 1.640470 0.000000 0.000000 
#    y 0.000000 1.681490 0.000000 
#    z 0.000000 0.000000 1.681980 
# 
# From -- ./inp_files/36952.got.cif
#   From: 2010.03.12/outbox.cif.g09.slc.cpg/sg64_19_cif.got.tgz:36952.got - 2010.04.10 20:19:32.
