data_PCOD8261246
_publ_section_title
;
Structure prediction by ZEFSAII (Michael W. Deem and Ramdas Pophale) SiO2 
 PCOD8261246
Probable space group: C M C M
;
_chemical_formula_sum "Si O2"
_cell_formula_units_Z 72
_cell_length_a 27.154621
_cell_length_b 5.128335
_cell_length_c 24.454474
_cell_angle_alpha 90.000000
_cell_angle_beta 90.000000
_cell_angle_gamma 90.000000
_cell_volume 3405.480976
_symmetry_space_group_name_H-M "C M C M"
_symmetry_group_IT_number 63
_symmetry_cell_setting 'orthorhombic'
loop_
_space_group_symop_operation_xyz
x,y,z
-x,-y,1/2+z
x,-y,-z
-x,y,1/2-z
-x,-y,-z
x,y,1/2-z
-x,y,z
x,-y,1/2+z
1/2+x,1/2+y,z
1/2-x,1/2-y,1/2+z
1/2+x,1/2-y,-z
1/2-x,1/2+y,1/2-z
1/2-x,1/2-y,-z
1/2+x,1/2+y,1/2-z
1/2-x,1/2+y,z
1/2+x,1/2-y,1/2+z
loop_
_atom_site_type_symbol
_atom_site_label
_atom_site_fract_x
_atom_site_fract_y
_atom_site_fract_z
Si Si1 0.855737 0.822890 0.849585
Si Si2 0.601246 0.827768 0.809578
Si Si3 0.500000 0.687788 0.654944
Si Si4 0.391879 0.246987 0.964596
Si Si5 0.782112 0.199075 0.250000
Si Si6 0.500000 0.188801 0.584515
O O1 0.898885 0.624281 0.830640
O O2 0.852394 0.757988 0.914020
O O3 0.811130 0.760661 0.807748
O O4 0.869166 0.127800 0.847895
O O5 0.625927 0.807971 0.750000
O O6 0.545795 0.732639 0.805850
O O7 0.500000 0.393161 0.633905
O O8 0.500000 0.889374 0.604288
O O9 0.449861 0.233389 0.949426
O O10 0.382625 0.500000 0.000000
O O11 0.376423 0.000000 0.000000
O O12 0.738774 0.408149 0.250000
#
# Coordination Sequence:
#
# PCOD8261246 Si02
#       6
#    16  16   8  16   8   8
#     4  12  24  44  68  97 134 166 218 272 333 410
#     4  12  21  38  60  92 134 181 216 266 326 381
#     4  12  21  35  56  89 134 187 222 274 310 368
#     4  12  24  41  64  92 136 189 228 273 312 362
#     4  12  26  48  78 105 126 157 202 280 366 422
#     4  12  22  39  57  89 134 184 252 271 298 340
#
# _framework density 21.142388
#
# number of rings (size 3 to 8) (size 9 to 14) (size 15 to 20)
#    0.000    0.000    6.667    5.000    0.000    0.000 
#    0.000    3.333    0.000    4.000    0.000    0.000 
#    0.000    0.000    0.000    0.000    0.000    0.000 
#
# Total GULP energy -446069.242959 kJ/mol
# GULP energy per Si atom -12390.812304 kJ/mol
# Density = 2.109427 g / cm^3
# Si number density = 21.142388 Si / 1000 Ang^3
#
#
#
# Elastic Constant Matrix: (Units=GPa)
#
#
# Indices 1 2 3 4 5 6 
#
# 1 56.5007 10.0866 39.1629 0.0000 0.0000 0.0000
# 2 10.0866 119.6487 43.5225 0.0000 0.0000 0.0000
# 3 39.1629 43.5225 156.5774 0.0000 0.0000 0.0000
# 4 0.0000 0.0000 0.0000 39.1354 0.0000 0.0000
# 5 0.0000 0.0000 0.0000 0.0000 26.7864 0.0000
# 6 0.0000 0.0000 0.0000 0.0000 0.0000 18.7649
#
#
#
# Elastic Compliance Matrix: (Units=1/GPa)
#
#
# Indices 1 2 3 4 5 6 
#
# 1 0.021414 0.000159 -0.005400 0.000000 0.000000 0.000000
# 2 0.000159 0.009299 -0.002625 0.000000 0.000000 0.000000
# 3 -0.005400 -0.002625 0.008467 0.000000 0.000000 0.000000
# 4 0.000000 0.000000 0.000000 0.025552 0.000000 0.000000
# 5 0.000000 0.000000 0.000000 0.000000 0.037332 0.000000
# 6 0.000000 0.000000 0.000000 0.000000 0.000000 0.053291
#
#
# Mechanical properties :
#
#
# Convention : Reuss Voigt Hill
#
# Bulk Modulus (GPa) = 42.64717 57.58566 50.11641
# Shear Modulus (GPa) = 27.94818 32.93433 30.44125
#
# Velocity S-wave (km/s) = 3.63974 3.95110 3.79861
# Velocity P-wave (km/s) = 6.15458 6.93622 6.55706
#
# Compressibility (1/GPa) = 0.02344821
#
# Stress axis : x y z
#
# Youngs Moduli (GPa) = 46.69940 107.53747 118.10797
#
# Poissons Ratio (x) = -0.01711 0.63780
# Poissons Ratio (y) = -0.00743 0.30998
# Poissons Ratio (z) = 0.25218 0.28224
#
# Static dielectric constant tensor:
#      x y z
#    x 3.563180 0.000000 0.000000 
#    y 0.000000 4.048200 0.000000 
#    z 0.000000 0.000000 3.933970 
# 
# 
# High freq. dielectric constant tensor:
#      x y z
#    x 1.784210 0.000000 0.000000 
#    y 0.000000 1.857660 0.000000 
#    z 0.000000 0.000000 1.834420 
# 
# From -- ./inp_files/65611.got.cif
#   From: 2010.03.12/outbox.cif.g09.slc.cpg/sg63_33_cif.got.tgz:65611.got - 2010.04.10 19:34:48.
