data_PCOD8261371
_publ_section_title
;
Structure prediction by ZEFSAII (Michael W. Deem and Ramdas Pophale) SiO2 
 PCOD8261371
Probable space group: C M C M
;
_chemical_formula_sum "Si O2"
_cell_formula_units_Z 44
_cell_length_a 18.000000
_cell_length_b 12.000000
_cell_length_c 21.000000
_cell_angle_alpha 90.000000
_cell_angle_beta 90.000000
_cell_angle_gamma 90.000000
_cell_volume 4536.000000
_symmetry_space_group_name_H-M "C M C M"
_symmetry_group_IT_number 63
_symmetry_cell_setting 'orthorhombic'
loop_
_space_group_symop_operation_xyz
x,y,z
-x,-y,1/2+z
x,-y,-z
-x,y,1/2-z
-x,-y,-z
x,y,1/2-z
-x,y,z
x,-y,1/2+z
1/2+x,1/2+y,z
1/2-x,1/2-y,1/2+z
1/2+x,1/2-y,-z
1/2-x,1/2+y,1/2-z
1/2-x,1/2-y,-z
1/2+x,1/2+y,1/2-z
1/2-x,1/2+y,z
1/2+x,1/2-y,1/2+z
loop_
_atom_site_type_symbol
_atom_site_label
_atom_site_fract_x
_atom_site_fract_y
_atom_site_fract_z
Si Si1 0.788250 0.547394 0.821231
Si Si2 0.000000 0.129111 0.821695
Si Si3 0.685992 0.500000 0.500000
Si Si4 0.000000 0.133234 0.177534
Si Si5 0.851582 0.777855 0.821844
Si Si6 0.224118 0.638433 0.089807
Si Si7 0.147846 0.856708 0.109984
O O1 0.783061 0.496891 0.750000
O O2 0.848547 0.645028 0.822975
O O3 0.819228 0.460702 0.873531
O O4 0.707348 0.596875 0.839684
O O5 0.072540 0.176172 0.855515
O O6 0.000000 0.173236 0.750000
O O7 0.000000 0.997810 0.826464
O O8 0.740587 0.401982 0.523876
O O9 0.634690 0.449974 0.444377
O O10 0.072717 0.182906 0.143733
O O11 0.000000 0.176526 0.250000
O O12 0.847121 0.824854 0.750000
O O13 0.786314 0.834309 0.859168
O O14 0.173067 0.743476 0.075209
#
# Coordination Sequence:
#
# PCOD8261371 Si02
#       7
#    16   8   8   8  16  16  16
#     4   9  17  30  50  75 100 132 175 216 258 312
#     4  11  22  35  54  81 110 135 161 206 269 326
#     4  10  20  35  56  75  98 136 184 224 252 297
#     4   9  16  28  46  70 102 132 160 200 249 303
#     4   9  17  29  48  74 102 134 172 215 265 315
#     4  10  19  33  53  75 102 136 175 221 263 303
#     4  10  21  35  52  76 106 137 173 215 262 311
#
# _framework density 9.7001760000000008
#
# number of rings (size 3 to 8) (size 9 to 14) (size 15 to 20)
#    0.000    2.364    0.000    3.818    0.000    4.000 
#    0.000    1.818    0.000    1.636    0.000    0.000 
#    0.000    0.000    0.000    0.000    0.000    0.000 
#
# Total GULP energy -545351.981403 kJ/mol
# GULP energy per Si atom -12394.363214 kJ/mol
# Density = 0.967810 g / cm^3
# Si number density = 9.700176 Si / 1000 Ang^3
#
#
#
# Elastic Constant Matrix: (Units=GPa)
#
#
# Indices 1 2 3 4 5 6 
#
# 1 63.1912 20.4162 12.5416 0.0000 0.0000 0.0000
# 2 20.4162 54.1716 14.9100 0.0000 0.0000 0.0000
# 3 12.5416 14.9100 65.5650 0.0000 0.0000 0.0000
# 4 0.0000 0.0000 0.0000 26.5391 0.0000 0.0000
# 5 0.0000 0.0000 0.0000 0.0000 16.5265 0.0000
# 6 0.0000 0.0000 0.0000 0.0000 0.0000 10.7024
#
#
#
# Elastic Compliance Matrix: (Units=1/GPa)
#
#
# Indices 1 2 3 4 5 6 
#
# 1 0.018276 -0.006321 -0.002058 0.000000 0.000000 0.000000
# 2 -0.006321 0.021879 -0.003766 0.000000 0.000000 0.000000
# 3 -0.002058 -0.003766 0.016502 0.000000 0.000000 0.000000
# 4 0.000000 0.000000 0.000000 0.037680 0.000000 0.000000
# 5 0.000000 0.000000 0.000000 0.000000 0.060509 0.000000
# 6 0.000000 0.000000 0.000000 0.000000 0.000000 0.093437
#
#
# Mechanical properties :
#
#
# Convention : Reuss Voigt Hill
#
# Bulk Modulus (GPa) = 30.89745 30.96258 30.93002
# Shear Modulus (GPa) = 17.64522 19.75760 18.70141
#
# Velocity S-wave (km/s) = 3.01911 3.19472 3.10816
# Velocity P-wave (km/s) = 5.30228 5.44084 5.37201
#
# Compressibility (1/GPa) = 0.03236513
#
# Stress axis : x y z
#
# Youngs Moduli (GPa) = 54.71707 45.70630 60.59775
#
# Poissons Ratio (x) = 0.28892 0.12473
# Poissons Ratio (y) = 0.34588 0.22823
# Poissons Ratio (z) = 0.11263 0.17214
#
# Static dielectric constant tensor:
#      x y z
#    x 3.306440 0.000000 0.000000 
#    y 0.000000 3.758780 0.000000 
#    z 0.000000 0.000000 3.397880 
# 
# 
# High freq. dielectric constant tensor:
#      x y z
#    x 1.710600 0.000000 0.000000 
#    y 0.000000 1.750910 0.000000 
#    z 0.000000 0.000000 1.742900 
# 
# From -- ./inp_files/55440.got.cif
#   From: 2010.03.12/outbox.ucp.g09.slc.cvg/sg63_28_cif.got.tgz:55440.got - 2010.05.04 19:38:17.
