data_PCOD8261036
_publ_section_title
;
Structure prediction by ZEFSAII (Michael W. Deem and Ramdas Pophale) SiO2 
 PCOD8261036
Probable space group: C M C M
;
_chemical_formula_sum "Si O2"
_cell_formula_units_Z 72
_cell_length_a 19.324955
_cell_length_b 20.791049
_cell_length_c 8.276594
_cell_angle_alpha 90.000000
_cell_angle_beta 90.000000
_cell_angle_gamma 90.000000
_cell_volume 3325.420311
_symmetry_space_group_name_H-M "C M C M"
_symmetry_group_IT_number 63
_symmetry_cell_setting 'orthorhombic'
loop_
_space_group_symop_operation_xyz
x,y,z
-x,-y,1/2+z
x,-y,-z
-x,y,1/2-z
-x,-y,-z
x,y,1/2-z
-x,y,z
x,-y,1/2+z
1/2+x,1/2+y,z
1/2-x,1/2-y,1/2+z
1/2+x,1/2-y,-z
1/2-x,1/2+y,1/2-z
1/2-x,1/2-y,-z
1/2+x,1/2+y,1/2-z
1/2-x,1/2+y,z
1/2+x,1/2-y,1/2+z
loop_
_atom_site_type_symbol
_atom_site_label
_atom_site_fract_x
_atom_site_fract_y
_atom_site_fract_z
Si Si1 0.500000 0.889673 0.935844
Si Si2 0.643246 0.932408 0.439517
Si Si3 0.000000 0.747669 0.935365
Si Si4 0.387894 0.338485 0.436992
Si Si5 0.000000 0.070598 0.441416
Si Si6 0.756068 0.677516 0.065073
O O1 0.500000 0.867819 0.750000
O O2 0.431033 0.929745 0.972585
O O3 0.500000 0.828297 0.052665
O O4 0.631643 0.935212 0.250000
O O5 0.689617 0.869380 0.476373
O O6 0.677963 0.000000 0.500000
O O7 0.000000 0.770254 0.750000
O O8 0.930205 0.773978 0.018581
O O9 0.366757 0.335296 0.250000
O O10 0.433194 0.399697 0.476479
O O11 0.320392 0.350261 0.544399
O O12 0.000000 0.080085 0.250000
O O13 0.000000 0.000000 0.500000
O O14 0.779091 0.679646 0.250000
O O15 0.750000 0.750000 0.000000
#
# Coordination Sequence:
#
# PCOD8261036 Si02
#       6
#     8  16   8  16   8  16
#     4  12  24  42  66  94 126 166 209 258 312 373
#     4  12  26  46  68  96 129 168 213 264 320 382
#     4  11  21  37  61  93 127 165 208 258 312 370
#     4  11  22  39  61  90 124 162 205 257 312 372
#     4  11  22  39  61  89 121 161 207 256 309 371
#     4  12  25  44  67  96 130 170 214 264 319 380
#
# _framework density 21.651399000000001
#
# number of rings (size 3 to 8) (size 9 to 14) (size 15 to 20)
#    0.000    0.444    0.000   12.000    0.000    0.889 
#    0.000    4.444    0.000    0.000    0.000    0.000 
#    0.000    0.000    0.000    0.000    0.000    0.000 
#
# Total GULP energy -446445.173954 kJ/mol
# GULP energy per Si atom -12401.254832 kJ/mol
# Density = 2.160212 g / cm^3
# Si number density = 21.651399 Si / 1000 Ang^3
#
#
#
# Elastic Constant Matrix: (Units=GPa)
#
#
# Indices 1 2 3 4 5 6 
#
# 1 123.5259 38.1094 14.5206 0.0000 0.0000 0.0000
# 2 38.1094 149.3053 22.2544 0.0000 0.0000 0.0000
# 3 14.5206 22.2544 125.0801 0.0000 0.0000 0.0000
# 4 0.0000 0.0000 0.0000 38.4254 0.0000 0.0000
# 5 0.0000 0.0000 0.0000 0.0000 37.9157 0.0000
# 6 0.0000 0.0000 0.0000 0.0000 0.0000 23.4642
#
#
#
# Elastic Compliance Matrix: (Units=1/GPa)
#
#
# Indices 1 2 3 4 5 6 
#
# 1 0.008837 -0.002160 -0.000642 0.000000 0.000000 0.000000
# 2 -0.002160 0.007408 -0.001067 0.000000 0.000000 0.000000
# 3 -0.000642 -0.001067 0.008259 0.000000 0.000000 0.000000
# 4 0.000000 0.000000 0.000000 0.026024 0.000000 0.000000
# 5 0.000000 0.000000 0.000000 0.000000 0.026374 0.000000
# 6 0.000000 0.000000 0.000000 0.000000 0.000000 0.042618
#
#
# Mechanical properties :
#
#
# Convention : Reuss Voigt Hill
#
# Bulk Modulus (GPa) = 59.64183 60.85337 60.24760
# Shear Modulus (GPa) = 37.63688 41.49618 39.56653
#
# Velocity S-wave (km/s) = 4.17383 4.38260 4.27949
# Velocity P-wave (km/s) = 7.12980 7.33325 7.23224
#
# Compressibility (1/GPa) = 0.01676676
#
# Stress axis : x y z
#
# Youngs Moduli (GPa) = 113.15687 134.98726 121.07627
#
# Poissons Ratio (x) = 0.29158 0.07768
# Poissons Ratio (y) = 0.24442 0.12922
# Poissons Ratio (z) = 0.07260 0.14407
#
# Static dielectric constant tensor:
#      x y z
#    x 3.941080 0.000000 0.000000 
#    y 0.000000 4.000030 0.000000 
#    z 0.000000 0.000000 3.980500 
# 
# 
# High freq. dielectric constant tensor:
#      x y z
#    x 1.855100 0.000000 0.000000 
#    y 0.000000 1.860220 0.000000 
#    z 0.000000 0.000000 1.868670 
# 
# From -- ./inp_files/7911.got.cif
#   From: 2010.03.12/outbox.cif.g09.slc.cpg/sg63_4_cif.got.tgz:7911.got - 2010.04.10 19:34:48.
