data_PCOD8261923
_publ_section_title
;
Structure prediction by ZEFSAII (Michael W. Deem and Ramdas Pophale) SiO2 
 PCOD8261923
Probable space group: C M C A
;
_chemical_formula_sum "Si O2"
_cell_formula_units_Z 104
_cell_length_a 21.725781
_cell_length_b 9.404498
_cell_length_c 25.475426
_cell_angle_alpha 90.000000
_cell_angle_beta 90.000000
_cell_angle_gamma 90.000000
_cell_volume 5205.140670
_symmetry_space_group_name_H-M "C M C A"
_symmetry_group_IT_number 64
_symmetry_cell_setting 'orthorhombic'
loop_
_space_group_symop_operation_xyz
x,y,z
-x,1/2-y,1/2+z
x,-y,-z
-x,1/2+y,1/2-z
-x,-y,-z
x,1/2+y,1/2-z
-x,y,z
x,1/2-y,1/2+z
1/2+x,1/2+y,z
1/2-x,-y,1/2+z
1/2+x,1/2-y,-z
1/2-x,y,1/2-z
1/2-x,1/2-y,-z
1/2+x,y,1/2-z
1/2-x,1/2+y,z
1/2+x,-y,1/2+z
loop_
_atom_site_type_symbol
_atom_site_label
_atom_site_fract_x
_atom_site_fract_y
_atom_site_fract_z
Si Si1 0.369293 0.999131 0.938685
Si Si2 0.865339 0.994247 0.718853
Si Si3 0.694697 0.208146 0.137427
Si Si4 0.874325 0.470856 0.335417
Si Si5 0.163399 0.764025 0.362480
Si Si6 0.000000 0.466987 0.890489
Si Si7 0.000000 0.312891 0.319160
Si Si8 0.500000 0.563209 0.713303
O O1 0.350017 0.152126 0.916069
O O2 0.326556 0.878883 0.913432
O O3 0.440647 0.965661 0.927065
O O4 0.357407 0.000000 0.000000
O O5 0.842119 0.009819 0.778223
O O6 0.851736 0.139085 0.687682
O O7 0.938886 0.966638 0.721936
O O8 0.833855 0.860524 0.690436
O O9 0.671286 0.369299 0.131853
O O10 0.767507 0.207176 0.140475
O O11 0.879449 0.624689 0.362549
O O12 0.941246 0.403170 0.335954
O O13 0.000000 0.603112 0.849709
O O14 0.000000 0.334661 0.849895
O O15 0.000000 0.303900 0.254384
#
# Coordination Sequence:
#
# PCOD8261923 Si02
#       8
#    16  16  16  16  16   8   8   8
#     4  11  25  45  69  88 111 162 219 268 318 367
#     4  10  21  36  59  91 130 170 202 236 291 383
#     4  11  22  40  60  86 128 164 202 253 304 366
#     4  11  21  36  60  92 130 164 197 248 308 365
#     4  11  24  38  59  92 122 163 209 254 303 369
#     4  12  19  45  68  90 124 159 206 258 302 380
#     4  10  22  34  63  96 129 164 192 244 314 361
#     4  10  18  35  61  92 121 160 203 235 286 368
#
# _framework density 19.980249000000001
#
# number of rings (size 3 to 8) (size 9 to 14) (size 15 to 20)
#    0.000    1.231    4.615    3.000    0.000    9.231 
#    0.000    0.769    0.000    0.923    0.000    0.000 
#    0.000    0.000    0.000    0.000    0.000    0.000 
#
# Total GULP energy -644661.365184 kJ/mol
# GULP energy per Si atom -12397.333946 kJ/mol
# Density = 1.993477 g / cm^3
# Si number density = 19.980249 Si / 1000 Ang^3
#
#
#
# Elastic Constant Matrix: (Units=GPa)
#
#
# Indices 1 2 3 4 5 6 
#
# 1 114.7229 29.2504 30.8875 0.0000 0.0000 0.0000
# 2 29.2504 128.2611 53.8196 0.0000 0.0000 0.0000
# 3 30.8875 53.8196 132.0810 0.0000 0.0000 0.0000
# 4 0.0000 0.0000 0.0000 19.2378 0.0000 0.0000
# 5 0.0000 0.0000 0.0000 0.0000 11.4070 0.0000
# 6 0.0000 0.0000 0.0000 0.0000 0.0000 26.3510
#
#
#
# Elastic Compliance Matrix: (Units=1/GPa)
#
#
# Indices 1 2 3 4 5 6 
#
# 1 0.009534 -0.001494 -0.001621 0.000000 0.000000 0.000000
# 2 -0.001494 0.009639 -0.003578 0.000000 0.000000 0.000000
# 3 -0.001621 -0.003578 0.009408 0.000000 0.000000 0.000000
# 4 0.000000 0.000000 0.000000 0.051981 0.000000 0.000000
# 5 0.000000 0.000000 0.000000 0.000000 0.087666 0.000000
# 6 0.000000 0.000000 0.000000 0.000000 0.000000 0.037949
#
#
# Mechanical properties :
#
#
# Convention : Reuss Voigt Hill
#
# Bulk Modulus (GPa) = 65.81195 66.99778 66.40487
# Shear Modulus (GPa) = 22.25906 28.80633 25.53269
#
# Velocity S-wave (km/s) = 3.34136 3.80114 3.57865
# Velocity P-wave (km/s) = 6.92072 7.27116 7.09810
#
# Compressibility (1/GPa) = 0.01519481
#
# Stress axis : x y z
#
# Youngs Moduli (GPa) = 104.88802 103.74765 106.29125
#
# Poissons Ratio (x) = 0.15502 0.17227
# Poissons Ratio (y) = 0.15672 0.38032
# Poissons Ratio (z) = 0.16999 0.37122
#
# Static dielectric constant tensor:
#      x y z
#    x 3.788140 0.000000 0.000000 
#    y 0.000000 3.728970 0.000000 
#    z 0.000000 0.000000 3.432390 
# 
# 
# High freq. dielectric constant tensor:
#      x y z
#    x 1.796760 0.000000 0.000000 
#    y 0.000000 1.780710 0.000000 
#    z 0.000000 0.000000 1.747600 
# 
# From -- ./inp_files/50791.got.cif
#   From: 2010.03.12/outbox.cif.g09.slc.cpg/sg64_26_cif.got.tgz:50791.got - 2010.04.10 20:19:32.
