data_PCOD8261045
_publ_section_title
;
Structure prediction by ZEFSAII (Michael W. Deem and Ramdas Pophale) SiO2 
 PCOD8261045
Probable space group: C M C M
;
_chemical_formula_sum "Si O2"
_cell_formula_units_Z 56
_cell_length_a 17.508386
_cell_length_b 18.257470
_cell_length_c 8.623187
_cell_angle_alpha 90.000000
_cell_angle_beta 90.000000
_cell_angle_gamma 90.000000
_cell_volume 2756.477886
_symmetry_space_group_name_H-M "C M C M"
_symmetry_group_IT_number 63
_symmetry_cell_setting 'orthorhombic'
loop_
_space_group_symop_operation_xyz
x,y,z
-x,-y,1/2+z
x,-y,-z
-x,y,1/2-z
-x,-y,-z
x,y,1/2-z
-x,y,z
x,-y,1/2+z
1/2+x,1/2+y,z
1/2-x,1/2-y,1/2+z
1/2+x,1/2-y,-z
1/2-x,1/2+y,1/2-z
1/2-x,1/2-y,-z
1/2+x,1/2+y,1/2-z
1/2-x,1/2+y,z
1/2+x,1/2-y,1/2+z
loop_
_atom_site_type_symbol
_atom_site_label
_atom_site_fract_x
_atom_site_fract_y
_atom_site_fract_z
Si Si1 0.140011 0.667791 0.934057
Si Si2 0.914990 0.175285 0.067033
Si Si3 0.500000 0.079943 0.433402
Si Si4 0.777039 0.079922 0.432987
O O1 0.137700 0.661415 0.750000
O O2 0.125656 0.750639 0.992626
O O3 0.220876 0.640047 0.995731
O O4 0.074994 0.618541 0.006101
O O5 0.923076 0.180903 0.250000
O O6 0.862720 0.105736 0.021204
O O7 0.000000 0.166248 0.993405
O O8 0.500000 0.078303 0.250000
O O9 0.500000 0.000000 0.500000
O O10 0.764818 0.077686 0.250000
O O11 0.760817 0.000000 0.500000
#
# Coordination Sequence:
#
# PCOD8261045 Si02
#       4
#    16  16   8  16
#     4  11  21  39  64  88 119 156 199 246 300 359
#     4   9  19  38  64  90 118 156 199 248 303 356
#     4  12  24  38  58  88 123 158 197 242 295 356
#     4  11  23  39  60  88 123 160 202 248 298 354
#
# _framework density 20.315778999999999
#
# number of rings (size 3 to 8) (size 9 to 14) (size 15 to 20)
#    0.000    1.429    1.429    4.714    0.000    0.571 
#    0.000    4.286    0.000    0.000    0.000    0.000 
#    0.000    0.000    0.000    0.000    0.000    0.000 
#
# Total GULP energy -347222.520655 kJ/mol
# GULP energy per Si atom -12400.804309 kJ/mol
# Density = 2.026954 g / cm^3
# Si number density = 20.315779 Si / 1000 Ang^3
#
#
#
# Elastic Constant Matrix: (Units=GPa)
#
#
# Indices 1 2 3 4 5 6 
#
# 1 133.5296 29.7472 30.5821 0.0000 0.0000 0.0000
# 2 29.7472 62.4132 16.5683 0.0000 0.0000 0.0000
# 3 30.5821 16.5683 92.1526 0.0000 0.0000 0.0000
# 4 0.0000 0.0000 0.0000 14.8954 0.0000 0.0000
# 5 0.0000 0.0000 0.0000 0.0000 38.2926 0.0000
# 6 0.0000 0.0000 0.0000 0.0000 0.0000 42.4433
#
#
#
# Elastic Compliance Matrix: (Units=1/GPa)
#
#
# Indices 1 2 3 4 5 6 
#
# 1 0.008812 -0.003595 -0.002278 0.000000 0.000000 0.000000
# 2 -0.003595 0.018292 -0.002096 0.000000 0.000000 0.000000
# 3 -0.002278 -0.002096 0.011984 0.000000 0.000000 0.000000
# 4 0.000000 0.000000 0.000000 0.067135 0.000000 0.000000
# 5 0.000000 0.000000 0.000000 0.000000 0.026115 0.000000
# 6 0.000000 0.000000 0.000000 0.000000 0.000000 0.023561
#
#
# Mechanical properties :
#
#
# Convention : Reuss Voigt Hill
#
# Bulk Modulus (GPa) = 43.19534 49.09897 46.14716
# Shear Modulus (GPa) = 27.84704 33.20613 30.52658
#
# Velocity S-wave (km/s) = 3.70633 4.04728 3.88055
# Velocity P-wave (km/s) = 6.29475 6.78683 6.54542
#
# Compressibility (1/GPa) = 0.02315064
#
# Stress axis : x y z
#
# Youngs Moduli (GPa) = 113.48723 54.66861 83.44252
#
# Poissons Ratio (x) = 0.19654 0.19007
# Poissons Ratio (y) = 0.40799 0.17487
# Poissons Ratio (z) = 0.25851 0.11457
#
# Static dielectric constant tensor:
#      x y z
#    x 3.998570 0.000000 0.000000 
#    y 0.000000 3.820950 0.000000 
#    z 0.000000 0.000000 3.575190 
# 
# 
# High freq. dielectric constant tensor:
#      x y z
#    x 1.812100 0.000000 0.000000 
#    y 0.000000 1.801960 0.000000 
#    z 0.000000 0.000000 1.778820 
# 
# From -- ./inp_files/3995.got.cif
#   From: 2010.03.12/outbox.cif.g09.slc.cpg/sg63_2_cif.got.tgz:3995.got - 2010.04.10 19:34:48.
