data_PCOD8261583
_publ_section_title
;
Structure prediction by ZEFSAII (Michael W. Deem and Ramdas Pophale) SiO2 
 PCOD8261583
Probable space group: C M C A
;
_chemical_formula_sum "Si O2"
_cell_formula_units_Z 64
_cell_length_a 17.392879
_cell_length_b 13.729228
_cell_length_c 13.860856
_cell_angle_alpha 90.000000
_cell_angle_beta 90.000000
_cell_angle_gamma 90.000000
_cell_volume 3309.844912
_symmetry_space_group_name_H-M "C M C A"
_symmetry_group_IT_number 64
_symmetry_cell_setting 'orthorhombic'
loop_
_space_group_symop_operation_xyz
x,y,z
-x,1/2-y,1/2+z
x,-y,-z
-x,1/2+y,1/2-z
-x,-y,-z
x,1/2+y,1/2-z
-x,y,z
x,1/2-y,1/2+z
1/2+x,1/2+y,z
1/2-x,-y,1/2+z
1/2+x,1/2-y,-z
1/2-x,y,1/2-z
1/2-x,1/2-y,-z
1/2+x,y,1/2-z
1/2-x,1/2+y,z
1/2+x,-y,1/2+z
loop_
_atom_site_type_symbol
_atom_site_label
_atom_site_fract_x
_atom_site_fract_y
_atom_site_fract_z
Si Si1 0.500000 0.931247 0.381743
Si Si2 0.000000 0.727987 0.471779
Si Si3 0.250000 0.632346 0.750000
Si Si4 0.164415 0.988408 0.888377
Si Si5 0.370173 0.213288 0.321810
Si Si6 0.500000 0.775391 0.819847
O O1 0.500000 0.884969 0.490642
O O2 0.500000 0.842285 0.305103
O O3 0.425356 0.996218 0.365570
O O4 0.923630 0.747328 0.410620
O O5 0.000000 0.799985 0.565423
O O6 0.216213 0.566160 0.665938
O O7 0.315530 0.697750 0.702882
O O8 0.182244 0.878959 0.852072
O O9 0.184620 0.000000 0.000000
O O10 0.423170 0.183136 0.230272
#
# Coordination Sequence:
#
# PCOD8261583 Si02
#       6
#     8   8   8  16  16   8
#     4  10  17  40  67  86 118 152 212 258 279 360
#     4   9  18  38  65  92 115 160 206 256 305 351
#     4  12  26  42  56  94 134 158 200 254 314 368
#     4  12  23  42  66  91 119 167 212 249 297 370
#     4  11  22  39  65  90 122 164 204 252 307 360
#     4   9  18  39  62  92 121 152 205 262 297 352
#
# _framework density 19.336252999999999
#
# number of rings (size 3 to 8) (size 9 to 14) (size 15 to 20)
#    0.750    0.500    5.000    2.625    0.000    1.000 
#    4.500    0.000    0.000    1.500    0.000    0.000 
#    0.000    0.000    0.000    0.000    0.000    0.000 
#
# Total GULP energy -396797.251317 kJ/mol
# GULP energy per Si atom -12399.914104 kJ/mol
# Density = 1.929224 g / cm^3
# Si number density = 19.336253 Si / 1000 Ang^3
#
#
#
# Elastic Constant Matrix: (Units=GPa)
#
#
# Indices 1 2 3 4 5 6 
#
# 1 106.7274 46.0152 55.4896 0.0000 0.0000 0.0000
# 2 46.0152 103.6391 61.4935 0.0000 0.0000 0.0000
# 3 55.4896 61.4935 134.8310 0.0000 0.0000 0.0000
# 4 0.0000 0.0000 0.0000 36.3492 0.0000 0.0000
# 5 0.0000 0.0000 0.0000 0.0000 14.9480 0.0000
# 6 0.0000 0.0000 0.0000 0.0000 0.0000 3.1141
#
#
#
# Elastic Compliance Matrix: (Units=1/GPa)
#
#
# Indices 1 2 3 4 5 6 
#
# 1 0.012785 -0.003502 -0.003664 0.000000 0.000000 0.000000
# 2 -0.003502 0.014188 -0.005030 0.000000 0.000000 0.000000
# 3 -0.003664 -0.005030 0.011219 0.000000 0.000000 0.000000
# 4 0.000000 0.000000 0.000000 0.027511 0.000000 0.000000
# 5 0.000000 0.000000 0.000000 0.000000 0.066899 0.000000
# 6 0.000000 0.000000 0.000000 0.000000 0.000000 0.321121
#
#
# Mechanical properties :
#
#
# Convention : Reuss Voigt Hill
#
# Bulk Modulus (GPa) = 72.46702 74.57711 73.52207
# Shear Modulus (GPa) = 10.35810 23.02887 16.69348
#
# Velocity S-wave (km/s) = 2.31699 3.45479 2.94143
# Velocity P-wave (km/s) = 6.68705 7.38690 7.04567
#
# Compressibility (1/GPa) = 0.01379938
#
# Stress axis : x y z
#
# Youngs Moduli (GPa) = 78.21816 70.48180 89.13776
#
# Poissons Ratio (x) = 0.24684 0.32663
# Poissons Ratio (y) = 0.27393 0.44832
# Poissons Ratio (z) = 0.28661 0.35449
#
# Static dielectric constant tensor:
#      x y z
#    x 3.395630 0.000000 0.000000 
#    y 0.000000 3.419850 0.000000 
#    z 0.000000 0.000000 3.618090 
# 
# 
# High freq. dielectric constant tensor:
#      x y z
#    x 1.746740 0.000000 0.000000 
#    y 0.000000 1.741950 0.000000 
#    z 0.000000 0.000000 1.757580 
# 
# From -- ./inp_files/24955.got.cif
#   From: 2010.03.12/outbox.cif.g09.slc.cpg/sg64_13_cif.got.tgz:24955.got - 2010.04.10 20:19:32.
