data_PCOD8261273
_publ_section_title
;
Structure prediction by ZEFSAII (Michael W. Deem and Ramdas Pophale) SiO2 
 PCOD8261273
Probable space group: C M C M
;
_chemical_formula_sum "Si O2"
_cell_formula_units_Z 96
_cell_length_a 10.008538
_cell_length_b 19.634201
_cell_length_c 30.717762
_cell_angle_alpha 90.000000
_cell_angle_beta 90.000000
_cell_angle_gamma 90.000000
_cell_volume 6036.336561
_symmetry_space_group_name_H-M "C M C M"
_symmetry_group_IT_number 63
_symmetry_cell_setting 'orthorhombic'
loop_
_space_group_symop_operation_xyz
x,y,z
-x,-y,1/2+z
x,-y,-z
-x,y,1/2-z
-x,-y,-z
x,y,1/2-z
-x,y,z
x,-y,1/2+z
1/2+x,1/2+y,z
1/2-x,1/2-y,1/2+z
1/2+x,1/2-y,-z
1/2-x,1/2+y,1/2-z
1/2-x,1/2-y,-z
1/2+x,1/2+y,1/2-z
1/2-x,1/2+y,z
1/2+x,1/2-y,1/2+z
loop_
_atom_site_type_symbol
_atom_site_label
_atom_site_fract_x
_atom_site_fract_y
_atom_site_fract_z
Si Si1 0.647410 0.209801 0.130125
Si Si2 0.657385 0.793426 0.968658
Si Si3 0.851058 0.452133 0.630893
Si Si4 0.658758 0.052065 0.035218
Si Si5 0.350276 0.710383 0.201422
Si Si6 0.851011 0.951682 0.798472
O O1 0.500000 0.238638 0.141160
O O2 0.686899 0.230099 0.080898
O O3 0.643775 0.128871 0.134003
O O4 0.751402 0.241553 0.164923
O O5 0.500000 0.784221 0.979651
O O6 0.704459 0.871361 0.975387
O O7 0.750000 0.750000 0.000000
O O8 0.794023 0.471795 0.583225
O O9 0.752915 0.483787 0.667197
O O10 0.000000 0.481867 0.638537
O O11 0.500000 0.050196 0.034909
O O12 0.720654 0.000000 0.000000
O O13 0.305196 0.733508 0.250000
O O14 0.500000 0.736987 0.191775
O O15 0.348243 0.629354 0.198894
O O16 0.809675 0.975483 0.750000
O O17 0.000000 0.977845 0.809646
#
# Coordination Sequence:
#
# PCOD8261273 Si02
#       6
#    16  16  16  16  16  16
#     4   8  14  23  33  48  71  97 125 155 188 228
#     4   9  17  28  42  60  81 106 136 168 201 238
#     4   8  13  21  34  51  69  92 124 159 190 221
#     4   8  14  26  43  60  79 105 136 167 199 237
#     4   8  13  20  30  46  68  94 124 154 184 223
#     4   8  13  20  29  43  67  98 125 148 181 227
#
# _framework density 15.903686
#
# number of rings (size 3 to 8) (size 9 to 14) (size 15 to 20)
#    0.000    3.833    0.000    3.000    0.000    1.333 
#    0.000    5.833    0.000    2.000    0.000    0.000 
#    0.000    1.333    0.000    6.667    0.000    9.000 
#
# Total GULP energy -594700.470280 kJ/mol
# GULP energy per Si atom -12389.593131 kJ/mol
# Density = 1.586749 g / cm^3
# Si number density = 15.903686 Si / 1000 Ang^3
#
#
#
# Elastic Constant Matrix: (Units=GPa)
#
#
# Indices 1 2 3 4 5 6 
#
# 1 93.9421 22.4966 92.0459 0.0000 0.0000 0.0000
# 2 22.4966 24.0370 34.1058 0.0000 0.0000 0.0000
# 3 92.0459 34.1058 160.0887 0.0000 0.0000 0.0000
# 4 0.0000 0.0000 0.0000 15.1772 0.0000 0.0000
# 5 0.0000 0.0000 0.0000 0.0000 33.5215 0.0000
# 6 0.0000 0.0000 0.0000 0.0000 0.0000 7.8959
#
#
#
# Elastic Compliance Matrix: (Units=1/GPa)
#
#
# Indices 1 2 3 4 5 6 
#
# 1 0.024678 -0.004248 -0.013284 0.000000 0.000000 0.000000
# 2 -0.004248 0.060358 -0.010416 0.000000 0.000000 0.000000
# 3 -0.013284 -0.010416 0.016104 0.000000 0.000000 0.000000
# 4 0.000000 0.000000 0.000000 0.065888 0.000000 0.000000
# 5 0.000000 0.000000 0.000000 0.000000 0.029832 0.000000
# 6 0.000000 0.000000 0.000000 0.000000 0.000000 0.126648
#
#
# Mechanical properties :
#
#
# Convention : Reuss Voigt Hill
#
# Bulk Modulus (GPa) = 22.10301 63.92936 43.01618
# Shear Modulus (GPa) = 12.67472 19.94687 16.31080
#
# Velocity S-wave (km/s) = 2.82612 3.54535 3.20597
# Velocity P-wave (km/s) = 4.95757 7.55278 6.38835
#
# Compressibility (1/GPa) = 0.04524271
#
# Stress axis : x y z
#
# Youngs Moduli (GPa) = 40.52169 16.56785 62.09776
#
# Poissons Ratio (x) = 0.07038 0.82492
# Poissons Ratio (y) = 0.17213 0.64683
# Poissons Ratio (z) = 0.53830 0.17258
#
# Static dielectric constant tensor:
#      x y z
#    x 3.187860 0.000000 0.000000 
#    y 0.000000 2.451470 0.000000 
#    z 0.000000 0.000000 3.061210 
# 
# 
# High freq. dielectric constant tensor:
#      x y z
#    x 1.601090 0.000000 0.000000 
#    y 0.000000 1.532090 0.000000 
#    z 0.000000 0.000000 1.625170 
# 
# From -- ./inp_files/61682.got.cif
#   From: 2010.03.12/outbox.cif.g09.slc.cpg/sg63_31_cif.got.tgz:61682.got - 2010.04.10 19:34:48.
