data_PCOD8261824
_publ_section_title
;
Structure prediction by ZEFSAII (Michael W. Deem and Ramdas Pophale) SiO2 
 PCOD8261824
Probable space group: C M C A
;
_chemical_formula_sum "Si O2"
_cell_formula_units_Z 64
_cell_length_a 8.685858
_cell_length_b 24.543108
_cell_length_c 14.695263
_cell_angle_alpha 90.000000
_cell_angle_beta 90.000000
_cell_angle_gamma 90.000000
_cell_volume 3132.706055
_symmetry_space_group_name_H-M "C M C A"
_symmetry_group_IT_number 64
_symmetry_cell_setting 'orthorhombic'
loop_
_space_group_symop_operation_xyz
x,y,z
-x,1/2-y,1/2+z
x,-y,-z
-x,1/2+y,1/2-z
-x,-y,-z
x,1/2+y,1/2-z
-x,y,z
x,1/2-y,1/2+z
1/2+x,1/2+y,z
1/2-x,-y,1/2+z
1/2+x,1/2-y,-z
1/2-x,y,1/2-z
1/2-x,1/2-y,-z
1/2+x,y,1/2-z
1/2-x,1/2+y,z
1/2+x,-y,1/2+z
loop_
_atom_site_type_symbol
_atom_site_label
_atom_site_fract_x
_atom_site_fract_y
_atom_site_fract_z
Si Si1 0.319451 0.639203 0.150766
Si Si2 0.179096 0.857861 0.348032
Si Si3 0.178164 0.437620 0.991181
Si Si4 0.682358 0.251222 0.649283
O O1 0.500000 0.647173 0.160825
O O2 0.250000 0.628512 0.250000
O O3 0.247436 0.693637 0.103357
O O4 0.281683 0.588050 0.087667
O O5 0.250000 0.871685 0.250000
O O6 0.210910 0.909164 0.412379
O O7 0.256638 0.804654 0.396159
O O8 0.000000 0.845598 0.334991
O O9 0.000000 0.431690 0.963147
O O10 0.228202 0.500000 0.000000
O O11 0.500000 0.252694 0.648004
O O12 0.750000 0.250179 0.750000
#
# Coordination Sequence:
#
# PCOD8261824 Si02
#       4
#    16  16  16  16
#     4  11  22  38  61  87 117 151 189 234 286 342
#     4  10  20  36  59  85 116 150 186 232 285 340
#     4  10  23  42  60  82 114 152 196 242 284 332
#     4  10  18  32  56  85 117 148 184 229 281 342
#
# _framework density 20.429621000000001
#
# number of rings (size 3 to 8) (size 9 to 14) (size 15 to 20)
#    0.000    1.750    0.000    8.250    0.000    4.500 
#    0.000    2.500    0.000    0.000    0.000    0.000 
#    0.000    0.000    0.000    0.000    0.000    0.000 
#
# Total GULP energy -396813.393839 kJ/mol
# GULP energy per Si atom -12400.418557 kJ/mol
# Density = 2.038312 g / cm^3
# Si number density = 20.429621 Si / 1000 Ang^3
#
#
#
# Elastic Constant Matrix: (Units=GPa)
#
#
# Indices 1 2 3 4 5 6 
#
# 1 177.3449 74.7819 53.4462 0.0000 0.0000 0.0000
# 2 74.7819 182.1362 60.8304 0.0000 0.0000 0.0000
# 3 53.4462 60.8304 82.1102 0.0000 0.0000 0.0000
# 4 0.0000 0.0000 0.0000 0.0148 0.0000 0.0000
# 5 0.0000 0.0000 0.0000 0.0000 23.9000 0.0000
# 6 0.0000 0.0000 0.0000 0.0000 0.0000 14.0879
#
#
#
# Elastic Compliance Matrix: (Units=1/GPa)
#
#
# Indices 1 2 3 4 5 6 
#
# 1 0.007489 -0.001923 -0.003451 0.000000 0.000000 0.000000
# 2 -0.001923 0.007789 -0.004519 0.000000 0.000000 0.000000
# 3 -0.003451 -0.004519 0.017773 0.000000 0.000000 0.000000
# 4 0.000000 0.000000 0.000000 67.488759 0.000000 0.000000
# 5 0.000000 0.000000 0.000000 0.000000 0.041841 0.000000
# 6 0.000000 0.000000 0.000000 0.000000 0.000000 0.070983
#
#
# Mechanical properties :
#
#
# Convention : Reuss Voigt Hill
#
# Bulk Modulus (GPa) = 75.37659 91.07870 83.22764
# Shear Modulus (GPa) = 0.07390 24.43608 12.25499
#
# Velocity S-wave (km/s) = 0.19040 3.46223 2.45187
# Velocity P-wave (km/s) = 6.08475 7.78853 6.98876
#
# Compressibility (1/GPa) = 0.01326672
#
# Stress axis : x y z
#
# Youngs Moduli (GPa) = 133.52359 128.38564 56.26634
#
# Poissons Ratio (x) = 0.24683 0.19415
# Poissons Ratio (y) = 0.25671 0.25427
# Poissons Ratio (z) = 0.46073 0.58018
#
# Static dielectric constant tensor:
#      x y z
#    x 3.735800 0.000000 0.000000 
#    y 0.000000 4.269660 0.000000 
#    z 0.000000 0.000000 3.479270 
# 
# 
# High freq. dielectric constant tensor:
#      x y z
#    x 1.808550 0.000000 0.000000 
#    y 0.000000 1.806430 0.000000 
#    z 0.000000 0.000000 1.784930 
# 
# From -- ./inp_files/20869.got.cif
#   From: 2010.03.12/outbox.cif.g09.slc.cpg/sg64_11_cif.got.tgz:20869.got - 2010.04.10 20:19:32.
