data_PCOD8261986
_publ_section_title
;
Structure prediction by ZEFSAII (Michael W. Deem and Ramdas Pophale) SiO2 
 PCOD8261986
Probable space group: C M C A
;
_chemical_formula_sum "Si O2"
_cell_formula_units_Z 96
_cell_length_a 7.806211
_cell_length_b 30.069906
_cell_length_c 23.157576
_cell_angle_alpha 90.000000
_cell_angle_beta 90.000000
_cell_angle_gamma 90.000000
_cell_volume 5435.824847
_symmetry_space_group_name_H-M "C M C A"
_symmetry_group_IT_number 64
_symmetry_cell_setting 'orthorhombic'
loop_
_space_group_symop_operation_xyz
x,y,z
-x,1/2-y,1/2+z
x,-y,-z
-x,1/2+y,1/2-z
-x,-y,-z
x,1/2+y,1/2-z
-x,y,z
x,1/2-y,1/2+z
1/2+x,1/2+y,z
1/2-x,-y,1/2+z
1/2+x,1/2-y,-z
1/2-x,y,1/2-z
1/2-x,1/2-y,-z
1/2+x,y,1/2-z
1/2-x,1/2+y,z
1/2+x,-y,1/2+z
loop_
_atom_site_type_symbol
_atom_site_label
_atom_site_fract_x
_atom_site_fract_y
_atom_site_fract_z
Si Si1 0.805370 0.976506 0.315791
Si Si2 0.000000 0.493494 0.401137
Si Si3 0.195051 0.860422 0.516493
Si Si4 0.198880 0.729800 0.060511
Si Si5 0.189024 0.381979 0.309602
Si Si6 0.813333 0.685017 0.893541
Si Si7 0.000000 0.071115 0.006027
O O1 0.750000 0.987959 0.250000
O O2 0.810157 0.923329 0.325908
O O3 0.000000 0.994189 0.327249
O O4 0.670735 0.997239 0.361573
O O5 0.000000 0.448620 0.440700
O O6 0.000000 0.534132 0.445079
O O7 0.248184 0.822862 0.564631
O O8 0.203079 0.833123 0.457758
O O9 0.327816 0.900618 0.515914
O O10 0.000000 0.878224 0.527071
O O11 0.284570 0.761509 0.108983
O O12 0.000000 0.734906 0.069323
O O13 0.250000 0.750000 0.000000
O O14 0.250000 0.360083 0.250000
O O15 0.180347 0.342405 0.355471
O O16 0.000000 0.402944 0.303871
O O17 0.000000 0.675102 0.867681
#
# Coordination Sequence:
#
# PCOD8261986 Si02
#       7
#    16   8  16  16  16  16   8
#     4  11  20  37  61  82 111 141 182 235 276 326
#     4  11  24  40  52  92 109 145 190 218 281 343
#     4   9  20  34  51  75 104 144 187 218 262 316
#     4   9  17  28  45  71  99 129 175 221 247 291
#     4  11  20  31  47  72 107 139 174 211 263 325
#     4  10  19  29  46  74 104 139 182 217 259 308
#     4  11  24  36  58  74 123 154 178 220 277 355
#
# _framework density 17.660613999999999
#
# number of rings (size 3 to 8) (size 9 to 14) (size 15 to 20)
#    0.000    1.833    1.667    5.500    7.000    2.667 
#    0.000    1.667    0.000    0.000    0.000    1.167 
#    0.000    0.000    0.000    0.000    0.000    0.000 
#
# Total GULP energy -594664.739551 kJ/mol
# GULP energy per Si atom -12388.848741 kJ/mol
# Density = 1.762042 g / cm^3
# Si number density = 17.660614 Si / 1000 Ang^3
#
#
#
# Elastic Constant Matrix: (Units=GPa)
#
#
# Indices 1 2 3 4 5 6 
#
# 1 118.0482 40.0863 31.4094 0.0000 0.0000 0.0000
# 2 40.0863 70.4350 21.5564 0.0000 0.0000 0.0000
# 3 31.4094 21.5564 54.4992 0.0000 0.0000 0.0000
# 4 0.0000 0.0000 0.0000 22.4219 0.0000 0.0000
# 5 0.0000 0.0000 0.0000 0.0000 21.0173 0.0000
# 6 0.0000 0.0000 0.0000 0.0000 0.0000 24.4400
#
#
#
# Elastic Compliance Matrix: (Units=1/GPa)
#
#
# Indices 1 2 3 4 5 6 
#
# 1 0.011417 -0.005102 -0.004562 0.000000 0.000000 0.000000
# 2 -0.005102 0.018432 -0.004350 0.000000 0.000000 0.000000
# 3 -0.004562 -0.004350 0.022699 0.000000 0.000000 0.000000
# 4 0.000000 0.000000 0.000000 0.044599 0.000000 0.000000
# 5 0.000000 0.000000 0.000000 0.000000 0.047580 0.000000
# 6 0.000000 0.000000 0.000000 0.000000 0.000000 0.040917
#
#
# Mechanical properties :
#
#
# Convention : Reuss Voigt Hill
#
# Bulk Modulus (GPa) = 40.78294 47.67629 44.22961
# Shear Modulus (GPa) = 22.53808 23.57118 23.05463
#
# Velocity S-wave (km/s) = 3.57624 3.65728 3.61699
# Velocity P-wave (km/s) = 6.33998 6.69991 6.52243
#
# Compressibility (1/GPa) = 0.02452006
#
# Stress axis : x y z
#
# Youngs Moduli (GPa) = 87.58551 54.25228 44.05475
#
# Poissons Ratio (x) = 0.27678 0.20099
# Poissons Ratio (y) = 0.44683 0.19166
# Poissons Ratio (z) = 0.39959 0.23602
#
# Static dielectric constant tensor:
#      x y z
#    x 3.452420 0.000000 0.000000 
#    y 0.000000 3.256770 0.000000 
#    z 0.000000 0.000000 3.153970 
# 
# 
# High freq. dielectric constant tensor:
#      x y z
#    x 1.703450 0.000000 0.000000 
#    y 0.000000 1.661370 0.000000 
#    z 0.000000 0.000000 1.647880 
# 
# From -- ./inp_files/43239.got.cif
#   From: 2010.03.12/outbox.cif.g09.slc.cpg/sg64_22_cif.got.tgz:43239.got - 2010.04.10 20:19:32.
