data_PCOD8261508
_publ_section_title
;
Structure prediction by ZEFSAII (Michael W. Deem and Ramdas Pophale) SiO2 
 PCOD8261508
Probable space group: C M C A
;
_chemical_formula_sum "Si O2"
_cell_formula_units_Z 104
_cell_length_a 26.483503
_cell_length_b 14.115571
_cell_length_c 17.819398
_cell_angle_alpha 90.000000
_cell_angle_beta 90.000000
_cell_angle_gamma 90.000000
_cell_volume 6661.421401
_symmetry_space_group_name_H-M "C M C A"
_symmetry_group_IT_number 64
_symmetry_cell_setting 'orthorhombic'
loop_
_space_group_symop_operation_xyz
x,y,z
-x,1/2-y,1/2+z
x,-y,-z
-x,1/2+y,1/2-z
-x,-y,-z
x,1/2+y,1/2-z
-x,y,z
x,1/2-y,1/2+z
1/2+x,1/2+y,z
1/2-x,-y,1/2+z
1/2+x,1/2-y,-z
1/2-x,y,1/2-z
1/2-x,1/2-y,-z
1/2+x,y,1/2-z
1/2-x,1/2+y,z
1/2+x,-y,1/2+z
loop_
_atom_site_type_symbol
_atom_site_label
_atom_site_fract_x
_atom_site_fract_y
_atom_site_fract_z
Si Si1 0.444769 0.128672 0.075008
Si Si2 0.247235 0.818805 0.569865
Si Si3 0.151141 0.846685 0.666674
Si Si4 0.055401 0.595363 0.909943
Si Si5 0.699207 0.254569 0.294718
Si Si6 0.785792 0.500000 0.000000
Si Si7 0.342074 0.437149 0.355747
O O1 0.500000 0.164268 0.102406
O O2 0.402599 0.175848 0.127956
O O3 0.441808 0.016272 0.077162
O O4 0.437151 0.154228 0.987240
O O5 0.250000 0.750000 0.500000
O O6 0.193697 0.805193 0.611454
O O7 0.294344 0.797517 0.624961
O O8 0.251138 0.926848 0.541725
O O9 0.153930 0.793616 0.747032
O O10 0.157847 0.959176 0.681793
O O11 0.102937 0.615352 0.855782
O O12 0.000000 0.621669 0.875243
O O13 0.750000 0.237337 0.250000
O O14 0.692011 0.367116 0.306199
O O15 0.821914 0.445612 0.058829
#
# Coordination Sequence:
#
# PCOD8261508 Si02
#       7
#    16  16  16  16  16   8  16
#     4   8  13  24  44  66  90 114 142 180 224 271
#     4  10  18  31  46  68  89 118 154 188 219 261
#     4   9  19  31  43  66  92 119 150 176 228 278
#     4   8  13  22  41  70  89 106 143 190 226 258
#     4  10  21  32  43  64  94 122 150 187 220 267
#     4  10  18  28  49  68  84 118 153 188 224 262
#     4  10  17  29  48  63  90 121 149 184 233 267
#
# _framework density 15.612284000000001
#
# number of rings (size 3 to 8) (size 9 to 14) (size 15 to 20)
#    0.000    2.769    1.538    3.692    0.000    3.077 
#    0.000    0.769    0.000    0.000    0.000    0.000 
#    0.000    0.000    0.000    5.462    0.000    0.615 
#
# Total GULP energy -644305.810300 kJ/mol
# GULP energy per Si atom -12390.496352 kJ/mol
# Density = 1.557675 g / cm^3
# Si number density = 15.612284 Si / 1000 Ang^3
#
#
#
# Elastic Constant Matrix: (Units=GPa)
#
#
# Indices 1 2 3 4 5 6 
#
# 1 67.3416 23.8640 32.4951 0.0000 0.0000 0.0000
# 2 23.8640 57.3119 35.3552 0.0000 0.0000 0.0000
# 3 32.4951 35.3552 80.5508 0.0000 0.0000 0.0000
# 4 0.0000 0.0000 0.0000 27.7446 0.0000 0.0000
# 5 0.0000 0.0000 0.0000 0.0000 18.3923 0.0000
# 6 0.0000 0.0000 0.0000 0.0000 0.0000 12.7208
#
#
#
# Elastic Compliance Matrix: (Units=1/GPa)
#
#
# Indices 1 2 3 4 5 6 
#
# 1 0.019221 -0.004416 -0.005816 0.000000 0.000000 0.000000
# 2 -0.004416 0.024941 -0.009166 0.000000 0.000000 0.000000
# 3 -0.005816 -0.009166 0.018784 0.000000 0.000000 0.000000
# 4 0.000000 0.000000 0.000000 0.036043 0.000000 0.000000
# 5 0.000000 0.000000 0.000000 0.000000 0.054370 0.000000
# 6 0.000000 0.000000 0.000000 0.000000 0.000000 0.078611
#
#
# Mechanical properties :
#
#
# Convention : Reuss Voigt Hill
#
# Bulk Modulus (GPa) = 41.40562 43.18143 42.29352
# Shear Modulus (GPa) = 17.93300 19.33756 18.63528
#
# Velocity S-wave (km/s) = 3.39285 3.52321 3.45864
# Velocity P-wave (km/s) = 6.47513 6.65352 6.56493
#
# Compressibility (1/GPa) = 0.02415131
#
# Stress axis : x y z
#
# Youngs Moduli (GPa) = 52.02700 40.09402 53.23743
#
# Poissons Ratio (x) = 0.17704 0.30962
# Poissons Ratio (y) = 0.22973 0.48797
# Poissons Ratio (z) = 0.30258 0.36750
#
# Static dielectric constant tensor:
#      x y z
#    x 3.305520 0.000000 0.000000 
#    y 0.000000 2.716630 0.000000 
#    z 0.000000 0.000000 3.040230 
# 
# 
# High freq. dielectric constant tensor:
#      x y z
#    x 1.594790 0.000000 0.000000 
#    y 0.000000 1.563660 0.000000 
#    z 0.000000 0.000000 1.586150 
# 
# From -- ./inp_files/35055.got.cif
#   From: 2010.03.12/outbox.cif.g09.slc.cpg/sg64_18_cif.got.tgz:35055.got - 2010.04.10 20:19:32.
