data_PCOD8261862
_publ_section_title
;
Structure prediction by ZEFSAII (Michael W. Deem and Ramdas Pophale) SiO2 
 PCOD8261862
Probable space group: C M C A
;
_chemical_formula_sum "Si O2"
_cell_formula_units_Z 96
_cell_length_a 17.039725
_cell_length_b 26.533986
_cell_length_c 9.867740
_cell_angle_alpha 90.000000
_cell_angle_beta 90.000000
_cell_angle_gamma 90.000000
_cell_volume 4461.519291
_symmetry_space_group_name_H-M "C M C A"
_symmetry_group_IT_number 64
_symmetry_cell_setting 'orthorhombic'
loop_
_space_group_symop_operation_xyz
x,y,z
-x,1/2-y,1/2+z
x,-y,-z
-x,1/2+y,1/2-z
-x,-y,-z
x,1/2+y,1/2-z
-x,y,z
x,1/2-y,1/2+z
1/2+x,1/2+y,z
1/2-x,-y,1/2+z
1/2+x,1/2-y,-z
1/2-x,y,1/2-z
1/2-x,1/2-y,-z
1/2+x,y,1/2-z
1/2-x,1/2+y,z
1/2+x,-y,1/2+z
loop_
_atom_site_type_symbol
_atom_site_label
_atom_site_fract_x
_atom_site_fract_y
_atom_site_fract_z
Si Si1 0.643552 0.393629 0.521930
Si Si2 0.342771 0.536987 0.243083
Si Si3 0.657476 0.925459 0.268611
Si Si4 0.672041 0.621825 0.042247
Si Si5 0.587733 0.786326 0.953534
Si Si6 0.335744 0.772973 0.683239
O O1 0.623609 0.442510 0.613430
O O2 0.619315 0.404328 0.367815
O O3 0.734319 0.379837 0.543031
O O4 0.593231 0.346109 0.569106
O O5 0.250000 0.532415 0.250000
O O6 0.377174 0.481797 0.206734
O O7 0.366187 0.576613 0.127734
O O8 0.750000 0.929823 0.250000
O O9 0.638214 0.886683 0.390503
O O10 0.645970 0.674448 0.107406
O O11 0.500000 0.770436 0.996972
O O12 0.605519 0.762084 0.807153
O O13 0.650232 0.769736 0.069302
O O14 0.250000 0.770339 0.750000
#
# Coordination Sequence:
#
# PCOD8261862 Si02
#       6
#    16  16  16  16  16  16
#     4  10  19  34  55  85 125 161 206 248 314 373
#     4   9  15  30  51  84 125 161 200 252 313 363
#     4   9  18  27  52  89 127 158 197 258 307 364
#     4  10  18  33  56  92 120 157 203 259 313 365
#     4  12  27  44  64  92 127 167 211 265 330 387
#     4  12  24  44  67  94 122 166 217 269 321 386
#
# _framework density 21.517334999999999
#
# number of rings (size 3 to 8) (size 9 to 14) (size 15 to 20)
#    0.000    1.667    3.333    2.500    2.333    4.667 
#    0.000    0.000    0.000    2.000    0.000    1.167 
#    0.000    0.000    0.000    0.000    0.000    0.000 
#
# Total GULP energy -595022.397305 kJ/mol
# GULP energy per Si atom -12396.299944 kJ/mol
# Density = 2.146836 g / cm^3
# Si number density = 21.517335 Si / 1000 Ang^3
#
#
#
# Elastic Constant Matrix: (Units=GPa)
#
#
# Indices 1 2 3 4 5 6 
#
# 1 33.8130 23.5089 34.1473 0.0000 0.0000 0.0000
# 2 23.5089 85.8034 38.8952 0.0000 0.0000 0.0000
# 3 34.1473 38.8952 164.7135 0.0000 0.0000 0.0000
# 4 0.0000 0.0000 0.0000 42.4751 0.0000 0.0000
# 5 0.0000 0.0000 0.0000 0.0000 16.2824 0.0000
# 6 0.0000 0.0000 0.0000 0.0000 0.0000 6.7899
#
#
#
# Elastic Compliance Matrix: (Units=1/GPa)
#
#
# Indices 1 2 3 4 5 6 
#
# 1 0.042337 -0.008535 -0.006762 0.000000 0.000000 0.000000
# 2 -0.008535 0.014772 -0.001719 0.000000 0.000000 0.000000
# 3 -0.006762 -0.001719 0.007879 0.000000 0.000000 0.000000
# 4 0.000000 0.000000 0.000000 0.023543 0.000000 0.000000
# 5 0.000000 0.000000 0.000000 0.000000 0.061416 0.000000
# 6 0.000000 0.000000 0.000000 0.000000 0.000000 0.147277
#
#
# Mechanical properties :
#
#
# Convention : Reuss Voigt Hill
#
# Bulk Modulus (GPa) = 32.30249 53.04808 42.67528
# Shear Modulus (GPa) = 14.63814 25.62806 20.13310
#
# Velocity S-wave (km/s) = 2.61108 3.45489 3.06219
# Velocity P-wave (km/s) = 4.91276 6.37356 5.69023
#
# Compressibility (1/GPa) = 0.03095737
#
# Stress axis : x y z
#
# Youngs Moduli (GPa) = 23.62020 67.69527 126.92235
#
# Poissons Ratio (x) = 0.57775 0.85820
# Poissons Ratio (y) = 0.20159 0.21817
# Poissons Ratio (z) = 0.15971 0.11636
#
# Static dielectric constant tensor:
#      x y z
#    x 3.228660 0.000000 0.000000 
#    y 0.000000 3.975800 0.000000 
#    z 0.000000 0.000000 4.235580 
# 
# 
# High freq. dielectric constant tensor:
#      x y z
#    x 1.774730 0.000000 0.000000 
#    y 0.000000 1.849080 0.000000 
#    z 0.000000 0.000000 1.865050 
# 
# From -- ./inp_files/8429.got.cif
#   From: 2010.03.12/outbox.cif.g09.slc.cpg/sg64_5_cif.got.tgz:8429.got - 2010.04.10 20:19:32.
