data_PCOD8261909
_publ_section_title
;
Structure prediction by ZEFSAII (Michael W. Deem and Ramdas Pophale) SiO2 
 PCOD8261909
Probable space group: C M C A
;
_chemical_formula_sum "Si O2"
_cell_formula_units_Z 112
_cell_length_a 19.512525
_cell_length_b 17.051329
_cell_length_c 17.898890
_cell_angle_alpha 90.000000
_cell_angle_beta 90.000000
_cell_angle_gamma 90.000000
_cell_volume 5955.219940
_symmetry_space_group_name_H-M "C M C A"
_symmetry_group_IT_number 64
_symmetry_cell_setting 'orthorhombic'
loop_
_space_group_symop_operation_xyz
x,y,z
-x,1/2-y,1/2+z
x,-y,-z
-x,1/2+y,1/2-z
-x,-y,-z
x,1/2+y,1/2-z
-x,y,z
x,1/2-y,1/2+z
1/2+x,1/2+y,z
1/2-x,-y,1/2+z
1/2+x,1/2-y,-z
1/2-x,y,1/2-z
1/2-x,1/2-y,-z
1/2+x,y,1/2-z
1/2-x,1/2+y,z
1/2+x,-y,1/2+z
loop_
_atom_site_type_symbol
_atom_site_label
_atom_site_fract_x
_atom_site_fract_y
_atom_site_fract_z
Si Si1 0.834456 0.608686 0.327544
Si Si2 0.686282 0.262928 0.407411
Si Si3 0.322134 0.898326 0.208072
Si Si4 0.680397 0.571276 0.335206
Si Si5 0.341934 0.788826 0.928186
Si Si6 0.921464 0.164191 0.834569
Si Si7 0.922352 0.492853 0.418489
O O1 0.850998 0.692692 0.363749
O O2 0.761630 0.571161 0.348368
O O3 0.839872 0.620321 0.238739
O O4 0.888709 0.546042 0.355672
O O5 0.685858 0.343050 0.362501
O O6 0.644034 0.277321 0.483904
O O7 0.764751 0.239138 0.415821
O O8 0.250000 0.909005 0.250000
O O9 0.378679 0.860833 0.261972
O O10 0.346352 0.982341 0.174696
O O11 0.648151 0.619286 0.405052
O O12 0.392870 0.740801 0.875420
O O13 0.000000 0.178992 0.809690
O O14 0.916481 0.096959 0.896098
O O15 0.886468 0.500000 0.500000
O O16 0.000000 0.522243 0.424429
#
# Coordination Sequence:
#
# PCOD8261909 Si02
#       7
#    16  16  16  16  16  16  16
#     4  10  18  35  51  84 111 149 194 240 290 346
#     4  10  22  34  61  85 117 153 198 247 292 349
#     4  12  20  38  61  86 115 159 196 245 295 348
#     4  10  20  34  57  80 114 150 200 242 291 344
#     4  10  21  39  54  88 119 154 195 245 299 346
#     4  11  22  38  60  88 120 155 198 243 298 358
#     4  10  20  34  56  85 120 155 185 233 299 360
#
# _framework density 18.807030999999998
#
# number of rings (size 3 to 8) (size 9 to 14) (size 15 to 20)
#    0.000    1.571    4.286    1.714    2.000    0.571 
#    0.000    4.286    0.000    0.000    0.000    2.000 
#    0.000    0.000    0.000    0.000    0.000    0.000 
#
# Total GULP energy -694285.007553 kJ/mol
# GULP energy per Si atom -12397.946563 kJ/mol
# Density = 1.876423 g / cm^3
# Si number density = 18.807031 Si / 1000 Ang^3
#
#
#
# Elastic Constant Matrix: (Units=GPa)
#
#
# Indices 1 2 3 4 5 6 
#
# 1 50.7272 25.1582 17.3965 0.0000 0.0000 0.0000
# 2 25.1582 124.4233 50.5422 0.0000 0.0000 0.0000
# 3 17.3965 50.5422 77.2447 0.0000 0.0000 0.0000
# 4 0.0000 0.0000 0.0000 29.9010 0.0000 0.0000
# 5 0.0000 0.0000 0.0000 0.0000 18.6324 0.0000
# 6 0.0000 0.0000 0.0000 0.0000 0.0000 18.5485
#
#
#
# Elastic Compliance Matrix: (Units=1/GPa)
#
#
# Indices 1 2 3 4 5 6 
#
# 1 0.022355 -0.003371 -0.002829 0.000000 0.000000 0.000000
# 2 -0.003371 0.011455 -0.006736 0.000000 0.000000 0.000000
# 3 -0.002829 -0.006736 0.017990 0.000000 0.000000 0.000000
# 4 0.000000 0.000000 0.000000 0.033444 0.000000 0.000000
# 5 0.000000 0.000000 0.000000 0.000000 0.053670 0.000000
# 6 0.000000 0.000000 0.000000 0.000000 0.000000 0.053913
#
#
# Mechanical properties :
#
#
# Convention : Reuss Voigt Hill
#
# Bulk Modulus (GPa) = 38.56721 48.73212 43.64966
# Shear Modulus (GPa) = 21.99333 24.03627 23.01480
#
# Velocity S-wave (km/s) = 3.42339 3.57886 3.50199
# Velocity P-wave (km/s) = 6.01477 6.56091 6.29377
#
# Compressibility (1/GPa) = 0.02592876
#
# Stress axis : x y z
#
# Youngs Moduli (GPa) = 44.73200 87.29893 55.58534
#
# Poissons Ratio (x) = 0.29429 0.15725
# Poissons Ratio (y) = 0.15079 0.37442
# Poissons Ratio (z) = 0.12655 0.58803
#
# Static dielectric constant tensor:
#      x y z
#    x 3.250630 0.000000 0.000000 
#    y 0.000000 3.558630 0.000000 
#    z 0.000000 0.000000 3.669810 
# 
# 
# High freq. dielectric constant tensor:
#      x y z
#    x 1.695410 0.000000 0.000000 
#    y 0.000000 1.739940 0.000000 
#    z 0.000000 0.000000 1.736050 
# 
# From -- ./inp_files/34503.got.cif
#   From: 2010.03.12/outbox.cif.g09.slc.cpg/sg64_18_cif.got.tgz:34503.got - 2010.04.10 20:19:32.
