data_PCOD8261321
_publ_section_title
;
Structure prediction by ZEFSAII (Michael W. Deem and Ramdas Pophale) SiO2 
 PCOD8261321
Probable space group: C M C M
;
_chemical_formula_sum "Si O2"
_cell_formula_units_Z 80
_cell_length_a 19.283131
_cell_length_b 25.660075
_cell_length_c 9.666962
_cell_angle_alpha 90.000000
_cell_angle_beta 90.000000
_cell_angle_gamma 90.000000
_cell_volume 4783.276481
_symmetry_space_group_name_H-M "C M C M"
_symmetry_group_IT_number 63
_symmetry_cell_setting 'orthorhombic'
loop_
_space_group_symop_operation_xyz
x,y,z
-x,-y,1/2+z
x,-y,-z
-x,y,1/2-z
-x,-y,-z
x,y,1/2-z
-x,y,z
x,-y,1/2+z
1/2+x,1/2+y,z
1/2-x,1/2-y,1/2+z
1/2+x,1/2-y,-z
1/2-x,1/2+y,1/2-z
1/2-x,1/2-y,-z
1/2+x,1/2+y,1/2-z
1/2-x,1/2+y,z
1/2+x,1/2-y,1/2+z
loop_
_atom_site_type_symbol
_atom_site_label
_atom_site_fract_x
_atom_site_fract_y
_atom_site_fract_z
Si Si1 0.922766 0.642456 0.414469
Si Si2 0.834021 0.049064 0.409728
Si Si3 0.673478 0.049482 0.089149
Si Si4 0.580897 0.350665 0.590209
Si Si5 0.582462 0.743252 0.596024
O O1 0.925876 0.642773 0.250000
O O2 0.870121 0.598492 0.467862
O O3 0.895490 0.699650 0.461886
O O4 0.000000 0.631082 0.473752
O O5 0.848703 0.035692 0.250000
O O6 0.753797 0.062506 0.435259
O O7 0.878617 0.098205 0.459671
O O8 0.857993 0.000000 0.500000
O O9 0.657862 0.037964 0.250000
O O10 0.649940 0.000000 0.000000
O O11 0.595784 0.338823 0.750000
O O12 0.500000 0.360104 0.561410
O O13 0.610662 0.301537 0.505274
O O14 0.612761 0.733513 0.750000
O O15 0.500000 0.741858 0.601847
#
# Coordination Sequence:
#
# PCOD8261321 Si02
#       5
#    16  16  16  16  16
#     4   8  14  26  45  66  86 110 140 171 203 243
#     4   9  18  31  45  61  83 112 142 171 208 251
#     4   9  17  30  46  62  84 113 141 171 208 248
#     4   9  17  29  44  62  85 111 138 171 211 250
#     4   8  14  26  44  64  84 108 139 171 204 245
#
# _framework density 16.724938000000002
#
# number of rings (size 3 to 8) (size 9 to 14) (size 15 to 20)
#    0.000    3.400    0.000    1.200    0.000    1.600 
#    0.000    2.000    0.000    1.200    0.000    0.000 
#    0.000    0.000    0.000    0.000    0.000    0.000 
#
# Total GULP energy -495858.483467 kJ/mol
# GULP energy per Si atom -12396.462087 kJ/mol
# Density = 1.668687 g / cm^3
# Si number density = 16.724938 Si / 1000 Ang^3
#
#
#
# Elastic Constant Matrix: (Units=GPa)
#
#
# Indices 1 2 3 4 5 6 
#
# 1 49.5220 67.2279 29.5343 0.0000 0.0000 0.0000
# 2 67.2279 188.1561 70.3774 0.0000 0.0000 0.0000
# 3 29.5343 70.3774 54.5594 0.0000 0.0000 0.0000
# 4 0.0000 0.0000 0.0000 32.3559 0.0000 0.0000
# 5 0.0000 0.0000 0.0000 0.0000 14.1853 0.0000
# 6 0.0000 0.0000 0.0000 0.0000 0.0000 13.3933
#
#
#
# Elastic Compliance Matrix: (Units=1/GPa)
#
#
# Indices 1 2 3 4 5 6 
#
# 1 0.040291 -0.012054 -0.006262 0.000000 0.000000 0.000000
# 2 -0.012054 0.013876 -0.011374 0.000000 0.000000 0.000000
# 3 -0.006262 -0.011374 0.036390 0.000000 0.000000 0.000000
# 4 0.000000 0.000000 0.000000 0.030906 0.000000 0.000000
# 5 0.000000 0.000000 0.000000 0.000000 0.070496 0.000000
# 6 0.000000 0.000000 0.000000 0.000000 0.000000 0.074664
#
#
# Mechanical properties :
#
#
# Convention : Reuss Voigt Hill
#
# Bulk Modulus (GPa) = 32.07464 69.61296 50.84380
# Shear Modulus (GPa) = 14.86355 20.32675 17.59515
#
# Velocity S-wave (km/s) = 2.98435 3.48998 3.24702
# Velocity P-wave (km/s) = 5.57624 7.61266 6.67259
#
# Compressibility (1/GPa) = 0.03117728
#
# Stress axis : x y z
#
# Youngs Moduli (GPa) = 24.81953 72.06908 27.48039
#
# Poissons Ratio (x) = 0.86869 0.17209
# Poissons Ratio (y) = 0.29916 0.31255
# Poissons Ratio (z) = 0.15543 0.81968
#
# Static dielectric constant tensor:
#      x y z
#    x 3.009400 0.000000 0.000000 
#    y 0.000000 3.460290 0.000000 
#    z 0.000000 0.000000 3.042520 
# 
# 
# High freq. dielectric constant tensor:
#      x y z
#    x 1.620690 0.000000 0.000000 
#    y 0.000000 1.654420 0.000000 
#    z 0.000000 0.000000 1.622060 
# 
# From -- ./inp_files/6449.got.cif
#   From: 2010.03.12/outbox.cif.g09.slc.cpg/sg63_4_cif.got.tgz:6449.got - 2010.04.10 19:34:48.
