data_PCOD8261493
_publ_section_title
;
Structure prediction by ZEFSAII (Michael W. Deem and Ramdas Pophale) SiO2 
 PCOD8261493
Probable space group: C M C A
;
_chemical_formula_sum "Si O2"
_cell_formula_units_Z 96
_cell_length_a 9.082494
_cell_length_b 24.256982
_cell_length_c 25.715126
_cell_angle_alpha 90.000000
_cell_angle_beta 90.000000
_cell_angle_gamma 90.000000
_cell_volume 5665.399530
_symmetry_space_group_name_H-M "C M C A"
_symmetry_group_IT_number 64
_symmetry_cell_setting 'orthorhombic'
loop_
_space_group_symop_operation_xyz
x,y,z
-x,1/2-y,1/2+z
x,-y,-z
-x,1/2+y,1/2-z
-x,-y,-z
x,1/2+y,1/2-z
-x,y,z
x,1/2-y,1/2+z
1/2+x,1/2+y,z
1/2-x,-y,1/2+z
1/2+x,1/2-y,-z
1/2-x,y,1/2-z
1/2-x,1/2-y,-z
1/2+x,y,1/2-z
1/2-x,1/2+y,z
1/2+x,-y,1/2+z
loop_
_atom_site_type_symbol
_atom_site_label
_atom_site_fract_x
_atom_site_fract_y
_atom_site_fract_z
Si Si1 0.173478 0.919730 0.605144
Si Si2 0.825172 0.751002 0.114544
Si Si3 0.166655 0.139218 0.927079
Si Si4 0.324305 0.018111 0.558155
Si Si5 0.331140 0.829920 0.542319
Si Si6 0.329306 0.337992 0.695852
O O1 0.242836 0.883981 0.559235
O O2 0.209735 0.890785 0.660234
O O3 0.000000 0.924664 0.596438
O O4 0.249008 0.979526 0.601664
O O5 0.777603 0.816122 0.116394
O O6 0.741916 0.724318 0.065858
O O7 0.779440 0.718734 0.167096
O O8 0.000000 0.744718 0.104914
O O9 0.243268 0.079233 0.929501
O O10 0.000000 0.124440 0.914230
O O11 0.180086 0.172893 0.980498
O O12 0.500000 0.014713 0.563375
O O13 0.276928 0.000000 0.500000
O O14 0.500000 0.835115 0.560925
O O15 0.500000 0.335580 0.708027
O O16 0.250000 0.344385 0.750000
#
# Coordination Sequence:
#
# PCOD8261493 Si02
#       6
#    16  16  16  16  16  16
#     4  10  20  33  48  72 101 129 162 205 250 288
#     4   9  18  32  47  69  98 126 157 197 244 292
#     4   9  17  29  46  67  99 136 164 192 232 280
#     4  10  18  31  49  71 100 136 175 202 226 281
#     4  10  17  28  46  69  97 131 165 198 230 279
#     4   9  19  34  53  73  93 118 156 205 254 300
#
# _framework density 16.944966000000001
#
# number of rings (size 3 to 8) (size 9 to 14) (size 15 to 20)
#    0.000    2.500    1.667    2.500    0.000    3.667 
#    0.000    1.667    0.000    1.000    0.000    4.667 
#    0.000    0.000    0.000    0.000    0.000    0.000 
#
# Total GULP energy -594760.880817 kJ/mol
# GULP energy per Si atom -12390.851684 kJ/mol
# Density = 1.690640 g / cm^3
# Si number density = 16.944966 Si / 1000 Ang^3
#
#
#
# Elastic Constant Matrix: (Units=GPa)
#
#
# Indices 1 2 3 4 5 6 
#
# 1 44.3403 40.6125 28.6520 0.0000 0.0000 0.0000
# 2 40.6125 150.0356 58.0493 0.0000 0.0000 0.0000
# 3 28.6520 58.0493 67.9571 0.0000 0.0000 0.0000
# 4 0.0000 0.0000 0.0000 14.8034 0.0000 0.0000
# 5 0.0000 0.0000 0.0000 0.0000 22.0752 0.0000
# 6 0.0000 0.0000 0.0000 0.0000 0.0000 19.1715
#
#
#
# Elastic Compliance Matrix: (Units=1/GPa)
#
#
# Indices 1 2 3 4 5 6 
#
# 1 0.033707 -0.005415 -0.009586 0.000000 0.000000 0.000000
# 2 -0.005415 0.010825 -0.006964 0.000000 0.000000 0.000000
# 3 -0.009586 -0.006964 0.024705 0.000000 0.000000 0.000000
# 4 0.000000 0.000000 0.000000 0.067552 0.000000 0.000000
# 5 0.000000 0.000000 0.000000 0.000000 0.045300 0.000000
# 6 0.000000 0.000000 0.000000 0.000000 0.000000 0.052161
#
#
# Mechanical properties :
#
#
# Convention : Reuss Voigt Hill
#
# Bulk Modulus (GPa) = 39.51347 57.44006 48.47677
# Shear Modulus (GPa) = 17.44499 20.21131 18.82815
#
# Velocity S-wave (km/s) = 3.21208 3.45739 3.33699
# Velocity P-wave (km/s) = 6.09310 7.06467 6.59680
#
# Compressibility (1/GPa) = 0.02530782
#
# Stress axis : x y z
#
# Youngs Moduli (GPa) = 29.66744 92.37678 40.47732
#
# Poissons Ratio (x) = 0.50024 0.38801
# Poissons Ratio (y) = 0.16066 0.28188
# Poissons Ratio (z) = 0.28438 0.64329
#
# Static dielectric constant tensor:
#      x y z
#    x 3.075960 0.000000 0.000000 
#    y 0.000000 3.538360 0.000000 
#    z 0.000000 0.000000 2.904560 
# 
# 
# High freq. dielectric constant tensor:
#      x y z
#    x 1.641180 0.000000 0.000000 
#    y 0.000000 1.665290 0.000000 
#    z 0.000000 0.000000 1.615500 
# 
# From -- ./inp_files/43014.got.cif
#   From: 2010.03.12/outbox.cif.g09.slc.cpg/sg64_22_cif.got.tgz:43014.got - 2010.04.10 20:19:32.
