data_PCOD8261507
_publ_section_title
;
Structure prediction by ZEFSAII (Michael W. Deem and Ramdas Pophale) SiO2 
 PCOD8261507
Probable space group: C M C A
;
_chemical_formula_sum "Si O2"
_cell_formula_units_Z 112
_cell_length_a 24.731047
_cell_length_b 26.767032
_cell_length_c 10.043050
_cell_angle_alpha 90.000000
_cell_angle_beta 90.000000
_cell_angle_gamma 90.000000
_cell_volume 6648.265362
_symmetry_space_group_name_H-M "C M C A"
_symmetry_group_IT_number 64
_symmetry_cell_setting 'orthorhombic'
loop_
_space_group_symop_operation_xyz
x,y,z
-x,1/2-y,1/2+z
x,-y,-z
-x,1/2+y,1/2-z
-x,-y,-z
x,1/2+y,1/2-z
-x,y,z
x,1/2-y,1/2+z
1/2+x,1/2+y,z
1/2-x,-y,1/2+z
1/2+x,1/2-y,-z
1/2-x,y,1/2-z
1/2-x,1/2-y,-z
1/2+x,y,1/2-z
1/2-x,1/2+y,z
1/2+x,-y,1/2+z
loop_
_atom_site_type_symbol
_atom_site_label
_atom_site_fract_x
_atom_site_fract_y
_atom_site_fract_z
Si Si1 0.403943 0.622683 0.279487
Si Si2 0.063244 0.913594 0.245988
Si Si3 0.436980 0.516100 0.348664
Si Si4 0.863157 0.255766 0.503670
Si Si5 0.938596 0.653278 0.507152
Si Si6 0.438777 0.333708 0.453234
Si Si7 0.687605 0.301044 0.740241
O O1 0.400763 0.563499 0.306580
O O2 0.434214 0.635035 0.143230
O O3 0.438890 0.648345 0.394749
O O4 0.344069 0.646544 0.275524
O O5 0.085283 0.970030 0.259547
O O6 0.086924 0.876592 0.358996
O O7 0.000000 0.917060 0.275404
O O8 0.077476 0.893594 0.099844
O O9 0.427602 0.500000 0.500000
O O10 0.500000 0.529258 0.322944
O O11 0.899742 0.301431 0.452105
O O12 0.902923 0.215012 0.566170
O O13 0.825143 0.273321 0.622530
O O14 0.826607 0.235145 0.383370
O O15 0.000000 0.670186 0.536947
O O16 0.500000 0.320528 0.410503
O O17 0.750000 0.315004 0.750000
#
# Coordination Sequence:
#
# PCOD8261507 Si02
#       7
#    16  16  16  16  16  16  16
#     4  10  20  31  49  73  94 131 171 201 248 293
#     4   9  18  28  44  68 101 137 163 190 228 276
#     4  10  17  29  49  74 100 129 162 197 235 290
#     4  10  20  32  52  75  98 132 166 196 250 294
#     4  10  19  31  44  72 111 136 157 192 238 299
#     4  10  17  29  47  73 104 134 164 192 228 294
#     4  10  21  37  53  72  94 126 169 219 252 286
#
# _framework density 16.846499000000001
#
# number of rings (size 3 to 8) (size 9 to 14) (size 15 to 20)
#    0.000    2.143    1.429    3.000    0.000    0.571 
#    0.000    6.429    0.000    0.000    7.429    1.000 
#    0.000    0.000    0.000    0.000    0.000    0.000 
#
# Total GULP energy -694342.180711 kJ/mol
# GULP energy per Si atom -12398.967513 kJ/mol
# Density = 1.680816 g / cm^3
# Si number density = 16.846499 Si / 1000 Ang^3
#
#
#
# Elastic Constant Matrix: (Units=GPa)
#
#
# Indices 1 2 3 4 5 6 
#
# 1 83.3604 46.0342 30.1428 0.0000 0.0000 0.0000
# 2 46.0342 126.5203 37.7076 0.0000 0.0000 0.0000
# 3 30.1428 37.7076 92.3171 0.0000 0.0000 0.0000
# 4 0.0000 0.0000 0.0000 31.3242 0.0000 0.0000
# 5 0.0000 0.0000 0.0000 0.0000 12.2179 0.0000
# 6 0.0000 0.0000 0.0000 0.0000 0.0000 14.9235
#
#
#
# Elastic Compliance Matrix: (Units=1/GPa)
#
#
# Indices 1 2 3 4 5 6 
#
# 1 0.015802 -0.004795 -0.003201 0.000000 0.000000 0.000000
# 2 -0.004795 0.010455 -0.002705 0.000000 0.000000 0.000000
# 3 -0.003201 -0.002705 0.012982 0.000000 0.000000 0.000000
# 4 0.000000 0.000000 0.000000 0.031924 0.000000 0.000000
# 5 0.000000 0.000000 0.000000 0.000000 0.081847 0.000000
# 6 0.000000 0.000000 0.000000 0.000000 0.000000 0.067008
#
#
# Mechanical properties :
#
#
# Convention : Reuss Voigt Hill
#
# Bulk Modulus (GPa) = 56.06332 58.88520 57.47426
# Shear Modulus (GPa) = 20.21304 24.24734 22.23019
#
# Velocity S-wave (km/s) = 3.46762 3.79794 3.63653
# Velocity P-wave (km/s) = 7.02735 7.36630 7.19882
#
# Compressibility (1/GPa) = 0.01783697
#
# Stress axis : x y z
#
# Youngs Moduli (GPa) = 63.28441 95.65034 77.02977
#
# Poissons Ratio (x) = 0.45869 0.24655
# Poissons Ratio (y) = 0.30348 0.20833
# Poissons Ratio (z) = 0.20255 0.25869
#
# Static dielectric constant tensor:
#      x y z
#    x 2.794460 0.000000 0.000000 
#    y 0.000000 3.343730 0.000000 
#    z 0.000000 0.000000 3.220430 
# 
# 
# High freq. dielectric constant tensor:
#      x y z
#    x 1.603790 0.000000 0.000000 
#    y 0.000000 1.656310 0.000000 
#    z 0.000000 0.000000 1.664050 
# 
# From -- ./inp_files/17685.got.cif
#   From: 2010.03.12/outbox.cif.g09.slc.cpg/sg64_9_cif.got.tgz:17685.got - 2010.04.10 20:19:32.
