data_PCOD8261732
_publ_section_title
;
Structure prediction by ZEFSAII (Michael W. Deem and Ramdas Pophale) SiO2 
 PCOD8261732
Probable space group: C M C A
;
_chemical_formula_sum "Si O2"
_cell_formula_units_Z 80
_cell_length_a 15.819618
_cell_length_b 28.679972
_cell_length_c 9.064956
_cell_angle_alpha 90.000000
_cell_angle_beta 90.000000
_cell_angle_gamma 90.000000
_cell_volume 4112.826752
_symmetry_space_group_name_H-M "C M C A"
_symmetry_group_IT_number 64
_symmetry_cell_setting 'orthorhombic'
loop_
_space_group_symop_operation_xyz
x,y,z
-x,1/2-y,1/2+z
x,-y,-z
-x,1/2+y,1/2-z
-x,-y,-z
x,1/2+y,1/2-z
-x,y,z
x,1/2-y,1/2+z
1/2+x,1/2+y,z
1/2-x,-y,1/2+z
1/2+x,1/2-y,-z
1/2-x,y,1/2-z
1/2-x,1/2-y,-z
1/2+x,y,1/2-z
1/2-x,1/2+y,z
1/2+x,-y,1/2+z
loop_
_atom_site_type_symbol
_atom_site_label
_atom_site_fract_x
_atom_site_fract_y
_atom_site_fract_z
Si Si1 0.247488 0.046027 0.419657
Si Si2 0.664640 0.134453 0.163178
Si Si3 0.600103 0.196405 0.623445
Si Si4 0.595472 0.604722 0.043570
Si Si5 0.600487 0.285773 0.451258
O O1 0.250000 0.032335 0.250000
O O2 0.181978 0.088939 0.439806
O O3 0.340793 0.061310 0.477183
O O4 0.214485 0.000000 0.500000
O O5 0.750000 0.147810 0.250000
O O6 0.594738 0.123081 0.287414
O O7 0.634854 0.175507 0.060674
O O8 0.500000 0.199619 0.629599
O O9 0.628084 0.145949 0.564477
O O10 0.633428 0.235852 0.510085
O O11 0.637263 0.205605 0.787220
O O12 0.500000 0.589184 0.003055
O O13 0.500000 0.288421 0.450441
#
# Coordination Sequence:
#
# PCOD8261732 Si02
#       5
#    16  16  16  16  16
#     4   9  20  36  53  72  97 129 162 200 252 302
#     4   9  19  34  50  72  99 132 168 201 245 294
#     4   9  18  30  49  77 102 129 164 203 246 288
#     4   9  17  33  54  75  99 127 165 207 245 288
#     4  10  18  31  51  73 101 135 168 201 241 290
#
# _framework density 19.451343000000001
#
# number of rings (size 3 to 8) (size 9 to 14) (size 15 to 20)
#    0.000    3.200    0.000    1.800    0.000    5.200 
#    0.000   12.000    0.000   15.000    0.000    0.000 
#    0.000    0.000    0.000    0.000    0.000    0.000 
#
# Total GULP energy -495777.069336 kJ/mol
# GULP energy per Si atom -12394.426733 kJ/mol
# Density = 1.940707 g / cm^3
# Si number density = 19.451343 Si / 1000 Ang^3
#
#
#
# Elastic Constant Matrix: (Units=GPa)
#
#
# Indices 1 2 3 4 5 6 
#
# 1 14.8320 1.6450 6.0395 0.0000 0.0000 0.0000
# 2 1.6450 74.8963 35.2104 0.0000 0.0000 0.0000
# 3 6.0395 35.2104 76.5892 0.0000 0.0000 0.0000
# 4 0.0000 0.0000 0.0000 37.2250 0.0000 0.0000
# 5 0.0000 0.0000 0.0000 0.0000 17.7830 0.0000
# 6 0.0000 0.0000 0.0000 0.0000 0.0000 20.9434
#
#
#
# Elastic Compliance Matrix: (Units=1/GPa)
#
#
# Indices 1 2 3 4 5 6 
#
# 1 0.069765 0.001345 -0.006120 0.000000 0.000000 0.000000
# 2 0.001345 0.017059 -0.007949 0.000000 0.000000 0.000000
# 3 -0.006120 -0.007949 0.017193 0.000000 0.000000 0.000000
# 4 0.000000 0.000000 0.000000 0.026864 0.000000 0.000000
# 5 0.000000 0.000000 0.000000 0.000000 0.056234 0.000000
# 6 0.000000 0.000000 0.000000 0.000000 0.000000 0.047748
#
#
# Mechanical properties :
#
#
# Convention : Reuss Voigt Hill
#
# Bulk Modulus (GPa) = 12.72749 28.01193 20.36971
# Shear Modulus (GPa) = 17.45205 23.41843 20.43524
#
# Velocity S-wave (km/s) = 2.99861 3.47356 3.24479
# Velocity P-wave (km/s) = 4.30654 5.52447 4.95308
#
# Compressibility (1/GPa) = 0.07857007
#
# Stress axis : x y z
#
# Youngs Moduli (GPa) = 14.33393 58.61982 58.16166
#
# Poissons Ratio (x) = -0.07882 0.35592
# Poissons Ratio (y) = -0.01927 0.46230
# Poissons Ratio (z) = 0.08772 0.46595
#
# Static dielectric constant tensor:
#      x y z
#    x 3.327060 0.000000 0.000000 
#    y 0.000000 3.520610 0.000000 
#    z 0.000000 0.000000 3.709570 
# 
# 
# High freq. dielectric constant tensor:
#      x y z
#    x 1.737020 0.000000 0.000000 
#    y 0.000000 1.751420 0.000000 
#    z 0.000000 0.000000 1.755880 
# 
# From -- ./inp_files/7257.got.cif
#   From: 2010.03.12/outbox.cif.g09.slc.cpg/sg64_4_cif.got.tgz:7257.got - 2010.04.10 20:19:32.
