data_PCOD8261540
_publ_section_title
;
Structure prediction by ZEFSAII (Michael W. Deem and Ramdas Pophale) SiO2 
 PCOD8261540
Probable space group: C M C A
;
_chemical_formula_sum "Si O2"
_cell_formula_units_Z 120
_cell_length_a 14.340577
_cell_length_b 19.712448
_cell_length_c 21.390372
_cell_angle_alpha 90.000000
_cell_angle_beta 90.000000
_cell_angle_gamma 90.000000
_cell_volume 6046.798879
_symmetry_space_group_name_H-M "C M C A"
_symmetry_group_IT_number 64
_symmetry_cell_setting 'orthorhombic'
loop_
_space_group_symop_operation_xyz
x,y,z
-x,1/2-y,1/2+z
x,-y,-z
-x,1/2+y,1/2-z
-x,-y,-z
x,1/2+y,1/2-z
-x,y,z
x,1/2-y,1/2+z
1/2+x,1/2+y,z
1/2-x,-y,1/2+z
1/2+x,1/2-y,-z
1/2-x,y,1/2-z
1/2-x,1/2-y,-z
1/2+x,y,1/2-z
1/2-x,1/2+y,z
1/2+x,-y,1/2+z
loop_
_atom_site_type_symbol
_atom_site_label
_atom_site_fract_x
_atom_site_fract_y
_atom_site_fract_z
Si Si1 0.711057 0.500000 0.000000
Si Si2 0.749381 0.898880 0.098388
Si Si3 0.105274 0.608178 0.416617
Si Si4 0.895377 0.631277 0.691818
Si Si5 0.280760 0.176323 0.318780
Si Si6 0.341528 0.290918 0.014010
Si Si7 0.099418 0.274449 0.871622
Si Si8 0.108657 0.817550 0.326266
O O1 0.774395 0.463163 0.053476
O O2 0.647006 0.551154 0.038858
O O3 0.815355 0.915547 0.159227
O O4 0.817420 0.853842 0.057300
O O5 0.654217 0.860323 0.116844
O O6 0.157565 0.616977 0.350189
O O7 0.110090 0.682022 0.450948
O O8 0.000000 0.588222 0.401578
O O9 0.883136 0.708684 0.670557
O O10 0.880075 0.633752 0.766235
O O11 0.000000 0.604268 0.675661
O O12 0.250000 0.153540 0.250000
O O13 0.186974 0.177175 0.360541
O O14 0.336383 0.247262 0.316994
O O15 0.409495 0.243361 0.054678
O O16 0.250000 0.250000 0.000000
O O17 0.000000 0.308344 0.852391
O O18 0.000000 0.802478 0.340764
#
# Coordination Sequence:
#
# PCOD8261540 Si02
#       8
#     8  16  16  16  16  16  16  16
#     4  10  25  42  63  76 108 152 207 264 297 326
#     4  10  19  35  54  80 110 147 191 246 292 337
#     4  11  23  39  60  85 114 155 202 250 295 341
#     4   9  17  29  52  84 115 146 179 222 281 346
#     4  12  21  35  57  89 128 159 180 228 294 369
#     4  10  17  31  54  81 115 146 185 233 297 351
#     4  10  18  29  49  79 120 154 179 215 273 349
#     4  11  19  32  56  90 123 156 186 225 289 365
#
# _framework density 19.845210999999999
#
# number of rings (size 3 to 8) (size 9 to 14) (size 15 to 20)
#    0.000    1.600    5.333    1.400    0.000    4.267 
#    0.000    2.333    0.000    0.800    0.000    0.000 
#    0.000    0.000    0.000    0.000    0.000    0.000 
#
# Total GULP energy -743443.142930 kJ/mol
# GULP energy per Si atom -12390.719049 kJ/mol
# Density = 1.980004 g / cm^3
# Si number density = 19.845211 Si / 1000 Ang^3
#
#
#
# Elastic Constant Matrix: (Units=GPa)
#
#
# Indices 1 2 3 4 5 6 
#
# 1 107.6579 21.9573 38.2229 0.0000 0.0000 0.0000
# 2 21.9573 47.5110 32.1776 0.0000 0.0000 0.0000
# 3 38.2229 32.1776 101.4476 0.0000 0.0000 0.0000
# 4 0.0000 0.0000 0.0000 34.3780 0.0000 0.0000
# 5 0.0000 0.0000 0.0000 0.0000 23.3693 0.0000
# 6 0.0000 0.0000 0.0000 0.0000 0.0000 13.7525
#
#
#
# Elastic Compliance Matrix: (Units=1/GPa)
#
#
# Indices 1 2 3 4 5 6 
#
# 1 0.011030 -0.002907 -0.003234 0.000000 0.000000 0.000000
# 2 -0.002907 0.027573 -0.007650 0.000000 0.000000 0.000000
# 3 -0.003234 -0.007650 0.013502 0.000000 0.000000 0.000000
# 4 0.000000 0.000000 0.000000 0.029088 0.000000 0.000000
# 5 0.000000 0.000000 0.000000 0.000000 0.042791 0.000000
# 6 0.000000 0.000000 0.000000 0.000000 0.000000 0.072714
#
#
# Mechanical properties :
#
#
# Convention : Reuss Voigt Hill
#
# Bulk Modulus (GPa) = 40.77933 49.03689 44.90811
# Shear Modulus (GPa) = 21.50958 25.25054 23.38006
#
# Velocity S-wave (km/s) = 3.29579 3.57091 3.43610
# Velocity P-wave (km/s) = 5.92252 6.46260 6.19844
#
# Compressibility (1/GPa) = 0.02452223
#
# Stress axis : x y z
#
# Youngs Moduli (GPa) = 90.66435 36.26779 74.06245
#
# Poissons Ratio (x) = 0.10545 0.23948
# Poissons Ratio (y) = 0.26360 0.56659
# Poissons Ratio (z) = 0.29316 0.27745
#
# Static dielectric constant tensor:
#      x y z
#    x 3.656370 0.000000 0.000000 
#    y 0.000000 3.212150 0.000000 
#    z 0.000000 0.000000 4.035890 
# 
# 
# High freq. dielectric constant tensor:
#      x y z
#    x 1.774030 0.000000 0.000000 
#    y 0.000000 1.711680 0.000000 
#    z 0.000000 0.000000 1.788610 
# 
# From -- ./inp_files/45505.got.cif
#   From: 2010.03.12/outbox.cif.g09.slc.cpg/sg64_23_cif.got.tgz:45505.got - 2010.04.10 20:19:32.
