data_PCOD8261007
_publ_section_title
;
Structure prediction by ZEFSAII (Michael W. Deem and Ramdas Pophale) SiO2 
 PCOD8261007
Probable space group: C M C M
;
_chemical_formula_sum "Si O2"
_cell_formula_units_Z 112
_cell_length_a 15.261142
_cell_length_b 28.421197
_cell_length_c 13.944007
_cell_angle_alpha 90.000000
_cell_angle_beta 90.000000
_cell_angle_gamma 90.000000
_cell_volume 6048.072526
_symmetry_space_group_name_H-M "C M C M"
_symmetry_group_IT_number 63
_symmetry_cell_setting 'orthorhombic'
loop_
_space_group_symop_operation_xyz
x,y,z
-x,-y,1/2+z
x,-y,-z
-x,y,1/2-z
-x,-y,-z
x,y,1/2-z
-x,y,z
x,-y,1/2+z
1/2+x,1/2+y,z
1/2-x,1/2-y,1/2+z
1/2+x,1/2-y,-z
1/2-x,1/2+y,1/2-z
1/2-x,1/2-y,-z
1/2+x,1/2+y,1/2-z
1/2-x,1/2+y,z
1/2+x,1/2-y,1/2+z
loop_
_atom_site_type_symbol
_atom_site_label
_atom_site_fract_x
_atom_site_fract_y
_atom_site_fract_z
Si Si1 0.101386 0.726744 0.140370
Si Si2 0.901450 0.629334 0.053992
Si Si3 0.794963 0.968416 0.358824
Si Si4 0.258865 0.575290 0.138173
Si Si5 0.662282 0.673462 0.859296
Si Si6 0.098863 0.094096 0.990130
Si Si7 0.333368 0.116120 0.855735
O O1 0.122340 0.713565 0.250000
O O2 0.130022 0.682244 0.076889
O O3 0.156017 0.772405 0.106780
O O4 0.000000 0.739049 0.125733
O O5 0.835957 0.592973 0.104154
O O6 0.000000 0.620654 0.093528
O O7 0.904395 0.622755 0.938931
O O8 0.830421 0.966709 0.250000
O O9 0.873070 0.951483 0.427844
O O10 0.712666 0.934033 0.371633
O O11 0.763117 0.020193 0.386760
O O12 0.271604 0.585793 0.250000
O O13 0.336927 0.601160 0.081105
O O14 0.627552 0.668773 0.750000
O O15 0.602078 0.640865 0.925727
O O16 0.762654 0.657609 0.866254
O O17 0.000000 0.086348 0.027037
O O18 0.377685 0.118145 0.750000
#
# Coordination Sequence:
#
# PCOD8261007 Si02
#       7
#    16  16  16  16  16  16  16
#     4   9  18  32  52  82 113 140 182 235 277 321
#     4  11  22  37  59  81 106 148 193 232 279 330
#     4   9  19  36  58  79 110 145 179 223 277 331
#     4  11  23  39  55  76 112 151 185 231 277 322
#     4   9  17  33  58  84 112 143 179 229 284 326
#     4  11  21  34  57  86 114 146 184 224 275 338
#     4   9  18  35  56  83 111 138 176 227 280 336
#
# _framework density 18.518295999999999
#
# number of rings (size 3 to 8) (size 9 to 14) (size 15 to 20)
#    0.000    2.143    2.857    2.571    0.000    4.857 
#    0.000    2.857    0.000    2.571    0.000    2.000 
#    0.000    0.000    0.000    0.000    0.000    0.000 
#
# Total GULP energy -694356.073254 kJ/mol
# GULP energy per Si atom -12399.215594 kJ/mol
# Density = 1.847615 g / cm^3
# Si number density = 18.518296 Si / 1000 Ang^3
#
#
#
# Elastic Constant Matrix: (Units=GPa)
#
#
# Indices 1 2 3 4 5 6 
#
# 1 88.1944 42.6003 40.3153 0.0000 0.0000 0.0000
# 2 42.6003 96.6746 46.3322 0.0000 0.0000 0.0000
# 3 40.3153 46.3322 103.5637 0.0000 0.0000 0.0000
# 4 0.0000 0.0000 0.0000 20.7101 0.0000 0.0000
# 5 0.0000 0.0000 0.0000 0.0000 18.7384 0.0000
# 6 0.0000 0.0000 0.0000 0.0000 0.0000 19.9624
#
#
#
# Elastic Compliance Matrix: (Units=1/GPa)
#
#
# Indices 1 2 3 4 5 6 
#
# 1 0.015491 -0.005010 -0.003789 0.000000 0.000000 0.000000
# 2 -0.005010 0.014788 -0.004665 0.000000 0.000000 0.000000
# 3 -0.003789 -0.004665 0.013218 0.000000 0.000000 0.000000
# 4 0.000000 0.000000 0.000000 0.048286 0.000000 0.000000
# 5 0.000000 0.000000 0.000000 0.000000 0.053366 0.000000
# 6 0.000000 0.000000 0.000000 0.000000 0.000000 0.050094
#
#
# Mechanical properties :
#
#
# Convention : Reuss Voigt Hill
#
# Bulk Modulus (GPa) = 60.35854 60.76980 60.56417
# Shear Modulus (GPa) = 21.95938 22.49452 22.22695
#
# Velocity S-wave (km/s) = 3.44731 3.48906 3.46825
# Velocity P-wave (km/s) = 6.96491 7.00848 6.98673
#
# Compressibility (1/GPa) = 0.01656766
#
# Stress axis : x y z
#
# Youngs Moduli (GPa) = 64.55554 67.62397 75.65495
#
# Poissons Ratio (x) = 0.33881 0.28663
# Poissons Ratio (y) = 0.32344 0.35295
# Poissons Ratio (z) = 0.24458 0.31549
#
# Static dielectric constant tensor:
#      x y z
#    x 3.078430 0.000000 0.000000 
#    y 0.000000 3.484330 0.000000 
#    z 0.000000 0.000000 3.570370 
# 
# 
# High freq. dielectric constant tensor:
#      x y z
#    x 1.690550 0.000000 0.000000 
#    y 0.000000 1.719310 0.000000 
#    z 0.000000 0.000000 1.724860 
# 
# From -- ./inp_files/32527.got.cif
#   From: 2010.03.12/outbox.cif.g09.slc.cpg/sg63_17_cif.got.tgz:32527.got - 2010.04.10 19:34:48.
