data_PCOD8261496
_publ_section_title
;
Structure prediction by ZEFSAII (Michael W. Deem and Ramdas Pophale) SiO2 
 PCOD8261496
Probable space group: C M C A
;
_chemical_formula_sum "Si O2"
_cell_formula_units_Z 128
_cell_length_a 18.415994
_cell_length_b 22.782746
_cell_length_c 18.333982
_cell_angle_alpha 90.000000
_cell_angle_beta 90.000000
_cell_angle_gamma 90.000000
_cell_volume 7692.332242
_symmetry_space_group_name_H-M "C M C A"
_symmetry_group_IT_number 64
_symmetry_cell_setting 'orthorhombic'
loop_
_space_group_symop_operation_xyz
x,y,z
-x,1/2-y,1/2+z
x,-y,-z
-x,1/2+y,1/2-z
-x,-y,-z
x,1/2+y,1/2-z
-x,y,z
x,1/2-y,1/2+z
1/2+x,1/2+y,z
1/2-x,-y,1/2+z
1/2+x,1/2-y,-z
1/2-x,y,1/2-z
1/2-x,1/2-y,-z
1/2+x,y,1/2-z
1/2-x,1/2+y,z
1/2+x,-y,1/2+z
loop_
_atom_site_type_symbol
_atom_site_label
_atom_site_fract_x
_atom_site_fract_y
_atom_site_fract_z
Si Si1 0.168007 0.859557 0.227948
Si Si2 0.318733 0.282770 0.094393
Si Si3 0.583914 0.121745 0.967997
Si Si4 0.583805 0.944669 0.180376
Si Si5 0.158031 0.759720 0.444265
Si Si6 0.584808 0.562360 0.388151
Si Si7 0.082309 0.813248 0.667957
Si Si8 0.581220 0.242110 0.803211
O O1 0.250000 0.870445 0.250000
O O2 0.163337 0.841577 0.141752
O O3 0.124605 0.919386 0.247738
O O4 0.136231 0.807062 0.275906
O O5 0.233939 0.266913 0.098309
O O6 0.364165 0.228821 0.125175
O O7 0.338358 0.289410 0.008390
O O8 0.500000 0.138025 0.983795
O O9 0.594136 0.100652 0.885793
O O10 0.633497 0.178693 0.980039
O O11 0.609185 0.072541 0.027339
O O12 0.500000 0.952281 0.202239
O O13 0.620065 0.005860 0.152104
O O14 0.099572 0.738255 0.385219
O O15 0.500000 0.548631 0.388329
O O16 0.606095 0.619661 0.341999
O O17 0.086723 0.800057 0.753902
O O18 0.000000 0.803513 0.638587
O O19 0.500000 0.215308 0.800918
#
# Coordination Sequence:
#
# PCOD8261496 Si02
#       8
#    16  16  16  16  16  16  16  16
#     4  11  19  33  50  70 102 134 163 208 252 301
#     4  10  21  31  47  72 100 133 167 203 258 310
#     4  10  17  28  46  73 103 131 163 201 249 305
#     4  10  19  30  49  72  97 129 170 207 246 306
#     4  11  19  31  48  73 100 135 168 203 254 315
#     4   9  17  30  47  70  98 131 164 207 255 293
#     4   9  18  31  48  70  99 131 168 213 256 302
#     4  10  19  31  50  74  98 130 169 204 248 304
#
# _framework density 16.639948
#
# number of rings (size 3 to 8) (size 9 to 14) (size 15 to 20)
#    0.000    2.000    3.750    1.125    0.000    2.500 
#    0.000    0.000    2.750    0.000    0.000    0.875 
#    0.000    4.000    0.000    0.000    0.000    1.500 
#
# Total GULP energy -793115.323998 kJ/mol
# GULP energy per Si atom -12392.426937 kJ/mol
# Density = 1.660207 g / cm^3
# Si number density = 16.639948 Si / 1000 Ang^3
#
#
#
# Elastic Constant Matrix: (Units=GPa)
#
#
# Indices 1 2 3 4 5 6 
#
# 1 70.3204 33.0221 29.5229 0.0000 0.0000 0.0000
# 2 33.0221 59.3771 35.0613 0.0000 0.0000 0.0000
# 3 29.5229 35.0613 97.7340 0.0000 0.0000 0.0000
# 4 0.0000 0.0000 0.0000 30.3869 0.0000 0.0000
# 5 0.0000 0.0000 0.0000 0.0000 23.5817 0.0000
# 6 0.0000 0.0000 0.0000 0.0000 0.0000 10.7942
#
#
#
# Elastic Compliance Matrix: (Units=1/GPa)
#
#
# Indices 1 2 3 4 5 6 
#
# 1 0.019743 -0.009463 -0.002569 0.000000 0.000000 0.000000
# 2 -0.009463 0.025904 -0.006434 0.000000 0.000000 0.000000
# 3 -0.002569 -0.006434 0.013316 0.000000 0.000000 0.000000
# 4 0.000000 0.000000 0.000000 0.032909 0.000000 0.000000
# 5 0.000000 0.000000 0.000000 0.000000 0.042406 0.000000
# 6 0.000000 0.000000 0.000000 0.000000 0.000000 0.092643
#
#
# Mechanical properties :
#
#
# Convention : Reuss Voigt Hill
#
# Bulk Modulus (GPa) = 45.39214 46.96047 46.17631
# Shear Modulus (GPa) = 18.43689 21.60757 20.02223
#
# Velocity S-wave (km/s) = 3.33226 3.60743 3.47257
# Velocity P-wave (km/s) = 6.49180 6.75531 6.62487
#
# Compressibility (1/GPa) = 0.02203025
#
# Stress axis : x y z
#
# Youngs Moduli (GPa) = 50.65100 38.60481 75.09689
#
# Poissons Ratio (x) = 0.36531 0.19293
# Poissons Ratio (y) = 0.47930 0.48319
# Poissons Ratio (z) = 0.13013 0.24839
#
# Static dielectric constant tensor:
#      x y z
#    x 3.104100 0.000000 0.000000 
#    y 0.000000 3.057810 0.000000 
#    z 0.000000 0.000000 3.392490 
# 
# 
# High freq. dielectric constant tensor:
#      x y z
#    x 1.629040 0.000000 0.000000 
#    y 0.000000 1.611910 0.000000 
#    z 0.000000 0.000000 1.645570 
# 
# From -- ./inp_files/33748.got.cif
#   From: 2010.03.12/outbox.cif.g09.slc.cpg/sg64_17_cif.got.tgz:33748.got - 2010.04.10 20:19:32.
