data_PCOD8261354
_publ_section_title
;
Structure prediction by ZEFSAII (Michael W. Deem and Ramdas Pophale) SiO2 
 PCOD8261354
Probable space group: C M C M
;
_chemical_formula_sum "Si O2"
_cell_formula_units_Z 80
_cell_length_a 14.965325
_cell_length_b 32.414330
_cell_length_c 9.258283
_cell_angle_alpha 90.000000
_cell_angle_beta 90.000000
_cell_angle_gamma 90.000000
_cell_volume 4491.109602
_symmetry_space_group_name_H-M "C M C M"
_symmetry_group_IT_number 63
_symmetry_cell_setting 'orthorhombic'
loop_
_space_group_symop_operation_xyz
x,y,z
-x,-y,1/2+z
x,-y,-z
-x,y,1/2-z
-x,-y,-z
x,y,1/2-z
-x,y,z
x,-y,1/2+z
1/2+x,1/2+y,z
1/2-x,1/2-y,1/2+z
1/2+x,1/2-y,-z
1/2-x,1/2+y,1/2-z
1/2-x,1/2-y,-z
1/2+x,1/2+y,1/2-z
1/2-x,1/2+y,z
1/2+x,1/2-y,1/2+z
loop_
_atom_site_type_symbol
_atom_site_label
_atom_site_fract_x
_atom_site_fract_y
_atom_site_fract_z
Si Si1 0.602308 0.540975 0.581480
Si Si2 0.164696 0.799922 0.911507
Si Si3 0.403708 0.146203 0.585560
Si Si4 0.711731 0.620127 0.919469
Si Si5 0.867838 0.274817 0.910652
O O1 0.633617 0.500000 0.500000
O O2 0.613616 0.532524 0.750000
O O3 0.500000 0.552387 0.542692
O O4 0.666756 0.577707 0.529201
O O5 0.125181 0.806046 0.750000
O O6 0.262746 0.781296 0.900906
O O7 0.163736 0.843318 0.994432
O O8 0.106762 0.766703 0.001260
O O9 0.389728 0.161048 0.750000
O O10 0.500000 0.122467 0.569139
O O11 0.318247 0.118044 0.542525
O O12 0.411992 0.186445 0.488175
O O13 0.695304 0.627645 0.750000
O O14 0.908180 0.270706 0.750000
#
# Coordination Sequence:
#
# PCOD8261354 Si02
#       5
#    16  16  16  16  16
#     4   9  18  33  53  75  96 117 143 178 223 277
#     4   9  16  26  42  64  89 119 156 195 232 270
#     4   9  17  29  45  65  90 122 160 197 229 265
#     4   9  17  30  48  69  93 121 152 188 231 276
#     4   9  16  26  41  61  87 121 159 197 234 268
#
# _framework density 17.812968999999999
#
# number of rings (size 3 to 8) (size 9 to 14) (size 15 to 20)
#    0.000    3.000    0.000    1.200    0.000    6.000 
#    0.000    1.000    0.000    4.200    0.000    0.000 
#    0.000    0.000    0.000    0.000    0.000    0.000 
#
# Total GULP energy -495723.313182 kJ/mol
# GULP energy per Si atom -12393.082830 kJ/mol
# Density = 1.777243 g / cm^3
# Si number density = 17.812969 Si / 1000 Ang^3
#
#
#
# Elastic Constant Matrix: (Units=GPa)
#
#
# Indices 1 2 3 4 5 6 
#
# 1 82.8798 61.3468 29.9816 0.0000 0.0000 0.0000
# 2 61.3468 137.1728 59.1415 0.0000 0.0000 0.0000
# 3 29.9816 59.1415 86.7142 0.0000 0.0000 0.0000
# 4 0.0000 0.0000 0.0000 30.0527 0.0000 0.0000
# 5 0.0000 0.0000 0.0000 0.0000 9.2222 0.0000
# 6 0.0000 0.0000 0.0000 0.0000 0.0000 15.3987
#
#
#
# Elastic Compliance Matrix: (Units=1/GPa)
#
#
# Indices 1 2 3 4 5 6 
#
# 1 0.018103 -0.007646 -0.001045 0.000000 0.000000 0.000000
# 2 -0.007646 0.013556 -0.006602 0.000000 0.000000 0.000000
# 3 -0.001045 -0.006602 0.016396 0.000000 0.000000 0.000000
# 4 0.000000 0.000000 0.000000 0.033275 0.000000 0.000000
# 5 0.000000 0.000000 0.000000 0.000000 0.108434 0.000000
# 6 0.000000 0.000000 0.000000 0.000000 0.000000 0.064941
#
#
# Mechanical properties :
#
#
# Convention : Reuss Voigt Hill
#
# Bulk Modulus (GPa) = 57.23988 67.52294 62.38141
# Shear Modulus (GPa) = 17.17557 21.35452 19.26505
#
# Velocity S-wave (km/s) = 3.10855 3.46615 3.29221
# Velocity P-wave (km/s) = 6.71474 7.34900 7.03902
#
# Compressibility (1/GPa) = 0.01747034
#
# Stress axis : x y z
#
# Youngs Moduli (GPa) = 55.24027 73.76949 60.99060
#
# Poissons Ratio (x) = 0.56401 0.06371
# Poissons Ratio (y) = 0.42234 0.40265
# Poissons Ratio (z) = 0.05770 0.48702
#
# Static dielectric constant tensor:
#      x y z
#    x 3.272780 0.000000 0.000000 
#    y 0.000000 3.071830 0.000000 
#    z 0.000000 0.000000 3.493580 
# 
# 
# High freq. dielectric constant tensor:
#      x y z
#    x 1.680870 0.000000 0.000000 
#    y 0.000000 1.654860 0.000000 
#    z 0.000000 0.000000 1.696180 
# 
# From -- ./inp_files/6633.got.cif
#   From: 2010.03.12/outbox.cif.g09.slc.cpg/sg63_4_cif.got.tgz:6633.got - 2010.04.10 19:34:48.
