data_PCOD8261717
_publ_section_title
;
Structure prediction by ZEFSAII (Michael W. Deem and Ramdas Pophale) SiO2 
 PCOD8261717
Probable space group: C M C A
;
_chemical_formula_sum "Si O2"
_cell_formula_units_Z 80
_cell_length_a 16.847000
_cell_length_b 18.034762
_cell_length_c 14.748585
_cell_angle_alpha 90.000000
_cell_angle_beta 90.000000
_cell_angle_gamma 90.000000
_cell_volume 4481.086701
_symmetry_space_group_name_H-M "C M C A"
_symmetry_group_IT_number 64
_symmetry_cell_setting 'orthorhombic'
loop_
_space_group_symop_operation_xyz
x,y,z
-x,1/2-y,1/2+z
x,-y,-z
-x,1/2+y,1/2-z
-x,-y,-z
x,1/2+y,1/2-z
-x,y,z
x,1/2-y,1/2+z
1/2+x,1/2+y,z
1/2-x,-y,1/2+z
1/2+x,1/2-y,-z
1/2-x,y,1/2-z
1/2-x,1/2-y,-z
1/2+x,y,1/2-z
1/2-x,1/2+y,z
1/2+x,-y,1/2+z
loop_
_atom_site_type_symbol
_atom_site_label
_atom_site_fract_x
_atom_site_fract_y
_atom_site_fract_z
Si Si1 0.763686 0.087045 0.503956
Si Si2 0.295020 0.336914 0.164880
Si Si3 0.090974 0.186386 0.493812
Si Si4 0.588672 0.773381 0.789071
Si Si5 0.682754 0.203317 0.385422
O O1 0.703563 0.101992 0.587159
O O2 0.851082 0.120196 0.526234
O O3 0.722625 0.125996 0.417126
O O4 0.772744 0.000000 0.500000
O O5 0.250000 0.372155 0.250000
O O6 0.382571 0.311837 0.196579
O O7 0.253514 0.261678 0.127892
O O8 0.094165 0.185088 0.384838
O O9 0.122035 0.263593 0.538717
O O10 0.000000 0.172522 0.525932
O O11 0.500000 0.770294 0.751948
O O12 0.640491 0.813144 0.710738
#
# Coordination Sequence:
#
# PCOD8261717 Si02
#       5
#    16  16  16  16  16
#     4  11  21  35  52  81 116 149 177 212 276 338
#     4   9  17  34  55  78 103 137 187 231 258 311
#     4  10  19  34  56  80 108 140 186 236 264 305
#     4  10  18  30  57  83 101 133 181 236 272 301
#     4  10  18  34  55  80 106 138 186 225 267 315
#
# _framework density 17.852812
#
# number of rings (size 3 to 8) (size 9 to 14) (size 15 to 20)
#    0.000    2.000    4.000    1.800    0.000    0.400 
#    3.600    0.000    0.000    5.400    0.000    0.000 
#    0.000    0.000    0.000    0.000    0.000    0.000 
#
# Total GULP energy -495672.400733 kJ/mol
# GULP energy per Si atom -12391.810018 kJ/mol
# Density = 1.781218 g / cm^3
# Si number density = 17.852812 Si / 1000 Ang^3
#
#
#
# Elastic Constant Matrix: (Units=GPa)
#
#
# Indices 1 2 3 4 5 6 
#
# 1 86.9165 26.1895 10.0233 0.0000 0.0000 0.0000
# 2 26.1895 83.0385 15.7358 0.0000 0.0000 0.0000
# 3 10.0233 15.7358 76.5886 0.0000 0.0000 0.0000
# 4 0.0000 0.0000 0.0000 15.6790 0.0000 0.0000
# 5 0.0000 0.0000 0.0000 0.0000 21.7416 0.0000
# 6 0.0000 0.0000 0.0000 0.0000 0.0000 14.6957
#
#
#
# Elastic Compliance Matrix: (Units=1/GPa)
#
#
# Indices 1 2 3 4 5 6 
#
# 1 0.012770 -0.003861 -0.000878 0.000000 0.000000 0.000000
# 2 -0.003861 0.013698 -0.002309 0.000000 0.000000 0.000000
# 3 -0.000878 -0.002309 0.013646 0.000000 0.000000 0.000000
# 4 0.000000 0.000000 0.000000 0.063779 0.000000 0.000000
# 5 0.000000 0.000000 0.000000 0.000000 0.045995 0.000000
# 6 0.000000 0.000000 0.000000 0.000000 0.000000 0.068047
#
#
# Mechanical properties :
#
#
# Convention : Reuss Voigt Hill
#
# Bulk Modulus (GPa) = 38.43529 38.93786 38.68657
# Shear Modulus (GPa) = 20.77239 23.39627 22.08433
#
# Velocity S-wave (km/s) = 3.41476 3.62402 3.52095
# Velocity P-wave (km/s) = 6.09288 6.27449 6.18435
#
# Compressibility (1/GPa) = 0.02601776
#
# Stress axis : x y z
#
# Youngs Moduli (GPa) = 78.30874 73.00366 73.28109
#
# Poissons Ratio (x) = 0.28188 0.06433
# Poissons Ratio (y) = 0.30236 0.16921
# Poissons Ratio (z) = 0.06875 0.16857
#
# Static dielectric constant tensor:
#      x y z
#    x 3.602420 0.000000 0.000000 
#    y 0.000000 2.759550 0.000000 
#    z 0.000000 0.000000 3.562550 
# 
# 
# High freq. dielectric constant tensor:
#      x y z
#    x 1.696130 0.000000 0.000000 
#    y 0.000000 1.625070 0.000000 
#    z 0.000000 0.000000 1.712530 
# 
# From -- ./inp_files/25261.got.cif
#   From: 2010.03.12/outbox.cif.g09.slc.cpg/sg64_13_cif.got.tgz:25261.got - 2010.04.10 20:19:32.
