data_PCOD8261758
_publ_section_title
;
Structure prediction by ZEFSAII (Michael W. Deem and Ramdas Pophale) SiO2 
 PCOD8261758
Probable space group: C M C A
;
_chemical_formula_sum "Si O2"
_cell_formula_units_Z 112
_cell_length_a 21.195486
_cell_length_b 12.221873
_cell_length_c 21.795094
_cell_angle_alpha 90.000000
_cell_angle_beta 90.000000
_cell_angle_gamma 90.000000
_cell_volume 5645.987238
_symmetry_space_group_name_H-M "C M C A"
_symmetry_group_IT_number 64
_symmetry_cell_setting 'orthorhombic'
loop_
_space_group_symop_operation_xyz
x,y,z
-x,1/2-y,1/2+z
x,-y,-z
-x,1/2+y,1/2-z
-x,-y,-z
x,1/2+y,1/2-z
-x,y,z
x,1/2-y,1/2+z
1/2+x,1/2+y,z
1/2-x,-y,1/2+z
1/2+x,1/2-y,-z
1/2-x,y,1/2-z
1/2-x,1/2-y,-z
1/2+x,y,1/2-z
1/2-x,1/2+y,z
1/2+x,-y,1/2+z
loop_
_atom_site_type_symbol
_atom_site_label
_atom_site_fract_x
_atom_site_fract_y
_atom_site_fract_z
Si Si1 0.303357 0.322739 0.116787
Si Si2 0.627327 0.124666 0.496051
Si Si3 0.273859 0.974000 0.682353
Si Si4 0.350014 0.094741 0.120655
Si Si5 0.929008 0.399154 0.129283
Si Si6 0.430663 0.846600 0.989300
Si Si7 0.669911 0.720956 0.129539
O O1 0.316408 0.423055 0.162675
O O2 0.345128 0.220937 0.143496
O O3 0.229139 0.298063 0.116324
O O4 0.319941 0.357147 0.047824
O O5 0.572202 0.214145 0.505834
O O6 0.657511 0.146640 0.429948
O O7 0.601001 0.000000 0.500000
O O8 0.250000 0.997572 0.750000
O O9 0.218602 0.958997 0.631010
O O10 0.316116 0.864277 0.684470
O O11 0.372673 0.104629 0.049846
O O12 0.400597 0.014900 0.154431
O O13 0.888294 0.295606 0.151924
O O14 0.000000 0.385340 0.153914
O O15 0.925350 0.402505 0.055529
O O16 0.500000 0.874232 0.960813
#
# Coordination Sequence:
#
# PCOD8261758 Si02
#       7
#    16  16  16  16  16  16  16
#     4  10  20  35  53  84 116 148 183 236 298 349
#     4  10  18  31  53  81 121 151 179 230 295 363
#     4  11  23  39  59  82 111 153 199 246 295 343
#     4  10  20  35  55  84 112 148 190 236 286 339
#     4  10  19  35  60  89 122 156 189 228 281 351
#     4   9  19  33  54  86 119 153 190 229 278 347
#     4  10  20  36  55  86 114 147 193 233 292 352
#
# _framework density 19.837097
#
# number of rings (size 3 to 8) (size 9 to 14) (size 15 to 20)
#    0.000    2.000    2.857    1.286    0.000    4.857 
#    5.143    0.000    0.000    1.714    0.000    0.000 
#    0.000    0.000    0.000    0.000    0.000    0.000 
#
# Total GULP energy -693811.406660 kJ/mol
# GULP energy per Si atom -12389.489405 kJ/mol
# Density = 1.979195 g / cm^3
# Si number density = 19.837097 Si / 1000 Ang^3
#
#
#
# Elastic Constant Matrix: (Units=GPa)
#
#
# Indices 1 2 3 4 5 6 
#
# 1 99.7954 50.9345 7.1795 0.0000 0.0000 0.0000
# 2 50.9345 148.6324 14.1374 0.0000 0.0000 0.0000
# 3 7.1795 14.1374 23.7974 0.0000 0.0000 0.0000
# 4 0.0000 0.0000 0.0000 8.3112 0.0000 0.0000
# 5 0.0000 0.0000 0.0000 0.0000 10.4849 0.0000
# 6 0.0000 0.0000 0.0000 0.0000 0.0000 26.1926
#
#
#
# Elastic Compliance Matrix: (Units=1/GPa)
#
#
# Indices 1 2 3 4 5 6 
#
# 1 0.012181 -0.004054 -0.001267 0.000000 0.000000 0.000000
# 2 -0.004054 0.008480 -0.003815 0.000000 0.000000 0.000000
# 3 -0.001267 -0.003815 0.044670 0.000000 0.000000 0.000000
# 4 0.000000 0.000000 0.000000 0.120320 0.000000 0.000000
# 5 0.000000 0.000000 0.000000 0.000000 0.095376 0.000000
# 6 0.000000 0.000000 0.000000 0.000000 0.000000 0.038179
#
#
# Mechanical properties :
#
#
# Convention : Reuss Voigt Hill
#
# Bulk Modulus (GPa) = 21.24937 46.30311 33.77624
# Shear Modulus (GPa) = 14.15783 22.32931 18.24357
#
# Velocity S-wave (km/s) = 2.67442 3.35869 3.03590
# Velocity P-wave (km/s) = 4.50243 6.19947 5.41781
#
# Compressibility (1/GPa) = 0.04706021
#
# Stress axis : x y z
#
# Youngs Moduli (GPa) = 82.09799 117.92456 22.38651
#
# Poissons Ratio (x) = 0.47803 0.02836
# Poissons Ratio (y) = 0.33280 0.08540
# Poissons Ratio (z) = 0.10399 0.44986
#
# Static dielectric constant tensor:
#      x y z
#    x 3.547070 0.000000 0.000000 
#    y 0.000000 4.070600 0.000000 
#    z 0.000000 0.000000 3.129590 
# 
# 
# High freq. dielectric constant tensor:
#      x y z
#    x 1.751730 0.000000 0.000000 
#    y 0.000000 1.807080 0.000000 
#    z 0.000000 0.000000 1.722600 
# 
# From -- ./inp_files/46330.got.cif
#   From: 2010.03.12/outbox.cif.g09.slc.cpg/sg64_24_cif.got.tgz:46330.got - 2010.04.10 20:19:32.
