data_PCOD8261015
_publ_section_title
;
Structure prediction by ZEFSAII (Michael W. Deem and Ramdas Pophale) SiO2 
 PCOD8261015
Probable space group: C M C M
;
_chemical_formula_sum "Si O2"
_cell_formula_units_Z 96
_cell_length_a 8.778658
_cell_length_b 25.325480
_cell_length_c 23.178607
_cell_angle_alpha 90.000000
_cell_angle_beta 90.000000
_cell_angle_gamma 90.000000
_cell_volume 5153.154309
_symmetry_space_group_name_H-M "C M C M"
_symmetry_group_IT_number 63
_symmetry_cell_setting 'orthorhombic'
loop_
_space_group_symop_operation_xyz
x,y,z
-x,-y,1/2+z
x,-y,-z
-x,y,1/2-z
-x,-y,-z
x,y,1/2-z
-x,y,z
x,-y,1/2+z
1/2+x,1/2+y,z
1/2-x,1/2-y,1/2+z
1/2+x,1/2-y,-z
1/2-x,1/2+y,1/2-z
1/2-x,1/2-y,-z
1/2+x,1/2+y,1/2-z
1/2-x,1/2+y,z
1/2+x,1/2-y,1/2+z
loop_
_atom_site_type_symbol
_atom_site_label
_atom_site_fract_x
_atom_site_fract_y
_atom_site_fract_z
Si Si1 0.323491 0.244787 0.683491
Si Si2 0.323086 0.156916 0.369412
Si Si3 0.180772 0.940217 0.186100
Si Si4 0.175468 0.058405 0.182376
Si Si5 0.319870 0.345267 0.108845
Si Si6 0.178135 0.307362 0.996589
O O1 0.291484 0.231459 0.750000
O O2 0.500000 0.237215 0.667920
O O3 0.275587 0.304813 0.671102
O O4 0.222638 0.207068 0.643912
O O5 0.500000 0.167525 0.357420
O O6 0.281767 0.097023 0.354110
O O7 0.281353 0.166107 0.435949
O O8 0.247559 0.928366 0.250000
O O9 0.245134 0.896836 0.141736
O O10 0.000000 0.936602 0.189380
O O11 0.227726 0.998951 0.166071
O O12 0.199377 0.068390 0.250000
O O13 0.000000 0.067745 0.165355
O O14 0.500000 0.347111 0.102091
O O15 0.246100 0.345008 0.045829
O O16 0.000000 0.301209 0.006258
O O17 0.250000 0.250000 0.000000
#
# Coordination Sequence:
#
# PCOD8261015 Si02
#       6
#    16  16  16  16  16  16
#     4  11  23  36  53  80 113 146 180 224 278 335
#     4  11  23  37  55  80 109 144 186 230 280 332
#     4   8  16  33  57  84 113 145 182 224 273 331
#     4   9  18  35  59  84 111 145 183 225 275 330
#     4  11  21  35  58  85 111 144 185 231 280 329
#     4  11  23  39  57  78 108 149 191 231 279 333
#
# _framework density 18.629366999999998
#
# number of rings (size 3 to 8) (size 9 to 14) (size 15 to 20)
#    0.000    1.833    1.667    4.000    0.000    6.333 
#    0.000    2.500    0.000    7.000    0.000    0.000 
#    0.000    0.000    0.000    0.000    0.000    0.000 
#
# Total GULP energy -595356.908219 kJ/mol
# GULP energy per Si atom -12403.268921 kJ/mol
# Density = 1.858697 g / cm^3
# Si number density = 18.629367 Si / 1000 Ang^3
#
#
#
# Elastic Constant Matrix: (Units=GPa)
#
#
# Indices 1 2 3 4 5 6 
#
# 1 61.4028 24.2335 40.4604 0.0000 0.0000 0.0000
# 2 24.2335 115.8123 48.0154 0.0000 0.0000 0.0000
# 3 40.4604 48.0154 94.1205 0.0000 0.0000 0.0000
# 4 0.0000 0.0000 0.0000 29.1820 0.0000 0.0000
# 5 0.0000 0.0000 0.0000 0.0000 31.4085 0.0000
# 6 0.0000 0.0000 0.0000 0.0000 0.0000 26.6281
#
#
#
# Elastic Compliance Matrix: (Units=1/GPa)
#
#
# Indices 1 2 3 4 5 6 
#
# 1 0.022795 -0.000897 -0.009342 0.000000 0.000000 0.000000
# 2 -0.000897 0.010986 -0.005219 0.000000 0.000000 0.000000
# 3 -0.009342 -0.005219 0.017303 0.000000 0.000000 0.000000
# 4 0.000000 0.000000 0.000000 0.034268 0.000000 0.000000
# 5 0.000000 0.000000 0.000000 0.000000 0.031838 0.000000
# 6 0.000000 0.000000 0.000000 0.000000 0.000000 0.037554
#
#
# Mechanical properties :
#
#
# Convention : Reuss Voigt Hill
#
# Bulk Modulus (GPa) = 49.58025 55.19490 52.38758
# Shear Modulus (GPa) = 25.98978 28.01881 27.00429
#
# Velocity S-wave (km/s) = 3.73915 3.88237 3.81143
# Velocity P-wave (km/s) = 6.73153 7.05615 6.89575
#
# Compressibility (1/GPa) = 0.02016932
#
# Stress axis : x y z
#
# Youngs Moduli (GPa) = 43.86838 91.02406 57.79360
#
# Poissons Ratio (x) = 0.08164 0.53989
# Poissons Ratio (y) = 0.03934 0.30162
# Poissons Ratio (z) = 0.40981 0.47505
#
# Static dielectric constant tensor:
#      x y z
#    x 3.298100 0.000000 0.000000 
#    y 0.000000 3.511580 0.000000 
#    z 0.000000 0.000000 3.745700 
# 
# 
# High freq. dielectric constant tensor:
#      x y z
#    x 1.715370 0.000000 0.000000 
#    y 0.000000 1.724630 0.000000 
#    z 0.000000 0.000000 1.724350 
# 
# From -- ./inp_files/59887.got.cif
#   From: 2010.03.12/outbox.cif.g09.slc.cpg/sg63_30_cif.got.tgz:59887.got - 2010.04.10 19:34:48.
