data_PCOD8261599
_publ_section_title
;
Structure prediction by ZEFSAII (Michael W. Deem and Ramdas Pophale) SiO2 
 PCOD8261599
Probable space group: C M C A
;
_chemical_formula_sum "Si O2"
_cell_formula_units_Z 104
_cell_length_a 23.075841
_cell_length_b 19.062723
_cell_length_c 11.901158
_cell_angle_alpha 90.000000
_cell_angle_beta 90.000000
_cell_angle_gamma 90.000000
_cell_volume 5235.180934
_symmetry_space_group_name_H-M "C M C A"
_symmetry_group_IT_number 64
_symmetry_cell_setting 'orthorhombic'
loop_
_space_group_symop_operation_xyz
x,y,z
-x,1/2-y,1/2+z
x,-y,-z
-x,1/2+y,1/2-z
-x,-y,-z
x,1/2+y,1/2-z
-x,y,z
x,1/2-y,1/2+z
1/2+x,1/2+y,z
1/2-x,-y,1/2+z
1/2+x,1/2-y,-z
1/2-x,y,1/2-z
1/2-x,1/2-y,-z
1/2+x,y,1/2-z
1/2-x,1/2+y,z
1/2+x,-y,1/2+z
loop_
_atom_site_type_symbol
_atom_site_label
_atom_site_fract_x
_atom_site_fract_y
_atom_site_fract_z
Si Si1 0.126389 0.431259 0.938421
Si Si2 0.500000 0.650373 0.209904
Si Si3 0.194552 0.173789 0.582210
Si Si4 0.500000 0.694756 0.681848
Si Si5 0.500000 0.112159 0.047408
Si Si6 0.184289 0.672711 0.502665
Si Si7 0.120991 0.207943 0.781089
Si Si8 0.875438 0.629363 0.290317
O O1 0.146682 0.423780 0.807584
O O2 0.056862 0.436211 0.944682
O O3 0.152760 0.500000 0.000000
O O4 0.148235 0.362084 0.001017
O O5 0.500000 0.724190 0.146070
O O6 0.500000 0.664751 0.345582
O O7 0.558327 0.608441 0.176542
O O8 0.200598 0.255428 0.557011
O O9 0.258642 0.140363 0.563638
O O10 0.170714 0.167956 0.708943
O O11 0.500000 0.653867 0.566820
O O12 0.557822 0.676724 0.752059
O O13 0.132848 0.687469 0.590328
O O14 0.163376 0.620889 0.402234
O O15 0.123748 0.291396 0.759513
#
# Coordination Sequence:
#
# PCOD8261599 Si02
#       8
#    16   8  16   8   8  16  16  16
#     4  11  21  37  59  81 111 148 197 239 278 339
#     4   8  18  27  49  78 113 145 169 235 290 335
#     4  10  20  34  55  82 108 150 187 234 284 336
#     4  10  18  27  53  79 113 147 170 235 291 342
#     4  10  19  36  52  83 114 140 194 233 286 350
#     4  10  20  33  55  80 118 143 181 236 290 350
#     4  10  18  32  53  84 113 144 182 233 295 347
#     4   9  19  32  51  84 113 144 186 230 289 336
#
# _framework density 19.865597999999999
#
# number of rings (size 3 to 8) (size 9 to 14) (size 15 to 20)
#    0.000    2.154    3.077    0.692    0.000    1.231 
#    0.000    0.000    6.769    0.000    0.000    1.077 
#    0.000    0.000    0.000    0.000    0.000    0.000 
#
# Total GULP energy -644374.141849 kJ/mol
# GULP energy per Si atom -12391.810420 kJ/mol
# Density = 1.982038 g / cm^3
# Si number density = 19.865598 Si / 1000 Ang^3
#
#
#
# Elastic Constant Matrix: (Units=GPa)
#
#
# Indices 1 2 3 4 5 6 
#
# 1 107.1083 16.4049 52.1502 0.0000 0.0000 0.0000
# 2 16.4049 28.7358 21.8706 0.0000 0.0000 0.0000
# 3 52.1502 21.8706 118.0441 0.0000 0.0000 0.0000
# 4 0.0000 0.0000 0.0000 22.1860 0.0000 0.0000
# 5 0.0000 0.0000 0.0000 0.0000 26.9387 0.0000
# 6 0.0000 0.0000 0.0000 0.0000 0.0000 10.2173
#
#
#
# Elastic Compliance Matrix: (Units=1/GPa)
#
#
# Indices 1 2 3 4 5 6 
#
# 1 0.012161 -0.003322 -0.004757 0.000000 0.000000 0.000000
# 2 -0.003322 0.041420 -0.006206 0.000000 0.000000 0.000000
# 3 -0.004757 -0.006206 0.011723 0.000000 0.000000 0.000000
# 4 0.000000 0.000000 0.000000 0.045074 0.000000 0.000000
# 5 0.000000 0.000000 0.000000 0.000000 0.037121 0.000000
# 6 0.000000 0.000000 0.000000 0.000000 0.000000 0.097873
#
#
# Mechanical properties :
#
#
# Convention : Reuss Voigt Hill
#
# Bulk Modulus (GPa) = 27.22354 48.30438 37.76396
# Shear Modulus (GPa) = 17.47101 22.76589 20.11845
#
# Velocity S-wave (km/s) = 2.96879 3.38893 3.18579
# Velocity P-wave (km/s) = 5.04829 6.29933 5.70818
#
# Compressibility (1/GPa) = 0.03673292
#
# Stress axis : x y z
#
# Youngs Moduli (GPa) = 82.22716 24.14288 85.30250
#
# Poissons Ratio (x) = 0.08021 0.40580
# Poissons Ratio (y) = 0.27317 0.52942
# Poissons Ratio (z) = 0.39117 0.14984
#
# Static dielectric constant tensor:
#      x y z
#    x 3.986280 0.000000 0.000000 
#    y 0.000000 2.993290 0.000000 
#    z 0.000000 0.000000 3.694320 
# 
# 
# High freq. dielectric constant tensor:
#      x y z
#    x 1.787150 0.000000 0.000000 
#    y 0.000000 1.703190 0.000000 
#    z 0.000000 0.000000 1.777260 
# 
# From -- ./inp_files/19248.got.cif
#   From: 2010.03.12/outbox.cif.g09.slc.cpg/sg64_10_cif.got.tgz:19248.got - 2010.04.10 20:19:32.
